13
gdb 132720	5.87789	0.99377	0.85005	2.5918	77.74	-0.2444	-0.042	0.2024	1224.9037	0.089518	-423.608376	-423.601268	-423.600324	-423.640054	27.12	
F	-0.0120676584	 0.0381817382	 0.0035155757	-0.066842
C	-0.0158560548	 1.3662444803	 0.0106213596	 0.347325
N	-1.1959562649	 1.9433483701	 0.0292359512	-0.307323
C	-1.2216077529	 3.2767048654	 0.0366846159	-0.06553
C	-0.0710207905	 4.0779203096	 0.0258172015	 0.099946
C	 1.1696107098	 3.4171598127	 0.0059687774	-0.151325
C	 1.2068245432	 2.0341740604	-0.0018964926	-0.255805
C	-0.1658898627	 5.4965313448	 0.0346391271	 0.221491
C	-0.2495281727	 6.6976227024	 0.0421364242	-0.404006
H	-2.2022326381	 3.7428651814	 0.0520821301	 0.130106
H	 2.0865494627	 3.9949173928	-0.0030109646	 0.126779
H	 2.1356857136	 1.4783816924	-0.0170750945	 0.125461
H	-0.3251267244	 7.7568323195	 0.048742709	 0.199723
