12
gdb 3809	7.82487	2.12515	1.68907	1.6323	51.94	-0.2515	-0.0015	0.25	694.6579	0.090849	-360.497728	-360.491704	-360.49076	-360.527704	21.39	
C	-0.014567437	 1.3995230638	 0.0083653925	-0.241571
O	 0.004085195	-0.0308119118	 0.00280543	-0.259555
C	-1.1897418671	-0.6266753742	 0.0098403532	 0.489052
N	-2.3264362601	 0.0339914841	 0.0212848298	-0.243759
O	-3.3150980173	-0.9552503132	 0.0252142381	-0.181199
C	-2.7250064927	-2.1590100658	 0.0159178498	 0.10116
C	-1.3765127218	-2.0413827523	 0.0058446589	-0.367165
H	 1.0304654779	 1.7100289665	 0.0012383994	 0.134019
H	-0.5334532784	 1.7829540391	-0.8754274605	 0.143502
H	-0.5193113793	 1.7762249015	 0.903175709	 0.143496
H	-3.3927777093	-3.0069701052	 0.0178558953	 0.153352
H	-0.6246287898	-2.8110395226	-0.0030058057	 0.128667
