20
gdb 82486	3.2625	1.48049	1.37781	2.3316	77.79	-0.2021	0.069	0.2711	1026.4972	0.171393	-403.086926	-403.078976	-403.078032	-403.11883	32.077	
C	-0.3131330752	 1.5638309502	 0.0206708752	-0.421842
C	 0.0246418415	 0.086218445	-0.0448012413	 0.077535
C	 0.6246331698	-0.5658726226	-1.310896429	-0.075349
C	 1.877234973	 0.1701276684	-1.8643587258	-0.310733
C	 2.7239420914	-0.3843657176	-0.6876626783	 0.396654
O	 4.0141543427	-0.8496217219	-0.9510912792	-0.483988
C	 2.4234543031	 0.325499795	 0.6477856006	-0.23858
N	 1.1424254553	-0.4450446249	 0.8268027935	-0.166825
C	 1.5547583116	-1.3512868854	-0.3325565036	-0.040503
H	 0.4919682866	 2.2031164258	-0.351572686	 0.116405
H	-1.2041634718	 1.7717498214	-0.5813011004	 0.118856
H	-0.5277592918	 1.8573644174	 1.0539963401	 0.128209
H	-0.8641642306	-0.4865780947	 0.248963354	 0.082044
H	-0.0544647811	-1.0155805911	-2.0368532084	 0.066868
H	 2.2090745853	-0.3058475013	-2.7918860366	 0.108838
H	 1.8320435932	 1.2539583708	-2.0139049792	 0.088302
H	 4.5513635953	-0.1063700482	-1.2481401952	 0.276935
H	 3.1315865785	 0.0155680103	 1.4234578617	 0.1096
H	 2.3352116757	 1.4166769563	 0.662661295	 0.091728
H	 1.6188489276	-2.4281444128	-0.1866066071	 0.075846
