12
gdb 20776	3.4772	1.89435	1.23571	4.2712	57.83	-0.2818	-0.0939	0.1879	893.5461	0.082582	-414.627187	-414.620071	-414.619126	-414.659095	24.323	
C	-0.0283911479	 1.489619249	 0.0500020029	-0.504523
C	-0.0118509645	-0.0032985242	 0.0386761405	 0.273792
N	-0.039671003	-0.6886538927	-1.0724961845	-0.128518
O	-0.0125683871	-2.012166453	-0.6957968731	-0.135602
N	 0.0318697568	-2.1509297971	 0.6433236996	-0.105344
C	 0.0335931619	-0.9316703035	 1.1302290406	 0.169923
C	 0.0768856226	-0.6449388791	 2.5835003099	 0.096442
O	 0.1131180865	-1.4822035862	 3.4470338118	-0.22956
H	 0.8665792206	 1.8888656479	 0.5371057911	 0.153986
H	-0.065303974	 1.866399041	-0.9731734601	 0.166601
H	-0.8993070466	 1.8688545774	 0.5934399769	 0.153994
H	 0.0731258148	 0.4399324204	 2.8222193445	 0.088808
