21
gdb 88448	2.20122	1.41665	1.12651	2.2326	78.7	-0.2556	0.0854	0.341	1215.3916	0.179062	-424.198429	-424.188379	-424.187435	-424.233715	36.913	
C	-1.606473129	-0.5634366056	 2.4245123669	-0.415722
C	-0.7598063687	-0.8253148954	 1.2068409303	 0.089403
O	-0.4740154761	 0.2867404526	 0.3506359053	-0.265819
C	 0.6256799182	-0.3601560381	 1.0031540968	-0.033229
C	 1.439340596	 0.4755386248	 1.9588889367	 0.350224
C	 1.8355973908	 1.828797388	 1.4088640439	-0.456254
O	 1.0609994373	 0.4726419041	 3.3460015025	-0.294877
C	 2.2793317592	-0.1853898333	 2.9761607008	 0.02918
C	 2.3517163851	-1.6766761553	 3.1877224389	-0.427261
H	-1.2940679855	 0.3415731389	 2.9430182907	 0.151118
H	-2.6553951742	-0.465593838	 2.1243558338	 0.119139
H	-1.5349533056	-1.4021792637	 3.1249112695	 0.119474
H	-1.036962777	-1.7265192498	 0.6532918365	 0.085275
H	 1.2461062849	-0.9401214962	 0.3140342743	 0.091464
H	 0.9404034877	 2.405631198	 1.1615602	 0.14484
H	 2.4258797483	 2.3817833004	 2.1432813175	 0.123421
H	 2.4250002091	 1.7181712671	 0.4920757064	 0.121254
H	 3.1736856974	 0.3585902181	 3.2889257547	 0.084418
H	 1.4563365633	-2.1798622968	 2.8169475194	 0.130079
H	 3.2247468755	-2.0924557306	 2.6727414009	 0.122999
H	 2.4551548333	-1.9028554892	 4.2540808542	 0.130875
