14
gdb 84206	3.5371	1.14438	0.8937	2.178	67.58	-0.251	-0.0856	0.1654	1205.5679	0.100282	-473.868807	-473.860751	-473.859806	-473.901788	29.272	
O	 0.1057640461	 1.4338866937	 0.1891669136	-0.42832
C	-0.0242595351	 0.042974423	 0.0370433287	 0.007195
C	-1.4373238072	-0.4534429728	-0.1077584107	-0.227951
C	-1.4882903896	-1.25897055	-1.1836956454	 0.27966
N	-0.2505468304	-1.3231992745	-1.8469155405	-0.393344
C	 0.649180182	-0.4599939342	-1.2650281707	 0.384833
O	 1.7341549572	-0.1176559353	-1.6710410717	-0.36757
C	-2.6326327472	-2.0067331906	-1.7091003368	 0.090455
O	-2.5713983586	-2.6785267082	-2.7148154827	-0.277453
H	 0.9777050036	 1.6582214094	-0.1652536255	 0.300432
H	 0.4569530607	-0.4970194895	 0.8757171651	 0.116147
H	-2.2486022406	-0.2449874139	 0.5736941593	 0.137267
H	-0.1458177427	-1.7439607923	-2.7579433444	 0.28012
H	-3.5650610683	-1.9009610849	-1.1198308584	 0.098528
