18
gdb 14969	4.30788	1.39047	1.09825	1.6189	70.46	-0.2326	0.0295	0.2621	1073.4573	0.154473	-384.93759	-384.929605	-384.92866	-384.970129	29.416	
O	 0.0762707925	 1.4183713194	-0.0902134261	-0.412376
C	 0.004501528	 0.0117111242	 0.0432821988	-0.153623
C	-1.4280991708	-0.4426450784	 0.0593827213	 0.245538
C	-2.4667593695	 0.3900994812	 0.0952687493	-0.138042
C	-3.8860789436	-0.1115707182	 0.0759937036	-0.255513
C	-3.9206751713	-1.5767842995	-0.3611096551	-0.079248
O	-2.9511759388	-2.3389865713	 0.3400682254	-0.244696
C	-1.6324790862	-1.9400232469	 0.0319471369	-0.150858
H	 0.9961834439	 1.6798628108	 0.0037200454	 0.290006
H	 0.5340555069	-0.4952252429	-0.7843459785	 0.091516
H	 0.4982212586	-0.3260227763	 0.9722723782	 0.095797
H	-2.2924463465	 1.4598685304	 0.1341037752	 0.105014
H	-4.3415810669	-0.0027610001	 1.0702209344	 0.112799
H	-4.4970345196	 0.4916471304	-0.6079783244	 0.101545
H	-4.8872065249	-2.0411143024	-0.1463502193	 0.103996
H	-3.743377114	-1.645363046	-1.4475911624	 0.086923
H	-1.3291109748	-2.3369600831	-0.9561978561	 0.091711
H	-0.9886121629	-2.4282231913	 0.7751416031	 0.109509
