17
gdb 28552	2.33143	1.7638	1.01676	2.7702	78.04	-0.2296	-0.0452	0.1844	1138.827	0.136091	-418.080163	-418.071573	-418.070629	-418.11323	31.322	
C	-0.007172634	 1.5065461039	 0.0657232008	-0.506637
C	-0.0139353085	 0.0177721418	-0.01842176	 0.290488
C	-0.0635606093	-0.8180098982	-1.0868794396	-0.171746
N	-0.0488214064	-2.1503691321	-0.6966902091	-0.297855
C	 0.0097098429	-2.1526604904	 0.6035707991	 0.349867
C	 0.0460848938	-3.3672433732	 1.4642574095	-0.47551
N	 0.0344349086	-0.8376833968	 1.099064176	-0.151814
C	 0.0948671093	-0.432866662	 2.4286611913	 0.168022
O	 0.1360391539	-1.1758713548	 3.3750134245	-0.289665
H	 0.9001607557	 1.8989557447	 0.5402984364	 0.138337
H	-0.0516752394	 1.9159161616	-0.9461799294	 0.145693
H	-0.8668605554	 1.9025067896	 0.6194517191	 0.138339
H	-0.109840159	-0.5436288222	-2.1302661026	 0.116578
H	 0.9512606559	-3.4008759972	 2.0773254889	 0.147348
H	-0.7992860474	-3.3964703058	 2.1576224489	 0.147387
H	 0.0139782902	-4.2394653809	 0.8097754423	 0.143836
H	 0.101222459	 0.666032102	 2.5237650639	 0.107332
