19
gdb 91679	3.23816	1.26599	1.11973	1.9964	81.66	-0.2477	0.0551	0.3028	1142.9541	0.160065	-385.843039	-385.83505	-385.834106	-385.875173	32.23	
O	-0.1396201693	 1.4081645365	 0.0113047599	-0.439902
C	-0.0326797082	-0.0057389309	 0.0258423197	 0.118649
C	 0.4801733594	-0.6014905944	 1.3845571273	-0.27394
C	-0.7747972797	-1.3922011098	 1.7917410523	-0.018091
C	-1.1531265693	-2.0853143719	 0.4510751045	-0.24822
C	-1.4355056673	-0.6256733713	-0.0000281739	-0.02114
C	-1.9143727737	-0.3548271366	 1.4728105721	-0.174017
C	-3.260920143	-0.7830126759	 1.789093254	 0.292788
C	-4.3820329612	-1.1205043188	 2.0663880589	-0.429918
H	 0.7451416476	 1.7774870044	 0.0913386479	 0.283014
H	 0.5671968833	-0.3522974623	-0.8273165299	 0.066297
H	 1.3554911195	-1.2466433763	 1.2640965435	 0.096641
H	 0.7299003648	 0.1988351403	 2.0878921314	 0.097927
H	-0.7592242131	-1.9286757882	 2.7399305456	 0.070859
H	-0.3711434803	-2.643216982	-0.0731162046	 0.087807
H	-2.063862425	-2.6800977603	 0.5215634402	 0.120929
H	-2.0667310591	-0.3828025712	-0.8533785412	 0.076522
H	-1.7436622964	 0.6648753328	 1.8282772207	 0.106593
H	-5.372186459	-1.415946424	 2.3098657619	 0.187202
