20
gdb 33788	3.31611	1.34596	1.15323	4.4074	82.49	-0.2965	0.0315	0.3281	1115.2604	0.174611	-366.036583	-366.029	-366.028056	-366.068359	30.643	
N	-0.006122307	-1.1670835386	-0.0679529446	-0.348127
C	-0.0214195394	-0.0113056543	-0.0247228712	 0.190406
C	-0.0346818711	 1.4408297642	 0.036449842	 0.187615
C	-0.2022585786	 2.1193293507	 1.4390194418	-0.262062
C	 0.7030315255	 3.2562630659	 0.8780748916	-0.021449
C	 1.3339057735	 2.1870361226	-0.0533174311	-0.243555
C	-0.114646956	 4.2505378157	 0.0376886437	-0.203764
C	-1.3048022935	 3.5388294735	-0.6485820926	-0.217297
C	-1.0123766519	 2.0604711678	-0.9933506855	-0.246591
H	-1.2151324847	 2.3555112721	 1.772093446	 0.107469
H	 0.3069243906	 1.5414732015	 2.2126859222	 0.118595
H	 1.3685911372	 3.763161223	 1.5788740469	 0.071865
H	 2.1293452394	 1.6237468079	 0.4391822775	 0.115638
H	 1.6626176465	 2.4949911294	-1.0500256492	 0.101932
H	-0.4932174929	 5.0648148034	 0.6651426465	 0.099883
H	 0.5485569029	 4.7120747364	-0.7040046562	 0.102073
H	-2.1625894978	 3.5682430445	 0.0305807813	 0.112072
H	-1.6173002062	 4.0797289118	-1.5464104308	 0.103803
H	-0.5658990986	 1.9619680984	-1.9890993835	 0.114787
H	-1.948270738	 1.4936299841	-1.0119623049	 0.116707
