18
gdb 79101	2.48243	1.99292	1.51599	2.9925	75.48	-0.2445	0.0243	0.2689	937.034	0.149658	-401.935878	-401.92873	-401.927785	-401.967237	28.886	
C	-0.1034282279	 1.5961343397	 0.0554994963	-0.416851
C	 0.0890525472	 0.0872216782	-0.0154994289	 0.019107
C	 0.7660637212	-0.5510174434	-1.2301178876	-0.121254
C	 2.2741276027	-0.5188888962	-1.0794890114	 0.086483
O	 2.8889028048	 0.4304932418	-0.2155723764	-0.248392
C	 2.3468130737	 0.2652922351	 1.0410787412	 0.434526
N	 2.74959094	 0.8434779783	 2.0871756413	-0.556468
C	 1.1573902392	-0.6455461575	 0.8986867187	-0.165477
C	 1.5113750619	-1.5405937271	-0.3208678014	-0.116962
H	 0.8290580299	 2.1329117242	-0.1358205558	 0.134536
H	-0.8358545832	 1.9180346045	-0.6930268769	 0.112395
H	-0.4748443845	 1.8986942751	 1.03999366	 0.126498
H	-0.8651873283	-0.4214536624	 0.1531356351	 0.087831
H	 0.3101943272	-0.7235790447	-2.1990631471	 0.088976
H	 2.8970929658	-0.7650397541	-1.928823095	 0.114719
H	 3.5524933353	 1.440942134	 1.8805733553	 0.221971
H	 0.8098014673	-1.0732723943	 1.8339206299	 0.09695
H	 1.6325873176	-2.6143908311	-0.3577378072	 0.101409
