18
gdb 74966	2.50331	1.6263	1.44001	1.8711	77.62	-0.2127	-0.0007	0.2119	1011.888	0.149652	-401.961319	-401.95369	-401.952746	-401.993249	29.895	
C	-0.0678961198	 1.5000319406	 0.0470229505	-0.514817
C	-0.023808043	 0.0103281642	-0.0021263273	 0.371479
C	-0.0485328999	-0.8089629632	-1.0714516263	-0.185831
C	 0.0637201358	-2.2421275152	-0.6022645825	-0.178924
C	 1.4676299309	-2.4249510814	 0.0441984419	-0.171367
N	 1.4458338965	-1.5027068744	 1.227904791	-0.302664
C	 0.0835138411	-0.8774358118	 1.2196625603	-0.226497
C	-0.7656139247	-2.0604546213	 0.7025324199	 0.432413
O	-1.7036341643	-2.6523257293	 1.1455287714	-0.330355
H	 0.847597644	 1.9033833968	 0.4968963316	 0.140327
H	-0.1758068995	 1.9292298285	-0.953198764	 0.126688
H	-0.9047280268	 1.8529324363	 0.6623685192	 0.132557
H	-0.11405527	-0.5099840179	-2.1106885618	 0.101035
H	-0.2506657773	-3.0275161106	-1.2855884502	 0.085659
H	 1.6248261171	-3.4650357767	 0.3513177258	 0.105295
H	 2.2710349838	-2.1432808628	-0.6433655998	 0.109727
H	 1.5346790907	-2.0523947053	 2.0777727915	 0.225583
H	-0.1721791245	-0.4426044866	 2.1841978488	 0.079693
