15
gdb 49027	2.80161	1.73539	1.35064	2.4362	64.83	-0.2508	-0.0483	0.2025	939.2594	0.111251	-457.687894	-457.6807	-457.679755	-457.719763	27.198	
O	-0.0675674638	 0.0495074915	-0.2615641286	-0.25624
C	 0.0793888102	 1.1436916518	 0.2260069831	 0.072092
C	 1.3239030935	 1.9568794313	 0.0591703471	 0.333459
O	 1.447904096	 3.0680324781	 0.9507812311	-0.324441
C	 1.6907968767	 3.9948275126	-0.1426460843	-0.092653
C	 1.5742539907	 2.8654194957	-1.1905821238	-0.185574
C	 2.8545196671	 2.0434294453	-1.4769650076	 0.025156
O	 3.6973751152	 2.1298939707	-0.3285690591	-0.224859
C	 2.6355925821	 1.1825771881	-0.3002983966	-0.031525
H	-0.7105032187	 1.6426990706	 0.8284977425	 0.095154
H	 0.8983647413	 4.7487251932	-0.1976078227	 0.110566
H	 2.6693152415	 4.473802587	-0.0606278381	 0.127593
H	 0.8487192273	 2.9466206768	-1.9971382121	 0.108566
H	 3.324549817	 1.8403819325	-2.4314153198	 0.118238
H	 2.872647364	 0.1442798547	-0.103307591	 0.124468
