15
gdb 132567	3.12217	1.38775	0.96748	5.0728	71.56	-0.2249	-0.0394	0.1855	1131.8536	0.113244	-458.160173	-458.152324	-458.15138	-458.192435	29.656	
C	-0.0081970778	 1.5004722815	-0.0357193046	-0.503086
C	 0.0044776854	-0.0004952941	-0.0029261217	 0.291231
N	-0.0478983069	-0.6510219307	-1.1684981238	-0.353875
C	-0.0227145358	-1.969268859	-1.1129390123	 0.324498
F	-0.072558189	-2.5928154229	-2.2803791001	-0.066681
N	 0.0441780123	-2.7429344724	-0.0490834954	-0.307444
C	 0.0884114797	-2.0944142757	 1.1157933054	-0.043756
C	 0.0740784027	-0.70327572	 1.2160722962	 0.212518
N	 0.1935743343	-0.0431957519	 2.4408196846	-0.597147
H	 0.8525816496	 1.9106465722	 0.5052342186	 0.144441
H	 0.015107159	 1.8457538135	-1.0693306209	 0.15444
H	-0.9113286285	 1.9034197173	 0.4424046163	 0.130473
H	 0.141391171	-2.7098634267	 2.0127265863	 0.109708
H	-0.0159116485	-0.6207102341	 3.2434922398	 0.251713
H	-0.2942715576	 0.8395073332	 2.4975646816	 0.252967
