15
gdb 17731	4.80649	2.51247	2.08783	1.599	63.99	-0.2327	0.0745	0.3071	667.907	0.121159	-362.529105	-362.523915	-362.52297	-362.558022	22.008	
C	-0.0552677481	 1.5442736493	-0.0068361031	-0.264875
N	 1.465408581	 1.303366724	-0.0468277854	-0.188748
C	 1.2912610966	 0.1884691706	 1.0139788506	-0.035582
C	 1.792912452	-0.9871537485	 0.182989215	 0.080074
O	 0.8204574292	-2.0524557277	 0.3384327629	-0.298005
C	-0.4859573875	-1.4039834857	 0.3257683948	-0.190445
C	 0.0048329835	 0.0185119113	 0.153062107	 0.226113
C	 1.2116258956	-0.0080079481	-0.8307558972	-0.035585
H	-0.381044594	 2.1396704157	 0.851189688	 0.110952
H	-0.4583683911	 1.9489227345	-0.9398982937	 0.110952
H	 1.3495553919	 0.399304705	 2.0816582773	 0.086771
H	 2.7912280794	-1.4202884881	 0.1860250062	 0.090258
H	-1.0798691594	-1.7916281927	-0.5084609524	 0.110675
H	-1.0030645066	-1.6021442225	 1.2703696817	 0.110674
H	 1.1768234975	-0.026885747	-1.9198935118	 0.086772
