19
gdb 58065	1.75435	1.66267	1.10886	4.527	81.29	-0.2663	0.0017	0.268	1192.6523	0.156181	-382.039165	-382.02862	-382.027676	-382.074023	38.887	
C	 0.0431807764	 1.5598571733	 0.011341807	-0.418932
C	 0.0088531849	 0.0280815439	 0.0399754805	 0.027293
C	 0.8203499629	-0.5228061789	 1.2186314032	-0.427565
C	-1.4782356111	-0.5109238945	 0.0470193286	-0.142731
N	-2.2917454556	-0.1365067233	 1.2158357516	-0.521401
C	-2.1727476516	-0.0559306901	-1.1672637349	 0.382459
C	-2.7209783027	 0.3379874953	-2.1597361399	-0.43552
C	-1.4275120733	-1.994529007	 0.0074892073	 0.327576
N	-1.3456876682	-3.1464185361	-0.010847805	-0.347688
H	 1.0777297153	 1.9056844756	-0.0688759353	 0.124098
H	-0.516496442	 1.9619557353	-0.8364692448	 0.135053
H	-0.370511385	 1.9858144992	 0.9322840926	 0.110029
H	 0.4520135311	-0.3469226693	-0.8902272942	 0.104339
H	 0.4413070953	-0.1503459391	 2.1773785347	 0.1114
H	 0.813979184	-1.6155729812	 1.2461246897	 0.148739
H	 1.8603112111	-0.1941286296	 1.1369101584	 0.124566
H	-1.8017656149	-0.3782933264	 2.0718393782	 0.243534
H	-2.4427671151	 0.8668200666	 1.2103942787	 0.244772
H	-3.2177847816	 0.6716197562	-3.0377919663	 0.209976
