19
gdb 72704	2.59386	1.99021	1.63755	2.7667	74.54	-0.2434	0.0754	0.3188	908.3498	0.160632	-422.956471	-422.949375	-422.948431	-422.987324	30.105	
O	-0.2031730619	 1.3072940435	-0.1831334896	-0.462474
C	 0.0010383248	-0.0942608485	-0.0358431926	 0.332829
C	 0.0325578549	-0.4225401176	 1.4903384965	-0.187976
O	-1.425817614	-0.5863189621	 1.4724860476	-0.363253
C	-1.3373606506	-0.8037180634	 0.0579017798	 0.44429
C	-2.0026298381	-0.4391739871	-1.2875843234	-0.316088
C	-0.8171522143	-1.3797912963	-1.7890674643	-0.033855
C	-1.0843316552	-2.2185907744	-0.5157233732	-0.286076
C	 0.5331669486	-0.7069529218	-1.3603028487	-0.309878
H	 0.659596947	 1.730731416	-0.1271844634	 0.280577
H	 0.5342121228	-1.3518775799	 1.782041143	 0.102569
H	 0.3337076674	 0.4033332181	 2.138921944	 0.106581
H	-2.9667757483	-0.9145044123	-1.4777430125	 0.10299
H	-2.0066505238	 0.6109019185	-1.5748597276	 0.124621
H	-0.8692928217	-1.8213434737	-2.7828281582	 0.073131
H	-0.2636676404	-2.8185984256	-0.1131975731	 0.089805
H	-2.003327548	-2.806368149	-0.55940947	 0.1018
H	 0.879393361	 0.0816135591	-2.0321072355	 0.097396
H	 1.3223268696	-1.4576223936	-1.2609162988	 0.10301
