22
gdb 120150	2.76817	1.16566	0.97622	2.471	83.07	-0.2238	0.0778	0.3017	1323.3603	0.193679	-404.283823	-404.274319	-404.273375	-404.318321	35.215	
C	-0.9194677373	 1.5883377118	-0.8039465694	-0.225273
O	-0.8716598201	 0.1815939913	-0.8430678375	-0.223764
C	-1.7477827789	-0.419614091	 0.089096949	-0.105704
C	-1.5133943075	-1.9094797922	 0.1133650246	 0.003264
C	-2.5626228341	-2.9173361465	 0.3636206725	-0.050126
C	-3.8868054743	-2.5750829087	-0.3237371707	-0.294407
C	-3.0896703672	-2.6113463917	-1.6596068947	 0.09357
C	-3.1114593963	-1.4868690167	-2.6814876338	-0.410665
N	-1.7877580172	-2.9071592195	-0.9484248676	-0.163206
H	-0.2149175898	 1.9602631973	-1.5515471656	 0.1298
H	-1.9246940078	 1.9725622529	-1.0410967085	 0.101923
H	-0.6301142346	 1.9790988794	 0.1846694093	 0.103983
H	-1.5438949652	-0.0341350226	 1.1038298976	 0.091449
H	-2.790177246	-0.1605693393	-0.1424672083	 0.087918
H	-0.5483447704	-2.1534318577	 0.5540586762	 0.101102
H	-2.4362057812	-3.7141088163	 1.0905256617	 0.091718
H	-4.6329414198	-3.3683491489	-0.2513239277	 0.107423
H	-4.3600956066	-1.6331632944	-0.030983703	 0.102296
H	-3.3361412742	-3.5412894798	-2.1821068465	 0.087676
H	-2.8294059064	-0.5179295243	-2.2698539292	 0.133077
H	-2.4067156725	-1.7133723213	-3.4883653665	 0.128683
H	-4.1113144427	-1.4038312519	-3.1224301117	 0.109265
