21
gdb 121809	3.43018	0.78524	0.74683	4.664	80.48	-0.2584	0.0291	0.2875	1624.9622	0.180218	-420.411973	-420.400934	-420.39999	-420.448596	38.971	
C	 0.0494862213	 1.5140883947	-0.0226302829	-0.387717
C	 0.0095634089	-0.0038385692	-0.0138161689	-0.034109
O	 0.6507410132	-0.4793870083	-1.1858213448	-0.257189
C	 0.6723697435	-1.8818448102	-1.289092413	-0.070069
C	 1.4450989869	-2.2311773488	-2.5877936915	 0.062989
C	 0.6929064735	-1.6948884618	-3.821953172	-0.391227
N	 2.8129405368	-1.68931379	-2.6005670511	-0.52646
C	 1.5288529829	-3.7014266614	-2.6637472807	 0.28324
N	 1.5724684855	-4.855453342	-2.6940446273	-0.335521
H	 1.0826194816	 1.8726293094	-0.0394191912	 0.127508
H	-0.4656512225	 1.9071265944	-0.903522555	 0.130296
H	-0.4401843252	 1.9105240336	 0.8715119551	 0.122356
H	 0.5176809999	-0.4031112151	 0.8791284703	 0.094117
H	-1.0306712578	-0.3661527535	 0.01652587	 0.095918
H	 1.1863122997	-2.3329443966	-0.4246112335	 0.096471
H	-0.348544616	-2.2947613943	-1.3247399632	 0.103263
H	 0.5887585827	-0.6117604704	-3.7286695906	 0.13678
H	 1.2551818364	-1.9260166374	-4.7277026239	 0.143596
H	-0.3047947863	-2.1353891604	-3.8936386086	 0.127334
H	 2.7409587315	-0.7002676809	-2.3730771119	 0.243029
H	 3.3575723537	-2.1144640517	-1.8542192052	 0.235394
