18
gdb 43915	4.22702	1.1867	1.08583	4.1124	82.04	-0.2395	-0.0323	0.2072	1155.9512	0.149196	-401.964596	-401.957085	-401.956141	-401.996657	29.674	
N	 0.2278414171	 1.3248569133	 0.0084502312	-0.526753
C	 0.2033749666	 0.0574987441	 0.000212177	 0.352107
O	-0.9957320643	-0.60205097	 0.0017542416	-0.256483
C	-0.7923156745	-2.0116295813	-0.008436212	 0.389311
C	-1.5689655491	-2.8182757496	 1.0749582049	-0.275711
C	-1.9343410576	-3.8612906246	-0.0149920366	-0.217393
C	-1.5794727681	-2.804099082	-1.0947076927	-0.275709
C	 0.6966568413	-2.1694531332	-0.016691396	-0.135048
C	 1.26718454	-0.9654247604	-0.0115505116	-0.203297
H	 1.1926559952	 1.6510251345	 0.0059998963	 0.219328
H	-1.0110578082	-3.148271078	 1.9538393659	 0.105312
H	-2.4382878359	-2.2402538346	 1.3963881544	 0.128126
H	-1.245280181	-4.7099751802	-0.0238751149	 0.106106
H	-2.9551001291	-4.2459945372	-0.0125629395	 0.110809
H	-2.4518288471	-2.2219799036	-1.4001250718	 0.128124
H	-1.0301203203	-3.1225465113	-1.9831855411	 0.105311
H	 1.1848751215	-3.135610856	-0.0253589705	 0.125987
H	 2.3208075336	-0.7232832597	-0.0150257447	 0.119872
