19
gdb 77823	2.41195	1.60614	1.37812	4.1879	76.97	-0.2469	0.0327	0.2796	1053.2588	0.159522	-419.210266	-419.201689	-419.200745	-419.243143	32.578	
C	-0.0069288835	 1.5140362086	-0.1281965479	-0.431471
C	 0.0490960061	 0.0174839264	 0.0632535309	-0.043626
N	 1.3082939468	-0.7729358843	-0.1216643656	-0.182989
C	 2.4788068252	 0.0265435815	-0.0793319732	 0.435204
N	 3.2437054833	 0.2003277671	-1.0649150611	-0.542377
O	 2.6718639001	 0.5759019548	 1.1695904028	-0.246778
C	 1.6493218999	 0.1389363137	 2.0685098256	-0.164308
C	 0.6845144412	-0.6764433252	 1.2153578612	 0.28691
C	 0.0943180161	-1.9256257059	 1.81943208	-0.48272
H	 0.7999002252	 2.0416195711	 0.3840948638	 0.141742
H	 0.0530606156	 1.7615354353	-1.1926121883	 0.146568
H	-0.9608186664	 1.8946133796	 0.2515418222	 0.12442
H	-0.78889299	-0.5078063122	-0.390930501	 0.102573
H	 4.0245209773	 0.799581008	-0.7977358997	 0.225593
H	 2.0988405994	-0.4848319624	 2.8497467765	 0.119574
H	 1.1960307482	 1.0169553752	 2.5412846127	 0.119802
H	-0.5690333466	-1.6766491583	 2.6553746252	 0.124026
H	-0.4861316419	-2.4758277862	 1.0752130491	 0.137958
H	 0.881877564	-2.5874927167	 2.1950038069	 0.129897
