17
gdb 18911	3.95585	2.36651	2.11206	1.4774	70.17	-0.2199	0.0819	0.3018	733.5712	0.144009	-326.675889	-326.669783	-326.668839	-326.705637	25.349	
C	-0.0401932384	 1.5100783918	 0.027628478	-0.515783
C	-0.0128182688	 0.0169450447	-0.0402512134	 0.349943
C	 0.6256608625	-0.8529261425	-1.1703631877	-0.138573
C	 1.0003385793	-2.1327846822	-0.4604174028	-0.085513
C	 1.0647243509	-1.8507327322	 1.0283859437	-0.17531
N	 0.0421307988	-0.8073092448	 1.1831106367	-0.160352
C	-1.0360990832	-1.0410061349	 0.1984863736	-0.123124
C	-0.4227829382	-1.9199178838	-0.9256702635	-0.085014
H	 0.9723757652	 1.9181134641	 0.1333461544	 0.120174
H	-0.4797327363	 1.937876133	-0.8799916828	 0.119178
H	-0.6293999651	 1.8402573503	 0.8871833796	 0.132954
H	 1.0524656145	-0.5011359855	-2.098983439	 0.087092
H	 1.629023421	-2.8651337301	-0.9522945434	 0.088577
H	 0.8056164792	-2.7190863421	 1.6430460378	 0.104826
H	 2.0376170283	-1.4651331537	 1.3507312763	 0.104364
H	-2.0707263856	-0.9965396314	 0.5154363688	 0.088041
H	-0.9509583242	-2.5455768506	-1.6302536662	 0.088518
