18
gdb 121512	7.79868	0.46252	0.45045	2.8643	75.69	-0.2555	-0.046	0.2095	2327.1335	0.143915	-476.209849	-476.199441	-476.198496	-476.248347	34.495	
O	 0.1621115007	 1.3193245604	 0.0219992402	-0.420347
C	-0.0516521305	-0.0542983936	 0.2581922854	-0.037005
C	-1.5028859829	-0.4491100341	-0.0338112391	-0.159833
N	-1.8117057899	-0.0832636074	-1.4060218034	-0.230306
C	-2.3443226992	-0.940738217	-2.1517869375	 0.133683
O	-2.6572550053	-0.6380067409	-3.4306557877	-0.204812
C	-3.133820027	-1.6873256852	-4.2550843847	-0.165085
C	-4.1831219997	-1.1239285971	-5.2036409526	 0.140679
O	-4.6165615738	-1.7405698817	-6.1379505866	-0.225576
H	-0.2511081344	 1.5029017506	-0.831776211	 0.292812
H	 0.6199639725	-0.6811873627	-0.3525587722	 0.081707
H	 0.1814343229	-0.2452045552	 1.3113177495	 0.104388
H	-1.6599781539	-1.5203745656	 0.1760270731	 0.082704
H	-2.1569707228	 0.1289844234	 0.6307488874	 0.119569
H	-2.6100637428	-1.9655136381	-1.8499490429	 0.086508
H	-2.3174023017	-2.1304266994	-4.8384944857	 0.150861
H	-3.5986140536	-2.4884701249	-3.6622325976	 0.140745
H	-4.5168691885	-0.0957440913	-4.9454835248	 0.109311
