20
gdb 99610	2.23947	1.2866	1.03477	3.3631	79.76	-0.2346	0.0349	0.2694	1266.2906	0.170647	-399.309539	-399.299489	-399.298545	-399.344441	36.778	
C	 0.2049548466	 1.5126059866	 0.0041243414	-0.329152
N	-0.2085032768	 0.1712415539	-0.3893761351	-0.272718
C	 0.6977697049	-0.52515161	-1.2832855723	-0.141874
C	 2.0946525917	-0.6052865783	-0.7665489449	 0.267051
N	 3.1597933977	-0.6635039944	-0.3194082504	-0.342173
C	 0.1881516866	-1.9422017131	-1.5442903749	 0.342182
N	 0.0972362826	-2.6998442495	-0.3159377764	-0.579515
C	-0.8811755417	-2.1079311811	-2.5794995045	-0.312672
C	 0.5268526568	-2.5858116918	-2.8710170073	-0.310223
H	 1.192575906	 1.5595704092	 0.4905191526	 0.122793
H	 0.2347590916	 2.1616988154	-0.8788722841	 0.120462
H	-0.5387716842	 1.9236680428	 0.6918498682	 0.124987
H	-0.3613847132	-0.4253459225	 0.4180733433	 0.23803
H	 0.7436254793	 0.019024727	-2.2349304011	 0.115699
H	-0.5645475286	-3.4618993424	-0.398924661	 0.235362
H	 0.9987917695	-3.0969739521	-0.0670026165	 0.246262
H	-1.6475749838	-2.8544840302	-2.3969105448	 0.115459
H	-1.2465797146	-1.2201499536	-3.08296806	 0.12761
H	 1.1218086321	-2.0318653091	-3.589919563	 0.119195
H	 0.7104135575	-3.6548261967	-2.8688184492	 0.113235
