21
gdb 59724	2.25079	1.48941	0.95673	0.8751	81.51	-0.223	0.0242	0.2471	1269.2432	0.180921	-424.237764	-424.227991	-424.227047	-424.272362	36.217	
C	 0.1513059364	 1.5399863855	 0.1005006219	-0.405101
C	 0.0618440478	 0.0171908466	 0.0756630209	 0.114165
O	-1.2620325656	-0.4350593968	 0.3520589308	-0.427747
C	 0.5641931558	-0.5701001746	-1.2635791791	 0.015489
O	 1.8601510309	-0.0441797583	-1.5532041577	-0.279261
C	 2.7971623852	-1.1030472985	-1.7474724337	-0.117179
C	 2.0049954811	-2.3588995697	-1.5471355977	-0.208893
C	 0.7312458023	-2.0761341371	-1.2827838125	 0.32081
C	-0.4010139465	-3.0291962178	-1.0701540386	-0.49529
H	 1.1786450297	 1.8676344069	-0.069550859	 0.140651
H	-0.4737726104	 1.9752349117	-0.6907282181	 0.101547
H	-0.1988274188	 1.9221440233	 1.0632995413	 0.118038
H	 0.678552691	-0.4014676344	 0.8795716383	 0.09065
H	-1.8573500207	 0.0188670973	-0.2550578175	 0.278304
H	-0.1439402361	-0.2433165627	-2.0501874611	 0.060459
H	 3.2309702259	-1.0347684071	-2.7581530984	 0.102513
H	 3.6287542421	-0.996677041	-1.0332992036	 0.103596
H	 2.4353322545	-3.3495075913	-1.6317139948	 0.097141
H	-0.0606554546	-4.0659412336	-1.1379701793	 0.116175
H	-0.8787704164	-2.8679003472	-0.100147422	 0.153879
H	-1.1836840735	-2.8786634013	-1.8250125601	 0.120056
