18
gdb 125952	2.89063	1.73144	1.14098	5.2195	77.23	-0.2447	0.0119	0.2566	1060.2951	0.151192	-398.149405	-398.142031	-398.141087	-398.181317	28.369	
C	-0.0237400412	 1.5717445237	 0.0344547677	-0.39909
C	 0.0334969689	 0.0498458394	 0.017887543	 0.03609
C	 0.7341592236	-0.5784228778	-1.2194928672	-0.223056
C	 1.4884685421	-1.844037504	-0.7059006572	-0.36344
C	 1.6619036248	-1.5319885431	 0.7487702676	 0.346012
C	 2.2702160464	-1.8738264866	 1.9348364759	-0.219122
N	 1.8066530638	-1.036822853	 2.9100691705	-0.191344
N	 0.9398653385	-0.1985791994	 2.3932563246	-0.184766
N	 0.8641192627	-0.4979753288	 1.0913099867	 0.070522
H	 0.9784645382	 1.9980062318	-0.0705162976	 0.129922
H	-0.6442483953	 1.930507829	-0.7920553508	 0.123267
H	-0.4527619088	 1.9306186728	 0.9729232104	 0.152451
H	-0.9804956983	-0.3550417544	 0.1302512814	 0.106259
H	 0.024128261	-0.8042959648	-2.0175999982	 0.116096
H	 1.4584297062	 0.1413380599	-1.6139815814	 0.120789
H	 0.8872197448	-2.7508378266	-0.8421677241	 0.129443
H	 2.4321330953	-2.0033281574	-1.2332601103	 0.130136
H	 2.9961325973	-2.6399704108	 2.152250249	 0.119831
