14
gdb 129108	5.06246	1.30827	1.04776	5.1866	70.47	-0.2168	-0.0005	0.2164	1048.3253	0.104144	-429.041759	-429.034937	-429.033993	-429.072943	26.469	
N	-0.0778160511	 1.2534110692	-0.0667097653	-0.519202
C	-0.0085475548	-0.0068857605	 0.0119944649	 0.379482
C	-1.2405058111	-0.9432965107	 0.0180090295	-0.41283
C	-0.5890481304	-2.2918992045	-0.0373124297	 0.269337
C	 0.7694905684	-2.1349244921	-0.0041773242	 0.438681
N	 1.2768328393	-3.3738196308	-0.0058652979	-0.347583
N	 0.2355534874	-4.2893817358	-0.0571559957	-0.137627
N	-0.8782027532	-3.612959606	-0.0632591067	-0.277144
N	 1.1656999949	-0.8123376359	 0.1115527116	-0.456428
H	 0.8417705185	 1.6970227751	-0.0521400127	 0.212885
H	-1.824925036	-0.7710716207	 0.9281364782	 0.156015
H	-1.8871205513	-0.7020492927	-0.8302728852	 0.156637
H	 2.2245383253	-3.7112244245	-0.0000682459	 0.279584
H	 2.054502574	-0.4560780602	-0.2033417209	 0.258194
