9
gdb 3923	8.85257	2.02919	1.6508	3.5481	46.38	-0.2876	-0.0995	0.1881	657.1967	0.054908	-375.328197	-375.322761	-375.321817	-375.357852	18.263	
O	-0.0574254763	-0.0175132495	-0.0004933804	-0.225188
C	 0.0047838114	 1.1829256195	 0.0069636813	 0.098602
C	 1.2679467502	 1.9620565496	-0.0006350873	 0.23965
N	 2.461342702	 1.4127161068	-0.0173985603	-0.104266
O	 3.3389958631	 2.4379952095	-0.0190324382	-0.12607
N	 2.7061409374	 3.6575751343	-0.0032632516	-0.051271
C	 1.4340466768	 3.3770244957	 0.0080507172	-0.094223
H	-0.9049268746	 1.820224742	 0.0206333886	 0.096509
H	 0.6919051499	 4.1604846222	 0.0217130908	 0.166257
