22
gdb 123193	9.73568	0.40704	0.39647	4.6914	85.65	-0.281	0.0118	0.2927	2705.0136	0.191998	-404.357535	-404.346421	-404.345476	-404.395536	37.703	
C	-0.0499291479	 1.5234086574	 0.077542658	-0.381241
C	 0.0037109634	-0.0045034555	 0.0017001117	-0.165094
C	 0.7174562415	-0.5194878865	-1.2530188256	-0.16517
C	 0.7712135954	-2.048784724	-1.3291059792	-0.200436
C	 1.4817469254	-2.5463508519	-2.5781420375	-0.054599
O	 1.4819385685	-3.9670066485	-2.5611027483	-0.238109
C	 2.1208690315	-4.5156409206	-3.6828233728	-0.184038
C	 2.0829477564	-5.9791045725	-3.5964633401	 0.264307
N	 2.0695814415	-7.1327560381	-3.5575663906	-0.292868
H	 0.956909076	 1.9556155115	 0.0874187149	 0.114302
H	-0.5812608688	 1.9448277096	-0.7831056562	 0.114302
H	-0.5646251268	 1.8596787907	 0.9828158711	 0.114683
H	 0.5098737079	-0.3994577906	 0.8922243947	 0.09868
H	-1.0160647876	-0.4101602796	 0.0285908436	 0.09868
H	 0.2109766322	-0.1243170886	-2.1447725639	 0.09501
H	 1.7384588879	-0.1136301119	-1.2802477986	 0.095009
H	 1.2865575694	-2.4535533492	-0.4499642176	 0.112185
H	-0.2434452645	-2.4642428644	-1.3160928873	 0.112185
H	 0.9736784381	-2.1816013649	-3.486965287	 0.093205
H	 2.5185750471	-2.1709237793	-2.6124050987	 0.093209
H	 1.6321106613	-4.2083937381	-4.6227216784	 0.137901
H	 3.1747186521	-4.1968509249	-3.7496939921	 0.137896
