22
gdb 121882	3.67711	0.67073	0.58899	15.9516	84.19	-0.1634	-0.0127	0.1507	1907.3486	0.192789	-441.456385	-441.445373	-441.444428	-441.494187	38.301	
C	-0.0471726182	 1.5742752031	-0.1147638866	-0.417585
C	-0.1647388678	 0.0610247464	-0.0017977012	-0.147629
N	 0.6497977444	-0.4856957399	 1.1328931237	-0.248436
H	 1.6310565359	-0.2191597168	 1.0210324034	 0.300899
H	 0.3516550949	-0.0669070311	 2.0180030545	 0.301794
C	 0.6219611371	-2.0147749926	 1.304394587	-0.169899
C	 1.4716779148	-2.4596372572	 2.4641546844	-0.159718
C	 0.9109765885	-2.119804554	 3.8412604819	-0.398247
C	 1.7141017217	-4.0582819404	 2.2558649326	 0.3676
O	 1.8756373357	-4.6806323361	 3.306940488	-0.445681
O	 1.717415343	-4.3933900089	 1.0557858382	-0.480592
H	 0.9851937044	 1.8860926511	-0.3029195158	 0.146188
H	-0.6570744263	 1.9250964272	-0.9510039947	 0.164883
H	-0.403225659	 2.0765838387	 0.7904218734	 0.144706
H	-1.194295382	-0.2560789755	 0.1793707223	 0.165565
H	 0.1891429106	-0.4472705824	-0.9015499227	 0.172615
H	-0.434367656	-2.2699128757	 1.4297039805	 0.137341
H	 1.0063686011	-2.4670789904	 0.3877783555	 0.17391
H	 2.4776385082	-2.0238203209	 2.34721575	 0.065842
H	-0.1332579335	-2.4431222455	 3.9301758919	 0.110541
H	 1.4806800534	-2.685025451	 4.581338444	 0.166032
H	 0.9595708094	-1.0493189878	 4.1018548798	 0.049872
