23
gdb 117624	2.65543	0.75723	0.6772	1.6765	91.78	-0.2465	0.0453	0.2918	1831.9393	0.201505	-388.277861	-388.265825	-388.264881	-388.316828	42.225	
C	-0.0781241716	 1.6069025442	 0.1912455033	-0.387511
C	 0.0065189985	 0.0869896847	 0.0199800664	-0.177688
C	-1.3756870979	-0.5619211158	-0.1089407687	-0.175362
C	-1.3727144332	-2.1134299311	-0.0855501469	 0.136158
C	-0.5476232308	-2.7155648159	-1.2318707914	-0.396609
O	-0.7477364914	-2.5891121548	 1.1176431302	-0.447202
C	-2.7629046981	-2.5921950738	-0.1514994064	 0.066916
C	-3.9093958286	-2.9623305265	-0.1726833136	 0.054972
C	-5.2900536854	-3.4237605175	-0.2074574298	-0.500417
H	 0.9176161181	 2.053105249	 0.2773483424	 0.111162
H	-0.580844577	 2.0771565212	-0.6614656366	 0.112078
H	-0.6416140522	 1.8736114881	 1.0924780835	 0.111637
H	 0.611859029	-0.1415928717	-0.8649293337	 0.09682
H	 0.5256027552	-0.3595967162	 0.8745767268	 0.111036
H	-2.0136007658	-0.223479535	 0.7187008863	 0.087339
H	-1.8719944986	-0.2277024608	-1.0284172865	 0.099349
H	 0.5029812223	-2.4368357145	-1.1222055965	 0.125635
H	-0.6203668283	-3.8047334596	-1.205912414	 0.127973
H	-0.9136578304	-2.3604065867	-2.1985348106	 0.117241
H	-1.3579055493	-2.4188683192	 1.8434008973	 0.278678
H	-5.4164952199	-4.3417018948	 0.3771341505	 0.150121
H	-5.9749901596	-2.6723392123	 0.2006345122	 0.147212
H	-5.6085145551	-3.6398114109	-1.2332805542	 0.150464
