18
gdb 2345	6.40034	1.30255	1.18155	1.4088	65.55	-0.2448	0.0801	0.325	1051.1728	0.159133	-326.938562	-326.930243	-326.929299	-326.971516	29.072	
C	-0.2690617703	 1.3476447568	-0.0069982932	-0.223835
O	-0.1696167038	-0.0529595945	-0.0782091781	-0.233724
C	 0.784993318	-0.485783211	-1.0260382666	-0.053398
C	 0.8026108728	-1.990916408	-1.0144144717	-0.024329
N	-0.0823569353	-2.6852844856	-1.9641851351	-0.333699
C	 1.3762383308	-2.8283332009	-2.1033373966	 0.000156
C	 2.0110939767	-2.2847203437	-3.3626712259	-0.393834
H	 0.6872940407	 1.8131608859	 0.2830386802	 0.09944
H	-0.5831368394	 1.7861886712	-0.9677514962	 0.103982
H	-1.0200781547	 1.5854752885	 0.7505021314	 0.125339
H	 0.5293502839	-0.114929239	-2.0296644621	 0.093968
H	 1.7839204348	-0.0914134347	-0.7657695515	 0.080116
H	 0.8731620748	-2.397618425	-0.0065404762	 0.087171
H	-0.4915042547	-3.5103686758	-1.5352562053	 0.230295
H	 1.8084709472	-3.7712937284	-1.7682255775	 0.079979
H	 1.5226188719	-1.3646953491	-3.6902407359	 0.127448
H	 3.075797641	-2.0786944334	-3.206899886	 0.1147
H	 1.9262992056	-3.0129783833	-4.1764412235	 0.120229
