15
gdb 22717	3.64021	1.03746	0.88831	2.2091	74.16	-0.248	-0.0447	0.2033	1257.7705	0.111	-453.858444	-453.850314	-453.84937	-453.891475	30.115	
O	-0.0803970376	 1.2749989258	-0.013250197	-0.381786
N	 0.0117072451	-0.11950542	 0.0793701385	-0.254711
C	-1.1243608885	-0.6605547544	-0.0517078256	 0.489035
C	-2.578613088	-0.1987028175	-0.1437051298	-0.376048
C	-2.9690371943	-1.6740916193	 0.0384267024	 0.239821
N	-2.3561323086	-2.4274825985	-1.0764299071	-0.34838
C	-1.495523139	-2.1019122509	 0.0705894003	-0.211476
C	-4.0130421499	-2.2409949512	 0.8958109603	 0.061698
O	-4.8206089259	-1.5905832871	 1.5141352389	-0.258951
H	 0.8341845286	 1.5507512979	 0.112682666	 0.312287
H	-2.8666127649	 0.4283238496	 0.7029915646	 0.155921
H	-2.8972867286	 0.2623205368	-1.079931366	 0.13878
H	-2.6251149032	-3.4099747781	-0.9886110075	 0.242689
H	-1.015594107	-2.8739657534	 0.6586901992	 0.125902
H	-3.9930302482	-3.3561415597	 0.9471088129	 0.06522
