18
gdb 124826	4.47729	0.96969	0.82885	4.2183	73.95	-0.2445	-0.001	0.2435	1370.7423	0.149473	-435.301595	-435.293173	-435.292229	-435.335228	31.309	
C	-0.0512483922	 1.5850929346	 0.137463701	-0.382837
C	-0.0378335276	 0.0631431989	 0.2118356256	 0.146908
O	 0.3542744124	-0.2892854818	 1.5252864322	-0.445357
C	-1.4182596125	-0.5342987722	-0.1396541848	-0.315296
C	-1.4014426281	-2.0286854653	-0.1848346027	 0.359329
N	-1.9554223835	-2.7392709255	-1.1556993603	-0.264917
N	-1.6866694328	-4.0138312006	-0.775775164	-0.184018
C	-0.9926964616	-4.0259969025	 0.3749102784	 0.017653
N	-0.7940337402	-2.7890532822	 0.7840776139	-0.312757
H	 0.9250389054	 1.9782686004	 0.4330077237	 0.122982
H	-0.2748261393	 1.9291963989	-0.8769999539	 0.106526
H	-0.8023404946	 1.9931659265	 0.8216632292	 0.118073
H	 0.6923573463	-0.3203353057	-0.5230956753	 0.059197
H	 0.2324543401	-1.2472351802	 1.6117133106	 0.292063
H	-2.1311726088	-0.1974498785	 0.6238537418	 0.122437
H	-1.7659141478	-0.1635051385	-1.107964971	 0.117801
H	-1.9997876346	-4.7837635305	-1.3436549521	 0.286439
H	-0.6635182604	-4.9293591458	 0.8657452077	 0.155774
