9
gdb 765	9.86886	3.93452	2.81731	3.0643	40.19	-0.2475	0.0015	0.249	427.0676	0.063595	-317.41389	-317.409159	-317.408214	-317.441698	17.011	
N	 0.0062324593	 1.3419742116	 0.1408024743	-0.5863
C	-0.0450885246	-0.0092511677	 0.0449673991	 0.513224
N	-1.1095700661	-0.769307746	 0.0291250183	-0.346146
C	-0.5374969899	-2.0129229106	-0.0158583565	 0.057733
N	 0.764850141	-2.0560404242	-0.0322938186	-0.135404
O	 1.1121963378	-0.6758747696	 0.0099502894	-0.207785
H	 0.8586092416	 1.7903380767	-0.1537497383	 0.278587
H	-0.8497707243	 1.8235985301	-0.0816044279	 0.282732
H	-1.1165590749	-2.9255285504	-0.0395084599	 0.143358
