18
gdb 12134	4.53618	1.65924	1.47554	1.5137	72.88	-0.2221	0.0825	0.3046	922.624	0.152594	-347.751651	-347.744182	-347.743238	-347.782893	29.578	
C	 0.075896349	 1.4644097092	-0.0409874811	-0.485511
C	 0.0700890186	-0.0238456899	 0.0702944417	 0.465421
C	-0.8901786007	-0.8794828492	 0.8399725708	-0.337623
C	 0.6061794486	-1.0182498159	 1.0805678127	-0.271678
C	 1.2161400629	-1.6943259752	-0.1172800225	 0.47855
C	 2.6127093149	-2.1753340061	-0.3163157781	-0.346313
C	 1.4292569259	-3.1293488329	-0.4607253362	-0.339198
O	 0.6095462546	-0.7714309572	-1.0390259978	-0.348255
H	 1.0823441258	 1.8383897177	-0.2525416247	 0.12887
H	-0.5858575231	 1.7906326193	-0.8515296641	 0.132053
H	-0.2801138266	 1.9188902412	 0.8880254754	 0.122405
H	-1.4301515647	-0.3758005162	 1.6363409891	 0.109619
H	-1.4393845619	-1.6690560049	 0.3347918201	 0.114167
H	 1.0800069019	-0.8690583492	 2.0417391637	 0.098851
H	 3.1173818959	-1.8645571936	-1.2246247433	 0.124374
H	 3.2555451017	-2.2742958688	 0.5527031644	 0.113683
H	 1.2669561381	-3.8803324793	 0.3053919653	 0.115869
H	 1.1652645891	-3.4396068988	-1.4658892954	 0.124715
