19
gdb 99690	2.28291	0.99274	0.73051	3.7692	81.18	-0.2417	-0.027	0.2147	1569.0407	0.155579	-423.023697	-423.012765	-423.011821	-423.061822	37.27	
C	 0.5400522561	 1.2448500025	 0.2547845206	-0.499823
C	 0.2800890478	-0.1827507416	 0.1341859651	 0.07589
C	 0.0732265336	-1.3662537235	 0.0449224778	 0.04753
C	-0.2459434726	-2.7836964307	-0.0850359489	-0.293935
C	-1.7729265804	-3.0199309894	-0.2167844772	-0.065276
O	-2.1106081275	-4.3824073823	-0.1329690036	-0.421999
C	 0.526855266	-3.4588106907	-1.2407856037	 0.400736
C	 1.9837694364	-3.0967414105	-1.4114786186	-0.474648
O	-0.019008674	-4.2670636089	-1.9616650397	-0.314856
H	 1.613228114	 1.4590954209	 0.2028507659	 0.150105
H	 0.0500437221	 1.8079009371	-0.5469420189	 0.152196
H	 0.1704232223	 1.635708697	 1.2090200975	 0.153327
H	 0.0828220066	-3.3155253309	 0.8228599624	 0.134034
H	-2.2758126765	-2.5073722359	 0.6077422717	 0.115191
H	-2.1174023871	-2.5612156797	-1.1554552271	 0.100156
H	-1.6999780789	-4.7935962429	-0.9053059694	 0.295071
H	 2.5084365622	-3.1431322196	-0.4515001473	 0.143452
H	 2.4485580467	-3.7690453992	-2.1332197496	 0.142151
H	 2.063132043	-2.0624151116	-1.7603227668	 0.160699
