18
gdb 97155	3.58088	1.34509	1.15833	2.917	75.13	-0.2408	0.017	0.2578	1105.1842	0.148788	-439.070983	-439.063069	-439.062124	-439.104057	29.573	
C	-0.1379806268	 1.428526669	-0.0358083962	-0.330444
N	-0.1695115898	-0.0234659355	-0.1189006674	-0.324713
C	 0.5940208064	-0.62169068	-0.9241790369	 0.472949
O	 1.4597277123	 0.0210861925	-1.7733688407	-0.2824
C	 2.4019665276	-0.7720027425	-2.5194180233	-0.076336
C	 2.0803664461	-2.2531064259	-2.4130440305	 0.071507
C	 0.5670302083	-2.5050615335	-2.556801137	-0.256902
C	 0.6019147545	-2.1203328807	-1.0614116516	-0.025253
O	 1.9950819187	-2.561548669	-0.9931981	-0.292766
H	 0.7806497891	 1.8791511208	-0.4267743322	 0.122759
H	-0.9870650886	 1.8451317479	-0.5921763352	 0.124997
H	-0.2672129278	 1.7225245356	 1.0103050436	 0.123623
H	 2.3651021179	-0.4249583116	-3.5582519981	 0.115284
H	 3.4024709773	-0.5796848294	-2.1153934656	 0.124506
H	 2.8019606889	-2.8750398268	-2.9493944378	 0.089912
H	-0.0104127623	-1.884486336	-3.2447994764	 0.116143
H	 0.3402039746	-3.5620025173	-2.6975366174	 0.121136
H	-0.0488632964	-2.5977537476	-0.3312729274	 0.106
