18
gdb 111350	2.52045	1.40981	1.06457	2.6397	71.49	-0.2399	0.0622	0.3022	1148.9435	0.147102	-438.998483	-438.990116	-438.989171	-439.031736	31.627	
O	 0.0066542725	 1.5020814894	-0.1084052818	-0.421627
C	 0.081619473	 0.0918422047	 0.0600655605	-0.092251
C	-1.2957388862	-0.5554506826	 0.0696463704	-0.106963
C	-2.088266546	-0.5891339067	-1.258414747	-0.077688
N	-1.2981727191	-1.4205601884	-2.1993947679	-0.341064
C	-2.1998657588	-2.0737882741	-1.210741356	-0.169013
C	-1.4130662967	-2.1031191254	 0.0854422479	 0.471355
C	-0.5778408508	-3.1508621484	 0.6667525014	-0.264018
O	-1.8595279712	-2.8056897733	 1.2265789101	-0.282521
H	-0.2617465874	 1.6681275628	-1.0174867237	 0.285328
H	 0.7004869627	-0.3746163346	-0.7174016148	 0.110059
H	 0.5750465354	-0.0693025296	 1.0247599668	 0.10914
H	-1.9097011283	-0.1423624376	 0.875773056	 0.099902
H	-2.8057748597	 0.1382054922	-1.6164148297	 0.100947
H	-1.7908717318	-1.4217795594	-3.0924426759	 0.233833
H	-3.0017174677	-2.7336025921	-1.5170685987	 0.107553
H	-0.5241779569	-4.127768641	 0.1888321091	 0.117752
H	 0.2800109468	-2.8862863858	 1.2828797035	 0.119276
