19
gdb 70188	3.47436	1.3074	1.12262	4.5043	75.27	-0.2606	0.015	0.2757	1127.9184	0.160107	-423.064995	-423.056856	-423.055912	-423.097505	31.578	
C	-0.2864450114	 1.5370707336	 0.102333469	-0.470291
C	 0.0061236214	 0.0536909838	 0.0447630509	 0.306473
C	-0.7866588678	-0.904975487	 0.8997214249	-0.336981
C	 0.675136526	-0.6435975803	 1.1972029042	-0.069413
C	 1.7238877247	-1.6805236972	 0.8465958095	-0.361147
C	 1.4150021054	-2.47396187	-0.4145821891	 0.399813
O	 1.7323930428	-3.6197569175	-0.5754942583	-0.324319
O	 0.7240153258	-1.8350618875	-1.3950688984	-0.225016
C	 0.4684402491	-0.4265137714	-1.3177565093	-0.132688
H	 0.587348795	 2.1297528949	-0.1937898251	 0.119798
H	-1.1140828843	 1.8070832714	-0.5640678292	 0.123357
H	-0.5645045986	 1.8392866165	 1.1161392643	 0.123168
H	-1.5199068812	-0.479268204	 1.57585765	 0.113547
H	-1.0688890254	-1.8670358729	 0.4852407974	 0.134628
H	 0.8966372493	-0.0550895189	 2.0828419741	 0.089802
H	 2.6936466199	-1.1867820973	 0.6907188335	 0.133162
H	 1.8725515816	-2.4132251191	 1.6438075134	 0.14021
H	-0.291821246	-0.2408028209	-2.0827772217	 0.125488
H	 1.3766559436	 0.1182292338	-1.6144886002	 0.110409
