21
gdb 92290	2.98589	1.42634	1.12221	1.5255	82.62	-0.2387	0.0203	0.259	1151.6264	0.184307	-387.091614	-387.083441	-387.082497	-387.12472	32.014	
C	-0.0225614241	 1.4609956526	-0.3823539259	-0.405315
C	-0.0475312712	 0.0276350548	 0.1091195117	 0.14117
O	 0.4958731406	-0.9020801365	-0.8608352293	-0.315447
C	 1.2774124919	-1.5739493431	 0.1535739519	 0.150288
C	 2.763221773	-1.7389155649	-0.2047046728	-0.287639
C	 3.6269916653	-1.5048771579	 1.0115083403	-0.051994
C	 3.3394300806	-0.5226136877	 1.8664469404	-0.060506
C	 2.1413781072	 0.3664807988	 1.6287400324	-0.283025
C	 0.9360033925	-0.488632307	 1.1986008355	-0.077507
H	 0.9847314505	 1.7765088239	-0.6658189193	 0.121608
H	-0.6641652439	 1.5577782306	-1.2640661521	 0.126671
H	-0.4011535056	 2.1406051511	 0.3889469582	 0.114407
H	-1.0842108431	-0.2490780969	 0.3546522965	 0.068643
H	 0.8386044929	-2.5514828127	 0.3942025295	 0.072359
H	 2.9548089677	-2.7206993969	-0.6472264316	 0.10167
H	 2.9905295493	-0.9959705585	-0.981132884	 0.120798
H	 4.4905027306	-2.1447407728	 1.1666892173	 0.087477
H	 3.9632906107	-0.3379540977	 2.7358113722	 0.087563
H	 1.8996032451	 0.9538017407	 2.5196457742	 0.101158
H	 2.3880075885	 1.0930435899	 0.8433199052	 0.11452
H	 0.4388863315	-0.8789464796	 2.0891667296	 0.073101
