19
gdb 63074	3.09854	1.43191	1.33738	1.8311	74.31	-0.2433	0.0746	0.3179	1035.452	0.158976	-422.996336	-422.988347	-422.987403	-423.028259	32.134	
C	-0.2283166611	 1.6112587255	 0.0272555454	-0.468177
C	 0.0158733742	 0.1210440335	 0.0611177558	 0.399844
O	-1.1057221074	-0.6148470265	-0.3862484953	-0.469661
C	 1.3251019914	-0.5676430709	-0.2639050412	-0.127135
C	 2.694258609	 0.1186497443	-0.1388208004	-0.280539
C	 2.9034354673	 0.3903117455	 1.3479234497	 0.039699
O	 1.9995314896	 1.3461585917	 1.9149725919	-0.253616
C	 1.709964466	-0.0512714974	 2.0921097873	 0.019375
C	 0.717480125	-0.670376484	 1.1406252753	-0.109525
H	 0.633320565	 2.1827041887	 0.3617554486	 0.151327
H	-0.4787768583	 1.9120373431	-0.9992638365	 0.093697
H	-1.0812519657	 1.8635625337	 0.6650673584	 0.124676
H	-1.2923647438	-0.3342525661	-1.2896012935	 0.276975
H	 1.2431423635	-1.4076068699	-0.9453959683	 0.088231
H	 3.4755902124	-0.5624869058	-0.4933429631	 0.108937
H	 2.7797211279	 1.0391599168	-0.7271982493	 0.115097
H	 3.9071620645	 0.4072486096	 1.7670622068	 0.09573
H	 1.7435846701	-0.3944703257	 3.12245831	 0.098839
H	 0.2142703207	-1.5728182861	 1.4671351286	 0.096228
