19
gdb 111604	4.20452	1.22287	1.18362	1.9544	74.15	-0.2451	0.0671	0.3122	1100.3862	0.161118	-422.973758	-422.966419	-422.965475	-423.005901	29.344	
O	 0.0401392497	 1.4792930164	-0.1389426623	-0.422361
C	 0.0764238712	 0.0851038585	 0.1442522759	-0.105627
C	-1.3025273296	-0.5489150787	 0.0835949718	 0.003965
C	-2.0025502324	-0.7536201327	-1.289465715	 0.04309
O	-1.0185286747	-1.4841893854	-2.0387762965	-0.271908
C	-1.029065278	-2.6744582438	-1.2298439913	 0.076133
C	-2.4610082418	-3.204841998	-1.4587501365	-0.243775
C	-2.8330302356	-1.9486877995	-0.6583823462	-0.060907
C	-1.5001238004	-2.0722017951	 0.1669535152	-0.102478
H	-0.1545161552	 1.5758123005	-1.0763933104	 0.286222
H	 0.7606930755	-0.4422108918	-0.5333261674	 0.100326
H	 0.4800481634	-0.0039204932	 1.1592007999	 0.104232
H	-1.9856048308	-0.0518512905	 0.7811493705	 0.080702
H	-2.4352327545	 0.0489369953	-1.8854317828	 0.075519
H	-0.1239872613	-3.2597434248	-1.3812834855	 0.080968
H	-2.7866535925	-3.3151813265	-2.4960701407	 0.102556
H	-2.6730143464	-4.1094951464	-0.8824590746	 0.102055
H	-3.8069752258	-1.742077951	-0.2197344257	 0.076955
H	-1.3886749806	-2.6747515932	 1.0665564418	 0.074334
