14
gdb 27848	2.15249	1.85243	0.99594	4.341	71.22	-0.2106	-0.0209	0.1897	1097.0866	0.102519	-470.062766	-470.055087	-470.054142	-470.094931	29.525	
N	 0.0842767113	 1.3263293095	-0.1059733117	-0.56707
C	-0.0531723505	-0.0204421053	-0.042797112	 0.50507
C	-1.2331367428	-0.7100447756	-0.0193599378	-0.377256
C	-1.0964205828	-2.1192393501	-0.0040071264	 0.445482
O	-2.2295890041	-2.8343503881	 0.0163512231	-0.40482
N	 0.0352574759	-2.7681695215	-0.0066121203	-0.441356
C	 1.2050943544	-2.0594803587	-0.0245366016	 0.425311
N	 2.3960484915	-2.4875114466	-0.027146804	-0.542458
O	 1.1267058579	-0.6385373534	-0.0394586025	-0.234927
H	 0.9967823763	 1.7030096848	 0.0933665494	 0.279168
H	-0.7111715713	 1.9024577857	 0.1085495322	 0.274783
H	-2.1957905183	-0.2233040704	-0.022324865	 0.10798
H	-1.9563744277	-3.7639173695	 0.0247492648	 0.302868
H	 2.3667812603	-3.5051395407	-0.0139024982	 0.227224
