18
gdb 36398	5.24374	0.8311	0.77277	2.3477	79.32	-0.2242	0.0371	0.2614	1463.6735	0.14532	-401.853105	-401.844329	-401.843385	-401.887066	32.643	
C	-0.0232218161	-1.219846627	-0.040110583	-0.4282
C	-0.0275159225	-0.0186617495	-0.0240658008	 0.307753
C	-0.0313298542	 1.4408076577	 0.023735353	-0.314252
N	 1.3142943208	 1.988129542	 0.0488775968	-0.079933
C	 2.1510882911	 1.734647638	 1.2478016588	-0.250182
C	 2.5630689303	 3.2068745123	 1.2077046005	 0.431585
C	 3.2004495148	 4.0728057885	 2.1929103872	-0.26553
O	 3.8944038226	 3.6361393543	 1.0124553852	-0.261378
C	 1.4456474349	 3.4575165651	 0.1942523201	-0.249313
H	-0.0200627921	-2.2814142666	-0.065336757	 0.198726
H	-0.5430599499	 1.8346806628	-0.8639171326	 0.136872
H	-0.6305838807	 1.7672815148	 0.8993660993	 0.103181
H	 1.5723557101	 1.4749403365	 2.1481821263	 0.096715
H	 2.9452056308	 0.9967869396	 1.1023912383	 0.126265
H	 2.9544478448	 5.1337494745	 2.2243841878	 0.117014
H	 3.5639937153	 3.6530024547	 3.1302408152	 0.118209
H	 1.7233372652	 3.9858202422	-0.7235427053	 0.121318
H	 0.5629221549	 3.9425548001	 0.64263241	 0.091151
