23
gdb 116478	2.54382	1.25591	1.01214	0.9053	87.94	-0.2329	0.022	0.255	1309.2118	0.207197	-388.297012	-388.287788	-388.286844	-388.331392	35.132	
C	 0.192146284	 0.4312675167	-1.829303227	-0.393563
C	-0.1248893438	 0.4269167692	-0.3306629237	-0.158645
C	-1.3561246707	-0.4263832764	 0.0667837421	-0.034566
C	-1.1453741269	-1.9241634329	-0.1977856045	-0.090545
O	-0.0616415399	-2.5020888178	 0.5059843538	-0.242452
C	-0.3562818057	-2.8768614255	 1.8369751755	-0.067649
C	-0.3260601794	-1.7227949496	 2.8403490865	-0.255032
C	-1.3383818624	-0.622058036	 2.6317946017	-0.053385
C	-1.7718624814	-0.0958134929	 1.4844336541	-0.081035
H	 1.0262225871	 1.1063305883	-2.0454720243	 0.112657
H	 0.4761207301	-0.561231995	-2.1919339861	 0.124063
H	-0.6683072372	 0.7690704207	-2.4186319529	 0.109854
H	 0.7403874727	 0.0604647324	 0.2320838874	 0.111843
H	-0.2983178966	 1.4564970282	 0.0034225423	 0.091507
H	-2.1859956653	-0.1314856376	-0.5928871242	 0.068858
H	-2.0755159642	-2.4676983463	 0.0310974661	 0.08573
H	-0.9259484617	-2.0791807322	-1.259452534	 0.101154
H	-1.3379518649	-3.3763136975	 1.8775176217	 0.087113
H	 0.4058791183	-3.6129295637	 2.1161580425	 0.100197
H	-0.4673500971	-2.1545887018	 3.8393958831	 0.098612
H	 0.6857875514	-1.2918130113	 2.8439741129	 0.11924
H	-1.7270630303	-0.1844560276	 3.5497115465	 0.08356
H	-2.4734935662	 0.7336156986	 1.5616950206	 0.08248
