21
gdb 59399	2.75779	0.99016	0.95042	1.351	86.15	-0.2386	0.0539	0.2925	1391.2066	0.178894	-387.048634	-387.03802	-387.037076	-387.083938	39.527	
C	-0.2101439071	 1.5096042173	 0.0440364194	-0.399284
C	 0.0287013913	 0.0027016195	-0.0820282732	 0.118665
O	 0.7252447136	-0.3132978168	-1.286964746	-0.431725
C	 0.7418491344	-0.5481050559	 1.1372995061	-0.05136
C	-0.0049331361	-1.1451751837	 2.2984900593	-0.32609
C	 0.8370333243	-2.04860916	 1.4050548004	 0.129081
C	 0.1449508409	-3.0436307799	 0.4823296814	-0.452449
C	 2.0893058684	-2.5142261677	 1.9439556381	 0.266448
C	 3.1356141926	-2.9176753604	 2.3806253049	-0.457881
H	 0.741769208	 2.0444647322	 0.1497789349	 0.107406
H	-0.7167413581	 1.8874187134	-0.8478877328	 0.123808
H	-0.8216241976	 1.7395259421	 0.9224040987	 0.11983
H	-0.9399913659	-0.4956421427	-0.1946443852	 0.086157
H	 1.6152527548	 0.0492926806	-1.2147999368	 0.277201
H	 1.6408508483	 0.0066177757	 1.3997700898	 0.088013
H	 0.3462326946	-0.945467283	 3.30374923	 0.122371
H	-1.082044118	-1.2487065203	 2.2072198794	 0.113903
H	-0.8448065245	-2.6909642812	 0.1838389282	 0.114908
H	 0.7329814957	-3.2031375624	-0.4249959124	 0.138905
H	 0.0210824706	-4.0045713036	 0.9902453077	 0.122617
H	 4.0578787697	-3.2730116732	 2.7680141783	 0.189475
