15
gdb 128574	6.83265	0.85995	0.76758	6.2486	72.25	-0.2321	-0.0438	0.1883	1404.0073	0.112814	-453.956805	-453.948494	-453.94755	-453.990348	29.361	
C	-0.0113563675	 1.4100039187	 0.0166646594	-0.269418
O	-0.003230802	-0.0106451379	 0.0179145611	-0.256654
C	 0.5867669017	-0.6248727253	-1.0186340092	 0.539713
C	 0.7252538367	-1.9754444379	-1.2471691088	-0.459054
C	 1.4222650016	-2.0489191646	-2.4796523055	 0.270045
C	 1.8210081225	-3.288222327	-3.1701157982	 0.101604
O	 2.4144853831	-3.3522756919	-4.2186638782	-0.260126
N	 1.6968708418	-0.8406618106	-2.9800964578	-0.284104
N	 1.178258189	 0.0095648081	-2.0725587427	-0.280104
H	 1.008580338	 1.8158333051	 0.0313775229	 0.133323
H	-0.554635933	 1.806143338	-0.8511647808	 0.133287
H	-0.5275645303	 1.7125996576	 0.9276268016	 0.157313
H	 0.3760415073	-2.7775483125	-0.6191539095	 0.124385
H	 1.5164047373	-4.2082704631	-2.6208610255	 0.06852
H	 1.2626021737	 0.9985600333	-2.2357460388	 0.281269
