16
gdb 51326	4.24743	1.25339	1.14205	1.1008	68.84	-0.2359	0.0263	0.2622	1070.449	0.124822	-437.809054	-437.801946	-437.801002	-437.841295	27.245	
N	-0.6641652705	 0.3504327444	 1.1205730807	-0.471986
C	-0.2893872526	 0.186200078	-0.0782695201	 0.121722
O	-0.4402886311	-0.9599306092	-0.7554620894	-0.220252
C	-1.0311327433	-2.0458792412	-0.0488179221	 0.209543
C	-2.5350590389	-2.1108979882	 0.1522517348	-0.168285
C	-3.0622451053	-2.7735144251	-1.1269970469	 0.09975
O	-1.9714243981	-2.9300195007	-2.0338532494	-0.282801
C	-1.1829356594	-3.3334650485	-0.8853158558	-0.006126
C	-2.4875511778	-3.6316854723	-0.0554656521	-0.153458
H	-0.4457816819	 1.2944935539	 1.4312073995	 0.229046
H	 0.1957829144	 0.9232207742	-0.7256366202	 0.110467
H	-0.5009447902	-2.2163304396	 0.8904328415	 0.107838
H	-3.1429570563	-1.5424979414	 0.8407029738	 0.109316
H	-4.0640133245	-2.6561154603	-1.5168783533	 0.114951
H	-0.3497743648	-3.9874660899	-1.1296661523	 0.092595
H	-2.8407725098	-4.4596657341	 0.5407553311	 0.107679
