19
gdb 68609	2.33648	1.85398	1.48614	2.8689	74.63	-0.2473	0.0706	0.3179	977.8035	0.159821	-422.987867	-422.980115	-422.979171	-423.019567	31.304	
O	-0.1215650645	 1.3773945492	 0.0409598386	-0.482589
C	-0.0158811174	-0.0046553177	-0.0040208065	 0.326081
C	 0.3061168443	-0.8245998013	-1.3056111725	-0.304513
C	-0.4190211151	-1.9641524967	-0.5235846515	-0.127018
C	 0.5437875215	-2.2095833123	 0.6593803209	-0.218023
C	 0.8459991505	-0.725266838	 1.0558170866	-0.276391
C	-1.3029667387	-0.8412308724	 0.0412907569	 0.506663
C	-2.5227952832	-0.7696023397	 0.8335428294	-0.317186
O	-2.4997584598	-0.4223155751	-0.5706448899	-0.305745
H	 0.7608948413	 1.7509862879	 0.1354087034	 0.281505
H	-0.2696515671	-0.4654758114	-2.1593640789	 0.123014
H	 1.3562806935	-0.9794101758	-1.5706211465	 0.082795
H	-0.8527117385	-2.8241272044	-1.0296895742	 0.076427
H	 0.073237973	-2.7703281974	 1.4714670368	 0.102064
H	 1.4416599803	-2.7514018239	 0.3499681425	 0.102036
H	 1.9063970707	-0.4673446963	 0.9601875017	 0.09088
H	 0.5254897711	-0.4779975656	 2.0717902695	 0.104304
H	-3.0763559391	-1.6760212729	 1.0754304955	 0.113434
H	-2.6820418527	 0.0700992737	 1.5082680483	 0.122262
