18
gdb 80687	3.46778	1.11249	1.09632	3.1075	82.05	-0.2301	-0.0533	0.1768	1183.9883	0.147857	-401.948265	-401.940116	-401.939172	-401.981058	30.749	
C	-0.1350842866	 1.5331949113	 0.0759755838	-0.419009
C	-0.0000901221	 0.0381098752	-0.070874183	 0.01416
C	 0.7213123247	-0.6404252748	-1.1800580328	-0.04585
C	 1.7126584506	 0.1115127929	-2.0709721795	-0.351044
C	 2.7855053128	 0.5111633106	-1.0752845863	 0.216598
C	 3.970115188	 1.2893581358	-1.3969363025	 0.063686
O	 4.2179500815	 1.7332271163	-2.5001181704	-0.285098
C	 2.4490694821	 0.0677301498	 0.1523101042	-0.117745
N	 1.2755279358	-0.70858531	 0.2101464788	-0.128601
H	 0.7363516491	 2.0766770859	-0.2921378196	 0.135586
H	-1.0102552906	 1.8729757374	-0.4882718701	 0.132018
H	-0.2910880094	 1.8060669551	 1.1247810989	 0.130261
H	-0.8461053321	-0.5128168366	 0.334824232	 0.105388
H	 0.3136972155	-1.5758167765	-1.5514068885	 0.102523
H	 2.1085630582	-0.5405385511	-2.8564124007	 0.129912
H	 1.2828246292	 0.9824509806	-2.5791624757	 0.129698
H	 4.6583239681	 1.4636883563	-0.5393813356	 0.063561
H	 3.0011933952	 0.2301386518	 1.0718692669	 0.123954
