15
gdb 52566	3.87313	0.67818	0.58129	2.3015	80.15	-0.2693	-0.0358	0.2335	1842.6535	0.108426	-420.590576	-420.580381	-420.579437	-420.62897	33.68	
C	 0.1032052762	 1.4262701648	 0.0085857405	-0.50965
C	 0.077940836	-0.025595164	 0.0010661828	 0.254337
C	 0.0580211839	-1.2300009243	-0.0051975708	-0.077657
C	-0.0428120889	-2.6661878585	-0.0120246507	 0.272401
O	-1.0765673674	-3.289931727	-0.0056342103	-0.360835
O	 1.1823514619	-3.2356562586	-0.0266818832	-0.228441
C	 1.1633995135	-4.6790506129	-0.0343083333	-0.237016
C	 2.5326392765	-5.1627179688	-0.0499088547	 0.28986
C	 3.6510838224	-5.5983068641	-0.0628860219	-0.411908
H	 1.1294934994	 1.8070537022	 0.0008452093	 0.162319
H	-0.4161094833	 1.8270462523	-0.8685287447	 0.164886
H	-0.3992606761	 1.8175811664	 0.8996763765	 0.164886
H	 0.624160182	-5.0373623406	 0.849317011	 0.155574
H	 0.6074530409	-5.0278377336	-0.91136525	 0.155576
H	 4.642147573	-5.9798624133	-0.0744690007	 0.205668
