15
gdb 77211	3.68785	1.051	0.90955	4.2386	72.93	-0.2611	-0.0068	0.2543	1238.3804	0.111608	-416.74977	-416.741016	-416.740072	-416.783769	31.795	
O	 0.2428012302	 1.3019182249	 0.2091673661	-0.412074
C	 0.1333413427	-0.0703981514	 0.0256779409	 0.15016
C	-1.3289079405	-0.6356318161	-0.1146346191	-0.214683
N	-1.1230150085	-0.6767671451	-1.5923811101	-0.309448
C	 0.3467076088	-0.6072411215	-1.4380904422	-0.199675
C	 1.0202397696	 0.2832639059	-2.3792955051	 0.305995
N	 1.547932541	 1.0078129786	-3.1087301782	-0.318516
C	-1.5405615673	-1.9238220785	 0.5230568741	 0.328269
C	-1.6937294121	-3.0055912272	 1.0263992043	-0.452921
H	-0.2054963223	 1.7582228811	-0.5135803992	 0.303779
H	 0.7467354152	-0.5482785718	 0.7879347554	 0.125755
H	-2.1028577912	 0.078922786	 0.1861018897	 0.118001
H	-1.4730549128	-1.506429597	-2.059033899	 0.239312
H	 0.8583629403	-1.5781723555	-1.4298777656	 0.126245
H	-1.842664823	-3.9548270225	 1.4796995681	 0.2098
