16
gdb 46893	2.91385	1.63277	1.28812	6.036	71.63	-0.2529	-0.0412	0.2117	984.1027	0.126576	-437.887815	-437.880728	-437.879784	-437.919444	27.68	
O	-0.0135266042	 0.2218340653	-1.0085222214	-0.33439
C	-0.018202938	 1.1443184424	-0.2352912961	 0.412969
O	-1.1746120433	 1.4495681685	 0.4069558851	-0.211441
C	-1.3068645607	 2.6361895445	 1.1772226004	-0.105894
C	-0.5246710647	 2.6231717143	 2.4814113225	-0.041445
N	 0.1567545783	 1.3873181633	 2.8323243452	-0.31019
C	 0.971250473	 2.5574384904	 2.4284597905	-0.087996
C	 1.6601619438	 2.5094299231	 1.122498702	-0.010503
C	 1.2110057482	 1.9565733108	-0.0109658907	-0.229371
H	-1.0166826944	 3.5131753878	 0.5836718396	 0.119166
H	-2.3770554043	 2.7086422465	 1.3863720071	 0.129659
H	-0.966447702	 3.22545026	 3.2732665929	 0.097732
H	 0.1930971544	 1.2656292056	 3.8405199287	 0.243606
H	 1.5119084964	 3.0780417553	 3.2136679336	 0.093425
H	 2.6347094798	 2.9908507404	 1.093981279	 0.109003
H	 1.8540376977	 1.9526643618	-0.8847156984	 0.125669
