15
gdb 16298	3.40378	1.80333	1.45693	1.758	68.91	-0.2391	0.0132	0.2524	881.4654	0.117776	-362.575224	-362.567726	-362.566782	-362.606731	28.618	
O	 0.0905233842	 1.4669891883	 0.2048281634	-0.421204
C	-0.0099398589	 0.0729095909	 0.0578725637	 0.027327
C	 0.1890538664	-0.7141904486	 1.3675257922	-0.175875
N	-1.1464729458	-1.4009463817	 1.2462360043	-0.161898
C	-2.1341769668	-0.3181278386	 1.260123105	-0.273575
C	-1.4174755016	-0.5529155163	-0.0185860826	 0.151308
C	-2.0280669505	-1.0472517884	-1.2050577688	 0.179293
C	-2.5129432157	-1.4264924177	-2.2395703587	-0.390067
H	-0.0816651979	 1.8783044545	-0.6491437707	 0.288848
H	 0.6257264269	-0.2984562691	-0.7544815756	 0.086849
H	 0.9973234108	-1.4454335208	 1.3307150565	 0.118046
H	 0.286055034	-0.0973996976	 2.2658642865	 0.118804
H	-3.1574721579	-0.6748052936	 1.3119189435	 0.133333
H	-1.9255262734	 0.5921457291	 1.8185557191	 0.12768
H	-2.949466254	-1.7744667804	-3.142922928	 0.191131
