17
gdb 37827	3.01232	1.92632	1.70219	2.0214	71.06	-0.236	0.0703	0.3063	858.8989	0.137136	-421.708691	-421.702196	-421.701251	-421.739421	26.601	
C	-0.1121262484	 1.624065732	 0.1189808871	-0.320987
C	 1.4049272774	 1.3315140012	 0.0317196339	-0.164012
C	 1.263698974	-0.0351413855	 0.7988095369	 0.024816
O	 1.9573934701	-0.8241307723	-0.2073143716	-0.352254
C	 1.1676398069	 0.15196819	-0.963694355	 0.384666
C	 0.6517879401	-0.18618586	-2.3366455845	-0.186884
O	-0.6880046509	-0.6784407426	-2.1249368612	-0.278312
C	-0.949970986	-0.9078803896	-0.7203469457	-0.192904
C	-0.0613122131	 0.0861115411	-0.0208331389	 0.214826
H	-0.4842534816	 2.0228218639	 1.0661487532	 0.102639
H	-0.5417960122	 2.1751333154	-0.7218047384	 0.11356
H	 2.2554149028	 2.0131305279	 0.0641285976	 0.088804
H	 1.4332444898	-0.265154371	 1.8510159978	 0.098983
H	 0.5957731947	 0.6769843133	-3.0077964395	 0.117183
H	 1.2801089772	-0.9576274081	-2.7985481105	 0.122228
H	-2.0227795429	-0.7645632429	-0.5720577374	 0.1162
H	-0.6789580979	-1.9346498728	-0.4392396438	 0.111449
