17
gdb 34556	3.71057	1.29615	1.21851	1.5059	82.24	-0.2307	-0.028	0.2027	1067.0603	0.137607	-384.663436	-384.656263	-384.655319	-384.694917	29.026	
C	 0.0974950852	-1.1688589988	 0.0417035024	-0.408741
C	-0.0156050248	 0.0308435486	-0.0023846971	 0.182011
C	-0.0783812639	 1.4351195581	-0.0628878255	 0.240361
C	-1.1338033214	 2.2655040718	-0.0347090112	-0.217127
C	-0.5471603442	 3.6666359379	 0.0269315027	 0.023554
C	 0.0118489648	 3.8631208713	 1.4761827998	-0.215695
C	 1.2430349036	 2.9111811749	 1.4389778937	-0.220087
C	 1.1452511251	 2.3695597594	-0.022378093	-0.053735
O	 0.6641439809	 3.5153192462	-0.724623666	-0.244647
H	 0.1771997478	-2.2267739212	 0.0814273504	 0.191425
H	-2.1801412427	 2.0078902687	 0.0501661742	 0.113263
H	-1.1497779338	 4.4824605539	-0.3693629073	 0.085012
H	 0.3156952413	 4.9024586973	 1.6203982115	 0.109409
H	-0.718116252	 3.6056798234	 2.2462386104	 0.105065
H	 2.175761607	 3.4642268915	 1.5686565858	 0.109031
H	 1.2071716283	 2.1141353407	 2.1842152609	 0.111808
H	 2.0646966088	 1.9916634563	-0.4652529717	 0.089094
