19
gdb 51948	5.92807	0.61231	0.59145	3.8481	79.48	-0.2504	-0.0216	0.2287	1861.3089	0.156649	-423.046782	-423.037042	-423.036097	-423.083416	33.773	
O	-0.2862305294	-0.0018649305	-0.1802191874	-0.238488
C	-0.0225644006	 1.1682884343	-0.0822109999	 0.157491
C	 1.3568560566	 1.7668686948	-0.2094205079	-0.269718
C	 1.399938655	 2.8812529246	-1.2598411538	-0.331548
C	 2.630081199	 3.7760410459	-1.1360829147	 0.388634
O	 3.3859344931	 3.6956969478	-0.1899154998	-0.329625
C	 2.8374909227	 4.7622226561	-2.2328639245	-0.106091
C	 3.4885040389	 6.0894946877	-1.8676222559	-0.246922
C	 4.2770042399	 5.0784804112	-2.6225606394	-0.24579
H	-0.824714982	 1.9193074233	 0.1210262841	 0.066443
H	 1.6357423371	 2.202870758	 0.7591194191	 0.144324
H	 2.0742371141	 0.9737804968	-0.4326299898	 0.129783
H	 1.3565315768	 2.4741527061	-2.2775484187	 0.134845
H	 0.5190357882	 3.5362764214	-1.1729074123	 0.131128
H	 2.0952586991	 4.7687656838	-3.0231646601	 0.089915
H	 3.1295128338	 6.9714991109	-2.3850319924	 0.12138
H	 3.7202593363	 6.2204582084	-0.8170050971	 0.140915
H	 5.0382146766	 4.5304687732	-2.0795258663	 0.141293
H	 4.4759344648	 5.2427177561	-3.6751514834	 0.122033
