18
gdb 35841	3.29815	1.18846	0.90884	4.1831	85.33	-0.2337	-0.0413	0.1925	1251.3755	0.149939	-364.84173	-364.833716	-364.832772	-364.874828	30.508	
N	-0.0571478005	-1.1639721779	-0.190778592	-0.324124
C	-0.0035614525	-0.0163105718	-0.0667331872	 0.262447
C	 0.0569766983	 1.4399992393	 0.1032389094	-0.196691
C	-0.7952673351	 1.8717077452	 1.3308093516	-0.213177
C	-1.2622798595	 3.3273938687	 1.2721362783	-0.271301
C	-0.2189936134	 4.3998276993	 1.1446577563	-0.064477
C	 1.0878595203	 4.3026262282	 0.8559617775	-0.071401
C	 1.8950415497	 3.1320772358	 0.5239739246	-0.085813
C	 1.4996753705	 1.8986818201	 0.1863504461	-0.071189
H	-0.4032327155	 1.8771358394	-0.7955868483	 0.141318
H	-1.6786947781	 1.2295046773	 1.3931591188	 0.123731
H	-0.2068025252	 1.6947161972	 2.2356582089	 0.128111
H	-1.9890877812	 3.4499922743	 0.4547395036	 0.12013
H	-1.8418461938	 3.5272930822	 2.1841935448	 0.119367
H	-0.6014086711	 5.4021978022	 1.3295361835	 0.097248
H	 1.649580758	 5.2342798583	 0.8586675487	 0.091273
H	 2.967637775	 3.3118545325	 0.5208778099	 0.098533
H	 2.2517783141	 1.1522105199	-0.0463801944	 0.116014
