19
gdb 52603	2.03689	0.89206	0.71302	1.9793	90.04	-0.2418	0.0266	0.2684	1707.9542	0.154069	-385.840384	-385.828561	-385.827617	-385.880098	39.772	
C	 0.0591111179	 1.4841616734	-0.0762529065	-0.499204
C	 0.0239832152	 0.029827765	-0.0289904363	 0.002915
C	-0.0055784345	-1.1731376296	 0.0126821606	 0.135846
C	-0.0310515605	-2.6476363198	 0.0336148631	-0.044579
C	-1.480334738	-3.1651772461	 0.0727137371	-0.385267
O	 0.5210557976	-3.175504033	-1.1805503877	-0.421792
C	 0.7276987964	-3.1368749072	 1.1998812318	 0.135848
C	 1.361240375	-3.551410888	 2.136108107	 0.002927
C	 2.1257904794	-4.0503548411	 3.2697177083	-0.499198
H	 0.812115229	 1.8874015902	 0.6097162147	 0.14965
H	 0.3006813672	 1.841445287	-1.0833699406	 0.150831
H	-0.9094693822	 1.9130570984	 0.203110069	 0.150739
H	-2.0125750639	-2.804368962	-0.8102324022	 0.129729
H	-1.4699994738	-4.2573902812	 0.0681807543	 0.129729
H	-1.986262348	-2.8103066037	 0.9722219155	 0.128287
H	 1.4327536728	-2.8674130574	-1.2342291532	 0.282327
H	 2.8126849493	-4.8470650385	 2.9635752191	 0.150819
H	 2.7223139124	-3.254818741	 3.729556966	 0.14967
H	 1.4665280486	-4.4611174354	 4.04223772	 0.150723
