19
gdb 30669	2.86596	1.21828	1.04891	2.5693	77.76	-0.218	0.0315	0.2496	1226.4158	0.159918	-419.242019	-419.232959	-419.232014	-419.276395	32.919	
C	-0.6445179299	 0.9723097275	-0.4669367643	-0.244484
O	 0.3860095003	 0.1305353208	 0.0133761371	-0.249807
C	 1.043125909	-0.6100055772	-1.0105761228	 0.017498
C	 2.3830392981	-1.0739641498	-0.4395310086	-0.400076
C	 0.1861775647	-1.7640833207	-1.4573468485	 0.330261
N	 0.1508638962	-2.3108237858	-2.6529141022	-0.314757
C	-0.730356543	-3.3643921747	-2.5486189729	-0.094682
C	-1.2347922954	-3.4483508074	-1.2780364692	-0.11245
N	-0.6350767765	-2.4191421686	-0.5866667278	-0.259634
H	-0.2522411794	 1.7247426795	-1.1667136806	 0.114205
H	-1.4377586006	 0.4077044693	-0.9769938336	 0.117699
H	-1.0716386106	 1.4830552749	 0.3995110949	 0.126221
H	 1.2245982001	 0.0256087538	-1.8892212261	 0.092799
H	 2.2243821068	-1.6987650328	 0.4446014959	 0.118274
H	 2.9244871942	-1.6590704665	-1.1868271543	 0.137441
H	 2.9874154946	-0.2099303514	-0.1508862551	 0.121995
H	-0.9550180347	-3.9954251765	-3.3950865518	 0.105165
H	-1.9466575517	-4.1109429574	-0.8148764032	 0.12511
H	-0.7857547024	-2.149208617	 0.371248873	 0.269222
