16
gdb 71928	2.71388	1.98355	1.40321	1.2413	68.05	-0.2312	-0.0318	0.1994	911.8873	0.124992	-437.832422	-437.825382	-437.824438	-437.863679	27.971	
O	 0.2622983699	 1.4261928599	-0.0650639869	-0.46897
C	 0.0560722912	 0.0661432671	-0.0759547487	 0.308847
C	 0.3737269731	-0.7015487462	-1.3709353811	-0.233877
N	-0.75931717	-1.6631433429	-1.1717012114	-0.134987
C	-0.391131866	-2.7055686913	-0.1555106751	-0.183549
C	-0.6927254145	-1.7565792379	 1.0273971051	-0.16859
C	-1.3031919678	-0.793641583	-0.0540710107	-0.091109
C	 0.3852946582	-0.6881154205	 1.212644738	 0.330915
O	 0.9871825015	-0.2886334308	 2.1742861241	-0.331913
H	 0.5333529432	 1.6696091069	 0.8313692638	 0.298189
H	 0.1651685502	-0.0656622288	-2.236958552	 0.129106
H	 1.3655629725	-1.1502476212	-1.4876404876	 0.112525
H	-1.1057359269	-3.5318995356	-0.2035598769	 0.122554
H	 0.622408369	-3.1094721608	-0.2465592679	 0.11388
H	-1.1817527119	-2.1269618549	 1.9277685924	 0.099333
H	-2.3166325217	-0.40017754	-0.0758919751	 0.097646
