19
gdb 84506	2.97493	1.74548	1.41705	1.3972	81.24	-0.2435	-0.0004	0.2431	969.2913	0.16146	-385.809669	-385.802591	-385.801647	-385.840694	29.583	
O	 0.1375692394	 1.4665624632	-0.0840805378	-0.422233
C	 0.0815756665	 0.0386848349	-0.0516219292	-0.001664
C	 0.6348322266	-0.5414285842	 1.2702506404	-0.100817
C	-0.3153201105	-0.9556340075	 2.1243411061	-0.243533
C	-1.6428991877	-0.6797313604	 1.4973757108	 0.323562
C	-3.0462946533	-1.2299032464	 1.0987782915	-0.307721
C	-2.794189934	 0.048954711	 0.2010702284	-0.097117
C	-2.3047955373	 0.7523030909	 1.4880473201	-0.247131
C	-1.3512527224	-0.527143893	-0.0050674984	 0.034377
H	 1.0386347562	 1.7305643239	 0.1297740538	 0.279484
H	 0.6291650628	-0.3581661141	-0.9188821861	 0.066413
H	 1.7000059297	-0.5338247377	 1.486811787	 0.089385
H	-0.1352867412	-1.3194066171	 3.1299525181	 0.102822
H	-3.0710520227	-2.1966375474	 0.5883800873	 0.093288
H	-3.849046639	-1.1398539939	 1.835624596	 0.090709
H	-3.4730570787	 0.4467166142	-0.5545003074	 0.071284
H	-3.0608743881	 0.9328578964	 2.2575601986	 0.079552
H	-1.6268770258	 1.5930472248	 1.3636592081	 0.123061
H	-1.3436639402	-1.4852000775	-0.5361564772	 0.066277
