16
gdb 131253	3.08143	1.42534	1.05664	4.32	71.77	-0.2324	0.0106	0.2431	1111.6377	0.125282	-434.041707	-434.033837	-434.032893	-434.075127	29.187	
O	-0.1439012081	 1.3620216765	 0.19405748	-0.428551
C	-0.0090151324	 0.031975848	 0.0129821756	 0.369259
C	-0.0043647325	-0.8087613202	-1.0790523359	-0.194225
N	 0.1758885233	-2.077936211	-0.6243645564	-0.179644
N	 0.2819841174	-2.0673787864	 0.6717686581	-0.172326
N	 0.169891941	-0.7734256521	 1.0810522788	-0.001491
C	 0.242058557	-0.3998748241	 2.4661103939	 0.055871
C	-0.3314306836	-1.316594174	 3.5108490215	-0.275937
C	 1.1648461202	-1.1483539154	 3.3875009688	-0.275946
H	-0.2621795734	 1.7827271211	-0.663398184	 0.318711
H	-0.1166585038	-0.5786907844	-2.1259199574	 0.116037
H	 0.1313000354	 0.6702479731	 2.582174869	 0.126391
H	-0.8465734553	-0.8640793092	 4.3505779395	 0.120509
H	-0.7509499918	-2.2488662583	 3.1527698932	 0.150409
H	 1.7161101338	-1.9714687295	 2.9493963634	 0.150426
H	 1.6963237528	-0.5781489441	 4.1409489519	 0.120507
