25
gdb 109676	2.59	0.95317	0.88149	1.219	89.92	-0.2522	0.0758	0.328	1521.4318	0.226456	-389.483937	-389.472426	-389.471482	-389.520397	41.969	
C	-0.6018717828	 2.2501229821	 2.2336586149	-0.372179
C	-0.1357811482	 1.284724662	 1.1363097819	-0.204333
C	 0.6410332052	 0.1069984118	 1.6931045813	-0.067524
C	-0.0098876475	-1.1703071613	 2.1945336868	-0.034566
C	-1.5057460619	-1.4053127399	 2.1918830134	-0.419517
C	 0.8433210325	-1.1952958336	 0.9388356257	 0.308776
C	 0.2247279949	-1.4185130244	-0.4300168318	-0.464638
C	 2.2082428879	-1.8340185394	 1.0762714767	-0.137583
O	 2.0669441839	-3.2457561659	 0.948792125	-0.423654
H	 0.2483849149	 2.6378455047	 2.805917308	 0.111972
H	-1.1357008952	 3.1064176811	 1.8092132981	 0.107836
H	-1.2727533885	 1.750196289	 2.939812737	 0.119242
H	-1.0035562025	 0.9461354331	 0.5618070845	 0.094803
H	 0.4995390854	 1.826665698	 0.422897078	 0.094382
H	 1.5039669991	 0.4296004635	 2.2755408954	 0.068137
H	 0.4744914228	-1.6108130457	 3.0635679105	 0.078123
H	-2.0143457935	-0.9161347291	 1.3579464578	 0.11454
H	-1.7298390484	-2.4759396642	 2.1291982989	 0.121762
H	-1.9584784765	-1.0271507903	 3.1154756173	 0.113943
H	-0.7960846988	-1.0410070569	-0.5062524636	 0.109986
H	 0.8177056836	-0.9225878494	-1.2084795945	 0.106486
H	 0.2076574614	-2.4881184271	-0.6569407778	 0.133777
H	 2.8829535663	-1.4385228704	 0.2983397683	 0.078619
H	 2.6437055621	-1.5714875602	 2.05355614	 0.076996
H	 2.9462264637	-3.6305185277	 0.8911857683	 0.284613
