21
gdb 110670	2.93948	1.50511	1.33941	1.051	81.3	-0.2388	0.0838	0.3226	1069.0277	0.184697	-387.065609	-387.057772	-387.056828	-387.097924	31.035	
C	-0.1253788715	 1.3924120301	-0.0941121347	-0.240817
O	 0.2230547996	 0.0452261544	 0.1336718991	-0.246208
C	 0.7012640719	-0.6125134341	-1.0160237922	 0.166499
C	 1.2973873397	-1.9873945004	-0.8005598683	-0.121938
C	 0.2269853603	-3.0604485671	-0.6992728112	-0.030545
C	-1.187546551	-2.6693606666	-0.2744388213	-0.229457
C	-1.6270092471	-1.6383958509	-1.3494681539	-0.200548
C	-0.318830582	-1.2300406068	-2.0420862908	-0.105275
C	 0.5733679084	-2.5006477611	-2.0468497891	-0.08401
H	 0.732976701	 1.9745692834	-0.4656129926	 0.10281
H	-0.9463877166	 1.4949024704	-0.8195968282	 0.105725
H	-0.4486333321	 1.8133700269	 0.861179613	 0.125187
H	 1.4185533894	 0.0337144433	-1.5446554631	 0.062027
H	 2.3137513993	-2.1817264373	-0.47756019	 0.079373
H	 0.608324706	-4.0414134622	-0.4363157835	 0.079979
H	-1.8455096313	-3.5441760399	-0.2613802162	 0.089325
H	-1.1973274783	-2.2306720999	 0.7266202703	 0.113458
H	-2.2996738212	-2.1011313755	-2.0802137457	 0.091299
H	-2.1496008458	-0.7825058927	-0.9134421817	 0.099342
H	-0.4466266797	-0.6827950395	-2.9763279738	 0.060079
H	 0.9629442909	-3.0419676344	-2.8975991262	 0.083696
