18
gdb 125698	5.65809	0.94456	0.86922	2.9062	81.5	-0.2343	0.0003	0.2346	1371.3704	0.147979	-401.947126	-401.938824	-401.93788	-401.980587	30.843	
C	-0.1644285715	 1.4941220437	-0.0540655652	-0.493516
C	-0.0062176982	 0.0102127277	 0.0395685253	 0.398768
N	 0.216827667	-0.6952113599	-1.0444555997	-0.207091
O	 0.3132043875	-2.0243902647	-0.6153797461	-0.231709
C	 0.1444229431	-2.0761198056	 0.7197113764	 0.48142
C	-0.0626663988	-0.8181810082	 1.1981386126	-0.454423
C	 0.2115905735	-3.3912652968	 1.3631893323	-0.115572
C	-0.3105557273	-4.6253728382	 0.6475644702	-0.262237
C	 1.1651942887	-4.4537607945	 0.8437438084	-0.262186
H	 0.5943266219	 2.0071468406	 0.5459814037	 0.136145
H	-0.0663181339	 1.816871477	-1.0922510698	 0.148848
H	-1.1448095364	 1.8074557906	 0.3195970168	 0.136128
H	-0.2305147692	-0.521727163	 2.2203097232	 0.10969
H	 0.0641360858	-3.3493034712	 2.4362682249	 0.098362
H	-0.835172407	-5.3604454622	 1.2471013182	 0.119664
H	-0.707321139	-4.478871696	-0.3499849721	 0.139047
H	 1.7620747055	-4.1916269662	-0.0217113784	 0.138985
H	 1.6693349685	-5.0691510231	 1.5800415293	 0.119676
