17
gdb 115998	2.0266	1.6635	0.99174	3.1062	73.74	-0.2562	-0.065	0.1912	1185.7846	0.134468	-458.969373	-458.960549	-458.959605	-459.003564	30.915	
C	-0.0209425154	 1.3937152865	-0.3155878724	-0.240307
O	-0.0512348606	-0.0237182739	-0.3241127732	-0.239649
C	-1.2476455936	-0.5613926934	 0.1562073752	 0.126049
O	-2.3313323232	-0.3804887808	-0.7516224735	-0.271193
C	-2.5677290283	-1.5871117879	-1.4659652837	-0.121529
C	-1.8056045601	-2.6369324263	-0.7163165309	-0.194261
C	-1.0802310021	-2.0614560096	 0.2462717936	 0.215226
C	-0.2299063722	-2.7374960109	 1.229480045	 0.076781
O	 0.3499735876	-2.1743729578	 2.1290423909	-0.260413
H	 0.9720249278	 1.6925693938	-0.6570899205	 0.129849
H	-0.7789271942	 1.8145268856	-0.9873081533	 0.123851
H	-0.1845109735	 1.7887188111	 0.6977086746	 0.113396
H	-1.5274723361	-0.0718165665	 1.0995948769	 0.088813
H	-3.6481515989	-1.7833093156	-1.4834686445	 0.126781
H	-2.2309403238	-1.5138621955	-2.5125059076	 0.125545
H	-1.8527968416	-3.6950587598	-0.9452851749	 0.128041
H	-0.1676284018	-3.8411250488	 1.1013700284	 0.073023
