17
gdb 78466	3.52328	1.46468	1.43199	2.0991	70.06	-0.2382	0.0052	0.2434	956.4791	0.137642	-421.780374	-421.77371	-421.772766	-421.811004	28.077	
O	-0.1484743103	 1.4593992709	 0.0147020448	-0.435342
C	 0.0153318677	 0.0697254623	-0.0109719654	 0.068664
C	-0.3841527045	-0.7057732614	 1.2286376841	-0.106948
C	-1.2695145458	-0.7006474198	-0.0035091498	-0.06259
C	-1.3070982976	-2.2231646852	-0.3602346685	-0.004561
O	-1.3258930159	-2.8047842644	 0.9570001591	-0.242229
C	-0.0725565052	-2.2307967642	 1.3743728701	-0.001551
C	 0.8430162714	-2.6720840361	 0.2319755393	-0.084515
C	 0.0698643965	-2.6666077745	-0.8542437031	-0.082314
H	 0.6181372299	 1.8381027873	 0.4575666096	 0.286273
H	 0.8466729703	-0.2860383287	-0.6144794709	 0.088443
H	-0.6671061558	-0.1501235732	 2.1142535362	 0.097543
H	-2.198171948	-0.144448064	-0.0212179914	 0.105247
H	-2.1775499234	-2.5376113919	-0.9331643141	 0.07932
H	 0.1828652192	-2.5534521739	 2.382277264	 0.077694
H	 1.9081427416	-2.8428455016	 0.3074051155	 0.10739
H	 0.3457176298	-2.8309448115	-1.8867486793	 0.109474
