19
gdb 126308	5.31622	0.84228	0.78068	2.1512	79.84	-0.2106	0.0317	0.2423	1522.2851	0.159838	-419.231219	-419.221832	-419.220888	-419.266199	33.583	
C	 0.0309637079	 1.5386324104	-0.1612080319	-0.365405
C	-0.0214892748	 0.011564153	 0.0285485455	-0.299434
C	-1.4139603214	-0.5232302468	 0.1568536802	 0.421582
C	-2.1927526037	-0.7965211664	 1.2643106397	-0.457392
C	-3.4272663194	-1.2336689013	 0.7286445215	 0.473608
O	-4.4831781013	-1.6087142697	 1.4719786089	-0.26803
C	-5.6318459931	-2.0273506585	 0.7435471381	-0.230513
N	-3.4362512039	-1.2400920957	-0.597273383	-0.329751
N	-2.1917266434	-0.7967265579	-0.9211963656	-0.287862
H	 1.0659931897	 1.8835722532	-0.2464946214	 0.115978
H	-0.5039565241	 1.843079039	-1.0662128736	 0.118355
H	-0.4333692214	 2.0507347796	 0.686349978	 0.13028
H	 0.483711991	-0.4796696517	-0.812804444	 0.106261
H	 0.5397434421	-0.2656542268	 0.9262918716	 0.121966
H	-1.9203716816	-0.7020926482	 2.3020853756	 0.103784
H	-6.3819511674	-2.2916195171	 1.4905827836	 0.122792
H	-6.0058348477	-1.2229152751	 0.1011219369	 0.129344
H	-5.4045066947	-2.8941347911	 0.1136609791	 0.129178
H	-1.9413526926	-0.729439659	-1.8921529691	 0.265261
