22
gdb 118353	1.84774	1.16214	0.75683	2.5829	84.01	-0.2443	-0.0233	0.2211	1553.8843	0.191655	-404.327578	-404.317116	-404.316172	-404.364348	36.884	
C	-0.0197664482	 1.4548965368	 0.2804252011	-0.382158
C	-0.0082322778	-0.0634520487	 0.0793763828	-0.179963
C	-1.4202841567	-0.6368007822	-0.086137762	-0.174246
C	-1.4823742505	-2.1723661182	-0.2154296775	-0.059674
C	-2.9491867008	-2.5743538481	-0.3053412886	 0.158247
O	-3.6632944609	-2.7420983448	 0.6486332142	-0.256489
N	-0.8077656044	-2.637371791	-1.4242926218	-0.076906
C	 0.5837480211	-3.0591294848	-1.2955975976	-0.215203
C	-0.492870347	-4.0672131072	-1.476845521	-0.232566
H	 0.995095182	 1.847622739	 0.3963367613	 0.1132
H	-0.4778661858	 1.9633584569	-0.5750610319	 0.117703
H	-0.5898346742	 1.7324389659	 1.1738176364	 0.117235
H	 0.5934553968	-0.310277389	-0.8016735081	 0.112827
H	 0.4812380651	-0.5434944966	 0.9372125156	 0.093691
H	-2.0341525783	-0.3567570527	 0.7785210874	 0.113399
H	-1.8928229103	-0.1930582194	-0.9719163587	 0.105164
H	-1.0717441182	-2.6272447647	 0.7036822625	 0.076726
H	-3.3253375669	-2.6735120299	-1.3485830032	 0.087906
H	 1.2350204283	-2.7925263683	-2.1230839999	 0.121736
H	 1.0483618573	-2.9986395476	-0.3132948357	 0.117462
H	-0.7500584473	-4.6801837252	-0.6143611961	 0.119998
H	-0.6452572132	-4.5466704902	-2.4389803692	 0.121911
