11
gdb 130906	7.43802	0.91387	0.81388	4.2947	69.35	-0.2816	-0.0941	0.1875	1271.0509	0.064402	-451.507796	-451.500339	-451.499394	-451.540282	26.03	
O	-0.0715695843	-0.0080115266	-0.0023122803	-0.22266
C	 0.0139294201	 1.1903983089	 0.0068917791	 0.087011
C	 1.3032351573	 1.9387964989	-0.0008383555	 0.233268
N	 2.4826505442	 1.3600840568	-0.0184881322	-0.116927
O	 3.3631208955	 2.4217839197	-0.0192366213	-0.180126
C	 2.6172341296	 3.5513685378	-0.0014488596	 0.278387
N	 1.3369289141	 3.3109947212	 0.0101276328	-0.336231
C	 3.2873203997	 4.7910978789	 0.0014836111	 0.247617
C	 3.8692476009	 5.8421804736	 0.0038129883	-0.326996
H	-0.8669184296	 1.8626062726	 0.0219468324	 0.114546
H	 4.3787713926	 6.7753312582	 0.0059610552	 0.222112
