19
gdb 108434	2.27198	1.70916	1.2016	3.3232	76.32	-0.2338	0.0239	0.2577	1097.1392	0.159817	-419.177897	-419.169422	-419.168478	-419.210944	32.196	
C	-0.0842152608	 1.5396054919	-0.0601917861	-0.385611
C	-0.0321500544	 0.0045519492	-0.0715761372	-0.307814
C	 0.7737334158	-0.5320970619	-1.2301813566	 0.214698
N	 0.2567368174	-0.3186315283	-2.6215467934	-0.350071
C	 0.3664411391	-1.7762648556	-2.9247145727	-0.193829
C	 1.0885458722	-2.0118578724	-1.5896974753	 0.030567
O	 2.5125960222	-1.6978586886	-1.6369446468	-0.280001
C	 2.29193507	-0.38766372	-1.2354791783	 0.451282
N	 3.1028856575	 0.5276058645	-0.9651158096	-0.556703
H	 0.9245140697	 1.9544496602	 0.0051367631	 0.163086
H	-0.5476278336	 1.9310023691	-0.9717033864	 0.118671
H	-0.6683653108	 1.8981343144	 0.7921334035	 0.112435
H	 0.4129910515	-0.3560453606	 0.8632752316	 0.113341
H	-1.0467930253	-0.4128860855	-0.1202973875	 0.093849
H	-0.6999797863	 0.0167551885	-2.6236803327	 0.223073
H	-0.59569467	-2.3005312212	-2.969476534	 0.105915
H	 0.9433685326	-2.0050404041	-3.8256960296	 0.120792
H	 0.8931915981	-2.8975901639	-0.986817152	 0.09795
H	 4.0702075151	 0.2259370544	-1.0965605	 0.22837
