17
gdb 80999	2.84508	1.51096	1.22089	3.0614	68.09	-0.2401	-0.0131	0.227	1025.6148	0.135769	-458.964578	-458.956744	-458.9558	-458.996458	31.262	
O	-0.1655064977	 1.3765121038	-0.0999383181	-0.452246
C	-0.009003657	-0.0210596635	-0.0165187845	 0.068661
C	 0.1003981243	-0.6147798417	 1.439647928	-0.18746
C	-1.4336703036	-0.3260720936	 1.5584550901	-0.309695
C	-1.4143577349	-0.6845516895	 0.0328397702	 0.416006
O	-2.4110350414	-0.3213628726	-0.8549611379	-0.490298
C	-1.0615605238	-2.1765447695	 0.0578864126	-0.380175
C	 0.0745783281	-2.098285734	 1.103698338	 0.429073
O	 0.7650439286	-2.986064387	 1.5246934062	-0.332387
H	 0.6951672441	 1.7942948665	-0.0007620046	 0.295219
H	 0.7065306805	-0.388756354	-0.7638587817	 0.077758
H	 0.8346424514	-0.2691840841	 2.1638022958	 0.082781
H	-2.0250685022	-0.9535587706	 2.2289166834	 0.10622
H	-1.6290865937	 0.7307669201	 1.7335107334	 0.120498
H	-2.397003668	 0.6415771362	-0.9185636669	 0.292166
H	-1.8882046691	-2.8084985658	 0.3951144873	 0.134486
H	-0.6981276254	-2.5598754506	-0.9005353814	 0.129395
