19
gdb 1725	4.36195	2.03343	1.88797	1.0526	67.28	-0.242	0.0837	0.3257	798.1851	0.170559	-310.904813	-310.896912	-310.895968	-310.936373	29.589	
C	 0.0995658688	 1.5317465383	-0.0167461231	-0.25136
O	 0.2645707374	 0.1373212727	-0.1463785746	-0.283949
C	 0.6149704805	-0.5522403659	 1.0396621028	 0.445236
C	 1.9976005118	-0.1550592324	 1.5554269733	-0.446558
C	-0.4753203013	-0.6094428332	 2.160098229	-0.267035
C	-0.2648355633	-2.1466139312	 2.2304900483	-0.218452
C	 0.44972977	-2.0818859049	 0.853989832	-0.263062
H	 1.0466586032	 2.0563711964	 0.1737681818	 0.105625
H	-0.3080338984	 1.8922923623	-0.9647454537	 0.124287
H	-0.6056633216	 1.7905807836	 0.7874048706	 0.104148
H	 2.0221472492	 0.883352235	 1.9005892719	 0.113696
H	 2.2881567475	-0.7871013585	 2.4003441017	 0.116861
H	 2.7437934482	-0.2759083983	 0.7634729356	 0.120608
H	-0.3044069664	-0.0285579265	 3.0702975936	 0.090317
H	-1.4561410186	-0.3542503821	 1.7500002346	 0.104756
H	 0.4112675631	-2.4361024625	 3.0392326508	 0.102425
H	-1.1608816983	-2.7665717454	 2.2955150159	 0.100126
H	-0.2341414028	-2.2791383378	 0.0253602288	 0.109856
H	 1.3606658108	-2.6699728498	 0.7166095808	 0.092474
