21
gdb 112026	3.33262	1.19992	0.99761	2.0404	82.95	-0.2389	0.0105	0.2494	1258.7755	0.183971	-387.083137	-387.074785	-387.073841	-387.116362	32.08	
C	 0.0721324768	 1.6061704144	 0.0328725594	-0.386754
C	 0.0342402739	 0.0774905021	-0.0637153085	-0.185072
C	-1.3906080214	-0.5067526901	-0.0162415512	-0.03132
C	-2.2391245328	-0.2351629302	-1.2463413916	-0.068261
C	-2.8856710417	-1.3107179826	-1.6969707165	-0.098566
C	-2.5778577271	-2.5312631823	-0.8721589501	 0.086712
O	-1.6665792484	-3.4596572143	-1.5174950442	-0.295813
C	-0.5553432641	-2.9444059402	-0.7526133983	-0.083789
C	-1.4797617541	-2.0461459991	 0.1073544049	-0.109924
H	 1.1024796556	 1.9747417417	 0.02636421	 0.114658
H	-0.4502431266	 2.0792584984	-0.8050491437	 0.118888
H	-0.4009096234	 1.9560273982	 0.9573202917	 0.115189
H	 0.5348609794	-0.2421199095	-0.9849815867	 0.102276
H	 0.6130685787	-0.348452783	 0.76593391	 0.096072
H	-1.8834506338	-0.0587622629	 0.8609760358	 0.078252
H	-2.3069100893	 0.7534860606	-1.689241569	 0.096809
H	-3.5453409649	-1.3376434688	-2.557030701	 0.098579
H	-3.4624586552	-3.0563194729	-0.4938560855	 0.075425
H	-0.0342004957	-3.744461267	-0.2144581224	 0.101051
H	 0.1675333624	-2.4160925079	-1.3857004543	 0.099447
H	-1.5672636184	-2.3856144845	 1.139871041	 0.076143
