15
gdb 20365	6.17701	1.40382	1.2577	0.6871	66.79	-0.2428	0.001	0.2438	952.8615	0.122036	-358.836233	-358.829616	-358.828672	-358.867637	24.633	
C	-0.2095689711	 1.3438830452	-0.276782677	-0.265851
C	 1.2060344114	 1.0939205667	 0.1558870253	-0.265856
C	 0.226898258	-0.061589869	 0.0875491282	-0.095833
C	-0.2631304445	-0.7038882068	 1.3196841485	 0.336508
N	-0.5103719151	-2.0172042971	 1.3692683797	-0.288284
N	-0.9253638879	-2.2072646742	 2.617444313	-0.073763
N	-0.9747036318	-1.1387730453	 3.3968969688	-0.193671
C	-0.5560688417	-0.1631105509	 2.5909328344	-0.144042
H	-0.8754287561	 1.8529413772	 0.411606263	 0.119555
H	-0.403063786	 1.5545224158	-1.3225636765	 0.119937
H	 1.9912352035	 1.131749907	-0.5907695488	 0.119936
H	 1.5100465285	 1.4317218497	 1.1406995419	 0.119554
H	 0.3541444391	-0.7595847869	-0.7319925515	 0.101163
H	-1.1888815787	-3.1192991739	 2.9524255967	 0.291248
H	-0.4860073875	 0.8517159825	 2.9484885743	 0.119402
