19
gdb 82407	2.57251	1.66274	1.24059	3.452	75.86	-0.25	0.0283	0.2782	1052.9654	0.16176	-419.195573	-419.187557	-419.186613	-419.228129	31.135	
C	 0.8012315691	 1.5462260398	 0.0054247052	-0.392438
C	 0.1562501652	 0.147570685	 0.0508553029	-0.080801
C	 0.4598204577	-0.7215139281	-1.1704460539	-0.045418
N	 1.6473747057	-0.3993705698	-1.9779072058	-0.327083
C	 1.666033075	-1.5846420999	-1.1025820252	-0.060247
C	 2.4740763037	-1.4374195655	 0.1678172105	-0.090315
O	 1.6375747159	-1.3778242204	 1.3370089791	-0.253836
C	 0.5296415816	-0.5828710033	 1.3339462246	 0.388356
N	-0.1842753032	-0.4521316209	 2.3734258636	-0.52051
H	 1.8918056618	 1.4979888005	-0.02240333	 0.129706
H	 0.4778798166	 2.0794494327	-0.8926668912	 0.119019
H	 0.4953849498	 2.114254707	 0.8871930288	 0.13229
H	-0.9245452502	 0.2866313497	 0.1197995002	 0.108707
H	-0.4068619915	-1.117215001	-1.6922648835	 0.097296
H	 1.494614826	-0.6812767372	-2.9425489143	 0.236157
H	 1.632538407	-2.5696792735	-1.5581703106	 0.096319
H	 3.1267977118	-2.2954483102	 0.3412459782	 0.120468
H	 3.0940809094	-0.5365488673	 0.107980543	 0.128229
H	 0.2208685487	-0.9860135776	 3.1456630083	 0.214101
