18
gdb 126694	3.16161	1.24795	0.96793	1.78	74.75	-0.2154	-0.0081	0.2073	1229.9897	0.147962	-435.26609	-435.257095	-435.256151	-435.300559	31.679	
C	-0.0225586942	 1.5138372204	-0.0202012002	-0.384692
C	 0.0261127605	-0.0184924557	-0.0266406095	-0.15447
N	 0.6752652269	-0.5912448609	-1.2018688302	-0.15218
C	 2.125785893	-0.6538770386	-1.2311771214	-0.350493
C	-0.0431063557	-0.7125164529	-2.3471483822	 0.492673
N	-1.3314525036	-0.4198879033	-2.4292061036	-0.254349
O	-1.6446151018	-0.7658439435	-3.7674633596	-0.165119
C	-0.5150497799	-1.1943077679	-4.3113176165	 0.117643
N	 0.5109261147	-1.1930515811	-3.5250035904	-0.34665
H	 0.9817486102	 1.9477905214	-0.0565497047	 0.116507
H	-0.593417381	 1.8811135875	-0.876672563	 0.145172
H	-0.5090696666	 1.869955949	 0.893298757	 0.118598
H	 0.5680432827	-0.3857219748	 0.8520792226	 0.101982
H	-0.989713848	-0.4209105757	 0.0206962928	 0.141
H	 2.4855160096	-1.1797856181	-0.3402455019	 0.124326
H	 2.4454176426	-1.1983882779	-2.118442496	 0.168153
H	 2.5877206885	 0.3436258242	-1.2505260393	 0.120576
H	-0.5506088578	-1.503065212	-5.3465460841	 0.161323
