14
gdb 57148	3.29915	0.79444	0.66602	1.8107	70.53	-0.2751	-0.0735	0.2016	1571.2504	0.098291	-473.824453	-473.81491	-473.813966	-473.860348	32.615	
N	-0.3710937459	 1.2914760275	 0.1192328798	-0.514971
C	-0.0327735934	-0.0005453152	-0.0619789195	 0.396369
O	 1.0750835823	-0.3996616396	-0.3663717262	-0.364639
C	-1.18541477	-1.0456260378	 0.0651457249	-0.130451
O	-0.6357006593	-2.3287256285	 0.0179517981	-0.412282
C	-1.9834368586	-0.8139667914	 1.2667626362	 0.119618
C	-2.6571057155	-0.5697998705	 2.2401087986	 0.004676
C	-3.4505660764	-0.2991874561	 3.4115054313	 0.021954
O	-3.9527937588	 0.7746033616	 3.6542950085	-0.23098
H	 0.3559740806	 1.987925427	 0.0803300104	 0.277654
H	-1.2546221761	 1.5376642584	 0.5349431176	 0.281996
H	-1.8449027088	-0.8718041061	-0.804836454	 0.13688
H	 0.3056343841	-2.1764911795	-0.1854335225	 0.302832
H	-3.5689945041	-1.1662898098	 4.0908217667	 0.111345
