14
gdb 131744	4.7589	0.93054	0.79249	2.7122	76.1	-0.2476	-0.0433	0.2043	1359.5477	0.099612	-436.639114	-436.63078	-436.629836	-436.672749	29.91	
O	 0.0929920539	 1.3336065266	 0.4222202049	-0.415708
C	 0.0148723671	 0.0080984731	-0.0771178557	-0.198712
C	-1.4051500929	-0.4482971586	 0.0576990418	 0.392273
N	-1.6799525232	-1.6951701347	 0.3640098345	-0.190076
O	-3.0595518575	-1.7959091235	 0.3692108737	-0.212629
C	-3.590395901	-0.58314301	 0.0731601088	 0.304009
C	-2.585265208	 0.3159190671	-0.1363512837	-0.417402
C	-4.9934338448	-0.4709757552	 0.0380436659	 0.244247
C	-6.1917874579	-0.3681565483	 0.0052892902	-0.384107
H	 0.9815109266	 1.6620154192	 0.2560967319	 0.295979
H	 0.3044896798	-0.0333991195	-1.1393434782	 0.112657
H	 0.6645464152	-0.6885508053	 0.4700207795	 0.123599
H	-2.6683058976	 1.3611353195	-0.3765221547	 0.140429
H	-7.2499531796	-0.2784948803	-0.0223161988	 0.205441
