15
gdb 1737	5.19789	1.79772	1.62929	4.5745	61.05	-0.2608	0.0338	0.2946	792.8581	0.125138	-304.692914	-304.685613	-304.684669	-304.724301	26.384	
C	-0.0183681407	 1.5704175175	-0.1870869293	-0.471771
C	-0.0260915669	 0.0608529163	-0.0733556972	 0.330426
C	-1.3214357809	-0.5522849209	 0.4597305255	-0.376554
C	-1.6865566593	-0.0344636014	 1.7792475637	 0.269719
N	-1.9666948945	 0.3956178319	 2.814508275	-0.314118
C	 0.7812625783	-0.7466198383	-1.0233824397	-0.285017
N	 1.1788807521	-0.6367216396	 0.3929821662	-0.330788
H	 0.9274977761	 1.9229730853	-0.609283413	 0.118181
H	-0.8272324232	 1.9224001216	-0.8370865573	 0.127805
H	-0.1531960002	 2.037285283	 0.7941812432	 0.151803
H	-2.1481140538	-0.351743969	-0.2324397317	 0.148145
H	-1.2041832312	-1.6373899122	 0.5310305914	 0.15957
H	 0.4501053171	-1.7356917244	-1.3293308916	 0.119885
H	 1.3569803569	-0.2129831553	-1.7750718736	 0.117645
H	 1.9490086802	 0.0193792655	 0.4953091484	 0.235069
