23
gdb 100701	3.11116	0.78063	0.6629	1.1514	91.94	-0.2398	0.0622	0.302	1790.2155	0.201683	-388.268116	-388.256111	-388.255167	-388.306774	41.31	
C	-0.0078210539	 1.3770155289	 0.1346023063	-0.236997
O	-0.0641383365	-0.0173989804	-0.0490373057	-0.245658
C	 0.6481761846	-0.5030140314	-1.1805427079	 0.149999
C	 2.1528552087	-0.5546954909	-0.9125359237	-0.408822
C	 0.0476430633	-1.896253917	-1.4930918465	-0.154792
C	-1.4732893143	-1.8172292225	-1.732794452	-0.394119
C	 0.7199603558	-2.5235262643	-2.6308357313	 0.068028
C	 1.2424140997	-3.0349274265	-3.5884977475	 0.050331
C	 1.8781648308	-3.6632660352	-4.7386266756	-0.498758
H	 1.0040990178	 1.7338885502	 0.3755468462	 0.106983
H	-0.3597875827	 1.9190800296	-0.7572784704	 0.103632
H	-0.6660246895	 1.6173326329	 0.9736431041	 0.126
H	 0.4505078808	 0.1548951963	-2.0439169207	 0.067203
H	 2.3588961022	-1.1952490757	-0.0486935835	 0.119606
H	 2.682053829	-0.9566150407	-1.7793684931	 0.132004
H	 2.5525979486	 0.4413614796	-0.7023794834	 0.111033
H	 0.2204312669	-2.5113160985	-0.5981559323	 0.104625
H	-1.8855206179	-2.8158388603	-1.8983659675	 0.116706
H	-1.9643344747	-1.3644318835	-0.870145341	 0.130159
H	-1.6909339164	-1.2126282764	-2.6192612045	 0.114711
H	 1.1341413514	-4.0689528722	-5.4332828187	 0.146605
H	 2.4928179673	-2.9474478638	-5.2958676347	 0.145219
H	 2.5297385391	-4.4895985583	-4.4330975768	 0.146303
