21
gdb 108512	2.60507	1.50594	1.22559	1.1952	77.65	-0.2424	0.0791	0.3215	1117.8704	0.183233	-424.209586	-424.201084	-424.20014	-424.242709	32.608	
C	-0.180329558	 1.3934673073	-0.0828716104	-0.261221
O	-0.0054368755	-0.0076349799	-0.0243345453	-0.290138
C	 0.7086320909	-0.5447527424	-1.110397642	 0.40759
C	 0.0010360453	-0.5353372982	-2.4976048241	-0.284456
C	 0.2735855326	-2.0600217827	-2.6258394395	-0.230623
C	 0.7556760217	-2.103829341	-1.1468966137	-0.082305
C	 2.2264595033	-2.4413660331	-0.9423746108	-0.106054
O	 2.9274681778	-1.3286070858	-1.4961726956	-0.256331
C	 2.2100454131	-0.1642328219	-1.1082120262	-0.135547
H	 0.7753806206	 1.9353842692	-0.0289347615	 0.109474
H	-0.7022363544	 1.7035249526	-0.9999230293	 0.109884
H	-0.7888682775	 1.6763745772	 0.7792271353	 0.128462
H	-1.062690052	-0.3085102323	-2.3905699315	 0.106643
H	 0.4276434384	 0.1098054093	-3.2700756164	 0.096095
H	-0.594505288	-2.6784459019	-2.8608647395	 0.100973
H	 1.0746226718	-2.2950382348	-3.3304365935	 0.111145
H	 0.0749106047	-2.5913999453	-0.4488932799	 0.080139
H	 2.4601150479	-2.5555538545	 0.1288407373	 0.092492
H	 2.5604391133	-3.3383799737	-1.4719208344	 0.107317
H	 2.4818385041	 0.6353902826	-1.8028059019	 0.1039
H	 2.4791243498	 0.1413177794	-0.0838075871	 0.092559
