16
gdb 93350	2.25965	1.73424	1.10332	3.4441	65.31	-0.2542	-0.0418	0.2125	1062.9671	0.124861	-475.073538	-475.065418	-475.064474	-475.106556	29.999	
O	-0.015233789	 1.3379234936	-0.0519719474	-0.438358
C	-0.0371607516	-0.0715382962	-0.0103417241	 0.108272
C	 0.5946240613	-0.4929569784	 1.3332645528	-0.175426
N	-0.5502026213	-0.6055414209	 2.2224972467	-0.313695
C	-1.7598032188	-0.7009445198	 1.6095348418	 0.425869
O	-2.8459582223	-0.8277345572	 2.1299977729	-0.383616
C	-1.4708897651	-0.6333697346	 0.091666336	-0.269383
C	-2.5570988583	 0.1016559244	-0.6544793774	 0.16746
O	-2.3590000575	 0.9710890572	-1.4718225677	-0.272771
H	-0.6037003187	 1.6013817272	-0.7742414212	 0.302391
H	 0.5125440023	-0.5064312296	-0.8557379541	 0.080024
H	 1.1336801663	-1.4452918894	 1.2438247186	 0.108642
H	 1.2927122586	 0.2793921278	 1.664894772	 0.138013
H	-0.4789173267	-0.6597304646	 3.2259305884	 0.259999
H	-1.5085827981	-1.6746752933	-0.2648373045	 0.133217
H	-3.583028211	-0.2249665263	-0.3967738829	 0.129362
