15
gdb 8806	5.15975	1.21765	0.99756	1.9384	60.48	-0.249	-0.0421	0.2069	1147.7431	0.117421	-436.994595	-436.985484	-436.98454	-437.029245	29.972	
C	-0.0615209221	 1.4185112423	-0.0113739532	-0.333199
N	-0.0260581987	-0.0184861521	 0.1538698342	-0.299856
C	 0.7691651845	-0.6336238978	 1.0589399399	 0.284233
O	 1.5356137598	-0.0960474503	 1.8311479988	-0.357456
C	 0.5751471372	-2.1645867207	 0.9869926567	 0.388436
O	-0.188701082	-2.7016612274	 0.2176971755	-0.380655
O	 1.3450464883	-2.7934902806	 1.865986481	-0.20129
C	 1.2315318375	-4.2245848522	 1.871294896	-0.241877
H	 0.6415522753	 1.8499756735	 0.7025722041	 0.170768
H	 0.2343982547	 1.7080312282	-1.0255906083	 0.132931
H	-1.062999323	 1.8156258256	 0.1871241587	 0.132932
H	-0.6041655911	-0.6228114872	-0.4111327099	 0.268778
H	 0.2077101395	-4.525114385	 2.1071162227	 0.145676
H	 1.5041179345	-4.6324432413	 0.894827092	 0.145674
H	 1.9213717257	-4.5709301749	 2.6396653218	 0.144904
