16
gdb 11758	5.24926	1.3079	1.23948	1.3048	60.41	-0.2552	0.0643	0.3196	989.4902	0.129592	-420.827877	-420.820145	-420.819201	-420.860177	28.844	
O	 0.0196435634	 1.3929342719	-0.3059759843	-0.41109
C	 0.0466217812	 0.0127574022	 0.020174731	-0.179542
C	-1.3235072742	-0.5234218843	 0.28588954	 0.399891
C	-2.2833595147	-0.248592779	 1.4477431297	-0.33966
C	-2.9423101361	-1.6562794932	 1.1610606858	 0.143935
O	-4.2921821281	-1.7045960873	 0.800479997	-0.432405
C	-1.924225697	-1.8436867164	 0.0199292357	-0.095576
O	-2.1648777271	-0.7435054322	-0.8747627397	-0.310803
H	-0.5209789492	 1.4844570677	-1.098453787	 0.29352
H	 0.518391762	-0.5864120242	-0.772862545	 0.100404
H	 0.6619165848	-0.0740579781	 0.9217838893	 0.11718
H	-1.7932010123	-0.2030662616	 2.4232992768	 0.111996
H	-2.9365467299	 0.6173291287	 1.3219010543	 0.11205
H	-2.7999621428	-2.355852607	 1.9879661373	 0.097115
H	-4.3697013435	-1.1834639772	-0.0091479657	 0.288296
H	-1.5122325567	-2.7489332101	-0.4132265353	 0.104691
