20
gdb 79871	2.90376	1.6133	1.38632	0.5215	78.79	-0.2121	0.0912	0.3033	1027.4806	0.171021	-403.081826	-403.073798	-403.072853	-403.113853	31.792	
C	 0.0442925939	 1.507396325	-0.1822249785	-0.332081
N	 0.0276490224	 0.0562419355	 0.0048727312	-0.141313
C	-1.0519485629	-0.5062846002	 0.8839614811	-0.070103
C	-0.1569946228	-1.7591169236	 1.1231361123	-0.097343
C	-0.3992683104	-2.2251877687	 2.546374139	-0.115661
O	-0.5163329793	-0.9634310313	 3.2361823855	-0.284267
C	-0.3487820686	-0.0282383078	 2.1932035056	 0.077765
C	 0.7726236491	-0.497199304	 1.1969159298	 0.314056
C	 2.2647696789	-0.4449466052	 1.3417246654	-0.535534
H	 1.0070933434	 1.795322897	-0.6173345507	 0.120429
H	-0.7336161765	 1.7736269864	-0.9055723012	 0.120994
H	-0.1140548464	 2.1154110482	 0.7220107763	 0.097571
H	-2.1080797171	-0.4760281326	 0.6115271164	 0.076332
H	-0.0157599522	-2.4768286736	 0.3171599908	 0.082285
H	-1.3234057321	-2.8037506948	 2.6670079013	 0.10532
H	 0.4326899732	-2.8047775213	 2.9654356703	 0.104513
H	-0.4213025524	 0.9846811222	 2.5807524062	 0.090389
H	 2.5741136003	-0.928239525	 2.2741836546	 0.131826
H	 2.756298352	-0.9552587866	 0.5070612544	 0.129933
H	 2.6242286573	 0.5894202003	 1.3687968902	 0.124888
