16
gdb 52570	4.00476	0.6426	0.55756	4.0706	79.13	-0.2501	-0.0649	0.1852	1905.2243	0.121229	-437.904477	-437.894139	-437.893195	-437.943922	33.549	
C	 0.0574308563	 1.4385973739	 0.0098499633	-0.505798
C	 0.0260173212	-0.0127049034	 0.0018371237	 0.160406
C	-0.0162285106	-1.2189397273	-0.00464495	-0.011238
C	-0.0427345845	-2.6589308463	-0.0128202884	 0.197084
O	-1.0733328092	-3.3037403892	-0.0037999282	-0.302944
C	 1.3203220263	-3.3344994717	-0.0338827073	-0.225447
N	 1.1506582473	-4.7631536998	-0.0405804619	-0.290638
C	 2.2024556967	-5.616959119	-0.0471324257	 0.152261
O	 3.366734198	-5.2730241282	-0.0518383035	-0.328657
H	 1.0844449246	 1.8169883169	 0.0027568661	 0.164559
H	-0.4614144339	 1.8401069533	-0.8672547103	 0.169273
H	-0.4456005688	 1.8300882719	 0.9005795633	 0.169273
H	 1.8785956539	-2.9853062959	-0.9135200016	 0.153769
H	 1.90050051	-2.9967625404	 0.835962343	 0.154084
H	 0.1957655549	-5.0934612632	-0.031818503	 0.264734
H	 1.8787287279	-6.6762112616	-0.0481422593	 0.079278
