21
gdb 13629	3.66879	1.16664	1.0286	2.2588	75.38	-0.243	0.0713	0.3144	1248.0309	0.187284	-366.241619	-366.231842	-366.230898	-366.276462	35.286	
C	 0.0047468431	 1.5600400833	 0.1696280848	-0.384122
C	-0.1179609468	 0.036251583	 0.2329403712	-0.189055
C	-1.5168663988	-0.4735401941	-0.1337382191	 0.146103
O	-1.9125859175	-0.0619746808	-1.4432116138	-0.434714
C	-1.61149808	-1.9794909265	 0.0078889018	-0.047571
N	-1.8781306814	-2.5106377652	 1.3559966731	-0.342268
C	-2.8731555875	-2.7152315336	 0.2855448906	 0.000967
C	-4.2244274692	-2.0623326235	 0.4489915042	-0.392154
H	 1.0274883452	 1.885719169	 0.3820791608	 0.107116
H	-0.2773707134	 1.9282339421	-0.8203189902	 0.124806
H	-0.6567991479	 2.036902339	 0.9011989839	 0.11608
H	 0.6133060566	-0.42724326	-0.4470665296	 0.076486
H	 0.12321622	-0.3279772618	 1.2386218618	 0.111501
H	-2.2455654367	-0.0090397475	 0.5377920067	 0.09156
H	-1.2910883598	-0.4475284253	-2.0710645249	 0.274112
H	-0.8753580894	-2.5137174575	-0.5980003662	 0.065999
H	-1.3428988135	-3.3583010136	 1.5211702082	 0.228992
H	-2.9177968569	-3.7160421845	-0.1443119971	 0.078338
H	-4.1439966575	-1.1009024514	 0.9598853288	 0.129139
H	-4.6933538249	-1.8965219259	-0.5263053016	 0.124049
H	-4.8875421536	-2.6997141151	 1.0436687667	 0.114636
