16
gdb 88941	2.87197	1.02547	0.80493	3.6349	69.62	-0.2451	-0.0714	0.1736	1372.4329	0.122497	-475.031974	-475.022903	-475.021959	-475.066838	32.207	
O	-0.3617765253	 1.4359660338	-0.3410968506	-0.421044
C	-0.1063993289	 0.0845854652	-0.0839698943	 0.060614
C	-0.5100048451	-0.4972406363	 1.250201369	-0.337282
C	-1.3327163337	-0.7747943177	 0.0029197408	 0.048378
N	-2.584897268	-0.1207246467	-0.1795533489	-0.316325
C	-3.7539950786	-0.7841412356	-0.2925535784	 0.306634
O	-3.9187566716	-1.9895490728	-0.2067738749	-0.369291
C	-4.9415945787	 0.1431639593	-0.5587424427	 0.101023
O	-4.8496415773	 1.3396853866	-0.658650421	-0.24855
H	 0.2085907951	 1.9687984611	 0.2222532567	 0.29843
H	 0.7696026354	-0.3210546525	-0.5874457341	 0.103227
H	 0.0782338427	-1.3050271624	 1.6711422139	 0.126741
H	-0.9428980393	 0.1893930438	 1.9696937754	 0.124265
H	-1.3170124232	-1.7761222322	-0.409979026	 0.133007
H	-2.5887229775	 0.881165082	-0.3227805238	 0.275399
H	-5.8986378361	-0.4081373657	-0.6487953609	 0.114775
