15
gdb 20272	4.61214	2.68511	2.43462	1.0792	61.88	-0.2303	0.059	0.2893	625.1667	0.122472	-362.576272	-362.57153	-362.570586	-362.604812	20.674	
C	-0.0210614817	 1.5270086187	 0.0615785542	-0.184715
C	 1.5149641809	 1.3734928208	 0.0054161749	-0.075852
C	 1.8544932377	 0.61586691	 1.3029756745	 0.082026
O	 2.8795627961	-0.3501596202	 0.9519578341	-0.297222
C	 1.8482945081	-1.0103845039	 0.2073939856	 0.079418
C	 1.2392615518	 0.0412426326	-0.7766697608	-0.026438
N	-0.1075924581	 0.0281230558	-0.0487606937	-0.154918
C	 0.7160144664	-0.4693817231	 1.1047660278	-0.060302
H	-0.4749571886	 1.9605365288	 0.9598734829	 0.102937
H	-0.4555034411	 1.9899610832	-0.8285412789	 0.113755
H	 2.2013713318	 2.1536926032	-0.3218210283	 0.076417
H	 2.0574266914	 1.1638210701	 2.2211299612	 0.086865
H	 2.0614006641	-2.0356684373	-0.0861497915	 0.093189
H	 1.2533748703	-0.0065945145	-1.8635027862	 0.08165
H	 0.232423721	-0.9625399142	 1.9449823739	 0.083191
