15
gdb 123328	4.26566	1.22222	1.03867	2.4661	78.4	-0.2425	0.0213	0.2638	1118.5952	0.114156	-379.614828	-379.60748	-379.606536	-379.647113	27.62	
C	-0.1756800351	-1.282789675	-0.1463070501	-0.454097
C	-0.0747276417	-0.0878601687	-0.0718467625	 0.349634
C	 0.0388036308	 1.3544686433	 0.0216016486	-0.367887
C	-0.2204717637	 1.9986683866	 1.4630095712	-0.179668
N	 1.1547716773	 2.4922474288	 1.355311743	 0.093097
N	 2.1223756399	 3.2264972976	 1.9130833005	-0.305374
C	 3.0889408949	 3.1348916343	 0.9808225469	 0.017293
C	 2.7278395339	 2.3589648891	-0.1562828984	-0.403901
C	 1.4402645762	 1.9688587832	 0.1568771703	 0.400623
H	-0.2577502541	-2.3395187926	-0.2141576397	 0.2065
H	-0.5702748445	 1.8374280432	-0.7492568378	 0.131177
H	-0.9814538117	 2.7822999864	 1.4909225991	 0.138982
H	-0.3777640892	 1.2747421874	 2.264666503	 0.146951
H	 4.031178875	 3.6345660302	 1.1547909852	 0.113999
H	 3.3259568019	 2.1432873662	-1.0248952795	 0.11267
