16
gdb 38111	2.82782	2.36989	1.67244	3.7357	71.5	-0.2412	-0.0186	0.2225	818.7558	0.127724	-400.722085	-400.716208	-400.715264	-400.751978	24.919	
C	 0.0516577676	 1.6258976845	 0.0204478422	-0.171401
N	 1.5157586396	 1.9265652389	-0.0781021269	-0.279794
C	 1.9808571761	 0.864850642	-0.5833407991	 0.378687
O	 3.1458643198	 0.1615357884	-0.3826104299	-0.293159
C	 2.2407194407	-1.0490868591	-0.1937981569	 0.033072
C	 1.6978889317	-1.1499647392	 1.2113045646	-0.074364
C	 0.4988151506	-0.5659573075	 1.3372302802	-0.054041
C	-0.0435435878	 0.0443791893	 0.0500610331	-0.110257
C	 1.0972737165	-0.3001008989	-0.9104305303	-0.158917
H	-0.3277029749	 2.0833846789	 0.9381437622	 0.118604
H	-0.5216098123	 2.0389170946	-0.8200010675	 0.109118
H	 2.7294909558	-1.923743951	-0.6205743626	 0.101333
H	 2.2580981433	-1.6018676974	 2.0207331115	 0.110498
H	-0.0387267377	-0.4830021938	 2.2766445695	 0.108632
H	-1.0404859298	-0.3225179141	-0.2104523381	 0.080589
H	 0.8957978708	-0.5296689256	-1.9538799119	 0.1014
