20
gdb 115065	3.22346	1.31169	1.03545	2.2271	79.51	-0.2317	0.0209	0.2526	1202.2389	0.172339	-403.154919	-403.1466	-403.145656	-403.188014	31.889	
C	 0.0476434425	 1.53134917	-0.0356210531	-0.388268
C	-0.0092647436	 0.0028628371	-0.0967098873	-0.177435
C	-1.415290992	-0.5653715995	 0.0808687842	 0.111563
O	-2.2268959464	-0.0250074199	-0.9894588222	-0.248995
C	-3.3551048336	-0.6905873225	-1.339820563	 0.114394
N	-3.657627737	-1.9019789404	-1.1363001105	-0.25855
C	-2.6897232958	-2.7228664403	-0.4732235836	 0.004815
C	-1.3295505043	-2.9055309658	-1.1213654922	-0.301133
C	-1.4673455054	-2.0777208829	 0.1291992611	-0.062424
H	 1.072142517	 1.889823225	-0.1717240109	 0.113183
H	-0.576116004	 1.9751828065	-0.8153291106	 0.135158
H	-0.3095419416	 1.9021782213	 0.9316911899	 0.112855
H	 0.387925342	-0.3567595725	-1.0529969084	 0.107167
H	 0.62241327	-0.4310269945	 0.6883776912	 0.098411
H	-1.844528677	-0.1823602526	 1.0194193367	 0.085605
H	-4.0267116296	-0.0319521406	-1.8869604227	 0.121995
H	-3.1250494449	-3.585591944	 0.0187360921	 0.095644
H	-0.8501505718	-3.8750250665	-1.0427055244	 0.116162
H	-1.1693636577	-2.3969258774	-2.0661865755	 0.128235
H	-1.0735904568	-2.4946909303	 1.0518754291	 0.091617
