14
gdb 31210	2.38529	1.56453	0.9506	9.0711	72.37	-0.2243	0.0013	0.2256	1154.8651	0.102204	-432.902695	-432.894596	-432.893651	-432.93627	28.657	
C	-0.020809753	 1.4223309004	 0.0098604005	-0.272431
O	-0.0027916336	 0.0011878997	 0.0044512483	-0.245436
C	-1.1738854347	-0.6390230716	 0.011869572	 0.384354
C	-1.410185182	-2.0009799856	 0.0104978335	 0.048715
N	-2.7772015528	-2.2383925298	 0.020253486	-0.294573
C	-3.3412829988	-1.0665184473	 0.0270174834	 0.003556
N	-2.4100994255	-0.0463961926	 0.0221887308	-0.345437
C	-0.4354274901	-3.0265207107	 0.001011607	 0.224771
N	 0.37939545	-3.8498798831	-0.0067707783	-0.357724
H	 1.0221793518	 1.7377202458	 0.0031198808	 0.165893
H	-0.5211913423	 1.8177487449	-0.883478788	 0.133265
H	-0.5076392369	 1.8110706351	 0.9135467614	 0.133325
H	-4.4016754032	-0.8665378243	 0.0354287785	 0.144407
H	-2.602391949	 0.940814049	 0.025740854	 0.277315
