17
gdb 26487	3.64642	1.3131	1.06876	2.0392	74.72	-0.219	0.0228	0.2417	1126.12	0.137051	-418.032519	-418.024561	-418.023617	-418.065241	30.081	
C	-0.3336662339	 1.3307527507	-0.8812834097	-0.465553
C	-0.1003685021	 0.0742798509	-0.0792697666	 0.306694
C	 1.1095480751	-0.7455433641	-0.2965052096	-0.211709
O	 0.9947256285	 0.0918291709	 0.858462761	-0.290744
C	-1.3142063405	-0.5795662988	 0.471178904	 0.315557
N	-2.5107092521	-0.6165153786	-0.0753569021	-0.326356
C	-3.2865850468	-1.3419459118	 0.8000357796	-0.092478
C	-2.549558364	-1.738897173	 1.8850430231	-0.110421
N	-1.2841532993	-1.2474621609	 1.6588412978	-0.278059
H	 0.6082437471	 1.7118251087	-1.2824429863	 0.119999
H	-1.022557887	 1.1190436088	-1.7028666371	 0.153084
H	-0.7895063049	 2.1031943701	-0.2551155323	 0.134745
H	 1.0769626079	-1.8166225636	-0.1041269604	 0.115459
H	 1.8459295819	-0.4242124735	-1.0317976406	 0.120904
H	-4.3295132376	-1.5343420139	 0.5993416136	 0.106924
H	-2.7960332731	-2.2997516997	 2.7709329589	 0.128151
H	-0.4836641692	-1.2767717421	 2.2690505267	 0.273805
