15
gdb 127720	2.07048	1.91996	1.00878	1.1274	75.88	-0.2702	-0.053	0.2172	1120.0738	0.11284	-413.013873	-413.005081	-413.004137	-413.04866	29.832	
C	-0.0287367355	 1.4457144423	 0.0150542411	-0.340445
N	 0.0330620544	-0.0033495753	 0.0742863504	-0.038571
N	 0.1497514044	-0.7315023205	-1.0386821013	-0.126459
N	 0.1821070763	-1.9933336015	-0.7008386284	-0.23576
C	 0.0861328534	-2.1064316669	 0.648630686	 0.200868
C	 0.0928766275	-3.4174594372	 1.3570281193	-0.498602
C	-0.011364284	-0.822920483	 1.1669079897	 0.194344
C	-0.1320554352	-0.3501930496	 2.4894851292	 0.228052
N	-0.2313073186	 0.0405288503	 3.575972348	-0.34679
H	 0.803753486	 1.8847985018	 0.5701566831	 0.16501
H	 0.0376431995	 1.7237494103	-1.0360403088	 0.178087
H	-0.9711497888	 1.8036719602	 0.4366040228	 0.165005
H	 1.018025995	-3.9631007723	 1.1481751004	 0.154983
H	 0.006475029	-3.2799773746	 2.4369732476	 0.145303
H	-0.7386277434	-4.0426176941	 1.017839491	 0.154975
