15
gdb 31372	3.98618	1.16133	0.90461	9.0953	72.16	-0.2257	-0.0188	0.2069	1215.898	0.113514	-453.987937	-453.979822	-453.978877	-454.021715	29.176	
C	-0.0285073436	 1.4332521378	 0.0617983377	-0.275633
O	-0.0150340258	 0.0154095307	-0.0150465988	-0.248672
C	 0.5887138653	-0.6007814725	-1.0488192769	 0.528668
C	 0.650827402	-1.9496677056	-1.1262434522	-0.380721
C	 1.3019864	-2.6104088564	-2.2528073233	 0.390868
O	 1.3825045498	-3.8162344996	-2.3677433911	-0.367388
N	 1.8632687338	-1.7536953697	-3.2524129231	-0.298037
C	 1.7654964755	-0.4894278262	-3.1092973888	 0.091633
N	 1.1544183861	 0.1545095618	-2.0540040436	-0.399577
H	 0.9861214372	 1.8486037303	 0.1127051962	 0.136558
H	-0.5763232186	 1.8823772473	-0.7768629508	 0.135377
H	-0.5515542492	 1.6744564138	 0.9872102022	 0.163981
H	 0.212278883	-2.5526827621	-0.3434377569	 0.121951
H	 2.1829832517	 0.1871481463	-3.8543060239	 0.132865
H	 1.1250114528	 1.1594184642	-2.0372067767	 0.268127
