20
gdb 104323	2.98512	1.28752	1.19823	1.6153	74.04	-0.235	0.0647	0.2997	1127.2058	0.171907	-440.26665	-440.258035	-440.257091	-440.299559	33.858	
O	-0.1311181138	 1.4321034946	 0.10829314	-0.439404
C	-0.0123210985	 0.0142400434	-0.0153240444	-0.142539
C	-1.43438623	-0.5360108699	-0.0352045939	 0.437067
O	-2.1046935881	-0.1369832367	 1.1592037024	-0.499998
C	-2.2409850288	-0.1199906715	-1.2985704616	-0.25358
C	-3.2905208915	-1.2385477059	-1.4970772627	-0.217906
C	-2.6139606628	-2.474352721	-0.9338938362	-0.024676
N	-1.21150327	-2.6270781796	-1.3886096242	-0.354388
C	-1.4991000754	-2.0531851547	-0.0548376802	-0.087861
H	 0.7377074349	 1.7995018705	 0.2914930647	 0.293144
H	 0.5162570921	-0.2707534298	-0.9342951059	 0.107383
H	 0.525428849	-0.4069972239	 0.8469646243	 0.086341
H	-1.8735036297	 0.7928633745	 1.280908063	 0.284002
H	-2.6892699466	 0.8659848118	-1.1639001502	 0.098569
H	-1.5755562215	-0.073899354	-2.1632594263	 0.111508
H	-4.1929225756	-1.0339748229	-0.9108006919	 0.108155
H	-3.5865246886	-1.3512246424	-2.5446434543	 0.096954
H	-3.190474991	-3.3692091786	-0.7229194576	 0.083092
H	-0.9297308741	-3.596966741	-1.2705819756	 0.230147
H	-1.2223193701	-2.5940827829	 0.8439837006	 0.08399
