18
gdb 106089	3.00185	1.3206	1.18109	2.99	76.25	-0.2191	0.0023	0.2215	1121.4887	0.148016	-401.903837	-401.895832	-401.894888	-401.936821	30.438	
C	-0.2833542314	 1.5179112352	 0.0307014946	-0.373698
C	 0.0904779036	 0.0291826634	 0.02775598	-0.331303
C	 0.7722310276	-0.3979778901	-1.2317004333	 0.360859
C	 0.364536177	-0.722676735	-2.6194554204	-0.082976
N	 1.3762617116	 0.1545958154	-3.2221195979	-0.308524
C	 2.1267400019	 0.0281067331	-1.9372592854	-0.209004
C	 2.4971240144	-1.4700731994	-1.7926651463	 0.437721
O	 3.5136471248	-2.0499481216	-1.5266401605	-0.34295
C	 1.0490303936	-1.8351435314	-1.7961410039	-0.283856
H	 0.605814394	 2.1470664822	-0.0752463069	 0.126634
H	-0.9593210721	 1.7554195091	-0.7960340138	 0.128113
H	-0.7790464643	 1.7898847112	 0.9671817387	 0.11735
H	 0.7397935443	-0.1934123426	 0.8839162509	 0.118029
H	-0.8098557297	-0.5829264954	 0.1619227655	 0.111679
H	-0.6235232144	-0.8695914996	-3.0404136288	 0.108796
H	 1.8745735755	-0.265791736	-4.0107744763	 0.216616
H	 2.81433815	 0.8236380713	-1.6590034856	 0.095044
H	 0.5641083534	-2.76057027	-1.5174754504	 0.111472
