18
gdb 38503	3.12329	1.77449	1.59179	1.775	74.07	-0.2414	0.0751	0.3166	911.7278	0.150041	-401.883853	-401.877179	-401.876235	-401.91454	27.947	
C	-0.0015036056	 1.6039014844	 0.0543557241	-0.29372
C	 1.5704213804	 1.5860464787	 0.1612065477	-0.294126
C	 1.516406761	 0.0706620785	-0.1064216922	 0.333031
O	 0.6984923163	-0.5367564376	 0.9014556384	-0.309677
C	 0.0516531111	 0.087698895	-0.2131885767	 0.322719
C	-0.4519060812	-0.871905715	-1.2734827554	-0.321149
C	 0.8643855708	-1.4566192492	-1.8157195452	-0.008575
N	 1.7132165321	-0.4460684272	-2.4846251425	-0.339519
C	 2.0581937474	-0.8846162638	-1.1139016543	-0.177053
H	-0.5620628765	 1.9070015643	 0.9414219555	 0.107536
H	-0.3476811472	 2.1730886859	-0.8110902687	 0.113857
H	 2.0436597983	 2.1356604427	-0.6541116624	 0.120963
H	 2.0120744706	 1.8825729665	 1.1149470345	 0.106793
H	-1.1023354575	-1.6501277038	-0.8618785226	 0.111245
H	-0.9990043497	-0.3458453151	-2.0620544815	 0.114281
H	 0.8843069452	-2.4745927303	-2.1919985183	 0.089586
H	 2.3302294433	-0.908715817	-3.1481368813	 0.233092
H	 2.9572662011	-1.470518797	-0.949584939	 0.090717
