17
gdb 126618	3.45205	1.03742	0.85318	5.4303	69.76	-0.2525	-0.0066	0.2459	1351.464	0.136128	-455.171661	-455.163012	-455.162068	-455.206506	30.483	
C	-0.0358839194	 1.5494069145	 0.0411360181	-0.382811
C	 0.035593936	 0.0208332824	 0.0405185622	-0.17892
C	 0.7101233428	-0.5180573822	-1.2256354888	-0.166392
N	 0.7712988952	-1.9722435874	-1.2636124007	-0.133401
C	 1.7247395361	-2.8154725284	-0.7730781479	 0.065417
N	 1.4442132465	-4.0631865391	-0.9424663553	-0.131899
O	 0.1863819707	-4.0570931466	-1.5984903388	-0.237946
C	-0.2358744478	-2.7707007514	-1.7954335051	 0.516655
O	-1.2607274778	-2.4347163503	-2.3214310931	-0.403825
H	 0.9631493324	 1.9972712811	-0.0019281867	 0.118537
H	-0.604456619	 1.9193810363	-0.8185934384	 0.129213
H	-0.5257774114	 1.9166331733	 0.9468514089	 0.127428
H	 0.5855800174	-0.332977998	 0.9211574346	 0.10465
H	-0.9714607057	-0.4056369075	 0.1028555746	 0.133049
H	 0.1486534992	-0.2104816734	-2.1124904819	 0.15185
H	 1.7297198965	-0.1307173244	-1.3224465925	 0.122161
H	 2.6337159784	-2.4798328187	-0.2954838993	 0.166232
