22
gdb 22167	5.30737	0.5036	0.48709	1.117	84.18	-0.2402	0.0162	0.2564	2281.7722	0.190552	-441.440803	-441.429311	-441.428367	-441.479225	39.273	
C	-0.013939072	 1.3945565666	 0.0111934756	-0.227979
O	-0.0008436698	-0.0116160087	 0.0025786452	-0.230821
C	 0.6341978513	-0.5487678731	-1.1361550197	-0.046433
C	 0.5854487672	-2.0682305971	-1.0482562445	-0.20012
C	 1.2738317434	-2.7420087387	-2.2483526683	-0.279494
C	 1.265011586	-4.2460631294	-2.1623193292	 0.361315
C	 2.029954044	-4.9410507959	-1.0670835855	-0.470202
N	 0.5805855911	-4.8569167631	-3.0531808304	-0.166646
O	 0.6192385635	-6.2517327307	-2.8732034388	-0.401626
H	 1.0050200897	 1.8145004584	 0.0080263505	 0.101505
H	-0.5538184965	 1.8053105784	-0.8572207631	 0.102712
H	-0.5226952876	 1.7126171024	 0.9245690964	 0.126302
H	 0.1334519548	-0.2006885442	-2.0569784468	 0.08561
H	 1.6815712846	-0.2008029079	-1.1922901999	 0.081177
H	 1.05879832	-2.3756407986	-0.1088648261	 0.109814
H	-0.4609891079	-2.3881299591	-0.995358671	 0.117469
H	 0.7789793813	-2.4487892874	-3.1790608802	 0.116267
H	 2.3158378519	-2.3957872475	-2.306572416	 0.102914
H	 1.3458682928	-5.343718322	-0.3115111968	 0.146911
H	 2.5823590953	-5.7922011224	-1.4736375087	 0.148747
H	 2.7241027031	-4.258599298	-0.5719166269	 0.117949
H	 0.0986123137	-6.563575782	-3.620498236	 0.304628
