15
gdb 18607	3.04493	2.39731	1.84453	4.3519	66.67	-0.2469	-0.0518	0.1952	767.8341	0.119863	-362.674218	-362.667556	-362.666612	-362.704872	25.575	
C	-0.0861146829	 1.5450822093	 0.0835964758	-0.421945
C	 0.0004502808	 0.0504965854	-0.0920139451	 0.009438
C	 0.7034687822	-0.6594512826	-1.2248393566	-0.102232
C	 1.7032869804	 0.0469687137	-2.0623199376	-0.080666
C	 2.741539501	 0.429010847	-1.3060025315	-0.180978
C	 2.4604102646	 0.0842782325	 0.1138744646	 0.359732
O	 3.0710867352	 0.4055879812	 1.100449369	-0.330083
N	 1.2491964985	-0.7090090486	 0.1356572667	-0.137981
H	 0.711056174	 2.0773974685	-0.4383968168	 0.136079
H	-1.0483913082	 1.9038505312	-0.294534124	 0.126313
H	-0.0245953298	 1.7994996166	 1.146608393	 0.148706
H	-0.8642049036	-0.4845640969	 0.2986177613	 0.111048
H	 0.2576207933	-1.5739027097	-1.6089995728	 0.111132
H	 1.5907861773	 0.1871845017	-3.1304216202	 0.124604
H	 3.6164608872	 0.9895764006	-1.605981786	 0.12683
