16
gdb 105135	2.55906	1.24565	1.00879	3.3943	77.87	-0.2638	0.0022	0.2661	1206.9663	0.121289	-400.696227	-400.686858	-400.685914	-400.73049	33.64	
C	 0.0510742355	 1.319637961	-0.2418933642	-0.261472
O	-0.0617917186	-0.0044560561	 0.2698826758	-0.262652
C	-1.3087271282	-0.5732903251	 0.0961331699	 0.287065
C	-1.6631922018	-1.1744199208	-1.2481318396	-0.339718
C	-1.3358752261	-2.0925124787	-0.0838321022	-0.290976
C	-0.1087447403	-2.8290253472	-0.0487864178	 0.343558
C	 0.902731168	-3.4766942227	-0.0149240416	-0.420944
C	-2.3742543341	 0.0181365269	 0.8837455104	 0.250587
N	-3.2161524633	 0.506955163	 1.508218624	-0.346542
H	 1.0817864355	 1.6289434004	-0.0632177984	 0.143118
H	-0.1586496373	 1.349791454	-1.3191527145	 0.117915
H	-0.6299359992	 2.007058968	 0.2755001199	 0.138748
H	-2.6904344825	-1.1290773461	-1.5889537321	 0.144684
H	-0.9021139875	-1.0716242533	-2.0122998454	 0.147584
H	-2.1848660929	-2.5836665532	 0.3818280985	 0.145484
H	 1.8022230529	-4.0399556002	 0.0201378273	 0.203561
