15
gdb 106101	3.062	1.32282	1.17462	3.7239	65.35	-0.2343	-0.0109	0.2234	1059.407	0.111695	-457.694842	-457.687248	-457.686304	-457.72739	28.474	
O	 0.2331217552	 1.3656576099	 0.1235703411	-0.400763
C	 0.0580013462	-0.0256192256	-0.0759065773	-0.209951
C	-1.3782736462	-0.4356893141	-0.0477310881	 0.25863
C	-2.4149313014	-0.732517445	 0.9713831	 0.031604
O	-3.4473640702	 0.0414979524	 0.3598704478	-0.285033
C	-2.6682222983	-0.0304293875	-0.8669874127	-0.125913
C	-2.7365574654	-1.5309994917	-1.2507816195	 0.475231
O	-3.004360558	-2.1285963145	-2.2518760734	-0.329342
C	-2.0250890954	-1.8706114658	 0.0256126325	-0.305905
H	-0.1556383262	 1.5947254465	 0.9744558973	 0.289153
H	 0.4922946105	-0.2417695755	-1.057693819	 0.133591
H	 0.6152292177	-0.6239335048	 0.6626622238	 0.102574
H	-2.3867728096	-0.8259066068	 2.0500556491	 0.126982
H	-2.8174261922	 0.793626395	-1.5582878017	 0.116478
H	-1.5643506367	-2.7947478224	 0.3456624001	 0.122665
