20
gdb 112445	2.10767	1.56015	1.01101	2.9282	77.02	-0.261	0.0308	0.2917	1230.971	0.170914	-440.313375	-440.304176	-440.303232	-440.347508	33.873	
C	 0.1674077875	 1.3200112493	-0.2239170704	-0.24431
O	 0.1138092382	-0.0931244736	-0.114038868	-0.234979
C	-1.1748993882	-0.6104474417	-0.0411612922	 0.2012
O	-1.8875284869	-0.3977488966	-1.2694998538	-0.244416
C	-1.7566340567	-1.4948410797	-2.0916004936	 0.408141
N	-2.2240872754	-1.5671731263	-3.2599244212	-0.543352
C	-0.9983249527	-2.5751729544	-1.3560159856	-0.312175
C	-1.1085247398	-2.13900207	 0.1143383883	-0.022438
C	-0.0158767228	-2.6493446646	 1.0476378722	-0.410456
H	 1.2227292366	 1.5989243792	-0.2184816556	 0.132305
H	-0.2977115229	 1.6672520494	-1.1531551943	 0.13206
H	-0.3365835256	 1.8021535649	 0.626720337	 0.110527
H	-1.7560732188	-0.0955984207	 0.7361994067	 0.075205
H	-2.6850950518	-0.6918836479	-3.515614267	 0.219941
H	-1.4120232383	-3.5608205432	-1.5705437668	 0.132943
H	 0.0473888593	-2.5683012128	-1.6833480955	 0.137402
H	-2.0891289429	-2.4506953859	 0.4935825249	 0.09082
H	 0.9701775047	-2.3289535759	 0.7041673452	 0.137485
H	-0.1562469254	-2.2733576764	 2.066308314	 0.116333
H	-0.0312549382	-3.7427169029	 1.0909901159	 0.117764
