20
gdb 117460	5.36069	0.55859	0.5181	2.1285	79.11	-0.2596	-0.0294	0.2302	2096.7609	0.168035	-440.308026	-440.297392	-440.296447	-440.345749	36.095	
C	 0.0945032638	 1.550672048	-0.2358702887	-0.390024
C	-0.035360495	 0.0519750947	-0.0400682434	-0.030304
O	 0.6560919966	-0.5869618703	-1.1264502278	-0.249716
C	 0.6752923923	-1.9329279912	-1.1281803972	 0.407329
N	 0.101221219	-2.6055009405	-0.2180872337	-0.52991
C	 1.457608357	-2.4137085983	-2.3363385179	-0.292855
C	 1.5403154259	-3.9369238525	-2.4812303432	-0.298262
C	 2.2003796112	-4.3340729853	-3.7843526652	 0.159691
O	 3.1485182822	-5.0674969871	-3.8809032156	-0.231851
H	 1.1446927531	 1.8562484697	-0.2306693263	 0.127277
H	-0.3488197728	 1.8614615728	-1.1862839539	 0.126505
H	-0.4213225773	 2.0765593852	 0.5730219925	 0.121724
H	 0.4039804129	-0.2800033971	 0.9062640423	 0.120809
H	-1.0804550674	-0.2748517574	-0.0413184072	 0.119317
H	 0.2186682703	-3.6048682738	-0.3640194761	 0.224964
H	 0.9970902544	-1.9680909616	-3.2268858965	 0.133065
H	 2.4629722795	-1.9807025058	-2.2771987807	 0.142773
H	 2.0918805097	-4.3984645327	-1.6577448727	 0.133846
H	 0.5231650006	-4.3553540942	-2.4940348537	 0.130182
H	 1.727973154	-3.8844837324	-4.6897951649	 0.075439
