18
gdb 47075	2.98012	1.55253	1.06909	3.276	80.24	-0.2301	-0.055	0.1751	1106.7638	0.150295	-401.974422	-401.967066	-401.966122	-402.006313	28.863	
O	 0.0467545292	 0.0490702966	 0.4156191305	-0.31803
C	 0.0102403673	 1.2209605172	 0.1268206874	 0.306463
C	-1.2639696521	 2.0755559285	-0.0416589279	-0.279846
N	-0.7932581449	 3.4718582767	-0.0239752326	-0.330335
C	 0.5564272472	 3.4701325203	-0.6102762813	-0.044758
C	 1.5865206633	 4.4990569831	-0.0990183865	-0.236471
C	 2.9038152764	 3.6728260795	 0.0281521863	-0.252923
C	 2.4006257211	 2.2605491014	 0.2468447832	-0.200663
C	 1.1192242802	 2.1649978744	-0.1127283054	 0.259713
H	-1.7364455852	 1.7691340491	-0.9929381945	 0.110813
H	-1.9791090367	 1.8697394953	 0.7605624977	 0.131675
H	-1.4290876846	 4.0847393093	-0.5208092497	 0.220901
H	 0.5288267147	 3.4780352419	-1.7173057722	 0.063666
H	 1.6957206416	 5.3763830515	-0.7417891245	 0.095462
H	 1.2660737495	 4.8349396772	 0.8920877305	 0.117742
H	 3.5087590807	 3.7330860469	-0.8884595596	 0.118819
H	 3.5495420023	 4.0183183678	 0.8423048256	 0.115735
H	 2.9973244001	 1.4644538632	 0.6772564532	 0.122037
