22
gdb 94617	3.45202	0.92944	0.80449	1.5397	82.67	-0.2356	0.0838	0.3194	1489.7968	0.193766	-404.29473	-404.285316	-404.284372	-404.330088	34.48	
C	-0.4754037981	 1.3896651994	-0.1513429444	-0.402428
C	 0.1685881293	 0.0183262595	-0.0719373159	 0.143206
O	 1.4828724063	-0.0099029295	-0.679765434	-0.29247
C	 2.0595086209	-0.6467310025	 0.4766757136	-0.079117
C	 0.7399438912	-0.5232962798	 1.2707212247	-0.051345
C	 0.7345860112	 0.404471212	 2.4801563875	-0.167492
N	 1.2789362252	-0.274857115	 3.6527115293	-0.065432
C	 2.70257922	-0.0940173926	 3.9264369396	-0.22052
C	 1.6738291726	 0.5744377848	 4.7692160494	-0.221385
H	 0.1386680176	 2.1542409396	 0.331464107	 0.119638
H	-0.6027004108	 1.6719768481	-1.2012702852	 0.126683
H	-1.4651876121	 1.3824001143	 0.3180540696	 0.115538
H	-0.4881106355	-0.7173113392	-0.5598357108	 0.070597
H	 2.3815528257	-1.674324172	 0.2638274495	 0.097811
H	 2.916978239	-0.0830113662	 0.8646753957	 0.095286
H	 0.3119177767	-1.4810702004	 1.5739535373	 0.086854
H	 1.2811725934	 1.3383314995	 2.2547229618	 0.083954
H	-0.2986975104	 0.6873541499	 2.7174607325	 0.105192
H	 3.2319772626	-0.9711156399	 4.2873385154	 0.118042
H	 3.2784801887	 0.5424441768	 3.2565329557	 0.111357
H	 1.5659692135	 1.6523294734	 4.6551355976	 0.108537
H	 1.4355237331	 0.1954787099	 5.7589681238	 0.117496
