19
gdb 126803	2.91628	1.27119	0.96628	1.1626	79.3	-0.1994	0.0271	0.2266	1252.7557	0.158944	-419.233702	-419.223995	-419.223051	-419.268797	34.527	
C	-0.092135832	 1.5600798566	-0.0418356353	-0.376825
C	 0.0211867776	 0.0337687992	-0.0477878474	-0.140192
N	 0.7564001315	-0.4726781192	-1.1932335383	-0.016115
N	 0.109544545	-0.6419095714	-2.3591945352	-0.273715
C	 1.048166077	-1.0303985011	-3.2237180312	-0.115384
C	 2.3076016323	-1.1025204677	-2.599766387	 0.147061
O	 3.5248252947	-1.4604407362	-3.1072141096	-0.452565
C	 2.0972721006	-0.7321932035	-1.2834530779	 0.297283
C	 3.0676021491	-0.6319925551	-0.1550989666	-0.518746
H	 0.8939328086	 2.0308857367	 0.0160813979	 0.123855
H	-0.5834816266	 1.9024760479	-0.9561032418	 0.144405
H	-0.6821083135	 1.8928991932	 0.8178480665	 0.117555
H	 0.518427464	-0.3232622879	 0.8587436684	 0.116885
H	-0.9715729053	-0.4211809247	-0.086518263	 0.133396
H	 0.7858524415	-1.250480633	-4.2490394723	 0.09928
H	 3.4176489667	-1.6784531043	-4.0372457804	 0.298155
H	 3.1260209911	 0.3806618233	 0.2612065372	 0.130975
H	 2.8213574659	-1.3129720762	 0.6686438559	 0.132252
H	 4.0616326719	-0.8994273167	-0.52047462	 0.152439
