20
gdb 90953	2.8476	1.68875	1.53951	1.5089	76.29	-0.22	0.0664	0.2864	959.2737	0.174777	-403.144366	-403.137249	-403.136305	-403.175595	29.643	
O	 0.2875514945	 1.1917873422	-0.6086792701	-0.447984
C	 0.0535719581	-0.0808320387	-0.0217551209	 0.137777
C	 0.7142242967	-0.2287764753	 1.3809815408	-0.193656
N	-0.1570564331	-0.7170377188	 2.4565823999	-0.102787
C	-1.2119164723	-1.6761985063	 2.130810611	-0.028095
C	-1.5344197236	-1.8692922319	 0.6550572102	-0.24504
C	-1.4390644612	-0.4285545394	 0.1056910587	-0.054665
C	-2.0682260808	 0.4219664806	 1.2315005014	-0.249846
C	-1.5479314913	-0.2612484846	 2.4876577789	-0.027226
H	-0.0434486225	 1.8674864355	-0.0074648406	 0.275848
H	 0.5138977904	-0.78064753	-0.7274169449	 0.085164
H	 1.578680468	-0.8986291716	 1.3331686405	 0.113171
H	 1.1017665929	 0.7501974636	 1.6875552758	 0.105112
H	-1.3263993897	-2.5060584226	 2.8223889017	 0.084659
H	-0.849278624	-2.557304031	 0.1463361358	 0.10057
H	-2.5469606428	-2.2757127529	 0.5473166246	 0.102064
H	-1.9298937029	-0.2951621184	-0.8605619307	 0.074839
H	-1.7995885064	 1.4839810061	 1.1683371134	 0.082307
H	-3.1630549155	 0.3755305322	 1.2050207293	 0.104847
H	-1.9284926947	 0.0323429514	 3.4621608351	 0.08294
