17
gdb 49774	1.90467	1.78898	1.01246	3.011	79.92	-0.2391	-0.0305	0.2086	1156.6901	0.134674	-384.672961	-384.664374	-384.66343	-384.706803	31.685	
O	-0.5575791868	 0.416536084	-0.45679278	-0.251476
C	-0.1768443285	 1.542783293	-0.2760787362	 0.168774
C	 1.2489970745	 1.9128986773	 0.1184894668	-0.133072
C	 1.9251761877	 2.5683808296	-1.0695647761	-0.092324
C	 2.0466385215	 3.8866621721	-0.9208985669	-0.064361
C	 1.5196632178	 4.3710025715	 0.4058791045	-0.265312
C	 1.3244281792	 3.0425892937	 1.20472	-0.194063
C	 0.2157016882	 3.0608103988	 2.1487732682	 0.304865
C	-0.7038109786	 3.0766795689	 2.9232419827	-0.446894
H	-0.8475592554	 2.4161191338	-0.4348621961	 0.083681
H	 1.7407795568	 0.992899112	 0.4462757753	 0.101801
H	 2.206517694	 1.9991043965	-1.9476877921	 0.11415
H	 2.4606408946	 4.5602897175	-1.6629930435	 0.106515
H	 2.202840277	 5.0531820944	 0.922314001	 0.118587
H	 0.5718944274	 4.9103448587	 0.2876990994	 0.126171
H	 2.2498296614	 2.8598949856	 1.7628460854	 0.122474
H	-1.5145799307	 3.085095253	 3.6090807177	 0.200485
