17
gdb 70108	2.5154	1.64228	1.2772	1.9976	77.8	-0.2494	-0.0057	0.2437	1034.9791	0.135465	-380.818629	-380.810477	-380.809533	-380.851117	31.354	
C	-0.0386240009	 1.4939405352	 0.0118181751	-0.48588
C	 0.0287165825	-0.0099265902	 0.0255258529	 0.326625
C	 0.3514435003	-0.7701460529	 1.2544629519	-0.287111
N	 1.353688096	-0.6653854987	 0.149751321	-0.161121
C	 1.2329353205	-1.7832208492	-0.7271703561	 0.034174
N	 0.1840506091	-1.9225510132	-1.4323751788	-0.198367
C	-0.7154252234	-0.7906323841	-1.084609673	-0.233081
C	-2.0521346198	-1.2419287299	-0.7141778386	 0.35534
C	-3.1547641099	-1.5869866523	-0.3845575902	-0.4602
H	 0.6264648312	 1.9223684551	 0.7657735744	 0.131981
H	 0.2546866298	 1.8888085894	-0.9667482805	 0.128127
H	-1.0597376435	 1.8297098515	 0.2219986068	 0.134539
H	 0.6266201277	-0.234823419	 2.1579834707	 0.125549
H	-0.1190556325	-1.7372523848	 1.4076131706	 0.138786
H	 2.0689695595	-2.4753287055	-0.7798797734	 0.131859
H	-0.7991908851	-0.1482823503	-1.9727694033	 0.118171
H	-4.1301495715	-1.900161641	-0.1045026394	 0.200609
