14
gdb 11096	6.3518	1.15421	1.08765	4.1785	63.	-0.2617	-0.0492	0.2125	1041.6401	0.107399	-378.714913	-378.70746	-378.706516	-378.747339	26.116	
O	-0.1566828177	 0.0505176492	 0.0007351156	-0.24483
C	 0.0222625916	 1.2262635132	-0.1962552914	 0.14773
C	 1.3429443157	 1.9210419356	 0.0521511046	-0.055856
C	 1.3576175554	 2.7382155515	 1.3812212142	-0.270702
C	 2.1763886385	 1.5445611148	 1.9580317568	-0.108576
N	 2.4079211731	 1.051336102	 0.5771649785	-0.30538
C	 3.3873870408	 1.8668586805	 2.7128731951	 0.298794
N	 4.3309773441	 2.1365962895	 3.3228426604	-0.316536
H	-0.7912838241	 1.8835185248	-0.5766213099	 0.091845
H	 1.6138599628	 2.4863857549	-0.8493639474	 0.110427
H	 1.9357432074	 3.6582759835	 1.3076845804	 0.148047
H	 0.3991907595	 2.9398676638	 1.860232814	 0.131637
H	 1.5522105018	 0.8824016523	 2.5702758284	 0.13124
H	 2.1990326012	 0.0632222044	 0.4587175108	 0.24216
