15
gdb 10475	3.31197	1.29255	1.00201	2.2474	77.91	-0.2332	0.0182	0.2513	1175.9833	0.116267	-325.434915	-325.426038	-325.425093	-325.469848	31.09	
C	-0.019117283	 1.4489040302	 0.0085911431	-0.501538
C	 0.0067868677	-0.0059026872	 0.0169577347	 0.074894
C	 0.0370913661	-1.2101265389	 0.0222533596	 0.011896
C	 0.0621729634	-2.6527291401	 0.0091527345	 0.004786
C	-0.5316320451	-3.3736387327	 1.1921752432	-0.258097
N	-1.2445371662	-3.3786765307	-0.0799623675	-0.337344
C	 1.1545488916	-3.260886456	-0.7136689715	 0.300075
C	 2.0789675255	-3.7606940495	-1.2954931406	-0.455502
H	 0.8972903023	 1.8519793314	-0.4359638222	 0.156813
H	-0.8650138241	 1.8296419682	-0.5743462061	 0.151626
H	-0.1025969576	 1.8540753874	 1.0229852043	 0.150498
H	-0.1000274271	-4.3276606651	 1.4788044277	 0.13586
H	-0.8928704415	-2.755344544	 2.0086989885	 0.126395
H	-1.9867582211	-2.6823815022	-0.0653382129	 0.242954
H	 2.8897404791	-4.2031169607	-1.8192067848	 0.196684
