17
gdb 89671	2.84561	1.33439	1.09897	5.9645	75.44	-0.2384	0.0006	0.239	1138.1272	0.135071	-417.97611	-417.967381	-417.966437	-418.009186	32.952	
C	-0.0782962348	 1.528807223	-0.0468578711	-0.418262
C	 0.1218140331	 0.0313477639	 0.0236619344	 0.099445
O	 1.22881743	-0.455181729	-0.8001354248	-0.332636
C	 1.7553845877	-1.2088006707	 0.2897161631	 0.322621
C	 2.17973469	-0.2871388897	 1.4021678695	-0.369906
C	 0.7190001945	-0.6382663237	 1.2743872321	 0.173996
N	 0.0440949076	-1.278498597	 2.3337510577	-0.58569
C	 2.2383463581	-2.5299795931	 0.0692714694	 0.220916
N	 2.6224868876	-3.609035053	-0.0979903966	-0.352481
H	 0.8118718482	 2.069278054	 0.2851151922	 0.126587
H	-0.3017713272	 1.8340763254	-1.0736343117	 0.140018
H	-0.9236181032	 1.8231711709	 0.5844694527	 0.122662
H	-0.7933900005	-0.4971334562	-0.2796503039	 0.08867
H	 2.6626793097	-0.7743290936	 2.2423571575	 0.148457
H	 2.5645760461	 0.6912714128	 1.1319185659	 0.129084
H	-0.1425741462	-0.6506547159	 3.1078070301	 0.243733
H	-0.8258199207	-1.707455728	 2.0387774636	 0.242785
