22
gdb 60001	3.84939	0.81389	0.73849	3.1383	79.01	-0.2326	0.056	0.2886	1604.3903	0.193651	-441.459626	-441.449657	-441.448713	-441.494718	37.438	
C	-0.0732006898	 1.555960182	 0.1509157576	-0.407063
C	-0.0298000564	 0.0327520767	 0.0781267079	 0.116938
O	 0.7274357162	-0.5044833208	 1.1824872426	-0.432205
C	-1.4233920211	-0.6027218864	-0.0050948818	-0.217376
C	-1.4010071727	-2.1300442136	-0.1959420315	 0.094839
O	-0.795135567	-2.7897242212	 0.9031941653	-0.45471
C	-2.807048529	-2.6829697094	-0.3555372242	 0.014876
C	-3.1083860394	-4.0918321327	-0.0180833484	-0.248413
N	-3.6018748237	-2.9948658809	 0.8420364513	-0.327856
H	 0.9377915977	 1.9629621726	 0.2389236476	 0.129203
H	-0.5419194749	 1.9779025966	-0.7432246071	 0.126089
H	-0.6568789527	 1.8880021857	 1.0186683044	 0.114042
H	 0.5499750549	-0.269747676	-0.802718516	 0.098812
H	 0.3478747963	-0.1482069532	 1.9948279891	 0.286226
H	-1.9933172619	-0.3616100329	 0.9030491613	 0.099327
H	-1.9626669052	-0.150068017	-0.8463280947	 0.102299
H	-0.841673813	-2.3470414807	-1.1249982663	 0.065564
H	-0.0295904681	-2.2526834794	 1.1590047489	 0.290826
H	-3.3747324923	-2.2070666288	-1.1535544576	 0.080211
H	-3.8787112764	-4.6265212314	-0.5667133458	 0.108217
H	-2.2920664089	-4.7004590896	 0.3566115145	 0.12685
H	-2.9697694626	-2.9344999098	 1.639419663	 0.233306
