25
gdb 101018	2.50663	0.95308	0.92988	1.483	88.79	-0.2511	0.0759	0.327	1494.3235	0.227298	-389.480032	-389.468982	-389.468037	-389.516017	41.109	
C	-0.1816468994	 1.6087312593	-0.2141703118	-0.391752
C	-0.0966953778	 0.0800882379	-0.1424991936	-0.174902
C	 0.8782433365	-0.5486462315	-1.1605270697	-0.037197
C	 2.3446699009	-0.1877640246	-0.8666258612	-0.405886
C	 0.672243891	-2.0604614066	-1.3017066897	 0.379839
C	 0.9480528382	-2.8830182079	-0.0534345344	-0.160813
O	 0.7253322538	-4.2593480289	-0.3341655711	-0.421868
C	-0.438055687	-2.5229715597	-2.2124869018	-0.311987
C	 1.0054641337	-2.6801744708	-2.636196512	-0.3161
H	 0.7735246833	 2.0851844769	 0.0276428883	 0.116791
H	-0.4727313146	 1.94020656	-1.217548456	 0.112562
H	-0.9261375847	 1.9930613271	 0.4902735072	 0.110493
H	 0.1901280406	-0.2154418812	 0.8752338091	 0.09142
H	-1.094966517	-0.3410683259	-0.3138051532	 0.098208
H	 0.6304432368	-0.1226813693	-2.1433135559	 0.065401
H	 2.6419796647	-0.4892962295	 0.1440172564	 0.110963
H	 3.0164036189	-0.6832690609	-1.574546482	 0.116601
H	 2.5143015298	 0.8898532316	-0.9469568714	 0.112328
H	 1.9869558118	-2.7215846764	 0.2745612516	 0.086426
H	 0.2904521591	-2.5468918703	 0.7636098974	 0.08654
H	 0.9034013164	-4.7583362858	 0.4672886728	 0.288802
H	-0.9727858848	-3.4249202339	-1.9406820676	 0.123297
H	-1.0395491573	-1.7644892678	-2.7035714927	 0.098405
H	 1.3872203733	-2.0282491881	-3.4155858089	 0.09868
H	 1.4113023537	-3.6843410139	-2.64008789	 0.123749
