16
gdb 10259	2.27081	2.1261	1.14555	3.8985	71.46	-0.2414	-0.0023	0.2391	1020.9438	0.127869	-342.733807	-342.724837	-342.723893	-342.767185	32.034	
C	 0.0343229342	 1.4741971268	 0.0182116815	-0.329678
N	 0.0254505542	 0.0150311552	 0.0221397661	-0.067472
C	 0.6955529397	-0.5113162927	 1.2075473529	-0.336902
C	-1.3381621287	-0.5168485416	-0.1066419819	-0.264466
C	-2.0316839063	-0.0184846507	-1.300227709	 0.315713
C	-2.6327248497	 0.3762851425	-2.260669387	-0.392088
C	-1.3136784806	-1.9956309007	-0.1564099276	 0.305482
N	-1.3174823449	-3.1499724963	-0.174518902	-0.325964
H	 1.0714542807	 1.8167870987	 0.0579483508	 0.129479
H	-0.4192070414	 1.851490178	-0.8996821443	 0.14369
H	-0.5040293644	 1.9107399559	 0.8806484525	 0.09749
H	 0.1952466603	-0.2190822207	 2.1501846806	 0.098969
H	 0.7433747325	-1.6016844462	 1.1649614923	 0.15439
H	 1.7178397255	-0.1259654748	 1.2325760575	 0.13045
H	-1.9571391491	-0.251234645	 0.7773888161	 0.129489
H	-3.1573313321	 0.7228113619	-3.1172884984	 0.211418
