18
gdb 14883	4.58218	1.40891	1.12649	0.9798	83.24	-0.2224	-0.0097	0.2127	1064.368	0.15491	-310.665298	-310.657683	-310.656739	-310.696968	29.64	
C	 0.0890474288	-1.2254205184	 0.0037320557	-0.416909
C	-0.0128584229	-0.0242929603	 0.0028674273	 0.222171
C	-0.0642332302	 1.3987837907	 0.0009636963	 0.143161
C	-1.2369995331	 2.0542378213	 0.0208652629	-0.128646
C	-1.3634679089	 3.5519424121	 0.0549062948	-0.24196
C	-0.0379252092	 4.246898905	 0.3960923656	-0.198862
C	 1.1200555359	 3.6097904877	-0.3796998078	-0.205174
C	 1.2707598434	 2.1263222595	-0.0196056214	-0.289619
H	 0.1591904602	-2.2846391828	 0.0060221758	 0.189424
H	-2.1579292802	 1.477563246	 0.0132942121	 0.090685
H	-1.7343829755	 3.9032016319	-0.9205905115	 0.112188
H	-2.1415452359	 3.834807714	 0.775527249	 0.106811
H	-0.1075907504	 5.3183059633	 0.1814417132	 0.092971
H	 0.1542074022	 4.1515086855	 1.4725653103	 0.101005
H	 0.9279148801	 3.7039940586	-1.4564524402	 0.100654
H	 2.0584763867	 4.1377173499	-0.1800146826	 0.093998
H	 1.7479727816	 2.0186492611	 0.9644784593	 0.114909
H	 1.9392410374	 1.6245327649	-0.7278873187	 0.113195
