23
gdb 102101	2.18011	1.13189	0.85077	2.5989	86.73	-0.2405	-0.017	0.2235	1471.866	0.203164	-388.295766	-388.284996	-388.284051	-388.332529	38.486	
C	 0.144613611	 1.5613896064	-0.1482129355	-0.394148
C	 0.1517565465	 0.036556087	-0.0050532291	-0.190462
C	 0.6550628974	-0.4563534913	 1.36848026	-0.080469
C	-0.3207096886	-0.0497294818	 2.4576995685	 0.174433
O	-0.0708823608	 0.660800847	 3.3970778926	-0.25972
C	 0.7972692187	-1.9731478541	 1.3892813908	-0.010704
C	 2.0646006455	-2.6414244485	 0.9058101463	-0.30917
C	 1.6890302487	-2.7099935601	 2.3666323241	-0.00284
C	 2.5176119458	-2.0071607327	 3.4214277165	-0.410403
H	 1.1519203758	 1.9730721686	-0.0242289929	 0.121444
H	-0.2198413585	 1.8600457127	-1.1356712298	 0.11563
H	-0.496346861	 2.036718908	 0.6017201753	 0.12856
H	-0.8584176313	-0.3597704598	-0.177430899	 0.098186
H	 0.7873893168	-0.4111327727	-0.7773807755	 0.108258
H	 1.6122777291	 0.0221453534	 1.5984667584	 0.087504
H	-1.3422151288	-0.4850276744	 2.3259065123	 0.06565
H	-0.1270697779	-2.4874568147	 1.132614128	 0.083273
H	 1.9839061922	-3.5320710097	 0.2921231698	 0.111519
H	 2.8951911924	-1.9939646773	 0.6395159923	 0.1108
H	 1.2910339343	-3.6667910901	 2.6959171606	 0.084705
H	 2.9700729692	-1.0866892952	 3.0424254608	 0.120925
H	 1.9144660019	-1.7404227382	 4.2954690626	 0.130814
H	 3.3330400318	-2.6555183123	 3.7600613827	 0.116213
