18
gdb 117528	2.27483	1.05975	0.75684	3.5501	74.97	-0.2504	0.0188	0.2692	1463.1625	0.145121	-439.079113	-439.0687	-439.067756	-439.115589	37.186	
N	-0.0522688748	 1.3841185974	 0.3369149639	-0.52695
C	 0.1078349671	 0.1005614171	-0.0769369551	 0.420678
O	 1.1578607314	-0.3353634352	-0.5063604303	-0.359912
C	-1.1798865374	-0.7682207798	-0.0374790561	-0.302546
C	-0.8383227571	-2.2788240572	-0.0288289721	-0.194756
C	-0.4667472966	-2.8186028121	-1.4145692551	-0.077633
O	-0.2092517022	-4.2139751236	-1.3824112895	-0.42147
C	-2.0698857289	-0.3952369462	 1.0584510908	 0.289635
C	-2.7928566888	-0.0844623194	 1.9685590423	-0.432957
H	 0.7677601429	 1.9674746082	 0.3758073612	 0.263357
H	-0.8711808494	 1.6553024867	 0.8555740282	 0.268171
H	-1.7019415007	-0.5404277124	-0.9803251841	 0.137016
H	-0.0099958208	-2.4497366907	 0.667006123	 0.109895
H	-1.7012369301	-2.8382152508	 0.3426474465	 0.115072
H	-1.3154625388	-2.6885751565	-2.0976205891	 0.102249
H	 0.3817690126	-2.2554494623	-1.8182451572	 0.124101
H	 0.6420371446	-4.341422146	-0.9522327861	 0.28411
H	-3.4400291429	 0.171300563	 2.7710459487	 0.201939
