18
gdb 103451	2.6669	1.50776	1.26204	2.2865	70.65	-0.2364	0.0109	0.2473	1059.1308	0.147198	-439.07403	-439.06563	-439.064686	-439.107334	31.835	
C	 0.0965818924	 1.431104361	-0.34261226	-0.394383
C	 0.0122116593	 0.0183175334	 0.249028043	-0.244716
C	-1.3646963914	-0.5921643465	 0.1160824043	 0.336148
O	-2.361633046	-0.0026210473	 0.9145807323	-0.461865
C	-1.9251842564	-1.1399303251	-1.1760953496	-0.026971
O	-0.9997829283	-1.5235553843	-2.1881614554	-0.209682
C	-0.279426128	-2.5417391989	-1.6434411404	 0.093726
N	-0.5534009432	-2.9316321811	-0.4647884861	-0.257339
C	-1.6285925779	-2.0815150384	-0.0069611283	-0.083409
H	 1.0969180563	 1.852543788	-0.2084408783	 0.120547
H	-0.1246484725	 1.4219583939	-1.4148175112	 0.127274
H	-0.6081849276	 2.1147863472	 0.1447700426	 0.106383
H	 0.7559658958	-0.6269071906	-0.2251087535	 0.118126
H	 0.2564615022	 0.0413339285	 1.3174841026	 0.113117
H	-2.560283336	 0.8669283158	 0.5485309912	 0.286978
H	-2.8945054634	-0.8465082992	-1.5596187852	 0.114028
H	 0.4892582208	-2.9481806549	-2.2890206823	 0.14684
H	-2.3745226662	-2.5209773014	 0.6437210045	 0.115198
