17
gdb 92788	3.05814	1.12773	0.91998	3.9319	73.29	-0.261	0.0009	0.2619	1278.8537	0.136378	-418.047983	-418.039297	-418.038353	-418.082579	30.853	
C	 0.4908814846	 1.7248099928	-0.251459157	-0.396473
C	 0.2642130411	 0.2910742077	 0.1970423869	 0.095909
C	 0.3387147338	-0.7715953037	-0.9361911908	-0.199075
N	 1.5394467643	-1.5694714045	-0.6415036677	-0.30651
C	 1.9856254902	-1.1274508422	 0.4594719267	 0.417223
C	 3.1936117106	-1.6659113774	 1.1771604207	-0.418985
C	 4.2147061012	-0.644276822	 1.412753334	 0.267932
N	 5.0299555576	 0.1522334362	 1.5974125667	-0.301231
O	 1.3495962173	-0.1120263135	 1.0870644275	-0.257173
H	 1.4216642649	 1.8068389861	-0.8213088987	 0.136024
H	-0.335833123	 2.0493808938	-0.8917897235	 0.124881
H	 0.5487219709	 2.3992888228	 0.6067506989	 0.136981
H	-0.6574392678	 0.2114059898	 0.7802744113	 0.09813
H	-0.5401001206	-1.4243514086	-0.9615850602	 0.120992
H	 0.4313745366	-0.309095779	-1.9247751603	 0.121242
H	 2.8857049795	-2.0783419695	 2.1453943264	 0.174892
H	 3.6115085886	-2.477999679	 0.5785702691	 0.18524
