18
gdb 18644	2.85732	2.18311	1.80459	1.071	66.11	-0.2347	0.0751	0.3098	831.187	0.154506	-384.920591	-384.912947	-384.912003	-384.952332	29.102	
C	-0.0104445012	 1.5714749696	-0.033668561	-0.407315
C	 0.0152621475	 0.0403904641	 0.0226088714	 0.002045
C	 0.7326569254	-0.6047643834	-1.1894396905	-0.095924
O	 1.5154044948	-1.7134871833	-0.715246299	-0.275128
C	 1.5708160161	-1.6939128826	 0.689841765	 0.026753
C	 2.2656991089	-0.4959464172	 1.2804289983	 0.079071
O	 2.9950163578	 0.3467276108	 0.4366532716	-0.42631
C	 0.7450970653	-0.5548086788	 1.2210033378	-0.133586
H	 1.0079281779	 1.9673200431	-0.0381144666	 0.14511
H	-0.5275695366	 1.9241664905	-0.9330231174	 0.109311
H	-0.5369797117	 1.9849547997	 0.8322659434	 0.112564
H	-1.0164810672	-0.3300973694	 0.0615687709	 0.078115
H	 0.0342193257	-0.985923758	-1.9421474705	 0.105441
H	 1.3932050039	 0.1249395276	-1.6715001253	 0.099224
H	 1.6343971446	-2.6870139464	 1.1206580208	 0.099548
H	 2.7022596229	-0.602502776	 2.2722155409	 0.094153
H	 3.3226501306	-0.2021712483	-0.2863741899	 0.297464
H	 0.2087025251	-0.6324082819	 2.1602706201	 0.089467
