17
gdb 8048	3.42956	1.85362	1.49547	2.0585	75.31	-0.2303	0.0255	0.2557	897.3976	0.141603	-326.615703	-326.608223	-326.607279	-326.64706	29.215	
C	-0.018778094	 1.5090627514	 0.0341885225	-0.520314
C	 0.0400574285	 0.0037459945	 0.0260420159	 0.302291
C	 0.519970224	-0.969491716	-1.0752385195	-0.202673
N	 0.0814820075	-1.9499145692	 0.0262969822	-0.150186
C	 0.7845381981	-0.9634992309	 0.9790573292	-0.217425
C	-1.1472525425	-1.0055822496	 0.163832018	-0.200506
C	-1.9202785795	-1.0795209566	 1.384701472	 0.334241
C	-2.594145446	-1.1133725507	 2.380643654	-0.432305
H	 0.9836587772	 1.9413316384	-0.0545098473	 0.123021
H	-0.622957577	 1.8844950592	-0.7987979737	 0.122297
H	-0.4643468459	 1.8732161001	 0.9658409054	 0.13199
H	-0.0696253513	-1.0476733123	-1.9938434101	 0.098277
H	 1.5915946938	-1.0146543521	-1.2846149332	 0.101056
H	 1.8748176785	-1.0052810045	 0.9091861642	 0.098273
H	 0.445295031	-1.0363910116	 2.0137404643	 0.118455
H	-1.8051089316	-1.0822472675	-0.7084277549	 0.096712
H	-3.1851338207	-1.1547105326	 3.2621466709	 0.196793
