17
gdb 104761	3.01815	1.09872	0.91577	2.7719	71.42	-0.2578	0.0083	0.2661	1271.8779	0.133224	-458.892109	-458.882646	-458.881701	-458.926509	34.673	
O	 0.1523916596	 1.3743547778	-0.2073387547	-0.41624
C	 0.0249152099	 0.1038966873	 0.4353101784	-0.151497
C	-1.3643339555	-0.4698820363	 0.2348097812	 0.315433
C	-2.5129611074	 0.3326772569	 0.8225316244	-0.106386
O	-2.6204262915	 1.628432475	 0.2732756557	-0.425309
O	-1.5846725063	-0.9878604153	-1.0878939955	-0.27844
C	-1.5408829238	-1.9232309707	 0.0025716292	-0.221397
C	-0.457059515	-2.8693156735	 0.0409577067	 0.326766
C	 0.4185497981	-3.6916521915	 0.087650144	-0.407825
H	 0.0265418592	 1.2232885036	-1.1521742027	 0.303687
H	 0.7795504615	-0.6010086549	 0.0703124105	 0.121578
H	 0.2092368807	 0.2861794838	 1.4988000978	 0.124052
H	-3.4568073282	-0.181731312	 0.6146000964	 0.109586
H	-2.3845584706	 0.3618225378	 1.9192093781	 0.087941
H	-1.7240451158	 1.9882491484	 0.2173871315	 0.290138
H	-2.5144147056	-2.3445824435	 0.2544255743	 0.120591
H	 1.1969812107	-4.4136845631	 0.1254204148	 0.207321
