16
gdb 18650	3.2753	2.26912	1.53586	3.8825	71.01	-0.2338	-0.0432	0.1906	829.322	0.132767	-346.631699	-346.625225	-346.624281	-346.662205	25.596	
O	 0.0255444485	 0.0498878028	 0.4770517693	-0.352584
C	-0.0210692972	 1.2078891683	 0.1042091955	 0.400456
C	-1.3111706829	 1.8787959204	-0.1781574516	-0.167211
C	-1.3992602114	 3.0134807709	-0.8821936153	-0.044001
C	-0.2200987608	 3.7475347645	-1.4546293453	-0.286862
C	 1.1157074646	 3.3320616466	-0.8670191748	-0.035123
C	 1.3271308775	 3.356480511	 0.6133073792	-0.292096
C	 1.2137148658	 2.0171360374	-0.1060243833	-0.135982
H	-2.1957034043	 1.3540717138	 0.1687782847	 0.108148
H	-2.3788177944	 3.4337755728	-1.1013266717	 0.107016
H	-0.2163229018	 3.5884926163	-2.5431969871	 0.127299
H	-0.3663511608	 4.8288819852	-1.3247458646	 0.119664
H	 1.9768148791	 3.5840514945	-1.4779508856	 0.095926
H	 2.3065715195	 3.6243951888	 0.9920895905	 0.124245
H	 0.4986713209	 3.6510402133	 1.248462857	 0.126416
H	 2.1163440178	 1.4229903133	-0.1885915569	 0.104689
