15
gdb 44172	5.41069	1.02856	0.94229	1.6271	71.45	-0.282	0.0016	0.2836	1188.9623	0.11383	-416.801857	-416.794458	-416.793514	-416.834255	27.61	
N	-0.1984082377	 1.1212094557	-0.6923116736	-0.535814
C	-0.084761842	 0.0023349414	-0.146548123	 0.432277
O	 1.0127947563	-0.5985490359	 0.4700141063	-0.263254
C	 0.2542186664	-1.8042579815	 0.7395007361	 0.098052
C	-0.4025309848	-1.7469212994	 2.1568209496	-0.171284
C	-1.6943738177	-1.134307016	 1.4996544433	-0.258634
C	-1.0077388408	-1.1697554806	 0.1018672672	-0.162255
C	-0.5900006429	-3.0321814902	 2.8052645979	 0.264969
N	-0.7437307884	-4.0681975839	 3.2951136047	-0.315149
H	 0.6719061739	 1.6542103025	-0.6560151619	 0.237186
H	 0.7701874916	-2.7074004939	 0.4199197401	 0.122357
H	 0.1390955169	-1.0711788999	 2.8225320344	 0.145327
H	-2.5457198559	-1.8119485505	 1.56195848	 0.145045
H	-1.9895272605	-0.1501941629	 1.8639280516	 0.140545
H	-1.5621914042	-1.5703482348	-0.7427683226	 0.120632
