17
gdb 9513	2.73125	1.96526	1.58503	4.0848	64.6	-0.2531	0.0256	0.2787	883.3658	0.142017	-401.021517	-401.013228	-401.012284	-401.053929	30.479	
C	-0.0854392822	 1.6055097191	-0.0596753401	-0.448142
C	-0.0515658459	 0.0812343061	-0.0698981119	 0.130338
C	-1.4370589504	-0.5375854328	 0.1685036961	-0.101
O	-1.9282500921	-0.194602446	 1.4477417978	-0.423697
C	 0.8116049883	-0.5851902988	-1.1912987722	-0.221939
N	 1.7095163121	-1.0601677878	-0.1291069588	-0.329032
C	 0.961188023	-0.5686194768	 0.905358063	 0.420289
O	 1.0258910429	-0.6764654123	 2.1070778091	-0.387705
H	 0.9204569988	 2.0312590444	-0.1253222875	 0.119181
H	-0.6728492502	 1.9815531267	-0.9048671309	 0.117819
H	-0.5546322735	 1.9587356656	 0.8612213085	 0.148712
H	-2.1609036798	-0.1558537149	-0.5611786165	 0.106264
H	-1.37935115	-1.6311685424	 0.0357723127	 0.085647
H	-1.2421411687	-0.4328679956	 2.0874867941	 0.299641
H	 0.3121162796	-1.3892125475	-1.7424637938	 0.1151
H	 1.2799648545	 0.109769028	-1.8943008733	 0.115923
H	 2.4651423037	-1.7299621551	-0.1402854463	 0.252601
