18
gdb 5952	4.46361	1.08337	1.0764	4.3643	64.53	-0.2423	-0.0169	0.2254	1147.4062	0.149943	-422.082684	-422.072992	-422.072048	-422.117255	34.43	
C	 0.0260048253	 1.5255736602	-0.0774172048	-0.421972
C	-0.0171380581	-0.0079969446	 0.023559303	 0.342507
O	 0.5665065278	-0.4424901059	 1.2501854055	-0.475736
C	-1.4679047458	-0.5116341446	-0.0207938388	-0.107432
O	-2.1054151631	-0.0138844055	 1.1521953853	-0.4348
C	 0.7963583974	-0.6726798533	-1.1002391058	-0.296384
C	 2.2596984445	-0.278875587	-1.0867013896	 0.151485
O	 2.8709141145	 0.0876840525	-2.0587025832	-0.249134
H	 1.0497881801	 1.8852339191	 0.0551955591	 0.128506
H	-0.3365423625	 1.8692397696	-1.0518646634	 0.115992
H	-0.6018141983	 1.9709319869	 0.6982093004	 0.131053
H	-0.087623537	-0.2471680748	 1.9335326325	 0.287504
H	-1.97281417	-0.1571362972	-0.9313091215	 0.095512
H	-1.4638248768	-1.6104419016	-0.027386356	 0.095327
H	-2.9349095106	-0.4822027374	 1.2776691248	 0.297748
H	 0.7560194606	-1.760188978	-0.9481951291	 0.122739
H	 0.3815629723	-0.4408839025	-2.0851258525	 0.11487
H	 2.7492658597	-0.3691627856	-0.0947663759	 0.102213
