21
gdb 94444	2.24408	1.39102	1.34682	1.7095	78.19	-0.2455	0.0647	0.3102	1125.6971	0.182258	-424.200906	-424.191875	-424.190931	-424.234422	35.033	
O	 0.280968695	 0.7941815606	-0.7832490296	-0.438542
C	 0.0496780115	-0.2461990569	 0.1416907632	 0.079462
C	-0.1104549025	 0.061202777	 1.6523019906	-0.269917
C	-1.2634106537	-0.9811277928	 1.6722276716	-0.315719
C	-1.3827687595	-0.8288058789	 0.1368787787	 0.305396
C	-2.4859331786	 0.0570489914	-0.5038445276	-0.283236
C	-2.4484374572	-0.8611343791	-1.7555751657	-0.261241
C	-1.740519941	-1.9346962442	-0.8897814617	 0.074455
O	-0.713197353	-2.7217747441	-1.4422200842	-0.434374
H	 1.1839754406	 1.1075488165	-0.6702080524	 0.284818
H	 0.7696647789	-1.0669094351	-0.0013765409	 0.069372
H	 0.7518684871	-0.1000836793	 2.3041766218	 0.091409
H	-0.4878745763	 1.0776301686	 1.7948341037	 0.108314
H	-0.9164102319	-1.9788563811	 1.9582764187	 0.107964
H	-2.1512697898	-0.7354032785	 2.2593285869	 0.099483
H	-3.4298576475	-0.0218725887	 0.0438555442	 0.095243
H	-2.2446119454	 1.1092299436	-0.6572735881	 0.116952
H	-3.3903574256	-1.1299108588	-2.2389889188	 0.095695
H	-1.7623807415	-0.46027261	-2.5090141602	 0.105239
H	-2.4588222267	-2.642510125	-0.4617074517	 0.085732
H	-0.1329819529	-2.134410325	-1.9388369984	 0.283497
