19
gdb 99215	4.75071	0.68194	0.61862	1.9436	73.85	-0.2478	-0.0217	0.2261	1801.3176	0.157658	-456.412397	-456.401954	-456.40101	-456.449662	36.469	
C	 0.2267017365	 1.4354283933	 0.2047050341	-0.377935
C	 0.0502780265	-0.054887151	-0.076731755	-0.278719
C	 0.6915035075	-0.5095303179	-1.3749022142	 0.367185
O	 1.3124799282	 0.2413678083	-2.0961193136	-0.308773
C	 0.5076654939	-1.9761030018	-1.7464411851	-0.237403
N	 1.1823028982	-2.2720542224	-2.9862435763	-0.349154
C	 1.8570279453	-3.4696329267	-3.1112128801	 0.449526
N	 2.6796968287	-3.5322077867	-4.2264814454	-0.561981
O	 1.7554807076	-4.3826385399	-2.3115341219	-0.390667
H	 1.2857352446	 1.7001027537	 0.2531387457	 0.135357
H	-0.2237709035	 2.0391883497	-0.5872130855	 0.132012
H	-0.2423247098	 1.7049858916	 1.1546919648	 0.11477
H	 0.4758472801	-0.6654728789	 0.7317576657	 0.132985
H	-1.0120388794	-0.33247176	-0.1098515933	 0.127286
H	 0.890245437	-2.6229295153	-0.9472181508	 0.15633
H	-0.5726583384	-2.1789989696	-1.8049929089	 0.127208
H	 1.5854027795	-1.448291215	-3.4162535699	 0.251218
H	 2.4173045272	-2.9861729395	-5.0330631447	 0.250504
H	 2.9787004301	-4.4713669617	-4.4394144656	 0.260252
