16
gdb 11079	2.22228	2.15983	1.88041	0.4288	60.82	-0.2272	0.0654	0.2926	838.6859	0.128676	-420.829988	-420.821826	-420.820882	-420.861885	30.902	
O	-0.1582384686	 1.4086069548	-0.0904698013	-0.426231
C	-0.1217942114	 0.0123770892	 0.0232473418	-0.011466
C	-0.4490813713	-0.7522063001	 1.2714304319	 0.273005
O	 0.4896430802	-1.6277666152	 1.7799607828	-0.454064
C	-1.5333616115	-0.0357922168	 2.0768631184	-0.28491
C	-2.4736675954	-0.0676340613	 0.8269326369	-0.280027
C	-1.3871519666	-0.7883682655	 0.0252846089	 0.276307
O	-1.6389366715	-1.8053866435	-0.8771876185	-0.461742
H	 0.5893967621	 1.7672782734	 0.3995890119	 0.289144
H	 0.6709428888	-0.4806892406	-0.5434780726	 0.09346
H	 0.024210317	-2.3647440939	 2.1916458993	 0.288028
H	-1.9150273619	-0.649311854	 2.8978784638	 0.095857
H	-1.2701629489	 0.9525736951	 2.4637395116	 0.099265
H	-3.3465476881	-0.7055717041	 0.9800097228	 0.105209
H	-2.7900771572	 0.9045928879	 0.4416523117	 0.109546
H	-1.5993863359	-1.4430729653	-1.7690663292	 0.28862
