19
gdb 26236	3.78797	1.03208	0.8411	2.1593	79.36	-0.2121	0.027	0.2391	1387.7895	0.15953	-419.258963	-419.249564	-419.24862	-419.293684	34.286	
C	 0.2534725419	 1.2164531901	 1.061636668	-0.400176
C	-0.1461572751	 0.317343932	-0.1065386476	-0.007388
O	 0.731754513	-0.8086196432	-0.2445913621	-0.432742
C	-1.5705944823	-0.1411005608	-0.0214597111	 0.288077
C	-2.6732683743	 0.2498074389	 0.6941803716	-0.194777
N	-3.7704764353	-0.5153214509	 0.3655185301	-0.301267
C	-3.3489923345	-1.3731370982	-0.5406916926	 0.341529
C	-4.1744723827	-2.429159986	-1.1962412715	-0.497425
N	-2.024466955	-1.1792169861	-0.8133985251	-0.333539
H	 1.3030976313	 1.5034208991	 0.9630256689	 0.125288
H	-0.3566988302	 2.1243767801	 1.0837762492	 0.129099
H	 0.1181911599	 0.6958953321	 2.0159779294	 0.116931
H	 0.0091369662	 0.8700138494	-1.0431278039	 0.102869
H	 0.6566210202	-1.326445335	 0.5659618017	 0.279086
H	-2.7446333711	 1.0437180285	 1.4220644112	 0.102855
H	-4.2172790887	-2.298711308	-2.2837561875	 0.131301
H	-3.7840794085	-3.4347218151	-1.0001323296	 0.129015
H	-5.189470311	-2.371069589	-0.8015009901	 0.157166
H	-1.4316057138	-1.7264080981	-1.416254859	 0.264097
