21
gdb 62560	1.84307	1.60949	1.60319	1.9468	79.01	-0.2258	0.0609	0.2867	1081.2243	0.180204	-424.199366	-424.189675	-424.188731	-424.232732	37.682	
C	-0.0701644448	 1.5702432677	-0.0668582961	-0.453911
C	 0.0742307744	 0.0670382889	-0.0695637295	 0.328986
O	-1.0540134261	-0.5331290409	 0.5200762189	-0.485825
C	 0.6903632693	-0.7658682128	-1.1940616445	 0.217118
C	-0.0771391817	-1.8285783363	-1.9248767634	-0.493445
C	 1.9382101107	-0.0628278442	-1.7559966807	-0.287539
C	 2.5986656037	-0.0684000818	-0.3369362225	-0.309026
C	 1.3338968857	-0.7222868146	 0.2046548954	 0.253803
O	 1.3023957504	-1.72476727	 1.1767661934	-0.468565
H	 0.7755130059	 2.0725106808	-0.541240692	 0.116304
H	-0.9796199631	 1.8581080488	-0.6047927367	 0.127178
H	-0.1607241216	 1.9421733998	 0.9591077555	 0.114627
H	-0.7249943653	-1.2665188123	 1.0588442835	 0.281786
H	-0.4832196548	-1.4288681367	-2.8623351059	 0.116784
H	 0.5576192774	-2.6850131932	-2.1787606228	 0.113397
H	-0.9178934002	-2.1827030781	-1.3244284193	 0.130412
H	 2.4830353105	-0.694140271	-2.4623503205	 0.10619
H	 1.7786586941	 0.9152519055	-2.2195931945	 0.098553
H	 3.4554114695	-0.744948188	-0.291941811	 0.110365
H	 2.8859028863	 0.8962627373	 0.0944578525	 0.093535
H	 1.5223254197	-1.3244275191	 2.0276844604	 0.289273
