19
gdb 97563	3.06193	0.69812	0.64049	1.7476	81.29	-0.2401	-0.0189	0.2212	1788.0759	0.155144	-423.013193	-423.001978	-423.001033	-423.052454	37.8	
C	-0.2378552122	 1.7735910395	 0.707951258	-0.392379
C	 0.0048342847	 0.3381878368	 0.1741812277	-0.256499
C	 0.6129026008	-0.5198637876	 1.1846572446	 0.059301
C	 1.1261757667	-1.2061552287	 2.032834883	 0.046962
C	 1.7653891475	-2.0826936821	 3.0150882265	-0.191389
O	 2.9630419632	-2.683645509	 2.5440450165	-0.39988
C	-1.3301238607	-0.1956355385	-0.3987683602	 0.393803
C	-2.2098182827	-1.0323665657	 0.5048272063	-0.477421
O	-1.64738863	 0.0989139366	-1.5257778775	-0.299287
H	 0.704274944	 2.2114867281	 1.0453387192	 0.135705
H	-0.6568990977	 2.3951761533	-0.0870174996	 0.140016
H	-0.930487145	 1.7657744972	 1.5545707323	 0.127992
H	 0.6756904398	 0.4127359722	-0.6894046382	 0.131858
H	 2.0514292934	-1.5081406319	 3.9031794147	 0.14165
H	 1.0402739172	-2.8418195305	 3.3508577796	 0.116813
H	 2.7639556136	-3.1013105534	 1.6995940952	 0.288047
H	-1.7348748172	-2.0032468979	 0.6807634064	 0.152148
H	-2.32346989	-0.562103159	 1.4870854137	 0.141671
H	-3.1836589151	-1.1769414693	 0.036400862	 0.140889
