23
gdb 68470	2.63892	1.62378	1.23463	0.3027	90.26	-0.2294	0.0236	0.253	1125.4926	0.20824	-351.160395	-351.15224	-351.151296	-351.192332	33.857	
C	 0.0179443898	 1.6849621924	 0.083271535	-0.480055
C	 0.0133671356	 0.1602658643	 0.1084539997	 0.305235
C	 0.9721647746	-0.5685403395	-0.8940762348	-0.244384
C	 1.3249164676	-1.5829636577	 0.2288427198	 0.001265
C	 0.8260045583	-0.5262414006	 1.2563227692	-0.267552
C	 0.5048947187	-2.8848276343	 0.1773131473	-0.207307
C	-0.9595219936	-2.8056511736	 0.6608549015	-0.26014
C	-1.7962019549	-1.6355895348	 0.1954431067	-0.074937
C	-1.3936854362	-0.3803728482	-0.0105691489	-0.082634
H	 1.0374593306	 2.0772970512	 0.1552653194	 0.105894
H	-0.423255887	 2.0657406893	-0.8455940656	 0.112954
H	-0.5612874277	 2.0970500601	 0.9179980553	 0.11434
H	 0.5241966582	-0.9623483966	-1.8103135072	 0.089731
H	 1.829536881	 0.0610630832	-1.1546125559	 0.086153
H	 2.386458724	-1.8370640876	 0.2970630088	 0.060684
H	 1.6418420625	 0.1203046819	 1.5939366078	 0.088471
H	 0.2705534044	-0.8695487611	 2.132225626	 0.095362
H	 0.5248761736	-3.2586089373	-0.8545129215	 0.097511
H	 1.005233794	-3.6488137544	 0.7847447829	 0.09119
H	-1.4624735726	-3.7345317937	 0.367822517	 0.097285
H	-0.9711025709	-2.8193089139	 1.7605289932	 0.114366
H	-2.8536381584	-1.8525421377	 0.0570073206	 0.082543
H	-2.1425167014	 0.3447125486	-0.3255462662	 0.074027
