22
gdb 36876	4.4163	0.93239	0.90764	1.0006	87.2	-0.2299	0.0898	0.3197	1395.5439	0.195926	-367.121673	-367.113618	-367.112674	-367.155098	31.731	
C	 0.6099219128	 1.5614140433	 0.846262352	-0.215754
C	 0.4091203407	 0.0662995606	 0.6504922982	 0.080047
C	-0.5309010473	-0.766305265	 1.5810588528	-0.063524
C	-1.7537857044	-0.1692558576	 0.8227199093	-0.223879
C	-0.7085039436	-0.5241539432	-0.2756602315	-0.043912
C	-0.4976388773	-1.8677352017	 0.4810095097	-0.21683
N	 1.364912696	 2.1196333146	-0.2754262153	-0.059448
C	 0.5773738992	 2.6492483955	-1.3841941964	-0.21518
C	 1.2881654094	 3.5646648176	-0.4493453196	-0.221519
H	-0.3437152682	 2.0939983488	 0.9980619995	 0.078878
H	 1.2076412334	 1.720057977	 1.7535409083	 0.101189
H	 1.3901284621	-0.3936938842	 0.4886389341	 0.071294
H	-0.4286779078	-0.9105561759	 2.6584678342	 0.065345
H	-2.6652842547	-0.7737839588	 0.8307088072	 0.087754
H	-1.9910924659	 0.883206505	 0.9847422331	 0.088808
H	-0.8111664432	-0.3901328959	-1.3535678999	 0.068112
H	 0.4569717602	-2.3773293013	 0.3232460944	 0.088944
H	-1.3362578847	-2.5692042692	 0.4706718055	 0.086147
H	 0.9687667858	 2.4599815207	-2.3797701786	 0.114509
H	-0.5080579674	 2.6067779031	-1.3054112342	 0.108319
H	 0.6754325513	 4.1320941819	 0.2500728462	 0.105955
H	 2.2098909635	 4.0561293847	-0.7480375192	 0.114744
