18
gdb 46783	2.91363	1.71914	1.36411	4.411	72.78	-0.2537	0.0312	0.2849	975.9657	0.150027	-439.078438	-439.071252	-439.070308	-439.110188	28.641	
N	 0.0360843505	 1.2776386582	 0.5227060457	-0.516707
C	 0.0045067544	 0.1064935144	 0.0518299355	 0.436381
O	 1.1151414695	-0.6864390215	-0.0825263904	-0.266347
C	 1.5547432837	-1.1427783432	-1.3710702012	-0.097373
C	 0.4952714092	-1.931853887	-2.1302898959	-0.033289
C	-0.7187736605	-1.0535701245	-2.5462328248	-0.256801
C	-1.3849664094	-1.4422304989	-1.2049865791	 0.133449
C	-0.4505781609	-2.681161806	-1.1470411802	-0.245938
O	-1.1973361924	-0.4664212692	-0.1810090522	-0.246883
H	 1.0028028903	 1.5250620459	 0.7263652336	 0.22657
H	 1.9046797861	-0.2847864183	-1.9621900678	 0.1109
H	 2.416219095	-1.7759965483	-1.142966809	 0.12313
H	 0.9767393653	-2.5137423537	-2.9207863278	 0.077264
H	-0.554400851	 0.0137730893	-2.7208954932	 0.118681
H	-1.2589029812	-1.4759973	-3.3968324389	 0.110525
H	-2.459817769	-1.6221892826	-1.1954081691	 0.096604
H	-0.9322759644	-3.5414886	-1.6180856097	 0.107195
H	-0.0583336952	-2.9665855545	-0.1703662553	 0.12264
