19
gdb 62231	4.06101	0.60244	0.55919	3.9676	79.89	-0.2704	0.0062	0.2765	1932.5263	0.155905	-423.016309	-423.005863	-423.004919	-423.053379	36.23	
C	 0.0898213541	 1.5576656865	 0.1069774555	-0.390091
C	 0.0150539328	 0.018370294	 0.0192483872	-0.166249
C	-1.4053703762	-0.5355299495	 0.2841950904	-0.186876
C	-1.9212395794	-0.2373646033	 1.6892490452	-0.10193
O	-3.1246229707	-0.9771953946	 1.9340133858	-0.173648
C	-4.2889173386	-0.3030641531	 1.9708481617	 0.170406
O	-5.3424931805	-0.8383611951	 2.1372935607	-0.271694
C	 0.4948028062	-0.4447571659	-1.2818779976	 0.313353
C	 0.8711695723	-0.8128637654	-2.362408491	-0.448586
H	 1.0987495239	 1.9050804576	-0.1275352304	 0.134895
H	-0.6000953486	 2.018321891	-0.6068211021	 0.129868
H	-0.1632640174	 1.9097541917	 1.1113052968	 0.116659
H	 0.6826303137	-0.3959596254	 0.7889729694	 0.11013
H	-2.1005367293	-0.1267721148	-0.4584179309	 0.116224
H	-1.3980699464	-1.6208925806	 0.1469233125	 0.132977
H	-1.2014513093	-0.5609167565	 2.4484613493	 0.126353
H	-2.1096304684	 0.8328321043	 1.8369456056	 0.114369
H	-4.1553056401	 0.7893936007	 1.8380800489	 0.075289
H	 1.2126801618	-1.1444601515	-3.3116938371	 0.198551
