16
gdb 118625	1.85187	1.0226	0.68492	2.8715	67.73	-0.2901	-0.0246	0.2655	1550.6843	0.12157	-475.039488	-475.029515	-475.028571	-475.076068	33.232	
O	 0.0930892758	 1.4231542105	-0.1402333117	-0.409768
C	 0.0695363507	 0.0125614849	-0.0437646099	-0.081878
C	-1.3663631609	-0.524657298	 0.0152491692	-0.215604
C	-1.4220789662	-2.0546752254	 0.0207303572	-0.068064
O	-0.7879825046	-2.5181784706	 1.222470045	-0.185626
C	-0.2463897578	-3.7644269918	 1.2064757106	 0.181017
O	 0.2933715753	-4.2287919764	 2.1594733502	-0.250485
C	-2.8087368878	-2.5471862849	-0.0401316545	 0.294758
N	-3.8966970418	-2.9303429439	-0.0992505289	-0.299534
H	-0.1415059106	 1.7882784986	 0.7188168806	 0.290354
H	 0.5656188128	-0.3587644304	-0.9485026082	 0.11585
H	 0.644187824	-0.3502519732	 0.8183693156	 0.121329
H	-1.8740156616	-0.1579701868	 0.9142282771	 0.130888
H	-1.9253332509	-0.1564896623	-0.8503997469	 0.140029
H	-0.8854826353	-2.4502292427	-0.8529209944	 0.13838
H	-0.3563825713	-4.2713223576	 0.229338079	 0.098353
