17
gdb 32442	3.22124	1.20866	0.88962	1.3837	73.13	-0.1701	0.0515	0.2216	1274.2286	0.135811	-455.148127	-455.138737	-455.137793	-455.182014	34.451	
C	 0.0588728918	 1.3891140879	-0.0625531676	-0.323053
N	-0.1498176562	-0.0396103073	 0.0892980266	-0.398686
C	 0.5472024444	-0.6809301321	 1.1065879354	 0.223217
C	 1.2006733049	-0.1729158257	 2.1879066955	-0.143163
O	 1.6990884371	-1.2147069212	 2.9630573537	-0.18982
C	 1.3696334727	-2.366980283	 2.3481826809	 0.333358
N	 1.7284388875	-3.5517380562	 2.9783875509	-0.600907
C	 0.6632168883	-2.1140320724	 1.2118390129	 0.032197
O	 0.2315417089	-3.0412459086	 0.2866307046	-0.458845
H	 1.1184770049	 1.6665198145	-0.1855573464	 0.110609
H	-0.5030668257	 1.7488178446	-0.9277250898	 0.121043
H	-0.3216961629	 1.9088160343	 0.823865268	 0.131841
H	-0.0856204438	-0.5519394177	-0.7807274131	 0.235305
H	 1.3908840327	 0.8155490005	 2.5626037456	 0.119916
H	 2.668937979	-3.5208552002	 3.3553652432	 0.252706
H	 1.633408911	-4.3343687331	 2.342981655	 0.256408
H	-0.7254141147	-3.1317937443	 0.3653741146	 0.297874
