14
gdb 129208	2.80098	1.53229	0.99046	3.402	75.96	-0.2288	-0.0969	0.1319	1095.6562	0.102898	-432.886922	-432.879549	-432.878605	-432.919125	27.316	
N	 0.2197872332	 1.3797990787	-0.4391527223	-0.550227
C	 0.129635363	 0.1215419305	-0.2151993731	 0.316316
N	 1.2181893878	-0.7718690313	-0.1881959493	-0.291353
N	 1.2097833336	-2.088482136	 0.0362871739	-0.168586
C	 0.0506169218	-2.6402146243	 0.2627164651	-0.000676
C	-1.1623103484	-1.8905393701	 0.2743742225	-0.176695
C	-1.1418093633	-0.5512351816	 0.0446514127	 0.158101
C	-2.405704034	 0.2352302083	 0.0558845788	 0.096833
O	-3.4866041195	-0.2680442825	 0.2657669553	-0.268307
H	 1.1816015726	 1.6798387564	-0.6002570591	 0.205385
H	 2.1410385842	-0.3959656058	-0.3577080824	 0.268978
H	 0.0642591449	-3.7083692867	 0.4424904794	 0.136531
H	-2.1153228081	-2.373396491	 0.4655041987	 0.145942
H	-2.2832207579	 1.3139780656	-0.14067923	 0.127759
