17
gdb 97439	2.65189	0.90219	0.8318	3.2526	72.12	-0.2688	0.006	0.2748	1462.9984	0.134027	-455.143139	-455.133205	-455.13226	-455.178964	34.218	
C	-0.5054094144	 0.2046745448	 0.0263820389	-0.318224
N	 0.4468625011	-0.7588934342	 0.5436884736	-0.232262
C	 0.8396951893	-0.620301162	 1.7320534351	 0.135541
O	 1.7342625907	-1.4320494026	 2.3323750161	-0.218762
C	 2.3022435418	-2.4678306865	 1.5355811092	-0.089351
C	 1.3509905813	-3.6665170319	 1.3434748633	-0.024448
O	 1.9768784581	-4.678411412	 0.5801174636	-0.40463
C	 0.8673749594	-4.1805652311	 2.6391914202	 0.252631
N	 0.5230510878	-4.613204821	 3.6537846744	-0.315165
H	-0.7941359877	 0.9774286012	 0.7552058849	 0.106475
H	-0.0829070163	 0.7013592037	-0.8538421989	 0.133677
H	-1.411525525	-0.3149889766	-0.3035163749	 0.133822
H	 0.5228194864	 0.1589070743	 2.4333477636	 0.115534
H	 2.5660009596	-2.0927599807	 0.5440086576	 0.145372
H	 3.2000245446	-2.7875379323	 2.0713227685	 0.118059
H	 0.4921299712	-3.3275137495	 0.7590790161	 0.163183
H	 2.6608841722	-5.0924586138	 1.1194499088	 0.298548
