18
gdb 53587	4.72215	0.66091	0.61174	1.6686	88.64	-0.2374	0.0338	0.2712	1827.7887	0.144978	-364.726269	-364.716088	-364.715144	-364.764321	35.47	
C	-0.0622841592	 1.4592825846	-0.2394050468	-0.496359
C	-0.0417701707	 0.0268890543	 0.0214180624	 0.089495
C	-0.0114401768	-1.1579681114	 0.2325514902	 0.042686
C	-0.006447447	-2.594866082	 0.4900731204	-0.364056
C	-1.3623759017	-3.2309091173	 0.2347589892	 0.005362
N	-1.6304434063	-3.6867809887	-1.1266474467	-0.313735
C	-1.5098510587	-4.6956947908	-0.0439644371	-0.256992
C	-0.3889387137	-5.5942548333	-0.0883656542	 0.383607
C	 0.5368830467	-6.3615338454	-0.0910417588	-0.448627
H	 0.7911652442	 1.7635717942	-0.8555471922	 0.14784
H	-0.9736727254	 1.7542333026	-0.7714865562	 0.145502
H	-0.0212154795	 2.0371524833	 0.6907017633	 0.144545
H	 0.7355000702	-3.0965568562	-0.1401324197	 0.146543
H	 0.2848663187	-2.7883619532	 1.5312619418	 0.128419
H	-2.1824446207	-2.7750192149	 0.786837459	 0.097389
H	-2.6100752674	-3.5611683582	-1.3675053088	 0.238049
H	-2.4310980616	-5.1506216916	 0.3148027543	 0.110938
H	 1.3566725888	-7.0362534161	-0.1069261599	 0.199396
