19
gdb 119512	4.05183	0.92543	0.86564	0.8911	74.61	-0.2283	0.0614	0.2897	1368.8499	0.157955	-422.936727	-422.928192	-422.927248	-422.970367	32.481	
O	-0.1081611547	 1.4760940855	-0.0300881355	-0.419656
C	-0.0121581265	 0.0671727365	-0.1699928599	-0.065527
C	-1.3811714611	-0.5271670125	 0.1556842381	-0.303098
C	-1.3883162665	-2.0275032879	 0.1039614553	 0.324355
C	-1.5385051942	-2.8555812887	-1.1470644966	-0.332007
C	-2.5563840733	-2.9968022023	-0.0431893503	-0.176854
C	-1.9861363409	-3.828694293	 1.1475395491	 0.02393
O	-0.6541703642	-4.2661864889	 0.8356037826	-0.239831
C	-0.8567300579	-2.9196513379	 1.2855026105	-0.039778
H	 0.747964426	 1.8591693329	-0.2416727234	 0.285978
H	 0.2779687036	-0.2187690872	-1.1931003132	 0.091727
H	 0.747094763	-0.351465335	 0.510940478	 0.085903
H	-1.6812031295	-0.1758992609	 1.1516384956	 0.105789
H	-2.1158828851	-0.1236558373	-0.5506246188	 0.107943
H	-1.8896249217	-2.3018491465	-2.0127093467	 0.110617
H	-0.8550768628	-3.6671761678	-1.3624187079	 0.134459
H	-3.6060347333	-2.763726862	-0.1663030541	 0.094179
H	-2.5448877491	-4.4042213544	 1.8751982364	 0.108181
H	-0.2944948617	-2.5856661826	 2.1500842908	 0.103691
