18
gdb 83897	2.45028	1.49734	1.19434	3.5112	76.76	-0.2619	0.0272	0.2891	1095.8068	0.148395	-401.955478	-401.947116	-401.946172	-401.988482	31.174	
C	-0.0760649301	 1.5442452431	 0.0204097361	-0.421481
C	 0.0532972717	 0.040385805	 0.0450324138	-0.083516
C	 1.3541734441	-0.6623373911	-0.2086303524	 0.048044
O	 2.5133535618	 0.1153760304	-0.1673343047	-0.25961
C	 2.9843182957	 0.1750744697	 1.1858494139	-0.066229
C	 1.7356013148	 0.0658974942	 2.0828923474	-0.326049
C	 0.7545800573	-0.7122601662	 1.1937513586	 0.136936
C	 0.1429143335	-1.8998300924	 1.7084480348	 0.207699
N	-0.3570919384	-2.8575242666	 2.1247173906	-0.352249
H	 0.8828033894	 2.0341114179	 0.1989967358	 0.134902
H	-0.427863307	 1.8659806993	-0.9648838023	 0.13256
H	-0.7974715493	 1.896266767	 0.7644056815	 0.12861
H	-0.8156810418	-0.4980293823	-0.3242419114	 0.11211
H	 1.4079817077	-1.5440549854	-0.8399538629	 0.120218
H	 3.6739724884	-0.6594318831	 1.3761466222	 0.112032
H	 3.5308908822	 1.1140517481	 1.3047168145	 0.119525
H	 1.9415437677	-0.4777801419	 3.0067539289	 0.13325
H	 1.3411197923	 1.0487419743	 2.3537122855	 0.123248
