22
gdb 86317	1.83271	1.6761	1.11893	3.2777	82.8	-0.2389	0.0283	0.2672	1218.172	0.193528	-404.385619	-404.37534	-404.374395	-404.42106	37.812	
C	-1.4546589475	 0.7136371119	 1.1202199259	-0.425555
C	-0.3459385606	-0.1474105305	 0.5344259495	 0.054513
C	 0.5543119759	 0.4240688158	-0.5914747557	-0.241915
C	 1.7531163432	-0.3505075415	 0.0148186272	 0.054515
C	 3.1420461721	 0.268876776	-0.0176610913	-0.425554
C	 0.9524639108	-0.4666353588	 1.3650849095	-0.1648
C	 1.3077435641	 0.5989405774	 2.3838117367	 0.431245
N	 1.5739875002	 0.1349207612	 3.640523122	-0.530654
O	 1.3581626342	 1.7909003241	 2.1215080014	-0.380407
H	-1.0667579747	 1.6764643433	 1.4607322809	 0.14636
H	-2.2259706995	 0.9018947037	 0.3648810075	 0.109182
H	-1.9401404391	 0.2186453339	 1.9696664341	 0.103467
H	-0.7622135377	-1.1087408535	 0.2120222856	 0.070044
H	 0.2770316813	 0.2070194919	-1.6267638147	 0.083569
H	 0.6888527634	 1.5017267929	-0.4691878737	 0.122457
H	 1.791618837	-1.3558402428	-0.4201624588	 0.070045
H	 3.1368170754	 1.2697398216	 0.4201720427	 0.146361
H	 3.8667989157	-0.343214612	 0.5321985081	 0.10347
H	 3.4963196631	 0.3482315466	-1.0516303745	 0.10918
H	 0.9716469009	-1.4572262585	 1.8297560533	 0.048115
H	 1.5381912247	-0.8398298388	 3.8777831353	 0.258182
H	 1.8151976173	 0.803201996	 4.3542381589	 0.258178
