14
gdb 50948	1.74898	1.33398	0.78952	2.4728	69.29	-0.2985	-0.0217	0.2768	1351.9237	0.099333	-432.875286	-432.866027	-432.865082	-432.911131	30.826	
N	-0.0431206233	 1.3112878208	-0.1661898168	-0.41637
C	-0.0052316021	 0.0622843114	-0.0568666498	 0.137388
O	-1.1800925196	-0.6306379688	 0.0095546915	-0.177866
C	-1.1011569724	-2.0417308933	-0.025356697	-0.051351
C	-2.3234484097	-2.5928104028	 0.7371288908	-0.350706
C	-2.2454024778	-2.2784138071	 2.1609035152	 0.269618
N	-2.1646276385	-2.0452791275	 3.2887984552	-0.284515
C	-1.1006516042	-2.5377826235	-1.4157340069	 0.28917
N	-1.0953261252	-2.9365512791	-2.4993490815	-0.292909
H	 0.8976114342	 1.6994627954	-0.1724253908	 0.245997
H	 0.8826560842	-0.5792517243	 0.0112522232	 0.107643
H	-0.1811664873	-2.3926688426	 0.4609277879	 0.152062
H	-3.2302651635	-2.1560767099	 0.3084770299	 0.191672
H	-2.3786171548	-3.6776165088	 0.6043120188	 0.180166
