12
gdb 123286	9.6662	0.67956	0.63492	2.9048	89.39	-0.2491	-0.0598	0.1893	1613.6496	0.076987	-398.286415	-398.278879	-398.277935	-398.319039	27.449	
C	 0.0642497643	-3.7474226895	-0.0188080266	-0.584255
C	 0.0397562309	-2.5398448107	-0.011763316	 0.257713
C	 0.0143310507	-1.1824162062	-0.0038697203	 0.029258
C	-0.0125424381	 0.0288386541	 0.0032174583	 0.303011
C	 0.0013788845	 1.4412614147	 0.0108932326	 0.122537
N	-1.1260216399	 2.1377474764	 0.0291349317	-0.189347
O	-0.7392837393	 3.4626939346	 0.0315872313	-0.153989
C	 0.60116789	 3.5399560745	 0.0149379758	 0.053268
C	 1.1455919966	 2.3006352382	 0.0011008026	-0.33432
H	 0.0816165642	-4.8091629289	-0.0249544914	 0.198598
H	 1.0146660791	 4.5363305976	 0.0152203693	 0.15932
H	 2.1837016671	 2.0176837053	-0.0136988873	 0.138206
