16
gdb 15329	3.31703	1.14488	0.91002	3.1403	76.03	-0.2381	-0.0191	0.219	1267.2891	0.128177	-346.580797	-346.571921	-346.570976	-346.616176	30.307	
C	 0.1190710016	 1.5344713404	 0.052103251	-0.498546
C	 0.0739286465	 0.0797465089	 0.0698601977	 0.072564
C	 0.0319552095	-1.124339116	 0.0825967645	 0.076991
C	 0.0205510302	-2.5605245772	 0.089001177	-0.187647
C	-0.5585875476	-3.3270650023	 1.2444408562	-0.296439
C	-1.2868803777	-3.3584210812	-0.0852291097	-0.103757
C	-2.5750931112	-2.6365618684	-0.2062830783	 0.165347
O	-3.5009105033	-3.0133289779	-0.8816644121	-0.268609
H	 0.9737579103	 1.8942883845	-0.5311632125	 0.152143
H	-0.7876314296	 1.9553847837	-0.3963094352	 0.152709
H	 0.2119819792	 1.9448882013	 1.0636825499	 0.149504
H	 0.8686551938	-3.024019204	-0.4072136851	 0.124076
H	-0.0646490588	-4.2377443043	 1.5618796986	 0.133052
H	-1.0096803427	-2.7476598208	 2.0425279649	 0.135495
H	-1.2240025798	-4.2630417513	-0.6793330763	 0.11282
H	-2.6346155803	-1.6999298851	 0.3910048894	 0.080297
