19
gdb 107803	2.62096	1.61543	1.30578	2.5362	73.85	-0.2552	0.0626	0.3177	1028.7766	0.159922	-422.969383	-422.961385	-422.960441	-423.001646	31.896	
O	-0.035412746	 1.4081368866	 0.0364864705	-0.427978
C	 0.0598025871	-0.0108148029	 0.050053643	-0.18593
C	-1.3155822643	-0.6210537372	 0.0398050041	 0.271961
C	-2.3053462517	-0.3890049054	 1.2161554704	-0.281659
C	-3.0088416857	-1.6590790357	 0.7441061439	-0.073322
C	-2.9713621113	-1.6654261048	-0.791311058	-0.13219
C	-1.7771585984	-2.1383930515	 0.0197413294	-0.157695
C	-2.1932599461	-0.4380228716	-1.2350133153	 0.111437
O	-2.8002304199	 0.8144638192	-1.4865616738	-0.447932
H	-0.6973880331	 1.6434810758	-0.625844539	 0.2913
H	 0.6440403328	-0.383453629	-0.8088273777	 0.083744
H	 0.6124017566	-0.2760366426	 0.958791859	 0.102871
H	-1.8070013172	-0.5404751426	 2.1775490931	 0.106518
H	-2.8575517649	 0.5587342899	 1.2497548929	 0.079898
H	-3.7343673062	-2.2605279901	 1.2764929631	 0.090932
H	-3.6522065689	-2.2746485464	-1.3719083833	 0.090366
H	-1.2484243853	-3.0792828101	 0.0107412527	 0.098619
H	-1.6007741522	-0.6606113121	-2.1282141208	 0.091445
H	-3.4533036054	 0.9763860305	-0.7977557042	 0.287616
