16
gdb 66919	2.68879	1.7798	1.30269	3.7725	68.8	-0.2175	0.005	0.2226	978.3791	0.122875	-437.824701	-437.816618	-437.815674	-437.856893	30.96	
C	-0.0381759421	 1.5679551867	 0.100772293	-0.520938
C	 0.0668275745	 0.0757887515	 0.0981697183	 0.154654
N	-1.1924007932	-0.7694999949	 0.1097360562	-0.358195
C	-0.3471447293	-1.8052265503	 0.7496318641	-0.09671
C	 0.7591052699	-0.8886597109	 1.1491955619	-0.194476
C	 0.9548667657	-1.8734058512	-0.054613602	 0.256363
O	 1.7801826231	-2.9641669108	-0.0627505077	-0.449637
C	 0.9145637675	-0.6810887383	-0.9602914701	 0.395966
O	 1.5070781518	-0.3323786014	-1.9414209613	-0.349419
H	 0.9539804675	 2.0224984955	 0.0273086159	 0.142777
H	-0.6229236196	 1.8949237847	-0.7648407178	 0.148872
H	-0.5247472245	 1.9396750618	 1.0083847011	 0.120764
H	-1.7967625513	-0.3881244211	 0.840293836	 0.215712
H	-0.730613294	-2.697200957	 1.2307378653	 0.109949
H	 1.4191123763	-0.7628286827	 1.99635899	 0.123144
H	 1.3451381478	-3.6814130616	-0.5375666829	 0.301174
