23
gdb 38257	2.9121	1.59949	1.30172	0.3456	89.35	-0.2655	0.0899	0.3554	1083.2839	0.210239	-351.125727	-351.118604	-351.11766	-351.156715	31.106	
C	-0.028219717	 1.618901647	 0.1924305737	-0.26341
C	 1.4678401208	 1.2346472111	 0.0449416949	-0.087654
C	 1.1693826104	 0.0514894972	 1.0257777246	-0.295605
C	-0.0079495507	 0.0623257068	 0.0067973423	 0.373776
C	-1.1825960155	-0.8378775941	-0.2743528017	-0.342135
C	-1.7334779733	-0.4802478397	-1.676646107	-0.18759
C	-0.6415147443	-0.4258473033	-2.7672686704	-0.177927
C	 0.4722842392	 0.6060672951	-2.4673997971	-0.268836
C	 1.0629334279	 0.2574239137	-1.1052004298	 0.052757
H	-0.3407224868	 1.9769603231	 1.178018945	 0.082984
H	-0.4765372675	 2.2262327316	-0.5947101797	 0.089174
H	 2.325991137	 1.9078635386	 0.082777382	 0.064429
H	 1.8464358747	-0.8072143307	 0.9802379574	 0.084394
H	 0.9384518445	 0.3258022088	 2.0593193554	 0.083965
H	-0.849026468	-1.8847006178	-0.2672504255	 0.093789
H	-1.9705914845	-0.7486279804	 0.4830014927	 0.091271
H	-2.5030189882	-1.204601585	-1.9654621583	 0.090157
H	-2.2338745589	 0.49577811	-1.6244657894	 0.096771
H	-0.1861086053	-1.4216595797	-2.8651587097	 0.091699
H	-1.1059023451	-0.2042122062	-3.734843148	 0.089402
H	 1.2359788753	 0.5755911128	-3.252771646	 0.087778
H	 0.0478052725	 1.6154491114	-2.4885809283	 0.096755
H	 1.741636383	-0.5999821404	-1.2033124769	 0.054054
