18
gdb 86607	2.53701	1.33627	1.13924	3.8006	73.74	-0.2285	-0.0344	0.1941	1146.1441	0.146755	-439.041609	-439.033098	-439.032153	-439.075199	31.772	
O	-0.6196447176	 1.1233427023	-1.1959785009	-0.430613
C	-0.0091420585	 0.2366337618	-0.2870866567	 0.038509
C	-1.0007255405	-0.731677247	 0.4379595851	-0.279552
C	-0.7320046707	-1.8230877715	-0.6382508262	-0.104694
N	-1.642243664	-1.6466754768	-1.7682810517	-0.079452
C	-1.6597305554	-2.7119713766	-2.7674724474	-0.218057
C	-2.8041190214	-2.5348426809	-1.8302774509	-0.226262
C	 0.5700058376	-1.0381479789	-0.9727771014	 0.389863
O	 1.6140661985	-1.3435518459	-1.4649440047	-0.292488
H	-1.2047501074	 0.5838625304	-1.7497745077	 0.287931
H	 0.679325646	 0.8193901516	 0.3289723985	 0.103477
H	-0.6369039002	-1.0349378139	 1.4231283244	 0.113958
H	-2.0293149633	-0.3754181751	 0.5113416741	 0.115927
H	-0.6279434779	-2.869295741	-0.3153405928	 0.073372
H	-1.7387655849	-2.3870519112	-3.8000638003	 0.129846
H	-1.0041123653	-3.5642383853	-2.6051432742	 0.129223
H	-2.9189056918	-3.2674704163	-1.0344529049	 0.121153
H	-3.7282801631	-2.077643216	-2.1698542324	 0.12786
