20
gdb 99284	4.22378	0.70353	0.63559	2.576	74.03	-0.2447	0.063	0.3077	1793.3031	0.168688	-477.466329	-477.455359	-477.454414	-477.503965	37.674	
C	 0.1278878092	 1.178009508	 0.3363527222	-0.229803
O	-0.092011249	-0.1075520707	-0.2444434435	-0.26661
C	-1.3507087506	-0.5943711897	-0.0780414835	 0.520551
O	-2.2322643133	-0.0135782929	 0.5188016524	-0.422372
N	-1.4598358375	-1.8035525384	-0.6873215758	-0.365773
C	-2.6446152248	-2.6248915609	-0.5768327125	-0.144994
C	-2.3396689292	-3.9672747266	 0.0872152042	 0.120867
C	-3.5785439651	-4.8534667896	 0.1870244138	-0.401021
O	-1.3254984078	-4.567981773	-0.7212993286	-0.441361
H	 1.1694302687	 1.4234365962	 0.1248530697	 0.126095
H	-0.5346939387	 1.9264884414	-0.106555423	 0.136267
H	-0.0444618329	 1.1555666621	 1.4157679884	 0.135082
H	-0.6284851185	-2.2277152247	-1.0657485035	 0.259517
H	-3.3763024607	-2.0632025311	 0.0066428544	 0.143257
H	-3.0692296841	-2.8168860821	-1.5715786874	 0.107956
H	-1.9437042486	-3.7681911092	 1.0956859874	 0.076091
H	-4.348736658	-4.3832999947	 0.8071811229	 0.124381
H	-3.9957915687	-5.0434607171	-0.8068704029	 0.127275
H	-3.3294594417	-5.8188878677	 0.6409186816	 0.108493
H	-1.0321242088	-5.3756611693	-0.2890432964	 0.286105
