21
gdb 6562	3.82205	1.26117	1.2026	2.6354	75.47	-0.2429	0.0807	0.3237	1129.4988	0.186923	-366.238067	-366.228869	-366.227925	-366.271467	34.915	
C	 0.1370165395	 1.5522505857	 0.0630373282	-0.409162
C	 0.0682560029	 0.0161522946	 0.0213694604	 0.360226
C	 0.6437764173	-0.5839745968	 1.3042953855	-0.404419
O	-1.2919428468	-0.4025257135	-0.0523924518	-0.471671
C	 0.8106291564	-0.5532610367	-1.2061381705	-0.163832
N	 0.0949566794	-0.1961839158	-2.4307766897	-0.085303
C	 0.6585103485	 0.8553384392	-3.2730739139	-0.218564
C	 0.7158648727	-0.5703007338	-3.6952702817	-0.223528
H	 1.1698960403	 1.9100435776	 0.1420610538	 0.099861
H	-0.3099149954	 1.9867518804	-0.8355374224	 0.116172
H	-0.4228287984	 1.9201341824	 0.9274681367	 0.119106
H	 0.0847341065	-0.2185265482	 2.1704228057	 0.122057
H	 0.5632127926	-1.6746208325	 1.2852481206	 0.116418
H	 1.6958474181	-0.3099813825	 1.4328120951	 0.105689
H	-1.5295117803	-0.320758706	-0.9874351992	 0.279244
H	 1.8622285545	-0.2200695902	-1.2201039259	 0.080387
H	 0.8046944259	-1.6463889999	-1.1298143886	 0.105541
H	-0.0560752016	 1.5364891548	-3.7260492987	 0.121161
H	 1.5887165676	 1.3186365689	-2.9494374368	 0.116337
H	 1.6859538739	-1.0625438923	-3.6559259348	 0.113611
H	 0.0439299864	-0.9482555954	-4.460597592	 0.120667
