21
gdb 110860	2.18928	1.30082	1.13605	0.9721	78.74	-0.246	0.0726	0.3186	1234.6621	0.181096	-424.192601	-424.182954	-424.18201	-424.226766	36.64	
C	 0.2784453203	 1.4601122917	 0.1543447841	-0.370795
C	-0.2270578715	 0.038497227	-0.1174323872	-0.213494
C	 0.5250828525	-0.631120434	-1.253677783	-0.063379
C	 1.915812313	-1.2283682152	-1.1734009112	-0.130536
C	 2.1177423454	-1.9687940938	 0.1530295893	-0.283698
C	 0.9379049603	-2.9263144719	-0.2441271626	 0.045444
O	-0.183934577	-3.0679519576	 0.6050018486	-0.43421
C	 0.6994386165	-2.1050598642	-1.5027373927	 0.345604
O	 0.3839552025	-2.6899493817	-2.7197574457	-0.464235
H	 1.3341272253	 1.4531604063	 0.4464672152	 0.116737
H	 0.1901052435	 2.0911643775	-0.7374005138	 0.109852
H	-0.290720699	 1.937972575	 0.9580072424	 0.107866
H	-0.1657728441	-0.56796801	 0.7889225024	 0.116505
H	-1.2935382556	 0.0712068667	-0.3760034777	 0.091258
H	 0.3950814719	-0.1240434853	-2.2105673446	 0.083361
H	 2.7095015666	-0.9145732036	-1.8395651342	 0.091084
H	 3.0765168309	-2.4863702523	 0.2310727009	 0.099942
H	 1.9569552366	-1.3821198741	 1.0617431357	 0.100206
H	 1.334960625	-3.9076983655	-0.5354809757	 0.081387
H	 0.0500111065	-3.6705053943	 1.3181263323	 0.283478
H	-0.5692687595	-2.6285515708	-2.8437529923	 0.287622
