19
gdb 37016	3.13473	1.77271	1.50752	0.2719	83.99	-0.2164	0.0123	0.2287	946.0142	0.162159	-348.758801	-348.752111	-348.751166	-348.7893	28.781	
C	 0.0304745197	 1.3950305408	 0.009269765	-0.351301
C	 1.3447033329	 0.6624757124	-0.0072174308	 0.297803
C	 2.028800049	 0.413234904	 1.3367455249	-0.36513
C	 1.0324894103	-0.4630469687	 2.083169473	-0.068012
C	-0.0331450274	-0.7819524009	 1.3401474285	-0.180206
C	 0.0349140807	-0.1312063677	 0.0010224443	 0.274971
C	-0.0587699038	-0.7675255498	-1.3434773328	-0.180206
C	 0.9925149105	-0.4405411144	-2.1032407945	-0.068012
C	 2.0029866486	 0.4277679713	-1.3666002261	-0.36513
H	-0.2666529178	 1.8848406637	 0.9314373493	 0.108583
H	-0.2841568462	 1.8946953124	-0.9017373718	 0.108583
H	 2.9912660952	-0.1014992997	 1.2069659321	 0.104659
H	 2.2486438867	 1.3390674412	 1.8840894321	 0.107352
H	 1.1840956136	-0.7607157026	 3.1155752077	 0.090491
H	-0.8601774932	-1.4031111944	 1.6658603037	 0.091526
H	-0.8919349353	-1.3852316319	-1.6599976149	 0.091526
H	 1.1243491158	-0.7270784131	-3.1414935622	 0.090491
H	 2.2124339591	 1.3594538429	-1.9080571727	 0.107352
H	 2.9677026517	-0.0882326754	-1.2607636751	 0.104659
