17
gdb 76278	2.43457	1.53548	1.10518	0.7043	68.24	-0.252	-0.0519	0.2002	1094.9079	0.134086	-459.01101	-459.002287	-459.001343	-459.044674	32.359	
C	 0.0606948217	 1.569436933	 0.0394692468	-0.396276
C	-0.0498376436	 0.0360732976	-0.0371316537	-0.144754
C	 0.6872325768	-0.5522965182	-1.2650243891	 0.040659
O	 0.638319846	 0.2139722474	-2.431130283	-0.435764
C	 2.1173802914	-0.728580754	-0.7535640548	 0.355245
O	 3.0869288293	-0.4698785235	-1.4235993892	-0.321831
C	 2.0518672162	-1.1269153878	 0.7053394303	-0.437149
C	 0.6829004284	-0.5878598447	 1.163701367	 0.394279
O	 0.2663414659	-0.6261831553	 2.2897652289	-0.304049
H	 1.1053868252	 1.8992080649	 0.0668996327	 0.12313
H	-0.4018174068	 2.0167101862	-0.8418804587	 0.147856
H	-0.4370573056	 1.9343429389	 0.9406687698	 0.13807
H	-1.10354113	-0.2522178866	-0.0068733391	 0.109709
H	 0.2884033271	-1.5669333543	-1.4507896117	 0.101701
H	 1.5567046554	 0.2910639886	-2.7336795724	 0.296498
H	 2.0469171799	-2.2201069686	 0.8033388959	 0.168026
H	 2.8875775929	-0.7512862036	 1.2999054704	 0.164649
