14
gdb 124370	5.16597	1.00269	0.84414	4.3149	65.61	-0.261	-0.0298	0.2311	1284.6604	0.100949	-470.035767	-470.027643	-470.026698	-470.069833	28.093	
C	-0.0103638338	 1.5303487515	-0.1572823781	-0.504552
C	-0.0195669572	 0.0436796346	 0.1576997223	 0.399717
O	-0.0620139533	-0.4139676917	 1.2723931213	-0.299463
N	 0.0260204553	-0.7550754138	-0.9825605383	-0.431455
C	 0.0309982505	-2.1317152606	-1.0365619377	 0.494933
N	-0.0070677478	-2.951516862	-0.0119939233	-0.183822
O	 0.0202960079	-4.2157224651	-0.6477737654	-0.152443
C	 0.0704020427	-3.9861584229	-1.9520649172	 0.124148
N	 0.0804871146	-2.7337035937	-2.2794231923	-0.340067
H	 0.8971143375	 1.8085697695	-0.7035552257	 0.145486
H	-0.8712703918	 1.8045092334	-0.7761422541	 0.145348
H	-0.0500453767	 2.0817449216	 0.7809180555	 0.161275
H	 0.0603072179	-0.3158251209	-1.889837018	 0.270021
H	 0.097708574	-4.8432435499	-2.609079319	 0.170872
