13
gdb 156	7.29736	7.21425	3.92627	0.1413	50.34	-0.2335	0.0325	0.2661	375.5096	0.116471	-195.226072	-195.221411	-195.220467	-195.253489	17.052	
C	 0.0474187686	 1.4887357829	-0.2261645042	-0.19648
C	 1.4641697049	 1.9426685213	 0.2166371531	-0.239135
C	 2.190576053	 0.6354920289	 0.4336723361	-0.050979
C	 1.3613344742	-0.4063998936	 0.4361186948	-0.050976
C	-0.0760040732	 0.0075334253	 0.2211808455	-0.239135
H	-0.7453698189	 2.1206738766	 0.1817585925	 0.095161
H	-0.0261549233	 1.5447324117	-1.3167238164	 0.103808
H	 1.9493520822	 2.5832509491	-0.5288137808	 0.099646
H	 1.4361414354	 2.5273951405	 1.1474653293	 0.102632
H	 3.2606717776	 0.584053642	 0.6035495893	 0.08659
H	 1.6519790907	-1.4371714668	 0.6082954283	 0.08659
H	-0.6499765843	-0.0936859413	 1.1536196532	 0.102632
H	-0.5930787669	-0.6111596266	-0.5213133305	 0.099646
