16
gdb 16729	3.71527	1.76854	1.725	3.2365	67.38	-0.2342	0.0271	0.2613	827.8536	0.133476	-342.783249	-342.776526	-342.775582	-342.814083	26.066	
N	 0.7688804597	-0.7952847917	 0.8895011257	-0.339899
C	 0.3672722472	 0.2154477258	 0.4951827849	 0.271508
C	-0.1146068157	 1.4983397395	-0.0519742045	-0.13225
C	-0.9282275739	 2.3118451762	 0.9980853345	-0.231675
C	 0.0721912214	 3.3078742247	 1.5606432113	-0.031602
C	 1.4142596499	 2.7965611581	 2.0435125644	-0.317035
C	 1.2494315837	 3.3187832377	 0.6310015968	 0.012235
N	 0.9742499007	 2.4031729504	-0.459566049	-0.298932
H	-0.7360032342	 1.2486805403	-0.919633128	 0.131248
H	-1.7311812811	 2.8481866701	 0.4842199065	 0.120209
H	-1.3843189327	 1.6583735283	 1.7455694059	 0.128557
H	-0.3167384314	 4.2272101488	 1.981647246	 0.095254
H	 1.9485967174	 3.4283372952	 2.745412463	 0.115262
H	 1.5558886713	 1.7333968699	 2.2048288099	 0.14161
H	 1.7422780083	 4.2377285642	 0.333282971	 0.099581
H	 1.7935901096	 1.8878011624	-0.7631437986	 0.235929
