16
gdb 8343	4.92294	1.41295	1.33679	5.1026	69.25	-0.249	0.0323	0.2812	944.3547	0.132082	-342.729259	-342.722317	-342.721372	-342.760854	26.273	
N	-0.0099650769	-1.1579724986	-0.0291188907	-0.30808
C	 0.0241991229	-0.0068043541	 0.0591983518	 0.276515
C	 0.0632098182	 1.451939114	 0.1533898	-0.479488
C	 1.4650197558	 2.0143292549	 0.0191712609	 0.348918
C	 2.5122308364	 1.7557161379	-1.09687126	-0.227036
C	 3.1759198045	 2.6377326789	-0.011356756	-0.019187
C	 1.8915711268	 3.5102441701	 0.0200526212	-0.281518
N	 2.569770777	 1.6872686162	 1.0130288659	-0.336525
H	-0.5735515014	 1.8711542994	-0.634531521	 0.15863
H	-0.3738878482	 1.7589297766	 1.111149883	 0.153698
H	 2.8788656101	 0.7317922146	-1.1631334481	 0.1275
H	 2.3258146422	 2.2146821322	-2.0690290777	 0.098906
H	 4.2149126675	 2.9582490932	 0.0541040747	 0.093008
H	 1.6533767573	 4.1158279959	-0.8608798906	 0.097541
H	 1.7065686286	 4.0585825168	 0.9491338821	 0.094625
H	 2.3980548793	 2.204556432	 1.8826045746	 0.202493
