22
gdb 120261	3.18409	0.99752	0.8886	2.629	81.87	-0.2364	0.0732	0.3096	1421.9212	0.194513	-404.307429	-404.298148	-404.297204	-404.341819	35.304	
C	 0.0187087046	 1.5910663069	 0.0402169917	-0.379346
C	-0.0301473963	 0.0666526172	-0.0907384136	-0.166567
C	-1.4371526933	-0.5075205331	 0.1195018791	-0.184528
C	-1.483804349	-2.0268310236	 0.0194563669	-0.03291
C	-2.8387764295	-2.7392405219	 0.0814015071	-0.076347
N	-3.5861291172	-2.3416151745	-1.1418241754	-0.357797
C	-2.5962116075	-3.4493988558	-1.2017855947	-0.083908
C	-1.2587567975	-2.7228316275	-1.3990479612	 0.128225
O	-1.1702982474	-1.9075867763	-2.5351680653	-0.431405
H	 1.0325902014	 1.9736655517	-0.1146555462	 0.108294
H	-0.6337122929	 2.0720002372	-0.6972445411	 0.113093
H	-0.3118557415	 1.9163246263	 1.0334377712	 0.108097
H	 0.3248904142	-0.2325353719	-1.0829001611	 0.119416
H	 0.6584585564	-0.3847004774	 0.6368496392	 0.084252
H	-1.8147867112	-0.2058439247	 1.107001042	 0.084936
H	-2.1264241425	-0.074387441	-0.6141858896	 0.100026
H	-0.7942921021	-2.4775499682	 0.7425850986	 0.068739
H	-3.3745798829	-3.0791275322	 0.9595783886	 0.092383
H	-4.5130415718	-2.7602459624	-1.0911824689	 0.233327
H	-2.8911648942	-4.4381270925	-1.5313916074	 0.093056
H	-0.3891481161	-3.3827718441	-1.4026447146	 0.086569
H	-2.0406994336	-1.4929028324	-2.6169487852	 0.292397
