15
gdb 7706	3.40462	1.89934	1.31905	3.5573	62.92	-0.2547	-0.03	0.2247	893.98	0.119625	-399.836144	-399.829116	-399.828172	-399.867864	26.217	
N	-0.1178096525	 0.9839906993	-0.8476502726	-0.505362
C	 0.0173112339	 0.0564106127	 0.0002045	 0.382913
C	-1.1690237361	-0.5074400573	 0.7460713631	-0.392678
C	-1.1538375142	-2.0309051956	 0.8495043549	 0.396232
O	-2.1590664115	-2.6934970199	 0.8741597878	-0.297066
C	 0.2461517784	-2.6291095217	 0.9358764994	-0.322187
C	 1.2823062327	-1.5545836582	 1.2490869203	-0.097661
O	 1.2352902054	-0.4937015266	 0.2865688686	-0.243351
H	 0.7913879729	 1.240952449	-1.2381679941	 0.222784
H	-1.1432994855	-0.1313052744	 1.7809075197	 0.152022
H	-2.0947303206	-0.1567793859	 0.2931050372	 0.162915
H	 0.2538445511	-3.431000288	 1.6796844198	 0.140178
H	 0.4717547978	-3.0859578963	-0.0362175356	 0.151213
H	 1.1351309915	-1.1473804271	 2.2587370642	 0.117113
H	 2.2987232367	-1.9486590399	 1.1942661672	 0.132934
