19
gdb 86790	3.12331	1.00149	0.8674	1.0646	77.67	-0.2489	0.0398	0.2887	1379.856	0.15633	-422.973288	-422.96343	-422.962486	-423.009125	35.779	
C	 0.282034281	 1.4862217489	-0.1829680086	-0.407288
C	 0.0295203459	 0.0173792492	 0.0901704053	 0.118623
O	 0.8091863991	-0.8553754797	-0.7646696689	-0.307653
C	 1.3192748354	-1.6069400376	 0.3565019897	 0.106553
C	 2.8466388817	-1.7015519911	 0.3783637754	-0.368814
C	 3.3714433725	-2.5559222884	-0.6784991841	 0.292962
C	 3.7875600218	-3.271351171	-1.5494328521	-0.428012
C	 0.6399631888	-0.6364007209	 1.3628104801	 0.040036
O	 1.4578995928	 0.1442037743	 2.1966996645	-0.41933
H	 1.3414155244	 1.7459148439	-0.0832038651	 0.104106
H	-0.0162504021	 1.7265838008	-1.2076694358	 0.136944
H	-0.2972241278	 2.1120855921	 0.502991042	 0.129194
H	-1.0422925042	-0.2013385634	-0.0148844654	 0.078533
H	 0.8943443441	-2.6190854481	 0.3758199518	 0.085877
H	 3.2764837251	-0.6967496164	 0.2859105649	 0.113944
H	 3.1515779509	-2.0838126356	 1.3610276653	 0.142416
H	 4.160988605	-3.8972585359	-2.3213258543	 0.195437
H	-0.0845684686	-1.1106033711	 2.0271342276	 0.098735
H	 2.0434166743	 0.6800468801	 1.6520327679	 0.287737
