20
gdb 103202	3.27648	1.43369	1.31616	2.2748	77.72	-0.2338	0.0837	0.3175	1061.2064	0.170406	-403.06329	-403.055016	-403.054071	-403.095751	32.436	
C	-0.0312142074	 1.3732213976	 0.0157291984	-0.250939
O	 0.0977735723	-0.0310755382	-0.0478359928	-0.296885
C	 0.6947124868	-0.5556935196	-1.227993586	 0.447318
C	 2.109000726	-0.0252532454	-1.4333923817	-0.485613
C	 0.4549521334	-2.0669735948	-1.1638776776	-0.085071
C	-0.8602062379	-1.9416081228	-1.8221157815	-0.03781
C	-0.3363224043	-0.5756341001	-2.4110542873	-0.15648
C	 0.3458352424	-1.4484121138	-3.4712082476	-0.162459
N	 0.2475447337	-2.6296566257	-2.5444007086	-0.16267
H	 0.9385606966	 1.8825555835	 0.1019230201	 0.109188
H	-0.5624943995	 1.7863472093	-0.853929245	 0.103133
H	-0.6154578709	 1.5912986282	 0.9132845829	 0.128581
H	 2.6620999619	-0.0903742305	-0.4908362858	 0.128261
H	 2.6490709817	-0.6112909702	-2.1793977242	 0.130176
H	 2.11407353	 1.0195186223	-1.7606438412	 0.118189
H	 0.784988678	-2.7578283886	-0.3992080556	 0.097359
H	-1.8326351984	-2.371883957	-1.6282122398	 0.098045
H	-0.9105557433	 0.3160830831	-2.6558547058	 0.072072
H	-0.2910123563	-1.6493326889	-4.3369346155	 0.109439
H	 1.3525858852	-1.1879047983	-3.8150027952	 0.096166
