16
gdb 29883	3.23154	1.40192	0.98536	8.8009	76.15	-0.217	-0.0112	0.2058	1142.0046	0.126448	-434.121705	-434.113629	-434.112685	-434.154276	30.42	
C	-0.0920682592	 1.4848804385	 0.0087515192	-0.361468
N	-0.0050468785	 0.03228357	 0.0277331434	-0.118676
C	 0.0120857122	-0.6884363017	-1.1487414598	 0.096001
N	 0.0323745384	-1.9598322259	-1.2696382844	-0.326776
C	 0.041150879	-2.7666317455	-0.0946388198	 0.379459
O	 0.0544194284	-3.9795092698	-0.1777449324	-0.375737
C	 0.0491691907	-2.0412133737	 1.1665351791	-0.326258
C	 0.017563562	-0.6846608075	 1.2140908803	 0.422742
N	-0.073609273	 0.0642809109	 2.3813015311	-0.588499
H	 0.828104368	 1.9537386892	 0.3783792283	 0.13935
H	-0.2420880573	 1.8096504146	-1.0216816996	 0.154201
H	-0.9343411871	 1.8291017682	 0.614626189	 0.162462
H	 0.0041582788	-0.0592656248	-2.0392848397	 0.1229
H	 0.0820819356	-2.6164863278	 2.0838908927	 0.098002
H	 0.0395005903	-0.5012447913	 3.2110985762	 0.265971
H	 0.5146143018	 0.8859950366	 2.4217243465	 0.256324
