18
gdb 33254	5.45616	0.75201	0.68355	2.6878	75.41	-0.1865	0.0341	0.2205	1602.5471	0.148479	-439.091613	-439.082882	-439.081938	-439.125833	32.144	
O	-0.0296381088	 1.4046099173	-0.2040423178	-0.421167
C	-0.0176915231	 0.0058236934	 0.0612090348	-0.096172
C	-1.4601828642	-0.470287927	 0.0391851985	-0.122503
N	-2.0433745221	-0.2136687509	-1.2651106071	-0.403949
C	-3.3867981266	-0.5317457721	-1.4440294078	 0.283856
C	-4.1926016866	-1.3097002528	-0.6604067266	-0.098204
O	-5.4354779967	-1.4285843892	-1.23007046	-0.153807
C	-5.4134188369	-0.7081216577	-2.3729225369	 0.017947
C	-4.1974023665	-0.1372750181	-2.5665283019	-0.29353
H	 0.8744143497	 1.6946180683	-0.3534744833	 0.292902
H	 0.5557854031	-0.5358366187	-0.7048231074	 0.100726
H	 0.4252851905	-0.2117969828	 1.0444351301	 0.092774
H	-1.4803877311	-1.5493828864	 0.237003148	 0.108755
H	-2.0202817831	 0.0220113367	 0.8532651222	 0.100163
H	-1.8062735473	 0.7170140329	-1.5838791538	 0.240552
H	-4.0505074782	-1.8335530992	 0.2679573553	 0.119545
H	-6.3296689909	-0.6962650107	-2.9405005644	 0.130083
H	-3.895517051	 0.4817982769	-3.3972318318	 0.102027
