19
gdb 127282	4.5277	1.2097	0.98383	1.9103	84.08	-0.2189	0.0228	0.2417	1223.7771	0.16266	-382.105411	-382.097511	-382.096567	-382.138165	29.864	
C	 0.0110180861	 1.3846039317	 0.0952522718	-0.314909
N	-0.0411290371	-0.056037127	-0.0122837131	 0.053941
C	-0.0536490388	-0.8031678723	-1.1568571276	-0.234343
C	 0.0150437053	-2.1176905329	-0.7552939525	 0.224845
C	 0.0084945563	-3.5384110516	-1.2365064727	-0.355129
C	 0.4533970879	-4.3126281283	 0.049919186	-0.198249
C	 0.1007493719	-3.4141037917	 1.2774917215	-0.336749
C	 0.0663589636	-2.0527629929	 0.647654675	 0.346547
N	 0.0371545493	-0.8113855722	 1.1126930176	-0.38091
H	 1.0348983757	 1.737108354	 0.262897029	 0.139185
H	-0.3720044752	 1.8277723376	-0.8263670215	 0.134016
H	-0.6105291864	 1.7020915451	 0.9345291021	 0.152401
H	-0.1057140613	-0.3275084374	-2.1239344935	 0.126118
H	-0.9951474651	-3.8506417335	-1.5546895251	 0.107511
H	 0.6795160532	-3.7363041309	-2.0784244254	 0.104982
H	 0.0012389579	-5.3056337447	 0.114185916	 0.096221
H	 1.5385872368	-4.4531616085	 0.0163424503	 0.108624
H	-0.8787061743	-3.678651477	 1.696579433	 0.11209
H	 0.8297048042	-3.5110649175	 2.087108099	 0.11381
