16
gdb 69684	3.26378	1.31122	1.19747	5.2077	72.72	-0.2275	0.0171	0.2446	1055.9603	0.12398	-400.676398	-400.668811	-400.667867	-400.708262	30.043	
O	 0.002968267	 1.4461397972	 0.0340335695	-0.446219
C	 0.0478488772	 0.0696734092	 0.0591854831	 0.407521
C	-0.8618921616	-0.701617904	 0.9451315091	-0.3517
C	 0.6388675877	-0.9203074736	 1.0597016497	-0.156234
C	 1.271498957	-1.7120547171	-0.1167113476	-0.080571
C	 0.3374751884	-2.2216135571	-1.2011659085	-0.163655
C	-0.9404538895	-2.8744969614	-1.064939442	 0.29142
N	-1.9411209491	-3.4537274865	-1.0164520201	-0.35229
C	 0.6776485625	-0.7430033293	-1.1159843747	-0.18026
H	 0.8985866973	 1.7832666103	-0.0846757613	 0.287933
H	-1.240572325	-0.0892008375	 1.7586609416	 0.127742
H	-1.5577434525	-1.4551736936	 0.6023704694	 0.159768
H	 1.167395569	-0.7520768527	 1.9883970367	 0.102514
H	 2.28428522	-2.0928284047	-0.0735270938	 0.106772
H	 0.9059857305	-2.6918184191	-2.0027803806	 0.142681
H	 1.1554795511	-0.2535648102	-1.9566984305	 0.104577
