20
gdb 35273	3.33066	0.88267	0.79357	1.6711	85.84	-0.2423	0.0376	0.28	1503.9392	0.170058	-365.935496	-365.92625	-365.925306	-365.970397	34.723	
C	-0.1382340212	-1.1903444195	 0.1739882539	-0.450561
C	-0.0165026166	 0.0056413027	 0.2017844466	 0.38353
C	 0.0987408849	 1.4383508833	 0.1979522831	-0.258039
N	 0.9435061144	 2.0668887207	 1.2456335782	-0.31992
C	 1.3708023677	 2.1495199318	-0.153771913	 0.010803
C	 2.6396785249	 1.4164696012	-0.528000014	-0.233876
C	 3.8854210213	 2.2403991696	-0.2685355716	 0.030122
C	 4.456161651	 2.3286612148	 1.1245229278	-0.248785
C	 5.1930130381	 1.5625187049	 0.0530630053	-0.279681
H	-0.2402976924	-2.2471142995	 0.1607747999	 0.197193
H	-0.820447359	 1.9560135615	-0.0694956215	 0.108349
H	 0.5119135844	 2.9367876209	 1.5468625312	 0.234977
H	 1.2301466135	 3.10578134	-0.6585935488	 0.08502
H	 2.6825304761	 0.4839292925	 0.0437062156	 0.114284
H	 2.5893775954	 1.1358366329	-1.5887161013	 0.09998
H	 3.9583392878	 3.1445083124	-0.8693688244	 0.075163
H	 4.870634159	 3.2745133872	 1.4560676765	 0.10465
H	 3.9537892284	 1.7652644712	 1.9027546241	 0.128459
H	 5.1983954745	 0.4790743692	 0.1155226455	 0.110808
H	 6.1068082679	 1.9865349521	-0.3486743133	 0.107523
