23
gdb 59337	3.25176	0.86781	0.82491	2.0658	82.27	-0.2509	0.071	0.3219	1530.8272	0.203022	-425.423327	-425.41283	-425.411886	-425.458485	39.94	
C	 0.0827181817	 1.4999266201	-0.1076809513	-0.404404
C	 0.0249604036	-0.019822023	 0.0521151993	 0.119422
O	 0.7354537998	-0.4482052362	 1.2134525583	-0.432857
C	-1.4020844593	-0.5557776946	 0.0561279171	 0.035177
C	-2.2165837046	-0.512053969	-1.268600098	-0.286606
C	-2.7354578573	-1.9409316163	-0.9709849396	 0.421046
C	-4.1361088814	-1.976609581	-0.3678093311	-0.446029
O	-2.6558445763	-2.7667386913	-2.1191589589	-0.476729
C	-1.5948681169	-2.0960101426	 0.082905969	-0.300015
H	 1.1203719144	 1.8444062016	-0.1012250682	 0.122855
H	-0.3848271702	 1.8196084671	-1.0445344562	 0.121661
H	-0.4477173647	 1.9961664657	 0.7152481813	 0.102322
H	 0.5664320933	-0.4876422798	-0.78053931	 0.08449
H	 0.3108552258	-0.0443887022	 1.9786569168	 0.273124
H	-1.9591796763	-0.0754169805	 0.8717976959	 0.053028
H	-2.9609350415	 0.2779419558	-1.3960240887	 0.093839
H	-1.5614487579	-0.5323382619	-2.1444415593	 0.11004
H	-4.8798782439	-1.6876754727	-1.1170144217	 0.122625
H	-4.3789031701	-2.9857013	-0.0106448245	 0.104602
H	-4.2227126847	-1.2979866924	 0.4869076717	 0.116877
H	-2.9844926413	-3.6412314337	-1.8830085857	 0.271405
H	-0.7368782655	-2.6108199374	-0.3578442102	 0.106598
H	-1.8432485467	-2.5661166258	 1.0380984639	 0.087527
