17
gdb 83514	2.23192	1.94787	1.4956	2.5428	68.59	-0.2252	0.0244	0.2497	945.5461	0.138418	-455.139387	-455.131907	-455.130963	-455.170815	30.059	
N	-0.0160941899	 1.364476671	 0.068763163	-0.614001
C	-0.0278605266	-0.0021063419	 0.0402546548	 0.430322
N	-1.0802123088	-0.7416829082	 0.0152240408	-0.278833
C	-0.5461570233	-2.1228941277	-0.0064056471	-0.04389
C	 0.117799332	-2.3084577594	-1.3858916004	-0.082039
O	 1.2810218261	-1.447479663	-1.3055266228	-0.281155
C	 1.2334330892	-0.8565527067	 0.0095313548	-0.066869
C	 0.7314607944	-2.0418238822	 0.8658169852	 0.129482
O	 0.4283551487	-1.7783502231	 2.2108396833	-0.431805
H	 0.7986281822	 1.8226090648	-0.3070993494	 0.256995
H	-0.8925613879	 1.8079345303	-0.168354669	 0.258472
H	-1.2893632762	-2.8701431358	 0.2672996661	 0.079981
H	 0.4452022211	-3.337071263	-1.5783597705	 0.100072
H	-0.5376728686	-1.9739001322	-2.1960942662	 0.110639
H	 2.1980129946	-0.396602515	 0.2270580057	 0.072115
H	 1.389679464	-2.9138377718	 0.7514456157	 0.073797
H	 1.2554284089	-1.6984682462	 2.695702136	 0.286718
