20
gdb 111453	2.16535	1.67495	1.04996	2.469	80.37	-0.2213	0.011	0.2323	1173.3757	0.171421	-403.126814	-403.118177	-403.117233	-403.159923	33.281	
C	 0.2815473773	 1.2692936252	-0.3085475321	-0.499124
C	 0.1216551116	-0.2042108864	-0.1106457009	 0.300409
C	-0.105803132	-1.1401990711	-1.036740338	-0.198023
C	-0.1417836622	-2.4973478885	-0.4229321392	-0.060282
C	 1.1336997916	-2.9206864951	 0.2212574502	-0.24859
N	 0.0593446314	-2.3187625823	 1.0332824772	-0.128605
C	 0.1643794692	-0.8525432678	 1.2657432967	-0.083924
C	 1.3620196119	-0.524062963	 2.158641981	-0.055692
O	 1.2556555427	-1.1641847972	 3.4152682203	-0.424486
H	 1.2841772904	 1.6088340488	-0.0198162917	 0.133538
H	 0.1200032559	 1.5531984912	-1.3517245916	 0.127277
H	-0.4276355066	 1.8313555469	 0.3126347029	 0.130589
H	-0.2279916913	-0.9652184805	-2.0992075145	 0.098963
H	-0.8737298337	-3.232496906	-0.7473213042	 0.095948
H	 1.3165342026	-3.9671408344	 0.4506234921	 0.11615
H	 2.0185727964	-2.3374744823	-0.0190588949	 0.116914
H	-0.7303859485	-0.5595966331	 1.8368595469	 0.095188
H	 2.300335012	-0.7929954521	 1.6465812326	 0.083039
H	 1.395396219	 0.5529773355	 2.3556920683	 0.106231
H	 0.9855177124	-2.0728103476	 3.2374107887	 0.29448
