17
gdb 23485	4.04609	1.30927	1.1535	1.6099	74.81	-0.2375	0.0035	0.241	1063.8961	0.137876	-417.932905	-417.925836	-417.924892	-417.96434	28.365	
O	-0.1369383044	 1.3331840867	-0.0652992025	-0.391304
N	 0.0141266555	-0.0644591014	-0.0286779774	-0.251372
C	-1.1156467676	-0.6437487339	 0.0189902391	 0.460641
C	-2.5045955245	-0.046672794	 0.092648736	-0.343581
C	-3.3455009239	-1.2664895164	 0.4354384175	-0.03106
C	-3.2907642114	-2.5077003159	-0.3819529564	-0.034266
C	-2.0273265575	-2.6215029763	-1.2201392119	-0.254298
C	-1.2665668022	-2.1319665077	 0.0493970952	-0.098685
N	-2.5072983181	-2.399462167	 0.9130432227	-0.15199
H	 0.7770775952	 1.6368822744	-0.0563915481	 0.308089
H	-2.552561395	 0.7118880809	 0.8804612929	 0.139264
H	-2.7903676381	 0.4474287874	-0.8423793946	 0.132293
H	-4.2485088061	-1.1215991916	 1.0200060169	 0.098456
H	-4.1543095929	-3.1615422562	-0.4623646528	 0.093727
H	-1.7921200385	-3.6652629054	-1.4382847781	 0.119966
H	-1.939146859	-2.0333167076	-2.138784172	 0.107131
H	-0.3803894617	-2.6829834061	 0.3544088234	 0.09699
