19
gdb 73489	2.5003	2.17666	1.57509	1.9715	73.15	-0.2384	0.0633	0.3017	902.5436	0.162179	-423.011878	-423.005083	-423.004139	-423.042502	28.933	
O	-0.0252547249	 1.3578967355	 0.0029608496	-0.495767
C	 0.0392853487	-0.0414241249	-0.0405283584	 0.41472
C	 0.7002489933	-0.6442447113	-1.2859700975	-0.164204
O	 0.0372093277	-1.9008910909	-1.4591678391	-0.26911
C	-0.6820313121	-2.1311851381	-0.2406695891	 0.1025
C	 0.3419001367	-2.2412501074	 0.9284943872	-0.239964
C	 0.3125135578	-0.7581813541	 1.3437063996	-0.108806
C	-1.2043624864	-0.5687307265	 1.6290760639	-0.248033
C	-1.3313479411	-0.76699635	 0.1009880031	-0.080148
H	 0.8348003893	 1.691594546	 0.2786289882	 0.282765
H	 0.523042428	-0.0091938024	-2.1613978544	 0.108508
H	 1.7853283574	-0.7879967835	-1.1733095588	 0.085896
H	-1.3381936975	-2.9862194607	-0.3977308325	 0.077994
H	 0.0112518802	-2.8931978926	 1.7426201416	 0.097483
H	 1.3034559739	-2.6067140493	 0.559827315	 0.104646
H	 1.0831921697	-0.3947089424	 2.0264820111	 0.055299
H	-1.6895359081	-1.2866149893	 2.2963479992	 0.087991
H	-1.4538801702	 0.4526603198	 1.9174022336	 0.114169
H	-2.2006129126	-0.4640806781	-0.4811086324	 0.074061
