19
gdb 106605	2.53262	1.52258	1.28271	2.6438	74.82	-0.2248	-0.0187	0.2061	1078.1423	0.159267	-423.01747	-423.009175	-423.00823	-423.050399	31.659	
C	 0.0949298461	 1.550114285	 0.1580543388	-0.393621
C	-0.0746471613	 0.0384953934	-0.0541565794	-0.299441
C	 0.6790324883	-0.4869004154	-1.2543839373	 0.158453
C	 0.8776864922	-2.0179755323	-1.5782497876	-0.306788
C	 2.0103895877	-1.4931850975	-2.5020905377	-0.01803
O	 1.3002434728	-0.7222263997	-3.480685215	-0.27999
C	 0.3436777966	 0.0167416965	-2.6725166744	-0.112896
C	 2.2293696442	-0.4629855389	-1.3703000134	 0.422148
O	 3.1312459727	-0.005867512	-0.7351798733	-0.325823
H	 1.1526310148	 1.8083662966	 0.260469431	 0.14681
H	-0.3156592351	 2.125761255	-0.677666885	 0.117611
H	-0.4237825818	 1.8715686622	 1.0657069186	 0.116985
H	 0.2812238415	-0.4921855333	 0.837024433	 0.109933
H	-1.1394581222	-0.2099065412	-0.1550227579	 0.101792
H	 1.229641877	-2.5968252343	-0.7217360101	 0.120635
H	 0.0534776251	-2.5170569456	-2.0925257145	 0.118056
H	 2.7773523942	-2.10553218	-2.9679216421	 0.101539
H	-0.6774709774	-0.2337453806	-2.9855038486	 0.106417
H	 0.5034119447	 1.092563062	-2.8016755351	 0.116209
