19
gdb 92283	3.78143	1.37897	1.15529	1.7405	74.34	-0.2193	0.0226	0.2419	1082.6356	0.162539	-419.21641	-419.208897	-419.207953	-419.248629	29.104	
C	-0.4428530187	 1.4562716444	 0.4741638204	-0.329434
N	 0.1367486404	 0.2137811031	-0.0305312119	-0.058333
C	-0.8721599112	-0.7610526485	-0.4524962506	-0.206463
C	-1.2688529554	-1.5620245319	 0.8131984194	 0.077898
O	-1.3489381512	-2.986734499	 0.5683112443	-0.228659
C	-0.3030189461	-3.5267999402	 1.2419477455	 0.107693
N	 0.4534822295	-2.788696915	 1.9425629496	-0.26648
C	-0.0454114889	-1.4174376452	 1.7648612544	-0.016156
C	 0.9361335933	-0.4992256461	 0.9720351811	-0.186811
H	 0.3614010238	 2.143472769	 0.7528109168	 0.125218
H	-1.0275064442	 1.93213025	-0.3188557558	 0.122994
H	-1.1022808598	 1.3366202096	 1.3537212546	 0.094757
H	-1.7139419509	-0.265273789	-0.9404428311	 0.106336
H	-0.4301362162	-1.4646349717	-1.1687171556	 0.114518
H	-2.2256552739	-1.2534739251	 1.2373982976	 0.095249
H	-0.1998082595	-4.5995029431	 1.1193794085	 0.140218
H	-0.2948606324	-0.9888956208	 2.7386685993	 0.088336
H	 1.6705553137	-1.137848421	 0.4686720548	 0.112918
H	 1.4790524379	 0.2038684005	 1.6068093486	 0.106202
