19
gdb 110428	2.62222	1.53488	1.18167	3.4002	78.35	-0.2338	0.009	0.2428	1106.4192	0.159326	-385.865182	-385.857191	-385.856247	-385.898035	30.959	
C	 0.0417707961	 1.5022033224	 0.2156539058	-0.380445
C	 0.0268094948	-0.0154930716	 0.0022236995	-0.211284
C	-1.3797659441	-0.6029207308	 0.022375418	 0.020965
C	-1.6031279113	-2.1242074294	 0.0177918579	-0.094858
C	-2.7763976168	-2.0228058184	 0.9303784262	-0.090189
C	-1.4599939215	-2.6329646615	 1.4637215729	-0.195456
C	-1.3189863554	-1.4186287953	 2.3263155543	 0.444479
O	-0.901411407	-1.2177758378	 3.4325725609	-0.349129
C	-2.2020434027	-0.6091189013	 1.3534441702	-0.198273
H	 1.0605570492	 1.8979558691	 0.1695794829	 0.116756
H	-0.5509806364	 2.0170338058	-0.5489361142	 0.112379
H	-0.3722647197	 1.7677664368	 1.1939033661	 0.128364
H	 0.4938533689	-0.2585259417	-0.9611520433	 0.095487
H	 0.6399918946	-0.5011316419	 0.7713278148	 0.111392
H	-1.9916304634	-0.1584815395	-0.7716790801	 0.077327
H	-1.451585603	-2.821136059	-0.7977753053	 0.097418
H	-3.7657849313	-2.4512768379	 0.9519863056	 0.115214
H	-1.2478940435	-3.6682035259	 1.6916718269	 0.109936
H	-2.7639994275	 0.253859668	 1.6990407309	 0.089915
