15
gdb 131534	2.77441	1.53282	1.03702	2.4383	69.14	-0.2156	0.0124	0.228	1087.8411	0.113975	-453.908649	-453.900955	-453.900011	-453.941066	28.769	
O	 0.2568019892	 1.4065180466	-0.232131068	-0.41681
C	 0.0078053559	 0.0489372181	-0.0025537209	-0.020213
C	 0.2310288763	-0.5215798563	 1.4694339403	-0.200164
N	-1.1977374474	-0.8636783984	 1.4285544771	 0.084257
N	-2.1292954314	-1.6448386816	 1.9610079634	-0.291691
C	-3.0655569976	-1.6653859	 0.991072997	-0.054095
C	-2.6780223988	-0.9498873014	-0.173411315	 0.083176
O	-3.4410439886	-0.8426765546	-1.2930316621	-0.433305
C	-1.4335197159	-0.4366418414	 0.1638730599	 0.154058
H	-0.3555448927	 1.9181900509	 0.3089882332	 0.287626
H	 0.5906603292	-0.4948107637	-0.7499123668	 0.118265
H	 0.8928761354	-1.3889723288	 1.5375366426	 0.137928
H	 0.498892592	 0.2238678977	 2.2231495537	 0.127078
H	-3.9995354944	-2.1845214305	 1.1471472853	 0.119722
H	-2.9553401913	-0.3470024365	-1.9587475997	 0.304166
