17
gdb 50496	3.91765	1.07103	1.01223	3.1086	74.3	-0.2469	-0.0279	0.219	1202.6427	0.134324	-421.800246	-421.791579	-421.790635	-421.834589	31.465	
O	 0.145652799	 0.122653943	 0.959144332	-0.23633
C	 0.0477136078	 1.1711578362	 0.3801984211	 0.150699
C	 1.2174971262	 1.9422557201	-0.2219114454	 0.030995
C	 1.6449837542	 3.070608078	 0.7430329022	-0.257896
C	 2.6587047708	 2.3293605971	 1.6253245974	-0.247384
C	 3.3405888509	 1.3850163969	 0.6098485368	-0.051986
O	 2.3498108619	 1.1154936173	-0.3972570312	-0.251177
C	 4.5344336604	 1.9753080684	-0.000360831	 0.34866
C	 5.515863322	 2.4676617232	-0.4889192534	-0.477986
H	-0.9342999983	 1.691284212	 0.2712412821	 0.072613
H	 0.9035792301	 2.3338689836	-1.1985404256	 0.100143
H	 2.1289533441	 3.8729565649	 0.1799960665	 0.128881
H	 0.8110913591	 3.4995606008	 1.3046928351	 0.115322
H	 3.369862174	 2.9913659087	 2.1200136945	 0.123837
H	 2.1446916223	 1.7324413945	 2.383295339	 0.1282
H	 3.6058520289	 0.4290172915	 1.0739873753	 0.121601
H	 6.3863171066	 2.8913366837	-0.9258674352	 0.201807
