20
gdb 111260	3.05241	1.2325	0.97829	3.5357	80.29	-0.2289	-0.014	0.2149	1277.203	0.169483	-403.131403	-403.121958	-403.121014	-403.165747	34.737	
C	-0.1649802321	 1.5107189652	 0.0471598107	-0.382024
C	 0.1012610432	 0.0027832541	 0.1184426583	-0.200907
C	 0.7386922222	-0.536710064	-1.1595375304	-0.10008
C	 0.8862874244	-2.0558847565	-1.3631572835	-0.141982
N	-0.480378329	-2.599985491	-1.3620971277	-0.361187
C	 0.0928539309	-2.0498266363	-2.6442192782	 0.206231
C	 0.1602555522	-2.8557992584	-3.9020042668	-0.5141
C	-0.0736627929	-0.5485207541	-2.4934961051	 0.399155
O	-0.5008832777	 0.3111224983	-3.2099381256	-0.318706
H	 0.7673022038	 2.0737891197	-0.0744248364	 0.110169
H	-0.8099163372	 1.7561054227	-0.8014274145	 0.142069
H	-0.6512773231	 1.86538944	 0.9609464963	 0.110095
H	 0.7626061214	-0.2189451494	 0.9663252757	 0.092401
H	-0.8315371126	-0.5401331913	 0.298638329	 0.122305
H	 1.6859656916	-0.0216360826	-1.3702237014	 0.096108
H	 1.7455098482	-2.6700564774	-1.1238035876	 0.103282
H	-0.4129888322	-3.6150928244	-1.4504215276	 0.232606
H	 0.5603513533	-3.8570182564	-3.7086753674	 0.120583
H	-0.8335491676	-2.967903588	-4.3483001599	 0.144473
H	 0.8031966231	-2.3684362803	-4.6414735078	 0.139511
