16
gdb 96790	3.05465	1.3835	1.01477	2.6761	75.89	-0.2477	-0.0249	0.2228	1149.0944	0.124911	-434.061791	-434.053746	-434.052802	-434.094768	29.802	
C	-0.0435704012	 1.3965571818	 0.0747767371	-0.343915
N	-0.0374500991	-0.0557279447	 0.0146888757	-0.319892
C	 0.5702565478	-0.6198195595	-0.941656873	 0.44425
N	 1.2639694713	-0.055818218	-2.0210519997	-0.411625
C	 1.6736057247	-0.9774525189	-2.9890524275	 0.40963
N	 2.2034545194	-0.7890997592	-4.1260598951	-0.539433
C	 1.3318914432	-2.3286288645	-2.4281916773	-0.025753
O	 2.0000247282	-2.5740606587	-1.183553495	-0.241231
C	 0.6451144361	-2.1032569059	-1.1459935857	-0.068207
H	 0.9142402505	 1.7817183384	 0.4522811239	 0.128021
H	-0.237310458	 1.8708203154	-0.9003569264	 0.105287
H	-0.8222547356	 1.7258261939	 0.7666934891	 0.135776
H	 1.5027751196	 0.9210838376	-2.0717112023	 0.258698
H	 2.341133184	 0.2037066045	-4.3264314428	 0.213328
H	 1.1826758788	-3.1742108385	-3.0883268534	 0.128826
H	-0.0951291597	-2.7558629539	-0.6996360675	 0.126241
