19
gdb 57938	2.77851	0.97078	0.8712	2.7954	73.9	-0.2599	-0.0527	0.2072	1417.2634	0.154955	-460.204703	-460.19415	-460.193206	-460.241917	36.814	
C	 0.7316804772	 0.6828133497	-0.5796111526	-0.403338
C	-0.2994513	-0.0680174271	 0.2814761498	 0.056389
O	-0.0621760128	 0.1741756893	 1.6421370339	-0.436739
C	-1.7285322125	 0.3293363737	-0.0749742357	 0.355045
O	-2.4192854713	 0.9019381006	 0.7432275663	-0.332558
C	-2.2764306306	-0.0803183721	-1.4341339062	-0.383635
C	-3.140387102	-1.3453425695	-1.2347983119	 0.381174
C	-4.5684491438	-1.1013850775	-0.8062017799	-0.481441
O	-2.6638153907	-2.4413253637	-1.3944951808	-0.283353
H	 1.7318122683	 0.3999988272	-0.2435848226	 0.142731
H	 0.64404842	 0.4386234268	-1.6419959094	 0.119183
H	 0.6210915985	 1.7635936299	-0.4500419306	 0.128845
H	-0.2159204346	-1.1476893155	 0.0679335155	 0.11153
H	-0.8598530311	 0.6171174601	 1.9714002271	 0.292629
H	-2.886694943	 0.7403626574	-1.8195351925	 0.137411
H	-1.4764137673	-0.3282385762	-2.1316196998	 0.13642
H	-5.1220700972	-0.6397809112	-1.6326966849	 0.145484
H	-5.0454851416	-2.0419537545	-0.5294480721	 0.146308
H	-4.5909512456	-0.3911753875	 0.0267332764	 0.167915
