14
gdb 29149	3.04518	1.46388	0.99463	2.9105	69.68	-0.2281	-0.076	0.1521	1105.854	0.099991	-473.871549	-473.863643	-473.862699	-473.904024	29.385	
C	-0.0343750149	 1.4848903565	-0.0293488922	-0.461773
C	-0.0036220864	-0.0103289259	-0.0493567803	 0.177379
N	-0.0241629466	-0.6582762827	-1.1684386818	-0.287848
C	 0.0049990566	-2.026311202	-1.1413352501	 0.312353
O	-0.0209939122	-2.5873886825	-2.3768568794	-0.406201
C	 0.0544821216	-2.7105858293	 0.021714194	-0.086677
O	 0.0772270756	-2.0566740681	 1.2129922507	-0.192241
C	 0.050746141	-0.6831345745	 1.2702303316	 0.388644
O	 0.0707303564	-0.1288490676	 2.3381364039	-0.332416
H	 0.8470739063	 1.8758525878	 0.490104744	 0.153324
H	-0.070464264	 1.8700985186	-1.0483645498	 0.143463
H	-0.9020411944	 1.8391305861	 0.5376133513	 0.153304
H	 0.0011543404	-3.5471859648	-2.2965672078	 0.304616
H	 0.0801498208	-3.7867286515	 0.1352421959	 0.134074
