16
gdb 87551	2.59986	1.58362	1.16688	3.4084	70.88	-0.2349	-0.0185	0.2165	1048.54	0.12329	-437.822749	-437.814766	-437.813822	-437.855348	30.244	
O	-0.1194711355	 1.4438309079	-0.0436123744	-0.417337
C	-0.0191909086	 0.0528164474	-0.0633622254	 0.044839
C	-0.3918162576	-0.7281402993	 1.1696118671	-0.398514
C	-1.3195107635	-0.6807948187	-0.0261699523	 0.256972
C	-2.7367593049	-0.1435941579	-0.1117584259	-0.158646
N	-3.0150152428	 0.0034922238	-1.5462222274	-0.327367
C	-3.1835077595	-1.3465124639	-0.9009621978	-0.191273
C	-1.7770975585	-1.9174118369	-0.7914190579	 0.393403
O	-1.2679920947	-2.9726378226	-1.0374846679	-0.325699
H	 0.6452505561	 1.789792355	 0.4289627555	 0.292115
H	 0.75683449	-0.3579564485	-0.7093168476	 0.106064
H	 0.1065392155	-1.6719031241	 1.3673906224	 0.13509
H	-0.6890279562	-0.1561062915	 2.0426263869	 0.122883
H	-3.285922799	 0.3929549235	 0.6496750874	 0.113643
H	-3.9598862098	 0.3789846712	-1.6438593891	 0.238438
H	-4.1333225609	-1.8639335356	-0.9303068037	 0.115389
