21
gdb 108972	3.92151	1.17881	1.06637	0.2724	88.64	-0.2091	0.0144	0.2234	1230.9664	0.183998	-349.907736	-349.899976	-349.899032	-349.940136	31.264	
C	-0.2345756715	 1.5311798682	-0.0937276174	-0.370594
C	 0.1451506911	 0.044831069	 0.0403366565	-0.306171
C	 0.8106886932	-0.5046682252	-1.1787793273	 0.329409
C	 2.0506133807	-0.9686998794	-1.3723268934	-0.242536
C	 2.0818002492	-1.3639627818	-2.8379296423	-0.04371
C	 1.2601899754	-0.2761815926	-3.627074591	-0.034638
C	 0.7147187179	-1.3678998733	-4.5763386388	-0.254151
C	 0.6837801054	-2.008446705	-3.1698335149	-0.034827
C	 0.1683379318	-0.652298543	-2.5580397402	-0.105499
H	 0.6553868916	 2.1456072163	-0.2611147803	 0.119976
H	-0.9142637656	 1.6934164489	-0.9365259875	 0.118653
H	-0.7331640664	 1.8900300112	 0.8121252661	 0.111175
H	 0.8052440082	-0.0881929161	 0.9050835361	 0.101877
H	-0.7666628829	-0.5312159246	 0.254212268	 0.101909
H	 2.8620211752	-1.0582229964	-0.6625048423	 0.093872
H	 2.9867408453	-1.7822148544	-3.2813328562	 0.057094
H	 1.5975411894	 0.7334047069	-3.878346229	 0.064192
H	-0.2519249369	-1.1709983373	-5.0491058291	 0.086825
H	 1.4215078371	-1.7931746033	-5.2949293643	 0.087662
H	 0.3510080304	-3.0117479326	-2.8891655578	 0.064262
H	-0.8690440887	-0.3507085352	-2.7164987351	 0.055221
