19
gdb 112034	2.50005	1.51293	1.26693	0.9833	87.09	-0.2211	-0.0368	0.1843	1099.7094	0.160364	-385.892666	-385.884401	-385.883457	-385.925545	31.566	
C	-0.1039290638	 1.4616016671	-0.0930584732	-0.230855
O	-0.0650225807	 0.1107066802	 0.3073574624	-0.243833
C	-1.2966128537	-0.5849945407	 0.1045137449	 0.047153
C	-1.6738585503	-0.732209682	-1.347942177	-0.126972
C	-0.9278570754	-1.3805627827	-2.2696543951	-0.050699
C	 0.2149576123	-2.2174185524	-2.0341927321	-0.088584
C	 0.4912857049	-2.8905605758	-0.8851295529	-0.088497
C	-0.3025471503	-2.8923381802	 0.311498536	-0.036138
C	-1.1681351155	-1.9438361937	 0.7280221216	-0.12284
H	 0.8624927804	 1.8995657441	 0.1686579843	 0.124337
H	-0.2603251877	 1.5739015733	-1.1750766422	 0.106444
H	-0.8980073213	 2.0194765387	 0.4308072498	 0.094464
H	-2.0981276259	-0.0288936285	 0.6156301753	 0.06113
H	-2.581591654	-0.2320587499	-1.6761483584	 0.093032
H	-1.2345648121	-1.290585535	-3.3105419352	 0.092654
H	 0.8465375909	-2.4203706669	-2.8955865143	 0.089903
H	 1.3266086718	-3.5862989434	-0.9043023638	 0.091167
H	-0.1995688919	-3.7770539408	 0.9374710552	 0.092273
H	-1.7747293178	-2.1399399112	 1.6073057548	 0.095859
