18
gdb 39458	2.62463	1.7784	1.18054	1.7804	72.61	-0.2548	0.0017	0.2565	1034.1626	0.149573	-439.060107	-439.052658	-439.051713	-439.09187	29.283	
C	 0.0714832944	 1.6179490251	-0.0090184455	-0.333104
C	 1.2151503489	 0.7006982271	-0.3871845162	-0.030027
C	 2.4783427185	 0.6710308838	 0.4471501486	-0.191019
N	 3.1527835141	-0.62075392	 0.3085047856	-0.209653
C	 2.7989407708	-1.5727728407	 1.0519502572	 0.096849
O	 1.8705044205	-1.5519171679	 2.0689482047	-0.23323
C	 0.4774266046	-1.5524161987	 1.7678778024	 0.023597
O	-0.0656756251	-0.2877025327	 1.5386635253	-0.228476
C	-0.0550060433	 0.1404098394	 0.2015024562	 0.107385
H	 0.1880906951	 2.2154414418	 0.8887178604	 0.130087
H	-0.5116455972	 2.0859341506	-0.7938465356	 0.117905
H	 1.3701891116	 0.5157373103	-1.4465105721	 0.09672
H	 3.1703485553	 1.4433946408	 0.0975767342	 0.107607
H	 2.2244437324	 0.8801086365	 1.4930816934	 0.116953
H	 3.3052183787	-2.536585514	 0.9776168452	 0.116068
H	 0.2862674958	-2.2224198879	 0.917779661	 0.095221
H	 0.0026843629	-1.9325863615	 2.674118949	 0.124515
H	-0.7239740981	-0.4290182021	-0.4423864837	 0.092599
