23
gdb 95338	2.96047	1.33582	1.0772	1.1848	85.47	-0.2399	0.0817	0.3216	1224.7378	0.208147	-388.296411	-388.288117	-388.287173	-388.328945	33.427	
C	-0.0799041876	 1.5236888918	 0.0802463811	-0.401559
C	-0.0084241006	 0.0057340605	 0.0021364668	 0.139887
C	 0.7466124884	-0.4943613739	-1.2348227216	-0.203898
C	 0.8890031789	-2.0285180866	-1.2537509626	-0.028891
C	 2.3147687929	-2.507413422	-1.6517918947	-0.227315
C	 2.6776972387	-2.5558986546	-0.1418274755	-0.23303
C	 1.1571931139	-2.6141532141	 0.17044214	 0.026634
C	 0.5684729661	-1.8489096895	 1.3454942106	-0.112035
O	 0.6540432758	-0.4442409765	 1.1815614465	-0.256226
H	 0.9279687736	 1.9500444786	 0.1070933935	 0.121535
H	-0.6055424489	 1.9310311756	-0.7887929888	 0.110883
H	-0.6065235768	 1.8359791688	 0.9859706903	 0.120358
H	-1.0341895913	-0.40697784	-0.0059979562	 0.055785
H	 0.2484968069	-0.1494068871	-2.1481992482	 0.091545
H	 1.7367497952	-0.0222954321	-1.2192931224	 0.097787
H	 0.0535026488	-2.4785505793	-1.7978041935	 0.058787
H	 2.298204767	-3.5085400832	-2.092318404	 0.096333
H	 2.8991878027	-1.8494552204	-2.3010218232	 0.092317
H	 3.2995854696	-3.383149361	 0.2086059651	 0.091308
H	 3.1167129018	-1.6160200718	 0.2042393817	 0.111656
H	 0.825789849	-3.6572466792	 0.2185076529	 0.067177
H	-0.4884810078	-2.139774604	 1.4816807643	 0.079607
H	 1.0984632737	-2.0818288201	 2.2760112879	 0.101356
