19
gdb 110731	2.15886	1.31808	1.23467	3.1894	76.75	-0.2356	-0.0073	0.2283	1166.2727	0.157573	-423.013944	-423.004599	-423.003655	-423.048408	34.154	
C	-0.2473695791	 1.4639417118	 0.1647326962	-0.498558
C	-0.0072885386	-0.0161513955	 0.0792716708	 0.211219
C	-0.6483046501	-1.0167476621	 1.0351891819	-0.039161
C	-1.5690076226	-2.1413606629	 0.6225360852	-0.113026
O	-2.860544655	-1.5752019529	 0.4505013087	-0.418518
C	 0.8381235371	-1.0156525631	 0.944469147	-0.137131
C	 1.3273519525	-1.7585550184	-0.3061730414	-0.363288
C	 0.5123095606	-0.7306266606	-1.1353058251	 0.354384
O	 0.4982570988	-0.458726081	-2.3038759374	-0.317335
H	 0.5656545013	 2.0254356172	-0.3063708371	 0.128411
H	-1.1782608813	 1.7325147214	-0.3453049056	 0.144597
H	-0.3332795094	 1.7897701839	 1.2059726767	 0.120357
H	-1.0258433566	-0.5040101003	 1.9187380918	 0.102994
H	-1.2208842134	-2.6214033019	-0.3020994579	 0.097603
H	-1.5745617512	-2.9121306837	 1.4111037796	 0.088804
H	-3.4582181157	-2.2719941252	 0.1637448526	 0.289662
H	 1.4674116234	-0.755984657	 1.7865193064	 0.101506
H	 2.3941303701	-1.6183806453	-0.50544488	 0.130051
H	 1.0886261492	-2.8209346546	-0.4032578622	 0.117431
