21
gdb 72480	2.60093	1.75601	1.47399	0.8586	77.06	-0.2405	0.0812	0.3217	1001.9962	0.184904	-424.246034	-424.238407	-424.237462	-424.277465	31.59	
C	-0.0087477431	 1.4982190227	 0.0627782641	-0.45319
C	-0.0125139149	-0.017604724	-0.0248555987	 0.39175
C	 0.7308836932	-0.6201486641	-1.2271766174	-0.255478
C	 0.8934668661	-2.0490828859	-0.6943167921	 0.089341
C	 1.3668091799	-1.7553266556	 0.7364226563	-0.107264
O	 0.7264089245	-0.5312464768	 1.1109551788	-0.313287
O	-0.358701359	-2.7259881688	-0.739174259	-0.276191
C	-1.3542076412	-2.1497049622	 0.1032426054	-0.079459
C	-1.4343811024	-0.6193229042	-0.009362198	-0.24496
H	 1.0159657705	 1.8794713087	 0.0278849872	 0.117238
H	-0.5727161057	 1.9362998373	-0.7666579431	 0.113676
H	-0.4654644069	 1.8287586271	 1.0006740535	 0.123203
H	 0.1651146929	-0.5879391019	-2.159872754	 0.103935
H	 1.7014629279	-0.1336734213	-1.3709273771	 0.096208
H	 1.5922064839	-2.6720872326	-1.256219942	 0.081567
H	 1.0931237932	-2.5551259365	 1.4338214539	 0.108872
H	 2.4576850127	-1.6286926514	 0.7675237102	 0.096509
H	-2.2975949359	-2.6194029111	-0.1884449847	 0.106079
H	-1.1618786888	-2.4182361238	 1.1516001768	 0.103456
H	-2.0040349128	-0.2279140063	 0.8407876753	 0.099291
H	-1.9583768039	-0.3232372292	-0.9255201953	 0.098707
