18
gdb 47410	2.70718	1.64057	1.25031	3.3542	71.98	-0.2268	0.0174	0.2442	1039.0524	0.149533	-439.113662	-439.105677	-439.104732	-439.146673	29.886	
O	-0.119911859	-0.0123550227	 0.3048093556	-0.391041
C	-0.0758328357	 1.1947454057	 0.2015565402	 0.391645
N	-1.1320835804	 2.0523172192	 0.0986959909	-0.320957
C	-0.7737034527	 3.4532577147	-0.0647075469	-0.173586
C	 0.6979169042	 3.4721557199	 0.407463756	-0.293987
C	 1.1988938948	 2.0614537974	 0.1218944429	 0.345862
C	 2.4521876819	 1.4650107095	 0.781639823	-0.352492
C	 2.9276209502	 1.2185170773	-0.6628930255	-0.067355
O	 1.7802417835	 1.9161314173	-1.203754623	-0.32616
H	-2.0695664774	 1.7011464998	-0.0177095975	 0.253282
H	-0.8629015987	 3.7734319751	-1.1108627063	 0.122423
H	-1.4148682404	 4.0994345322	 0.5426323019	 0.114532
H	 1.2994817066	 4.2280303663	-0.0999506427	 0.119767
H	 0.7369679647	 3.6571628588	 1.486346593	 0.11663
H	 3.0487177097	 2.1824807036	 1.3479112025	 0.106825
H	 2.2624219596	 0.5724773397	 1.3782038515	 0.133437
H	 3.8665531212	 1.6971841312	-0.9624539166	 0.101869
H	 2.9398942577	 0.166861355	-0.9680056589	 0.119304
