21
gdb 118450	2.12102	0.992	0.73992	1.3474	76.38	-0.2351	-0.0178	0.2173	1574.1261	0.178324	-461.363428	-461.352034	-461.35109	-461.401162	38.86	
C	 0.0643896769	 1.3741014777	 0.1805511202	-0.244355
O	-0.0124543753	 0.0030217559	-0.1618020696	-0.230033
C	-1.2883402118	-0.568224039	-0.0382438726	 0.010705
C	-1.2625590832	-1.9122413906	-0.7817261225	-0.229096
C	-0.9566475129	-1.7537579622	-2.2745730184	-0.066644
O	-0.9867872837	-2.9949332859	-2.9617015588	-0.41801
C	-1.7102324454	-0.7640083513	 1.4321175525	 0.363484
C	-3.1259745072	-1.2638628865	 1.6765865438	-0.48124
O	-0.9485298452	-0.5351686815	 2.3407931788	-0.294424
H	 1.0834293316	 1.6973205069	-0.0440591734	 0.128442
H	-0.6362547782	 1.9741676008	-0.421395599	 0.098713
H	-0.1378610903	 1.5413123118	 1.2435360115	 0.133619
H	-2.0495321346	 0.0843193286	-0.5088142012	 0.072335
H	-0.4985370301	-2.5460137444	-0.313155499	 0.109744
H	-2.2245236355	-2.4225092329	-0.6743285666	 0.111517
H	-1.7291392018	-1.1345238362	-2.7454193972	 0.106382
H	 0.002325581	-1.2372065906	-2.4033036625	 0.113536
H	-0.2198213474	-3.504496621	-2.6820625112	 0.283202
H	-3.8378251953	-0.8616897835	 0.9496612167	 0.131334
H	-3.149254264	-2.356012023	 1.5869792702	 0.153666
H	-3.4308974976	-0.9987899731	 2.6901388083	 0.147123
