17
gdb 77613	2.03722	1.64768	1.30289	3.8473	74.65	-0.2303	-0.0078	0.2225	1063.4065	0.135139	-417.967941	-417.95889	-417.957945	-418.001694	32.916	
C	 0.0186201824	 1.5856525844	 0.028289743	-0.49103
C	 0.0182678628	 0.0855405239	 0.0527518774	 0.158726
C	 0.6622760234	-0.789188158	-1.0240261155	-0.125467
O	 1.1429352346	-1.7516805153	-0.0417094706	-0.317855
C	 0.638519817	-0.9416724156	 1.0164365368	 0.278413
C	 1.3512714211	-0.7858068924	 2.237112623	 0.214859
N	 1.8830636899	-0.6395695237	 3.2560544639	-0.356631
C	-0.8831551326	-0.7832492246	 0.8904042406	-0.093117
N	-1.6658870427	-0.1658666914	 1.9170218823	-0.524446
H	 1.0157268376	 1.9740698379	-0.2007966412	 0.137357
H	-0.6738097643	 1.9508080733	-0.7389631229	 0.139932
H	-0.2971440253	 2.0203469574	 0.9796043174	 0.134257
H	 0.0004116672	-1.2511614059	-1.7643654301	 0.117242
H	 1.506247887	-0.3021176482	-1.5257235147	 0.120495
H	-1.3834839395	-1.6243666642	 0.4127403221	 0.112892
H	-1.8680927065	-0.8369548171	 2.6522720414	 0.250295
H	-1.1753717921	 0.6053109393	 2.3573524372	 0.244078
