16
gdb 125009	2.3574	1.85808	1.04613	4.1541	79.03	-0.209	-0.0446	0.1644	1091.9364	0.124466	-434.068177	-434.059703	-434.058759	-434.101143	31.694	
C	-0.0117656721	 1.5213511848	-0.0448009676	-0.522658
C	 0.0125692561	 0.0178371535	-0.0435540574	 0.168343
C	-1.1277049512	-0.7313757969	 0.0186850832	 0.222206
N	-2.3953795402	-0.2572157461	 0.0612703372	-0.580378
C	-1.0209992524	-2.1964921256	 0.020003649	 0.390808
N	-2.072784032	-2.9126093982	 0.103149273	-0.560259
O	 0.2211352138	-2.7458705852	-0.0639902639	-0.286095
N	 1.4085143243	-1.9878438722	-0.1364548568	-0.127626
C	 1.2415342421	-0.7076902267	-0.1203393311	-0.006916
H	 0.9966460112	 1.9329574431	-0.132421269	 0.135904
H	-0.6038944946	 1.9145850461	-0.8809508904	 0.137335
H	-0.4489468748	 1.9239855271	 0.8788375028	 0.13125
H	-2.5756872609	 0.7065217204	 0.2790772112	 0.261286
H	-3.113579804	-0.9465260518	 0.2320107466	 0.282986
H	-1.8460102814	-3.9063199872	 0.0977249	 0.229777
H	 2.1808461962	-0.1617682251	-0.1771108869	 0.124037
