18
gdb 27227	3.16923	1.63138	1.0915	1.3033	86.74	-0.1946	0.0024	0.1969	1095.0124	0.149527	-364.863499	-364.855766	-364.854822	-364.896136	29.861	
C	-0.0160176859	 1.5230812762	 0.0228880537	-0.501093
C	 0.0114848081	 0.0243892543	-0.0002492239	 0.094561
C	 0.0019124309	-0.7932379202	-1.1057460373	 0.289047
C	-0.0332281461	-0.8005890683	-2.6108588989	-0.415748
C	-0.0119084588	-2.2927403921	-2.9110946821	-0.141565
C	 0.0286060868	-2.9861430452	-1.7665883851	-0.011188
N	 0.0377463198	-2.1078726597	-0.6746472449	-0.006119
C	 0.0706099768	-2.1560445886	 0.6947019856	-0.140561
C	 0.054728318	-0.8511493412	 1.1370304244	-0.233271
H	 0.8796733868	 1.9401810881	 0.4989002453	 0.124047
H	-0.070538413	 1.9346751707	-0.9893652378	 0.114968
H	-0.8796021913	 1.905551383	 0.5799892552	 0.123955
H	-0.9308542676	-0.3187431085	-3.0215996834	 0.129811
H	 0.8253036897	-0.2855588861	-3.0628021289	 0.129836
H	-0.0273210166	-2.7154963187	-3.9042839656	 0.106935
H	 0.0530296866	-4.0536307056	-1.6025775742	 0.129151
H	 0.1010598521	-3.0914490009	 1.2293506864	 0.116939
H	 0.0721236235	-0.5412178173	 2.1719688815	 0.090296
