19
gdb 88791	2.85743	1.31545	1.08177	1.0599	77.13	-0.2315	0.0175	0.249	1171.525	0.159484	-419.170643	-419.162089	-419.161145	-419.204085	32.145	
C	 0.0197464328	 1.5698353562	-0.2908126607	-0.439184
C	-0.0927032906	 0.0899672272	-0.0018731159	 0.029904
C	 1.0647349174	-0.829942794	-0.2035914819	-0.264223
N	 0.5668641065	-0.5427178734	 1.1435925417	-0.10815
C	 1.3481823717	 0.225927327	 2.081115228	-0.085574
C	 2.1121309641	-0.5921324319	 3.1501850245	-0.099686
O	 3.3520864275	 0.1064760895	 2.8092970201	-0.247374
C	 2.7465731989	 0.7831039508	 1.7780660653	 0.417771
N	 3.2334222727	 1.5581797981	 0.9181508395	-0.544228
H	 1.0431524764	 1.9337275635	-0.1675585066	 0.171963
H	-0.2952037752	 1.7692104922	-1.3208283153	 0.119093
H	-0.6396591603	 2.1483410864	 0.3670943816	 0.114071
H	-1.0873717188	-0.3218134618	-0.1709600108	 0.089276
H	 0.9139074253	-1.8499102587	-0.5477595256	 0.111582
H	 2.0025425876	-0.3720271599	-0.5082617149	 0.137267
H	 0.7118031308	 0.9950590648	 2.5292542168	 0.116389
H	 1.843985832	-0.43137366	 4.1962224516	 0.121965
H	 2.1874953055	-1.6577018101	 2.9235008163	 0.129034
H	 4.2403957457	 1.6763107141	 1.0448482364	 0.230104
