12
gdb 27032	3.02978	1.33576	0.92705	2.5331	67.72	-0.2044	-0.0078	0.1966	1138.2098	0.076046	-472.643068	-472.634879	-472.633935	-472.675821	29.806	
O	 0.1399405317	 1.3483374781	 0.0064812994	-0.406866
C	-0.0104948527	 0.0268210531	 0.0009346631	 0.306614
C	-1.1280829954	-0.732851794	 0.0032291113	 0.056182
N	-0.6356398739	-2.0698165167	-0.0062239811	-0.455156
C	 0.7229875895	-2.100551745	-0.0136334105	 0.490219
O	 1.5068627188	-3.0043900921	-0.0222565168	-0.387554
O	 1.1114729761	-0.7386592833	-0.0089974074	-0.242943
C	-2.4857156131	-0.394640115	 0.0123312702	 0.283578
C	-3.6637613233	-0.1391194054	 0.0200762366	-0.448318
H	 1.0844751636	 1.5480987843	 0.0039698826	 0.321908
H	-1.2009519558	-2.90031934	-0.0069919219	 0.283349
H	-4.6974366755	 0.103302616	 0.0269426145	 0.198987
