21
gdb 83532	2.19042	1.916	1.30744	0.7977	77.8	-0.2304	0.0649	0.2954	1053.7226	0.182519	-424.193679	-424.185085	-424.184141	-424.225994	34.565	
C	-0.0911340655	 1.5745769552	-0.0291796623	-0.466556
C	-0.0198286816	 0.0451150398	 0.0197004886	 0.344545
C	-1.4481499691	-0.4997836563	 0.1303283759	-0.477893
C	 0.9148184551	-0.695487968	-1.0292951905	-0.136517
C	 2.2187170552	 0.0831059862	-0.8425273884	-0.101918
O	 2.261755142	 0.1487770173	 0.613706298	-0.280273
C	 1.0606992032	-0.5580198122	 0.9773526657	-0.004334
C	 1.188170008	-1.8009450919	 0.0408665154	 0.136635
O	 0.2415730293	-2.8402678588	 0.0776598538	-0.435293
H	 0.8742244822	 2.0464061109	 0.1556314059	 0.133969
H	-0.4692594935	 1.9142955949	-1.0007407342	 0.110194
H	-0.788193903	 1.9405555352	 0.7325062335	 0.109857
H	-2.0536361849	-0.1029763304	-0.693373639	 0.108147
H	-1.5025994428	-1.5843689199	 0.1035282981	 0.145189
H	-1.9088850451	-0.1489600785	 1.0617165188	 0.105284
H	 0.5944894119	-0.9340348183	-2.0435568079	 0.073492
H	 3.1019272495	-0.4468253084	-1.2161822553	 0.10221
H	 2.2066164385	 1.0920453799	-1.2665165689	 0.103849
H	 0.9715507759	-0.5995618257	 2.0638735395	 0.068359
H	 2.2076277554	-2.2094060597	 0.0270260908	 0.074321
H	 0.4089453494	-3.3616595416	 0.8694463024	 0.286733
