17
gdb 128538	3.39038	1.24495	0.92123	1.878	72.77	-0.1906	0.0393	0.2298	1245.8883	0.135317	-455.143255	-455.133717	-455.132773	-455.179275	32.803	
C	 0.0812057142	 1.2846044331	 0.2319300962	-0.248946
O	 0.0528186389	-0.1254646455	 0.124860121	-0.28786
C	 0.6785774896	-0.6342549868	-0.9775123003	 0.134373
C	 0.7443354454	-1.9926750314	-1.2258013406	 0.339295
O	 0.26752145	-3.0579797583	-0.5417267175	-0.443711
N	 1.4291603281	-2.1571547879	-2.3785213148	-0.010632
C	 1.723313535	-3.4021492134	-3.0511924425	-0.324569
N	 1.8164921288	-0.9704663397	-2.9097120188	-0.291919
C	 1.3633840155	-0.0459975227	-2.0591083414	-0.111212
H	 1.111709642	 1.6601408997	 0.2926868964	 0.123107
H	-0.4189662939	 1.760330621	-0.622562791	 0.123213
H	-0.4508127982	 1.5415717876	 1.1495872636	 0.131626
H	-0.1658054499	-2.7176083714	 0.2500157275	 0.315451
H	 0.8157679991	-3.8562827014	-3.462821865	 0.139787
H	 2.4134357736	-3.170213752	-3.8616564492	 0.158427
H	 2.1877432259	-4.1109435793	-2.3600775476	 0.143613
H	 1.5497120659	 0.9984298282	-2.256429716	 0.109957
