21
gdb 96370	2.32616	1.69461	1.12736	1.445	78.13	-0.2437	0.0778	0.3215	1136.1292	0.183381	-424.220863	-424.212518	-424.211574	-424.253416	33.088	
C	-0.0802190849	 1.5208679044	-0.0872245228	-0.427379
C	 0.0890272017	 0.0148412824	 0.0212833783	 0.064242
O	 0.7390284352	-0.4354746538	-1.1649211686	-0.25539
C	 0.8322373144	-1.8476887193	-1.249424839	-0.066062
C	 1.6570890303	-2.4261102079	-0.098523783	-0.206553
C	 1.0609859265	-1.976765278	 1.2446714741	-0.289995
C	 0.8647486708	-0.4726542442	 1.2465823895	 0.430983
C	 1.7910173533	 0.3977802925	 1.9825890934	-0.238308
O	 0.4859364176	 0.1030699523	 2.5004189416	-0.291497
H	 0.8768863814	 1.999884029	-0.311520081	 0.124402
H	-0.7735755222	 1.7601558202	-0.8970099818	 0.12158
H	-0.4743331412	 1.9225307335	 0.8492367834	 0.13619
H	-0.9111340474	-0.4538697265	 0.079772641	 0.067321
H	-0.1779986837	-2.293572227	-1.2473523349	 0.084824
H	 1.2924393087	-2.0641886396	-2.2178682826	 0.106172
H	 1.682779142	-3.5194923135	-0.1665543824	 0.097523
H	 2.6890911348	-2.0667166559	-0.1876397559	 0.106674
H	 0.0807550544	-2.4518313965	 1.388995751	 0.105415
H	 1.6887799627	-2.2783144921	 2.0884808887	 0.103132
H	 2.6184234072	-0.0512143704	 2.5310603301	 0.110473
H	 1.9475547085	 1.4297294904	 1.6779902711	 0.116253
