16
gdb 10027	2.40245	1.38913	0.91519	1.8673	75.93	-0.2555	0.015	0.2705	1264.1747	0.126244	-346.522428	-346.512609	-346.511665	-346.558247	33.074	
C	-0.2520946792	 1.3077930605	-0.0823547301	-0.23118
O	 0.1598409831	-0.0343478245	 0.0833061262	-0.227182
C	 0.7048946578	-0.6021061483	-1.1020666098	-0.232791
C	 1.3171389395	-1.8863334745	-0.7489166359	 0.3161
C	 1.8426305044	-2.9311342476	-0.4799824686	-0.412266
C	-0.2943612425	-0.761927608	-2.1715654836	 0.128672
C	-1.1156859425	-0.8720794781	-3.0445389537	 0.028144
C	-2.1072083167	-1.0224125346	-4.0989810704	-0.499871
H	 0.5866701546	 1.9522743571	-0.3894970788	 0.104206
H	-1.0548499638	 1.4005562338	-0.8258579222	 0.118796
H	-0.620176077	 1.6432076665	 0.8893343326	 0.131515
H	 1.5035568234	 0.0630792492	-1.4794672764	 0.116796
H	 2.2985447121	-3.8590052789	-0.2369672176	 0.19892
H	-1.9349806486	-1.9407178187	-4.6707656415	 0.155496
H	-3.1190979501	-1.0759907511	-3.6831517266	 0.154525
H	-2.0773952945	-0.1814574226	-4.8001548836	 0.150118
