21
gdb 68407	2.20125	1.83262	1.53537	2.7177	77.31	-0.234	0.069	0.303	1012.9882	0.181305	-424.215731	-424.206886	-424.205942	-424.248226	35.443	
C	-0.097478664	 1.4943963499	 0.0458227877	-0.508359
C	 0.021833677	-0.001230208	-0.0221622658	 0.396424
C	 0.4440056207	-0.8010871744	-1.2831087161	-0.28666
C	-0.4466707876	-1.8285821426	-0.5590031439	 0.07752
C	 0.3686853777	-2.2082162732	 0.6924460164	-0.287957
C	 0.7412255732	-0.7515741688	 1.1438473868	 0.401537
C	 2.2404388174	-0.4804474487	 1.2672560947	-0.466918
O	 0.0826908482	-0.3586541296	 2.3413666754	-0.484067
O	-1.257986436	-0.721639228	-0.06919746	-0.327894
H	 0.8899082406	 1.9619824627	-0.026992157	 0.117562
H	-0.7174289314	 1.8681742724	-0.7731242867	 0.122817
H	-0.5486350383	 1.7880788114	 0.9969305139	 0.148383
H	-0.0362310808	-0.4019588472	-2.1774583715	 0.109099
H	 1.4970118639	-1.0284302142	-1.4668775027	 0.089836
H	-1.0137291898	-2.6028461419	-1.0757430986	 0.07584
H	-0.2538281035	-2.6968844461	 1.4448306276	 0.10657
H	 1.2363692884	-2.8373393194	 0.4718915279	 0.09004
H	 2.7857148259	-0.7143797616	 0.3491309678	 0.117976
H	 2.4196270662	 0.568224864	 1.5230651844	 0.125571
H	 2.6716551341	-1.0977611977	 2.0651364404	 0.108753
H	 0.5177749282	-0.7996041789	 3.0779922991	 0.273927
