17
gdb 25662	5.76563	0.75821	0.67574	3.7791	93.47	-0.201	-0.0034	0.1976	1671.0917	0.136023	-380.901791	-380.892453	-380.891509	-380.937872	32.449	
C	-0.096134496	 1.4311250795	 0.0377509359	-0.510656
C	-0.0145294224	-0.0198064642	 0.0142538934	 0.233184
C	 0.0694062176	-1.2233106903	-0.0059484392	-0.077409
C	 0.1470984431	-2.6338536682	-0.0286784546	 0.164857
N	 1.2382895807	-3.3797467503	-0.0926441809	-0.308897
C	 0.7957866691	-4.674914854	-0.0881638718	-0.175305
C	-0.5772810333	-4.7396619061	-0.0210992996	 0.297047
C	-1.5285406257	-5.8866379565	 0.0110892771	-0.514915
N	-0.9780707849	-3.4250435026	 0.0163156138	-0.342742
H	 0.9046721507	 1.8752858843	 0.0665621929	 0.15927
H	-0.6059875534	 1.819803873	-0.8511954084	 0.150443
H	-0.6427388682	 1.7881432379	 0.9180114009	 0.150103
H	 1.4864011154	-5.5044753676	-0.1335322044	 0.102066
H	-2.1299107823	-5.8997916422	 0.9283927339	 0.132393
H	-2.2242062249	-5.8709284454	-0.8368538934	 0.132241
H	-0.9737106386	-6.8265340481	-0.033886624	 0.144405
H	-1.9251276569	-3.0873675492	 0.0676434584	 0.263916
