21
gdb 65125	3.25467	1.24232	1.14555	2.0406	81.59	-0.2323	0.079	0.3113	1172.391	0.182159	-387.001991	-386.993731	-386.992787	-387.034824	32.904	
C	 0.0355183454	 1.539522179	-0.0024184641	-0.456334
C	 0.1010120148	 0.0218381303	 0.0018344619	 0.31564
C	 1.0384909764	-0.6328875556	-0.9882982061	-0.304593
C	 1.3826238487	-0.6272545758	 0.4797104927	-0.301773
C	-1.2424986742	-0.6462360184	 0.2171087006	-0.031725
C	-1.462435936	-1.9380898372	 1.0592297748	 0.018437
C	-1.2509388506	-1.1438036959	 2.3733270727	-0.229418
C	-2.1749617538	-0.3419261465	 1.4301732959	 0.028827
O	-2.9021247309	-1.5972204702	 1.127118061	-0.309431
H	 1.0079306464	 1.9765925858	-0.2503678293	 0.112896
H	-0.6902205674	 1.9008046858	-0.7405478869	 0.118456
H	-0.2651834484	 1.9297048125	 0.9769489075	 0.116601
H	 0.7327404291	-1.5759508613	-1.4301014935	 0.111355
H	 1.605691	 0.0067964203	-1.6564329762	 0.108908
H	 2.1837696725	 0.0226929859	 0.8170459125	 0.109304
H	 1.3275177366	-1.5690196692	 1.0142502095	 0.114264
H	-1.8249270729	-0.6743654988	-0.7094746499	 0.084057
H	-1.206529012	-2.9723975111	 0.8245617864	 0.090588
H	-1.748110395	-1.5689584697	 3.2460191264	 0.105696
H	-0.2599131086	-0.7462510135	 2.5934629749	 0.107623
H	-2.77590042	 0.5448591636	 1.6352115293	 0.090622
