19
gdb 89669	2.80113	1.32165	1.0904	2.1158	84.37	-0.2239	0.0203	0.2442	1188.9268	0.156084	-385.826661	-385.817332	-385.816388	-385.86024	35.475	
C	-0.0886145124	 1.5291736474	-0.0517007857	-0.417179
C	 0.1234478981	 0.0322960372	 0.0298641515	 0.109521
O	 1.2181976184	-0.4484856284	-0.8082459823	-0.342143
C	 1.7629096103	-1.1890922747	 0.2939711643	 0.291955
C	 2.1925423297	-0.2311478495	 1.3759793225	-0.391856
C	 0.7352381765	-0.6206442202	 1.2753681681	 0.172828
C	-0.0362180058	-1.2739585791	 2.3819847655	-0.492227
C	 2.2675379948	-2.4998900847	 0.088106694	 0.217556
C	 2.6936127807	-3.6132223221	-0.0775040192	-0.423056
H	 0.7940283071	 2.0803151713	 0.2828467048	 0.122305
H	-0.304238945	 1.8225646071	-1.0839389095	 0.132427
H	-0.9415877498	 1.823851311	 0.5691354397	 0.119185
H	-0.7947361394	-0.4988270878	-0.2576829377	 0.083669
H	 2.7186734958	-0.6801800858	 2.2123330205	 0.125427
H	 2.5485136543	 0.7507060891	 1.0779840086	 0.118753
H	-0.4242251579	-0.5303230038	 3.0884812115	 0.125094
H	-0.8863220814	-1.843459352	 1.9912096741	 0.125398
H	 0.5978907458	-1.9650836463	 2.9457634313	 0.13072
H	 3.0722396302	-4.5934608887	-0.2295967322	 0.191623
