21
gdb 112258	2.33977	1.18948	0.89785	2.1487	80.04	-0.2256	-0.0241	0.2014	1387.5928	0.179992	-424.225751	-424.215657	-424.214713	-424.261292	36.112	
C	 0.0061906717	 1.6270789388	-0.0489912318	-0.389168
C	-0.0341540544	 0.1225515232	 0.2319029186	-0.165274
C	-1.4199445981	-0.4862403405	 0.0121436371	-0.062782
C	-1.799157273	-0.6889736723	-1.4922897798	-0.356045
C	-1.411401824	-2.1682283283	-1.3223461204	 0.366505
O	-1.04761969	-3.0302043831	-2.0699904585	-0.300708
C	-1.4682709443	-2.0350798126	 0.2185286799	 0.036206
O	-0.4607070028	-2.591233629	 1.0028150859	-0.242221
C	-0.5548061691	-4.0012540835	 1.1257651848	-0.246587
H	 1.0094008905	 2.0309520136	 0.1173679251	 0.116516
H	-0.2742956905	 1.8543009449	-1.0833298633	 0.115725
H	-0.684653947	 2.1700048195	 0.6058306737	 0.114576
H	 0.6974780395	-0.396285906	-0.4007395029	 0.104833
H	 0.2740316429	-0.0745587106	 1.2639645206	 0.114416
H	-2.1660927197	 0.0553997087	 0.5988657193	 0.075904
H	-2.8656424069	-0.5643733372	-1.7037979613	 0.1287
H	-1.2269292721	-0.1327523288	-2.238696315	 0.13157
H	-2.4703307056	-2.3478023276	 0.5659803489	 0.083082
H	 0.2688490386	-4.3193850162	 1.7685914486	 0.128602
H	-1.507397766	-4.2960624233	 1.5932254954	 0.104306
H	-0.4705672597	-4.4954314797	 0.151306315	 0.141847
