14
gdb 42429	4.60615	0.87924	0.79942	2.8023	64.11	-0.2738	-0.0791	0.1947	1358.3427	0.09981	-473.82096	-473.812545	-473.811601	-473.855812	28.276	
O	 0.0847810571	 0.0502272227	-0.69377042	-0.330174
C	 0.0456086943	 1.1231777153	-0.1568187304	 0.360077
O	 1.0835879369	 1.8166591609	 0.314099239	-0.230998
C	 2.3623633307	 1.1724372345	 0.1750334861	 0.074112
C	 3.0175488543	 1.2331380938	-1.2152568036	-0.084876
O	 4.1412435368	 1.9633816111	-0.6801152112	-0.267064
C	 3.5177120053	 2.0772083903	 0.6154892862	-0.101853
C	-1.2006096244	 1.8631703184	 0.0717427562	 0.259867
N	-2.209502217	 2.4027780777	 0.2272710686	-0.299865
H	 2.3101230723	 0.1819715443	 0.6266542589	 0.127125
H	 3.3101907848	 0.274546285	-1.653919857	 0.128634
H	 2.4483889425	 1.8174528572	-1.948559594	 0.118384
H	 3.2037640735	 3.1025745081	 0.8446288036	 0.125306
H	 4.155657633	 1.6966978107	 1.4196115075	 0.121326
