23
gdb 121132	3.02308	0.83942	0.78282	1.9977	81.83	-0.2397	0.0757	0.3155	1584.9335	0.203335	-425.412929	-425.40227	-425.401326	-425.449004	38.781	
C	-0.1660171184	 1.5526892502	-0.056057043	-0.426765
C	-0.0206909455	 0.0356966208	 0.0100812379	 0.410115
C	-1.2912524514	-0.6714315355	-0.4396792779	-0.428974
O	 1.1195129052	-0.3929513071	-0.7959376275	-0.323907
C	 1.8676740339	-0.7793620218	 0.3697366413	-0.087351
C	 0.65415651	-0.5504697658	 1.2935279509	-0.083091
C	 0.8257740007	 0.3014530325	 2.5436562076	-0.205714
C	 1.6022881254	-0.4251028455	 3.6367158956	-0.073809
O	 1.715191907	 0.4518590213	 4.7463508247	-0.420625
H	 0.7644972919	 2.0559577298	 0.2174976668	 0.119323
H	-0.4197152412	 1.8503129758	-1.0784381833	 0.120618
H	-0.9603827825	 1.9069028099	 0.6093710183	 0.114239
H	-1.5603134168	-0.3669083668	-1.456470208	 0.121658
H	-1.1510355143	-1.7559278347	-0.4344490118	 0.115603
H	-2.1280927447	-0.4241196983	 0.2231121862	 0.11313
H	 2.2531497368	-1.8027454152	 0.2921413978	 0.097883
H	 2.7122092366	-0.1001667965	 0.5597391624	 0.091281
H	 0.1769287826	-1.4992057859	 1.5622958322	 0.071291
H	 1.3533003151	 1.2333821704	 2.3124714205	 0.108763
H	-0.1531748193	 0.5849529213	 2.9490642649	 0.107152
H	 1.0750659176	-1.3535532	 3.9123671404	 0.084859
H	 2.5956309757	-0.717398216	 3.2573976238	 0.088463
H	 2.2139634055	 0.0039884871	 5.4357252101	 0.285857
