27
gdb 118573	1.68494	0.98425	0.66193	0.8985	93.84	-0.2406	0.0847	0.3253	1857.7678	0.249179	-390.703106	-390.69083	-390.689886	-390.741928	43.26	
C	 0.7654679109	 1.0328897333	 0.7814618314	-0.381739
C	 0.4140062455	-0.4470194652	 0.6058282568	-0.172961
C	-1.0924688283	-0.6920711141	 0.4783803006	-0.161585
C	-1.4754797703	-2.162956076	 0.2806670717	 0.118874
C	-2.9963248776	-2.3530448178	 0.2268272917	-0.168084
C	-3.4319007128	-3.8106471473	 0.0639118173	-0.390876
O	-0.89889388	-2.6379588985	-0.9394938472	-0.266819
C	 0.0060605097	-3.7191656447	-0.8131919647	-0.034445
C	 0.5161361195	-4.0765380836	-2.1997410525	-0.38628
H	 1.8469019406	 1.1797458267	 0.8660923969	 0.10919
H	 0.4151519757	 1.62586555	-0.0708092264	 0.114411
H	 0.301800826	 1.4481763064	 1.683505365	 0.110826
H	 0.9115117379	-0.8398182948	-0.2879409876	 0.108257
H	 0.8062585369	-1.0189357005	 1.4578357	 0.086915
H	-1.6055452642	-0.3140104164	 1.3728334404	 0.086343
H	-1.4846356811	-0.1187560392	-0.3722722771	 0.098143
H	-1.0742415355	-2.75159348	 1.1214218094	 0.061428
H	-3.4315397739	-1.9315459115	 1.1416746619	 0.08956
H	-3.3846089872	-1.7570719667	-0.6086319264	 0.100949
H	-3.0227943155	-4.2340806451	-0.8575699056	 0.127561
H	-3.0887039627	-4.4272525279	 0.9026825425	 0.107302
H	-4.5221158842	-3.8934412899	 0.0172191876	 0.109171
H	 0.8472521507	-3.4439265439	-0.156961978	 0.085959
H	-0.4914160893	-4.588222826	-0.3538821613	 0.086339
H	-0.3133523192	-4.3646759316	-2.8520982464	 0.12476
H	 1.0244955759	-3.221034251	-2.6539085491	 0.124859
H	 1.2213275025	-4.9114675646	-2.1442333006	 0.111945
