22
gdb 88983	3.03483	1.0256	0.95598	1.4955	82.93	-0.2163	0.0863	0.3026	1371.5044	0.192643	-404.295665	-404.285897	-404.284953	-404.330669	36.262	
C	-0.2831835261	 1.4029868811	 0.0205526543	-0.420729
C	 0.5971660565	 0.1791355944	 0.0325233391	 0.075218
O	 1.9143848231	 0.310367396	 0.5847642531	-0.25407
C	 0.9892872153	-0.5787722957	 1.2338184503	 0.047139
C	 0.548440944	-0.2508056117	 2.6408210934	-0.179915
N	 1.4734444668	-0.6724268129	 3.7051998692	-0.105465
C	 2.8883447511	-0.9287697955	 3.4198479341	-0.260967
C	 2.4847095877	 0.2589431612	 4.2192033081	 0.040826
C	 2.6559101248	 1.6538098255	 3.6610273133	-0.432503
H	-0.2504628925	 1.9417786825	 0.9688366174	 0.13112
H	 0.0401178857	 2.0883402107	-0.7698803156	 0.131347
H	-1.3211322032	 1.1208469135	-0.1867997853	 0.125302
H	 0.584387307	-0.3833678297	-0.9038251803	 0.089987
H	 1.2350159709	-1.6327744081	 1.0880725383	 0.097163
H	 0.3373780189	 0.8189882304	 2.7281085226	 0.105797
H	-0.4011734111	-0.7755073194	 2.8153403705	 0.107781
H	 3.3036690959	-1.8139670947	 3.8965281466	 0.106248
H	 3.2658608402	-0.7337992166	 2.4187965404	 0.134183
H	 2.5852493218	 0.20018817	 5.3029706192	 0.081727
H	 2.6109580739	 1.6606763688	 2.5689994664	 0.148245
H	 1.8832326559	 2.331514925	 4.0446547488	 0.113056
H	 3.6255746632	 2.060812155	 3.9671971359	 0.118509
