18
gdb 102205	3.28697	0.921	0.76856	3.419	78.29	-0.2602	0.0193	0.2795	1452.4015	0.144252	-401.918563	-401.908096	-401.907152	-401.955368	35.98	
C	 0.1164783683	 1.3268509328	-0.345624038	-0.248799
O	 0.0120180546	 0.0320485199	 0.2255397941	-0.246193
C	-1.2669378164	-0.5580017425	 0.1595735078	 0.113461
C	-1.1989714207	-1.8452727051	-0.6887656229	-0.365537
C	-0.883030016	-1.5766374671	-2.0852791116	 0.297731
C	-0.6388341772	-1.3447334975	-3.2388105152	-0.428619
C	-1.7222718238	-0.8872407172	 1.5983895924	-0.351117
C	-1.871861122	 0.3200998677	 2.4060506099	 0.270109
N	-2.0013052614	 1.286135738	 3.02658002	-0.30984
H	 1.1548813295	 1.6402391776	-0.2172529936	 0.133918
H	-0.1226318416	 1.3130693221	-1.4163646178	 0.122652
H	-0.5358788376	 2.0465960584	 0.1662027481	 0.127857
H	-1.9911370403	 0.1303909363	-0.2939055821	 0.102385
H	-0.4339547658	-2.4994908859	-0.2522334602	 0.142869
H	-2.1548899841	-2.3804273226	-0.622324514	 0.129382
H	-0.4166051199	-1.1496482798	-4.2587386242	 0.20074
H	-2.6746957321	-1.4285348365	 1.5892662382	 0.148254
H	-0.9740761134	-1.5369955986	 2.0656576791	 0.160746
