17
gdb 28284	4.87754	1.26081	1.13964	2.0038	81.03	-0.1767	0.0214	0.1981	1084.4244	0.138532	-380.831139	-380.824005	-380.823061	-380.862335	29.105	
N	 0.0660889252	 1.37720474	 0.1337165624	-0.59623
C	-0.0179190962	-0.0132214416	-0.044255563	 0.284206
C	-1.1631878905	-0.7895129142	 0.0578682951	-0.241394
N	-0.7363158114	-2.1069357278	 0.1184223736	 0.010037
C	-0.9721631157	-3.3946676325	-0.5647056647	-0.019582
C	-0.3965670038	-3.3987733765	-1.9561968963	-0.272297
C	 0.5313279411	-3.531161802	-0.7540866392	-0.179817
C	 0.624253235	-2.1588481091	-0.1205112018	 0.21344
C	 1.1163898446	-0.8794626107	-0.2279462723	-0.323379
H	 0.8032300731	 1.7961034347	-0.4187165454	 0.239774
H	-0.8061118691	 1.8521102386	-0.0599305325	 0.238723
H	-2.1773049332	-0.4940105611	 0.2788746818	 0.100878
H	-1.6999989202	-4.1026745945	-0.1899418249	 0.109455
H	-0.5678202578	-4.3028684656	-2.5363855959	 0.114814
H	-0.3911221422	-2.4790580181	-2.5330880467	 0.130335
H	 1.1571927402	-4.3958992451	-0.5819468381	 0.102995
H	 2.1362539307	-0.5640871745	-0.389960512	 0.088041
