18
gdb 40649	3.39766	1.25713	1.22593	2.1217	72.56	-0.2187	0.0738	0.2925	1098.1196	0.148367	-439.010786	-439.003134	-439.00219	-439.043505	28.88	
C	 0.3721565296	 1.760018998	 0.1996258689	-0.220831
C	 0.914326476	 0.4976907075	-0.3774271521	-0.220818
N	-0.4171271731	 0.5321491818	 0.2214014921	-0.053391
C	-0.5736337661	-0.1138496128	 1.4865378854	-0.050088
C	-1.9297335541	-0.1373619418	 2.1807553237	 0.021956
O	-3.0736270619	 0.1766651213	 1.4364634281	-0.259783
C	-3.0991114496	-0.6756627641	 0.3001287238	 0.035419
O	-2.2237161356	-1.7669323204	 0.5485899567	-0.259785
C	-1.3765377105	-1.4030496546	 1.6021165704	 0.02271
H	 0.8021781154	 2.1038167235	 1.1386383403	 0.112702
H	-0.0014356291	 2.5489838321	-0.4464321651	 0.12219
H	 0.943648048	 0.3477333785	-1.4526347404	 0.122222
H	 1.7067874936	-0.0032523768	 0.1756173945	 0.112791
H	 0.2724799297	-0.0634864448	 2.1826930904	 0.074573
H	-2.038129561	 0.0932452062	 3.233422282	 0.109485
H	-4.1181850437	-1.0567299801	 0.1589056025	 0.106939
H	-2.7561636999	-0.1227046205	-0.5815389756	 0.114382
H	-1.0104362978	-2.2564299633	 2.1596343145	 0.109326
