14
gdb 5412	5.20543	1.53956	1.20698	3.7612	64.97	-0.2465	-0.0364	0.2101	936.2157	0.109437	-378.762541	-378.755592	-378.754648	-378.794613	24.741	
O	 0.1328778234	 1.1310190153	 0.8019687272	-0.411468
C	-0.0266419843	 0.1234252053	-0.1803685694	-0.178984
C	-1.4222651276	-0.4372412365	-0.0867760839	 0.211107
C	-2.1871572123	-0.3552435299	 1.0759699309	-0.029474
N	-3.4120845927	-0.8793713477	 1.1704733045	-0.250929
C	-3.8715680901	-1.4936403701	 0.0805662357	 0.074885
N	-3.244852562	-1.6277823635	-1.0899831193	-0.250102
C	-2.0260669791	-1.0914460252	-1.1580653226	-0.041947
H	 1.0608610921	 1.3800495412	 0.8315766102	 0.296159
H	 0.1402745113	 0.5167040389	-1.196083236	 0.105777
H	 0.7017077239	-0.6911127983	-0.032217769	 0.112516
H	-1.7981015324	 0.1577229708	 1.9497581173	 0.134599
H	-4.8657986495	-1.9285229517	 0.1501464034	 0.118985
H	-1.5087631906	-1.1852868385	-2.1127054589	 0.108878
