19
gdb 39370	2.32193	2.15758	1.5954	1.4226	79.78	-0.2397	0.0057	0.2454	924.0447	0.162803	-385.892812	-385.885981	-385.885036	-385.923558	28.684	
C	 0.0034094259	 1.5046924051	 0.08383973	-0.228387
C	 1.4918845869	 1.8887693959	-0.0282242401	 0.091876
O	 2.1325098102	 1.9111540996	 1.2528212425	-0.271575
C	 2.4639345206	 0.6686591064	 1.8558531983	-0.118833
C	 1.3630059545	-0.3361634389	 2.1284734093	-0.057209
C	 0.3384836937	-0.6754923319	 1.3419499297	-0.074541
C	 0.0352643917	-0.0384487706	-0.0037055938	-0.099664
C	 1.2199597343	-0.251664218	-0.9415914179	-0.055419
C	 2.0266169368	 0.8100637448	-0.9521259827	-0.118491
H	-0.4456859636	 1.8825301058	 1.0038631792	 0.103837
H	-0.5417442849	 1.9113599573	-0.7747576709	 0.095478
H	 1.6356212378	 2.9033371211	-0.4102857414	 0.078493
H	 3.2451112469	 0.1583015002	 1.2664268645	 0.10436
H	 2.923615211	 0.9525647192	 2.8074329296	 0.109765
H	 1.4854106178	-0.875222093	 3.0662248874	 0.089572
H	-0.3303939526	-1.4654487421	 1.6752027554	 0.086672
H	-0.8946790936	-0.4510817798	-0.4043905353	 0.067485
H	 1.3947922237	-1.1919651535	-1.4525151396	 0.100791
H	 2.9740757129	 0.8874566825	-1.4725803244	 0.09579
