19
gdb 114672	3.47368	1.14374	1.06594	2.3852	70.79	-0.2397	0.0611	0.3008	1182.8775	0.160279	-460.123917	-460.115872	-460.114928	-460.156422	31.782	
O	-0.0471016329	 1.3919808229	-0.2066617559	-0.421069
C	 0.0658785253	 0.0187475939	 0.1129297535	-0.08604
C	-1.3044863407	-0.6472538425	 0.0886875427	 0.113279
O	-1.945699833	-0.3753503403	-1.1981729791	-0.312454
C	-2.3245859404	-1.6931187999	-1.6296034486	 0.06119
C	-2.880688474	-2.3591618112	-0.3503455892	-0.246753
C	-1.3901449439	-2.1783858902	 0.0942832084	-0.108683
C	-1.0154966239	-2.5043549255	-1.3869461002	 0.12594
O	-1.0703721965	-3.8910807682	-1.624867672	-0.438601
H	-0.5726595986	 1.4279410928	-1.0153729633	 0.292574
H	 0.7616883822	-0.495017447	-0.5674563976	 0.085443
H	 0.485425958	-0.0416967391	 1.1235748357	 0.105795
H	-1.9194754573	-0.2000447295	 0.8804130846	 0.085758
H	-2.8498283078	-1.636607932	-2.5827960484	 0.077218
H	-3.651067969	-1.8149126312	 0.2000047186	 0.10034
H	-3.1465786561	-3.40397191	-0.4945943786	 0.123393
H	-0.9496775404	-2.7188993738	 0.9307587387	 0.083573
H	-0.1023194985	-2.0564551819	-1.7950559604	 0.070579
H	-1.0223675624	-4.0322783374	-2.5757519889	 0.288518
