15
gdb 54071	2.18865	1.48758	0.95498	5.224	74.78	-0.2068	-0.003	0.2038	1184.7014	0.112675	-450.137281	-450.128068	-450.127124	-450.171389	33.269	
N	-0.7425976546	 1.2172544754	 0.1377339217	-0.55714
C	-0.3869817032	-0.0977709687	-0.0285811806	 0.317249
N	 0.8964653694	-0.3151859158	-0.4980756371	-0.578675
H	 1.2198926064	-1.2703177195	-0.419720057	 0.277216
H	 1.5800179014	 0.347168758	-0.1576005193	 0.258027
C	-1.221936366	-1.153605383	 0.2378470098	 0.11916
O	-2.5180298692	-1.0572723864	 0.7754707479	-0.231307
C	-3.5145235122	-0.3827819019	 0.1919096051	 0.120908
N	-3.3723684595	 0.450854003	-0.7527681001	-0.478195
C	-0.7515357665	-2.4784821627	 0.1463424221	 0.236513
N	-0.3130248452	-3.551951945	 0.0537678438	-0.380749
H	-0.1643712961	 1.8502769443	-0.3993208987	 0.251584
H	-1.7314056273	 1.3708907438	-0.0590055725	 0.279921
H	-4.4488423773	-0.6493453765	 0.6930214543	 0.126008
H	-4.2725729201	 0.842146145	-1.0193805195	 0.239481
