16
gdb 79443	2.89546	1.76424	1.35602	2.906	67.84	-0.2263	-0.0125	0.2138	935.6401	0.126096	-437.831933	-437.825178	-437.824234	-437.862898	27.405	
O	 0.0026382309	 1.3947821382	 0.0820754473	-0.442379
C	 0.0944402558	-0.0101113358	 0.0164620288	 0.112631
C	-1.3324322607	-0.5796607653	-0.0351649963	-0.064439
C	-1.3617240666	-0.3799299684	-1.5757389572	 0.007886
N	-1.9425067928	-1.7276833698	-1.8493176411	-0.340414
C	-1.2726513433	-2.0829023839	-0.5357879197	-0.163572
C	 0.1656289155	-2.0663454798	-1.0743839554	 0.495637
O	 1.0000866907	-2.9228252624	-1.1276919248	-0.339324
C	 0.2053820823	-0.5863940919	-1.4442158499	-0.222624
H	 0.874295978	 1.7622202902	-0.0970950229	 0.289551
H	 0.805466878	-0.4058935711	 0.7540395535	 0.083771
H	-2.1175111061	-0.272624159	 0.6548758054	 0.086808
H	-1.7374421112	 0.4910114296	-2.1058980161	 0.094356
H	-2.9476705326	-1.6681679391	-1.6841981675	 0.223156
H	-1.6224096488	-2.948631442	 0.021609565	 0.091356
H	 0.9450891309	-0.2359554896	-2.1594510293	 0.0876
