21
gdb 70584	2.36585	1.78722	1.27319	1.6435	80.77	-0.2311	0.0786	0.3098	1063.5473	0.184609	-387.073223	-387.065447	-387.064503	-387.104777	32.72	
O	-0.1062783122	 1.3590621401	 0.0848225498	-0.474508
C	-0.0253294255	-0.0454606098	 0.0728285886	 0.4122
C	-0.1741142241	-0.6544532402	 1.4349642481	-0.339388
C	 1.1747184378	-0.6909514612	 0.7365788437	-0.080645
C	 1.7239696366	-1.9853431081	 0.1615050498	-0.211636
C	 0.6326200757	-2.8753243881	-0.4680814619	-0.245185
C	-0.2087601158	-2.1220786417	-1.4940383007	-0.018684
C	-1.6432692612	-1.7415391425	-1.2078286245	-0.306881
C	-0.569698651	-0.6841067159	-1.1828522261	-0.080991
H	 0.5034283537	 1.6936942915	-0.5821940691	 0.275789
H	-0.2891256962	 0.0541483883	 2.246835188	 0.119236
H	-0.7382946329	-1.5713956391	 1.558204201	 0.108676
H	 1.9168926866	-0.0010909245	 1.1288218544	 0.080141
H	 2.4727385849	-1.7406596033	-0.6045127696	 0.092277
H	 2.2512989458	-2.5508477744	 0.9401595214	 0.095107
H	 1.1052325749	-3.7402811576	-0.9435485369	 0.098479
H	-0.0041049552	-3.2852695283	 0.3237809542	 0.103213
H	 0.0322237278	-2.3362616774	-2.5307742473	 0.080662
H	-2.3502575367	-1.7294086175	-2.0303335942	 0.107811
H	-2.0720800633	-2.0572197	-0.2619818145	 0.111589
H	-0.5674524397	 0.0090037797	-2.0197116942	 0.072741
