17
gdb 78105	2.79465	1.15607	0.95688	3.3049	69.76	-0.2448	-0.0212	0.2237	1227.5281	0.133579	-458.927391	-458.91852	-458.917576	-458.961199	32.802	
O	-0.2768759518	 1.4493211937	-0.0079719625	-0.419857
C	-0.192308535	 0.0552175636	-0.0165836089	 0.0193
C	-0.4596433907	-0.8090069747	 1.1971130648	-0.197871
C	-1.5241069391	-0.1391278092	 2.0874620128	-0.06791
C	-2.5134122282	-0.1459809201	 0.8654413378	-0.325112
C	-1.4251990155	-0.7775071158	-0.0053775642	 0.365378
O	-1.6637036116	-1.7797536666	-0.9257820521	-0.457833
C	-1.9946389759	-1.0235043526	 3.2100045693	 0.156325
O	-2.0360802714	-0.7031842141	 4.3700157543	-0.258439
H	 0.4804434384	 1.7957530112	 0.4763248125	 0.292429
H	 0.5871923624	-0.3581399676	-0.6587376645	 0.097164
H	 0.2440428254	-1.5678434678	 1.5192170814	 0.102678
H	-1.2623073072	 0.8438712784	 2.4825610753	 0.088201
H	-3.3440987015	-0.8397307977	 1.020014466	 0.117629
H	-2.8972188088	 0.8281135207	 0.5558956324	 0.119824
H	-1.7520273769	-1.3801690404	-1.798387244	 0.291354
H	-2.3180710925	-2.0398734409	 2.8810434296	 0.076738
