21
gdb 61214	3.05919	0.93453	0.88249	1.8826	84.3	-0.2587	0.0531	0.3118	1429.7375	0.178873	-387.045524	-387.035149	-387.034205	-387.08101	38.325	
C	 0.3622898926	 1.7074109076	-0.1049304839	-0.409009
C	 0.1177513556	 0.2006583305	 0.0411702694	-0.032141
C	 0.5439404285	-0.5862899544	-1.226186673	-0.373032
C	-0.2339460837	-0.231754588	-2.4064368531	 0.300781
C	-0.8917256259	 0.0734271007	-3.3655712878	-0.44245
C	 0.7869774603	-0.3862669682	 1.2810180021	 0.42801
C	 2.2918546868	-0.2725807371	 1.4118315706	-0.476739
C	-0.0220669855	-0.5482762052	 2.4992031097	-0.239642
O	 0.2587659407	-1.6703385639	 1.6582415727	-0.286062
H	 1.4213842722	 1.9297843522	-0.2742640037	 0.116757
H	-0.1980059218	 2.0998830898	-0.9573773482	 0.135622
H	 0.0440518737	 2.2472681189	 0.7926234916	 0.114229
H	-0.9581967295	 0.0340674172	 0.1642891584	 0.091275
H	 1.6082678077	-0.4141708532	-1.4323156479	 0.12591
H	 0.4319138653	-1.6577650026	-1.0219849488	 0.148091
H	-1.4652763633	 0.3310963161	-4.221045779	 0.192918
H	 2.6088915947	 0.7733639871	 1.4659880719	 0.126668
H	 2.6264934148	-0.7827086035	 2.3181054262	 0.129348
H	 2.8017187559	-0.7350975954	 0.5607056513	 0.128829
H	 0.4650092822	-0.5624459475	 3.4737848003	 0.109889
H	-1.0605950513	-0.2188139311	 2.5083265111	 0.110748
