21
gdb 84693	2.78275	1.64382	1.39056	1.3559	82.57	-0.2352	0.0204	0.2556	1037.3982	0.185755	-387.113596	-387.106048	-387.105104	-387.145167	30.964	
C	-0.1511299732	 1.5757045689	 0.0102371651	-0.407804
C	 0.0232304338	 0.0478533654	-0.0236713972	-0.021327
C	 0.6883221914	-0.4206707306	-1.29946468	-0.050291
C	 1.8133903837	-1.1374683155	-1.3064067989	-0.08226
C	 2.4892006339	-1.5268363049	-0.0079020754	-0.083319
C	 1.6688328117	-2.6138775228	 0.7161799275	-0.063388
O	 0.5727272733	-1.9130164149	 1.3118944083	-0.280884
C	 0.795989969	-0.4984640501	 1.1986489577	 0.099936
C	 2.310181828	-0.3735680707	 0.9982709783	-0.243204
H	 0.8150074651	 2.0912105683	 0.0027038138	 0.117734
H	-0.7144033468	 1.9229402611	-0.861908822	 0.115947
H	-0.6964098232	 1.8892255457	 0.9068552432	 0.11416
H	-0.9774819643	-0.4037813106	 0.0279706461	 0.089943
H	 0.2064935353	-0.1446333026	-2.2352107104	 0.083281
H	 2.2513091275	-1.4773031626	-2.2407526848	 0.084026
H	 3.5280109243	-1.8267345236	-0.1601670123	 0.067053
H	 1.2777074693	-3.3800206833	 0.0386332324	 0.101407
H	 2.266577873	-3.1082808012	 1.4966266573	 0.087713
H	 0.4310511662	-0.032532401	 2.1194435771	 0.06869
H	 2.8441235278	-0.5676631421	 1.9334844117	 0.097956
H	 2.6230093645	 0.5936141169	 0.6010000524	 0.104633
