21
gdb 118539	3.22429	0.74157	0.63331	1.0161	81.37	-0.2555	0.0372	0.2927	1746.8514	0.179588	-424.181263	-424.170283	-424.169339	-424.218072	39.207	
O	-0.1726337401	 1.4982280886	-0.029894426	-0.42029
C	 0.0169628619	 0.0917037232	-0.0660360096	-0.087479
C	-1.3503185668	-0.5576220219	 0.1210293027	-0.179993
C	-1.3208300703	-2.0962533942	 0.1105117856	-0.016559
C	-0.8009228623	-2.6613734129	 1.4483331587	-0.06359
O	-0.326085515	-3.9884113455	 1.3665307598	-0.426783
C	-2.7378978109	-2.6272427205	-0.2286433038	-0.372823
C	-2.8736971447	-4.0811952597	-0.2647399038	 0.277201
C	-2.9997306356	-5.2780048795	-0.2975848607	-0.426741
H	 0.6853682762	 1.9201728165	-0.1317613146	 0.286908
H	 0.445834982	-0.2290863744	-1.029568628	 0.088883
H	 0.7135445499	-0.2330519506	 0.7220421228	 0.092942
H	-1.7851484558	-0.1956613999	 1.0619803652	 0.107465
H	-2.0020010823	-0.1871842382	-0.6790502789	 0.103874
H	-0.632367182	-2.4426045259	-0.6710446652	 0.090112
H	 0.0495829899	-2.0651819828	 1.7938575563	 0.104903
H	-1.5916892313	-2.5551944802	 2.2124054863	 0.082922
H	-1.0548139952	-4.5408535696	 1.0587873388	 0.285772
H	-3.4490905788	-2.2233122597	 0.5052924687	 0.134883
H	-3.0456086941	-2.224068867	-1.2013959223	 0.135343
H	-3.1191865247	-6.3326893356	-0.338934972	 0.203051
