14
gdb 133088	3.86789	1.2026	0.9227	2.6006	67.33	-0.2574	-0.0366	0.2208	1171.3764	0.101822	-478.033631	-478.026266	-478.025322	-478.065801	26.897	
C	-0.022704479	 1.3770966113	 0.025259635	-0.228144
O	 0.0262774362	-0.0498916725	-0.0430185619	-0.236911
C	 0.6293702019	-0.5943806515	-1.0990867063	 0.481545
N	 1.1536770647	 0.197940554	-2.0327927237	-0.352311
C	 1.7402655356	-0.4295263064	-3.0587932439	 0.025945
C	 1.8109700621	-1.8075383029	-3.1664146051	-0.291095
C	 1.216896664	-2.4987437456	-2.1109522263	 0.347022
F	 1.2323118904	-3.8222027651	-2.1218953199	-0.058597
N	 0.6317391984	-1.9341914644	-1.0867568982	-0.35376
H	 0.9836357985	 1.8032173029	 0.0464363299	 0.139126
H	-0.5609167233	 1.7921795727	-0.8307577201	 0.13914
H	-0.5508740064	 1.6011106066	 0.9524835666	 0.135879
H	 2.1715113442	 0.2079704569	-3.8266258014	 0.1279
H	 2.2840282528	-2.316632146	-3.9938164047	 0.12426
