21
gdb 95854	2.3664	1.32888	1.07793	1.4917	83.95	-0.2435	0.0547	0.2982	1234.6032	0.182733	-387.070761	-387.06178	-387.060836	-387.104103	34.858	
C	 0.0247358648	 1.5937904627	-0.0237196187	-0.407204
C	 0.0310250605	 0.0639957859	-0.0336823778	 0.021943
C	 0.7779352248	-0.4818989872	-1.257778635	-0.069043
O	 0.8053361001	-1.8987539583	-1.2873610734	-0.240729
C	 1.455607709	-2.4494888233	-0.1647244774	-0.076997
C	 0.7585857289	-2.0658034647	 1.1607702618	-0.192053
C	 0.6615279839	-0.52142067	 1.2393837884	-0.213902
C	-0.5492999286	-2.7042108697	 1.2885805432	 0.358583
C	-1.6247557116	-3.2293451196	 1.403361043	-0.496279
H	 1.0438339765	 1.9955152274	 0.026341523	 0.113319
H	-0.4475925607	 1.9957220405	-0.9265606854	 0.114599
H	-0.5258842066	 1.9791204803	 0.8404168284	 0.11711
H	-1.0029427232	-0.2979666035	-0.096799832	 0.095726
H	 0.290486237	-0.1692876287	-2.1863317385	 0.105583
H	 1.809786427	-0.0841899479	-1.2680378767	 0.07788
H	 1.4551296094	-3.5332263694	-0.3039490674	 0.115634
H	 2.5030845499	-2.1031673761	-0.1168834545	 0.082435
H	 1.3955350016	-2.4203542015	 1.982368501	 0.100929
H	 1.6781515543	-0.1213709638	 1.357410824	 0.091318
H	 0.0932188021	-0.2240345131	 2.1262364502	 0.105727
H	-2.572211329	-3.6986486599	 1.5005148339	 0.195419
