16
gdb 109422	2.25372	1.67138	0.9942	1.9312	73.19	-0.217	-0.0939	0.1232	1143.9677	0.123989	-437.913806	-437.9053	-437.904356	-437.947642	30.583	
C	 0.0514643654	 1.5663241369	 0.0025316454	-0.323263
N	-0.13803991	 0.1175289056	-0.0752252967	-0.27181
C	 0.6539265273	-0.553307509	-1.075324014	-0.204575
C	 2.1653176454	-0.7421121762	-0.8109417338	 0.353228
O	 2.9127567127	 0.056460452	-0.2966803082	-0.311632
C	 2.5272398589	-2.1172279412	-1.2601405285	-0.156361
C	 1.4275830863	-2.8138713317	-1.5870493107	-0.160977
C	 0.1954131284	-1.9960841139	-1.3846688989	 0.352275
O	-0.9377415206	-2.4003059833	-1.4360688462	-0.294505
H	 1.0804601472	 1.8774882866	 0.2240132632	 0.132445
H	-0.2450482916	 2.0140598003	-0.9531555344	 0.122204
H	-0.6137388129	 1.9655825314	 0.7735616155	 0.121706
H	 0.0065592162	-0.3071473391	 0.8340466455	 0.224533
H	 0.5629131527	 0.0058322549	-2.0191512748	 0.135778
H	 3.5548427589	-2.4611506909	-1.2853714848	 0.139798
H	 1.3782021857	-3.8400294423	-1.9319323386	 0.141156
