20
gdb 18398	3.12772	2.12849	1.43479	1.2556	74.61	-0.2342	0.086	0.3202	920.3468	0.179766	-348.998857	-348.991787	-348.990843	-349.029729	28.725	
C	-0.0610072515	 1.4970388826	 0.0565631722	-0.334648
C	 1.2930427892	 0.8113988139	 0.0262985268	-0.031228
C	 2.1852817024	 0.7879657167	 1.2560563477	-0.214502
C	 2.7338264482	-0.6154139836	 1.5739027361	-0.185412
C	 1.7046614305	-1.5450914201	 2.2366489011	-0.18304
C	 0.444311802	-1.8421997709	 1.4202620529	-0.064677
O	-0.3510401	-0.6839625832	 1.1769801299	-0.250121
C	 0.0203810909	 0.0024822202	 0.0210619292	 0.121331
H	-0.3655858665	 1.9382001379	 0.9996052241	 0.121698
H	-0.414951704	 2.0192245604	-0.8254107873	 0.109514
H	 1.8286275841	 0.8441538637	-0.9195552698	 0.080766
H	 3.0172216398	 1.4855155238	 1.103268019	 0.093298
H	 1.6326984908	 1.1583386407	 2.1270900175	 0.100762
H	 3.1144199441	-1.0761839534	 0.6520195257	 0.090283
H	 3.5951402501	-0.5232411902	 2.2469322456	 0.090174
H	 2.1808650734	-2.505624888	 2.4755421683	 0.089484
H	 1.3906770625	-1.1070250177	 3.1931495305	 0.102169
H	 0.7052427364	-2.3276118878	 0.4671665655	 0.085573
H	-0.1953107661	-2.5351350631	 1.9782179284	 0.101159
H	-0.2585492963	-0.5066662917	-0.9032283533	 0.077417
