22
gdb 116317	2.93534	1.29824	1.01492	1.2906	81.72	-0.2171	0.0776	0.2947	1250.2007	0.195671	-404.320719	-404.312045	-404.311101	-404.354062	33.529	
C	-0.0780682148	 1.5330502718	 0.0636050266	-0.379178
C	 0.0448849282	 0.0070539166	 0.0271581217	-0.181304
C	 0.7201227289	-0.5232789992	-1.2402460299	 0.049548
C	 1.0026281947	-2.0286389663	-1.1649455868	-0.117531
O	 1.5397793683	-2.4913591323	-2.3900772774	-0.23878
C	 0.5730574917	-2.444222318	-3.4248418731	-0.108639
C	-0.1021543259	-1.0763169866	-3.5563447615	-0.026338
C	-1.3113334011	-0.775550787	-2.7353815529	-0.254198
N	-0.0375130155	-0.1278336197	-2.4391085359	-0.085522
H	 0.9094104857	 2.0066881898	 0.039906221	 0.113878
H	-0.6403489476	 1.8996774051	-0.7987227429	 0.134722
H	-0.5862011212	 1.8644380907	 0.9743511233	 0.10692
H	 0.6220518458	-0.3395812048	 0.8942218228	 0.094777
H	-0.9495220684	-0.4490312738	 0.1203190549	 0.094295
H	 1.6973090531	-0.0328649911	-1.3500381961	 0.085906
H	 1.7550006791	-2.2281848542	-0.3959156929	 0.109749
H	 0.094556036	-2.5992513613	-0.9007134661	 0.081331
H	 1.1074821134	-2.6845274875	-4.3474449876	 0.113857
H	-0.181916273	-3.2315875389	-3.2598536671	 0.090885
H	-0.0064388799	-0.6069145296	-4.5333972501	 0.09379
H	-2.0896716533	-0.1154744526	-3.1098230752	 0.113279
H	-1.6733218643	-1.572253921	-2.0871198047	 0.108552
