16
gdb 5582	3.28712	1.85297	1.26271	0.3097	67.39	-0.1765	0.0628	0.2393	952.9441	0.131982	-379.939492	-379.931645	-379.930701	-379.971645	29.403	
C	-0.5451802543	 1.1106402454	-0.0412966638	-0.315837
N	 0.3597613291	-0.0213781907	 0.180226384	-0.405972
C	 0.8688251467	-0.6318530979	-1.0014176837	 0.099772
C	 0.5757124459	-1.9425385831	-1.2980534429	 0.363442
O	-0.1617845816	-2.8352766553	-0.6043742409	-0.441131
N	 1.170291088	-2.2800086254	-2.4738593948	-0.305835
C	 1.8655582553	-1.1797073374	-2.9585750091	-0.09515
C	 1.6955910431	-0.148889009	-2.071624612	-0.229668
H	-0.0918830261	 1.9426240091	-0.6027406051	 0.104185
H	-1.418082803	 0.7671939703	-0.6042078912	 0.126205
H	-0.8893587117	 1.4946831279	 0.9246674409	 0.110289
H	 1.1131107401	 0.2661597553	 0.7966275649	 0.224922
H	-0.440970622	-2.3480222292	 0.1864121719	 0.299311
H	 1.1159568384	-3.1870245753	-2.9020449588	 0.265026
H	 2.4101504332	-1.2417368524	-3.8856467184	 0.113363
H	 2.1140526488	 0.8415795278	-2.1695979111	 0.087077
