16
gdb 35476	3.9187	1.16893	0.98135	3.9302	73.62	-0.2686	-0.0245	0.2441	1159.2968	0.125917	-400.749521	-400.7421	-400.741156	-400.781753	28.283	
N	 0.1147334314	-1.1868315277	 0.2084716691	-0.317988
C	 0.0629405624	-0.0370352975	 0.1057230183	 0.263335
C	-0.0095825684	 1.4214329384	-0.0176047425	-0.203221
C	-0.8497312204	 2.0215036409	 1.1426066486	-0.234577
C	-0.7229047122	 3.5379811736	 1.2107126287	 0.010863
O	 0.2030187728	 4.0475865971	 2.1744085243	-0.246141
C	 0.5322048974	 4.1683846118	 0.7773384062	 0.012724
C	 1.6163979055	 3.2949364651	 0.2588184048	-0.096594
C	 1.380247947	 2.0365792817	-0.1057574144	-0.044822
H	-0.5290384907	 1.6235653836	-0.966432565	 0.14356
H	-1.8951847754	 1.7253516468	 1.0227553842	 0.123118
H	-0.4955614334	 1.6062914453	 2.0898779522	 0.146993
H	-1.6481785917	 4.10798058	 1.1419495038	 0.102744
H	 0.5168515012	 5.1944278682	 0.4116475783	 0.102109
H	 2.6138750143	 3.7150909653	 0.17140149	 0.111434
H	 2.1719028501	 1.4076332975	-0.4995642466	 0.126462
