20
gdb 8454	3.81369	1.73706	1.56845	1.3408	74.5	-0.256	0.0831	0.3391	912.6234	0.178438	-349.001471	-348.994	-348.993056	-349.03253	30.381	
C	-0.0138767811	 1.5263555762	 0.0211491586	-0.497812
C	 0.019077788	 0.0156336422	 0.0348913357	 0.354548
C	 0.9628961895	-0.8146809368	-0.8942082417	-0.265694
C	 0.6910008646	-1.9344004303	 0.1482027501	-0.025151
C	 0.6495500833	-0.7992101946	 1.2086295937	-0.254774
C	-0.8007498484	-2.2129968711	-0.0778228164	 0.142039
O	-1.3181923724	-2.946605369	 1.0212511622	-0.445364
C	-1.3145852046	-0.7372396601	-0.1710955455	-0.286704
H	 0.9867387844	 1.9487756026	 0.1633338171	 0.111015
H	-0.4048005131	 1.9066679136	-0.930071678	 0.11188
H	-0.6563385173	 1.9148021128	 0.8201905234	 0.114078
H	 0.6526110288	-0.9798892143	-1.9319356983	 0.082595
H	 1.9966673425	-0.4610097421	-0.8648918874	 0.093591
H	 1.3367340195	-2.8059482354	 0.2514295566	 0.062234
H	 1.647186252	-0.4376225667	 1.4707596893	 0.088048
H	 0.0517612089	-0.9654287907	 2.1075285443	 0.100447
H	-0.9675018049	-2.7644463969	-1.0145259519	 0.057661
H	-2.2666674821	-3.0448349615	 0.8936978425	 0.279678
H	-2.0390465525	-0.5275640492	 0.6230667029	 0.090277
H	-1.7789568453	-0.5037301589	-1.1351443271	 0.087407
