23
gdb 36943	3.97322	0.89636	0.85641	0.954	86.17	-0.2395	0.0842	0.3237	1487.3497	0.206776	-388.284569	-388.275496	-388.274552	-388.320188	34.231	
C	 0.0185760433	 1.0189863442	-0.1876992567	-0.286269
C	 1.2536419218	 0.877172078	 0.6820240291	-0.285257
C	 0.4798938599	-0.3377986911	 0.2857677471	 0.140899
O	-0.2242071321	-0.9747427219	 1.3022671612	-0.270571
C	-1.3966103094	-1.6725079509	 0.8699016585	 0.142009
C	-1.0543554224	-3.048672503	 0.2396971414	-0.223725
C	-1.2116238255	-4.0991013959	 1.3775268478	-0.194108
C	-1.4830049759	-3.2813661064	 2.658259965	-0.191991
C	-2.1886671168	-2.0217667131	 2.1339990207	-0.221136
H	-0.8678337992	 1.4276676774	 0.2843656319	 0.117892
H	 0.1404921112	 1.2792103142	-1.2335075617	 0.110048
H	 2.2301337164	 1.0394076659	 0.2399294096	 0.111278
H	 1.1638416385	 1.1849515745	 1.7174187666	 0.123737
H	 0.9242802223	-1.0014037089	-0.4563977526	 0.081722
H	-1.9560587906	-1.0280883532	 0.1794861034	 0.059729
H	-1.7289182809	-3.2655085694	-0.5942758675	 0.095683
H	-0.0414326181	-3.03530504	-0.1706874121	 0.10459
H	-2.062781115	-4.7550505898	 1.1654491703	 0.095903
H	-0.3343443032	-4.7439974038	 1.4742594299	 0.096423
H	-2.0715883216	-3.8318315039	 3.3973182023	 0.087928
H	-0.5391218588	-2.9927188134	 3.1315479134	 0.112699
H	-2.2019757549	-1.1882567694	 2.8402818309	 0.100845
H	-3.2245828693	-2.2532880402	 1.8571274615	 0.091671
