16
gdb 123777	4.50077	1.16009	0.99469	3.1762	78.34	-0.2334	-0.0681	0.1653	1172.4374	0.126392	-396.925413	-396.918207	-396.917263	-396.957612	27.166	
C	-0.2222579691	 1.3136006564	-0.3245052587	-0.269689
C	 1.1798783566	 1.1457858319	 0.1728952251	-0.269689
C	 0.259205428	-0.0604861241	 0.1079616514	-0.07472
C	-0.25338769	-0.7054223432	 1.3353299	 0.362456
C	-0.588625196	-0.0150872642	 2.5132525942	-0.062428
N	-1.0430025011	-0.6495418988	 3.5799882404	-0.231535
C	-1.1510667956	-1.9771045837	 3.4367813932	 0.100728
N	-0.8508879738	-2.6837638507	 2.3520919748	-0.179459
N	-0.3944742804	-2.0356075726	 1.2842262169	-0.253936
H	-0.9388535201	 1.8189891126	 0.3141057865	 0.123904
H	-0.3850662826	 1.4676527089	-1.3849478861	 0.129752
H	 1.9948777415	 1.1828069265	-0.5406750885	 0.129752
H	 1.4289991945	 1.5355946547	 1.1540877065	 0.123903
H	 0.4516607792	-0.781641995	-0.6778626292	 0.113272
H	-0.4857533357	 1.0656621199	 2.5878952435	 0.122166
H	-1.5203489355	-2.5436766286	 4.2862733701	 0.135522
