21
gdb 92442	2.32651	1.71037	1.43718	1.2423	76.91	-0.2379	0.0751	0.3129	1029.8608	0.184699	-424.23626	-424.228232	-424.227288	-424.268206	32.505	
C	-0.2082097782	 1.5431076561	-0.047765736	-0.434286
C	 0.0451987148	 0.0379365096	 0.0022499107	 0.02932
C	 1.0607464875	-0.5638247485	-0.9870103045	 0.103157
C	 2.4148987757	 0.0050934432	-0.5196313646	-0.26639
C	 2.2548667603	-0.0085793028	 1.036830579	 0.136168
O	 2.3561528642	 1.2742073185	 1.6432088786	-0.442646
C	 0.8186992005	-0.5502738767	 1.2138868779	-0.068151
C	 0.859815543	-2.0238129395	 0.7761694451	-0.089222
O	 1.0411573245	-1.9619281732	-0.653342024	-0.285283
H	 0.6953735784	 2.1265242257	 0.12829146	 0.135785
H	-0.6304349807	 1.8267224849	-1.0184341506	 0.106728
H	-0.9332199965	 1.8302413418	 0.7210730211	 0.115546
H	-0.9096237281	-0.4865741049	-0.1186265836	 0.074601
H	 0.8482687085	-0.4660529866	-2.0526676213	 0.070243
H	 3.2388673319	-0.6204645882	-0.8707946034	 0.10443
H	 2.5768976034	 1.0278595076	-0.8748147675	 0.097508
H	 2.977766632	-0.6915770964	 1.5053732021	 0.06789
H	 3.2431948833	 1.6091812072	 1.4770306107	 0.280566
H	 0.4067740559	-0.3814598631	 2.2092092308	 0.072596
H	 1.6872668813	-2.5853866126	 1.2282778081	 0.093974
H	-0.0771772719	-2.5470983223	 1.0056202714	 0.097466
