21
gdb 108868	2.53733	1.1873	0.85657	2.3481	82.33	-0.2313	0.0286	0.2599	1382.433	0.182159	-424.233235	-424.22379	-424.222846	-424.267597	35.134	
C	 0.0060311769	 1.5476782426	-0.105385723	-0.391684
C	-0.0079465311	 0.0229890955	-0.0150303244	 0.092824
O	 0.6169614559	-0.4622558899	-1.197661669	-0.262116
C	 0.9429371581	-1.8363790648	-1.1294792076	-0.080283
C	 2.0026245929	-2.0957327304	-0.0564245824	-0.299703
C	 1.5950172155	-1.4270083116	 1.2345286281	 0.253103
C	 2.2909742607	-1.9012035155	 2.4794793216	-0.153306
O	 1.8612817385	-1.162226964	 3.6062090325	-0.414059
C	 0.659944025	-0.4789149506	 1.2392948776	-0.148561
H	 1.0352367542	 1.917434625	-0.094482393	 0.123337
H	-0.4724118696	 1.8720908395	-1.0335128816	 0.120682
H	-0.5329795769	 1.9866329289	 0.7393623777	 0.113184
H	-1.0633505013	-0.3134047364	-0.0074944931	 0.068781
H	 0.0429973973	-2.4362107634	-0.9132308184	 0.086563
H	 1.3037046389	-2.1173918613	-2.123296393	 0.102098
H	 2.1237473788	-3.1780719789	 0.0905249328	 0.095114
H	 2.9781330956	-1.7183549081	-0.3928739519	 0.112885
H	 2.0910949244	-2.9804673647	 2.6091632456	 0.091719
H	 3.3825544961	-1.8097230032	 2.3316705031	 0.09316
H	 2.3127036855	-1.5084009484	 4.3805808108	 0.28986
H	 0.3512659246	-0.0253733704	 2.1753361674	 0.1064
