13
gdb 127541	5.51075	1.38193	1.11285	1.3815	67.	-0.2523	-0.0409	0.2115	1006.546	0.092366	-448.920127	-448.913497	-448.912553	-448.951769	24.079	
C	 0.002085613	 1.4099378468	-0.0022334612	-0.308818
N	-0.0390880365	-0.037906469	-0.0030263153	 0.116773
N	 0.0267106173	-0.730689373	-1.1656357546	-0.362509
C	 0.0525098496	-1.9621748932	-0.6940212609	 0.392746
O	 0.0887122188	-3.2324934195	-1.1647147441	-0.207756
C	 0.0658717713	-3.9636386824	 0.018344105	 0.067566
N	 0.0160536786	-3.3073657243	 1.1307743464	-0.326721
C	 0.0073265094	-1.9892656273	 0.6906063028	 0.318043
N	-0.0475718043	-0.7362141529	 1.1434979279	-0.335978
H	 1.0321864322	 1.7688535445	-0.0908434054	 0.153664
H	-0.5827357346	 1.7767721829	-0.8461422544	 0.162081
H	-0.4257913388	 1.7546109725	 0.9383193874	 0.166989
H	 0.0944368841	-5.0342170452	-0.1135379636	 0.16392
