19
gdb 90568	2.8592	1.26524	1.04643	2.7944	78.13	-0.2076	0.0182	0.2258	1199.2285	0.158623	-419.143907	-419.134999	-419.134054	-419.178395	32.311	
C	-0.0356184227	 1.6453673009	 0.0975928711	-0.341823
N	 0.2029342211	 0.2111128827	 0.1115892559	-0.068688
C	 1.1826028163	-0.3985668398	-0.8223203205	-0.176959
C	 1.8058423525	-1.182330994	 0.3389241606	-0.162138
C	 2.3152687704	-0.2432470012	 1.3736006663	 0.112334
O	 2.9926855468	 0.9238544784	 0.9653444922	-0.194832
C	 3.1192563665	 1.8921475432	 1.8976652792	 0.139318
N	 3.6721271435	 2.985422888	 1.5958772872	-0.446263
C	 0.8212341858	-0.4288490859	 1.2584041705	-0.074422
H	 0.8755049642	 2.2612967886	 0.1198413697	 0.13183
H	-0.6030535422	 1.9057343901	-0.8027991087	 0.119817
H	-0.654186696	 1.9090289231	 0.9623135552	 0.1155
H	 0.6973608075	-1.0268291473	-1.5758661097	 0.108359
H	 1.8607133145	 0.3080686804	-1.3148919077	 0.119714
H	 2.0745824578	-2.229812249	 0.3165796016	 0.101805
H	 2.7658446451	-0.7285922735	 2.238965141	 0.104802
H	 2.707900306	 1.6123790968	 2.876663007	 0.088844
H	 3.6971119724	 3.5970325546	 2.4092814734	 0.229543
H	 0.2182576107	-0.773184196	 2.0943566456	 0.093258
