13
gdb 69046	3.00108	1.39615	1.16134	2.9237	61.39	-0.2728	-0.0619	0.2109	1020.9324	0.086343	-493.691784	-493.683718	-493.682774	-493.724654	28.908	
O	-0.303440636	 1.3684859781	-0.0434532514	-0.422673
C	-0.0861846652	 0.0296263332	-0.0141117382	 0.16994
C	-0.196583636	-0.9076667949	-1.1996638675	-0.395479
C	-1.0709895648	-1.1768509071	-0.0170151958	 0.277976
O	-0.2956295037	-1.8307369497	 1.0132318161	-0.288293
C	 0.5394249257	-0.7194599714	 1.1530625155	 0.414935
O	 1.3718382315	-0.5355109067	 1.9723762971	-0.303598
C	-2.5374433476	-1.1407475638	 0.0484261742	 0.079193
O	-3.22240916	-0.7128007316	-0.8500339969	-0.264153
H	 0.0338148013	 1.7355927617	-0.8675780195	 0.312871
H	-0.7236016265	-0.4689253934	-2.0434175173	 0.162892
H	 0.5932184074	-1.6129137001	-1.4383751662	 0.149681
H	-2.9582245962	-1.5134839143	 1.0041160099	 0.106708
