19
gdb 58408	2.34275	1.14236	0.80908	5.4772	74.29	-0.2699	-0.0471	0.2228	1413.989	0.155114	-460.194914	-460.184575	-460.18363	-460.231138	35.802	
C	-0.0986098392	 1.597380001	-0.0620126712	-0.395508
C	-0.0110001216	 0.0666901552	 0.0133530304	 0.003409
C	-1.4123345248	-0.549595068	 0.1467029819	-0.409362
C	 0.752406736	-0.4847389126	-1.2114220124	 0.009368
O	 2.0232280131	 0.1527766052	-1.252096461	-0.18344
C	 2.7514720868	 0.0438146291	-2.3875804282	 0.184834
O	 3.8496987182	 0.4972222229	-2.4827388273	-0.272395
C	 0.9277107263	-2.0019924203	-1.201925901	 0.143552
O	 1.9865301099	-2.5486240744	-1.3601421074	-0.228727
H	 0.8908503147	 2.0497629296	-0.1428422458	 0.148234
H	-0.6918616621	 1.9117328375	-0.9293054277	 0.113322
H	-0.5870516599	 1.99020304	 0.8347455679	 0.119525
H	 0.5791914897	-0.2014499463	 0.898980535	 0.104449
H	-2.0050741844	-0.390898652	-0.7619579663	 0.12076
H	-1.3912372239	-1.6225890103	 0.3540632945	 0.123826
H	-1.9467390992	-0.0709322611	 0.9722629381	 0.129604
H	 0.1710831094	-0.2420084584	-2.1189308801	 0.106519
H	 2.2098079614	-0.4687793201	-3.2034335478	 0.081648
H	-0.0094557103	-2.580546147	-1.0690712516	 0.100382
