19
gdb 47902	2.41941	1.68215	1.17288	3.5765	78.	-0.265	-0.0503	0.2147	1084.4106	0.161195	-423.060284	-423.052251	-423.051307	-423.093046	30.943	
O	-0.5289696313	 1.2753080022	-1.2583888829	-0.325922
C	-0.072713104	 1.3861995354	-0.1504170014	 0.379688
O	-0.8503153522	 1.2654325406	 0.9799534704	-0.252811
C	-1.7355200323	 2.3677620765	 1.2279483196	-0.084924
C	-0.9435190416	 3.6534434549	 1.4698714264	-0.21501
C	 0.0887014435	 3.5810617621	 2.609376831	-0.191154
C	 1.0849943729	 2.388020951	 2.5902068204	-0.245454
C	 1.8238875048	 2.1616960549	 1.2918116043	-0.053507
C	 1.3447194648	 1.6819813056	 0.1334702085	-0.132034
H	-2.4256299852	 2.4858092886	 0.3839659099	 0.123562
H	-2.312142041	 2.076652863	 2.1105630987	 0.112234
H	-0.4428100745	 3.9354040056	 0.5361910628	 0.119296
H	-1.6536430109	 4.4614666759	 1.683534832	 0.103314
H	 0.6558935978	 4.5194195898	 2.6090530457	 0.1034
H	-0.4350420475	 3.5425904185	 3.5726854508	 0.103539
H	 1.8222406443	 2.5656890298	 3.3800427239	 0.095279
H	 0.546661473	 1.4756009035	 2.8526287265	 0.139624
H	 2.8802451221	 2.4260504431	 1.2999020132	 0.108804
H	 1.9967402075	 1.5855182587	-0.7288105199	 0.112076
