17
gdb 13568	4.25188	1.29678	1.09222	2.4605	66.83	-0.2372	-0.0418	0.1954	1080.5104	0.139946	-400.966366	-400.957817	-400.956873	-400.999813	30.623	
C	-0.793524002	 1.1803466225	 0.3116047667	-0.317036
N	-0.1323569322	-0.1080273988	 0.1668734808	-0.075559
C	 1.18537671	-0.146501828	-0.4446735796	-0.261489
C	 1.0074635694	-0.4488350765	 1.0094623468	-0.00566
C	 1.5578283266	 0.4941829674	 2.0708162209	 0.029976
O	 0.8131081976	 0.4134900341	 3.2550993282	-0.437236
C	 3.0130675493	 0.1571397197	 2.3368954209	 0.133479
O	 3.3978141216	-0.1631848784	 3.4355868262	-0.258901
H	-0.1099396768	 2.040047758	 0.3969191871	 0.100085
H	-1.4239905239	 1.3453162602	-0.5673829783	 0.125999
H	-1.4314588324	 1.1583413074	 1.1994111931	 0.143992
H	 1.3687126499	-0.9444122395	-1.1592155915	 0.122024
H	 1.6553439212	 0.8049067497	-0.6991937591	 0.104284
H	 1.004339176	-1.4871137546	 1.3382332434	 0.104821
H	 1.5504947336	 1.5248448699	 1.6753446762	 0.092559
H	 1.4454381672	 0.1557044099	 3.9451165013	 0.29522
H	 3.6978271148	 0.2140433169	 1.4677436669	 0.103444
