21
gdb 88613	3.62248	1.15445	1.06202	1.6191	82.95	-0.2581	0.092	0.3501	1231.2678	0.183054	-387.017192	-387.009003	-387.008059	-387.050432	31.886	
C	 2.6720949386	-0.0226946707	-0.3983097682	-0.424909
C	 1.2397896918	-0.457902355	-0.2231198067	 0.086137
O	 0.9867385688	-1.5688679651	 0.6431878488	-0.254742
C	 0.4747648032	-0.2829856969	 1.0246216705	-0.008506
C	 1.0311574568	 0.3958760843	 2.2554857492	 0.007779
C	 0.3104676619	 0.230262958	 3.6332656488	-0.061966
C	 0.8769027195	-1.2190178645	 3.697216247	-0.220683
C	 2.051237693	-0.3270774212	 3.1944445395	-0.036505
C	 1.6397311045	 0.6975734014	 4.2915756906	-0.227131
H	 3.1880145604	 0.059160936	 0.5600850008	 0.132168
H	 3.2151822944	-0.7413308827	-1.0210110816	 0.128363
H	 2.7128262986	 0.95045715	-0.9001945434	 0.120182
H	 0.6630981189	-0.4970375781	-1.1500953817	 0.08392
H	-0.6104750232	-0.2041925679	 0.9193519679	 0.085464
H	 1.2901301788	 1.4364388984	 2.021963248	 0.0683
H	-0.7002497756	 0.5599972969	 3.8818590781	 0.066285
H	 0.9927091306	-1.6430336488	 4.6985766801	 0.085613
H	 0.478801051	-1.9518237553	 2.9964361108	 0.12205
H	 3.0610011165	-0.6513312927	 2.9405300884	 0.072613
H	 1.9319973514	 1.7396290201	 4.1319215496	 0.085635
H	 1.80251968	 0.3887534438	 5.3273993134	 0.089934
