16
gdb 16111	4.6283	1.63023	1.4225	1.8835	71.03	-0.2509	0.0272	0.278	900.9724	0.130654	-346.569743	-346.562674	-346.56173	-346.600728	27.648	
C	-0.0397892527	-1.1742893947	 0.3747003594	-0.351298
C	 0.0207421294	 0.0027465537	 0.1375105534	 0.186209
C	 0.0515405748	 1.3996426677	-0.1877586037	 0.266891
C	-0.8223732998	 1.952759119	-1.3069400252	-0.297889
C	-0.297511125	 3.3925995078	-1.5175352212	-0.225183
C	 1.192391758	 3.3576790925	-1.0975119234	-0.241722
C	 1.2484344291	 2.2592634985	-0.056398196	-0.007447
O	 0.1982919402	 2.3266685895	 0.9125293293	-0.298704
H	-0.0845208287	-2.21203041	 0.5957814083	 0.190429
H	-0.676786448	 1.3322901144	-2.1985572045	 0.113814
H	-1.8854712635	 1.9205446043	-1.0527680108	 0.117163
H	-0.4332136638	 3.7365783214	-2.5453232837	 0.101667
H	-0.8424506963	 4.0777532552	-0.8655059547	 0.123597
H	 1.8440571526	 3.0810834957	-1.9354497835	 0.107502
H	 1.5434373137	 4.3197545275	-0.7117775189	 0.113351
H	 2.1954649601	 1.8708316775	 0.3096168652	 0.10162
