17
gdb 14161	3.45265	2.3264	1.89531	0.7931	68.03	-0.2119	0.0089	0.2208	769.6452	0.142703	-363.809196	-363.802144	-363.8012	-363.839749	28.537	
C	-0.119541269	 1.5121060284	-0.0488040772	-0.480088
C	-0.0165860774	-0.0056524802	-0.0205018294	 0.476426
O	-1.2589859381	-0.5925978942	-0.2964137729	-0.474683
C	 1.2861066111	-0.6233039552	-0.7114938548	-0.129932
N	 1.9934638928	-0.1487198617	 0.5272463418	-0.308946
C	 0.7453015818	-0.6356661196	 1.2096328271	-0.105135
C	 0.7011112489	-2.1296518643	 0.842123406	-0.083558
C	 1.0656927196	-2.1187651427	-0.4437993066	-0.08122
H	 0.834870433	 1.977193393	 0.1928089315	 0.152874
H	-0.4271357008	 1.8515544212	-1.0472379039	 0.105218
H	-0.8774702271	 1.8491841306	 0.6670591424	 0.11952
H	-1.7559651432	 0.0100388385	-0.8573826384	 0.279644
H	 1.6666536387	-0.2913564527	-1.6786812979	 0.05886
H	 2.7803804625	-0.7603923638	 0.7451898376	 0.202793
H	 0.5636091223	-0.3238139354	 2.2390762087	 0.062729
H	 0.3765122215	-2.9442903955	 1.4727782969	 0.103651
H	 1.1207089035	-2.9241285463	-1.1617702809	 0.101848
