17
gdb 63013	2.52161	1.78864	1.55816	2.3614	66.06	-0.256	0.0546	0.3105	929.5668	0.134524	-458.919009	-458.911217	-458.910273	-458.950778	30.746	
C	 0.0752796653	 1.5210350829	 0.0064049092	-0.446326
C	-0.0032464413	-0.0023591204	-0.0103317958	 0.308855
O	-1.3449520696	-0.4818423479	 0.0344669703	-0.469147
C	 0.7095719694	-0.6339642631	-1.2243292532	-0.023346
O	 2.1024123487	-0.3493786699	-1.3398380743	-0.237617
C	 1.7152978286	-1.6042533461	-0.7698847721	 0.011375
C	 1.70388642	-1.6122145593	 0.7505588835	 0.005861
O	 2.0709809258	-0.3589544332	 1.3353865626	-0.239326
C	 0.6840022239	-0.6536474049	 1.201312394	 0.014357
H	 1.1204356363	 1.8369216112	 0.0146726484	 0.159959
H	-0.4038828909	 1.9443382971	-0.8848566932	 0.106059
H	-0.4281161473	 1.920522353	 0.8917508847	 0.124016
H	-1.8642647879	 0.0274007994	-0.5966710822	 0.283905
H	 0.1584498926	-0.718791091	-2.1602242814	 0.091671
H	 2.0022946735	-2.4927355564	-1.3241376719	 0.10245
H	 1.9901007358	-2.5028419475	 1.3016304774	 0.102505
H	 0.1112626072	-0.7453173139	 2.121301244	 0.10475
