18
gdb 50729	2.56341	1.56216	1.01144	2.8442	77.	-0.2263	0.0088	0.2351	1153.9677	0.150617	-435.293005	-435.284841	-435.283897	-435.326448	30.431	
N	 0.9713641159	-0.2485320961	 0.0957613656	-0.482681
C	-0.196185306	 0.2095241864	 0.3195301168	 0.090957
N	-1.3183228897	-0.4914041471	-0.1042518259	-0.140929
C	-1.0823731	-1.7615791197	-0.8001589904	-0.131282
C	-2.3618174699	-2.2803684028	-1.4383227161	-0.249106
C	-3.4858766425	-2.126559605	-0.433802611	-0.0757
O	-3.6598189579	-0.7416294485	-0.1130149549	-0.264737
C	-2.5837647425	 0.0407833799	 0.1603593294	 0.476072
N	-2.723640368	 1.2156820048	 0.6233693663	-0.573847
H	 1.668139994	 0.3888615823	 0.4758514811	 0.227561
H	-0.4587506994	 1.1340928043	 0.8316174328	 0.152994
H	-0.2901715176	-1.5976109926	-1.5343058776	 0.143967
H	-0.6877569117	-2.4903655711	-0.0807376516	 0.122148
H	-2.6093159751	-1.7122492265	-2.3416227942	 0.124517
H	-2.2344189566	-3.3284049698	-1.7244510095	 0.116768
H	-4.4522762406	-2.4504923122	-0.825667806	 0.124429
H	-3.276200899	-2.694066313	 0.4836062711	 0.114877
H	-3.7100103934	 1.3993938867	 0.7896061243	 0.223991
