17
gdb 107863	2.97355	1.41615	1.15198	1.6713	71.99	-0.2303	-0.0041	0.2262	1092.4557	0.134282	-421.755745	-421.74786	-421.746916	-421.788459	30.092	
C	 0.0334803969	 1.5518382402	 0.0011663889	-0.383161
C	 0.0719770784	 0.0203922969	-0.0489641356	-0.327244
C	 0.7147131529	-0.4976077508	-1.2987628832	 0.510352
O	 2.1009438921	-0.1353679985	-1.6019849259	-0.357457
C	 1.680114758	-0.9793400303	-2.7024515793	 0.092723
C	 0.8662131534	-1.9846001593	-1.8129210191	-0.313994
C	-0.3458525746	-1.7855823913	-2.7125058671	 0.449311
O	-1.2760386131	-2.4088964171	-3.1272806937	-0.329433
C	 0.2344785853	-0.3815133976	-2.8057017619	-0.303851
H	 1.040520436	 1.9654253546	-0.0983814247	 0.14334
H	-0.5800600515	 1.958658043	-0.8087903576	 0.122539
H	-0.3880485037	 1.8959462967	 0.9494371699	 0.120086
H	 0.6312073797	-0.3731962944	 0.8082631833	 0.122307
H	-0.93969679	-0.3987817354	 0.011616984	 0.122153
H	 2.3790894692	-1.2007069267	-3.5058055865	 0.119542
H	 1.2524082829	-2.8342691472	-1.256054987	 0.106027
H	-0.069113392	 0.5183180973	-3.3337949345	 0.106761
