21
gdb 108077	2.50405	1.41801	1.18657	1.6317	82.71	-0.2351	0.0726	0.3077	1158.957	0.182581	-387.041274	-387.032449	-387.031505	-387.074724	33.907	
C	-0.1964684274	 1.494476748	-0.0992786572	-0.532016
C	-0.0603743621	 0.0107574556	 0.0052956408	 0.305033
C	-0.0719001487	-1.1021738093	-1.0193241216	-0.146587
C	 1.2568025282	-1.6605128768	-0.5192000003	-0.234056
C	 0.934691941	-0.9324248372	 0.8145374244	-0.111453
C	-0.3014469134	-1.6893256978	 1.3658118882	-0.294433
C	-1.062027917	-1.1183865594	 0.165564564	 0.270574
C	-2.5432213102	-1.0910025069	-0.0540531908	-0.187135
O	-3.0773218486	-2.3285526074	-0.5172969919	-0.414177
H	 0.7140092507	 1.9521698915	-0.5041438207	 0.122411
H	-1.0226153116	 1.7656395912	-0.76568943	 0.124521
H	-0.39219581	 1.9559055531	 0.8759932504	 0.119824
H	-0.4483460646	-1.0635690416	-2.0343867414	 0.085513
H	 1.3976943358	-2.7473445259	-0.4781891496	 0.08528
H	 2.1029573305	-1.2023724219	-1.0394709952	 0.0969
H	 1.7306858205	-0.6043372201	 1.4808293541	 0.067342
H	-0.2097201131	-2.7774038832	 1.4796140868	 0.080203
H	-0.6653976417	-1.2547095478	 2.3025428603	 0.092918
H	-3.0525396353	-0.768423111	 0.8691493707	 0.083699
H	-2.7942652075	-0.3586871035	-0.8299354502	 0.104369
H	-2.8299464956	-3.0061091799	 0.1198762494	 0.28127
