17
gdb 37834	3.0223	1.93602	1.70074	1.9133	71.21	-0.2306	0.0601	0.2907	854.8435	0.138651	-417.862321	-417.85588	-417.854936	-417.893025	26.403	
C	 0.0080934094	 1.4660127367	-0.1618280206	-0.204002
O	 1.3755500239	 1.8601730328	 0.091590036	-0.280845
C	 2.0264966648	 0.9418060157	 1.0021374163	-0.18031
C	 1.1136559971	-0.2603771667	 1.0828521753	 0.219522
N	 0.0547369981	-0.4719680706	 2.1289339436	-0.376883
C	-0.4990359436	-1.1417958017	 0.9095600556	-0.082601
C	 0.885086454	-1.6251063316	 0.3348505482	-0.100456
N	 0.6191560104	-1.0092548915	-1.0072089092	-0.37929
C	 0.0512018588	-0.0269618256	-0.023631542	 0.304007
H	-0.6737260084	 1.9001687681	 0.5813505022	 0.119454
H	-0.2512205177	 1.8324323687	-1.1578432639	 0.122186
H	 3.0200997688	 0.7249089137	 0.5969560072	 0.113107
H	 2.1411884731	 1.4027887498	 1.9907973909	 0.11691
H	 0.3581258469	-1.1707373627	 2.8115580579	 0.212427
H	-1.4621098492	-1.6520044476	 0.879532894	 0.095505
H	 1.3839843617	-2.5884803874	 0.466008533	 0.084758
H	 1.4925361519	-0.6425894299	-1.3965276045	 0.216511
