19
gdb 118610	2.81311	0.79748	0.65038	3.0513	79.44	-0.2478	-0.0241	0.2237	1704.4262	0.154683	-422.984937	-422.974161	-422.973217	-423.022248	36.609	
C	 0.0467064874	 1.4292862709	 0.0441768673	-0.230506
O	 0.0022521312	 0.0215903017	 0.0213123437	-0.229274
C	 0.631537669	-0.5293016776	-1.1063326484	-0.051052
C	 0.5794491715	-2.0616081637	-0.9931483478	-0.196603
C	 1.0850885869	-2.709935754	-2.3068471642	-0.290532
C	 0.9344374481	-4.2174433207	-2.3267079308	 0.151927
O	 0.4669715359	-4.8343668591	-3.2493691355	-0.240844
C	 1.3378469133	-2.532361603	 0.1646726241	 0.350626
C	 1.9932031462	-2.9246128577	 1.0927453046	-0.478818
H	 1.0819866577	 1.8037198183	 0.0661893511	 0.108494
H	-0.4595818842	 1.8685976522	-0.8299229852	 0.105724
H	-0.4671514761	 1.7556662499	 0.9510612805	 0.132805
H	 0.119198881	-0.2169659309	-2.0323119915	 0.090249
H	 1.6807504783	-0.1967739047	-1.1774167692	 0.095085
H	-0.4766744891	-2.3283519458	-0.8539537563	 0.127766
H	 0.552550333	-2.3030660044	-3.1709109383	 0.12429
H	 2.1537900329	-2.4814934408	-2.4227658157	 0.132553
H	 1.2996150037	-4.7327281077	-1.412426316	 0.096068
H	 2.5547799832	-3.2667321629	 1.9267206477	 0.202043
