18
gdb 80895	2.64479	1.77274	1.48208	2.367	70.43	-0.2243	0.0572	0.2816	945.8557	0.148622	-439.012431	-439.00497	-439.004026	-439.043678	30.898	
O	-0.1570295167	 1.4951732694	-0.0114669853	-0.461075
C	 0.0460244787	 0.092339499	-0.024095777	 0.048697
C	 0.1242733821	-0.5963779389	 1.3740467381	-0.055692
C	-1.3874464139	-0.264491929	 1.5203445474	-0.282304
C	-1.340183075	-0.6044183043	-0.0295409565	 0.406349
O	-2.3265066817	-0.2706499724	-0.939725299	-0.492705
C	-0.9982625905	-2.0920248301	 0.0726572768	-0.06851
C	 0.3790551614	-2.5748435294	-0.2024094119	-0.253773
N	 0.0376176474	-2.0789073172	 1.1480783605	-0.11564
H	 0.6913522782	 1.9244557074	 0.1329810563	 0.290144
H	 0.7778046365	-0.1657477084	-0.7930107491	 0.064949
H	 0.8693482275	-0.3206937138	 2.1191905	 0.072744
H	-1.9665111689	-0.9318558425	 2.1606567259	 0.103765
H	-1.5937834691	 0.7838942089	 1.7267600649	 0.110388
H	-2.3515835464	 0.692689665	-0.9857083725	 0.292079
H	-1.8263536811	-2.7895571894	 0.1690098553	 0.101213
H	 0.5366729187	-3.6501334898	-0.2132039251	 0.118977
H	 1.0550664627	-2.0349793545	-0.853657539	 0.120394
