25
gdb 113077	2.19464	1.10899	0.86322	1.5801	89.32	-0.2372	0.0825	0.3197	1520.0055	0.2276	-389.492984	-389.482177	-389.481232	-389.529731	39.524	
C	-0.3502615881	 1.4606762019	 0.4683770658	-0.381707
C	-0.1288443357	-0.0192727445	 0.1377987395	-0.1892
C	 0.8413414866	-0.6739810127	 1.1077065992	 0.164501
O	 0.3412508883	-0.6733113613	 2.4668842886	-0.318589
C	 0.6046166656	-2.088495911	 2.626106727	 0.1645
C	-0.600990668	-2.8404721621	 3.166170588	-0.1892
C	-0.9895415559	-2.3585027899	 4.5680589694	-0.381706
C	 1.0275643281	-2.2185482598	 1.1343697635	-0.105904
C	 0.1859874829	-3.0805814998	 0.200141688	-0.408696
H	 0.5837173496	 2.0282570072	 0.3903298961	 0.111613
H	-1.0766181084	 1.9148824506	-0.2121166732	 0.108395
H	-0.7232411353	 1.5689845897	 1.4906443065	 0.137073
H	-1.0873254408	-0.5489090414	 0.1660911714	 0.095937
H	 0.2670074535	-0.1253527506	-0.8809861325	 0.092331
H	 1.8047375462	-0.1420021573	 1.0622548048	 0.063555
H	 1.4540967555	-2.2371600214	 3.3112934922	 0.063556
H	-1.4488405221	-2.7093597869	 2.4850237684	 0.095934
H	-0.36686619	-3.9131795354	 3.1851174091	 0.092331
H	-1.201145193	-1.2856916933	 4.554884493	 0.137073
H	-1.8791045268	-2.8795158948	 4.9343809035	 0.108394
H	-0.1795877109	-2.5317177415	 5.2853646218	 0.111613
H	 2.0769704207	-2.5072947351	 1.0289776151	 0.072785
H	-0.8799837887	-2.8457836766	 0.2524043058	 0.123429
H	 0.5038566481	-2.9466472757	-0.8392173938	 0.115991
H	 0.3035339387	-4.1417048881	 0.4439605725	 0.115995
