17
gdb 46404	3.24805	0.99421	0.89283	2.6008	75.26	-0.2434	0.019	0.2624	1324.7439	0.135575	-417.948861	-417.939994	-417.93905	-417.983316	32.201	
N	-0.5650777034	 0.9138095147	-0.8293465725	-0.545594
C	-0.3921198802	-0.226087534	-0.3372515578	 0.475705
O	 0.7277640369	-1.024633415	-0.2801162054	-0.251583
C	 0.0142690553	-2.0422816881	 0.4918578737	-0.105055
C	-1.2822061188	-1.2100320081	 0.4082021796	-0.119742
N	-1.7807023916	-0.7154400212	 1.6817525696	-0.299421
C	-2.8871532694	 0.2451054218	 1.5348484538	-0.314633
C	-4.120968892	-0.3284820424	 0.984155597	 0.304885
C	-5.111227857	-0.8509318215	 0.5442772167	-0.468589
H	 0.296145561	 1.2838412943	-1.235566147	 0.230275
H	 0.0188308468	-3.0024632461	-0.0282287807	 0.122195
H	 0.4328295109	-2.1333757641	 1.496647581	 0.126333
H	-2.0545331598	-1.6536195325	-0.237637932	 0.10544
H	-2.1082516946	-1.5051497295	 2.2317880172	 0.226388
H	-3.0909758277	 0.6767392109	 2.5211400306	 0.134062
H	-2.5356862203	 1.0610295439	 0.8947109749	 0.179681
H	-5.9941859562	-1.2900029833	 0.1502025012	 0.199654
