17
gdb 72977	2.68938	1.51373	1.20756	3.5414	73.82	-0.2641	0.0274	0.2915	1056.7234	0.135707	-417.980037	-417.971314	-417.97037	-418.012903	33.137	
N	-0.111510031	 1.4314114007	 0.0656989215	-0.557898
C	-0.1033721908	-0.0088485982	 0.0230703064	 0.04923
C	 0.9450197529	-0.6164589987	-0.772795435	 0.240069
N	 1.7991713699	-1.0214532837	-1.4411128443	-0.347006
C	-0.5077124832	-0.8239166829	 1.2550752269	-0.142616
C	-1.5684106404	-0.0514848366	 2.0501313347	-0.229971
C	-2.4976895391	-0.0574078187	 0.793407323	-0.29403
C	-1.4038457006	-0.8181915491	 0.0334271779	 0.373968
O	-1.6204847411	-1.8569415523	-0.8420789028	-0.443914
H	 0.7449842847	 1.7809042955	 0.4853005475	 0.245235
H	-0.1667217386	 1.8207489915	-0.8704306799	 0.242073
H	 0.1516874362	-1.5972739932	 1.6284681169	 0.115499
H	-1.9721878378	-0.6446017901	 2.8724862728	 0.113124
H	-1.2676046471	 0.9303710003	 2.4173023652	 0.115312
H	-3.379021079	-0.6866598574	 0.9314938125	 0.117709
H	-2.791581713	 0.9139067087	 0.3910137759	 0.107566
H	-1.6787187021	-1.5150889958	-1.7416426093	 0.295648
