21
gdb 78376	2.74263	1.44325	1.21364	1.2659	81.88	-0.2272	0.0682	0.2955	1131.8324	0.182993	-387.032746	-387.024498	-387.023554	-387.065016	33.281	
C	-0.0019024685	 1.4764231918	-0.0276645221	-0.422973
C	 0.0656284625	-0.0370521929	-0.0070765081	-0.003767
C	 1.4248400966	-0.6526010753	-0.2018051252	-0.07578
C	 0.7415927912	-0.6614825855	 1.1807880841	-0.054881
C	 0.7313450364	-2.2049416898	 1.1764464673	-0.055349
C	-0.4774379833	-2.9964283845	 0.6014755673	 0.10772
O	-1.7375233645	-2.40226301	 0.8249275717	-0.422302
C	 0.1563395909	-2.9236184907	-0.8350468472	-0.300667
C	 1.3965158707	-2.1980294733	-0.2323062367	-0.028231
H	 0.8967660219	 1.9206769285	 0.4146252876	 0.11141
H	-0.0892748289	 1.8551280753	-1.0520024023	 0.113118
H	-0.8659498871	 1.8395169158	 0.5392610894	 0.118602
H	-0.8150466583	-0.5214955282	-0.4137455161	 0.09206
H	 2.2600122803	-0.0513148873	-0.5448282915	 0.075146
H	 0.9713547398	-0.0681890704	 2.0588645859	 0.07704
H	 1.2337354642	-2.6484364014	 2.0366946508	 0.062471
H	-0.4692616046	-4.0302266492	 0.9758271705	 0.065532
H	-2.4099489515	-2.9756518292	 0.4434855697	 0.282666
H	 0.3763075233	-3.9040420442	-1.2659831381	 0.09183
H	-0.4217624223	-2.3466333334	-1.5609880108	 0.101693
H	 2.3672261612	-2.6676214161	-0.3888462462	 0.064661
