17
gdb 52446	2.87825	0.67087	0.5631	5.758	71.7	-0.2623	-0.0044	0.2579	1855.2015	0.134779	-455.159092	-455.149267	-455.148323	-455.196107	32.654	
O	 0.247109045	 0.0540435405	-0.352396661	-0.264502
C	 0.2523901603	 1.244943628	-0.4112254081	 0.176832
O	 1.1326071901	 2.0017637377	 0.2803473996	-0.191512
C	 1.0233797586	 3.4291776712	 0.1845783666	-0.093828
C	 2.4222624647	 4.0138904551	 0.0892436568	-0.133948
N	 3.0707594476	 3.5710866438	-1.1382530864	-0.302837
C	 4.4139514601	 4.1169743359	-1.2941938162	-0.262945
C	 5.0361348418	 3.6376581403	-2.5312240657	 0.260866
N	 5.5375034151	 3.2489579537	-3.4960643466	-0.292057
H	-0.4394334066	 1.8490355049	-1.0286999054	 0.086299
H	 0.4392341805	 3.7032828957	-0.7014741208	 0.127073
H	 0.5153478083	 3.8013306941	 1.0806434766	 0.125103
H	 2.3341552233	 5.1074689056	 0.0682497679	 0.117621
H	 2.9863020013	 3.7515954375	 1.0021035109	 0.106747
H	 3.1160761957	 2.5565924129	-1.1410447169	 0.246152
H	 4.3472619933	 5.2111076183	-1.3452622367	 0.157415
H	 5.0965122909	 3.8847697345	-0.4564235349	 0.137521
