13
gdb 130629	5.0847	1.29401	1.03813	0.9859	65.47	-0.2292	-0.0202	0.209	1036.9035	0.091237	-452.767904	-452.761299	-452.760355	-452.799044	25.241	
O	 0.0362113254	 0.0029005625	 0.0039000698	-0.333901
C	-0.0282808863	 1.2016608408	 0.0094325811	 0.426094
C	-1.3066787939	 2.0956650865	 0.0326669659	-0.507603
C	-0.727936352	 3.478434059	 0.0314626253	 0.109517
C	 0.6260975077	 3.3655933982	 0.0118697208	 0.528998
N	 1.0834421278	 2.0691520074	-0.0010164481	-0.455181
O	 1.2641692631	 4.51557658	 0.0089644952	-0.239652
N	 0.2437857113	 5.5352440552	 0.0283178724	-0.161802
C	-0.9009840364	 4.879920838	 0.0410278018	-0.107034
H	-1.9186406858	 1.8473786528	-0.8408571592	 0.158537
H	-1.8932684553	 1.8382714064	 0.9208450118	 0.15863
H	 2.0382127847	 1.7503795542	-0.015818148	 0.283229
H	-1.8089532104	 5.467316399	 0.0568171712	 0.140167
