15
gdb 130058	6.27907	0.92859	0.81386	2.0999	73.62	-0.212	0.0183	0.2303	1332.8188	0.113788	-412.975212	-412.966863	-412.965919	-413.009103	30.383	
N	 0.5616127155	 1.2166158136	-0.7972199507	-0.58018
C	 0.1147282459	 0.0456370125	-0.2212328971	 0.40469
N	-0.8781671353	-0.6752678916	-0.7306156019	-0.33705
N	-1.0005872134	-1.6729589005	 0.1969384449	 0.030241
C	-2.0274078249	-2.684245982	 0.0034210566	-0.264043
C	-1.9958749597	-3.7206682899	 1.0258872388	 0.272396
C	-1.9925059381	-4.5861301292	 1.8578261102	-0.417106
C	-0.0988035774	-1.5000434742	 1.1765130205	 0.023862
N	 0.633107622	-0.4222300592	 0.9512333153	-0.338849
H	 1.5147176952	 1.4380372481	-0.5501976739	 0.258844
H	 0.3832953136	 1.2802916151	-1.7885342307	 0.25648
H	-3.0067780073	-2.1901202145	-0.0050214593	 0.163072
H	-1.8879983251	-3.1257381437	-0.9905328573	 0.162687
H	-1.9911567465	-5.3538268339	 2.5922758173	 0.212201
H	-0.0113448344	-2.1719372005	 2.0153066073	 0.152755
