22
gdb 53529	2.73025	0.92397	0.81334	1.091	91.4	-0.2203	0.0562	0.2765	1555.3449	0.190954	-367.164869	-367.153821	-367.152876	-367.202399	39.148	
C	 0.1447055729	 1.3689646528	 0.3984362777	-0.497665
C	 0.0678277572	-0.0529729619	 0.0934652501	 0.061029
C	 0.0131743217	-1.2290487693	-0.1606724865	 0.080096
C	-0.0685780194	-2.6574462304	-0.4605817782	-0.433454
C	-1.4372932045	-3.2731997564	-0.1459948199	 0.347583
C	-2.5771334647	-2.7137551373	-0.9734185182	-0.44407
C	-1.4706073143	-4.700279227	 0.2965086017	-0.302178
N	-1.8040107475	-3.6258010628	 1.2266850871	-0.101517
C	-0.8991253767	-3.3698861092	 2.3366204919	-0.316032
H	 1.05740373	 1.6081591309	 0.9556237646	 0.146575
H	 0.1471201616	 1.9743165182	-0.5148637082	 0.146583
H	-0.707174051	 1.692510616	 1.0067978908	 0.148021
H	 0.1374453547	-2.8198807605	-1.5272931306	 0.127571
H	 0.7208995731	-3.1926774419	 0.0773188901	 0.123594
H	-2.4221843467	-2.914872804	-2.0399346714	 0.10783
H	-3.5231249374	-3.1641220124	-0.6652039903	 0.122745
H	-2.6522843486	-1.629651318	-0.8417303338	 0.128534
H	-2.2876599916	-5.3561146562	 0.0038431897	 0.108131
H	-0.5123426536	-5.2049736478	 0.4254132268	 0.097698
H	 0.154814006	-3.6240127545	 2.1416585329	 0.096437
H	-0.948749393	-2.3114861493	 2.6080291624	 0.132132
H	-1.2282233583	-3.9620401689	 3.1968435314	 0.120355
