15
gdb 128376	2.68926	1.57802	1.00068	0.6076	73.12	-0.2279	-0.052	0.1758	1122.17	0.112976	-453.946994	-453.938805	-453.937861	-453.980339	29.463	
C	 0.0544613808	 1.4118662322	-0.0238524111	-0.315413
N	-0.0860869068	-0.0256424065	 0.0049693779	-0.32056
C	-1.2673939104	-0.6657408924	 0.0037941579	 0.30609
N	-2.3774074958	 0.0268756951	-0.0257420575	-0.216454
O	-3.565496663	-0.7209894319	-0.0249486804	-0.216696
C	-3.5437134674	-2.0452917096	 0.0043695572	 0.122123
C	-2.4279228043	-2.8121425938	 0.035810997	-0.291703
C	-1.1527555997	-2.1617804352	 0.0381756646	 0.356845
O	-0.0451718283	-2.6855306812	 0.0642762898	-0.389462
H	 1.116089257	 1.6631143615	-0.0164006364	 0.130927
H	-0.4069774618	 1.8362025547	-0.9230608408	 0.143329
H	-0.4283402491	 1.8739585702	 0.8450491725	 0.143229
H	 0.7097734603	-0.6465159574	 0.0297142	 0.269869
H	-4.5549330854	-2.4400792095	-0.0001900572	 0.150075
H	-2.4957451661	-3.8914978063	 0.0586904165	 0.127802
