20
gdb 55262	3.49535	1.06282	0.83175	3.529	87.64	-0.1981	0.0069	0.205	1403.5404	0.170458	-403.207038	-403.197447	-403.196503	-403.242043	34.465	
C	 0.0423721274	 1.5009420037	-0.0388377156	-0.499819
C	 0.050096944	-0.0193840056	-0.0134828406	 0.392485
O	 1.0820041884	-0.6719068269	-0.0134062358	-0.37517
N	-1.1690615799	-0.6392433191	 0.0096843013	-0.090266
C	-1.2713113701	-2.110747381	 0.0352805893	-0.157138
C	-2.7976377702	-2.3869430672	 0.0572084459	-0.334905
C	-3.4233343767	-1.0045758689	 0.0393978674	 0.235831
C	-4.897574234	-0.7766951668	 0.0507118608	-0.485602
C	-2.4561153154	-0.0833765305	 0.0134927253	-0.090094
H	 1.0778809403	 1.839083001	-0.0547735688	 0.146864
H	-0.4744103	 1.884752159	-0.9245719099	 0.136652
H	-0.4569455934	 1.9144136916	 0.843549386	 0.136634
H	-0.7710142208	-2.5273392681	-0.8425863546	 0.130519
H	-0.7507586733	-2.4982326696	 0.9146579708	 0.130593
H	-3.1169107557	-2.9842485065	-0.8059564671	 0.11319
H	-3.0974957496	-2.9526234937	 0.9482237282	 0.113198
H	-5.3652338869	-1.214886308	 0.9425563906	 0.125489
H	-5.1405365427	 0.2895990605	 0.0346949464	 0.123052
H	-5.3834848698	-1.2454556788	-0.8154613234	 0.125492
H	-2.5689893017	 0.990875945	-0.0039389062	 0.122996
