22
gdb 78669	2.5375	1.57938	1.20946	1.5604	86.	-0.2296	0.0891	0.3187	1151.8681	0.193577	-367.162676	-367.153748	-367.152804	-367.195508	35.067	
C	-0.1340852797	 1.4394593549	 0.0473306553	-0.402929
C	 0.0075469829	-0.0661005556	-0.0970354685	 0.082243
C	 0.8866921969	-0.5434400083	-1.2686324938	-0.109121
C	 2.0649067118	-0.510230546	-0.2228429049	-0.113602
N	 1.0413219766	-0.5918429338	 0.8635057021	-0.192928
C	 1.5999146729	-1.8447919435	 0.222424174	 0.335502
C	 2.240757186	-2.8499362043	 1.126912086	-0.50374
C	 0.8941329842	-2.094855049	-1.1200195455	-0.02707
C	-0.3846519378	-2.9194477443	-1.2167128559	-0.433179
H	 0.8309623511	 1.9422817083	-0.0734720695	 0.116978
H	-0.822878737	 1.8339542205	-0.7072665063	 0.109627
H	-0.5261492507	 1.6942256829	 1.0366515125	 0.123466
H	-0.9749504548	-0.5408129434	 0.0126342222	 0.061936
H	 0.8516919322	-0.0760776315	-2.2526260343	 0.063491
H	 3.0102400165	 0.0106991653	-0.142207164	 0.09072
H	 2.7759091199	-2.3498159195	 1.9385789313	 0.132767
H	 1.4900718181	-3.5085758332	 1.5782743247	 0.123141
H	 2.9510320458	-3.4758143452	 0.5753349261	 0.11507
H	 1.6432241241	-2.5013036302	-1.8108682187	 0.072179
H	-1.1462296347	-2.6016172016	-0.5000323201	 0.123237
H	-0.8177446864	-2.8516338533	-2.2211612096	 0.114947
H	-0.1743628279	-3.9768649692	-1.0218762632	 0.117267
