25
gdb 119052	1.63131	1.30629	0.83572	1.3709	89.59	-0.2565	0.072	0.3284	1525.9816	0.226987	-389.483057	-389.471811	-389.470866	-389.519685	41.197	
C	-2.6489537652	 1.5457977558	 0.2306345773	-0.378483
C	-2.2627093217	 0.0913808892	-0.0539638008	-0.170598
C	-2.169448846	-0.7535320641	 1.2253212317	-0.257239
C	-1.8231768846	-2.2201322377	 1.0039637296	 0.362
C	-0.4386649232	-2.4684925958	 0.4429597551	-0.146889
O	 0.5213238546	-1.9183088649	 1.3389554016	-0.422807
C	-2.3274844514	-3.2396930837	 2.0025452768	-0.339391
C	-2.8837451291	-3.2284973735	 0.5987422252	-0.036537
C	-4.3277795009	-2.8654858098	 0.3248065293	-0.415297
H	-2.697263919	 2.1359792661	-0.6900419564	 0.107307
H	-3.628912868	 1.6079808055	 0.717373646	 0.110851
H	-1.9212502452	 2.024137501	 0.8957052418	 0.115128
H	-2.9934242854	-0.3571326573	-0.7384647516	 0.094926
H	-1.3004081363	 0.0734652907	-0.580006157	 0.096781
H	-1.4056880638	-0.3237850939	 1.8840559087	 0.113951
H	-3.1173348717	-0.679011524	 1.7704765421	 0.085156
H	-0.2851906618	-3.5523656749	 0.3193013643	 0.077108
H	-0.3454746657	-2.0119837112	-0.5551982233	 0.084901
H	 1.3851255768	-1.9693074617	 0.9197182696	 0.285079
H	-1.6650165905	-4.045331672	 2.3014783266	 0.107342
H	-2.9719767064	-2.879481291	 2.7987988308	 0.103806
H	-2.518984642	-4.028168962	-0.0434023583	 0.07416
H	-4.6855208989	-2.0705054074	 0.9846813781	 0.117561
H	-4.4709327867	-2.5303647329	-0.7086338727	 0.115553
H	-4.9767386678	-3.7345124807	 0.4818941754	 0.115632
