20
gdb 119515	3.84857	0.96504	0.88602	2.4156	78.52	-0.2038	0.0733	0.2771	1363.971	0.170643	-403.05303	-403.044385	-403.043441	-403.086784	33.255	
O	-0.1729540948	 1.5308254809	 0.0363559865	-0.418131
C	 0.0418145088	 0.1293854037	-0.023887471	-0.071281
C	-1.3265689305	-0.5444691422	 0.0621907659	-0.315071
C	-1.2624125383	-2.0408972728	 0.0232544681	 0.347781
N	-2.3240456915	-2.8966620499	 0.6122801069	-0.388954
C	-0.9076175492	-3.0475558827	 1.0469138535	-0.122172
C	-0.1506730134	-3.9054231968	-0.0074103177	-0.053108
C	-1.0308042719	-4.3024033442	-1.1624473776	-0.291628
C	-0.5267341339	-2.8853876355	-1.0734871962	-0.104066
H	 0.6793146824	 1.9698718602	-0.0362538983	 0.286632
H	 0.5452557742	-0.1558960884	-0.9606009721	 0.091353
H	 0.6758325839	-0.2176467413	 0.8072945699	 0.088931
H	-1.8073139819	-0.2206039158	 0.9937102956	 0.102925
H	-1.950463519	-0.1696176735	-0.759892487	 0.11626
H	-2.7933480887	-2.3381572298	 1.3250889498	 0.223758
H	-0.6304669948	-2.9289806929	 2.086968735	 0.089362
H	 0.8166129813	-4.3524122171	 0.1807773234	 0.086183
H	-0.5325814641	-4.9037589991	-1.9170426088	 0.103441
H	-2.0778304588	-4.5262281984	-1.0065565	 0.142553
H	 0.1085627002	-2.4424485043	-1.8298622459	 0.08523
