15
gdb 27640	3.23073	1.22693	0.8949	4.8051	77.81	-0.2042	-0.0001	0.2041	1237.0875	0.113126	-416.867904	-416.859389	-416.858444	-416.900993	31.183	
C	 0.1108373155	 1.4610473805	 0.0030679769	-0.491115
C	-0.0743775896	-0.0103230359	-0.0010183939	 0.364324
C	-1.135020816	-0.8336302295	-0.1377786887	-0.391781
C	-0.6353657863	-2.1905442071	-0.059215126	 0.107007
C	-1.3310181814	-3.4103437867	-0.1632076983	 0.17308
N	-1.8739957179	-4.4325595183	-0.2507078496	-0.365167
C	 0.7231301397	-2.0677939458	 0.1327295454	 0.309803
N	 1.709832076	-2.9882712776	 0.351961658	-0.601813
O	 1.0788284831	-0.7736389806	 0.1688341109	-0.205778
H	 0.7778297117	 1.7881881479	-0.8031253062	 0.139395
H	-0.855745073	 1.9503314931	-0.1350447344	 0.142794
H	 0.5408206388	 1.8129421983	 0.9479614528	 0.141546
H	-2.1622981013	-0.5418967874	-0.2851645593	 0.128527
H	 1.4696695279	-3.9326235819	 0.0874554459	 0.280356
H	 2.6343738929	-2.707111119	 0.0590855567	 0.268822
