20
gdb 62159	4.56528	0.63991	0.61587	4.6246	77.99	-0.2523	-0.0263	0.226	1790.2212	0.168264	-440.324143	-440.313496	-440.312551	-440.361927	36.274	
C	 0.0290803836	 1.3217117641	 0.4649842262	-0.385868
C	 0.0976937821	-0.1310601138	-0.0215763911	-0.000463
C	 0.9111615249	-1.0235963081	 0.9355129237	-0.1665
N	 2.2925297959	-0.6036959289	 1.0973783972	-0.277142
C	 2.7831589236	-0.0848643976	 2.2572466764	 0.154846
O	 2.1408474333	 0.1000584256	 3.2683609585	-0.319863
C	-1.310835224	-0.7316020231	-0.2093401113	-0.275276
C	-2.0675238932	-0.0761281329	-1.3427052798	 0.161887
O	-3.1694435297	 0.3997889512	-1.2611376824	-0.237249
H	 1.0291832747	 1.7515567107	 0.5617709255	 0.122749
H	-0.5409398711	 1.9470562226	-0.2290964569	 0.124125
H	-0.4555985021	 1.3799112667	 1.4452431952	 0.13715
H	 0.6004676007	-0.1483923979	-1.0013547493	 0.070329
H	 0.4694905077	-1.0043828307	 1.9355575238	 0.152583
H	 0.8887555187	-2.0608687401	 0.5780413488	 0.104466
H	 2.9291578114	-0.7132391227	 0.3238014835	 0.24696
H	 3.8620388882	 0.1541468506	 2.1734788932	 0.076547
H	-1.2194999528	-1.7985919328	-0.4632268615	 0.114877
H	-1.9066756077	-0.6516669911	 0.7053188168	 0.127165
H	-1.510241674	-0.0650679218	-2.3107767967	 0.068678
