18
gdb 9389	3.5312	1.03699	0.84445	1.8181	70.74	-0.2576	0.0305	0.2881	1367.6167	0.150039	-384.890027	-384.880096	-384.879152	-384.925557	34.347	
C	-0.0110534542	 0.9242197113	 1.1094460687	-0.385381
C	-0.1311036936	-0.0264442955	-0.0690539556	-0.025093
O	-1.373009648	-0.6978136627	 0.0188827355	-0.240728
C	-1.5940386611	-1.6058725613	-1.0281279649	-0.065847
C	-2.9438592259	-2.3035934339	-0.7941807452	-0.052174
O	-3.3007886138	-3.0719672075	-1.9390137465	-0.417589
C	-2.9383987997	-3.1112763807	 0.4261597016	 0.315092
C	-2.9117030218	-3.8271099474	 1.3914094751	-0.474288
H	 0.9436563949	 1.4572910623	 1.0728910598	 0.114811
H	-0.820652162	 1.6592950552	 1.0934961623	 0.12762
H	-0.0670753251	 0.3733809282	 2.0524511537	 0.129824
H	-0.0655489773	 0.5256061137	-1.0219115079	 0.087123
H	 0.6942862992	-0.7581694306	-0.063804772	 0.087855
H	-1.6414019703	-1.098022317	-2.0044953341	 0.097591
H	-0.7923711772	-2.3625303303	-1.079728027	 0.08254
H	-3.7082366268	-1.5227125427	-0.708485231	 0.128653
H	-2.8334405711	-3.9123498197	-1.8809525494	 0.288122
H	-2.901581426	-4.4434357617	 2.256327297	 0.20187
