19
gdb 89204	2.43743	1.61684	1.28224	3.7453	77.71	-0.2308	0.0249	0.2557	1078.3211	0.158563	-419.187547	-419.178794	-419.177849	-419.220546	33.485	
C	-0.6211971077	 1.269782227	-0.0581072584	-0.416929
C	 0.0858586518	-0.0639682802	 0.0505903112	 0.142088
O	 1.303912259	-0.1319202288	-0.7363002402	-0.341855
C	 2.0857254971	-0.6074428968	 0.3919933734	 0.375743
C	 2.905071013	-1.8289252021	 0.0994638353	-0.486929
C	 0.8524301772	-0.444071455	 1.3401601614	-0.119258
N	 1.5879848808	 0.6256891988	 2.0140902407	-0.337289
C	 2.6871014518	 0.588785368	 1.1447495557	 0.349885
N	 3.754356538	 1.2427775467	 0.9816974053	-0.5565
H	 0.0182375841	 2.0855732228	 0.2904355741	 0.11883
H	-0.8815252597	 1.4694662251	-1.1018010737	 0.137258
H	-1.5464893683	 1.2652443396	 0.528658955	 0.116383
H	-0.5876303725	-0.8798864348	-0.2492249233	 0.078755
H	 3.6849978726	-1.5744673189	-0.6251180498	 0.152307
H	 3.3938351664	-2.1934985419	 1.0077092618	 0.129372
H	 2.2848419236	-2.6252178919	-0.3211251587	 0.12263
H	 0.4377168681	-1.2114642981	 1.9939639086	 0.090039
H	 1.1941668863	 1.4480044935	 2.4517219287	 0.236878
H	 3.8197029285	 2.0387903072	 1.6193105429	 0.208593
