19
gdb 90364	2.4357	1.41536	1.21459	3.4982	75.45	-0.2377	-0.0183	0.2194	1118.9862	0.157346	-423.020935	-423.012109	-423.011165	-423.054387	33.817	
C	-0.9493123663	 1.1913433098	 0.0011047449	-0.421938
C	-0.0725988897	-0.0501588717	-0.0643012676	-0.01759
C	 1.1726352371	-0.06121513	-1.0011376918	-0.26558
C	 2.0403107651	-0.7074249911	 0.1366073487	-0.19927
C	 2.848608426	 0.3502546185	 0.8788779078	 0.426129
O	 3.9748492067	 0.7481513783	 0.8025503163	-0.305462
C	 1.6631414851	 0.7007107479	 1.805572194	-0.433387
C	 0.8455856763	-0.4469666857	 1.1251715088	 0.389896
O	 0.4283719466	-1.4822579909	 1.9681476633	-0.479273
H	-0.3611811446	 2.0963653475	 0.1872004853	 0.118356
H	-1.4856820884	 1.3402119631	-0.9422958257	 0.123168
H	-1.7006109713	 1.1100673888	 0.7953363875	 0.111586
H	-0.6888701157	-0.9291781996	-0.2823510796	 0.085031
H	 1.079548853	-0.6789413962	-1.8953117787	 0.118448
H	 1.5181891808	 0.9305003583	-1.3066951537	 0.113437
H	 2.4758694907	-1.6861222832	-0.0606183382	 0.097456
H	 1.8923724643	 0.4632544615	 2.8493040557	 0.136069
H	 1.2894854988	 1.7263716115	 1.748332601	 0.122389
H	-0.2403517743	-1.1365458469	 2.5698259719	 0.280535
