21
gdb 120068	5.47639	0.80064	0.79417	2.0561	82.34	-0.2292	0.0763	0.3055	1534.8585	0.181914	-386.997544	-386.989143	-386.988198	-387.031181	32.276	
C	 0.0638283006	 1.6019445633	 0.0240499488	-0.380025
C	 0.0027245267	 0.0744160868	 0.1046598244	-0.159787
C	-1.3973274295	-0.4885023088	-0.1738467023	-0.198483
C	-1.4576744454	-2.0099939648	-0.1128972524	-0.029666
C	-1.4603122054	-2.7151082186	 1.2675167378	-0.094663
C	-2.9947221813	-2.4893113522	 1.4674574283	 0.089687
O	-3.2874191474	-3.8872366819	 1.7618504145	-0.330838
C	-2.2709045523	-3.9280867075	 0.7162987657	 0.084619
C	-2.8378724889	-2.7085773295	-0.0730875119	-0.114037
H	 1.0732206981	 1.973754323	 0.2258194494	 0.111972
H	-0.2297916802	 1.9577625534	-0.9699096544	 0.114023
H	-0.6126652424	 2.064228216	 0.7516770893	 0.113987
H	 0.7138190522	-0.3601457792	-0.6103544227	 0.09517
H	 0.3341635558	-0.2545009356	 1.0980971617	 0.097849
H	-2.1106672579	-0.0583445117	 0.5425665082	 0.090059
H	-1.7282630288	-0.1551770196	-1.1674475046	 0.093515
H	-0.7571443165	-2.4524712046	-0.8327317909	 0.065939
H	-0.7009247897	-2.745797371	 2.0492049017	 0.080754
H	-3.5314158443	-1.7210333099	 2.0221439137	 0.095684
H	-1.9232389027	-4.8955982251	 0.3550834245	 0.094272
H	-3.6383767006	-2.7267760022	-0.8133344589	 0.079969
