19
gdb 94854	3.9167	1.13537	1.06241	1.3826	71.17	-0.2525	0.0657	0.3181	1194.1011	0.158747	-460.144334	-460.135841	-460.134897	-460.178609	31.142	
C	 0.2083496594	 1.4554385602	-0.1639433127	-0.398405
C	-0.0469430731	-0.0039373479	 0.1726203533	 0.212265
O	 0.1003493353	-0.8580276301	-0.952006289	-0.263089
C	 1.3458411803	-1.5218054671	-0.8139367273	-0.16708
C	 1.514179605	-1.6222382983	 0.6981613402	 0.341076
C	 1.1288507837	-2.9508692987	 1.3959344261	-0.126168
O	 2.5131016454	-3.2148050454	 1.7072763548	-0.272266
C	 2.911810033	-1.8980400941	 1.2770002401	-0.132964
O	 0.8869089005	-0.444036317	 1.1558015926	-0.304445
H	 1.2149776438	 1.5814305739	-0.5723350581	 0.120894
H	-0.5218688203	 1.8007688725	-0.9007599702	 0.126685
H	 0.116448942	 2.0681761176	 0.7372633145	 0.12839
H	-1.0703688869	-0.1447944648	 0.5489872407	 0.086286
H	 1.2858180355	-2.4872537741	-1.3212871401	 0.124098
H	 2.1695942965	-0.93847587	-1.2546090312	 0.096961
H	 0.5218171061	-2.7966179841	 2.2968775035	 0.106629
H	 0.6845142628	-3.7392877154	 0.777458407	 0.104623
H	 3.7471542255	-1.9263831757	 0.5664930086	 0.103648
H	 3.1642408756	-1.2377106914	 2.1159109071	 0.112861
