20
gdb 73962	2.30606	1.43553	0.92122	4.9999	86.25	-0.2111	-0.0291	0.182	1270.1491	0.172489	-403.194583	-403.185789	-403.184844	-403.227911	33.809	
N	 0.1213928772	 1.398823862	-0.1551109827	-0.56501
C	-0.0097963859	 0.0372755839	-0.0138091921	 0.271286
C	-1.1956446725	-0.6310423381	 0.1134703308	 0.112957
C	-1.2731611397	-2.145556132	 0.1093002819	-0.276151
C	 0.0106811342	-2.8157261451	-0.385255225	-0.212195
C	 1.2302585009	-2.1708058987	 0.2767083201	-0.205982
C	 1.3138451646	-0.6912703227	-0.1082310198	-0.278023
C	-2.4587944937	 0.0634201516	 0.2861213334	 0.071812
O	-3.5437018073	-0.4837473205	 0.3748694448	-0.29996
H	 1.0005376961	 1.8047961825	 0.1226938447	 0.252372
H	-0.6777042992	 1.9894222304	 0.0056294245	 0.259393
H	-1.507282582	-2.4998971945	 1.1233847852	 0.106354
H	-2.1323185193	-2.4461237196	-0.4991966052	 0.119666
H	-0.0208453587	-3.8901179979	-0.1768268109	 0.095169
H	 0.0928074148	-2.7066142981	-1.4749223399	 0.096222
H	 1.1447293547	-2.2638787752	 1.3667661971	 0.103413
H	 2.1571287213	-2.6766469617	-0.0128960765	 0.095755
H	 1.6800040158	-0.5888236207	-1.13947941	 0.127912
H	 2.0490520198	-0.1696839798	 0.5203927557	 0.10117
H	-2.4101512012	 1.1759132244	 0.362257924	 0.023838
