15
gdb 47758	2.03863	1.8147	1.3286	4.0623	66.91	-0.2843	-0.0182	0.2661	998.9534	0.113747	-453.948368	-453.940417	-453.939473	-453.981758	28.512	
N	 0.2176805857	 1.0230546546	-1.0997974995	-0.509684
C	 0.0683656727	 0.0693937021	-0.2889611844	 0.403697
O	 1.0398923581	-0.3956175115	 0.5356488154	-0.241908
C	 0.644080145	-1.4403655658	 1.4388467295	-0.134755
C	-0.0447165464	-2.5570395689	 0.673181382	-0.06697
O	-1.1024833322	-2.0762730166	-0.1632097469	-0.255694
C	-1.2635337763	-0.6739914418	-0.2159804042	-0.10412
C	-2.0823058976	-0.1791227181	 0.9164893519	 0.282708
N	-2.7193908759	 0.1825161032	 1.810137859	-0.327866
H	 1.1567659377	 1.4196622037	-1.0253083368	 0.233718
H	 1.5624726445	-1.8043946838	 1.9026325421	 0.139075
H	-0.0002663121	-1.026527599	 2.2218595159	 0.153457
H	 0.681670534	-3.0654955469	 0.0277469027	 0.127478
H	-0.4607064476	-3.2888380571	 1.3751217488	 0.129698
H	-1.8002176095	-0.449269174	-1.1396966251	 0.171166
