16
gdb 97429	3.55352	0.57493	0.50915	2.2006	81.08	-0.2646	-0.0734	0.1912	2069.6918	0.120487	-437.844876	-437.834648	-437.833704	-437.882557	33.233	
C	-0.4587490102	 0.6885443461	-0.0188004609	-0.317324
N	 0.8090257643	-0.0089817712	 0.0365643997	-0.195732
C	 0.9996933998	-0.7953410518	 0.9941395938	 0.136543
O	 2.1824707588	-1.4521270382	 1.1126584413	-0.189731
C	 2.2629318818	-2.3946916456	 2.1763528997	-0.251063
C	 1.5476382021	-3.6378710378	 1.9110265797	 0.142829
C	 0.9555338259	-4.6684716393	 1.697710637	-0.004473
C	 0.2411101519	-5.8877592414	 1.4099434816	 0.025813
O	 0.1936039332	-6.8395584075	 2.1534148207	-0.222681
H	-0.2818150951	 1.7697120719	-0.0043353846	 0.133321
H	-0.9590158855	 0.4606613335	-0.9664345151	 0.133472
H	-1.14561866	 0.4382237608	 0.8059334317	 0.099205
H	 0.2769293619	-1.0113284574	 1.7963207395	 0.082105
H	 3.3295584771	-2.6020112676	 2.3044735635	 0.168475
H	 1.9012757095	-1.9556010884	 3.1172610786	 0.149865
H	-0.2751383255	-5.8863370562	 0.4291059037	 0.109377
