23
gdb 100677	2.34272	1.15377	0.95572	3.4621	77.8	-0.2451	0.0495	0.2947	1363.7638	0.202459	-462.558907	-462.547592	-462.546648	-462.594828	42.176	
C	 0.0834654928	 1.4346309904	-0.3294692203	-0.401257
C	-0.0007676804	-0.0049313411	 0.1867439028	-0.15855
C	-1.3998981488	-0.6422430515	 0.083212883	 0.331735
C	-2.4377433188	 0.106292743	 0.9388026501	-0.441103
O	-1.7631324244	-0.5685592454	-1.2929326385	-0.477463
C	-1.2923822506	-2.1428951694	 0.4906920533	 0.073581
O	-0.6682479	-2.3403138629	 1.755100851	-0.427559
C	-2.6197687944	-2.9150571227	 0.5052644178	-0.121636
O	-3.274709542	-2.7879742713	-0.7559535171	-0.420229
H	 1.1250344618	 1.7702735891	-0.3479178933	 0.105495
H	-0.3173787056	 1.5042361252	-1.3434962119	 0.137543
H	-0.4705374223	 2.1348932106	 0.3039312291	 0.106642
H	 0.6811930938	-0.6326291238	-0.3991417593	 0.096921
H	 0.3403670348	-0.0641146356	 1.2244507581	 0.092455
H	-2.4742206864	 1.1583161761	 0.6497402524	 0.131572
H	-3.4393206422	-0.3079133429	 0.7892216194	 0.111643
H	-2.2039812899	 0.065272889	 2.0104011974	 0.0931
H	-2.5209093364	-1.1555960193	-1.4200983478	 0.287352
H	-0.6266782353	-2.6127306669	-0.2410234813	 0.104621
H	-1.2050156406	-1.9014713838	 2.4244212285	 0.282196
H	-2.3971960084	-3.9663902658	 0.7304796754	 0.109401
H	-3.2561352798	-2.5285966454	 1.3163274784	 0.085625
H	-4.1375887868	-3.2086044455	-0.7059194974	 0.297912
