13
gdb 133426	3.15421	1.43595	0.98674	2.7909	66.43	-0.2203	-0.0343	0.1859	1068.9711	0.090332	-490.204844	-490.197304	-490.19636	-490.237487	28.137	
F	 0.0502132461	 0.0517800301	-0.144854405	-0.056955
C	-0.0682283803	 1.3625984813	-0.0348244456	 0.425365
N	-1.1879329498	 1.8783185949	 0.2510459614	-0.307057
N	-1.1700190306	 3.2548735644	 0.3343890412	-0.342303
C	-0.100448116	 4.1154089404	 0.1464537882	 0.373068
N	-0.1376917582	 5.3867378222	 0.2348887291	-0.497431
C	 1.201429964	 3.4346279983	-0.1905342977	 0.375964
N	 2.2591425645	 4.1051720821	-0.3868021168	-0.472204
N	 1.1016754781	 2.0370543935	-0.2566527088	-0.452907
H	-2.0690630331	 3.646430403	 0.5620665841	 0.266649
H	-1.0765809258	 5.7173464932	 0.4678706996	 0.207627
H	 3.056591775	 3.5044472715	-0.6048833355	 0.212435
H	 1.9265813761	 1.4984077351	-0.4770503144	 0.26775
