16
gdb 46635	3.12535	1.66043	1.11008	4.5543	72.24	-0.2127	0.0093	0.222	1038.9193	0.127126	-437.944853	-437.93758	-437.936635	-437.977196	26.925	
O	 0.0246490849	-0.0331125948	-0.0288789887	-0.396747
C	 0.0348654509	 1.1632531722	 0.0373292488	 0.492318
O	-1.100091539	 1.9457322565	-0.0091688051	-0.26299
C	-0.7594266146	 3.3444975191	 0.0512444872	-0.19688
C	 0.7427767752	 3.3493374922	 0.0318062348	 0.373254
C	 1.794411999	 4.1523110224	-0.1139500512	-0.303375
C	 3.0633179619	 3.3102194375	-0.0337496199	-0.262199
C	 2.5399990786	 1.8341095265	-0.0236189415	-0.179802
N	 1.1027434629	 2.0121218154	 0.1786452412	-0.163985
H	-1.2062689164	 3.8591880135	-0.8042459631	 0.144346
H	-1.1736964467	 3.7696941947	 0.9725836004	 0.141487
H	 1.7802696717	 5.2244674146	-0.236461104	 0.106972
H	 3.7400450096	 3.4873301307	-0.8760046734	 0.119983
H	 3.6349533396	 3.5296684366	 0.8767766702	 0.120147
H	 2.7247059094	 1.3225807462	-0.9743994613	 0.132295
H	 2.976580543	 1.2316450968	 0.7753154155	 0.135176
