21
gdb 106292	3.69654	1.21239	1.12506	1.0716	83.48	-0.2262	0.0133	0.2395	1194.6789	0.181636	-387.053268	-387.044584	-387.04364	-387.086083	34.392	
C	 0.047151505	 1.3431724141	-0.139283385	-0.26238
O	-0.0062183132	-0.0381505804	 0.1528737384	-0.300202
C	-1.2796660527	-0.5828527526	 0.0845219469	 0.41076
C	-2.1640354667	-0.592002543	-1.2175141515	-0.310623
C	-2.8741988145	-1.7506434422	-0.4260636858	 0.285362
C	-3.792884812	-2.7469632498	-1.0934049358	-0.50188
C	-1.4319644803	-2.1302148707	 0.0814463405	-0.297964
C	-3.3800946006	-0.9635782307	 0.7997678852	-0.118047
C	-2.343746198	-0.1957940429	 1.1372910912	-0.170253
H	 1.0890416812	 1.6535799236	-0.033172474	 0.126723
H	-0.2850844282	 1.5535041953	-1.1662265719	 0.112094
H	-0.5715844224	 1.9355369485	 0.5503440207	 0.108155
H	-2.7592263374	 0.2955386073	-1.4441499877	 0.088951
H	-1.6201964699	-0.9454605314	-2.0999389069	 0.092186
H	-3.3014584729	-3.2370323192	-1.9398996036	 0.115099
H	-4.104902826	-3.5281885453	-0.3908984865	 0.117786
H	-4.6985110334	-2.2582355992	-1.4704282669	 0.117086
H	-0.8185883823	-2.6156282746	-0.684719174	 0.093517
H	-1.3516874719	-2.645452589	 1.0409739879	 0.093538
H	-4.3571814014	-1.0620361244	 1.2539766443	 0.098007
H	-2.2168057426	 0.5077040367	 1.9478810445	 0.102084
