23
gdb 95683	2.50984	1.28059	0.98365	2.8457	85.25	-0.2333	-0.0111	0.2222	1301.2456	0.207503	-388.331906	-388.322718	-388.321774	-388.365894	35.218	
C	 0.2483168826	 1.6329754931	-0.0014406628	-0.399347
C	 0.0027865616	 0.1167139967	 0.0240970708	 0.039976
C	 0.6596898975	-0.5524998986	-1.2070959099	-0.195537
C	 0.0096238207	-1.84948547	-1.7273074268	-0.203806
C	-0.4729156208	-2.84733053	-0.6453329655	-0.289204
C	 0.4756119471	-2.905921897	 0.5457022049	 0.386004
O	 1.4179848617	-3.6643839203	 0.5801596057	-0.313985
C	 0.1749377489	-1.929168644	 1.6762725436	-0.305583
C	 0.5426007633	-0.464615066	 1.3478698959	-0.189036
H	 1.3222421617	 1.8544068062	 0.0181229628	 0.11644
H	-0.1663103044	 2.0855353112	-0.9078727687	 0.111576
H	-0.2081909567	 2.1280143307	 0.8619690509	 0.110161
H	-1.0844584177	-0.0453249188	-0.0169419379	 0.067731
H	 0.6790925212	 0.1621818838	-2.0378703732	 0.092286
H	 1.7122773966	-0.7493406631	-0.9636879568	 0.106799
H	-0.8497311077	-1.6018372943	-2.3605833195	 0.101625
H	 0.7330825727	-2.3567855451	-2.3736500299	 0.115541
H	-1.469164354	-2.5560232118	-0.2978739085	 0.101744
H	-0.5447309511	-3.848052352	-1.0794505805	 0.117975
H	-0.8965160808	-1.9848522041	 1.9064679005	 0.105097
H	 0.7320921094	-2.252734624	 2.5594284371	 0.115948
H	 1.6365489092	-0.3713948265	 1.3379706334	 0.109071
H	 0.1906471992	 0.154635434	 2.1810094142	 0.098523
