14
gdb 133339	3.24578	1.37399	0.96703	5.4038	71.76	-0.2054	-0.0279	0.1775	1112.0016	0.102637	-474.159155	-474.151521	-474.150577	-474.191123	29.396	
N	 0.1092311205	 1.363190344	 0.1582845433	-0.589879
C	-0.031729433	-0.0171174521	 0.0467069871	 0.44028
C	-1.2105445886	-0.6954356725	 0.0229814104	-0.256179
C	-1.2304501929	-2.1386707723	-0.005436054	 0.193435
N	-2.3100793564	-2.8401379531	-0.0240782984	-0.562917
C	 0.1351438282	-2.694876939	-0.0269600374	 0.271552
F	 0.224857161	-4.0199041939	-0.0569612205	-0.062655
N	 1.2418097476	-2.0573310425	-0.0102836195	-0.252511
N	 1.1557188127	-0.7031030699	-0.0033394899	-0.298941
H	 0.786598805	 1.7637271524	-0.4792475892	 0.25685
H	-0.7720359806	 1.8528578382	 0.0913061035	 0.265529
H	-2.153709931	-0.1642894092	 0.0097713763	 0.106037
H	-2.0756339066	-3.8327842788	-0.0566928885	 0.215242
H	 2.0199716041	-0.2416094913	 0.2281453768	 0.274157
