22
gdb 116565	3.41762	0.79513	0.70586	2.3481	87.31	-0.2442	0.0334	0.2776	1724.6901	0.192941	-404.361023	-404.350864	-404.34992	-404.397427	36.431	
C	 0.2776468843	 1.3703293144	 0.6577964492	-0.358644
C	 0.1548405683	 0.0323830572	-0.0726912771	-0.147979
N	-1.2086621504	-0.4809720609	 0.0368729371	-0.332272
C	-1.8157823329	-0.8378024832	-0.9956887438	 0.462623
C	-3.1899327475	-1.3972471281	-1.2900900051	-0.412269
C	-2.703430611	-1.3974545971	-2.7563037279	 0.150554
C	-3.4018195654	-0.4869196972	-3.746553187	-0.189457
C	-2.6273269103	-0.3328543292	-5.0584583456	-0.382979
O	-1.407607724	-0.8524182358	-2.3231521354	-0.279733
H	 1.3122757989	 1.7277107552	 0.6385426504	 0.106216
H	-0.3550203342	 2.1298049515	 0.1877050486	 0.11481
H	-0.0376812882	 1.2681576257	 1.7001226146	 0.123403
H	 0.4809622345	 0.1377762791	-1.1157348905	 0.1069
H	 0.8228088256	-0.6982597729	 0.4019406864	 0.105432
H	-3.3926186618	-2.373890725	-0.8475494755	 0.133277
H	-4.0178951039	-0.7194250283	-1.0708716785	 0.131094
H	-2.5448340643	-2.3954318771	-3.1797588946	 0.088657
H	-4.4009810771	-0.9000197128	-3.9379979156	 0.103815
H	-3.5497150454	 0.4937788251	-3.2775074718	 0.105213
H	-1.6268408169	 0.0654878925	-4.8677547961	 0.138497
H	-2.5142385617	-1.2959972144	-5.5680979992	 0.116178
H	-3.1421370067	 0.3486205414	-5.7415916426	 0.116663
