23
gdb 84012	2.03576	1.63246	1.36668	1.3436	85.24	-0.2351	0.0823	0.3175	1135.7526	0.20671	-388.289788	-388.280695	-388.279751	-388.323078	35.497	
C	-0.3233263014	 1.4698848091	-0.1510529314	-0.421458
C	-0.0402924011	-0.0113838037	-0.0223433208	-0.072783
C	 1.3319504159	-0.5853653193	-0.3188378077	 0.04022
O	 2.3595401769	 0.3093878817	-0.6337418613	-0.252976
C	 3.2864128132	 0.5199197128	 0.4245847906	-0.064084
C	 2.5903433422	 1.1464025886	 1.6285008135	-0.219288
C	 1.4877693014	 0.2085275731	 2.1611192811	-0.267918
C	 0.7894919843	-0.6350412267	 1.0926255181	 0.276955
C	 0.3074943612	-1.9804136164	 1.6065957854	-0.459355
H	 0.59962455	 2.0489263208	-0.2110582195	 0.131547
H	-0.8892604187	 1.6678769282	-1.0672757194	 0.116223
H	-0.9166064122	 1.8463135205	 0.6897922968	 0.110207
H	-0.8669261946	-0.6412481137	-0.3433429536	 0.07515
H	 1.3995309828	-1.5147510333	-0.8841936264	 0.078982
H	 3.7690836108	-0.4299219155	 0.7074620003	 0.085546
H	 4.0561998723	 1.1821221052	 0.0179947975	 0.104487
H	 3.3195361568	 1.349146128	 2.4209862665	 0.094128
H	 2.1760097891	 2.112796032	 1.3245355356	 0.109667
H	 1.9538083545	-0.4934538181	 2.8640749129	 0.097163
H	 0.7526512359	 0.7745136026	 2.7465112707	 0.099307
H	-0.4385157616	-1.8527611402	 2.4007813134	 0.11463
H	-0.1573101563	-2.5725274634	 0.811963495	 0.112519
H	 1.1353706485	-2.5685714221	 2.0206558226	 0.111131
