23
gdb 71623	2.56296	1.57657	1.50813	0.251	89.14	-0.2749	0.0857	0.3606	1065.827	0.209032	-351.136966	-351.12923	-351.128286	-351.168594	32.314	
C	-0.0026586599	 1.4839689815	-0.0060672305	-0.521034
C	 0.0243821394	-0.0218801135	-0.0367755961	 0.341678
C	 0.7050113606	-0.9352526321	-1.0941363859	-0.275083
C	 0.0593032704	-1.9091964486	-0.0768684999	-0.081049
C	 0.613208645	-0.9807464321	 1.0557540146	-0.002608
C	-0.0531287912	-1.0044845655	 2.4309625468	-0.247495
C	-1.4816331567	-1.5577092613	 2.3303112619	-0.192915
C	-2.1762064869	-1.0149355616	 1.0734203231	-0.247492
C	-1.2076606251	-0.9897040417	-0.1085495285	-0.002612
H	 1.0115038206	 1.8957470168	 0.0479507581	 0.116405
H	-0.4805557389	 1.8884037165	-0.9055406472	 0.116405
H	-0.5587543992	 1.8580259672	 0.8612520494	 0.116273
H	 0.2749930489	-0.9210928843	-2.1006978253	 0.080714
H	 1.7989905489	-0.9135899921	-1.1261663941	 0.080717
H	 0.0856022157	-3.0000081606	-0.1096091862	 0.061679
H	 1.7065316247	-0.9510498865	 1.1275659802	 0.051295
H	 0.5372377673	-1.6103755337	 3.1279267459	 0.091566
H	-0.0607106272	 0.0136913118	 2.8448702951	 0.09268
H	-1.42528525	-2.6502974997	 2.2505992209	 0.09879
H	-2.0604951005	-1.3405200695	 3.2339276661	 0.086545
H	-3.0522986248	-1.6280502621	 0.8326933505	 0.091566
H	-2.5558479125	 0.0014068952	 1.2494281613	 0.092681
H	-1.7317682487	-0.9679592542	-1.0709588601	 0.051294
