14
gdb 19760	3.91141	2.35141	2.27549	1.7009	53.95	-0.2393	0.0832	0.3225	663.0209	0.109515	-419.652448	-419.646987	-419.646043	-419.681772	22.608	
O	 0.0955351147	 1.3923300691	 0.11478156	-0.447002
C	 0.0123179236	-0.0071079921	 0.0468511299	 0.164543
C	-1.375938035	-0.5747157682	-0.2530420709	-0.220616
C	-1.4298136942	-0.5726536879	-1.7769795394	 0.025125
O	-0.1876817271	-0.0719958001	-2.2589953168	-0.26593
C	 0.6506502819	-0.6103755187	-1.2332400075	 0.092328
O	 0.3192499503	-1.9838360531	-1.1633546277	-0.2421
C	-1.0897809836	-1.8416007663	-1.0412182679	 0.044765
H	-0.1658097948	 1.723237907	-0.7542533976	 0.289216
H	 0.4591286347	-0.4143878304	 0.9554452623	 0.10515
H	-2.234499822	-0.4336827489	 0.3869341651	 0.106058
H	-2.2837026381	-0.3832004542	-2.4093522188	 0.119982
H	 1.7019990378	-0.4484097905	-1.4515782818	 0.107048
H	-1.6484727382	-2.7652984358	-1.0270864888	 0.121433
