23
gdb 76759	2.17692	1.51515	1.33063	1.5374	84.32	-0.2498	0.0581	0.3079	1144.5183	0.205126	-388.270753	-388.261264	-388.260319	-388.304459	37.043	
C	 0.5878578782	 1.6377625965	 0.0116856046	-0.41729
C	 0.1498824824	 0.1835168702	 0.1369681021	-0.089688
C	 0.8124191252	-0.8483999758	-0.8451235786	 0.131594
O	 1.600289237	-0.391512081	-1.9180293117	-0.428915
C	 1.4689598189	-1.5826074977	 0.3465219094	-0.106376
C	 2.7815581278	-0.9550258922	 0.8940826131	-0.242106
C	 1.9776660446	-0.2076101487	 1.9966025737	-0.275538
C	 0.6474873061	-0.6792892022	 1.3533214191	 0.374681
C	-0.4300916008	-1.213221986	 2.2731536152	-0.495958
H	 1.6756882653	 1.7609478082	 0.042603585	 0.102985
H	 0.2422798252	 2.0555849288	-0.9389953677	 0.125183
H	 0.170098902	 2.247815999	 0.8196597499	 0.115655
H	-0.9424708093	 0.1490169898	 0.0637325019	 0.067501
H	 0.0498527465	-1.4795612822	-1.3103651928	 0.086557
H	 2.3411373255	 0.1097736491	-1.5629784916	 0.279847
H	 1.4265506556	-2.6735772983	 0.3466103012	 0.058235
H	 3.5050139116	-1.6817077499	 1.2691777487	 0.106293
H	 3.3182850163	-0.3089269808	 0.1900849868	 0.078842
H	 2.1244770076	-0.655674804	 2.9839322615	 0.09617
H	 2.1365582613	 0.8697374255	 2.0925076291	 0.094753
H	-0.8739577459	-0.405944809	 2.8698154062	 0.11466
H	-1.2413799721	-1.6875395924	 1.7089156373	 0.11268
H	-0.0292279389	-1.9568271068	 2.9714462575	 0.110235
