17
gdb 67333	3.41796	1.29847	1.11156	3.0012	73.89	-0.2409	-0.0233	0.2175	1099.8389	0.135009	-421.755504	-421.74782	-421.746876	-421.787811	29.725	
O	-0.0784013901	 1.3052070088	-0.0918458878	-0.467383
C	 0.023687311	-0.0665676341	-0.060836431	 0.396405
C	 0.3956159051	-0.9930379751	 1.1572035247	-0.110655
C	-1.0559084298	-0.9879887875	 1.6779736737	-0.278666
C	-1.2072466563	-1.0030842715	 0.142818452	-0.088623
C	 0.0437007734	-1.9341645339	-0.0409620512	-0.06372
C	 0.7276497375	-1.0106948287	-1.0865291675	-0.181795
C	 0.2164536676	-1.0188834145	-2.4932128476	 0.151142
O	 0.9168420001	-0.946194035	-3.473473285	-0.261415
H	 0.8049752264	 1.6859501674	-0.0305318267	 0.291373
H	 1.3391962189	-0.9907943658	 1.7051795917	 0.076037
H	-1.3879107288	-1.8833780157	 2.211619273	 0.097541
H	-1.3897853999	-0.0830548793	 2.1919080723	 0.109949
H	-2.1171797374	-1.0135655545	-0.4561366286	 0.087055
H	 0.0422056008	-3.0212289847	-0.0182659824	 0.093013
H	 1.8225569923	-1.0002599623	-1.0783335272	 0.078826
H	-0.8910762207	-1.0893874336	-2.5901592522	 0.070917
