9
gdb 130574	3.86333	1.25687	0.94834	1.347	56.59	-0.337	-0.1438	0.1931	1068.8684	0.040937	-483.603998	-483.596882	-483.595938	-483.636599	23.844	
O	-0.0128457708	-0.0364590377	 0.0032295647	-0.240695
C	-0.0402013528	 1.1660711032	 0.0066721856	 0.24627
C	 1.188853944	 1.971821092	 0.0006265232	 0.277184
N	 2.176443611	 2.5718638095	-0.0043521795	-0.293503
C	-1.3026581349	 1.9410884683	 0.0169573852	 0.347581
N	-1.37881871	 3.2450964145	 0.0210375574	-0.114301
O	-2.6759137313	 3.5215539687	 0.0300296368	-0.126654
N	-3.4027277865	 2.2842466786	 0.0315813224	 0.066136
N	-2.5618085887	 1.3654484728	 0.0238142543	-0.162019
