19
gdb 109841	2.36458	1.0803	0.89774	3.2301	72.92	-0.2576	-0.0071	0.2505	1367.8308	0.156604	-460.161419	-460.151431	-460.150486	-460.19729	35.049	
C	-0.1711944606	 1.2015604144	-0.0930324054	-0.380082
C	 0.3312589665	-0.2468809581	-0.1112743769	-0.199067
C	 0.8705450897	-0.6739451022	 1.2385742016	-0.083116
C	-0.0689036071	-1.2094138607	 2.3045243912	 0.090323
O	-1.4156858574	-1.3830071488	 1.995130802	-0.42367
C	 0.9346399013	-2.1289898491	 1.6657411445	-0.000299
O	 0.3327281061	-3.1240397449	 0.8577092891	-0.204248
C	 1.0434248221	-3.5750790421	-0.2046781078	 0.179324
O	 0.6325722258	-4.4288130864	-0.927831205	-0.264865
H	 0.6252244281	 1.8971369578	 0.1932693963	 0.111787
H	-0.5369097101	 1.5003968837	-1.0799253463	 0.115332
H	-0.991208353	 1.3124499196	 0.6222656069	 0.136927
H	-0.4896551364	-0.9069494045	-0.4037026072	 0.115388
H	 1.1151051026	-0.3607621257	-0.8710288085	 0.096544
H	 1.6977799193	-0.0722299816	 1.6095428543	 0.092968
H	 0.0951006841	-0.9177887226	 3.338752989	 0.104079
H	-1.5210368068	-2.265908498	 1.6198639717	 0.305695
H	 1.780939599	-2.4965405913	 2.2383989156	 0.114797
H	 2.0215251968	-3.0703930093	-0.3039662852	 0.092181
