17
gdb 52125	4.24601	0.91256	0.88608	5.1283	69.86	-0.2671	0.007	0.2741	1338.4891	0.134564	-458.942252	-458.933805	-458.93286	-458.976538	30.268	
O	 0.4225444943	 0.2498289028	-0.7250547205	-0.271349
C	 0.5439119139	 1.4358277567	-0.676461568	 0.178365
O	 0.5340910539	 2.114186281	 0.4932319683	-0.180562
C	 0.7451700938	 3.5339340325	 0.4221721872	-0.229409
C	 2.1997776265	 3.8640875202	 0.4137540215	 0.42584
C	 3.2483586213	 3.7191271625	 1.5296598143	-0.28881
C	 4.0362189605	 4.9096927841	 0.8756510816	-0.237676
C	 2.9476159441	 4.9762482033	-0.2045618095	-0.043369
O	 2.8966985999	 3.6887748704	-0.8316556592	-0.283438
H	 0.6654544323	 2.0947793423	-1.5556683605	 0.093954
H	 0.2660483536	 3.9492362802	-0.4721884484	 0.124944
H	 0.2531385322	 3.9437427028	 1.3075854985	 0.131515
H	 2.8603872777	 3.9674171841	 2.5201948436	 0.112928
H	 3.7483949613	 2.7498991835	 1.564386045	 0.125648
H	 4.0642080803	 5.7951501426	 1.5144309916	 0.11218
H	 5.0389256349	 4.6946112427	 0.5011454372	 0.121022
H	 2.6074313496	 5.8226543782	-0.7911274727	 0.108217
