14
gdb 43573	3.41483	1.38671	1.11564	3.1272	69.56	-0.2735	-0.0045	0.269	1050.8503	0.100322	-436.633326	-436.62588	-436.624935	-436.665498	28.128	
N	-0.0449065191	 1.201637076	 0.3761937454	-0.54087
C	-0.0092770336	-0.0035257918	 0.0096486736	 0.43902
O	 1.1117096021	-0.6779371087	-0.4019531766	-0.255803
C	 0.7692126322	-1.9390117643	-1.0313935249	-0.094384
C	 1.6514560649	-2.9984157004	-0.5669361779	 0.325279
C	 2.3663880758	-3.8952346024	-0.213270564	-0.424292
C	-0.7057407945	-2.155088243	-0.7002622333	 0.010029
O	-0.9514496829	-2.1304682698	 0.6946452259	-0.230829
C	-1.1797780194	-0.9243562343	-0.062394269	-0.05734
H	 0.8796705782	 1.631058094	 0.3072749148	 0.231695
H	 0.8792421318	-1.810117296	-2.1168178516	 0.126411
H	 2.9986334066	-4.6846819169	 0.1119029846	 0.210482
H	-1.3137340366	-2.8170980425	-1.3083100123	 0.126778
H	-2.1916175655	-0.5398669799	-0.0889307747	 0.133825
