23
gdb 82608	2.24679	1.66517	1.31188	0.1559	88.19	-0.2301	0.0703	0.3004	1120.6553	0.207522	-351.12019	-351.111487	-351.110543	-351.153354	34.456	
C	 2.4688249729	 2.034522791	-1.2996867403	-0.41995
C	 2.9725578988	 0.6092901208	-1.3754705309	-0.003947
C	 4.2580033295	 0.0667078002	-0.7930884904	-0.06712
C	 4.8786394402	 0.6741257345	 0.4811598876	-0.260044
C	 4.1191721733	 0.0928642415	 1.6897489735	-0.067943
C	 2.7773933175	 0.6510210507	 2.1118540016	-0.005366
C	 2.2882877123	 2.0789253999	 1.9423936104	-0.426341
C	 2.8405903561	-0.5197735909	 1.1412517168	-0.062194
C	 2.9244382385	-0.5368225932	-0.3761632776	-0.061737
H	 2.9214005288	 2.612101261	-0.4974866806	 0.11721
H	 2.7093923334	 2.5483861564	-2.2371743057	 0.110441
H	 1.3815659869	 2.076018174	-1.1739418551	 0.116538
H	 2.7987245913	 0.2052589437	-2.372766725	 0.081752
H	 4.9363138478	-0.45726028	-1.4598454795	 0.075163
H	 5.932605122	 0.3898304383	 0.543360696	 0.103792
H	 4.8648657897	 1.7713492009	 0.4685982916	 0.098995
H	 4.7176637341	-0.4122284847	 2.4419627899	 0.075412
H	 2.4936307792	 0.2680055922	 3.0910871392	 0.082785
H	 1.3416432802	 2.1405654548	 1.3984229905	 0.122796
H	 2.1257328049	 2.5203491829	 2.9310131493	 0.111152
H	 3.0128030147	 2.7175899074	 1.4345574154	 0.123445
H	 2.4683839347	-1.4537217638	 1.5512556575	 0.077637
H	 2.6019396733	-1.4817804274	-0.8027677043	 0.077524
