19
gdb 22220	3.31123	0.84679	0.72684	4.0852	79.51	-0.2581	-0.0011	0.2569	1542.6281	0.156463	-419.194565	-419.184064	-419.18312	-419.230799	37.004	
C	 0.2694526632	 0.9679198776	-0.8572166853	-0.40503
C	 0.0331711512	-0.2268065717	 0.087371365	-0.073661
C	 0.5277121126	 0.0783819005	 1.5197210699	-0.346389
C	 1.9644560105	 0.3388365792	 1.5617547866	 0.261738
N	 3.1026966258	 0.5393381742	 1.5805010026	-0.316378
C	-1.422639036	-0.6454775782	 0.073460204	 0.350957
C	-2.006987773	-1.2119302538	-1.1932697867	-0.47314
N	-2.0886453573	-0.4850521181	 1.1518490323	-0.156439
O	-3.4251644363	-0.8801844311	 1.0069310858	-0.40856
H	 1.3314285406	 1.2254762647	-0.8901816787	 0.14944
H	-0.0541647278	 0.7393849445	-1.8760671637	 0.125523
H	-0.2886618208	 1.8450701025	-0.5133269225	 0.128259
H	 0.6167002925	-1.0757477102	-0.2946234279	 0.106732
H	-0.0066787428	 0.9432464792	 1.9248655439	 0.161059
H	 0.2980702589	-0.7597943526	 2.1836799008	 0.158918
H	-2.7140452968	-0.5062682348	-1.6428577817	 0.15121
H	-1.2306108555	-1.4407197383	-1.9257788686	 0.124063
H	-2.5731747876	-2.1200381801	-0.9688988638	 0.154187
H	-3.7798911712	-0.7314180234	 1.8899170582	 0.307511
