15
gdb 16941	3.73167	2.20136	2.00806	5.1851	59.59	-0.2388	0.0114	0.2502	726.3209	0.122586	-399.830327	-399.824518	-399.823574	-399.860116	23.359	
O	-0.0082741957	-0.0027570369	-0.0725537229	-0.344154
C	 0.028286473	 1.187690099	-0.020130109	 0.487884
O	-1.0953334713	 1.9780514099	 0.0451040501	-0.246126
C	-0.6298725716	 3.3556317887	 0.0932018216	 0.092102
C	 0.00415121	 3.5515394462	 1.4805870436	-0.176123
N	 1.21835474	 2.6902472686	 1.400023077	-0.302468
C	 1.2078984664	 2.1697720357	 0.0065498559	-0.157133
C	 0.5988215329	 3.3139162913	-0.8289537257	-0.244656
H	-1.46209422	 4.0083259719	-0.1607392221	 0.098909
H	 0.2461673286	 4.6039936577	 1.664701988	 0.105473
H	-0.6716803653	 3.2059756941	 2.2683146858	 0.127835
H	 2.0563325631	 3.2430457003	 1.5401627413	 0.229255
H	 2.1553401487	 1.7234816365	-0.2835403424	 0.099592
H	 0.3427377987	 3.0432059861	-1.8558362128	 0.124215
H	 1.1954040525	 4.2294363409	-0.8135637484	 0.105394
