21
gdb 109896	2.14527	1.74973	1.23538	1.4644	78.29	-0.2286	0.0614	0.29	1115.3363	0.182223	-424.1771	-424.168159	-424.167215	-424.210842	33.383	
C	 0.4888102805	 0.9452316131	-0.4729527837	-0.238575
O	 0.0016356178	-0.2988921931	-0.0111274736	-0.226518
C	 0.5080041872	-0.6657598733	 1.2387627524	 0.085384
C	 0.1090684311	-2.1269068462	 1.6295166114	-0.022054
C	-0.9838423944	-2.8263141875	 0.83382038	-0.410033
C	 1.5925131546	-2.5663637306	 1.4867926478	-0.100524
C	 2.1328851355	-2.7607137527	 0.0520590719	-0.084378
O	 2.5494420277	-1.3755146182	-0.0407356687	-0.278759
C	 2.0236738207	-1.0917216849	 1.2611007008	 0.080723
H	 1.5716611245	 0.912986669	-0.6433027285	 0.129914
H	-0.0151488681	 1.1555798894	-1.4194536789	 0.123944
H	 0.2588491702	 1.7543135562	 0.2384408921	 0.097608
H	 0.2563581845	 0.0918389497	 1.9986914976	 0.054873
H	-0.151687588	-2.1432037461	 2.6933888004	 0.075022
H	-0.8094925983	-2.7550471108	-0.2418575226	 0.13409
H	-1.0419828774	-3.8854445014	 1.1081117074	 0.107885
H	-1.9598533437	-2.3733156386	 1.0343227687	 0.119835
H	 2.0083889838	-3.2180717824	 2.2545707937	 0.073397
H	 2.9942639872	-3.4345589275	-0.0257082103	 0.102087
H	 1.400702334	-3.0243062696	-0.7189210257	 0.108305
H	 2.7151491104	-0.5205436943	 1.8864564178	 0.067775
