14
gdb 24536	4.03173	1.714	1.2027	4.937	79.65	-0.2196	-0.0578	0.1619	938.985	0.10647	-395.79368	-395.787813	-395.786869	-395.823767	23.807	
N	-0.0074044783	 1.3588653759	 0.0097774362	-0.38749
C	 1.1704622707	 2.034936094	 0.0022141915	 0.078188
N	 2.3466606774	 1.4687787009	-0.0123197794	-0.273809
C	 2.4082826229	 0.1078087737	-0.0205707527	-0.078167
C	 1.2793134659	-0.6732035457	-0.0140708399	 0.262556
N	 1.1159735335	-2.0283783365	-0.0201205024	-0.348998
C	-0.2073542448	-2.1976835412	-0.0083197084	-0.020893
C	-0.9771729171	-0.9940419671	 0.0059087052	-0.335025
C	-0.0174212229	-0.0072718082	 0.0021890719	 0.360688
H	-0.8735139976	 1.8809055525	 0.021077901	 0.27476
H	 1.0902896669	 3.1171826119	 0.0090798143	 0.137209
H	 3.4013359688	-0.3313156921	-0.0326272263	 0.131952
H	-0.6270198782	-3.198324646	-0.0099004511	 0.104589
H	-2.0520308072	-0.9013327422	 0.0168152638	 0.094439
