20
gdb 36642	5.52232	0.72179	0.71028	4.2181	84.52	-0.3047	0.0385	0.3432	1611.9602	0.172559	-365.978329	-365.970053	-365.969109	-366.012214	31.311	
N	-0.1576693396	-1.1672030936	-0.3393684181	-0.305859
C	-0.0966315529	-0.0232218365	-0.1871260427	 0.257033
C	 0.0057499776	 1.4220711201	 0.000656368	-0.335059
C	 1.4449635307	 1.9484000695	-0.1932522838	-0.253285
C	 1.5002124875	 3.4635739162	-0.0487970952	 0.065561
C	 1.429256885	 4.1773873952	 1.3452906989	-0.050054
C	 2.901819768	 3.739134862	 1.5987512513	-0.222606
C	 2.8556466888	 4.2240408696	 0.1190956698	-0.067607
C	 2.0150130255	 5.4301339303	 0.6311749831	-0.21726
H	-0.6757685735	 1.9125188797	-0.7044923275	 0.150749
H	-0.3545341852	 1.6681728375	 1.0060622367	 0.154205
H	 2.1038823487	 1.4408797532	 0.5153692992	 0.122508
H	 1.7906659202	 1.667938012	-1.1949113151	 0.121516
H	 0.8411116448	 3.9218608988	-0.7979401986	 0.062864
H	 0.6027915629	 4.1577456751	 2.0582907776	 0.069569
H	 3.4745996769	 4.362947586	 2.2898878407	 0.094914
H	 3.0979293519	 2.6824663624	 1.7848642858	 0.095661
H	 3.6815445042	 4.2520954049	-0.5935870191	 0.07304
H	 1.3711654414	 5.9281800319	-0.0991311113	 0.090594
H	 2.536689857	 6.1502869857	 1.2662402503	 0.093515
