15
gdb 24488	3.97096	1.64591	1.17197	2.928	80.1	-0.2387	-0.0408	0.1979	979.7228	0.116838	-379.744797	-379.738675	-379.737731	-379.775146	24.687	
C	-0.0521849384	 1.4923418834	 0.0105274547	-0.393807
C	 1.4014443571	 1.9018320576	-0.0011826208	-0.0862
C	 2.2105171206	 0.8263023653	-0.0146974167	-0.187535
C	 1.3979437808	-0.3881699942	-0.0134276022	 0.239895
C	 1.6596888324	-1.7501488666	-0.0232276994	-0.103868
N	 0.6601306558	-2.6431658501	-0.0184636381	-0.250719
C	-0.5824550562	-2.1635037522	-0.0040420044	 0.053279
N	-0.9630827276	-0.8744290556	 0.0065429517	-0.329883
C	 0.0404556775	-0.0128367677	 0.0015700211	 0.310071
H	-0.5901001128	 1.8584920477	 0.8944875528	 0.147255
H	-0.6068938727	 1.8679070504	-0.8589843719	 0.147255
H	 1.7226741602	 2.9352779258	 0.0012869735	 0.11208
H	 3.2930565825	 0.8405679425	-0.0249775413	 0.110873
H	 2.6721003498	-2.148788903	-0.0350473402	 0.114678
H	-1.3836160889	-2.8981841334	-0.0002478888	 0.116628
