24
gdb 99272	4.10001	0.62177	0.56172	3.2995	88.25	-0.2417	0.0377	0.2794	2066.5617	0.215367	-405.597752	-405.586092	-405.585148	-405.636162	40.856	
C	 0.0984185152	 1.4951109582	 0.0924961406	-0.332654
N	 0.3471107746	 0.0695392906	 0.0124525907	-0.312587
C	 0.304119077	-0.6219467287	-1.164697432	 0.418677
O	 0.0772408951	-0.0875710381	-2.2368764189	-0.37725
C	 0.5382407961	-2.1268759406	-1.0353164331	-0.331814
C	 1.3660298418	-2.6754660759	-2.2036652822	-0.152579
C	 1.3993825895	-4.2093770138	-2.3078450907	 0.036803
C	 2.1060641212	-4.6363744814	-3.6016506974	-0.389111
C	 2.0589528466	-4.8723554824	-1.0898215126	-0.380734
H	 0.965847656	 2.0308919102	 0.4943996993	 0.123302
H	-0.0975361495	 1.8448807276	-0.9217229195	 0.171824
H	-0.7712455446	 1.7162777047	 0.7218850771	 0.123048
H	 0.5420463902	-0.4363691315	 0.8597339601	 0.242765
H	 0.9977700172	-2.3642789303	-0.069514251	 0.090791
H	-0.4526766963	-2.6019942581	-1.0364080539	 0.125007
H	 0.949983247	-2.2519176491	-3.1230388964	 0.124576
H	 2.3946421153	-2.2954181092	-2.1299420204	 0.090876
H	 0.3582569424	-4.5614336428	-2.3612437478	 0.069459
H	 3.1526513339	-4.3083906339	-3.6017698175	 0.111059
H	 2.1007222189	-5.7253523348	-3.7171465619	 0.106921
H	 1.6220820348	-4.2008057923	-4.4818059143	 0.114013
H	 2.0842682681	-5.9613519764	-1.2022665141	 0.110089
H	 3.0939862526	-4.5280902156	-0.9724798141	 0.109593
H	 1.5265835667	-4.6517220765	-0.15934566	 0.107923
