18
gdb 119825	5.84837	0.75662	0.67836	2.651	75.98	-0.2281	0.0022	0.2303	1603.304	0.148027	-435.290553	-435.281301	-435.280357	-435.325757	32.984	
O	-0.1647174879	 1.4619746872	 0.0116556592	-0.424393
C	 0.031490582	 0.0545013761	 0.0025678492	-0.071736
C	-1.355248848	-0.576734826	 0.0121672522	-0.30594
C	-1.3230486235	-2.0716403005	 0.0042447311	 0.390509
N	-0.2670255987	-2.7935421817	-0.0059262595	-0.308261
C	-0.7184794774	-4.1897156868	-0.0101566616	-0.239681
C	-2.2453599634	-4.1560789187	-0.0008247971	 0.381938
N	-3.024517728	-5.1587105005	-0.0015119476	-0.552303
N	-2.5209240111	-2.7886329281	 0.0081249623	-0.383575
H	 0.6999515611	 1.8820162515	 0.0076494385	 0.289085
H	 0.5821237615	-0.2767743999	-0.8879608636	 0.108916
H	 0.5985407618	-0.2859798379	 0.8791768112	 0.109086
H	-1.9050007668	-0.22647488	 0.895488182	 0.130142
H	-1.9213345082	-0.2174647659	-0.8571030774	 0.129948
H	-0.3439141108	-4.7165800373	-0.894286185	 0.143391
H	-0.3334051628	-4.7252594112	 0.8641951613	 0.14339
H	-4.0071972301	-4.8790652799	 0.0058895502	 0.205239
H	-3.4434252198	-2.3863661703	 0.0150278147	 0.254245
