17
gdb 54378	3.25342	1.42602	1.31317	2.5236	72.98	-0.2391	0.0215	0.2605	1017.9207	0.13759	-417.967596	-417.959898	-417.958954	-418.00005	29.545	
N	-0.060564244	 1.264508701	-0.2163516044	-0.544264
C	 0.0593714479	-0.0618967566	 0.0666916406	 0.241692
O	 1.1079295625	-0.6258693674	 0.3230658979	-0.379189
C	-1.2371823363	-0.7700990825	 0.0327866344	 0.33108
C	-1.9030095771	-1.7811434991	 0.9337039242	-0.132838
C	-3.1055991327	-0.8527806443	 1.0029909169	-0.176825
N	-2.6350637372	-0.1838167529	-0.276646938	-0.232589
C	-2.7941264558	-1.3141693388	-1.2783484698	-0.17683
C	-1.7000172185	-2.0816708315	-0.5525787014	-0.132873
H	 0.7633812754	 1.8414756791	-0.2224042648	 0.261178
H	-0.964957311	 1.6571149161	-0.4208262858	 0.272165
H	-1.4265185633	-2.3749119663	 1.7022412843	 0.114875
H	-4.1172749687	-1.2698256906	 0.9496528353	 0.103041
H	-3.0410414022	-0.1407901428	 1.8290090174	 0.11674
H	-3.8056716639	-1.7314313374	-1.3324675042	 0.103051
H	-2.4819294658	-0.9691188318	-2.2667207586	 0.116704
H	-1.0731440695	-2.8981224441	-0.885280434	 0.114881
