17
gdb 123733	4.90904	0.98984	0.89274	3.846	74.03	-0.2633	-0.0358	0.2275	1290.1588	0.136956	-417.975802	-417.968216	-417.967272	-418.009411	28.113	
C	-0.1934517467	 1.4544476348	 0.0455323366	-0.213026
C	 1.2973235887	 1.4402733031	-0.3880281592	-0.237554
C	 1.5015816879	 0.1808263572	 0.4996416319	-0.076318
C	-0.0472917522	-0.0337759873	 0.4585350022	-0.218107
C	 2.4064314964	-0.904949258	 0.0444989899	 0.246498
C	 3.0345779679	-1.1381995191	-1.1390091937	-0.055604
O	 3.7326816603	-2.2697145794	-1.0567466392	-0.163921
N	 3.5216196917	-2.7678573939	 0.2661422193	-0.00589
N	 2.7636215106	-1.9641302425	 0.8624099053	-0.178233
H	-0.3541635559	 2.1012561741	 0.9125054847	 0.109485
H	-0.9384747892	 1.6994150103	-0.7137675909	 0.103192
H	 1.394181448	 1.2019245352	-1.4520190048	 0.100673
H	 1.9129297247	 2.3155848937	-0.1698328587	 0.1071
H	 1.7924955007	 0.4775707734	 1.5121161547	 0.099854
H	-0.5305688202	-0.3697106949	 1.3778158927	 0.11092
H	-0.3255802728	-0.709722438	-0.354992654	 0.106322
H	 3.07789169	-0.6049320386	-2.0738261468	 0.164609
