21
gdb 32592	2.62515	1.22561	0.90312	1.7583	88.12	-0.1663	0.0531	0.2194	1358.68	0.182705	-383.309798	-383.299793	-383.298849	-383.344798	36.958	
C	-0.1126584533	 1.5727571409	-0.0621586778	-0.370274
C	 0.0616994799	 0.0504830304	-0.0182248355	-0.157144
N	 0.7361621213	-0.4880679079	-1.1839361961	-0.036273
C	 0.0985354109	-0.7869727017	-2.3794649764	-0.190856
C	 1.0540618072	-1.1675018866	-3.2945714247	 0.240445
N	 0.8585979157	-1.4981859694	-4.652121832	-0.607095
C	 2.3125883295	-1.0922858275	-2.6325550174	-0.311725
C	 2.0890737274	-0.6704036069	-1.3370932863	 0.316616
C	 3.0716207499	-0.438641752	-0.2354619274	-0.506552
H	 0.8571776784	 2.0774074827	-0.0995288454	 0.128264
H	-0.6812550355	 1.8697483177	-0.9479736755	 0.130167
H	-0.6483920951	 1.9220255887	 0.8266246369	 0.113834
H	 0.6264655784	-0.2386768719	 0.8729740654	 0.115493
H	-0.9169217729	-0.4359011316	 0.0590570427	 0.113742
H	-0.9735784964	-0.7070192107	-2.4668676798	 0.094121
H	-0.0882430404	-1.8050200065	-4.8380067491	 0.232951
H	 1.4936666062	-2.2257051321	-4.957121726	 0.235985
H	 3.2773179938	-1.329006325	-3.0574680043	 0.077873
H	 3.0786629384	 0.6001843217	 0.1185779117	 0.124057
H	 2.8841728348	-1.0759792334	 0.6384243338	 0.124434
H	 4.0775932818	-0.6670458491	-0.5951587369	 0.131936
