20
gdb 112887	2.57838	1.29439	1.06095	2.8098	74.65	-0.2186	-0.0328	0.1858	1206.2808	0.171032	-440.291215	-440.28217	-440.281226	-440.325272	33.753	
C	 0.9610297409	 1.2072468993	 0.0218007626	-0.336344
N	 0.0178938657	 0.0925063655	-0.0102532296	-0.066966
C	 0.1974284837	-0.8048178081	-1.1746152047	-0.210727
C	 1.1110106874	-1.9767951522	-0.7439243007	-0.130041
C	 2.5647756849	-1.9416989574	-1.2623725161	-0.066496
O	 3.2896938881	-3.0765402873	-0.8553608737	-0.424219
C	 1.0978106958	-1.8845578187	 0.782919317	 0.39433
O	 1.7859305869	-2.5377296314	 1.5341287396	-0.332381
C	 0.1191781551	-0.771355289	 1.1660176902	-0.280613
H	 2.0249792628	 0.9137469058	 0.0885518497	 0.103378
H	 0.8350305395	 1.8106221187	-0.881747689	 0.127186
H	 0.7370680133	 1.8457470616	 0.8815893678	 0.127662
H	-0.7830873819	-1.1871045693	-1.481587076	 0.110758
H	 0.6047524538	-0.2405275559	-2.0178248832	 0.11107
H	 0.6991659984	-2.9511220514	-1.0311789117	 0.114598
H	 2.5587572326	-1.9379819679	-2.3580600351	 0.109771
H	 3.0509317996	-1.0054242525	-0.9384473153	 0.090035
H	 3.1591828303	-3.1608603954	 0.1003661552	 0.297309
H	 0.4380416262	-0.2338664925	 2.0611034949	 0.133147
H	-0.8534548831	-1.238617972	 1.3865555979	 0.128543
