17
gdb 86522	3.95853	0.92847	0.84126	3.72	76.04	-0.2644	-0.0602	0.2042	1359.8545	0.133655	-421.78798	-421.778869	-421.777925	-421.822739	33.261	
O	 0.4464523672	 0.5592959613	-0.8711641281	-0.429236
C	-0.2137901284	-0.2845780926	 0.0321287279	 0.180502
C	 0.2415703507	-0.354680527	 1.5150726396	-0.285346
C	-1.2481194122	-0.4666132042	 1.9300126377	-0.123457
C	-1.64837154	 0.0729606233	 0.5092256706	-0.274619
C	-1.7255561306	-1.8876569272	 2.1413088641	 0.230427
O	-1.0434142373	-2.8680351841	 1.9293614049	-0.294993
C	-3.1040145585	-2.0091937454	 2.5926777395	 0.259259
C	-4.244888006	-2.0924409642	 2.9680165822	-0.401976
H	 0.4740067673	 1.4443400157	-0.4918206178	 0.276224
H	-0.1929034574	-1.2792518829	-0.4199174659	 0.113675
H	 0.897194268	-1.1764348896	 1.8039406084	 0.128203
H	 0.6701065159	 0.59704915	 1.8457160775	 0.090366
H	-1.5897864462	 0.1499835082	 2.7645467702	 0.096847
H	-1.8011747909	 1.1563125812	 0.5400174485	 0.10179
H	-2.4980015593	-0.3889915584	 0.0012075128	 0.117099
H	-5.2508871723	-2.185946524	 3.2987725478	 0.215233
