19
gdb 62047	3.98524	0.71837	0.66446	5.3793	77.88	-0.2563	0.0146	0.2709	1699.4271	0.157921	-419.175817	-419.166008	-419.165064	-419.2122	34.285	
C	 0.1711151908	 1.5110943809	-0.1616492531	-0.400111
C	-0.0021303546	 0.0060935396	 0.0896040886	-0.001996
O	 0.7704021535	-0.4604171771	 1.1792673143	-0.251206
C	 2.1201817365	-0.7666258778	 0.855317314	-0.091886
C	 2.7591655662	-1.4101733421	 2.0534634143	 0.01813
C	 4.2128267341	-1.2178797845	 2.2874560715	-0.247668
N	 3.2265970627	-0.5904532325	 3.178529555	-0.299874
C	-1.4110169348	-0.3101902198	 0.386272195	 0.282932
N	-2.5250409388	-0.5373927011	 0.587709262	-0.313329
H	 1.2076385301	 1.7296464719	-0.430596629	 0.127995
H	-0.4733719066	 1.8392912586	-0.9814999138	 0.142396
H	-0.0887756003	 2.0711584407	 0.7393917716	 0.150091
H	 0.2646761579	-0.5489328496	-0.8247475381	 0.115975
H	 2.151251426	-1.4510593043	-0.0087056293	 0.103198
H	 2.6780889982	 0.1429230577	 0.5790197568	 0.086546
H	 2.294205368	-2.344714499	 2.358202834	 0.108281
H	 4.7979294554	-2.0150649082	 2.7359732084	 0.127026
H	 4.7643775896	-0.5932374621	 1.5883868367	 0.111191
H	 3.1250728061	 0.3972307188	 2.9557811812	 0.232307
