20
gdb 122854	5.37163	0.61621	0.58944	3.3652	73.27	-0.2405	0.0067	0.2472	1896.6039	0.16969	-477.437127	-477.426572	-477.425628	-477.474526	36.091	
C	 0.1960635859	 0.9347794077	 0.5716318793	-0.240214
O	-0.1632973171	-0.1715389395	-0.269572132	-0.226691
C	-1.4158842957	-0.6328824311	-0.1172647655	 0.436946
O	-2.2131157417	-0.1868685893	 0.6704781749	-0.361746
C	-1.7102793933	-1.7675315378	-1.0974004225	-0.296879
N	-2.9356952213	-2.4878248808	-0.8176549381	-0.283996
C	-2.8788989931	-3.3713893178	 0.3548594721	-0.158177
C	-4.1095460441	-4.2763645428	 0.3344531215	-0.05499
O	-4.1941325912	-4.9911597439	-0.8797307691	-0.422377
H	 1.2265319592	 1.1798353583	 0.3154383144	 0.137193
H	-0.4595874939	 1.7887036872	 0.384353479	 0.142982
H	 0.1186990951	 0.6559736716	 1.625317247	 0.143758
H	-1.7581849417	-1.3202865772	-2.0991793887	 0.136651
H	-0.8615969798	-2.4582940772	-1.1122994334	 0.13938
H	-3.6776513696	-1.8075326953	-0.6723876122	 0.230694
H	-1.9819603183	-3.994717565	 0.2558067781	 0.108555
H	-2.8126758004	-2.8267188386	 1.3087310463	 0.103618
H	-4.0540381907	-5.0051738262	 1.1502258622	 0.104236
H	-5.0139519944	-3.6647191908	 0.505690861	 0.079686
H	-3.9287163039	-4.3516940917	-1.5559389843	 0.281368
