19
gdb 79887	2.45197	1.69064	1.40449	1.2588	74.59	-0.2291	0.0635	0.2926	1008.6999	0.158917	-422.955663	-422.947471	-422.946527	-422.987827	32.661	
O	-0.0145597847	 1.3981886492	-0.1844142533	-0.420291
C	-0.1152449087	 0.0093832136	-0.0143443938	 0.010617
C	-0.4729046611	-0.7311395988	 1.2518967416	-0.194926
C	-1.6191436358	-0.1103280762	 2.0764169364	-0.009381
C	-1.8061114119	 1.4370709126	 2.2096687754	-0.229275
C	-2.7373468032	 1.4297590545	 0.951295026	-0.237435
C	-2.5399766698	-0.1136274585	 0.8291821727	-0.08298
C	-1.3997753961	-0.7314476414	-0.011750371	 0.343976
O	-1.6396800929	-1.7673663937	-0.9017323317	-0.4606
H	 0.7707399375	 1.6955365475	 0.2874970234	 0.286772
H	 0.6374090732	-0.548822213	-0.577979853	 0.091899
H	 0.1938569108	-1.5012026402	 1.6257566003	 0.087073
H	-1.8788674332	-0.7082177343	 2.9505538106	 0.069392
H	-2.3276023915	 1.7136097349	 3.1297372563	 0.092067
H	-0.9043174052	 2.0435807883	 2.1286082533	 0.086058
H	-3.7709116088	 1.7004826443	 1.1822553737	 0.089614
H	-2.3944701613	 2.0257262025	 0.1069446303	 0.115734
H	-3.4297959269	-0.7432687816	 0.8062287333	 0.074512
H	-1.5929592806	-1.4157201796	-1.7976730504	 0.287172
