21
gdb 70660	2.40934	1.45138	1.09022	2.8929	82.66	-0.2404	-0.0176	0.2228	1182.9385	0.182609	-387.110884	-387.102075	-387.101131	-387.144637	33.678	
C	-0.4088396004	 1.3465631994	-0.0251429785	-0.483406
C	-0.0082612396	-0.1071454999	 0.0646030177	 0.340574
C	-0.6272728424	-0.9976404559	 1.1248072275	-0.340305
C	 0.8430517008	-0.6627466919	 1.1890662034	-0.072716
C	 1.817564528	-1.6759242965	 0.6123892731	-0.221212
C	 1.2206017621	-2.0566114025	-0.7629921468	-0.265766
C	 0.4400872195	-0.8017335463	-1.2314296261	-0.108638
C	-0.727165581	-1.1448753895	-2.1275668887	 0.156608
O	-0.9295235181	-0.6781116006	-3.2194902857	-0.255864
H	 0.3957004995	 1.9524639463	-0.4580720167	 0.119668
H	-1.2959847617	 1.481808328	-0.654362312	 0.128817
H	-0.6395816731	 1.7526729154	 0.9645527183	 0.115472
H	-1.2787296529	-0.5092462056	 1.8416602172	 0.112147
H	-0.9310950677	-2.0111754488	 0.8845067017	 0.109951
H	 1.1835760304	-0.0082548167	 1.9847538627	 0.083715
H	 2.7988089149	-1.2039581339	 0.4840806732	 0.104458
H	 1.9631342138	-2.5537814944	 1.2511732235	 0.102017
H	 1.9810266289	-2.3566796692	-1.4876179735	 0.112805
H	 0.5350552561	-2.905538672	-0.6602918123	 0.107339
H	 1.0918151827	-0.1198263005	-1.7889845398	 0.086481
H	-1.4343261299	-1.8851830248	-1.6824716481	 0.067855
