14
gdb 51406	4.36902	0.97872	0.88054	2.8639	65.08	-0.2585	-0.0323	0.2262	1249.5903	0.099889	-473.775401	-473.767718	-473.766774	-473.808598	27.83	
O	-0.1830706153	-0.0107236468	 0.2992540218	-0.316944
C	-0.0574512722	 1.1712269041	 0.0667257609	 0.155439
N	 1.1295078487	 1.8044346751	-0.1605162292	-0.305623
C	 2.3847466834	 1.1198492751	-0.1478360151	 0.07915
C	 3.3947194226	 1.5105225003	-1.2689743365	-0.117421
O	 3.5759986421	 2.8233887761	-0.5767626627	-0.321128
C	 3.5632053346	 1.8534756046	 0.5610977621	-0.117451
C	 4.5345882499	 1.0382765916	-0.3304989065	 0.494225
O	 5.5972703505	 0.5167584336	-0.3306014084	-0.296232
H	-0.9097100618	 1.875304636	 0.0132312964	 0.086737
H	 1.1440074237	 2.7952460017	-0.3473869792	 0.26344
H	 2.2201550094	 0.0636149684	 0.0652325754	 0.144922
H	 3.2774947602	 1.5188566507	-2.3500443048	 0.125446
H	 3.6383647143	 2.2533774895	 1.5695393459	 0.125442
