18
gdb 80087	2.28519	1.76743	1.37834	3.0951	77.79	-0.2355	-0.0264	0.2091	1009.4248	0.148204	-401.944937	-401.937002	-401.936057	-401.977405	30.631	
C	-0.1509296487	 1.4575178554	-0.0233892795	-0.324692
N	 0.0471136132	 0.0151860972	 0.0204119138	-0.095928
C	 1.3388220813	-0.6107803892	-0.2659964759	-0.080323
C	 2.5678442825	 0.1964391925	-0.4664181745	-0.057885
C	 3.0835571124	 0.989246956	 0.4744190571	-0.073209
C	 2.503963213	 1.1120446515	 1.8562948746	-0.389782
C	 1.467228068	 0.0517114213	 2.2237296989	 0.40919
O	 1.2663339186	-0.2456940481	 3.3812924868	-0.327298
C	 0.7374969594	-0.6564796954	 1.1217453136	-0.141798
H	 0.7611906859	 2.0611405436	 0.0627722471	 0.116557
H	-0.6220183127	 1.7023832601	-0.9806482792	 0.130345
H	-0.8428405594	 1.7398240891	 0.7755006892	 0.134008
H	 1.253443846	-1.5045042116	-0.880249808	 0.102663
H	 3.032990646	 0.1401208583	-1.4463912363	 0.098792
H	 3.9650629097	 1.5872698626	 0.258955318	 0.103835
H	 3.2828440313	 1.0827716528	 2.6258161751	 0.142096
H	 2.0213074746	 2.0949963961	 1.9763820439	 0.143408
H	 0.2415110088	-1.5576401322	 1.4737623554	 0.110021
