19
gdb 58719	1.86107	1.76701	1.17001	1.8501	71.44	-0.2468	-0.036	0.2109	1124.9984	0.156497	-460.152481	-460.142857	-460.141913	-460.187597	34.663	
C	-0.5464428758	 1.519748964	-0.0674757953	-0.428437
C	-0.0767984498	 0.0762954374	 0.1317840563	 0.082329
O	-1.1451717884	-0.7572686873	 0.5436869258	-0.43835
C	 0.5628766987	-0.5136148584	-1.1423731415	 0.325062
C	 0.8986280768	-2.0242686975	-1.1039647745	-0.327638
C	-0.1302275959	-2.1378148893	-2.243481085	-0.077685
O	-0.4534101138	-0.7243992174	-2.1598419558	-0.342856
C	 1.6787684663	 0.3693419072	-1.6685658681	 0.096079
O	 2.7650697268	 0.4459175964	-1.1537963876	-0.260742
H	 0.2946938131	 2.1958407443	-0.2524250051	 0.129706
H	-1.2337400315	 1.5853091127	-0.9179835759	 0.129685
H	-1.0711627601	 1.8593080761	 0.8285703582	 0.131155
H	 0.6739573664	 0.0291022749	 0.9284331895	 0.111081
H	-1.7600071977	-0.7813934345	-0.2013798921	 0.286445
H	 1.9302695481	-2.27838836	-1.3465063983	 0.126715
H	 0.597828438	-2.503859351	-0.1732786586	 0.135783
H	 0.2789797838	-2.393322936	-3.2275027375	 0.113168
H	-1.0061354458	-2.7630589746	-2.0436327754	 0.113107
H	 1.4063206607	 0.9437339629	-2.5825446392	 0.095392
