12
gdb 21799	6.80144	1.1872	1.08998	1.7178	56.56	-0.2726	-0.0497	0.2229	1010.4542	0.083484	-414.66586	-414.658944	-414.658	-414.698845	23.114	
O	-0.3292809553	 0.0475949564	 0.2234343965	-0.218662
C	-0.0557149792	 1.198466932	 0.0273334462	 0.159019
C	 1.3363080331	 1.660711188	-0.4204769952	-0.405384
C	 1.2724402676	 2.8227475046	-1.3469368789	 0.41887
N	 0.6893645618	 3.9698573649	-1.151966287	-0.310127
C	 0.9284487689	 4.6096021764	-2.3434832145	 0.044173
N	 1.6077922228	 3.9229840112	-3.2193942938	-0.109061
O	 1.8400552683	 2.7116692199	-2.5537374553	-0.187609
H	-0.7844304285	 2.0213563981	 0.1780501855	 0.118704
H	 1.8681273266	 1.9668017977	 0.4907542557	 0.172295
H	 1.8745252772	 0.8237463809	-0.8669955019	 0.163684
H	 0.5884624368	 5.6118830899	-2.5595867673	 0.154096
