14
gdb 129522	5.24219	1.00571	0.84469	3.9077	65.52	-0.2289	-0.0007	0.2282	1259.0878	0.104044	-466.229093	-466.221236	-466.220292	-466.262084	28.73	
N	-0.1873044683	 1.3943977803	 0.1098884429	-0.572382
C	 0.092680413	 0.0388073371	 0.0420202633	 0.460781
O	 1.2219669986	-0.4080234344	 0.0412699202	-0.373838
N	-1.0413182544	-0.7532138166	 0.0185420366	-0.457228
C	-1.0236250581	-2.1405485174	-0.0019267643	 0.41482
N	-2.1746746705	-2.811286008	 0.0470211214	-0.321158
N	-1.771632445	-4.0816384808	-0.0013055114	-0.074901
N	-0.4697458984	-4.2872593109	-0.0769185912	-0.191238
C	 0.0457668655	-3.0567256705	-0.0791803154	-0.115186
H	 0.624657214	 1.9659636445	-0.0664547553	 0.267669
H	-1.0349616376	 1.7353895516	-0.3174924657	 0.252439
H	-1.9489312621	-0.3374132751	 0.1576240189	 0.259869
H	-2.4308565822	-4.841263002	 0.0218838939	 0.292991
H	 1.1017790555	-2.8680240879	-0.1280827841	 0.157363
