14
gdb 25438	2.67939	1.55868	0.98543	6.8759	73.72	-0.2273	-0.0638	0.1635	1100.8283	0.103102	-436.757699	-436.750397	-436.749453	-436.789696	27.252	
O	-0.9318158166	 1.2823033221	 0.2744553319	-0.29218
C	 0.1868706942	 0.8787284106	 0.0289021642	 0.095921
C	 1.387961361	 1.7383977298	 0.0166938809	-0.022542
C	 1.2429908417	 3.0645567749	 0.296213601	-0.002343
N	 2.3009332136	 3.9110743247	 0.3028650483	-0.32935
C	 3.5714920284	 3.4557247252	 0.0246653701	 0.020102
C	 3.7975430716	 2.1563089758	-0.2617553231	-0.221946
C	 2.7110437694	 1.1678271672	-0.2918646682	 0.31151
O	 2.8922274842	-0.0169218746	-0.5490910507	-0.382453
H	 0.3899553181	-0.1813056358	-0.2075401178	 0.113359
H	 0.267415305	 3.4806016119	 0.5227816034	 0.16483
H	 2.1582017793	 4.8852729302	 0.5136337949	 0.277414
H	 4.350699974	 4.2076093499	 0.0545731132	 0.143203
H	 4.8004679861	 1.8099338282	-0.478790038	 0.124475
