14
gdb 30552	6.53972	0.82005	0.74032	14.7151	88.23	-0.1542	-0.0718	0.0825	1428.3767	0.100842	-470.004996	-469.996758	-469.995814	-470.038083	30.327	
N	-0.0441462085	 1.3774244102	-0.0568953307	-0.494469
C	 0.0870848116	 0.0743292021	 0.2549120531	 0.136322
N	 1.0771174816	-0.681307776	-0.1496855771	-0.30078
H	 1.9405918901	-0.2581207417	-0.4827503436	 0.281209
C	 1.101502575	-2.0797512375	-0.0787936855	 0.268038
C	 0.0536735693	-2.918486554	-0.3301476745	-0.09041
O	 0.5007017882	-4.1676290414	-0.1624409306	-0.226686
C	 1.9555680846	-4.0342374366	 0.1970235524	 0.417315
O	 2.5770007654	-5.0431918903	 0.390799882	-0.397827
N	 2.2520550728	-2.7181395811	 0.2377952977	-0.48109
H	 0.6779403357	 1.865947709	-0.5627722187	 0.287723
H	-0.6768280492	 1.9446156002	 0.4820937638	 0.297514
H	-0.7126927459	-0.4113605621	 0.8012046848	 0.185131
H	-0.9389520808	-2.7567914106	-0.7219952031	 0.118009
