17
gdb 105936	3.75488	1.44952	1.35295	2.1144	70.03	-0.2277	0.0602	0.2879	979.2623	0.137975	-417.893786	-417.88691	-417.885966	-417.925299	27.519	
O	 0.1066146121	 1.1650196202	-0.5716457848	-0.417034
C	-0.0612425176	 0.0788549057	 0.3258661226	-0.203538
C	-1.4654191838	-0.425882991	 0.3196417136	 0.373373
C	-1.9291434203	-1.8314941931	 0.459060628	-0.087933
C	-3.3977799108	-1.5851192922	 0.8613955946	-0.06258
N	-3.3502098973	-0.4369406194	 1.8264561818	-0.328689
C	-2.7773441048	 0.3160727359	 0.6612114172	-0.121608
C	-3.3924245498	-0.6549729891	-0.3915322911	 0.004936
N	-2.0256843341	-1.1541099134	-0.8821530592	-0.239982
H	-0.1845392497	 0.8484932583	-1.4349119944	 0.291099
H	 0.6251102121	-0.7501944458	 0.0918831798	 0.095628
H	 0.1998392983	 0.456240623	 1.3207350558	 0.12228
H	-1.2895955664	-2.6876113815	 0.6315435374	 0.102554
H	-4.0669458229	-2.4189562689	 1.0624912956	 0.083165
H	-4.307892437	-0.11076387	 1.968656076	 0.214241
H	-2.8073184118	 1.4031630923	 0.6597159832	 0.09002
H	-4.203901346	-0.4653884908	-1.0922289261	 0.084069
