19
gdb 84071	2.28581	1.62243	1.04361	0.7929	78.56	-0.2346	-0.0512	0.1834	1172.6006	0.159334	-419.258909	-419.249647	-419.248702	-419.292803	34.857	
C	 0.0175759557	 1.5751622259	-0.1881259402	-0.378208
C	 0.0244036477	 0.0547162531	 0.0025884098	 0.012718
N	 0.6131002036	-0.5796519566	-1.1953118639	-0.285926
C	 1.7069417601	-1.1699948247	-0.8774050065	 0.282088
N	 2.5837683581	-1.7776263127	-1.7157546092	-0.571802
C	 2.02547562	-1.1304132376	 0.5918076519	 0.34211
O	 3.0204138018	-1.5784497344	 1.1102087278	-0.336992
C	 0.822596035	-0.4612998555	 1.2380738433	-0.121834
C	 1.2014628889	 0.508980736	 2.3584319385	-0.40773
H	 1.0360405943	 1.9694247361	-0.2657961573	 0.116201
H	-0.5056601345	 1.8213101917	-1.1156468217	 0.128417
H	-0.4879334854	 2.079418866	 0.6410348713	 0.112063
H	-1.0197905707	-0.2748900885	 0.068188963	 0.081021
H	 2.2958213923	-1.9852810293	-2.6571304885	 0.263393
H	 3.2803025068	-2.3670574566	-1.288970289	 0.268607
H	 0.2496969965	-1.2875725495	 1.6839083558	 0.114885
H	 1.7572606315	 1.3700934684	 1.9783686657	 0.126328
H	 0.3142735158	 0.880094764	 2.8789807168	 0.118605
H	 1.8388173425	-0.0039698156	 3.0843056826	 0.136057
