21
gdb 115514	4.84377	0.87785	0.81622	1.0954	76.03	-0.2498	0.088	0.3378	1481.2158	0.181697	-461.353404	-461.343776	-461.342832	-461.388841	34.412	
C	 0.3031912337	 1.1149777298	 0.350549821	-0.238918
O	 0.0785430508	-0.2209617411	-0.0324833758	-0.244286
C	 0.4305135831	-0.5052574825	-1.3764178246	 0.133991
C	 1.9428074459	-0.7158153374	-1.5657187454	-0.123305
O	 2.1674084305	-2.0834909592	-1.2391854972	-0.248144
C	 1.0831311218	-2.8253978965	-1.7603895115	 0.226339
C	-0.1391501315	-1.891104139	-1.730781792	-0.296951
O	 1.2955213716	-3.2087432432	-3.0972194427	-0.248928
C	 2.370295617	-4.1160944163	-3.2586084232	-0.242408
H	 1.3675226141	 1.3932477478	 0.3205270817	 0.104914
H	-0.2520032717	 1.8193597926	-0.2895881748	 0.103949
H	-0.0505462244	 1.2190126039	 1.3791717474	 0.12969
H	 0.0477675557	 0.2881363683	-2.0348705393	 0.065412
H	 2.2314227056	-0.5063165252	-2.6058236027	 0.097963
H	 2.5556675236	-0.1055991545	-0.8985998798	 0.109626
H	 0.9938994445	-3.7185961993	-1.1267766282	 0.072113
H	-0.8609580937	-2.1863893763	-0.9682423404	 0.125412
H	-0.6263919465	-1.9013265192	-2.7064607651	 0.120969
H	 3.3176833868	-3.6832716857	-2.9171737849	 0.124789
H	 2.1916121198	-5.0493269396	-2.7024174085	 0.104345
H	 2.4380746534	-4.3467177474	-4.3241101543	 0.123429
