19
gdb 112171	2.54782	1.16339	0.97328	1.2326	72.07	-0.2463	-0.0297	0.2166	1265.8113	0.1558	-460.161985	-460.151826	-460.150882	-460.197458	36.556	
C	-0.0857999011	 1.6126845241	 0.1501784486	-0.431483
C	-0.1157343189	 0.091567028	-0.0105362303	 0.276146
O	-1.4239663084	-0.3956194965	 0.1870242706	-0.481111
C	 0.6432475526	-0.4756959071	-1.2722257417	-0.049512
C	 0.8447932096	 0.3942815152	-2.5035696642	-0.095608
O	 1.7310346671	-0.2001785141	-3.4405237884	-0.41422
C	 1.8921593802	-0.7880264028	-0.3844554105	-0.357412
C	 0.9568738657	-0.6442143042	 0.814185858	 0.340048
O	 0.8907703132	-1.1363438806	 1.906810484	-0.315906
H	 0.9160498859	 2.0295030482	 0.009346843	 0.118706
H	-0.7628731413	 2.0776487953	-0.5721463066	 0.134311
H	-0.4274913597	 1.8743244126	 1.1556497421	 0.130649
H	-1.4323247113	-0.8327042662	 1.0484237851	 0.294053
H	 0.1422951991	-1.4088521179	-1.5523257122	 0.08638
H	-0.1283992632	 0.628285128	-2.9626116717	 0.101312
H	 1.3115569159	 1.3457551498	-2.2294067252	 0.110392
H	 1.3233143067	-1.0117030448	-3.7599798652	 0.28386
H	 2.3964617078	-1.749170549	-0.4948356101	 0.133908
H	 2.6406612102	 0.0102533519	-0.4322474452	 0.135486
