18
gdb 77298	3.21844	1.03567	0.84991	3.549	74.8	-0.2488	-0.0379	0.2109	1335.0758	0.145658	-439.117852	-439.108335	-439.107391	-439.153514	32.802	
C	 0.0145540559	 1.4379796943	 0.003559922	-0.360755
N	 0.0314282641	-0.0026928655	-0.0695702141	-0.067163
C	-1.0322904759	-1.0157172774	-0.0674672393	 0.025984
C	-1.9624272583	-1.0032108958	-1.287359298	-0.288224
C	-2.9570798173	 0.1361937835	-1.2354455434	 0.156845
O	-3.0365966638	 1.0216739785	-2.0468717521	-0.233218
C	 0.0934396193	-2.0926989418	-0.0542657709	-0.41044
C	 1.073622596	-0.8978786694	-0.024093372	 0.41611
O	 2.2651652703	-0.7440374116	 0.0299392352	-0.369375
H	 1.0539674454	 1.7746483218	 0.01029068	 0.163719
H	-0.4977423566	 1.8786847277	-0.8577499716	 0.151758
H	-0.4749725714	 1.7894478263	 0.9207163311	 0.127093
H	-1.6264806183	-0.9993661052	 0.8569818178	 0.086003
H	-1.3863866098	-0.9398626139	-2.214738906	 0.128705
H	-2.5346189446	-1.9416138624	-1.2843869358	 0.12768
H	-3.637338521	 0.1076537254	-0.3512107125	 0.0773
H	 0.1273008619	-2.7290128636	 0.8316079035	 0.134938
H	 0.1580775741	-2.7084235109	-0.953621194	 0.133041
