19
gdb 6163	3.47674	1.40799	1.26793	3.9423	73.59	-0.2362	-0.0155	0.2207	1069.6917	0.162826	-365.06743	-365.058188	-365.057244	-365.101137	33.674	
C	 0.1618631039	 1.4399819204	-0.6023462397	-0.486022
C	 0.0184697368	 0.2507085681	 0.3329063819	 0.408637
O	 0.9025402066	-0.0779481092	 1.0911403385	-0.305848
C	-1.3045312897	-0.4581267802	 0.2595169544	-0.182445
N	-1.3740472032	-1.8518231341	 0.744966707	-0.340826
C	-2.112796103	-0.8325195603	 1.4843488367	 0.324846
C	-1.5895305646	-0.5451291513	 2.8758950358	-0.446059
C	-3.6227100242	-0.7858178089	 1.3465633417	-0.452294
H	 1.1185106434	 1.9333755669	-0.428750808	 0.142385
H	 0.1032649085	 1.109616725	-1.6462720705	 0.139214
H	-0.6574729174	 2.1520325102	-0.4490193802	 0.136657
H	-1.8984690313	-0.2003756064	-0.6158717157	 0.076988
H	-1.9981151311	-2.3831188597	 0.1411781553	 0.229017
H	-0.5025554756	-0.6140284016	 2.8997129116	 0.167494
H	-1.8943106546	 0.453266283	 3.208618468	 0.108211
H	-2.003274424	-1.273994647	 3.5818360048	 0.115004
H	-4.0860985624	-1.5382192595	 1.9954618713	 0.127478
H	-4.0175483611	 0.1916042952	 1.6436951149	 0.126633
H	-3.941163997	-0.9813436206	 0.3173206424	 0.110931
