17
gdb 54938	4.68214	0.87857	0.80219	3.5259	69.32	-0.2342	-0.0213	0.2129	1386.734	0.135212	-455.161359	-455.152037	-455.151093	-455.19681	32.477	
N	-0.1927222494	 1.4564698609	-0.0793713796	-0.522893
C	-0.0082226071	 0.1182081492	 0.0734953439	 0.397647
O	 1.0659314657	-0.3762200361	 0.3665151468	-0.366967
C	-1.2501829179	-0.7379984953	-0.1737883016	-0.067041
C	-1.4552052954	-1.109527222	-1.6745290492	-0.27594
C	-0.9810044198	-2.5237737017	-1.2761402091	-0.037085
N	-1.0354214162	-2.159341032	 0.1685180849	-0.341334
C	-1.9145755969	-3.6729904684	-1.5890384703	 0.16382
O	-2.7485835549	-3.6596233439	-2.457441964	-0.243832
H	 0.5912351752	 2.0738720268	 0.053819288	 0.266539
H	-1.0923257588	 1.8527359255	-0.2883158133	 0.265032
H	-2.1170541981	-0.289654334	 0.3277127318	 0.088388
H	-2.4923473946	-1.0906469707	-2.0108156674	 0.132372
H	-0.8316037652	-0.5710139826	-2.3884775124	 0.119236
H	 0.0249696485	-2.7799324986	-1.6379711677	 0.103906
H	-0.1397505722	-2.2679590116	 0.6392247188	 0.236368
H	-1.7822017628	-4.5512410953	-0.9169711194	 0.081785
