18
gdb 44093	3.76702	1.42017	1.1862	3.7788	76.21	-0.2386	0.0242	0.2628	1049.572	0.14955	-401.940933	-401.933765	-401.93282	-401.972437	28.942	
O	 0.0892880516	 0.0394612843	-0.064725658	-0.355689
C	 0.0637683687	 1.2396792042	-0.0610245097	 0.414511
N	-0.988894205	 2.1506452577	-0.0094261085	-0.431412
C	-0.1346662587	 3.3048084636	 0.1886373252	 0.445074
C	-0.2521893464	 4.7344410102	-0.3153455204	-0.321036
C	 0.7001682848	 5.1523381903	 0.8566067197	-0.226958
C	 0.5080244948	 3.7604403359	 1.5470974954	-0.076594
C	 1.6624992997	 2.7454694208	 1.3721227739	-0.255581
C	 1.1044096491	 2.382309069	-0.043858684	-0.254321
H	-1.9311261	 1.9821588	 0.3197547481	 0.241174
H	 0.0622570586	 4.9426818541	-1.3418964964	 0.105026
H	-1.2598916315	 5.1381277493	-0.1713006725	 0.106203
H	 1.7288035855	 5.3353434394	 0.5358341513	 0.107148
H	 0.3645262476	 6.0087682121	 1.4432301598	 0.109162
H	-0.0433501721	 3.7778860629	 2.4882740958	 0.068206
H	 2.6654748094	 3.1796471169	 1.3642546382	 0.108429
H	 1.6552579279	 1.9086613332	 2.0749240813	 0.119354
H	 1.7562505562	 2.465794676	-0.9125784795	 0.097305
