20
gdb 7673	3.55473	1.75594	1.56916	1.2285	74.07	-0.2479	0.0756	0.3235	920.6918	0.176723	-348.98049	-348.972514	-348.971569	-349.0128	31.442	
C	 0.13700098	 1.5430636181	-0.0906720753	-0.452069
C	 0.0450070611	 0.0265893943	-0.0084540599	 0.413932
O	-1.316299396	-0.3924332717	-0.0791323646	-0.481474
C	 0.9512199665	-0.8213526563	-0.9643633259	-0.290421
C	 1.4127330003	-1.6939177096	 0.2359706322	-0.00329
C	 2.76187837	-1.2677480542	 0.8663881396	-0.221596
C	 2.0148501036	-0.2304733878	 1.7596936628	-0.244066
C	 0.6477707892	-0.7252821499	 1.2085904195	-0.033595
H	 1.1687853027	 1.898693623	-0.0202523005	 0.115011
H	-0.2619722367	 1.8947246963	-1.0509098327	 0.102417
H	-0.4491028374	 2.0063495259	 0.7093191146	 0.122655
H	-1.6644140736	-0.1119253624	-0.9332333637	 0.270274
H	 0.3742240168	-1.3517485401	-1.7262174297	 0.093205
H	 1.758072727	-0.2682368457	-1.4562651737	 0.087789
H	 1.2007325938	-2.7608321873	 0.16623879	 0.06357
H	 3.2329960372	-2.0628398962	 1.4503053001	 0.098576
H	 3.5085835445	-0.8710909132	 0.1714054277	 0.090938
H	 2.1365338021	-0.4046371275	 2.8311311809	 0.102256
H	 2.2495972856	 0.8194460111	 1.567901956	 0.095958
H	-0.0931748267	-1.0535636767	 1.9376189728	 0.069928
