19
gdb 12117	2.9935	1.81463	1.63457	2.3388	70.67	-0.2395	0.0765	0.316	915.6692	0.164082	-365.021552	-365.013057	-365.012112	-365.054182	32.127	
C	 0.0998653965	 1.0230423471	-1.1593579383	-0.475257
C	-0.0062985171	-0.0088789515	-0.053014119	 0.264673
C	 1.2035509146	-0.7818668065	 0.3332750828	-0.276721
N	 0.6746085219	 0.2697596212	 1.2218420129	-0.345555
C	-1.3668579564	-0.6603015683	 0.0683776316	 0.368657
C	-1.765801689	-1.582291751	-1.0649248345	-0.467895
C	-1.9830605847	-0.8177060855	 1.3926463574	-0.21828
O	-2.4036176077	 0.2312312494	 0.5108001003	-0.290938
H	 1.1046627346	 1.4567034367	-1.1924436042	 0.108891
H	-0.1045549523	 0.5879077388	-2.1428126715	 0.125107
H	-0.6226035027	 1.8282231535	-0.9919736564	 0.14328
H	 1.1067656174	-1.7921508625	 0.7223342655	 0.115334
H	 2.1251081649	-0.5945608161	-0.212415584	 0.109958
H	 1.2330478934	 1.1151345631	 1.1329472088	 0.228521
H	-1.0583995856	-2.4128182021	-1.1597178456	 0.121315
H	-2.7631166572	-1.9908245757	-0.8860832802	 0.127673
H	-1.7884119747	-1.0491557313	-2.0207668465	 0.125159
H	-2.7122759083	-1.6134959067	 1.5445722588	 0.100119
H	-1.4335587476	-0.4916975025	 2.270549192	 0.13596
