18
gdb 133831	3.14041	2.06404	1.89986	3.7345	80.36	-0.1852	0.0134	0.1985	832.1811	0.147709	-364.679063	-364.672127	-364.671183	-364.709768	28.778	
C	 7.1290709354	-0.2394741459	 1.5433183332	-0.512303
C	 5.9584522465	-0.6051550939	 0.689424832	 0.34294
C	 5.3767361117	 0.3940563587	-0.4207744953	-0.101901
N	 4.6866763045	 0.045639174	 0.8531408689	-0.124798
C	 3.7068457639	-0.8834212227	 0.1611100134	-0.020874
C	 4.2642753839	-2.2859605153	 0.4088129725	-0.229428
C	 5.6962213717	-1.9372891248	-0.0253281834	-0.157372
C	 5.4605706205	-1.1090924106	-1.3002750864	-0.025722
C	 4.2219021283	-0.4070971114	-1.2444373508	-0.18373
H	 7.1031965728	 0.8263654012	 1.7870042784	 0.140367
H	 8.072174218	-0.459679481	 1.0327901211	 0.128019
H	 7.1145158904	-0.8009526602	 2.4847240928	 0.135953
H	 5.8221031133	 1.3528760915	-0.65166644	 0.111833
H	 2.6738477027	-0.6809889523	 0.4330103816	 0.079773
H	 3.7955559842	-3.0365330714	-0.2350860201	 0.113356
H	 4.1979992571	-2.6047717131	 1.4542422299	 0.104457
H	 6.4804955779	-2.6884467708	-0.0017936519	 0.077544
H	 6.2309481072	-0.970853352	-2.051523826	 0.121887
