17
gdb 128244	2.661	1.31298	0.89196	2.9574	72.36	-0.2017	0.0133	0.215	1285.9292	0.135829	-455.117428	-455.108474	-455.10753	-455.151486	31.947	
C	 0.0627713821	 1.3533079576	-0.0989744047	-0.329394
N	 0.0100859884	-0.0634771636	 0.2126503579	-0.398241
C	-1.2143536562	-0.7021538672	 0.0871896351	 0.085594
C	-2.488866049	-0.2312546051	 0.0338196992	 0.001088
O	-3.3739975034	-1.2593856678	-0.0268898876	-0.197701
N	-2.6735492002	-2.460282976	-0.0308347927	-0.25016
C	-1.4110418254	-2.1201820517	 0.0382014002	 0.424288
O	-0.3913571001	-2.9876968426	 0.0469179865	-0.273255
C	-0.7551031373	-4.3686329877	-0.0272731719	-0.243749
H	 1.0939516989	 1.7028618464	-0.014574493	 0.128961
H	-0.3128182102	 1.5955468351	-1.1065886327	 0.113372
H	-0.5384079939	 1.912270926	 0.6271511344	 0.133931
H	 0.7642086169	-0.603898268	-0.1871595344	 0.245707
H	-2.9168853287	 0.7572241987	 0.0386726293	 0.139405
H	-1.3801815853	-4.6481989406	 0.8261828302	 0.145058
H	-1.3073885447	-4.573202788	-0.949646674	 0.143018
H	 0.1816645481	-4.9262157256	-0.0117775216	 0.132078
