15
gdb 130170	3.50339	1.61209	1.1065	3.118	73.73	-0.1827	0.0375	0.2202	1020.3128	0.116803	-413.011174	-413.003887	-413.002942	-413.042392	28.895	
N	-0.0384788059	 1.3754609869	 0.1540339414	-0.589972
C	 0.0558011033	-0.0094936498	 0.0391793919	 0.221499
N	-1.0312653163	-0.7642745564	 0.0240577512	-0.316667
N	-0.5886975429	-2.0874497264	 0.0691326465	-0.372328
C	 0.7682966597	-2.0968340007	-0.0321804601	 0.435675
C	 1.2490798532	-0.7962612684	 0.0031075318	 0.225788
C	 2.6804379071	-0.8879253228	 0.0174513497	-0.360304
C	 2.9861755046	-2.223653187	-0.0138511803	-0.05797
N	 1.8068620003	-2.9794695711	-0.0297154912	-0.413722
H	 0.6365355154	 1.8690037558	-0.4145961388	 0.244205
H	-0.9777186343	 1.7004988619	-0.038871759	 0.247728
H	-1.2272388474	-2.77625935	-0.2906806702	 0.258443
H	 3.4010800017	-0.0859801909	 0.0521579935	 0.096756
H	 3.9415167009	-2.7233566155	-0.0308859913	 0.119248
H	 1.7597663005	-3.9805729356	-0.0845271851	 0.261621
