15
gdb 129969	5.80906	0.9897	0.89995	3.5982	68.67	-0.238	-0.0036	0.2344	1254.0723	0.114826	-450.107162	-450.099491	-450.098547	-450.139828	28.494	
N	 0.0114668406	 1.3259244962	 0.051157362	-0.594674
C	-0.0489310013	-0.0272632898	 0.0024181577	 0.499312
N	-1.1137774072	-0.7815617854	 0.0597157071	-0.39424
C	-0.5674643484	-2.0324680167	-0.1032690372	 0.390299
N	 0.7345074236	-2.0663654771	-0.2348467702	-0.224581
O	 1.095871765	-0.6942814725	-0.1720619041	-0.208272
C	-1.38578032	-3.2596159199	-0.1256334088	-0.111771
C	-1.2382270216	-4.2117159167	-1.2690466093	-0.223792
N	-0.7398818735	-4.5674609177	 0.0592400736	-0.314225
H	 0.8986840632	 1.736342665	 0.2940619494	 0.278509
H	-0.8059691751	 1.7815050794	 0.4233424076	 0.283093
H	-2.3557560507	-3.1464302504	 0.3476377929	 0.111865
H	-2.1055361835	-4.7733267995	-1.6047099616	 0.124767
H	-0.5252444027	-3.9434297787	-2.0430964566	 0.1297
H	 0.2682152415	-4.4288336261	 0.0979192275	 0.254009
