27
gdb 76614	2.08384	1.24751	1.07197	0.1065	95.99	-0.2554	0.0674	0.3227	1378.2888	0.250107	-353.550893	-353.539554	-353.53861	-353.586657	43.491	
C	-0.6662272799	 1.8543251874	 0.4410110103	-0.413202
C	-0.3844648945	 0.366407244	 0.5071600806	-0.050297
C	 0.7178994927	-0.30109167	-0.3006605579	-0.05027
C	 1.6276930194	 0.4651945229	-1.2401799775	-0.413217
C	 0.7846453338	-0.2952065513	 1.2173941466	 0.006657
C	 1.8390133705	 0.2930487262	 2.1699044708	 0.227602
C	 2.4137413809	 1.6763961934	 1.8127426652	-0.422394
C	 1.1898144777	 0.3902612295	 3.5678236125	-0.39099
C	 3.0106306389	-0.7111378636	 2.2325832388	-0.390972
H	 0.2158149925	 2.4530945678	 0.2104809335	 0.121545
H	-1.4087923898	 2.0598469836	-0.3387001368	 0.112112
H	-1.0774707155	 2.2247263903	 1.3870631826	 0.114666
H	-1.3068196819	-0.2076297009	 0.5731394497	 0.076471
H	 0.4501297481	-1.2715214172	-0.714407288	 0.07647
H	 1.7875006405	 1.5015923173	-0.9401784123	 0.121543
H	 2.6120807544	-0.0104452137	-1.3181480689	 0.11466
H	 1.1950349945	 0.4836327543	-2.2471892962	 0.112125
H	 0.4911885118	-1.2655430743	 1.6185589284	 0.074471
H	 1.6457275365	 2.4525774912	 1.7937897414	 0.113407
H	 3.1471952065	 1.9670398161	 2.5734285964	 0.105746
H	 2.9315019226	 1.675116611	 0.8511839574	 0.113389
H	 0.801224729	-0.5808451837	 3.8933406914	 0.104979
H	 1.9179755383	 0.7262152089	 4.3146371085	 0.102874
H	 0.3560044881	 1.0998748389	 3.5664372406	 0.112386
H	 3.5029292362	-0.8033806684	 1.2589728241	 0.112391
H	 3.76249187	-0.389759301	 2.9621277057	 0.10287
H	 2.6638607385	-1.7076425788	 2.5270982033	 0.104978
