18
gdb 19119	2.72034	1.95764	1.38934	0.6663	78.02	-0.235	0.052	0.287	958.8127	0.152667	-310.608045	-310.599971	-310.599026	-310.64032	31.252	
C	 0.0808686385	-1.2013238908	 0.0353532109	-0.460678
C	 0.0409216046	 0.0016632667	 0.0269529287	 0.240884
C	-0.0170610069	 1.4395006817	 0.0097454997	 0.181826
C	 0.4789507176	 2.1680502244	 1.2540823614	-0.296214
C	 1.3121764805	 2.1867082141	 0.0061017512	-0.296171
C	-1.1664541218	 2.0585851457	-0.748534859	-0.036644
C	-1.6966986813	 1.448363236	-2.0205478546	-0.277017
C	-2.5355635099	 1.4286873524	-0.7654016506	-0.277047
H	 0.1223497407	-2.2621226693	 0.0473865828	 0.191153
H	-0.0555357142	 3.0697545252	 1.5332964131	 0.118297
H	 0.8150097371	 1.5633577597	 2.087747371	 0.126284
H	 2.219251756	 1.5948191645	-0.0154749271	 0.126284
H	 1.3525878298	 3.1012879166	-0.57580649	 0.118299
H	-1.1428859492	 3.1446981105	-0.7157162793	 0.076362
H	-1.9812317775	 2.1137938003	-2.8280885053	 0.107408
H	-1.2622746134	 0.5079348872	-2.3408335791	 0.124781
H	-2.6517183433	 0.4753610576	-0.2620325136	 0.12479
H	-3.4000103174	 2.0805972274	-0.7051741303	 0.107404
