19
gdb 61639	3.16336	0.93543	0.8154	2.4408	72.71	-0.2394	-0.0353	0.2042	1433.4791	0.155173	-460.134832	-460.124841	-460.123896	-460.170805	35.643	
C	 0.5002263823	 1.0236591516	 0.6071753674	-0.402186
C	-0.194149501	-0.2184493111	 0.0545943819	 0.02739
O	-1.6132415513	-0.089202548	-0.0394330847	-0.28491
C	-2.2827041436	-0.2067766768	 1.1867017473	 0.069507
C	-3.7347534482	-0.5983765918	 1.0875560194	-0.363529
C	-2.711880091	-1.6031979296	 1.5688985316	 0.121106
O	-2.330968299	-2.6713275	 0.7561293913	-0.427841
C	 0.2818652194	-0.5521270123	-1.355958688	 0.151681
O	 1.4084014838	-0.395621552	-1.7436001268	-0.240312
H	 1.5790646075	 0.9154047336	 0.473352594	 0.147724
H	 0.1694284374	 1.9124227544	 0.062469027	 0.133745
H	 0.2912164412	 1.1631296126	 1.6704132709	 0.121539
H	 0.0517005413	-1.0953218074	 0.6772404239	 0.119167
H	-1.9796132223	 0.5073416152	 1.9490255475	 0.096121
H	-4.4364170222	-0.1648529345	 1.7915197507	 0.12074
H	-4.1235521439	-0.7431654407	 0.084623639	 0.126875
H	-2.7104968924	-1.8964076262	 2.6130265136	 0.110742
H	-2.162237166	-2.3056049037	-0.1209818329	 0.285843
H	-0.516194882	-0.9769358535	-2.005373213	 0.086595
