21
gdb 37931	2.37865	2.242	1.69905	0.0674	83.15	-0.2338	0.0764	0.3102	920.4031	0.188093	-349.955818	-349.949335	-349.948391	-349.986318	28.29	
C	-0.0206254084	 1.552363253	-0.1566887304	-0.247601
C	 1.4312531769	 2.0100592581	 0.0065761931	-0.070803
C	 2.2326007516	 1.7783866158	 1.2726924565	-0.027376
C	 1.6972639246	 1.370655863	 2.6304601219	-0.224203
C	 0.47576933	 0.4299530935	 2.5974696912	-0.235005
C	 0.4128567421	-0.4912007412	 1.3870003833	-0.040888
C	-0.0285497396	 0.0375520773	 0.0423604889	-0.060452
C	 1.4033949422	-0.4248586757	 0.2362398066	-0.064655
C	 2.3154186938	 0.7800594862	 0.1442746248	-0.064857
H	-0.7113949275	 2.0714755115	 0.5196992834	 0.098462
H	-0.3491284521	 1.785575092	-1.1755604001	 0.09835
H	 1.7492770774	 2.8472101343	-0.6067071278	 0.077394
H	 3.0922718039	 2.4409279481	 1.3488047763	 0.075957
H	 2.519331825	 0.8728371931	 3.1616279643	 0.098174
H	 1.453016799	 2.262344699	 3.2199870888	 0.093505
H	 0.477799496	-0.1749426278	 3.5096220264	 0.094151
H	-0.4463153433	 1.0233786823	 2.6383842366	 0.100496
H	 0.0518199868	-1.4915112614	 1.6089917647	 0.077008
H	-0.741430733	-0.5477558177	-0.5290129681	 0.07436
H	 1.7588510735	-1.3569652887	-0.1873597821	 0.07465
H	 3.239661851	 0.6673488556	-0.4109217281	 0.073332
