15
gdb 28502	3.22791	1.41028	0.98746	2.3304	71.8	-0.2305	-0.0244	0.2061	1134.4586	0.113328	-454.020906	-454.012849	-454.011905	-454.053858	29.985	
C	-0.0314568452	 1.4752252606	 0.0670364897	-0.46039
C	 0.0030760947	-0.0257999495	-0.0019031609	 0.337152
N	-0.1238107984	-0.6063468235	-1.1915229021	-0.288331
C	-0.0899026694	-1.9476459409	-1.2267233342	-0.066363
C	 0.0690840618	-2.719938031	-0.0917412992	 0.253841
O	 0.1022858021	-4.0754786623	-0.1391065302	-0.441275
C	 0.1929714708	-1.9995608164	 1.106210277	 0.316551
O	 0.3503293161	-2.7147731924	 2.2430869368	-0.436738
N	 0.1622182445	-0.6863049362	 1.1621242934	-0.36657
H	 0.8950721773	 1.861378632	 0.5044042386	 0.135107
H	-0.1607298837	 1.8910853739	-0.9321387239	 0.138822
H	-0.8518016036	 1.8117469224	 0.70946444	 0.135145
H	-0.1930063218	-2.428853632	-2.1959283974	 0.123787
H	 0.2189962335	-4.4027239382	 0.7612388831	 0.312509
H	 0.4192485713	-2.0772406964	 2.9673841192	 0.306754
