9
gdb 21756	5.72947	2.30175	1.64207	2.136	51.	-0.2864	-0.094	0.1925	662.7223	0.049846	-429.436286	-429.431255	-429.430311	-429.465392	18.8	
O	-0.1398928061	 1.3521812376	 0.0106377905	-0.242544
N	 1.2994812404	 1.7918464461	-0.0007973829	-0.003292
N	 2.0369649363	 0.7754397845	-0.0132975741	-0.196144
C	 1.255248432	-0.3333304981	-0.011676747	 0.408899
C	-0.0553078904	 0.0332468235	 0.0029266123	 0.269385
C	-0.7486512742	-1.2030059255	 0.0031283705	-0.101782
N	 0.1185626607	-2.1974833575	-0.0104650566	-0.098767
O	 1.419115875	-1.6567221123	-0.0203805845	-0.20723
H	-1.8033804237	-1.4310443082	 0.0121266217	 0.171475
