20
gdb 89027	4.36879	0.69363	0.64228	3.6204	77.78	-0.2373	0.0619	0.2993	1764.4992	0.171471	-436.483274	-436.473224	-436.47228	-436.519769	36.251	
C	 0.209754336	 1.4242228001	-0.4476960243	-0.394297
C	-0.0205673536	 0.0412093365	 0.1142669888	 0.002612
N	 1.143794249	-0.8593036803	 0.2090916693	-0.352148
C	 0.4507854876	-0.432997042	 1.4441034716	-0.02171
C	 1.2702321949	 0.3926632023	 2.4069904848	-0.154517
N	 2.2848188951	-0.4384481799	 3.0341549168	-0.340233
C	 2.6641756473	-0.2316376594	 4.3397571611	 0.453597
N	 3.7887125671	-0.9606272931	 4.7201662408	-0.565596
O	 2.0897091007	 0.5271800402	 5.0994299664	-0.394517
H	 1.1857416214	 1.818047849	-0.1581665841	 0.130132
H	 0.1755200823	 1.3979329666	-1.5421487379	 0.12047
H	-0.5636902084	 2.1193901946	-0.1037301797	 0.120075
H	-0.9528015223	-0.4143024278	-0.2191813646	 0.083875
H	 0.8807895348	-1.8095876652	-0.036248212	 0.229892
H	-0.1716485553	-1.1797305663	 1.9353000053	 0.086499
H	 1.7277130248	 1.2435725127	 1.8884511099	 0.104966
H	 0.6483561741	 0.7934483444	 3.2105422338	 0.144121
H	 2.9438383616	-0.8665451384	 2.4021389099	 0.244659
H	 3.9349102254	-1.8549050025	 4.2754770794	 0.244057
H	 3.9028424476	-0.9833138917	 5.7223913049	 0.258061
