21
gdb 76717	2.70883	1.02114	0.96694	2.8224	80.13	-0.2184	0.0283	0.2467	1353.0895	0.181425	-420.398535	-420.388263	-420.387319	-420.434517	36.591	
C	-0.0869959712	 1.5541740769	 0.5274618664	-0.418941
C	 0.1726300099	 0.0815545172	 0.2825796785	-0.002802
C	 0.3279568702	-0.517540258	-1.083068392	-0.024799
C	 0.1998524779	 0.3122926706	-2.3465166899	-0.19817
N	 1.0471615355	-0.1712588505	-3.4302346895	-0.267302
C	 2.0315800164	 0.5795587655	-3.9895914879	 0.161733
O	 2.3042667408	 1.722518763	-3.6827790556	-0.328218
N	 1.4616023638	-0.4467695339	-0.161959076	-0.098094
C	 2.5891713382	 0.4446907094	-0.4126728226	-0.327242
H	 0.3636461239	 2.2077781908	-0.221057849	 0.131847
H	-1.1646249769	 1.75006426	 0.5401655204	 0.122382
H	 0.3098570981	 1.8494321701	 1.5049234734	 0.125827
H	-0.2973325318	-0.5529428119	 1.0353528187	 0.086153
H	-0.034750141	-1.5385851998	-1.2228571889	 0.077647
H	-0.8499444984	 0.2921155964	-2.6678464277	 0.113872
H	 0.4742086949	 1.3561316463	-2.2026587189	 0.147857
H	 0.9390819374	-1.1226290364	-3.745120929	 0.24755
H	 2.5718613663	 0.0243658207	-4.7813978662	 0.078792
H	 2.3762419795	 1.3425075798	-1.00567362	 0.131199
H	 3.0051441313	 0.755963162	 0.5508903024	 0.118704
H	 3.3639457952	-0.1194373482	-0.9415453365	 0.122003
