18
gdb 84818	3.18785	1.09673	0.87901	3.9711	76.82	-0.2683	-0.0055	0.2628	1288.971	0.14854	-401.974504	-401.965937	-401.964992	-402.008213	31.901	
O	 0.0247321397	 1.4567177752	 0.6423196499	-0.427492
C	-0.0299360962	 0.1470926436	 0.0688848758	 0.068919
C	 0.888843623	-0.8120890959	 0.7862833696	-0.117225
C	 0.2088989858	-1.6651476567	 1.5539285668	-0.059308
C	-1.2850842047	-1.4922129853	 1.4283080155	-0.275441
C	-1.4187718628	-0.5505205191	 0.2046320396	-0.021165
C	-2.5853132909	 0.4488507253	 0.2625450024	-0.351956
C	-3.8821047857	-0.2148161118	 0.378618795	 0.261933
N	-4.8983350656	-0.7573620674	 0.4732178794	-0.315008
H	 0.1622340354	 1.3506116517	 1.5903197574	 0.280008
H	 0.2269163936	 0.3007570925	-0.9841146052	 0.09245
H	 1.9678301818	-0.7288188291	 0.725103233	 0.10541
H	 0.6541351745	-2.4034877767	 2.2122771211	 0.107296
H	-1.8124671031	-2.4393627554	 1.27699332	 0.130067
H	-1.7095822443	-1.0554410969	 2.3435724729	 0.115142
H	-1.5464095134	-1.1785826698	-0.6833617753	 0.101822
H	-2.4546639564	 1.1304435151	 1.1086517218	 0.149692
H	-2.5909881906	 1.0766811007	-0.6352868596	 0.154858
