23
gdb 112836	2.88986	1.14924	0.93513	1.744	85.01	-0.253	0.0877	0.3407	1370.1286	0.20618	-388.299757	-388.290566	-388.289622	-388.333613	35.393	
C	 0.0945170343	 1.5306043549	-0.025252424	-0.38468
C	 0.016951936	 0.0019021933	 0.0307423259	-0.183793
C	-1.4151204932	-0.547527374	 0.0250637091	 0.003728
C	-2.2288560422	-0.2325384515	-1.2584177873	-0.239539
C	-3.2537815062	-1.3842328878	-1.4316234487	-0.002941
C	-3.649721018	-1.6506250074	-2.8852020635	-0.402562
C	-2.5708087004	-2.5559578824	-0.7462212385	 0.039337
O	-1.1965009781	-2.7237660288	-1.1333794842	-0.269475
C	-1.4903357062	-2.063364162	 0.1101980077	 0.027671
H	 1.1331302515	 1.874063887	 0.0063221071	 0.112097
H	-0.3552748093	 1.9226457764	-0.9431583207	 0.119185
H	-0.4317331676	 1.9855642892	 0.8218686185	 0.110786
H	 0.5577584667	-0.4320204964	-0.8194228128	 0.109822
H	 0.5300751179	-0.3526773954	 0.9344254801	 0.08998
H	-1.9483252422	-0.1505751995	 0.9025303597	 0.067599
H	-2.7159619736	 0.7447603536	-1.218007827	 0.096578
H	-1.552096355	-0.2232563816	-2.1189309365	 0.109867
H	-4.1580631004	-1.1572745979	-0.8485480848	 0.071505
H	-2.7726163992	-1.9498972334	-3.4680228887	 0.129875
H	-4.3935935341	-2.4513012241	-2.957712629	 0.110067
H	-4.0771946795	-0.7557606855	-3.3491856691	 0.112442
H	-3.1113213583	-3.4793318062	-0.5478289225	 0.086241
H	-1.1530969824	-2.5880289005	 1.0019307593	 0.08621
