23
gdb 60386	3.48921	0.70257	0.69136	2.1606	82.49	-0.2535	0.0687	0.3221	1772.6995	0.202979	-425.413813	-425.403079	-425.402135	-425.450004	40.058	
C	 0.0980438176	 1.521442732	-0.162934408	-0.402047
C	 0.0529566535	 0.0049692354	 0.0283758655	 0.136101
O	 0.656609569	-0.3756277211	 1.2634067217	-0.425854
C	-1.3691868125	-0.556954136	-0.1042402257	-0.206026
C	-1.4386069532	-2.0818126192	 0.0408886216	-0.237968
C	-2.848644423	-2.6338024267	-0.0434382475	 0.421655
O	-3.7170568123	-2.1797808314	 0.9687863568	-0.472805
C	-3.4667080013	-2.9444723065	-1.386190732	-0.32299
C	-3.0718675534	-4.0608694785	-0.4352502516	-0.304006
H	 1.1209193595	 1.8886601336	-0.0440004737	 0.124332
H	-0.2626278379	 1.8086408966	-1.156064711	 0.114404
H	-0.534658455	 2.0251110785	 0.5791119321	 0.104545
H	 0.6872426453	-0.4676460606	-0.7329744485	 0.08739
H	 0.1544912639	 0.0400888455	 1.9737088582	 0.276357
H	-1.9981232979	-0.0851304887	 0.665963001	 0.076438
H	-1.782878289	-0.2515695588	-1.0746255062	 0.093867
H	-0.8259680049	-2.550116007	-0.7395833375	 0.08986
H	-0.9973727826	-2.3674704195	 1.0015569186	 0.115336
H	-3.9868762809	-1.2829419622	 0.7450267737	 0.280481
H	-4.5269703247	-2.7482373065	-1.5018675724	 0.110145
H	-2.8741292748	-2.7933620894	-2.282612974	 0.107634
H	-2.2097905749	-4.671418205	-0.6808397455	 0.111793
H	-3.8729755504	-4.5820291543	 0.0755270244	 0.121358
