17
gdb 87388	2.24405	1.62418	1.11111	2.0482	70.4	-0.2413	-0.0307	0.2105	1093.1696	0.133962	-458.946441	-458.937711	-458.936766	-458.980594	32.584	
O	 0.0593779515	 1.3809539196	 0.2046703646	-0.431159
C	 0.0235337043	-0.0055709899	 0.1607680791	 0.086922
C	-0.4575751551	-0.8068265142	 1.3190157924	-0.37019
C	-1.3300040633	-0.7153598833	 0.076039109	 0.119622
C	-2.6848003187	-0.0137590481	-0.1383725941	 0.027811
O	-2.6373459567	 1.3305772061	-0.6069993611	-0.431513
C	-3.0672646868	-1.1142018847	-1.1774836473	-0.397802
C	-1.7167329507	-1.8056912624	-0.8695196351	 0.347247
O	-1.2008015405	-2.8277832361	-1.2271188869	-0.312831
H	-0.8483899468	 1.7099591176	 0.1204598038	 0.300438
H	 0.8201406656	-0.4271793531	-0.4475437152	 0.122151
H	-0.003536649	-1.7738087499	 1.5114463055	 0.13789
H	-0.8063491111	-0.2632540103	 2.1915122272	 0.129353
H	-3.3281364611	 0.0115216901	 0.743439863	 0.109333
H	-2.2772853523	 1.3256426075	-1.5019625564	 0.292264
H	-3.9536704083	-1.7099095322	-0.9456728961	 0.142539
H	-3.1577100312	-0.7472730267	-2.2059195124	 0.127925
