18
gdb 84585	2.3696	1.93425	1.24512	2.6548	77.3	-0.2568	-0.0044	0.2525	1022.7751	0.149239	-401.963273	-401.955631	-401.954687	-401.995462	29.78	
C	 0.0492773119	 1.6066420699	-0.1502074201	-0.389954
C	 0.0028075286	 0.0788649902	-0.0117287723	-0.047647
C	 0.6022475669	-0.6654484386	-1.1883440621	-0.054057
C	 1.4833741532	-1.6066005479	-0.8463863284	-0.10218
C	 1.666126677	-1.6641369128	 0.6382447626	 0.068598
O	 2.8844720501	-0.9599222066	 1.1037980092	-0.274511
C	 2.1303611673	 0.0995373538	 1.5605297747	 0.436043
N	 2.4865758043	 1.169931011	 2.1111126534	-0.546387
C	 0.7900318021	-0.5123446278	 1.18886092	-0.191395
H	 1.0748334765	 1.9646823552	-0.2663655178	 0.137037
H	-0.5326648108	 1.9279387922	-1.020272305	 0.108863
H	-0.3688529345	 2.0905487056	 0.7369468001	 0.129547
H	-1.0521262714	-0.2124342238	 0.0909296174	 0.089667
H	 0.3172813269	-0.4260454587	-2.208440817	 0.104013
H	 2.0237604552	-2.2499308792	-1.5304165302	 0.106652
H	 1.6241151479	-2.6545333037	 1.0954858899	 0.094544
H	 3.5035039381	 1.2167653082	 2.200631918	 0.225776
H	 0.1647112405	-0.7273002667	 2.0554847477	 0.10539
