14
gdb 2453	5.65662	2.49034	2.0464	1.9409	56.47	-0.2303	-0.0255	0.2049	640.6005	0.114566	-324.574829	-324.569068	-324.568124	-324.604457	22.109	
O	 0.0124082826	 0.3499291421	 0.8520789443	-0.296891
C	-0.0117946352	 1.3550007917	 0.194605858	 0.372598
C	-1.2673407812	 2.1043274709	-0.2813285743	-0.341384
C	-0.7376829931	 3.4132252718	-0.8215071636	-0.016994
C	 0.0824070995	 4.2440091003	 0.0953043646	-0.244534
N	 0.753014008	 3.3943541757	-0.897102454	-0.096319
C	 1.2102999351	 2.1178745969	-0.3454684818	-0.26994
H	-1.7521231915	 1.5057256447	-1.0619749539	 0.138541
H	-1.9820910742	 2.2038041083	 0.5401456119	 0.140198
H	-1.239838012	 3.8765431928	-1.6648753503	 0.100314
H	 0.184147525	 5.3115722568	-0.0751245551	 0.124124
H	 0.1270448968	 3.9496189732	 1.1441238944	 0.114354
H	 1.9621594075	 2.2512173218	 0.4383572352	 0.138025
H	 1.6703240326	 1.5184773031	-1.1414423754	 0.137907
