18
gdb 102889	2.07077	1.0306	0.72241	3.2451	79.68	-0.2743	0.0018	0.2761	1547.8126	0.144208	-401.915316	-401.905004	-401.90406	-401.951516	35.891	
C	-0.1065652209	 1.5601451154	-0.0865785565	-0.39561
C	-0.0293405033	 0.0350918656	 0.0021741127	-0.19283
C	 0.7437067871	-0.4346907571	 1.2414530396	 0.001333
O	 0.0419882253	-0.0025214592	 2.3867149572	-0.242717
C	 0.7516682689	-0.193987472	 3.6080904696	-0.227721
C	-0.0180294432	 0.3672587046	 4.7068639994	 0.286529
C	-0.6325081759	 0.8221419202	 5.6323151861	-0.409091
C	 0.9080955537	-1.9076505973	 1.2394430882	 0.270914
N	 1.038784036	-3.0558445484	 1.2484813966	-0.32339
H	 0.8917561471	 2.003635379	-0.1709035454	 0.116703
H	-0.680929814	 1.8622881356	-0.9664740606	 0.123031
H	-0.5896835011	 1.9762635569	 0.8001276547	 0.145542
H	-1.0324087108	-0.4012542852	 0.0469940811	 0.131701
H	 0.4637207686	-0.3818731445	-0.8823462643	 0.121467
H	 1.7571407468	 0.002158782	 1.2286254344	 0.112057
H	 0.9299320927	-1.2660724322	 3.7815748059	 0.14931
H	 1.7380368633	 0.2948582054	 3.5506182394	 0.125857
H	-1.1806946403	 1.2231311912	 6.448880902	 0.206914
