23
gdb 117851	2.55017	1.03038	0.90432	2.8611	78.79	-0.2494	0.0666	0.316	1432.5438	0.202231	-462.535262	-462.523969	-462.523025	-462.571418	40.567	
C	 0.0820870038	 1.3588473707	 0.0275611582	-0.228305
O	 0.1399600198	-0.0485663937	 0.026530342	-0.231823
C	 0.6446893407	-0.5752554108	-1.1789298745	-0.105707
C	 0.5846415374	-2.1053772751	-1.1419544941	 0.291804
C	-0.8542038818	-2.5918870461	-0.9608330163	-0.405814
C	 1.2050982451	-2.6781974059	-2.4361144506	-0.069069
O	 1.2946317989	-4.0847715552	-2.3726325035	-0.42953
O	 1.3015757148	-2.6772413224	-0.0314855026	-0.290365
C	 2.5332106638	-2.0867708139	 0.3396880957	-0.251061
H	 1.076882624	 1.8095385221	-0.1162268615	 0.10461
H	-0.583317422	 1.739314357	-0.7633046796	 0.107006
H	-0.3093320466	 1.6688026959	 0.999240633	 0.131212
H	 0.0466819351	-0.2276732147	-2.0383759688	 0.093718
H	 1.6762740351	-0.2247345512	-1.3474766712	 0.086595
H	-1.4868987027	-2.2296473564	-1.7770771014	 0.106218
H	-0.8774157008	-3.6831392751	-0.9679955585	 0.127374
H	-1.2532734875	-2.2248106953	-0.0144637568	 0.134598
H	 0.5810956125	-2.4255076209	-3.3001618149	 0.1044
H	 2.1969544769	-2.2246199393	-2.6039774555	 0.0779
H	 1.5674333654	-4.2774022416	-1.4650717675	 0.285663
H	 2.9625294236	-2.7342949679	 1.1086371059	 0.1268
H	 3.2478646518	-2.0235185304	-0.4933181833	 0.106917
H	 2.3860360827	-1.0866422298	 0.7636892759	 0.126858
