20
gdb 7776	3.36944	1.66173	1.17199	1.2436	77.97	-0.2324	0.0297	0.262	1071.4471	0.177027	-349.026684	-349.018391	-349.017447	-349.058979	31.588	
C	 0.0214230122	 1.5289818253	 0.0558717244	-0.401103
C	 0.0368305073	 0.0095727609	-0.0121445628	 0.135075
C	 0.7765706066	-0.5344836314	-1.2405601115	-0.291114
C	 1.0346327361	-2.0192081909	-1.1188662322	 0.307045
C	 1.4108185727	-2.7536084803	-2.3748737002	-0.476745
C	 0.9227772552	-2.6129568566	 0.0694633665	-0.159036
C	 0.5863921706	-1.8601241088	 1.3267397464	-0.119569
O	 0.6598143583	-0.4563437996	 1.1788970143	-0.260407
H	 1.0433930787	 1.9147534038	 0.1257614861	 0.123011
H	-0.4489750009	 1.9501154667	-0.8379490777	 0.11141
H	-0.5327741799	 1.8675895379	 0.9352708308	 0.120939
H	-1.0018741459	-0.3649993176	-0.0426256936	 0.061729
H	 0.184520659	-0.3305330329	-2.1432195099	 0.096412
H	 1.7263432239	 0.0045607589	-1.3718036987	 0.106461
H	 2.3154640472	-2.3251856872	-2.8261586163	 0.122949
H	 1.59725652	-3.8140663264	-2.1842829226	 0.119101
H	 0.6204387524	-2.6747696537	-3.1327427085	 0.120628
H	 1.0760301318	-3.6848769399	 0.1736960787	 0.079468
H	-0.4175823526	-2.1577018155	 1.6858266019	 0.091018
H	 1.2917152674	-2.1178253828	 2.1265730749	 0.112727
