19
gdb 10627	2.50016	1.72278	1.24852	4.2696	76.54	-0.277	0.0389	0.3159	1061.6945	0.164522	-327.942953	-327.933899	-327.932955	-327.976424	32.94	
C	 0.2385527381	 1.5615815541	 0.1989652864	-0.386662
C	-0.1454959671	 0.1079362689	-0.0985365916	-0.258796
C	 0.6317003266	-0.48849432	-1.2696927314	 0.169301
C	 2.0216011941	-1.0760517406	-1.0402633439	-0.314433
C	 0.8893223269	-1.9932371544	-1.3982233154	-0.037
C	 0.325983092	-3.0002352438	-0.4204964577	-0.418382
C	 0.433041478	 0.2060678638	-2.5193552859	 0.250184
N	 0.2590669192	 0.7665073542	-3.5172147298	-0.358541
H	 1.3006746274	 1.64495932	 0.4512622148	 0.119904
H	 0.0484169137	 2.2049930747	-0.665255034	 0.144481
H	-0.3412213984	 1.9484916739	 1.0419403504	 0.117377
H	 0.0320705948	-0.5062554348	 0.7888652591	 0.103708
H	-1.2187970344	 0.0442569459	-0.3130400968	 0.116137
H	 2.7936555821	-0.8758659799	-1.7735119659	 0.135723
H	 2.3639302919	-1.0744644423	-0.0099785246	 0.122058
H	 0.8929042679	-2.3402573886	-2.4275013326	 0.112461
H	 0.3990847321	-2.6610725797	 0.6157219556	 0.122911
H	-0.7257645284	-3.2184784947	-0.6325452654	 0.130301
H	 0.8825337234	-3.9404894666	-0.4949287413	 0.129269
