18
gdb 22863	3.21845	1.17938	0.90135	1.0282	77.89	-0.2426	-0.0015	0.2412	1277.4566	0.145956	-439.059892	-439.050608	-439.049664	-439.094107	34.276	
C	 0.0894145688	 1.4603337773	 0.0800406994	-0.494638
C	 0.0126619087	-0.0292297222	 0.0003115023	 0.340225
C	-0.0528611832	-0.7962677349	-1.0910509917	-0.188122
C	-0.0967872982	-2.2748402619	-0.7921226294	-0.355623
C	 0.0119472517	-2.2850701926	 0.7147095964	 0.373962
N	 0.1658050325	-3.2617112309	 1.5109952208	-0.233158
O	 0.2160739216	-4.4874633902	 0.8303797662	-0.388722
C	-0.0088093422	-0.864386216	 1.263861318	-0.051985
O	 1.1062889628	-0.5567748552	 2.0899201269	-0.43612
H	 0.9827379424	 1.7658519148	 0.6356266352	 0.148865
H	 0.1209509746	 1.9159315458	-0.9131210819	 0.120308
H	-0.7721518172	 1.8722519638	 0.6210707047	 0.12497
H	-0.0759793349	-0.4139096301	-2.106179105	 0.093265
H	-1.024033609	-2.7604412605	-1.1265767121	 0.131781
H	 0.7192914692	-2.8449598342	-1.2545205104	 0.136443
H	 0.3404950983	-5.1184836179	 1.547510757	 0.307356
H	-0.942681923	-0.6873219233	 1.8274524692	 0.080674
H	 1.2117373971	-1.3015258417	 2.6932168945	 0.29052
