19
gdb 68065	2.0955	1.75617	1.17201	2.6897	76.67	-0.2441	-0.0254	0.2187	1100.7569	0.157293	-422.991141	-422.982235	-422.981291	-423.024439	33.801	
C	 0.0412120062	 1.2129211158	 0.1852347141	-0.515013
C	 0.0353022893	-0.2844063227	 0.0534337034	 0.329063
C	 0.6712242416	-1.1473897242	-1.0829060899	-0.327836
C	 0.0143340435	-2.1540817387	-0.0900620336	 0.377386
O	-0.118383308	-3.5232204336	-0.2030629649	-0.46894
C	 0.6281141739	-1.319186991	 1.0691956941	-0.336752
C	-1.2268381504	-1.2012577474	-0.0717902714	-0.14131
C	-2.2335235097	-1.2976147008	 1.0374842068	 0.118244
O	-2.1914754884	-0.6865177848	 2.0790516214	-0.255073
H	 1.0651264832	 1.5928948629	 0.2671407855	 0.118926
H	-0.4249512879	 1.6883299186	-0.6845864855	 0.117361
H	-0.5114243074	 1.517726546	 1.0785263079	 0.144684
H	 0.2227273573	-1.0693330027	-2.0771318642	 0.093085
H	 1.7645132103	-1.1509360768	-1.126729103	 0.087138
H	 0.7546125442	-3.9232156286	-0.1242381878	 0.287161
H	 1.7199799634	-1.3351204244	 1.1413095566	 0.083604
H	 0.1536533894	-1.3763144921	 2.0473850441	 0.125299
H	-1.7529964458	-1.1676705206	-1.0344670617	 0.079409
H	-3.0772784846	-1.9938108651	 0.8252544483	 0.083564
