19
gdb 14141	4.30606	1.53106	1.33469	1.3047	78.85	-0.2181	0.019	0.237	993.6677	0.166661	-327.921868	-327.914134	-327.91319	-327.953987	29.641	
C	-0.0821143764	 1.5385465815	-0.038714324	-0.395569
C	-0.0417235991	 0.0341322125	 0.0802604002	-0.056976
N	 1.2468682227	-0.622078312	-0.2009065713	-0.380724
C	 0.6842729869	-0.6744875743	 1.1717617197	 0.339205
C	 1.4518529298	 0.0140659406	 2.3106931473	-0.292736
C	 1.5572723977	-1.0500432204	 3.4402847778	-0.268889
C	 0.6667435632	-2.1737627728	 2.9642671281	-0.079257
C	 0.1962540464	-1.9592475224	 1.7357755671	-0.14015
H	 0.8490246093	 1.9833285089	 0.320512092	 0.127061
H	-0.2158927868	 1.8398410845	-1.0833595851	 0.118471
H	-0.9134578588	 1.9548416317	 0.5410258972	 0.113932
H	-0.9373505453	-0.4680960329	-0.2876083256	 0.0745
H	 1.1013116664	-1.5125168209	-0.6724504238	 0.222934
H	 2.4279452741	 0.3575861266	 1.9631506095	 0.11585
H	 0.9024790773	 0.8915979346	 2.6656594349	 0.104737
H	 2.5870756769	-1.4019633679	 3.5860738021	 0.110136
H	 1.2348649074	-0.6531063627	 4.4100439072	 0.105774
H	 0.4621552189	-3.0510877788	 3.5678563376	 0.09375
H	-0.4496056806	-2.627281886	 1.1746703192	 0.087948
