14
gdb 5157	5.19249	1.42315	1.35561	2.337	65.51	-0.2211	0.0155	0.2366	926.9385	0.108586	-378.742724	-378.735524	-378.73458	-378.775642	25.764	
N	-0.0438006702	 0.9126551718	-0.9283529041	-0.438043
C	-0.0202595101	 0.0165120011	-0.0290779228	 0.06319
N	-1.1661088683	-0.4926631105	 0.553221385	-0.403774
C	-2.4400667562	 0.0116724684	 0.3105650353	 0.426035
C	-3.4723595136	-0.4342571219	-0.4521354831	-0.235476
C	-4.5364763084	 0.507716335	-0.2816737745	-0.171304
C	-4.0639704553	 1.4537531103	 0.5720911915	-0.004331
O	-2.7933315125	 1.1700236931	 0.9491131894	-0.156589
H	 0.9012656695	 1.1227127353	-1.240312144	 0.222701
H	 0.8779307635	-0.4678248244	 0.3750231584	 0.088664
H	-1.0373505274	-1.0912896911	 1.3537624692	 0.253231
H	-3.4642066287	-1.3198893222	-1.0668831808	 0.111485
H	-5.5136805252	 0.4836218915	-0.7374481121	 0.110517
H	-4.4865118171	 2.3524290436	 0.9905834527	 0.133694
