25
gdb 123151	5.70068	0.46391	0.4432	1.9243	88.42	-0.2466	0.0848	0.3314	2562.3316	0.225273	-426.616861	-426.604813	-426.603869	-426.6559	41.392	
C	-0.060944125	 1.3369357773	-0.0445840103	-0.227426
O	-0.1175075909	-0.0627131323	 0.0742886095	-0.228744
C	 0.7383569599	-0.5638674541	 1.0773038249	-0.050695
C	 0.5944367929	-2.0787271946	 1.1212430718	-0.20835
C	 1.4835827894	-2.719193266	 2.1800742718	-0.061544
O	 1.2851363033	-4.1151834012	 2.1315233039	-0.257614
C	 1.9094023361	-4.8597079553	 3.1711259575	 0.161047
C	 1.2397847747	-6.229859211	 3.1776024603	-0.386636
C	 3.4256407221	-4.9637712885	 2.9761907703	-0.392721
H	 0.9500240492	 1.6862655053	-0.3104331173	 0.101218
H	-0.7534278106	 1.6274718725	-0.8385583228	 0.12636
H	-0.3600552457	 1.8407902899	 0.8889082555	 0.101163
H	 1.7844934694	-0.2792146491	 0.864810737	 0.082386
H	 0.4809311821	-0.1203755113	 2.05594324	 0.082019
H	-0.4503746333	-2.3381334169	 1.3206381822	 0.114332
H	 0.8464756424	-2.4936383946	 0.1397377209	 0.115966
H	 2.5382154479	-2.4573260239	 1.9949288917	 0.085719
H	 1.2289123593	-2.3328561154	 3.1828357434	 0.081109
H	 1.7095122961	-4.3580976884	 4.1342449697	 0.060552
H	 1.4141072834	-6.7407919287	 2.2252435945	 0.122465
H	 1.6394217245	-6.8532851413	 3.9829494788	 0.110046
H	 0.1605573825	-6.1259255105	 3.3163482484	 0.11995
H	 3.9082193199	-3.9823975201	 2.992408595	 0.114696
H	 3.8723063217	-5.5642159707	 3.7751728341	 0.113245
H	 3.6509882686	-5.4416484012	 2.0171784091	 0.121456
