21
gdb 54139	2.31571	1.3963	1.1183	1.7641	79.98	-0.2394	-0.0129	0.2265	1204.0029	0.178287	-424.242213	-424.231666	-424.230722	-424.277136	39.317	
C	 0.1297227054	 1.2305766723	 0.6704888129	-0.488169
C	-0.0326052425	 0.0340786529	-0.2507653042	 0.330814
O	 0.8467865838	-0.2608842866	-1.0362517308	-0.319874
C	-1.3038008448	-0.7684090997	-0.1397259589	 0.168107
C	-2.5081846838	-0.0855620073	 0.4867035184	-0.477128
C	-1.5407397941	-1.7747232632	-1.2645305333	-0.375557
C	-1.1443862838	-2.2855504178	 0.0854079259	 0.377336
C	 0.1977849004	-2.9410526539	 0.3173385224	-0.463737
O	-2.1632387049	-2.8139619274	 0.8985764308	-0.459643
H	 1.1176139747	 1.665420267	 0.5166193824	 0.13885
H	-0.6377301555	 1.9855407402	 0.4702273604	 0.142073
H	 0.0133097122	 0.9318596357	 1.7180263825	 0.141099
H	-2.8005845184	 0.7978587373	-0.091671896	 0.114601
H	-3.3559216142	-0.7690837659	 0.5211813813	 0.137481
H	-2.3098240589	 0.2343912779	 1.514257245	 0.119692
H	-2.570307765	-1.9194795629	-1.5733228495	 0.109795
H	-0.7942258082	-1.780691915	-2.0508503782	 0.135057
H	 0.9817791111	-2.4770118953	-0.2803824568	 0.158901
H	 0.4704347885	-2.888981226	 1.376317581	 0.120724
H	 0.1404488467	-4.0009509978	 0.0389402392	 0.104755
H	-2.3031737187	-3.7281791245	 0.6279509452	 0.284826
