15
gdb 14002	4.28574	1.51024	1.30408	3.4509	66.55	-0.2505	0.0263	0.2768	936.5469	0.118959	-362.642043	-362.634781	-362.633836	-362.673928	26.586	
N	-0.0386569612	-1.1734597593	 0.1227312797	-0.34295
C	-0.0515563103	-0.0160880001	 0.0874033125	 0.289436
C	-0.013999607	 1.4137516158	 0.0352813399	-0.264295
C	 0.5572154099	 2.2152612677	 1.2160132326	-0.353128
C	 1.3346009992	 2.1195819481	-0.0400799401	 0.469302
C	 2.6961913583	 1.515058411	-0.3506167648	-0.359069
C	 2.799433841	 2.6916155989	-1.3473067253	-0.075612
O	 1.5152327569	 3.2178298452	-0.9129181009	-0.301802
H	-0.8189544011	 1.8844927312	-0.5189489665	 0.144131
H	 0.0600662887	 3.1546841724	 1.4305332678	 0.142347
H	 0.8984878077	 1.6584600386	 2.0817030031	 0.143674
H	 3.4086459889	 1.5472243516	 0.4752550592	 0.126326
H	 2.6789182228	 0.5133485181	-0.7814715991	 0.142937
H	 3.6039508102	 3.410387686	-1.1669205741	 0.118776
H	 2.7810674362	 2.4162636348	-2.4066744241	 0.119927
