18
gdb 126778	2.58087	1.32588	0.93416	2.9103	75.83	-0.1993	0.0403	0.2396	1256.99	0.148733	-435.291454	-435.282325	-435.281381	-435.325575	33.846	
C	-0.1346147897	 1.5560959279	-0.0788334399	-0.373878
C	 0.049433812	 0.0361199578	-0.0827062827	-0.1476
N	 0.7935297896	-0.4437978564	-1.2278525255	-0.003089
N	 0.1693929944	-0.5601985113	-2.4444386982	-0.395261
C	 1.1114712932	-1.0307969838	-3.2435488226	 0.45402
O	 0.8661196985	-1.2907376918	-4.5460954577	-0.433921
C	 2.3514062737	-1.2090033281	-2.5974119127	-0.425555
C	 2.0982378216	-0.8079333118	-1.2955175341	 0.402884
N	 2.9105782078	-0.8112993223	-0.1551492617	-0.609403
H	 0.8281642849	 2.0745543572	-0.0211447728	 0.111347
H	-0.637990917	 1.8748077636	-0.9950458127	 0.145424
H	-0.7409163442	 1.8644014214	 0.7786843375	 0.117108
H	 0.5802425885	-0.3014623204	 0.8124526637	 0.125409
H	-0.9254879589	-0.4600304037	-0.098563478	 0.128833
H	-0.0614991334	-1.0723546555	-4.7014262765	 0.298942
H	 3.2804573134	-1.557203163	-3.0157794698	 0.098008
H	 3.8355275984	-1.1609754039	-0.367432749	 0.255059
H	 2.9975193771	 0.1005682441	 0.2790884626	 0.251673
