14
gdb 46345	4.22478	0.75956	0.68033	3.7167	87.1	-0.2388	-0.0228	0.2161	1575.8248	0.099766	-399.512097	-399.503488	-399.502544	-399.546186	30.861	
O	-0.0811925793	 0.0020868517	 0.0242702717	-0.339603
C	-0.0677029729	 1.1978445778	 0.0140836925	 0.429842
N	-1.0378577847	 2.1578529119	-0.0829738087	-0.312927
C	-0.1574774036	 3.3206682939	 0.0270111957	-0.167087
C	 1.046896955	 2.3176134711	 0.0857511773	-0.384469
C	 1.8867517111	 2.339572127	 1.2537764388	 0.494676
C	 2.5872616669	 2.3503420252	 2.2413075001	-0.317633
C	 3.3715264844	 2.3653325586	 3.3519437362	 0.308717
C	 4.0688044449	 2.3811168877	 4.3378351513	-0.561822
H	-2.0411726423	 2.0767563558	-0.153384947	 0.260284
H	-0.1638038364	 3.9787189728	-0.8465868401	 0.123463
H	-0.2934286898	 3.9045781028	 0.9407030565	 0.132836
H	 1.6409273739	 2.323939103	-0.8335595331	 0.140055
H	 4.6813685527	 2.3902608608	 5.2050005789	 0.193666
