19
gdb 84713	2.69785	1.77404	1.29936	1.5728	75.16	-0.25	0.0088	0.2588	1014.003	0.161425	-423.041008	-423.033385	-423.032441	-423.07331	29.578	
C	 0.1404845427	 1.6123956959	 0.0074944807	-0.387037
C	 0.0680749108	 0.081144991	-0.0075921042	-0.054467
C	 0.7764240178	-0.56771669	-1.1762947794	-0.064018
C	 1.5591029613	-1.5843098345	-0.8205186798	-0.114723
C	 1.5523023527	-1.8097425382	 0.6708936045	 0.037279
O	 2.832103154	-1.6654465342	 1.2896853571	-0.250336
C	 2.9647346881	-0.2906746207	 1.5420823218	 0.013801
O	 1.6839300759	 0.1856430638	 1.9041147823	-0.254986
C	 0.7166113232	-0.6145909075	 1.2261422861	 0.057658
H	 1.1759231045	 1.9586643485	 0.0435040602	 0.12621
H	-0.33100494	 2.0250217195	-0.8904957665	 0.108315
H	-0.3766138893	 2.0213257285	 0.8804218377	 0.121278
H	-0.9941104947	-0.2036292063	-0.0352244488	 0.083669
H	 0.6217210291	-0.2272581813	-2.1959480546	 0.098258
H	 2.1488147528	-2.2017191479	-1.4881689475	 0.10216
H	 1.178043029	-2.7971380717	 0.9566440487	 0.091679
H	 3.6518923875	-0.148025431	 2.3812219347	 0.117185
H	 3.3360763837	 0.2430602513	 0.6502349716	 0.084361
H	-0.0328679891	-0.9082749951	 1.9657855256	 0.083714
