18
gdb 113346	2.34573	1.17579	0.8917	2.5225	75.64	-0.2503	0.0195	0.2698	1315.5584	0.145995	-439.011554	-439.001867	-439.000922	-439.046212	35.704	
O	 0.0672137724	 1.0162538742	-0.7691456227	-0.417092
C	 0.0631172548	-0.1301476052	 0.0705730721	-0.101611
C	-1.3386656905	-0.6852958495	 0.1979673994	-0.0496
N	-1.8552135353	-1.4811273914	-0.9317749765	-0.398932
C	-1.6892936871	-2.1303366646	 0.3955418159	 0.0762
C	-0.6570399272	-3.2703772216	 0.3936553092	-0.138323
O	 0.2734060993	-3.158211008	-0.6552954466	-0.41101
C	-2.8685936275	-2.4134388997	 1.1721500832	 0.249435
C	-3.8417181409	-2.6874053021	 1.8241348089	-0.403244
H	-0.1810475884	 0.7154749819	-1.6500995159	 0.287626
H	 0.7510159703	-0.9045815032	-0.2824298712	 0.123964
H	 0.4059365156	 0.2128923341	 1.0524746417	 0.11393
H	-2.0421192571	 0.018324576	 0.6389097846	 0.103286
H	-2.8351507767	-1.2803294951	-1.1096267925	 0.247239
H	-0.1037644691	-3.2745944124	 1.3387131144	 0.122624
H	-1.2157899661	-4.2173065681	 0.3341402837	 0.103758
H	-0.2303486615	-2.8170553022	-1.4092226213	 0.290611
H	-4.701811935	-2.9170253331	 2.4034854036	 0.201139
