23
gdb 116355	2.17728	1.37922	0.89633	1.4321	88.57	-0.2322	0.0273	0.2595	1372.9002	0.206145	-388.305996	-388.296491	-388.295547	-388.340219	36.18	
C	-0.0029287877	 1.5903034375	 0.0566923729	-0.391432
C	-0.0130939326	 0.0579601722	-0.0045049042	-0.186781
C	 0.7056054144	-0.5323059577	-1.2367673067	-0.089524
C	 2.1795936045	-0.0973278709	-1.2713487431	-0.087377
O	 2.9179907199	-0.7703222676	-2.2709900137	-0.248422
C	 3.0112044264	-2.156798523	-2.0162400684	-0.124328
C	 1.6937399494	-2.7691607677	-1.6361110032	-0.177413
C	 0.619418644	-2.0512377241	-1.3016934703	 0.321379
C	-0.7076177813	-2.7070745956	-1.0211559976	-0.484405
H	 1.0056133823	 1.9940377665	 0.1867004567	 0.122651
H	-0.4192644886	 2.0247326882	-0.8593358352	 0.116095
H	-0.6068365678	 1.9472475899	 0.8966945441	 0.113074
H	 0.4437233957	-0.3510908143	 0.9069918828	 0.097317
H	-1.053868189	-0.2817632696	-0.0015820663	 0.100815
H	 0.2081067188	-0.1269559135	-2.1326544398	 0.081769
H	 2.2701980226	 0.9675151407	-1.4991008673	 0.106225
H	 2.6316183653	-0.2697369788	-0.277925259	 0.081192
H	 3.3900695329	-2.6122258142	-2.9393505829	 0.113018
H	 3.7677589279	-2.3556364799	-1.2328321191	 0.091238
H	 1.6411649583	-3.8555191455	-1.6686172525	 0.079413
H	-0.6617134174	-3.7818207685	-1.2160074543	 0.117484
H	-1.0285354204	-2.5675707535	 0.0176024551	 0.126542
H	-1.4999852775	-2.2836053607	-1.6522726282	 0.12147
