19
gdb 80491	2.166	1.43788	1.23407	1.9875	83.68	-0.2341	0.034	0.2681	1141.7231	0.157571	-385.828733	-385.819551	-385.818607	-385.862106	35.317	
C	-0.0559978356	 1.5613308192	 0.0003855937	-0.443297
C	 0.0935014154	 0.0537830016	 0.0820416885	-0.049218
C	 1.3311599621	-0.7263504916	-0.227175613	-0.123527
C	 2.5918251451	-0.010936714	 0.2607650106	-0.287423
C	 2.0425303869	-0.0821707559	 1.7281428886	 0.091184
O	 1.9897671242	 1.0597050114	 2.5434888735	-0.436264
C	 0.7386529947	-0.7295180484	 1.2190099038	 0.111593
C	 0.0367358331	-1.7548077385	 1.9132349394	 0.177109
C	-0.5440660041	-2.6178190799	 2.520317466	-0.411774
H	 0.8703416937	 2.09937913	 0.218152958	 0.11906
H	-0.3600316532	 1.8552059559	-1.0102521801	 0.126927
H	-0.8289614852	 1.9160129616	 0.6910794519	 0.128787
H	-0.8020528892	-0.466727411	-0.250603112	 0.103696
H	 1.3219764726	-1.5606324314	-0.917318158	 0.103161
H	 3.5053377443	-0.5943778847	 0.1325405467	 0.110342
H	 2.7649049236	 0.9917320958	-0.1404821305	 0.10315
H	 2.6128626771	-0.8186210508	 2.2984376526	 0.10613
H	 1.3296363325	 1.6621224322	 2.1897159387	 0.286333
H	-1.0548415679	-3.3793382713	 3.0550382915	 0.184029
