25
gdb 101683	2.75393	0.77935	0.72073	1.4692	86.87	-0.2439	0.0772	0.3211	1766.3282	0.224938	-426.61517	-426.603091	-426.602147	-426.65407	42.136	
C	 1.3698788496	 1.1712134488	 0.8434738279	-0.234559
O	 1.1101646721	-0.138391497	 0.4015885199	-0.248256
C	 0.2217849265	-0.2283117434	-0.7107107601	 0.134946
C	 0.9393991881	 0.1070509728	-2.0210670589	-0.40226
C	-0.3347808688	-1.6545962786	-0.6690197609	-0.207211
C	-1.4152442637	-1.9641942245	-1.7052844558	 0.128907
C	-1.9257306691	-3.4018246745	-1.5649614244	-0.402402
O	-2.4548294364	-1.0081338001	-1.5147699342	-0.243334
C	-3.3703846839	-0.902741883	-2.5784148899	-0.233616
H	 1.920848567	 1.7724950539	 0.1044077875	 0.101339
H	 0.4413897784	 1.7080259812	 1.0955936985	 0.101772
H	 1.9840875171	 1.091671221	 1.7445924331	 0.122731
H	-0.6122029188	 0.4738391117	-0.565912776	 0.079785
H	 1.7443330866	-0.6106430263	-2.2118150888	 0.116328
H	 0.2446527057	 0.0861810761	-2.8659090756	 0.117538
H	 1.3773222065	 1.1087192074	-1.9869331733	 0.113866
H	 0.4939476025	-2.3612671539	-0.7962111205	 0.098581
H	-0.7468486899	-1.8226528665	 0.3321441083	 0.10644
H	-1.0013640869	-1.836886442	-2.7201188532	 0.062928
H	-2.6821933703	-3.6393638651	-2.318189142	 0.113329
H	-1.1024129073	-4.1123440491	-1.6886980458	 0.116485
H	-2.3668486928	-3.5518194592	-0.5744983349	 0.123884
H	-4.0309974306	-0.0616388628	-2.3520062473	 0.125627
H	-2.8623508215	-0.7041540519	-3.5358133785	 0.100528
H	-3.9885730502	-1.803957725	-2.7004038251	 0.106627
