21
gdb 87231	3.20296	0.98601	0.90574	0.9503	84.49	-0.2443	0.0351	0.2794	1401.7392	0.178805	-387.03311	-387.022766	-387.021822	-387.06873	38.378	
C	 0.0495353189	 1.2771843872	-0.2649645623	-0.418409
C	-0.2946052651	-0.0073188365	 0.4546881748	-0.041325
C	 0.4106075829	-1.314456141	 0.14688405	-0.339537
C	 0.5834273764	-0.6496300853	 1.4943100269	 0.431858
C	 1.9126049381	-0.0566867061	 1.9043396187	-0.467728
O	-0.1847743466	-1.1725432471	 2.5600725138	-0.282179
C	 0.3976739459	-2.2163649974	 3.3224023195	-0.231963
C	 0.6235712983	-3.4736123155	 2.6025513535	 0.320117
C	 0.8141078988	-4.5227356995	 2.0476070828	-0.473398
H	 1.108981945	 1.3288679034	-0.5331690001	 0.113771
H	-0.5219892691	 1.3569093888	-1.1962643422	 0.119566
H	-0.1844377715	 2.1572944968	 0.3445089187	 0.118693
H	-1.3501005601	-0.1187863802	 0.6882887134	 0.095604
H	-0.1811639168	-2.2197891872	 0.1081213091	 0.122781
H	 1.2522214188	-1.2896757567	-0.5392748738	 0.102907
H	 2.3876419718	 0.4547696037	 1.0646096099	 0.121741
H	 1.778408292	 0.6685892747	 2.7143377097	 0.12223
H	 2.6125454536	-0.827447113	 2.2442638463	 0.123118
H	 1.3424807578	-1.8936700912	 3.7830851536	 0.122471
H	-0.3084860951	-2.3930346242	 4.1409989526	 0.139009
H	 0.9827363859	-5.4463185137	 1.5511667251	 0.200673
