20
gdb 55691	3.27584	0.99689	0.97577	4.6652	74.94	-0.2381	0.0237	0.2618	1310.4376	0.169499	-440.302681	-440.292733	-440.291789	-440.338489	35.714	
C	-0.3356991574	 1.6973269509	-0.7319243815	-0.46345
C	-0.0987051203	 0.2765667663	-0.2216765003	 0.326123
C	-1.3970203694	-0.5195026555	-0.0980376515	-0.406884
C	-2.330438954	 0.0278022807	 0.9827574967	 0.419864
N	-3.632065993	-0.3659077189	 0.8728940171	-0.521931
O	-1.9452022279	 0.7484204657	 1.8852962901	-0.356547
C	 1.0605332309	-0.4510377059	-0.9521819011	-0.127955
O	 1.9351392946	-0.2987860351	 0.1786031367	-0.277866
C	 0.8556550419	 0.2064873682	 0.997500799	-0.099662
H	 0.613506477	 2.2339321629	-0.8259891411	 0.123148
H	-0.8136648226	 1.6869658643	-1.7190082467	 0.104296
H	-0.9747656152	 2.2542877716	-0.0418457172	 0.141671
H	-1.9210122847	-0.5552371518	-1.0620551462	 0.106697
H	-1.1716843133	-1.56112372	 0.168462013	 0.126977
H	-3.9399640495	-1.0139958898	 0.1696329133	 0.259627
H	-4.2695393442	-0.1126406623	 1.6101630364	 0.262048
H	 0.8683261136	-1.509111352	-1.184990847	 0.082912
H	 1.4520723373	 0.0421970606	-1.8508665671	 0.095689
H	 1.1050513487	 1.1607652384	 1.4718351473	 0.108129
H	 0.5607075776	-0.5090714282	 1.7738915401	 0.097114
