17
gdb 80816	2.01256	1.68254	1.23937	2.5294	76.15	-0.2464	0.048	0.2944	1073.8078	0.134196	-421.73285	-421.724131	-421.723187	-421.765812	33.489	
O	-0.0310378493	 1.4590458359	-0.0312582602	-0.442317
C	 0.0294041754	 0.0591259784	 0.0169788253	 0.11912
C	-0.0271051108	-0.660321369	 1.4050834203	-0.1867
C	-1.4937707666	-0.1598173681	 1.5216717613	-0.275748
C	-1.3618637657	-0.6568619945	 0.0382457562	 0.214243
C	-2.3645340981	-0.6593643433	-0.9853908816	 0.051655
C	-3.2055575472	-0.6609279529	-1.8453256078	-0.366592
C	-0.6145970018	-1.8851372096	 0.6384318075	 0.104699
O	 0.1811588257	-2.607286176	-0.2634785076	-0.439248
H	 0.8609508808	 1.7941930197	-0.1554283703	 0.288502
H	 0.7450148195	-0.3467222114	-0.7005070636	 0.09386
H	 0.732884283	-0.6691562193	 2.1864461707	 0.071974
H	-2.1669270296	-0.7373341453	 2.1604495664	 0.094344
H	-1.6281679614	 0.9120644535	 1.6416428039	 0.13003
H	-3.9464831409	-0.6610215391	-2.6056676447	 0.175959
H	-1.2532112301	-2.5435877654	 1.2394619171	 0.077942
H	 0.6522009772	-3.2871541536	 0.227640497	 0.288276
