15
gdb 131062	4.02248	1.05251	0.89514	3.494	66.85	-0.2579	-0.0067	0.2512	1235.9662	0.115438	-450.153378	-450.145398	-450.144454	-450.187391	27.912	
O	 0.8098618079	 0.7946441177	 1.3804046019	-0.327287
C	 0.3754115825	 1.3743525206	 0.4055877658	 0.161092
N	 1.0636554672	 1.5621801667	-0.7499461789	-0.263043
C	 2.4511245763	 1.1268987455	-0.8899074107	-0.291872
C	 3.4461011171	 2.0910695264	-0.3157015329	 0.306232
N	 4.2478336469	 2.8242797614	-1.0932504592	-0.269675
N	 4.9511106783	 3.5325653105	-0.2199540379	-0.071868
N	 4.6837235885	 3.3311645726	 1.0640506961	-0.191658
C	 3.7210896258	 2.4108490549	 1.0284857076	-0.122073
H	-0.646846486	 1.7975844155	 0.3577499341	 0.083843
H	 0.6712354988	 2.1671339989	-1.4536696495	 0.255129
H	 2.5319511069	 0.1629699821	-0.3813874313	 0.153265
H	 2.6642390371	 0.980432338	-1.9507214307	 0.131233
H	 5.6616947809	 4.1819750365	-0.5159185185	 0.293336
H	 3.265835942	 2.0243458227	 1.925518904	 0.153347
