16
gdb 10377	2.78848	1.93266	1.41636	2.1733	71.54	-0.2507	-0.0301	0.2206	916.4734	0.128463	-346.568372	-346.560251	-346.559307	-346.601034	29.705	
O	-0.1192145656	 0.0783610055	-0.3648733694	-0.246634
C	 0.0342123076	 1.1850712696	 0.0795437339	 0.112097
C	 1.3491414058	 1.9591601225	 0.0398406924	 0.065533
C	 2.5163195273	 1.1275625108	-0.5800788174	-0.255546
C	 2.2119758432	 1.7553900219	-1.9650035764	-0.216177
C	 1.3633258742	 2.849853936	-1.2707317992	-0.260541
C	 1.5562143226	 2.6388239595	 1.3018001862	 0.210259
C	 1.7082364573	 3.1959380569	 2.3572437615	-0.409906
H	-0.805030005	 1.7543754612	 0.535063313	 0.092848
H	 3.4796334763	 1.4379347564	-0.172676718	 0.113712
H	 2.4018043294	 0.0472324393	-0.4876275751	 0.129005
H	 3.0651799803	 2.1029047012	-2.5497056458	 0.106295
H	 1.6048755529	 1.0941380366	-2.5864265639	 0.124418
H	 0.3886237336	 3.0981766754	-1.6990954274	 0.113981
H	 1.9152815317	 3.7738217464	-1.0895132865	 0.123707
H	 1.8561163584	 3.6887686208	 3.2863023621	 0.196948
