17
gdb 48535	2.98893	1.493	1.45591	3.1407	78.21	-0.2327	-0.0236	0.2091	978.6979	0.137321	-384.675067	-384.668133	-384.667189	-384.706473	27.739	
O	-0.1837880279	 0.0324506813	-0.0555716111	-0.275328
C	-0.0154150218	 1.2262307345	 0.043034445	 0.023702
C	 1.2764791895	 1.8984369542	-0.0478037748	 0.295167
C	 1.8494708549	 3.0122462169	 0.8432025397	-0.122264
C	 3.1313725661	 2.2028184975	 1.0214243886	-0.225021
C	 2.7092099351	 1.311608181	-0.2147820027	-0.173965
C	 3.2539469447	 1.9920790241	-1.451454836	-0.083643
C	 2.6081429435	 3.1472869498	-1.6390542979	-0.081237
C	 1.5236854936	 3.2896421509	-0.6212610473	-0.138813
H	-0.8698122106	 1.919611163	 0.2294594965	 0.060857
H	 1.330706781	 3.5602366028	 1.6212218912	 0.102394
H	 4.090786652	 2.7249741502	 0.9537306804	 0.100623
H	 3.0842561429	 1.6273221572	 1.9485233338	 0.116119
H	 2.8479264795	 0.2372074137	-0.123784528	 0.09561
H	 4.128305652	 1.6476834922	-1.9893697022	 0.103555
H	 2.8333620801	 3.9095954071	-2.3737254558	 0.10472
H	 0.6725561455	 3.9407054136	-0.7891136793	 0.097524
