19
gdb 119219	1.99619	1.27416	0.87961	2.6617	79.83	-0.2557	0.0283	0.284	1387.1086	0.154667	-422.95672	-422.946307	-422.945363	-422.992586	36.74	
C	-0.2899554286	 1.3802839524	-0.1035244815	-0.223023
O	-0.2786247299	-0.0228854949	-0.2119709527	-0.225367
C	 0.8100697326	-0.5027586688	-0.9621699615	-0.133334
C	 0.7575855559	-2.0165250125	-0.9683015496	 0.156188
O	-0.1097168669	-2.6174415186	-1.9509904209	-0.27773
C	 1.2932905667	-2.8162620616	-2.1005501722	 0.039418
C	 1.9678935911	-2.2610431662	-3.3299357137	-0.431813
C	 0.7305498561	-2.6293247155	 0.3413950629	 0.311744
C	 0.7414132359	-3.1438365444	 1.4271926076	-0.438252
H	 0.6175353514	 1.7587498355	 0.3936705855	 0.104429
H	-0.3696266388	 1.8668436346	-1.0887486407	 0.104715
H	-1.1616246804	 1.6522643209	 0.4958321131	 0.132507
H	 0.7684804922	-0.1243906282	-1.9930567923	 0.094225
H	 1.7659628527	-0.1756584275	-0.5169728291	 0.093777
H	 1.6179590876	-3.8230309534	-1.8308753427	 0.097827
H	 1.6052548506	-1.2655782035	-3.5897078522	 0.132083
H	 3.0520665644	-2.2165304068	-3.1818247521	 0.12897
H	 1.7751383952	-2.9220460918	-4.181485459	 0.13584
H	 0.7341298823	-3.5945463396	 2.3887595512	 0.197795
