18
gdb 46046	4.40094	0.98188	0.89228	4.425	71.87	-0.2388	0.0352	0.274	1295.0793	0.149288	-439.107263	-439.099178	-439.098233	-439.14053	30.187	
O	 0.0775026029	 0.0183142977	-0.1832804821	-0.376141
C	 0.0069970318	 1.2156986758	-0.0216187663	 0.40069
C	-1.252828848	 2.086717632	-0.0310590438	-0.347904
C	-0.7945636636	 3.4466344513	 0.5357378157	-0.025062
C	 0.7212379731	 3.4755618612	 0.2199692249	-0.196218
N	 1.0627574858	 2.0646814689	 0.1886483146	-0.306411
C	-1.5853942706	 4.619356342	 0.003090161	 0.07726
C	-1.0150337817	 5.9431498562	-0.2751498767	-0.188225
O	-1.31952504	 5.0351922984	-1.3387051573	-0.230753
H	-1.5824420727	 2.1848567898	-1.0721624403	 0.144428
H	-2.0585083946	 1.6118770294	 0.531060944	 0.129536
H	-0.9197598024	 3.4293478492	 1.6253011439	 0.093317
H	 0.9016921259	 3.9616007128	-0.7481816918	 0.126216
H	 1.2927305965	 4.00604235	 0.9881399732	 0.111161
H	 2.00614293	 1.7294319152	 0.0734102595	 0.250962
H	-2.6498560741	 4.5792680452	 0.2424313792	 0.098663
H	-1.6494825824	 6.8261925353	-0.2194841495	 0.121126
H	 0.0452187241	 6.1269150396	-0.1095592783	 0.117357
