16
gdb 37272	3.72386	2.01967	1.9286	3.1297	68.47	-0.2361	0.0575	0.2936	771.5338	0.12731	-400.651633	-400.646249	-400.645305	-400.681037	23.705	
O	-0.0382408563	 1.4240600404	-0.0069142958	-0.236028
C	 1.2641801492	 0.8250077019	 0.0250875531	 0.01672
C	 0.0432237321	-0.0034570218	 0.0440638747	 0.036378
C	 0.0061081795	-0.7082316466	-1.3144196631	-0.026191
C	 1.468036652	-0.8486603467	-1.8141404903	-0.103824
C	 0.9763759893	-0.2631447873	-3.1732730471	-0.070285
C	 0.9839048061	 1.064668896	-2.5192205576	-0.033187
C	 1.8783710801	 0.5996543312	-1.3551921564	-0.079849
N	-0.2582812923	 0.2164828638	-2.4853749824	-0.132486
H	 1.8653970545	 1.0527783944	 0.9007498217	 0.098183
H	-0.3746563158	-0.4658199428	 0.9342177701	 0.098631
H	-0.6377831342	-1.585739026	-1.3749325083	 0.077168
H	 2.1003067519	-1.7149744377	-1.6281020951	 0.075374
H	 1.0075357003	-0.585668362	-4.2040974272	 0.101381
H	 0.8748616318	 2.0570335842	-2.9345640214	 0.102621
H	 2.9324328517	 0.8525117691	-1.4679044248	 0.075394
