19
gdb 113419	4.85817	0.82645	0.77659	2.5245	77.11	-0.2453	-0.0286	0.2167	1503.926	0.156194	-423.020332	-423.011184	-423.01024	-423.054962	33.799	
C	-0.5920009654	 1.4691900014	 0.3815566028	-0.374875
C	 0.2220012916	 0.27129361	-0.1227379971	-0.211972
C	 1.0313788622	-0.3690068448	 0.977439118	-0.029296
O	 0.2999453812	-1.1535721827	 1.9434729572	-0.290832
C	 1.2270337797	-1.8142095708	 1.1024053596	 0.421089
C	 0.8366556761	-2.9501040708	 0.138779513	-0.433736
C	 2.1291811983	-3.6672926128	 0.5826875489	 0.404431
O	 2.6925535447	-4.6553650145	 0.2159657146	-0.285837
C	 2.439195944	-2.5923625189	 1.6445517546	-0.436418
H	 0.060631084	 2.2477435637	 0.7910913181	 0.117433
H	-1.1780735773	 1.9149640638	-0.4271015923	 0.116739
H	-1.2806571162	 1.158031177	 1.1723992648	 0.136346
H	-0.447058658	-0.479643337	-0.5568227548	 0.106476
H	 0.9071120839	 0.5898670365	-0.9193930884	 0.10311
H	 1.7866509736	 0.2762318641	 1.4335412125	 0.09076
H	-0.0714916086	-3.4834871907	 0.4393342441	 0.146731
H	 0.7716284839	-2.7164567613	-0.9276493411	 0.136378
H	 3.4235003463	-2.1216213852	 1.5708425468	 0.135993
H	 2.2961361161	-2.955132617	 2.6683152488	 0.147478
