16
gdb 49577	2.05951	1.64823	1.09893	4.7868	72.73	-0.2561	-0.0418	0.2143	1101.0756	0.124111	-400.734578	-400.726496	-400.725551	-400.768078	29.437	
O	 0.1080146518	-0.1677461691	 0.0491089285	-0.244349
C	 0.0180991139	 1.030317967	-0.03532382	 0.155156
C	 1.2139111006	 1.95476374	 0.0038976968	-0.107426
C	 1.4342953911	 2.8816655224	-1.2073110778	-0.063779
C	 0.3586969058	 3.9292321398	-1.3192789637	-0.293123
C	 1.4513003411	 4.119888175	-0.3123804583	-0.047765
C	 1.1922752559	 3.2442969232	 0.9293027344	-0.197037
C	-0.014182031	 3.5277484033	 1.6980896778	 0.286873
N	-0.9843150319	 3.7502172092	 2.2866628196	-0.328804
H	-0.9677679417	 1.5228698396	-0.1725138827	 0.096264
H	 2.0949954887	 1.3517600287	 0.2274518581	 0.11147
H	 2.0815579976	 2.6336735679	-2.0383023358	 0.111836
H	 0.43775143	 4.5593443497	-2.1986753856	 0.13165
H	-0.6627577753	 3.7460485252	-1.0008280794	 0.137846
H	 2.1184617915	 4.971348085	-0.3192609664	 0.112108
H	 2.0458061318	 3.217538573	 1.6092336145	 0.139079
