18
gdb 65829	3.30584	1.10166	1.07146	3.3881	78.04	-0.242	0.0297	0.2718	1197.521	0.147178	-401.966783	-401.957926	-401.956982	-402.000092	33.811	
C	 0.2665663702	 1.2993078837	 0.0556208314	-0.427652
C	-0.1430102192	-0.188717549	-0.0006974138	 0.08121
C	 0.5907191172	-0.8986890832	-1.1872773859	-0.196086
N	 1.83405535	-1.3294815258	-0.5802664628	-0.303497
C	 1.8005625213	-1.4503259084	 0.7846628335	 0.397143
O	 2.6869762777	-1.8841548889	 1.4848346098	-0.37613
C	 0.4238179129	-0.9480837475	 1.2302854776	-0.362924
C	-1.5920415245	-0.3062380696	-0.1242800213	 0.283367
C	-2.7863912297	-0.3957952551	-0.2278680903	-0.443212
H	 1.3555674661	 1.389620237	 0.1140528474	 0.129924
H	-0.0817396964	 1.830196776	-0.834433379	 0.126456
H	-0.1693398104	 1.7826487243	 0.9338089669	 0.131082
H	-0.0040184803	-1.7419513281	-1.5613227343	 0.117684
H	 0.7633816678	-0.2074678397	-2.0180103908	 0.118887
H	 2.6013071773	-1.7194252014	-1.1044151629	 0.253505
H	 0.5034642613	-0.326633217	 2.1236668101	 0.135042
H	-0.1920514465	-1.8174503693	 1.4811668973	 0.138757
H	-3.8416429947	-0.477168618	-0.3155751831	 0.196444
