16
gdb 52001	7.10463	0.58161	0.54868	4.713	70.03	-0.2596	-0.0413	0.2183	1877.401	0.12126	-475.078801	-475.069023	-475.068079	-475.115767	32.242	
O	-0.4141548586	 0.0336574549	-0.196963516	-0.234259
C	-0.0906065452	 1.1818627299	-0.0442314307	 0.157879
C	 1.3119246578	 1.7197137966	-0.20337326	-0.265491
C	 1.3602944554	 2.9125777463	-1.1640525412	-0.357655
C	 2.6395642775	 3.7345427547	-0.9848493731	 0.447264
O	 3.3206075858	 3.6918152253	 0.0057609	-0.294579
N	 2.9153360971	 4.5617665495	-2.0826189947	-0.355747
C	 3.960074925	 5.476953977	-2.2247597707	 0.167772
O	 4.8126590624	 5.7177461858	-1.4188759851	-0.244134
H	-0.8427470697	 1.9562090646	 0.2433006913	 0.071152
H	 1.6623369761	 2.0680660529	 0.7772678823	 0.157248
H	 1.972659394	 0.9120126393	-0.5267346486	 0.133593
H	 1.2585586098	 2.5842043407	-2.2048841548	 0.12719
H	 0.5152334962	 3.5904250741	-0.9723026179	 0.141697
H	 2.2846855681	 4.4999061978	-2.8689319599	 0.257959
H	 3.8959897182	 5.9707467709	-3.2160516009	 0.09011
