16
gdb 71532	2.61507	1.56577	1.42337	0.9092	76.5	-0.2404	0.0159	0.2563	993.7812	0.122062	-400.604414	-400.596523	-400.595579	-400.63654	30.79	
C	 0.0426475926	 1.4566928679	-0.0730193713	-0.530274
C	 0.0362792804	-0.0315967468	-0.0219721239	 0.442892
O	 0.6122753131	-0.8141967963	-1.1102391657	-0.350487
C	 0.1248151397	-1.8315719959	-0.1997229289	 0.029382
C	 0.4836618493	-1.0344593137	 1.0904075748	-0.134417
N	-0.8861866011	-1.0733315712	 1.6924204616	-0.381235
C	-1.1709399534	-1.0312221436	 0.2143656533	 0.206005
C	-2.4742027825	-1.0426039503	-0.366075786	 0.067095
C	-3.5668286979	-1.0545225427	-0.8694424758	-0.382943
H	 1.06753008	 1.8350942763	-0.133613117	 0.137608
H	-0.5137532596	 1.8120274265	-0.945196362	 0.143637
H	-0.4283970782	 1.8511600506	 0.8318521642	 0.149811
H	 0.2473628948	-2.8828407883	-0.4631171685	 0.102699
H	 1.4035472499	-1.0404583417	 1.6736307991	 0.095216
H	-1.0903187066	-2.0067531033	 2.0584441175	 0.217317
H	-4.5322011907	-1.0623558775	-1.3122538613	 0.187693
