19
gdb 79475	2.19025	1.88855	1.20858	0.6086	87.31	-0.2499	0.041	0.2909	1080.8821	0.158542	-348.652449	-348.644425	-348.643481	-348.68462	32.112	
C	-0.1605869359	 1.5971754039	-0.0009963236	-0.424166
C	-0.0329853719	 0.0829580477	 0.0005382065	-0.057817
C	 1.1868436059	-0.5915768351	-0.661776764	-0.084971
C	 2.135039368	-0.3000389848	 0.5546261295	-0.088115
C	 2.5799470221	-1.7706509772	 0.6576855054	-0.275272
C	 1.0930854528	-1.849284391	 0.268133363	-0.084381
C	 0.7105239574	-0.6126761379	 1.1754109622	 0.282773
C	 0.3648593212	-0.6368758837	 2.5640075971	 0.091175
C	 0.0603291334	-0.6435570922	 3.7289315424	-0.384545
H	 0.79176595	 2.0845512489	 0.2313858254	 0.115361
H	-0.4919361417	 1.9605340286	-0.9799794095	 0.115275
H	-0.8946048375	 1.9276704345	 0.7416067453	 0.12448
H	-0.9915047989	-0.3926867762	-0.2429562477	 0.067984
H	 1.4842960027	-0.5990828039	-1.7109265649	 0.071385
H	 2.7161272122	 0.6050398516	 0.7315228696	 0.079524
H	 3.2994806252	-2.1156159607	-0.0912644155	 0.093156
H	 2.8488813211	-2.1348110017	 1.6533170962	 0.104711
H	 0.4572325919	-2.7214573301	 0.108991168	 0.076802
H	-0.2053404179	-0.6519868106	 4.7568285644	 0.176641
