19
gdb 83286	2.72448	1.46811	1.29215	2.2068	70.88	-0.2171	0.0632	0.2803	1068.8099	0.159306	-460.127276	-460.118985	-460.118041	-460.159878	32.185	
C	 0.0534141789	 1.5102138586	 0.0059007695	-0.406371
C	 0.0634856692	-0.0071262711	-0.0525036596	 0.107188
C	 0.6187641772	-0.5427198965	-1.3674659266	-0.07325
O	 0.6445463444	-1.9647436564	-1.406885842	-0.26279
C	 0.9572195873	-2.6166754314	-0.215148953	 0.053561
C	 2.2649076294	-2.430651527	 0.5327282035	 0.0572
O	 3.2059906432	-1.5091901093	 0.0815762848	-0.425957
C	 0.9668089895	-1.8701006187	 1.0987459135	-0.041776
O	 0.8876377705	-0.4709324282	 1.0310991862	-0.280255
H	 1.0580021144	 1.9118185116	-0.1601316847	 0.12524
H	-0.6142340503	 1.9194172142	-0.7578740568	 0.123967
H	-0.2919561672	 1.8471181063	 0.9864859105	 0.132607
H	-0.9536183767	-0.4018247641	 0.0914891576	 0.08422
H	-0.0179637334	-0.2312618971	-2.2015955824	 0.109822
H	 1.6279341823	-0.1398095311	-1.5264478981	 0.108551
H	 0.5347108744	-3.6170227239	-0.2173731916	 0.107607
H	 2.7010208808	-3.3076580057	 1.0061410167	 0.095491
H	 2.9550329554	-0.6588565237	 0.4704118857	 0.288629
H	 0.5063771107	-2.2880753165	 1.9912265966	 0.096316
