19
gdb 47716	2.47865	1.77914	1.17714	2.9334	77.48	-0.2293	0.0236	0.2529	1069.6143	0.161846	-419.200073	-419.192202	-419.191258	-419.232568	31.001	
N	-0.0543475239	 1.2529943686	 0.3670256757	-0.52917
C	-0.0291988068	 0.041326967	-0.0059084287	 0.338765
O	 1.1562941031	-0.5668344998	-0.3115415604	-0.260412
C	 1.1897468696	-1.8274312172	-0.9949975349	-0.070802
C	 0.021211602	-2.7233561161	-0.6112776031	-0.192629
N	-1.2496725072	-2.0279971969	-0.7918610886	-0.354459
C	-1.2716831019	-0.8010090111	-0.0268740998	 0.248913
C	-2.0614479636	-0.8452394062	 1.2788039363	-0.264992
C	-2.601976005	-0.1075668103	 0.0902685479	-0.313056
H	 0.8912009668	 1.6388652708	 0.3718603087	 0.215897
H	 1.1759779996	-1.6380314051	-2.0785219695	 0.101949
H	 2.1563805041	-2.2739437316	-0.7415230478	 0.116324
H	 0.0374584205	-3.63487504	-1.2179138292	 0.108487
H	 0.1033899328	-3.0198491617	 0.4410599442	 0.121588
H	-1.3828001486	-1.8178718014	-1.7784540704	 0.218624
H	-2.5022245189	-1.8040015069	 1.5260599973	 0.118651
H	-1.6771261214	-0.2608183652	 2.1054263379	 0.132894
H	-2.5773151926	 0.9743359217	 0.1095190893	 0.1492
H	-3.4210168988	-0.5632479387	-0.4547977648	 0.114227
