18
gdb 32599	2.85207	1.2124	0.91464	2.0777	75.23	-0.1683	0.0628	0.2311	1279.0477	0.146518	-439.112079	-439.102407	-439.101463	-439.146864	35.199	
C	-0.1140003108	 1.5386140274	 0.0272874069	-0.373087
C	 0.0499270625	 0.016071836	 0.0102513421	-0.153075
N	 0.6941674093	-0.4785386867	-1.1942339104	-0.039982
C	 0.0440914017	-0.8384303588	-2.3777175902	-0.21244
C	 1.0108809978	-1.1651119538	-3.2912194409	 0.329035
O	 0.7534534423	-1.589101906	-4.5648920775	-0.450749
C	 2.2917489043	-0.9954644496	-2.6799195422	-0.464113
C	 2.0348439189	-0.5678257574	-1.3944721533	 0.397567
O	 2.8540034717	-0.2312699899	-0.3612756641	-0.445828
H	 0.8622606903	 2.0299190805	-0.0067316233	 0.134362
H	-0.6999430339	 1.876360604	-0.8324048928	 0.128181
H	-0.626892253	 1.8550805656	 0.9413070695	 0.114208
H	 0.6450351957	-0.3085303494	 0.8680990413	 0.129202
H	-0.9250359149	-0.4754660373	 0.0847286499	 0.115433
H	-1.0296788488	-0.8464228965	-2.4453437475	 0.111578
H	 1.5926071592	-1.7479589448	-5.0051059589	 0.293166
H	 3.2614059133	-1.1708614382	-3.1215707308	 0.07993
H	 3.7597508443	-0.420437395	-0.6223236379	 0.306613
