21
gdb 89466	2.19607	1.50063	1.39335	2.0996	78.15	-0.2337	0.076	0.3097	1103.6568	0.180178	-424.200848	-424.191144	-424.190199	-424.234921	36.901	
C	 0.1600906747	 1.6571400883	-0.0483190101	-0.425189
C	 0.0543700171	 0.1424249817	 0.0454374928	-0.011091
C	 0.8855036928	-0.7539080951	-0.928252456	-0.324397
C	 1.237326604	-1.7188416231	 0.2506231962	 0.38837
O	 0.6748230588	-2.9956476453	 0.2066675068	-0.484322
C	 2.6548674501	-1.5284885805	 0.8304030546	-0.287294
C	 2.1360028786	-0.2883792318	 1.6247934457	-0.297958
C	 0.6627851159	-0.6425158343	 1.2354957966	 0.361326
O	-0.1775015785	-1.0267488561	 2.2844737457	-0.482922
H	 1.2008936204	 1.996897097	-0.016766445	 0.113924
H	-0.2735202827	 2.0224648066	-0.9857599602	 0.117559
H	-0.3764432085	 2.1473580332	 0.7726368249	 0.108675
H	-0.9966218386	-0.1612485068	-0.011901305	 0.085483
H	 0.3069653468	-1.2249862589	-1.7260778794	 0.099509
H	 1.754151373	-0.2528725352	-1.3673879062	 0.090776
H	 1.0567975497	-3.4660451562	-0.5428286344	 0.27549
H	 2.9134588282	-2.3561679488	 1.495503382	 0.109104
H	 3.4722909474	-1.3649685556	 0.1217695891	 0.08732
H	 2.3071043956	-0.3450414506	 2.7016648563	 0.103475
H	 2.49767577	 0.6763089183	 1.2617627987	 0.096611
H	-0.2932344949	-0.269858707	 2.869687507	 0.275554
