15
gdb 131399	3.17306	1.40129	1.0515	2.6643	68.04	-0.2278	-0.0043	0.2235	1096.7253	0.114681	-450.090926	-450.083272	-450.082328	-450.124211	28.233	
O	 0.3873545889	 1.2947131785	-0.065080361	-0.417608
C	 0.1590169997	-0.0279946586	-0.0441375578	 0.33116
N	 0.1920372569	-0.7799540879	-1.1352757992	-0.271406
N	-0.0867424245	-1.9959752249	-0.6510278858	-0.089621
N	-0.2952403022	-2.0901812489	 0.6538203448	-0.275329
C	-0.1429806697	-0.8334271726	 1.0732241702	 0.239469
N	-0.2524076798	-0.340714136	 2.384261034	-0.216073
C	-1.249864695	-0.9649445225	 3.2717697206	-0.217846
C	 0.1966006199	-1.2116454063	 3.4852204764	-0.217843
H	 0.3034187676	 1.5950643619	 0.8506552054	 0.307226
H	-0.1343753746	-2.7983864629	-1.2550651453	 0.293776
H	-1.7874711184	-0.2721078447	 3.9120554903	 0.124367
H	-1.8385638814	-1.7739165563	 2.8503341276	 0.142676
H	 0.5840786908	-2.1871095826	 3.2078406469	 0.142685
H	 0.7272266918	-0.7010007562	 4.283147473	 0.124367
