18
gdb 13330	5.24975	1.14683	0.99534	2.6667	73.3	-0.2437	-0.02	0.2237	1156.8468	0.153697	-347.827313	-347.819386	-347.818441	-347.860752	28.637	
O	-0.6430950106	 0.8322111416	 0.6863993932	-0.242083
C	 0.0456025227	 1.03197663	-0.2808363169	 0.165911
C	 1.3473337713	 1.7992917302	-0.2824098423	-0.295941
C	 1.3146387367	 2.9908086126	-1.2525180224	 0.022542
C	 0.2988412927	 4.1053273851	-0.8716789073	-0.261201
C	 0.9924654431	 5.3700713665	-1.3178307397	-0.060683
C	 2.276483697	 5.1631614156	-1.6036867659	-0.060706
C	 2.6780214105	 3.7220331365	-1.3995728333	-0.273856
H	-0.2564884063	 0.6485859496	-1.2854498109	 0.068117
H	 1.5665108233	 2.1228877407	 0.7400296641	 0.118912
H	 2.1373561783	 1.1020257702	-0.5984542247	 0.115951
H	 1.0361408964	 2.6171100749	-2.2460608922	 0.08233
H	-0.6779386242	 3.9574301581	-1.3466644348	 0.107157
H	 0.1091219657	 4.1249673732	 0.2116620438	 0.115772
H	 0.4886156841	 6.3295929603	-1.3544226037	 0.093953
H	 2.9826712308	 5.9275390039	-1.9085449358	 0.09337
H	 3.2922835654	 3.615695146	-0.492896719	 0.106306
H	 3.2762843831	 3.3158840753	-2.2233617921	 0.104151
