18
gdb 33791	3.43393	1.38061	1.18578	3.9525	75.99	-0.2693	0.0227	0.292	1058.7495	0.15045	-401.952781	-401.945443	-401.944499	-401.984404	29.041	
N	-0.0394707586	-1.1575986052	-0.1027093335	-0.340127
C	-0.030099677	-0.0028005778	-0.0396829192	 0.18544
C	-0.0110524788	 1.4451030811	 0.0385894063	 0.156854
C	-0.2333947556	 2.1558507852	 1.4149810782	-0.253339
C	 0.6728099307	 3.2776678691	 0.8313560741	-0.056817
C	 1.3595064672	 2.1862253398	-0.0298956378	-0.253994
C	-0.1798911861	 4.1679535384	-0.0799842495	-0.071454
O	-1.2581734898	 3.4337139499	-0.6510403188	-0.257488
C	-0.9634561315	 2.0955366554	-0.9994686078	-0.112162
H	-1.2609850811	 2.4044391891	 1.6841258729	 0.124214
H	 0.2539601529	 1.6106407914	 2.2245830509	 0.120661
H	 1.290168724	 3.869655675	 1.5086215327	 0.080761
H	 2.1387535841	 1.648658139	 0.5137300846	 0.120291
H	 1.7225691999	 2.4612573958	-1.0246205151	 0.107847
H	-0.6485964958	 4.9802499537	 0.4847379319	 0.115746
H	 0.4494540367	 4.6177923059	-0.8649697094	 0.096831
H	-0.5051810513	 2.0268991846	-1.9986108393	 0.107853
H	-1.9225420598	 1.5702078595	-1.0257950311	 0.128886
