19
gdb 47442	2.73527	1.34298	0.99805	3.2759	75.53	-0.2351	0.0268	0.2619	1202.1994	0.162041	-419.224341	-419.216007	-419.215062	-419.258087	30.982	
O	-0.2055277727	 0.0053829123	-0.5342959682	-0.382558
C	-0.0869280858	 1.1770017058	-0.2502912759	 0.402883
N	-1.096002794	 2.0315993783	 0.0991180531	-0.298086
C	-0.6729822637	 3.3628778668	 0.496381097	-0.16545
C	 0.7543887003	 3.4490289853	-0.0942259532	-0.240582
C	 1.2271561531	 1.9823280786	-0.1815258623	-0.145079
C	 2.0435342383	 1.5255294676	 1.0128741291	 0.034524
C	 2.8995918394	 0.3230617325	 0.9159972854	-0.235853
N	 3.5095072204	 1.6647620782	 1.0203779807	-0.33633
H	-2.0286448949	 1.6782221662	 0.2438785155	 0.252024
H	-1.335987864	 4.1314369287	 0.0868637255	 0.11534
H	-0.6679749431	 3.4776313168	 1.5894456584	 0.111517
H	 0.7056594512	 3.885185716	-1.095761143	 0.114383
H	 1.4130725098	 4.0742308912	 0.5122024924	 0.119847
H	 1.8000543214	 1.7830642317	-1.0926503033	 0.089648
H	 1.5927726023	 1.7536165735	 1.9782887326	 0.091135
H	 3.046211115	-0.3148665121	 1.7822289748	 0.120757
H	 2.9259033723	-0.195911781	-0.0378483139	 0.125555
H	 3.830492745	 1.9641584137	 0.1018126855	 0.226323
