18
gdb 115762	3.76936	0.85861	0.74171	5.4955	72.8	-0.2626	0.028	0.2906	1481.3161	0.146845	-439.068349	-439.058904	-439.05796	-439.103952	32.797	
O	-0.148267588	 1.5142133284	-0.26282212	-0.423578
C	 0.0189536914	 0.1624174456	 0.1322016904	-0.095644
C	-1.3528518293	-0.4832719185	 0.0438573065	-0.05539
C	-1.8570236189	-0.7518055001	-1.3894802696	-0.072516
O	-1.7445879898	-2.183270264	-1.2039097004	-0.284015
C	-1.458318678	-2.0237421498	 0.1947202278	 0.124105
C	-0.2296387256	-2.8303376317	 0.6359416824	-0.367093
C	-0.480862634	-4.2697201934	 0.6109287737	 0.270452
N	-0.6860144976	-5.4065365226	 0.6031439158	-0.298752
H	 0.7149772878	 1.9379794937	-0.2764306482	 0.292211
H	 0.7290188756	-0.3576731433	-0.5302149024	 0.093462
H	 0.4094626462	 0.0893023832	 1.1604226393	 0.090997
H	-2.0440873545	 0.0762609319	 0.6773478694	 0.095682
H	-2.8918665205	-0.4477717448	-1.5839373394	 0.110349
H	-1.2163843646	-0.3895392217	-2.2005174928	 0.115539
H	-2.3162362723	-2.3284189181	 0.809578534	 0.096607
H	 0.6198457403	-2.6114368366	-0.017875794	 0.154889
H	 0.0498543918	-2.5443921981	 1.6570369374	 0.152695
