19
gdb 30308	2.94308	1.5924	1.07796	1.8617	83.05	-0.1646	0.048	0.2126	1121.9428	0.162867	-382.098517	-382.090681	-382.089737	-382.130598	31.061	
C	-0.2688086253	 1.5468313909	-0.0276029191	-0.397239
C	 0.0387221508	 0.0476865878	 0.0436860271	-0.110838
C	 0.9645088302	-0.446512128	-1.1197678842	-0.167018
N	 1.7456636414	-1.5962722757	-0.5864718617	-0.40981
C	 1.7974214997	-1.3572143233	 0.8086440202	 0.290884
C	 0.8655663596	-0.4333203013	 1.196682522	 0.270691
N	 0.8475855383	-0.3977897918	 2.5704849687	-0.377271
C	 1.809360835	-1.2629289239	 3.0408111862	-0.071674
C	 2.4169487971	-1.8926703727	 1.9668706663	-0.313481
H	 0.6522778616	 2.1367858646	 0.0211560681	 0.116339
H	-0.7886375829	 1.7980791505	-0.958625149	 0.113977
H	-0.9148449328	 1.8590272961	 0.8002985188	 0.106056
H	-0.9167484492	-0.5002355322	-0.0009040565	 0.080973
H	 0.3956642264	-0.7427903766	-2.0057212102	 0.101177
H	 1.6288327068	 0.385499832	-1.4021047337	 0.089658
H	 2.6542746759	-1.6721593229	-1.0290796485	 0.223334
H	 0.2947636071	 0.2120737844	 3.1456536866	 0.255935
H	 2.0076373407	-1.3433091699	 4.0978942243	 0.11112
H	 3.1985627897	-2.6334965278	 2.0323707845	 0.087188
