20
gdb 62157	2.72313	0.72142	0.59686	3.6443	79.92	-0.2522	-0.0222	0.23	1829.1695	0.167674	-440.297819	-440.287215	-440.286271	-440.335295	36.206	
C	 0.0726745761	 1.5178723138	 0.1449356191	-0.396704
C	 0.0369908844	-0.0032342173	 0.025545044	 0.112391
C	-1.3865219635	-0.5596807135	-0.0125945359	-0.204606
C	-1.4329241281	-2.0944402356	-0.0809239893	-0.283452
C	-2.8412701728	-2.6044501903	-0.2765155825	 0.156943
O	-3.4002340114	-3.3887727604	 0.44555331	-0.23704
O	 0.6742671054	-0.4138726513	-1.195871737	-0.192334
C	 2.0070692425	-0.6064140623	-1.1704697689	 0.127883
N	 2.6313622042	-0.8534432722	-2.2388853682	-0.441653
H	 1.1038561828	 1.8827683009	 0.1622436454	 0.124691
H	-0.4373451028	 1.9785002765	-0.7062110143	 0.137016
H	-0.4195444506	 1.8430014755	 1.0665874245	 0.123898
H	 0.577723944	-0.4539976733	 0.8711857772	 0.086033
H	-1.9185887338	-0.2069310402	 0.8780423679	 0.115388
H	-1.8996275413	-0.1311075826	-0.8825961556	 0.119287
H	-0.8362309782	-2.4187188583	-0.9437766493	 0.145997
H	-1.0175181426	-2.5534365173	 0.8213936322	 0.116769
H	-3.3560585069	-2.1858448493	-1.173925645	 0.073533
H	 2.4401277125	-0.5401217065	-0.1619089907	 0.085878
H	 3.6188495402	-0.9972536065	-2.0385693437	 0.230081
