16
gdb 93456	2.88363	1.47232	1.0263	2.1028	67.87	-0.2735	-0.0264	0.2471	1122.4546	0.123939	-475.063939	-475.055748	-475.054803	-475.097352	30.025	
C	 0.0088706558	 1.5388037784	-0.0838346802	-0.40256
C	 0.0526544094	 0.0186391655	-0.0171232365	-0.024006
O	 0.7099350993	-0.4667884466	-1.1707505051	-0.240067
C	 0.8376388501	-1.8714104357	-1.1439860065	-0.175466
C	 1.6902706957	-2.3064829868	 0.0190870921	 0.397076
N	 2.4703476247	-3.2907017652	-0.0322668377	-0.486233
O	 1.5512158579	-1.5570861398	 1.1784618169	-0.229636
C	 0.7270771209	-0.4571398878	 1.2716012683	 0.407189
O	 0.5737097103	 0.0560026861	 2.3391349207	-0.297196
H	 1.0223470337	 1.9429791812	-0.1483806836	 0.139736
H	-0.5493115721	 1.8485930828	-0.9697708668	 0.132726
H	-0.4726890509	 1.9358223346	 0.8105262051	 0.151152
H	-0.9779046473	-0.380994957	 0.0205199592	 0.109907
H	-0.1513208751	-2.3565425911	-1.0768983713	 0.120889
H	 1.3165982827	-2.1895119977	-2.0695905718	 0.157746
H	 2.9326350149	-3.4397247212	 0.8669488172	 0.238743
