16
gdb 103017	1.98646	1.47711	1.14119	5.8916	66.09	-0.2608	0.0091	0.2699	1117.8191	0.122856	-474.997025	-474.98778	-474.986835	-475.030891	33.825	
O	 0.2225149928	 1.1238388107	-0.5762668805	-0.417771
C	-0.0126054189	 0.0285076171	 0.2811388242	-0.133963
C	-1.438740217	-0.5171009258	 0.168643097	 0.038493
C	-2.4537049546	 0.1857997236	 0.9026950911	 0.242395
N	-3.2848995975	 0.7260472137	 1.5003611198	-0.342191
C	-1.8833010639	-1.1000425546	-1.1691715693	-0.009202
O	-0.8760569007	-1.0995014309	-2.1531290333	-0.432685
C	-1.6657619205	-2.0439900689	-0.0269833368	 0.064444
O	-0.5783022907	-2.8942681898	-0.0780508747	-0.417805
H	 0.1415890837	 0.7930697268	-1.4780195542	 0.294415
H	 0.6917857894	-0.7942063198	 0.109665242	 0.103704
H	 0.1473594071	 0.3886455404	 1.3003968948	 0.135013
H	-2.884109873	-0.8685524753	-1.5215381323	 0.131005
H	-1.2134909111	-1.5468029115	-2.9365726674	 0.312356
H	-2.5183865103	-2.4765296002	 0.485464708	 0.136658
H	-0.1289089949	-2.7252953955	-0.9182097983	 0.295133
