23
gdb 107057	3.67481	1.04201	0.92893	1.4501	85.29	-0.2513	0.0769	0.3282	1364.8806	0.206538	-388.298375	-388.289132	-388.288188	-388.332079	36.139	
C	 0.0645190354	 1.475148378	 0.3430717999	-0.375746
C	-0.0487739721	 0.0310677238	-0.162979279	-0.276949
C	-1.4598589571	-0.5167719357	-0.121200516	 0.380089
C	-1.9938083881	-1.0986551638	 1.1663121455	-0.328484
C	-1.7477140344	-2.0012260978	-0.0203302073	-0.090187
C	-2.9365767556	-2.3304920292	-0.8987425303	 0.129605
O	-3.7741087343	-3.2926862025	-0.2692577684	-0.438186
C	-3.6299670754	-0.9685528741	-1.146488939	-0.277618
C	-2.5060237468	 0.0838164233	-1.0640430245	-0.273739
H	 1.1018767873	 1.8228302701	 0.313330421	 0.108998
H	-0.5321439084	 2.1612961061	-0.2669545163	 0.116532
H	-0.2895673735	 1.556810081	 1.3761291691	 0.11753
H	 0.3310801467	-0.0250334845	-1.1927302379	 0.090193
H	 0.6034932608	-0.6144137175	 0.4383403628	 0.092433
H	-1.2933015069	-1.184867452	 1.9905948802	 0.104611
H	-3.0132693148	-0.8998566406	 1.478647488	 0.112412
H	-0.9424730783	-2.7253975067	 0.0407833504	 0.077966
H	-2.5596465759	-2.7340517505	-1.8529989094	 0.059786
H	-4.4853795352	-3.50991822	-0.8802710876	 0.278321
H	-4.1688548629	-0.9377633966	-2.098199448	 0.08909
H	-4.3694887187	-0.8183405873	-0.3534565143	 0.111251
H	-2.8766278022	 1.0611477657	-0.7353646803	 0.09762
H	-2.0468123797	 0.2332140809	-2.0499507687	 0.094473
