23
gdb 100754	2.31332	0.97054	0.84525	1.8285	77.78	-0.2549	0.0618	0.3167	1506.9447	0.20232	-462.554865	-462.543221	-462.542276	-462.591845	42.22	
C	 0.3480184707	 1.5561404337	-0.2062809401	-0.405537
C	 0.1198503707	 0.0488554493	-0.1204081503	 0.097657
O	 0.7115645897	-0.6354075162	-1.2224111103	-0.425835
C	 0.6102849087	-0.5307043567	 1.2271548677	 0.087044
O	-0.0496322129	 0.11097043	 2.3186902406	-0.435445
C	 0.5495305944	-2.0708688302	 1.3210182482	 0.003257
C	 1.331322642	-2.5752578191	 2.5399372879	-0.405793
C	-0.8918328284	-2.6074761598	 1.3386138108	-0.081207
O	-0.9520270578	-4.0261605883	 1.3164302871	-0.419359
H	 1.4217103791	 1.7824925506	-0.1646664216	 0.105699
H	-0.0497073678	 1.9507205101	-1.1450084901	 0.12068
H	-0.1276967514	 2.0688691786	 0.6324910334	 0.133594
H	-0.9553228542	-0.1526916835	-0.2187797414	 0.08298
H	 1.6286073418	-0.3456347549	-1.2864438498	 0.280162
H	 1.663759882	-0.2370703017	 1.3427200102	 0.073895
H	-0.9927954872	-0.07158699	 2.2488914278	 0.285992
H	 1.0202429595	-2.4477832099	 0.4036773888	 0.075921
H	 1.2065212633	-3.6546179005	 2.6524596343	 0.123859
H	 2.4001744792	-2.3571781403	 2.4440349527	 0.102602
H	 0.9702214762	-2.0879250585	 3.4512070127	 0.125529
H	-1.3909832083	-2.3177070298	 2.2713249359	 0.102249
H	-1.4735421025	-2.1852450979	 0.5052321923	 0.089484
H	-0.5613343167	-4.318594025	 0.4863809333	 0.282575
