17
gdb 19494	3.2697	1.96761	1.79758	1.3758	73.28	-0.2251	0.0326	0.2577	827.6888	0.143496	-326.675969	-326.668838	-326.667894	-326.707104	27.814	
C	 0.0596111252	-1.3096050062	 0.039543103	-0.475023
C	 0.0667586847	-0.106577936	 0.0842724021	 0.360614
C	 0.0164154924	 1.3273342514	 0.0768210162	-0.205024
C	 0.4856743192	 2.1793821281	 1.2190784213	-0.025322
C	 1.3253758861	 1.5583141536	 2.3227336334	-0.232031
C	 2.5015965325	 0.8731533436	 1.5849577741	-0.233022
C	 2.5131301529	 1.5241057813	 0.1773359657	-0.151379
N	 1.2179756537	 2.1966153215	-0.0526321484	-0.118003
H	 0.0565841511	-2.3710432962	 0.0076209437	 0.199555
H	-0.8157778776	 1.7182806523	-0.50545839	 0.116096
H	-0.0971335309	 3.0665903827	 1.4543285799	 0.093113
H	 1.6791870832	 2.3558901817	 2.9841031057	 0.107199
H	 0.7553672779	 0.8549659256	 2.9367850198	 0.115199
H	 3.4509169774	 1.0233768371	 2.1055519379	 0.098616
H	 2.3326618512	-0.2009734076	 1.5115057267	 0.12416
H	 3.2778901399	 2.30421639	 0.1085145033	 0.108966
H	 2.7051874013	 0.799368237	-0.6188801243	 0.116285
