18
gdb 88021	2.99531	1.32626	1.15016	1.7317	72.41	-0.2335	0.0514	0.285	1114.4445	0.146677	-439.004713	-438.996415	-438.995471	-439.037605	31.926	
O	 0.0584797281	 1.3175648292	-0.0136111742	-0.433742
C	 0.0831307805	-0.0675493388	 0.1058951101	 0.058653
C	-0.5316352117	-0.7333680493	 1.3328736476	-0.396937
C	-1.232621694	-0.7729219927	 0.0096115156	 0.358686
O	-2.3808141178	 0.049380415	-0.2437025935	-0.33652
C	-2.9156199983	-0.9303308386	-1.1826879256	-0.131781
C	-1.7605343539	-1.8767516322	-0.8712578885	 0.184959
C	-1.0405877991	-2.888710732	-1.6641565708	-0.308195
N	-1.9232296741	-3.2829177687	-0.5438985492	-0.355577
H	-0.8331845538	 1.546623202	-0.3141615055	 0.296263
H	 0.969728985	-0.5230601999	-0.329640526	 0.098212
H	-0.0745332624	-1.6454684309	 1.7074760202	 0.110787
H	-0.95916804	-0.0824764112	 2.0887314259	 0.134649
H	-3.9031129555	-1.286626353	-0.8754993215	 0.125815
H	-2.9534478027	-0.5312610023	-2.2019859614	 0.114828
H	-1.3998615996	-3.1729671222	-2.6496097805	 0.126432
H	 0.0375278427	-2.9602523914	-1.5381082098	 0.117906
H	-1.3752957732	-3.5200192231	 0.2808306369	 0.235561
