21
gdb 64456	2.17494	1.65845	1.22677	1.5302	78.17	-0.23	-0.0163	0.2137	1121.1915	0.182527	-424.271445	-424.262365	-424.261421	-424.304752	35.382	
C	-0.0823137114	 1.5539166993	-0.0058060447	-0.440615
C	 0.0339695016	 0.0342422759	 0.0087650837	 0.261964
O	-1.2678460908	-0.5794076747	 0.0328512074	-0.463558
C	 0.726351247	-0.5059579382	-1.2541721514	-0.211271
C	 0.9085729988	-2.0284633986	-1.2221007966	-0.202594
C	 1.6995324591	-2.4663762248	 0.0163367184	-0.206173
C	 1.0253931509	-1.968658276	 1.311379224	-0.286326
C	 0.788696419	-0.468295134	 1.2642802683	 0.35964
O	 1.1384950449	 0.2822765399	 2.1464803536	-0.319352
H	 0.9033240563	 2.0238764082	-0.0560691933	 0.127558
H	-0.6730153572	 1.8705141407	-0.8699428631	 0.11616
H	-0.5617838622	 1.9151865315	 0.9089762649	 0.119192
H	-1.7697490431	-0.1700296202	 0.7465447993	 0.285324
H	 0.1310761417	-0.2039157962	-2.1231030168	 0.105116
H	 1.704344108	-0.0159664167	-1.3454540384	 0.101082
H	-0.0767886772	-2.506691628	-1.2188510904	 0.11778
H	 1.421282746	-2.3568063414	-2.1327270187	 0.093193
H	 1.7965061729	-3.5566376831	 0.0492062012	 0.101158
H	 2.7196461276	-2.0630595274	-0.0366619224	 0.103033
H	 0.0474934466	-2.4551860585	 1.4106223059	 0.126429
H	 1.6168215015	-2.196793058	 2.2012256091	 0.112261
