20
gdb 119752	4.97381	0.74045	0.68204	4.7651	83.82	-0.237	-0.02	0.217	1681.1442	0.171306	-403.210087	-403.200631	-403.199687	-403.245451	34.008	
C	-0.015781822	 1.5600874745	-0.0913509105	-0.380317
C	-0.0066844642	 0.0303043729	-0.1311237178	-0.16474
C	-1.4047072416	-0.5738256328	 0.1150579942	-0.295926
C	-1.4264763327	-2.0704469913	 0.1074938108	 0.334178
C	-1.6736221615	-2.909964857	 1.119408168	-0.334121
C	-1.5864018352	-4.3252441324	 0.6589527038	 0.431331
O	-1.7196052718	-5.3481222797	 1.2975723444	-0.391628
N	-1.3139552072	-4.2353466945	-0.6926470754	-0.34354
C	-1.1531562995	-2.8768095704	-1.1481653326	-0.248368
H	 0.9851237423	 1.966438482	-0.2649017874	 0.117409
H	-0.681480215	 1.9731165892	-0.857303538	 0.116721
H	-0.3614959719	 1.9285660769	 0.8806338588	 0.119578
H	 0.3744049138	-0.3085335378	-1.1021777551	 0.100807
H	 0.6860540378	-0.3596686923	 0.6240575715	 0.109469
H	-1.787711476	-0.2155840273	 1.0771780283	 0.11162
H	-2.0909712471	-0.193806547	-0.655444932	 0.107653
H	-1.9105876705	-2.6556472714	 2.1432301465	 0.113259
H	-1.1158490455	-5.0507186833	-1.2463917458	 0.251451
H	-1.8629717892	-2.6136538682	-1.9469153795	 0.121497
H	-0.143529173	-2.6835044602	-1.5395175722	 0.123668
