19
gdb 75805	3.05924	1.31537	1.09336	1.6863	77.15	-0.2462	0.0226	0.2687	1159.5976	0.160341	-419.193987	-419.185444	-419.1845	-419.227337	32.52	
N	 0.1288535881	 1.3116813786	-0.4255376005	-0.514217
C	 0.0926937603	-0.0870560749	-0.0609649554	-0.190184
C	 0.151898536	-0.5226846652	 1.3992209241	 0.391319
N	 0.9276780318	-0.2911731426	 2.3578891764	-0.553294
O	-1.0208519867	-1.2432076963	 1.336271852	-0.289131
C	-1.2830482279	-0.8119614766	-0.038010819	 0.455991
C	-2.579243971	-0.0390596954	-0.3399049736	-0.284511
C	-2.6761954383	-0.8384919274	-1.6706576271	-0.212043
C	-1.6674581798	-1.8678990611	-1.084980345	-0.296152
H	-0.2691122168	 1.8799403606	 0.3163359671	 0.239301
H	 1.0911254832	 1.6165302596	-0.5277700017	 0.245382
H	 0.8181718949	-0.6315618707	-0.6723366151	 0.110694
H	 0.6024536422	-0.7368199886	 3.2180444266	 0.226117
H	-3.3643969797	-0.3153786185	 0.3688841892	 0.115236
H	-2.5084202193	 1.0482533658	-0.4053096987	 0.110245
H	-3.6599329682	-1.2146437447	-1.955102882	 0.10523
H	-2.2532201069	-0.2801109516	-2.5084701333	 0.118905
H	-0.8736012486	-2.2506684606	-1.7316245498	 0.102174
H	-2.1754802331	-2.7107876905	-0.6080760844	 0.118937
