16
gdb 15589	2.64223	2.15627	1.48709	3.213	63.76	-0.2524	0.0145	0.2669	875.5344	0.132346	-379.928942	-379.921202	-379.920258	-379.961395	28.046	
N	-0.0077889951	 1.4522560876	 0.3089362438	-0.519577
C	-0.0023421631	 0.0377224989	 0.0083181204	 0.013495
C	-1.4067646601	-0.5494844638	-0.2015665119	-0.239336
C	-1.1387412408	-1.8568525878	-0.9562346268	-0.07676
O	 0.1755387697	-1.7436069799	-1.5475549225	-0.253012
C	 0.7029214685	-0.461838115	-1.2955401472	-0.050526
C	 0.4439626867	 0.4700535478	-2.4169703207	 0.264858
N	 0.2149374316	 1.2193084634	-3.2672268265	-0.327365
H	 0.9309135699	 1.7916841163	 0.4925240286	 0.235641
H	-0.369291624	 1.9859830647	-0.4773793331	 0.244985
H	 0.4919826848	-0.4850936773	 0.834723133	 0.101586
H	-1.9356778903	-0.7013490157	 0.7405767871	 0.122888
H	-1.9981996873	 0.1429668092	-0.8103649504	 0.124027
H	-1.1214413325	-2.725485974	-0.2888576963	 0.114806
H	-1.8708388181	-2.0467712219	-1.7477612093	 0.119731
H	 1.7873707101	-0.5531844226	-1.173161208	 0.124559
