19
gdb 50493	4.3251	0.84369	0.74418	2.3716	83.2	-0.25	-0.0225	0.2275	1491.3082	0.158559	-385.882836	-385.873805	-385.872861	-385.917884	33.239	
O	-0.2683807811	 0.0144865521	-0.1591992992	-0.249244
C	-0.0091833391	 1.172407329	 0.0378534763	 0.153554
C	 1.3607483052	 1.7989177576	-0.0660943794	-0.049987
C	 1.4174014363	 2.8584823703	-1.1991582212	-0.242642
C	 2.4730782977	 3.8614851191	-0.7215484575	-0.211493
C	 2.1481647655	 4.0140010457	 0.783051273	-0.149913
C	 1.7519820677	 2.5718742784	 1.2312181072	-0.254423
C	 3.2126576831	 4.6063927073	 1.5780450261	 0.295326
C	 4.1028993426	 5.0815776787	 2.2317914436	-0.441202
H	-0.8098395014	 1.900895109	 0.3195434843	 0.06635
H	 2.0751477973	 0.9968245542	-0.2664536715	 0.096784
H	 1.6431103979	 2.4103315869	-2.1694359093	 0.114959
H	 0.4451141257	 3.3615386691	-1.2903887439	 0.103862
H	 3.4798133148	 3.4457621427	-0.8390213959	 0.115436
H	 2.4416823501	 4.8153741105	-1.2539186626	 0.111056
H	 1.2592546077	 4.653392135	 0.8652476941	 0.105259
H	 0.9335884263	 2.6045251783	 1.9574643936	 0.113229
H	 2.5927193563	 2.0795995355	 1.7234540492	 0.12798
H	 4.8851680274	 5.5061862606	 2.8107444931	 0.195109
