18
gdb 34959	3.1818	1.52578	1.46906	1.29	79.98	-0.2086	0.0392	0.2478	971.2425	0.149109	-364.712157	-364.705081	-364.704137	-364.743456	28.983	
C	-0.0194630606	-1.2576475438	-0.062928501	-0.454033
C	-0.016888659	-0.0545829872	-0.0295692166	 0.316448
C	 0.0160040472	 1.3917496029	 0.0469094617	-0.178065
C	-0.2933824133	 2.102063717	 1.4084442198	-0.067595
C	 0.545480621	 1.5493885241	 2.5736207004	-0.177894
N	 1.7724309304	 2.3014041512	 2.1325762842	-0.150073
C	 2.4218152748	 1.5911763858	 0.9752791204	-0.177889
C	 1.3906084463	 2.1395485573	-0.0260649523	-0.067592
C	 0.9048942653	 3.0630596957	 1.1340541256	-0.004178
H	-0.0316855378	-2.3186416952	-0.1059669533	 0.196656
H	-0.6432189965	 1.8209168028	-0.7157164164	 0.105184
H	-1.3279816915	 2.3962961204	 1.5861277467	 0.07478
H	 0.213714375	 1.9332381736	 3.5436903311	 0.106223
H	 0.6652661761	 0.463405545	 2.6446516214	 0.112345
H	 3.4220022478	 2.0046917685	 0.8107275415	 0.106226
H	 2.5009475534	 0.5042887598	 1.08094734	 0.112333
H	 1.7225328687	 2.4641928396	-1.0124573594	 0.07478
H	 0.8917059027	 4.1520069727	 1.147027966	 0.072344
