21
gdb 87803	2.76781	1.41951	1.18873	1.4223	83.06	-0.2222	0.0765	0.2987	1152.7872	0.181145	-387.035803	-387.026909	-387.025965	-387.069021	34.491	
C	-0.0677248654	 1.5042415292	 0.0435411064	-0.406443
C	 0.0236712494	-0.0055467486	 0.0042332331	-0.077119
C	 1.3869581626	-0.6816695222	-0.1244378725	-0.378269
C	 0.6163493046	-0.7568820718	 1.1529855551	 0.468696
O	 1.0994414317	-0.0941546888	 2.3382607587	-0.315616
C	 0.8076212664	-1.2719925538	 3.1054324289	 0.071148
C	-0.6590545071	-1.5801876072	 3.1206629056	-0.030017
C	-1.7421734711	-0.5260366047	 3.1084613069	-0.422685
C	 0.187819094	-1.9829252884	 1.9193212027	-0.248535
H	 0.7329891982	 1.926415203	 0.656858687	 0.13314
H	 0.0085772054	 1.9312558264	-0.9622676356	 0.113556
H	-1.0202079638	 1.8313959552	 0.4747470123	 0.118392
H	-0.7969230572	-0.5038646786	-0.5071235565	 0.085864
H	 1.4774308234	-1.5763104214	-0.7326079583	 0.110268
H	 2.2609920794	-0.0378762662	-0.1267912927	 0.120554
H	 1.539502053	-1.5745986599	 3.8453392754	 0.101566
H	-0.8752175203	-2.4491918381	 3.7410845904	 0.087145
H	-1.3948055649	 0.3807366213	 2.609527707	 0.143505
H	-2.6403934344	-0.8828861768	 2.5936032242	 0.113184
H	-2.026393829	-0.2560417605	 4.1312513449	 0.114699
H	 0.2930344851	-3.0033626081	 1.5752199468	 0.096966
