16
gdb 42930	2.65506	1.42475	1.14371	3.4777	74.36	-0.2418	0.006	0.2478	1091.6064	0.123331	-400.697852	-400.689647	-400.688703	-400.731245	30.538	
O	-0.0633338376	 0.0183230815	-0.3448968889	-0.358201
C	-0.0753310188	 1.212273586	-0.2332490715	 0.420826
C	-1.0984571155	 2.3030871945	 0.0660680813	-0.221752
C	-0.6283049373	 3.0464173284	 1.3176402863	-0.286807
C	 0.0675391102	 3.2730902786	 0.0116848582	-0.002582
N	 0.9581500971	 2.1566954339	-0.3208402395	-0.096882
C	 2.3562575822	 1.9487386958	 0.022288052	-0.326446
C	 2.7044875727	 2.2374766306	 1.4158047922	 0.313043
C	 2.9971901167	 2.4889998522	 2.5539774084	-0.460788
H	-2.0932703814	 2.4015661457	-0.3421671943	 0.120602
H	-1.2992634387	 3.8328415478	 1.652166985	 0.125211
H	-0.1186011929	 2.5114859308	 2.1113900881	 0.141783
H	 0.1321944661	 4.2142434579	-0.5178022962	 0.116904
H	 2.5636614674	 0.8970528537	-0.206661848	 0.168561
H	 2.9894081897	 2.5494211956	-0.6421141388	 0.141684
H	 3.2592788602	 2.7019661371	 3.5610351256	 0.204843
