21
gdb 94719	3.32433	1.29378	1.11123	1.6261	78.82	-0.2438	0.0909	0.3347	1189.2572	0.182234	-424.225182	-424.216459	-424.215515	-424.258035	34.12	
C	 0.056276463	 1.4959749408	 0.0322693948	-0.407705
C	 0.0410157447	-0.0162744517	-0.0019919876	 0.218412
O	 0.6623069662	-0.4506157449	-1.1888906729	-0.246736
C	 0.4890755461	-1.8474022543	-1.37727979	-0.152008
C	 0.9006837396	-2.6477186352	-0.152601188	 0.268863
C	 0.3788789546	-4.068147954	-0.1172350983	-0.468657
C	 2.2482542386	-2.3506132905	 0.472439673	-0.341998
C	 0.9831482949	-1.8616477773	 1.1351629703	 0.072278
O	 0.7340421527	-0.4813420493	 1.1372808945	-0.26068
H	 1.0881817256	 1.8506511858	-0.0252963654	 0.134606
H	-0.5068235489	 1.8947288428	-0.8144697669	 0.123343
H	-0.3901724227	 1.8519103309	 0.9634335483	 0.126755
H	-0.9928317985	-0.4112540458	 0.0170362546	 0.054218
H	-0.5685910116	-2.0613367148	-1.6089860003	 0.087964
H	 1.0867753045	-2.11786349	-2.2540582806	 0.110864
H	 0.7793771636	-4.6566905647	-0.9516927887	 0.120153
H	 0.6703189552	-4.5732891225	 0.8086424625	 0.119398
H	-0.715069372	-4.0945744256	-0.1838916012	 0.117836
H	 2.796629181	-3.1694699213	 0.9264028504	 0.105913
H	 2.8572473104	-1.5812983033	 0.0106750704	 0.126082
H	 0.6581710029	-2.3362754753	 2.058045001	 0.091098
