24
gdb 59864	3.06646	0.86207	0.74286	3.2793	88.47	-0.2347	0.0342	0.269	1669.8501	0.214782	-405.590426	-405.578766	-405.577822	-405.628155	40.973	
C	-0.2216715634	 1.6205528162	-0.0579049125	-0.387467
C	-0.0460178819	 0.0971462643	 0.0015173952	 0.058856
C	-1.4043580935	-0.6102174636	 0.0931206498	-0.399712
C	 0.7481302534	-0.4283107695	-1.205711155	-0.333467
C	 2.2315233808	-0.0468100377	-1.1657667641	 0.424775
O	 2.7120726076	 0.5223221164	-0.1967428743	-0.382947
N	 3.0009699355	-0.382374757	-2.2543022224	-0.085318
C	 4.4102569136	-0.0275630122	-2.2594682977	-0.342951
C	 2.5374117883	-1.083099474	-3.4343980109	-0.336137
H	 0.747377352	 2.122289156	-0.0875210266	 0.137811
H	-0.796453338	 1.9141367737	-0.945844177	 0.097533
H	-0.7661765166	 1.9833918753	 0.8202011414	 0.106437
H	 0.5367726172	-0.1382597834	 0.8985740211	 0.095901
H	-2.0144792236	-0.4156564258	-0.7976799173	 0.10628
H	-1.2893300403	-1.6957724406	 0.1867222994	 0.105141
H	-1.9701712233	-0.2576695477	 0.9615796414	 0.111718
H	 0.6765926912	-1.5236010483	-1.2461739341	 0.114866
H	 0.2903114956	-0.061982085	-2.1337087445	 0.112849
H	 5.0366583267	-0.9264526946	-2.3277543959	 0.117866
H	 4.6429668893	 0.614826215	-3.1185765095	 0.117448
H	 4.6342360709	 0.5019452381	-1.3355207483	 0.169622
H	 2.6374377941	-0.4544029555	-4.3301729998	 0.124354
H	 3.1335959868	-1.9906801121	-3.5991602812	 0.125423
H	 1.4952233675	-1.3786156081	-3.3398484771	 0.141121
