19
gdb 1862	5.51087	1.83913	1.467	0.2318	73.57	-0.2237	0.0359	0.2596	891.0964	0.172034	-273.812813	-273.805266	-273.804322	-273.844104	28.533	
C	-0.0528986714	 1.5423288329	 0.025384312	-0.402972
C	 0.0811388633	 0.0207824279	 0.0025439008	 0.053834
C	 0.9059586647	-0.5394011142	-1.1890201596	-0.258308
C	 1.5650953586	-1.7649885701	-0.6067458897	-0.162815
C	 1.4915136176	-1.8037716439	 0.7257392651	 0.337974
C	 2.071536113	-2.8360051327	 1.6400381807	-0.491837
C	 0.7572039515	-0.589297635	 1.2580059833	-0.304484
H	 0.9308935725	 2.0215836069	 0.0932522922	 0.111351
H	-0.5411334477	 1.9140026768	-0.8821498871	 0.110513
H	-0.6461967648	 1.8790031821	 0.8825720744	 0.109921
H	-0.923249342	-0.4153459856	-0.0676134812	 0.073999
H	 0.2791767065	-0.7548401609	-2.0626362879	 0.095754
H	 1.6604878537	 0.1877907781	-1.5275618436	 0.096318
H	 2.0762718116	-2.5035405402	-1.2164904968	 0.078424
H	 2.5829147556	-3.6277671195	 1.0853793337	 0.120235
H	 2.79327094	-2.3888568914	 2.3363536419	 0.121944
H	 1.29382781	-3.3010816688	 2.2596994172	 0.12138
H	 1.4698981989	 0.1160225639	 1.7142003987	 0.095452
H	 0.0335078984	-0.8376397463	 2.0445415358	 0.093316
