22
gdb 119487	3.76326	0.96689	0.88637	1.8453	85.91	-0.201	0.0831	0.284	1431.274	0.19405	-367.133206	-367.124348	-367.123404	-367.167115	34.535	
C	-0.005457469	 1.6551130288	-0.0401133434	-0.380889
C	 0.0128705067	 0.1268963445	 0.0451076388	-0.161741
C	 0.6295422834	-0.5291961661	-1.2003562522	-0.319295
C	 0.6546761881	-2.0279431064	-1.1546783655	 0.360257
N	 0.7137831664	-2.8620513329	-2.383599048	-0.390758
C	-0.3884130131	-3.0465101411	-1.3976231922	-0.120389
C	 0.13601425	-3.9173897562	-0.2202306481	-0.052263
C	 1.585773607	-4.2891107373	-0.3830903809	-0.292362
C	 1.2267683786	-2.8845519506	 0.0269290724	-0.102259
H	 1.0078434573	 2.0583629626	-0.1458962775	 0.115752
H	-0.587598268	 1.9979084568	-0.9030001943	 0.113437
H	-0.4480933808	 2.0987653218	 0.8569618142	 0.112638
H	 0.572489383	-0.181765759	 0.9361934172	 0.103348
H	-1.0080314805	-0.2512176722	 0.179751374	 0.099238
H	 0.0647169347	-0.2137785059	-2.0889893649	 0.089197
H	 1.6533027833	-0.1517422798	-1.3402116558	 0.10369
H	 0.335644339	-2.2954174146	-3.1429029025	 0.221158
H	-1.4238563409	-2.9393952417	-1.6963112498	 0.087171
H	-0.517991385	-4.3865424282	 0.5029968199	 0.085535
H	 1.9835649778	-4.8988226949	 0.4227587907	 0.102361
H	 1.9966761622	-4.4897702538	-1.3637286819	 0.141093
H	 1.5364785896	-2.4535174037	 0.9701736701	 0.085083
