17
gdb 41055	3.21494	2.16858	1.91399	1.6969	73.55	-0.2249	0.0504	0.2753	795.61	0.138065	-384.553074	-384.547279	-384.546335	-384.582732	25.501	
C	 0.053485625	 1.4992134472	-0.1309356035	-0.174051
O	 1.4847576668	 1.5300838575	 0.2169556806	-0.326982
C	 1.4049624093	 0.1826634919	 0.6452541422	 0.383264
C	 0.94699885	-0.4074598311	 2.0097270274	-0.189305
C	 0.957363246	-1.7201534052	 1.2635962642	-0.056841
C	-0.3131884111	-0.8467609336	 1.2680768955	-0.13601
C	 0.0114744581	-0.0317302086	 0.0160730672	 0.152745
C	 0.6495314218	-0.945112116	-1.0766734589	-0.295282
C	 1.7341610184	-1.207883581	-0.0000772397	-0.135044
H	-0.537987311	 2.0550603949	 0.6052639916	 0.112897
H	-0.1203541344	 1.9086112717	-1.1308848057	 0.114099
H	 1.1469193867	-0.1910711515	 3.0503569283	 0.094643
H	 0.989132307	-2.7121934414	 1.6899500546	 0.095686
H	-1.2599505251	-1.2042167165	 1.6579485739	 0.083183
H	 0.0721887568	-1.7941334148	-1.4515202602	 0.09763
H	 1.0347851616	-0.3583112211	-1.9148984586	 0.110639
H	 2.7152300439	-1.6413728825	-0.2008759087	 0.068728
