22
gdb 86307	1.96236	1.72017	1.13589	1.9354	82.22	-0.2126	0.0728	0.2854	1185.4981	0.19349	-404.303025	-404.293718	-404.292774	-404.337162	34.887	
C	-0.1174040995	 1.6065845055	-0.1795650641	-0.418306
C	 0.041463931	 0.1020728011	-0.0432924364	-0.046535
C	 1.1315012461	-0.6171000278	-0.8775129938	-0.189354
N	 1.435148958	-1.4425463294	 0.2996214456	-0.097554
C	 2.7858334682	-1.8946255033	 0.5401478892	-0.333709
C	 0.7501107255	-0.5102162126	 1.1999768759	 0.272788
C	 1.4993298115	 0.3896882181	 2.2259725625	-0.139638
O	 0.6628210319	-0.079690908	 3.300147619	-0.275401
C	-0.0005515558	-1.0274213585	 2.4389471337	-0.127834
H	 0.8429609595	 2.125996955	-0.0967185097	 0.117802
H	-0.545464724	 1.8601540746	-1.155385533	 0.118781
H	-0.7850837045	 2.0106009941	 0.5892793297	 0.124766
H	-0.9262995794	-0.3915697384	-0.1788234694	 0.084136
H	 0.8236591393	-1.1761590246	-1.76848617	 0.097578
H	 1.9510284124	 0.0674341433	-1.158228767	 0.079631
H	 3.5377565939	-1.0841540585	 0.5324787394	 0.094013
H	 2.8450496882	-2.4037609444	 1.5079625727	 0.125905
H	 3.0690131942	-2.6180919991	-0.2321822262	 0.122017
H	 2.5547517378	 0.1312111311	 2.3833046535	 0.096487
H	 1.4184967257	 1.4743338153	 2.0883247521	 0.09884
H	-1.0908002662	-0.897248501	 2.4381968942	 0.097013
H	 0.2367860762	-2.0681480422	 2.698613672	 0.098577
