19
gdb 90213	2.98152	1.76789	1.56795	1.537	80.32	-0.2116	0.0601	0.2717	933.7927	0.159573	-385.741337	-385.7342	-385.733256	-385.772293	29.953	
O	 0.1232413766	 1.2770052118	-0.3561253205	-0.421524
C	 0.0349229788	-0.0882474629	-0.0121619955	 0.014637
C	 0.1421587335	-0.401917508	 1.5428179464	-0.36845
C	-1.4107570106	-0.4104599072	 1.604012506	 0.232048
C	-2.3111603577	 0.8415437644	 1.5522093766	-0.292091
C	-2.8636800294	-0.0749960124	 0.4462760819	-0.095283
C	-2.5932125031	-1.3986985562	 1.3016984909	-0.087072
C	-1.8307790053	-2.0771908014	 0.1523484184	-0.302274
C	-1.4365585727	-0.5901500033	 0.0502112395	 0.249215
H	 1.0259478614	 1.5676421162	-0.1876879049	 0.285721
H	 0.6867309388	-0.7020999709	-0.6515735964	 0.070823
H	 0.6088648228	-1.3710604328	 1.7388999711	 0.110743
H	 0.6390045392	 0.3597318089	 2.1514544282	 0.100863
H	-2.958350115	 1.0197650326	 2.4179084531	 0.082192
H	-1.8407283126	 1.7671439594	 1.2150392908	 0.11251
H	-3.7275195187	 0.0810067392	-0.2094802303	 0.065178
H	-3.3026158746	-1.8428152697	 2.0089947494	 0.063528
H	-1.046310998	-2.7838445746	 0.4445580945	 0.088909
H	-2.4227163232	-2.4910155332	-0.6705487391	 0.090326
