20
gdb 72957	2.52762	1.48814	1.18862	4.2367	84.16	-0.2696	0.0368	0.3064	1128.8704	0.17038	-366.010936	-366.001836	-366.000892	-366.04414	34.683	
C	-0.0415917477	 1.5665940404	 0.0487795868	-0.503911
C	-0.0065365406	 0.0647821328	 0.0712152622	 0.306006
C	-1.2672025822	-0.816384769	-0.0054815039	-0.295765
C	-0.6275189873	-1.8058483943	 1.0202319626	-0.25151
C	 0.6205363963	-0.920970244	 1.0575821975	-0.119615
C	 1.2142741338	-0.7634420179	-0.3430410009	 0.112976
C	 1.2155013599	-1.8512108635	-1.4100893373	-0.474517
C	 2.4481381774	-0.0097800721	-0.3329287102	 0.240583
N	 3.4452180498	 0.577958704	-0.3448952994	-0.357696
H	 0.9379354455	 1.9994157935	 0.2668667899	 0.150118
H	-0.3566519765	 1.9345014164	-0.9350069054	 0.126371
H	-0.7557499337	 1.9453572343	 0.7881922245	 0.119848
H	-2.1369354681	-0.3018534221	 0.4094525232	 0.112279
H	-1.5391878291	-1.2082554605	-0.9897206351	 0.103654
H	-1.1575611293	-1.8057337179	 1.9746835794	 0.114206
H	-0.4887528261	-2.8441159582	 0.705267576	 0.106398
H	 1.2355904073	-0.7218361159	 1.9274921592	 0.106169
H	 0.2986370941	-2.4410837145	-1.3879705827	 0.129541
H	 1.3109742891	-1.4110036054	-2.407172686	 0.136732
H	 2.0584378271	-2.5324376159	-1.2608596503	 0.138135
