20
gdb 104264	2.18587	1.45343	1.12131	5.0942	79.5	-0.261	0.0344	0.2954	1188.717	0.169409	-403.148065	-403.138434	-403.13749	-403.18246	35.37	
C	-0.1933632201	 1.4546465156	-0.0643652431	-0.256156
O	-0.3816244981	 0.0785827849	-0.3248055597	-0.273209
C	 0.5773474644	-0.5279313749	-1.151817882	 0.436725
C	 0.5138933299	-0.0243885249	-2.5929504101	-0.452484
C	 2.0312429938	-0.6376382947	-0.5923499854	-0.276598
C	 2.0262193982	-2.1477455688	-0.9388396906	-0.231975
C	 0.4679937887	-2.0958945311	-1.0881405328	-0.249039
C	-0.2440356925	-2.6088471652	 0.0711771752	 0.305573
N	-0.7891355935	-3.0549892233	 0.987860888	-0.337076
H	 0.8141212934	 1.6648951182	 0.3224083728	 0.111221
H	-0.363292928	 2.077672884	-0.9531706265	 0.111753
H	-0.9249515074	 1.7293107775	 0.698342452	 0.139406
H	 0.8152224551	 1.0252858423	-2.6574553049	 0.124446
H	 1.1865426491	-0.5974657978	-3.2384744004	 0.12184
H	-0.5051029094	-0.1191648075	-2.9803562548	 0.131889
H	 2.7983287919	-0.0161856071	-1.059217	 0.102566
H	 2.0397156179	-0.4742721509	 0.4878889449	 0.126154
H	 2.5061035774	-2.3723377287	-1.8932095558	 0.116722
H	 2.4075070796	-2.8319282753	-0.1814791231	 0.130064
H	 0.0566260995	-2.5612822723	-1.9876196736	 0.118178
