16
gdb 72841	2.74754	1.59281	1.31252	4.7263	65.84	-0.2613	-0.0004	0.2609	991.4061	0.124556	-475.004265	-474.996399	-474.995455	-475.037165	29.176	
O	 0.0146291296	 1.4002178477	-0.1216686755	-0.468872
C	 0.0195608625	 0.007176641	 0.025557949	 0.286097
C	 0.2555472308	-0.8529442661	-1.237878565	-0.122714
O	-1.0124635638	-1.5194907324	-1.0610876018	-0.283951
C	-1.36433014	-0.668724565	 0.0583991387	 0.010198
C	-1.409676327	-1.4505780402	 1.3477949788	 0.414679
N	-2.4279518249	-2.0130906095	 1.8306703436	-0.530479
O	-0.151930954	-1.4886383126	 1.8950854256	-0.244585
C	 0.6976683702	-0.4857936587	 1.3213343076	-0.144077
H	 0.9205651971	 1.7050444782	-0.2447950337	 0.288107
H	 0.282219587	-0.2601526377	-2.1601040902	 0.109457
H	 1.0981437339	-1.5542468927	-1.2177715091	 0.106406
H	-2.2535381609	-0.0646266879	-0.1265390565	 0.116442
H	-2.1962670385	-2.4987243002	 2.6998509416	 0.226382
H	 1.684119636	-0.9314803974	 1.1626319077	 0.117129
H	 0.7866076919	 0.3544592835	 2.0199791794	 0.119782
