15
gdb 45110	2.89476	1.84629	1.31179	4.501	64.67	-0.2658	-0.0152	0.2506	932.57	0.113768	-457.758086	-457.751363	-457.750419	-457.789365	26.365	
O	 0.0352029028	 0.0149910132	 0.3205177436	-0.321697
C	 0.0097246212	 1.1595545371	-0.0385822385	 0.44343
O	-1.1818839788	 1.7639072975	-0.2792828308	-0.23687
C	-1.3187042368	 2.9648338939	-1.0100398877	 0.106575
C	-1.1566998182	 4.2961801254	-0.3475752809	-0.314599
C	-0.1176406703	 3.8055950102	-1.3416020552	-0.100876
C	 1.1988946041	 3.3159985131	-0.8209661849	 0.035361
O	 1.3151317745	 3.1792406408	 0.5889846188	-0.236401
C	 1.2593375985	 1.9786078191	-0.1989679393	-0.119295
H	-2.1002681789	 2.844168811	-1.7517774478	 0.120844
H	-1.8235229958	 5.0968175127	-0.6451370643	 0.125447
H	-0.8495646064	 4.2954434283	 0.6911157378	 0.154417
H	-0.080290393	 4.2590606978	-2.32585681	 0.105044
H	 2.0921428307	 3.693541848	-1.3151526477	 0.111097
H	 2.1662922664	 1.3814798219	-0.2042659431	 0.127525
