15
gdb 81259	2.89887	1.50067	1.22229	4.5024	66.34	-0.2287	-0.0867	0.142	1026.9782	0.111951	-457.751793	-457.744258	-457.743313	-457.783827	28.338	
C	-0.1030723548	 1.529024103	-0.0033238222	-0.42513
C	-0.0345142132	 0.0076824981	 0.0017170804	-0.018141
C	 1.1838036998	-0.6047704549	-0.7440163807	-0.056835
O	 2.0054447148	-0.3941256112	 0.4619459055	-0.296839
C	 0.744348684	-0.6181596458	 1.1921872506	-0.056836
C	 0.6373952163	-2.1259274049	 0.9455776089	 0.354761
O	 0.3714524838	-3.0395335101	 1.6687174393	-0.294845
C	 0.9853626975	-2.1153235775	-0.5875910663	 0.354759
O	 1.0603551342	-3.0185417184	-1.3666328527	-0.294844
H	 0.8738621945	 1.9638389173	 0.2213991296	 0.144836
H	-0.4287681585	 1.8946604325	-0.9820971899	 0.130732
H	-0.8204377326	 1.8827258079	 0.7437019247	 0.130732
H	-1.0084800982	-0.4417825182	-0.222451416	 0.101166
H	 1.604190003	-0.2113158702	-1.667564609	 0.113242
H	 0.7236951494	-0.2381389878	 2.2118096779	 0.113242
