18
gdb 26574	2.295	1.81097	1.02495	3.1221	85.13	-0.2032	-0.0376	0.1657	1148.1347	0.147384	-401.996841	-401.987927	-401.986983	-402.031554	32.561	
C	 0.0599736388	 1.540254015	 0.0861055031	-0.498548
C	-0.0032938082	 0.0317048796	 0.0254400352	 0.205014
C	-1.1767281278	-0.6579680108	-0.0126252318	 0.125187
C	-2.5396696535	-0.0283945054	 0.0008204554	-0.475668
C	-1.170596635	-2.1175162115	-0.0703069555	 0.330968
N	-2.2342847658	-2.8154864003	-0.1090674436	-0.53798
O	 0.0710457325	-2.7538293011	-0.0823872483	-0.235493
C	 1.2164163212	-2.0441480951	-0.0425330104	 0.060545
C	 1.2397334636	-0.7047913932	 0.0098143031	-0.240643
H	 1.0954181633	 1.8883489724	 0.068929235	 0.123872
H	-0.4607523433	 2.0006968852	-0.7595783674	 0.142971
H	-0.4052371097	 1.9260692026	 0.9995343298	 0.143076
H	-3.1040499347	-0.3200478083	-0.8912652746	 0.14536
H	-3.1213215534	-0.3973178921	 0.852194623	 0.145741
H	-2.4913837279	 1.0601218571	 0.0500651068	 0.109318
H	-2.0098015254	-3.8096620245	-0.1462089388	 0.217018
H	 2.0872362357	-2.687723174	-0.0586837827	 0.134344
H	 2.1900777197	-0.1876350854	 0.0396060817	 0.104917
