23
gdb 119008	2.71685	1.0741	0.95811	1.6614	82.07	-0.2463	0.0785	0.3249	1381.5692	0.205375	-425.424194	-425.41424	-425.413295	-425.459458	36.39	
C	-0.1926896254	 1.3160858911	-0.3010830256	-0.22716
O	-0.0524532989	-0.0605749575	-0.047356378	-0.240247
C	-1.2836464671	-0.7517978228	-0.0447359872	-0.087592
C	-1.0305700716	-2.2442825473	 0.2049574881	 0.288996
C	-0.3027343906	-2.4549477091	 1.5357641126	-0.453913
C	-2.3871165245	-3.0050455323	 0.1107796467	-0.299637
C	-2.3277755899	-3.7230596493	-1.2592046849	-0.07074
O	-1.2504899111	-3.130343547	-1.9710998209	-0.249226
C	-0.2621428033	-2.8361126744	-0.9987474785	-0.113349
H	 0.8077100032	 1.7558142827	-0.2912347168	 0.12633
H	-0.6554924923	 1.5056238874	-1.2824319031	 0.106304
H	-0.8063906421	 1.8127089048	 0.4673935736	 0.102955
H	-1.9468009601	-0.3473228993	 0.7401314598	 0.079734
H	-1.7964395594	-0.623029859	-1.0123714453	 0.094464
H	-0.8961979673	-2.0703778572	 2.3726741366	 0.110399
H	-0.1185903075	-3.5191589825	 1.7164000389	 0.107306
H	 0.6563736114	-1.930776571	 1.5416155722	 0.133978
H	-2.5009286837	-3.7178728571	 0.9316358802	 0.100917
H	-3.2326655749	-2.3121055455	 0.1656780199	 0.101935
H	-2.146224325	-4.8011849088	-1.1218584229	 0.088129
H	-3.2329483835	-3.6052406944	-1.8605216191	 0.10588
H	 0.4524030657	-2.1342493764	-1.432700212	 0.119265
H	 0.275144258	-3.7514132251	-0.6970256741	 0.075273
