23
gdb 74488	2.66107	1.31171	0.98381	0.2861	94.51	-0.2126	0.0338	0.2464	1307.3973	0.207261	-351.175529	-351.166802	-351.165858	-351.208476	35.029	
C	 0.0123788936	 1.5245976672	-0.0320892665	-0.471532
C	-0.0116656627	 0.0214358606	 0.0177214896	 0.279692
C	-1.1522991867	-0.6766485281	-0.0050801843	-0.191117
C	-1.2277116619	-2.1591652351	 0.0002482563	 0.366336
C	-2.2180896608	-2.8109969062	 0.9555546705	-0.301922
C	-2.4872920374	-2.815411003	-0.5241603506	-0.320784
C	 0.10519614	-2.8446468716	-0.2579724917	-0.286941
C	 1.2278254098	-2.139999745	 0.5125052412	-0.214957
C	 1.3338339723	-0.6677638345	 0.0910279017	-0.28285
H	 0.5957945314	 1.8831645214	-0.8908849403	 0.118507
H	-0.9942991184	 1.9447947837	-0.1095262639	 0.115942
H	 0.4906709224	 1.9456335842	 0.8622666428	 0.117945
H	-2.1022158198	-0.1440567312	-0.0345640382	 0.068722
H	-1.9222146688	-3.7424886664	 1.4275305286	 0.109244
H	-2.819025127	-2.1635392446	 1.5849742053	 0.109415
H	-3.2754656591	-2.1743092193	-0.9056550193	 0.109061
H	-2.3768851069	-3.7514452417	-1.0624526956	 0.107928
H	 0.0482313249	-3.9040856393	 0.0159676536	 0.08643
H	 0.3290907124	-2.8077235741	-1.3333049993	 0.09515
H	 1.013582355	-2.1944721632	 1.5871440776	 0.100248
H	 2.1844032616	-2.6489306608	 0.3521982199	 0.087841
H	 1.8338163161	-0.5898580994	-0.8870843376	 0.101982
H	 1.98364486	-0.1232175436	 0.7892612801	 0.09566
