19
gdb 38474	3.49974	1.70933	1.54948	1.782	78.75	-0.2298	0.082	0.3118	926.6434	0.161683	-385.8008	-385.794414	-385.79347	-385.831019	28.034	
C	 0.0000833368	 1.5073519088	-0.1680954667	-0.290914
C	 1.3164835082	 0.797205996	 0.0239233421	-0.031841
C	 1.9091346328	 0.6827334735	 1.4455640908	-0.369455
C	 0.7746594548	 0.0382516981	 2.2102476465	 0.401615
C	 0.3238059253	-0.8633931375	 3.3872907681	-0.305847
C	-0.9248711151	-0.4106722793	 2.5553208565	 0.007128
O	-0.3717633097	 0.9483413081	 2.5547792437	-0.336003
C	-0.1345957427	-0.7389764487	 1.2454746555	 0.006781
C	-0.0043017248	-0.0008576487	-0.0697316491	-0.086345
H	-0.4118714446	 2.0894266863	 0.6423154319	 0.144129
H	-0.1822472752	 1.9066314036	-1.1613519893	 0.099876
H	 2.0186212899	 0.7943666168	-0.8029035461	 0.08148
H	 2.7883208186	 0.0289648158	 1.4389686816	 0.110126
H	 2.2035805291	 1.6462424713	 1.8724183902	 0.119852
H	 0.617777539	-1.9162682874	 3.3697706504	 0.096704
H	 0.382957977	-0.4139065412	 4.3785921979	 0.109752
H	-1.9805960199	-0.5258709774	 2.8037031187	 0.093319
H	 0.1029518392	-1.8003202688	 1.1213101343	 0.069179
H	-0.2260384889	-0.5557681794	-0.974646057	 0.080462
