14
gdb 1162	3.62044	2.08234	1.88533	2.9908	58.2	-0.2771	-0.0513	0.2257	745.6848	0.110848	-324.605178	-324.597169	-324.596225	-324.637255	27.643	
C	 0.0205168309	 1.6071031674	-0.0590987078	-0.406514
C	 0.0012568768	 0.0701474185	-0.0659964338	-0.006303
C	 0.6406561096	-0.5181288384	 1.2202063141	-0.414664
C	-1.4463032112	-0.4651286918	-0.1246781634	 0.161312
O	-2.4145010785	 0.2171227452	 0.0591966083	-0.230749
C	 0.7095533008	-0.458982679	-1.2386887854	 0.257608
N	 1.2496624959	-0.8890717647	-2.1659556072	-0.325194
H	 1.045068106	 1.9742185253	 0.0350399429	 0.133109
H	-0.4136495597	 2.0080496707	-0.9771910958	 0.146733
H	-0.5716172655	 1.9716226491	 0.7825631855	 0.142857
H	 0.1196075721	-0.1264460415	 2.0980159755	 0.142071
H	 0.5819438889	-1.6099444545	 1.2323638277	 0.142477
H	 1.6935323182	-0.2323288531	 1.2778141839	 0.149587
H	-1.5184044144	-1.5571235231	-0.3162751044	 0.107669
