19
gdb 4533	3.55893	1.65955	1.15657	1.6733	80.37	-0.1928	0.0522	0.245	1074.6895	0.165013	-327.974589	-327.96555	-327.964606	-328.008192	32.273	
C	-0.0313741375	 1.4594716265	 0.0100350811	-0.332262
N	-0.0704662821	 0.0146559683	 0.002437301	 0.01885
C	-0.0291627091	-0.7803563055	-1.1169517427	-0.189912
C	 0.0376678722	-2.0987287198	-0.7257067275	 0.184538
C	 0.0756294072	-3.2986034031	-1.6228833752	-0.500684
C	 0.0450141596	-2.1064622531	 0.7065758153	 0.184527
C	 0.0921227711	-3.3159517416	 1.590308066	-0.500683
C	-0.0177644291	-0.7923964236	 1.1126956555	-0.189908
H	 0.9957291489	 1.8453592145	 0.0063897642	 0.133107
H	-0.5502854392	 1.8469596763	-0.8705317309	 0.136604
H	-0.5403810251	 1.8373331812	 0.9005049119	 0.136608
H	-0.0523058601	-0.3420279383	-2.1032962128	 0.106295
H	 0.9769779855	-3.9027896372	-1.4601655831	 0.119259
H	-0.7818232654	-3.9629104694	-1.456568096	 0.119221
H	 0.0632887453	-3.005130508	-2.6768303101	 0.114831
H	 0.9917927113	-3.9182194301	 1.4119361154	 0.119259
H	 0.0904718605	-3.0338805429	 2.6474344644	 0.11483
H	-0.7669529574	-3.9785437147	 1.4255382493	 0.11922
H	-0.0308003064	-0.3647422694	 2.1038994742	 0.1063
