17
gdb 15807	3.55522	1.28064	1.06921	2.5491	66.04	-0.2473	0.0175	0.2649	1143.1262	0.141521	-401.011428	-401.002799	-401.001855	-401.04582	30.12	
C	 0.0900377723	 1.3775244776	-0.1319542006	-0.3727
C	 0.1026310112	-0.1200950079	 0.1792574876	-0.1435
N	 1.0410696315	-0.8556690015	-0.6508054947	-0.318625
C	 0.6633784067	-1.8340089755	-1.5120341739	 0.375201
O	-0.479364251	-2.2159980717	-1.6952788481	-0.38366
C	 1.8105321066	-2.4388289172	-2.289942808	-0.015537
C	 2.610963576	-1.6129487673	-3.2092305987	-0.166951
O	 3.1382510743	-2.0258544884	-1.9474686719	-0.238452
H	 1.0769421854	 1.8260044276	 0.0263784917	 0.113775
H	-0.2016943418	 1.5556278008	-1.1710960759	 0.128726
H	-0.6205808199	 1.8959467399	 0.5193097135	 0.121709
H	 0.3453268569	-0.2833909583	 1.2369280068	 0.109306
H	-0.8777509766	-0.5645468956	-0.0068487673	 0.149775
H	 2.0345638078	-0.7051916726	-0.5519389531	 0.258041
H	 1.6836861898	-3.4964483452	-2.5082269864	 0.124938
H	 3.0702783488	-2.0754994974	-4.0805086223	 0.131655
H	 2.389803792	-0.5510106572	-3.2979282988	 0.1263
