22
gdb 58996	3.49751	1.01635	1.00875	1.3343	88.21	-0.222	0.0214	0.2434	1339.4883	0.19494	-367.204563	-367.195596	-367.194652	-367.238332	34.806	
C	 0.0051476439	 1.5553302145	-0.0656316686	-0.389367
C	 0.0474017937	 0.0180469181	 0.015494149	-0.073367
C	 0.7051936809	-0.5771066312	-1.2450279497	-0.385892
C	 0.7240735918	-0.4597315385	 1.2737969221	 0.347206
C	 0.1937748633	-1.2702413842	 2.1981006089	-0.189612
C	 1.1847942812	-1.6190457548	 3.253868586	-0.075442
N	 2.3636387389	-2.3582365742	 2.7056472376	-0.337074
C	 2.4335332145	-0.8932856494	 2.8985943057	-0.041687
C	 2.1620873315	-0.0905924068	 1.6320230392	-0.31319
H	 1.0133214525	 1.9786964525	-0.1342508624	 0.115493
H	-0.5487109745	 1.8792034442	-0.9529386466	 0.110428
H	-0.4815053896	 1.9860273531	 0.814925053	 0.114652
H	-0.9880147879	-0.344925926	 0.0506745823	 0.073743
H	 1.7361547361	-0.2251948409	-1.3594287199	 0.114861
H	 0.7265296952	-1.6696608201	-1.1995346609	 0.123618
H	 0.1530660165	-0.2797836624	-2.1429104763	 0.108584
H	-0.8129460823	-1.6718513029	 2.1685043439	 0.086325
H	 0.8828855955	-1.8127083137	 4.2777638815	 0.083492
H	 2.8553221139	-2.7980365104	 3.4829249237	 0.222733
H	 3.1075111714	-0.5007236033	 3.6524310058	 0.083228
H	 2.8664233922	-0.3494338492	 0.8329458705	 0.118344
H	 2.2679641313	 0.9868619156	 1.8143761551	 0.102924
