23
gdb 101848	3.30768	0.78069	0.71492	1.302	83.85	-0.2408	0.0823	0.3231	1717.7918	0.202802	-425.390556	-425.379811	-425.378867	-425.42771	38.239	
C	 0.2585536156	 1.1417727425	-0.4815628156	-0.231504
O	 0.1274501557	-0.2378589049	-0.2404402707	-0.245303
C	-1.1902210888	-0.6653026493	 0.0742805066	 0.128985
C	-2.122387011	-0.6514322765	-1.1408862996	-0.399557
C	-1.0656866135	-2.0519653552	 0.6954285903	-0.068605
O	-0.711661566	-2.9895164551	-0.3031392541	-0.247853
C	-0.4790585519	-4.2666648073	 0.1972175142	 0.154635
C	 0.457512813	-5.1248551779	-0.587201146	-0.288172
C	 0.8771241588	-4.5933674972	 0.7705302344	-0.288172
H	 1.3268816523	 1.349885915	-0.5835310442	 0.125345
H	-0.2453558343	 1.4649011885	-1.4041259622	 0.106471
H	-0.1389752467	 1.741229848	 0.3538625755	 0.098053
H	-1.6040898642	-0.004419066	 0.8570138271	 0.058447
H	-1.7273309942	-1.3052116298	-1.9206627884	 0.143859
H	-3.1176712972	-1.0098526954	-0.858689916	 0.111645
H	-2.2367200167	 0.3581544109	-1.5444470845	 0.110769
H	-0.3019651142	-2.0232888699	 1.4852909349	 0.097722
H	-2.0272530284	-2.3290517121	 1.1593960447	 0.080654
H	-1.3515482079	-4.7357029339	 0.6559634138	 0.078155
H	 0.2298943812	-6.1796252354	-0.6919172891	 0.111427
H	 0.9125603339	-4.6660369251	-1.4573572252	 0.127378
H	 1.6068669352	-3.7914954826	 0.7770540794	 0.126049
H	 0.9420436492	-5.2811507612	 1.6065468848	 0.109573
