19
gdb 60298	5.70469	0.52248	0.49545	1.6732	95.98	-0.2422	-0.0208	0.2214	2203.2356	0.154936	-385.830537	-385.819843	-385.818899	-385.86737	37.817	
C	-0.1952483274	 1.4695222226	-0.0343935415	-0.397556
C	 0.0328848555	-0.0446023999	-0.0085252633	 0.17515
C	 0.8558506646	-0.5231055753	-1.1986219388	-0.391716
O	 0.7479464844	-0.4578377272	 1.1570297003	-0.257854
C	-0.0138760576	-0.4427742641	 2.3463445076	-0.250792
C	 0.7464936233	-1.0522935598	 3.4276681136	 0.323789
C	 1.3512244768	-1.5491745632	 4.3495081898	-0.16781
C	 2.0374536208	-2.1096292552	 5.3820492535	 0.290667
C	 2.6443285582	-2.6063937791	 6.3001061761	-0.555842
H	 0.7639220319	 1.9959460408	-0.0018804452	 0.127339
H	-0.7179274247	 1.7581208378	-0.9517887945	 0.117931
H	-0.8029061228	 1.8096634792	 0.8093808376	 0.116865
H	-0.9461448492	-0.5542477367	-0.0185964036	 0.065659
H	 1.8385275826	-0.0412518039	-1.1977219872	 0.127056
H	 1.0050060035	-1.6045473557	-1.148978158	 0.125391
H	 0.3513746334	-0.2798350921	-2.1383041763	 0.113487
H	-0.2912193613	 0.5828366742	 2.6401676316	 0.125232
H	-0.9599266225	-0.9959160713	 2.2076356593	 0.120952
H	 3.1806588905	-3.0433581509	 7.105401379	 0.192053
