18
gdb 75989	1.9809	1.66684	1.0965	3.7079	76.37	-0.2553	-0.037	0.2183	1149.406	0.145772	-401.981453	-401.971954	-401.97101	-402.016216	33.807	
C	-1.0955924864	 1.1085616355	-0.4306642326	-0.415735
C	-0.1347150741	-0.0666071446	-0.3369659171	-0.106925
C	 0.8421533627	-0.43344245	-1.5269562659	-0.232289
C	 1.0357794152	 0.6375371153	-2.4897981767	 0.304976
N	 1.1921433319	 1.497058406	-3.2477839659	-0.334043
C	 2.0296962228	-0.5990201688	-0.4939071671	-0.106918
C	 3.4017461615	 0.0021914016	-0.7567504454	-0.415736
C	 1.1175405211	 0.0754400477	 0.5447510036	 0.39737
O	 1.3270307628	 0.6193875887	 1.5886545454	-0.292599
H	-0.586273858	 2.0127617045	-0.774057846	 0.147935
H	-1.9165685197	 0.8969370819	-1.1217334726	 0.130367
H	-1.5198900687	 1.3121791624	 0.5564615764	 0.141295
H	-0.6690882225	-0.9783781469	-0.0435261328	 0.118113
H	 0.5786583354	-1.3465110577	-2.0634847238	 0.12648
H	 2.1170932157	-1.6637608642	-0.2455442499	 0.118113
H	 3.3260602197	 1.0503990887	-1.0574788274	 0.14793
H	 4.0020721713	-0.0464797854	 0.1560183072	 0.141293
H	 3.9295443995	-0.5411328346	-1.5457951093	 0.13037
