16
gdb 38336	4.11152	1.45455	1.22392	2.9846	69.37	-0.2405	0.0105	0.251	989.1889	0.125494	-437.816049	-437.809378	-437.808433	-437.847256	26.331	
C	-0.0192962393	 1.6515950899	 0.0583034735	-0.244111
C	 1.4547892064	 1.1781022461	-0.0063756372	-0.009503
O	 1.1447347137	 0.1941069954	 1.0485351204	-0.296446
C	 0.0233850163	 0.1029752027	 0.0938170709	-0.009501
C	 1.0518655482	 0.1194933627	-1.0789417759	 0.366029
C	 0.6471746641	 0.5240868825	-2.5191267999	-0.197068
O	 1.3177041242	-0.4465046872	-3.3537283633	-0.223248
C	 1.982594323	-1.251159955	-2.4894342543	 0.097868
N	 1.9118620401	-1.040648206	-1.2415164242	-0.301278
H	-0.2977359162	 2.1106495886	 1.0062949061	 0.116995
H	-0.4599395003	 2.1577949823	-0.805132602	 0.099257
H	 2.3811842065	 1.7462041157	 0.0838891636	 0.100471
H	-0.7668979383	-0.6183212286	 0.3042433289	 0.100471
H	-0.427830607	 0.4529160374	-2.7082187919	 0.127816
H	 0.9937781677	 1.520597877	-2.8077305131	 0.127815
H	 2.546417441	-2.0461303235	-2.9645358916	 0.144434
