19
gdb 61056	2.93109	1.14659	0.88913	2.3739	72.3	-0.2542	-0.0378	0.2164	1304.5357	0.157173	-460.150065	-460.140604	-460.139659	-460.185382	33.768	
C	-0.3112199927	 1.509209406	-0.1566279129	-0.410406
C	 0.0337878462	 0.0272727254	-0.1234219522	-0.048123
C	 1.4053578336	-0.4130016964	-0.6879928681	-0.079402
O	 1.7844158487	-1.0188547915	 0.5693714502	-0.299951
C	 0.5471837911	-0.6185713968	 1.1936474686	 0.108313
C	 0.7996669182	 0.2915210259	 2.4068378572	 0.024299
O	-0.4161054448	 0.7168060291	 2.9563469591	-0.436558
C	 1.6208882128	-0.4514628685	 3.441503944	 0.129008
O	 1.2150128913	-0.596220202	 4.5712719623	-0.266919
H	 0.5227624882	 2.1305606539	 0.1855221472	 0.118208
H	-0.5534681846	 1.819779092	-1.1783947868	 0.115089
H	-1.1718589678	 1.7249600105	 0.4818603651	 0.145733
H	-0.7915465165	-0.55232751	-0.5439260909	 0.089213
H	 1.3846767634	-1.1466752074	-1.5017810811	 0.107125
H	 2.0823722455	 0.4060853607	-0.9633956846	 0.102087
H	-0.0398258325	-1.4836253097	 1.5289607652	 0.08666
H	 1.4108237685	 1.1489125577	 2.0758258214	 0.094221
H	-0.3952566429	 0.4259545021	 3.8832993102	 0.296428
H	 2.5941558841	-0.8514572612	 3.1047609763	 0.124974
