22
gdb 17815	4.11124	1.23788	1.06584	0.1274	82.83	-0.2567	0.0873	0.344	1203.7397	0.200996	-313.050873	-313.042373	-313.041429	-313.084104	32.39	
C	 0.0220356277	 1.5680508018	-0.2735011878	-0.406512
C	 0.0130694282	 0.0695383135	-0.0598098449	 0.006204
C	 1.2820378673	-0.7419615325	-0.1568243577	-0.308731
C	 0.5832169049	-0.5942667572	 1.1778582379	-0.010205
C	 1.2147485118	 0.1661400173	 2.3111585173	 0.054767
C	 0.3285617377	 0.624683388	 3.5083788052	-0.229531
C	 1.4979039627	 0.267545117	 4.4640621213	-0.209358
C	 2.0993185263	-0.6099346117	 3.3337209425	-0.229339
H	 0.9427602468	 2.0293367054	 0.0949292595	 0.115823
H	-0.0560222335	 1.8069742636	-1.3401245975	 0.114442
H	-0.8185986741	 2.0516337651	 0.2370044063	 0.115555
H	-0.8748232422	-0.4163940047	-0.4575901965	 0.078922
H	 1.260241341	-1.7027024364	-0.6599301489	 0.105011
H	 2.2110101609	-0.1947874095	-0.2907233955	 0.104548
H	 0.0344924237	-1.4732944048	 1.5127003025	 0.070366
H	 1.780197777	 1.0223124564	 1.9284712165	 0.061518
H	-0.0425364681	 1.652881841	 3.5056610725	 0.092005
H	-0.5231952985	-0.0500730213	 3.6453542875	 0.09512
H	 2.1256579074	 1.1377682917	 4.6776340769	 0.098716
H	 1.2516564355	-0.2200467616	 5.4102288322	 0.093203
H	 1.776306055	-1.6529273298	 3.4188388824	 0.095399
H	 3.1823949327	-0.5950805714	 3.1876063783	 0.092079
