22
gdb 104788	2.19237	1.47298	1.07252	1.4539	81.35	-0.2286	0.0617	0.2904	1217.7319	0.193881	-404.297825	-404.288324	-404.28738	-404.332113	36.194	
C	 0.6478444026	-0.5042321749	 1.5453441828	-0.394224
C	 0.0541284692	-0.1733939307	 0.1705598715	-0.254205
C	-1.3830475565	-0.6578618824	-0.0481281137	 0.32461
C	-2.3918354359	-0.054977064	 0.9335310863	-0.128429
O	-2.55393335	 1.3477580824	 0.7856919094	-0.425304
C	-1.9231500949	-0.5549939083	-1.5289178353	-0.287418
C	-2.1247669864	-2.0713881391	-1.5237751966	-0.035771
N	-0.784136213	-2.667469591	-1.2961446472	-0.341285
C	-1.5845242305	-2.1884244267	-0.1434496128	-0.100832
H	 1.6967246282	-0.196452048	 1.5969265353	 0.115125
H	 0.1209510056	-0.0019837301	 2.3638895458	 0.10897
H	 0.6118179068	-1.5814377689	 1.7412825551	 0.120989
H	 0.099497877	 0.910992156	-0.0061663004	 0.081733
H	 0.6739780194	-0.6300257775	-0.6065385911	 0.124491
H	-3.3818457887	-0.4864055049	 0.7479859293	 0.103395
H	-2.1185786008	-0.3169088186	 1.9676234915	 0.087761
H	-1.7180729174	 1.7678367087	 1.0099516963	 0.285575
H	-2.8454278717	 0.0254991272	-1.5866303678	 0.114589
H	-1.2142329799	-0.1901912761	-2.2764915016	 0.100407
H	-2.9026857279	-2.6437381528	-2.0142063672	 0.090225
H	-0.8959070394	-3.6806627075	-1.3318922352	 0.226349
H	-1.8583455158	-2.8652350526	 0.6584658155	 0.083249
