17
gdb 79767	2.75864	2.03818	1.89662	2.1081	67.96	-0.2307	0.078	0.3087	824.8089	0.139381	-421.806072	-421.79999	-421.799046	-421.836234	26.242	
O	 0.1849243115	 1.3731802187	-0.2366722132	-0.444367
C	 0.0357936374	-0.0214117384	-0.0212192366	 0.137757
C	 0.641763859	-0.5030927993	 1.296957228	-0.151871
C	-0.164112942	-0.1252381266	 2.5139058844	 0.073433
O	-1.344968626	 0.6157952616	 2.2926469467	-0.260507
C	-2.1101438685	-0.0977172414	 1.3450657148	 0.073433
C	-1.5843368996	-1.5016636414	 1.1678635305	-0.118893
C	-0.2837803512	-1.5200559063	 1.9490157474	-0.118892
C	-1.4222529636	-0.4739019594	 0.0572505956	-0.151872
H	-0.2535561133	 1.8104349462	 0.5036545022	 0.290234
H	 0.5386068207	-0.4977128325	-0.8695784183	 0.088892
H	 1.719601104	-0.5743405055	 1.3870983891	 0.09142
H	 0.3079616291	 0.1174550818	 3.4577666109	 0.10586
H	-3.1598718741	 0.1664970664	 1.3748891024	 0.10586
H	-2.2183647763	-2.3748916702	 1.1002917292	 0.094047
H	 0.0554252443	-2.407047391	 2.4659978205	 0.094047
H	-2.0094042217	-0.5216013727	-0.8526467935	 0.09142
