24
gdb 10219	2.72047	1.14675	0.86691	1.1355	82.97	-0.2515	0.086	0.3375	1440.4565	0.221253	-351.404922	-351.394056	-351.393112	-351.441459	38.015	
C	 0.2528900513	 2.1202356914	-0.5192380801	-0.389137
C	-0.0112473357	 0.6212793536	-0.3456975168	-0.182418
C	 0.713696439	-0.2753249754	-1.3728710992	 0.018048
C	 2.2279616307	-0.3638750272	-1.0796405491	-0.165841
C	 3.1086266255	-0.7364578996	-2.2779250861	-0.383823
C	 0.0350752284	-1.6473067005	-1.3905985057	-0.054769
O	 0.5710156651	-2.4627036825	-2.4120481475	-0.229236
C	-0.0253189768	-3.7351898832	-2.4620210975	-0.228484
H	 1.314753119	 2.3668580576	-0.4215545196	 0.120306
H	-0.0765523567	 2.4643498719	-1.505867	 0.115096
H	-0.2881077191	 2.7020685744	 0.2336699935	 0.111589
H	 0.2764521158	 0.3105957504	 0.668052792	 0.094231
H	-1.0929886851	 0.4494999411	-0.4180196584	 0.089597
H	 0.574589108	 0.1669090352	-2.3699841641	 0.074189
H	 2.5682505588	 0.6013387151	-0.6865845159	 0.090446
H	 2.3833335437	-1.0865123826	-0.2662843563	 0.088396
H	 4.1653793155	-0.7569409091	-1.9908632237	 0.099587
H	 2.8362031834	-1.7133520714	-2.6790465642	 0.137913
H	 2.9999863495	-0.0016908343	-3.0839896477	 0.106145
H	 0.1613133566	-2.1384828611	-0.4080381708	 0.079439
H	-1.0507364812	-1.5233229059	-1.5479072742	 0.078752
H	 0.1244547821	-4.2957082435	-1.5251597878	 0.102322
H	-1.1093400792	-3.6706235951	-2.6496657999	 0.102109
H	 0.4420078313	-4.2865374393	-3.281685381	 0.125542
