18
gdb 87650	2.62677	1.2542	1.0752	1.6011	73.17	-0.2396	-0.0346	0.2049	1188.1056	0.145533	-439.060075	-439.050898	-439.049954	-439.094147	33.738	
C	-0.1046066883	 1.4253056563	-0.162968175	-0.395628
C	 0.02756416	-0.0653926309	 0.0231598081	-0.065996
N	 1.3941709406	-0.6307749968	-0.0769964773	-0.395577
C	 0.6908981381	-0.6819863684	 1.1937432538	 0.282825
C	 1.1297638245	-0.0249884773	 2.5128543551	-0.419258
C	 0.2178548249	-1.05775195	 3.2031156055	 0.338335
O	-0.4220330485	-1.0696383201	 4.2150595978	-0.296207
C	 0.1719317436	-1.9390803558	 1.9371793367	-0.025313
O	-1.0061571188	-2.5882420748	 1.5650610306	-0.419873
H	 0.7473432054	 1.9482006239	 0.2793882596	 0.129326
H	-0.1369724552	 1.6788271359	-1.2276485705	 0.127103
H	-1.0242884876	 1.7998982018	 0.2999331828	 0.117325
H	-0.7738034018	-0.663806471	-0.4090141335	 0.097141
H	 1.3700134274	-1.5422872306	-0.5302225895	 0.235188
H	 2.1908977489	-0.1727077938	 2.7393691918	 0.139437
H	 0.869368829	 1.02188022	 2.6815371186	 0.137967
H	 0.9692595687	-2.6953465606	 1.9768275987	 0.118271
H	-1.7482740907	-2.1006344076	 1.9406943966	 0.294934
