19
gdb 96619	2.66005	1.10485	0.86429	3.7713	76.36	-0.2499	-0.0634	0.1865	1379.3297	0.156585	-456.36987	-456.35934	-456.358396	-456.405425	37.808	
C	 0.0391030837	 1.3989985692	 0.0173845781	-0.345963
N	 0.0465353996	-0.051303622	-0.0054991643	-0.272433
C	-1.0853147984	-0.64634979	 0.0607946354	 0.284846
N	-2.3324805631	-0.0972551619	 0.1799730894	-0.551243
C	-1.1048088675	-2.1553455887	 0.0165953208	 0.33407
O	-2.1678222215	-2.744797226	-0.0584365679	-0.356399
C	 0.2012350973	-2.9364935704	 0.0625542396	 0.062088
C	 0.8169087786	-2.8680558379	 1.4732035819	-0.403317
O	-0.0395850951	-4.2700513172	-0.3199042266	-0.442431
H	 1.064869496	 1.7723973588	-0.011764806	 0.13232
H	-0.4938376891	 1.8235306702	-0.8493339502	 0.114701
H	-0.4452096076	 1.7947827072	 0.9237498085	 0.122062
H	-2.4765228159	 0.8682594192	-0.060241271	 0.261592
H	-3.1022945446	-0.7331295944	 0.0334803638	 0.273063
H	 0.8996235272	-2.4748500705	-0.644613125	 0.113839
H	 0.1106558418	-3.2475858261	 2.2187653148	 0.116621
H	 1.7053476311	-3.503973847	 1.491593205	 0.131596
H	 1.0990441367	-1.8441777831	 1.7248293576	 0.136694
H	-0.9990250091	-4.3925714695	-0.2669749537	 0.288293
