16
gdb 29405	3.77057	1.0589	0.83098	2.6765	76.55	-0.2019	-0.005	0.197	1332.162	0.124421	-437.944992	-437.936569	-437.935625	-437.978529	30.55	
C	 0.3958894126	 1.4083753579	-0.0290466726	-0.50011
C	-0.0664480653	-0.01455245	-0.0639670408	 0.275608
C	-1.0547165686	-0.5375998131	-0.8325405226	-0.12281
O	-1.1958102546	-1.8843256628	-0.5919040049	-0.198468
C	-0.272070299	-2.1969155438	 0.3473348398	 0.475949
N	-0.2733332728	-3.5356975295	 0.7146955842	-0.406095
C	 0.5614147326	-4.1009133091	 1.6412248642	 0.144278
O	 1.412343372	-3.5071785024	 2.2636009469	-0.300601
C	 0.4536253973	-1.1092951537	 0.7178098687	-0.385093
H	 1.4553820607	 1.4899851553	-0.2963188637	 0.133638
H	-0.1745751927	 2.0274552222	-0.7268398861	 0.123717
H	 0.2834938724	 1.8396465936	 0.9719500146	 0.133635
H	-1.7269375363	-0.1264868172	-1.5663341946	 0.132228
H	-0.9508283554	-4.1220011803	 0.2506492658	 0.26524
H	 0.3603019239	-5.1826987917	 1.7533096261	 0.088436
H	 1.2453009333	-1.0976868853	 1.4458745052	 0.140447
