15
gdb 9110	3.60521	1.34023	1.01346	4.0287	70.89	-0.246	-0.0657	0.1803	1124.5421	0.11796	-395.989785	-395.981278	-395.980334	-396.023561	29.284	
C	-0.8697763358	 0.8605138907	-1.0589511234	-0.317004
N	-0.4259427696	-0.3933996294	-0.4898662454	-0.208211
C	 0.8164370422	-0.5714875027	-0.3234318192	 0.094295
N	 1.3498621204	-1.7543538436	 0.1546475905	-0.333116
C	 0.6092396605	-2.8602454742	 0.5667626633	 0.278055
N	 1.0779993662	-3.6293492535	 1.4653281847	-0.482192
C	-0.6720028368	-3.1781021262	-0.1890714473	 0.127479
O	-1.482256675	-3.9387224726	 0.2751463697	-0.253236
H	-0.0495576482	 1.5698934413	-1.2537902594	 0.101775
H	-1.3954646459	 0.676561659	-2.0032295537	 0.132411
H	-1.5881495517	 1.3362887671	-0.3823167391	 0.135358
H	 1.5854200777	 0.1796064114	-0.5482880762	 0.100276
H	 2.2760785841	-1.7125102148	 0.5568988417	 0.263856
H	 0.4254502947	-4.4059402112	 1.5963479228	 0.245547
H	-0.7734899328	-2.7374260513	-1.193136429	 0.114708
