21
gdb 102697	2.73895	0.81571	0.68879	4.7245	77.11	-0.2617	-0.002	0.2597	1675.6797	0.180208	-461.383748	-461.373012	-461.372067	-461.421162	37.222	
C	-0.0539651231	 1.4275399278	 0.3558150141	-0.390857
C	-0.0637825556	-0.0072996075	-0.1818629784	-0.187863
C	-1.4626847756	-0.6551405507	-0.2322208625	-0.009665
C	-2.3175798733	-0.0856242373	-1.3823544468	-0.054015
O	-3.6965257189	-0.361035398	-1.2668144883	-0.428108
C	-1.2976109246	-2.1717288833	-0.3517869621	-0.105446
O	-2.5696270316	-2.8392643672	-0.4651892269	-0.196871
C	-2.9782721012	-3.6338948838	 0.5457532608	 0.175697
O	-4.0431492524	-4.1705676555	 0.5507005758	-0.269958
H	 0.9651076341	 1.8250668723	 0.3784503409	 0.118964
H	-0.6554971966	 2.1026452669	-0.2597196303	 0.12877
H	-0.4506195137	 1.4673977145	 1.375802292	 0.121907
H	 0.3780503076	-0.0300907595	-1.1874143707	 0.103252
H	 0.5941698003	-0.6215989258	 0.446722823	 0.095962
H	-1.9935460732	-0.4408914116	 0.7053223134	 0.087326
H	-2.2333023342	 1.0052058571	-1.3928003462	 0.108908
H	-1.9054815022	-0.4456685212	-2.3423635445	 0.082154
H	-3.7997113818	-1.3189723238	-1.2400158187	 0.296302
H	-0.738047907	-2.4279839133	-1.2582986812	 0.125591
H	-0.7509545256	-2.5755898804	 0.5099681742	 0.112221
H	-2.2177000615	-3.7295014897	 1.3444593525	 0.085729
