17
gdb 72631	2.59861	1.44508	1.24862	3.3169	74.42	-0.2387	0.0232	0.2619	1063.74	0.135256	-417.984254	-417.975253	-417.974309	-418.01768	33.43	
N	-0.0914545124	 1.4831557589	 0.1340056187	-0.591983
C	-0.0491824147	 0.070383298	 0.0876552922	 0.273829
C	 0.7511302213	-0.8185175649	 1.0502092283	-0.267271
C	-0.4541702445	-1.8244611709	 1.0905806584	-0.299738
C	-1.1871003644	-0.9144185281	 0.1004411814	 0.371964
O	-2.5291363844	-0.6181118222	 0.1187125089	-0.45368
C	-0.34870042	-0.8014920834	-1.1783804127	-0.341826
C	-0.9509866481	-0.1218250705	-2.2817413747	 0.271713
N	-1.4371520175	 0.433121318	-3.174771113	-0.340109
H	 0.6130201975	 1.9099467133	-0.4598622834	 0.243176
H	-0.9980386897	 1.828362759	-0.1648585719	 0.257257
H	 1.7012663009	-1.2069376606	 0.6739649793	 0.103599
H	 0.9146569992	-0.3227677291	 2.0081111342	 0.126123
H	-0.2687996183	-2.8541724474	 0.7703008742	 0.10188
H	-0.9458891053	-1.8314507699	 2.0650947778	 0.125363
H	-2.9884550847	-1.147819038	-0.5430498132	 0.301043
H	 0.322067275	-1.612370092	-1.4542490746	 0.118658
