15
gdb 18549	4.34269	1.96815	1.55274	2.5435	66.54	-0.2309	-0.0267	0.2041	807.4034	0.120075	-362.658472	-362.652169	-362.651225	-362.689025	24.381	
O	 0.0592124267	 0.1189010075	-0.9130626116	-0.281489
C	 0.0226905599	 1.1469225036	-0.3103603664	 0.392807
C	-1.0655800548	 1.965059401	 0.4019059407	-0.299852
N	-0.0865012731	 3.069670133	 0.5923998738	-0.098183
C	 0.2184296995	 3.4124778783	 1.9937183027	-0.222634
C	 1.4409909231	 2.5924379473	 2.3366145448	-0.069423
C	 1.9074235299	 1.9472728519	 1.2678708471	-0.084478
C	 1.0506370562	 2.2389768072	 0.0659687702	-0.152685
H	-1.9340579686	 2.228651209	-0.2112789538	 0.135105
H	-1.4202480264	 1.4941283455	 1.3302688432	 0.12464
H	 0.4141789491	 4.4884656257	 2.1068691705	 0.115589
H	-0.6443272161	 3.1865896496	 2.6355345649	 0.110564
H	 1.8832789043	 2.5769302072	 3.3259193065	 0.106772
H	 2.7830215025	 1.3121405061	 1.2258207517	 0.115485
H	 1.6056117376	 2.662611607	-0.7807858741	 0.107783
