15
gdb 117036	4.85574	0.75245	0.65685	2.8905	64.46	-0.2478	-0.1304	0.1174	1618.6213	0.107362	-494.894063	-494.883989	-494.883045	-494.931263	32.476	
C	 0.0046315145	 1.4087250014	 0.0448407955	-0.229341
O	-0.003507656	-0.0022209023	-0.0092870676	-0.218354
C	 0.6444393874	-0.5880490482	 1.0734337288	-0.150811
C	 0.5934201206	-2.0967995871	 0.9427826153	 0.248432
O	 0.0682677908	-2.6927208573	 0.0344788961	-0.253903
C	 1.2764431645	-2.8772897127	 2.078992916	 0.205492
O	 1.8104481974	-2.3157300589	 3.0016739473	-0.244193
C	 1.2445114753	-4.4233969099	 1.9795448869	 0.087534
O	 1.756704657	-5.0963684261	 2.8319330511	-0.205476
H	 1.0295378389	 1.8099993389	 0.0376890935	 0.112519
H	-0.5235575166	 1.7653926559	-0.8415146453	 0.139896
H	-0.5080880935	 1.7841313122	 0.9435592706	 0.112522
H	 1.7051062176	-0.287043169	 1.1517158183	 0.129962
H	 0.1913704205	-0.3131612638	 2.0434545388	 0.129973
H	 0.7333268716	-4.8446716432	 1.0969488747	 0.135747
