17
gdb 3318	5.98608	1.85041	1.67139	1.762	63.49	-0.2495	0.0885	0.338	801.7565	0.14824	-309.682445	-309.675545	-309.674601	-309.713276	25.884	
C	 0.0301390596	 1.5110032831	 0.1166611221	-0.380417
C	-0.1210757956	-0.0012197987	-0.0750796378	-0.18689
C	 0.6812504599	-0.54075303	-1.2533597481	 0.010134
C	 2.2586361978	-0.5504524145	-1.1658628035	-0.270259
C	 2.211429978	-2.0705601381	-1.3605154425	 0.036324
O	 1.4252392591	-2.6081425343	-0.2893758214	-0.245636
C	 0.7423762577	-2.0703801395	-1.4289381513	 0.007042
H	 1.0753586974	 1.7875097148	 0.2928468123	 0.117343
H	-0.3115569723	 2.0609679294	-0.7676555512	 0.110631
H	-0.5540962212	 1.862353964	 0.9727462461	 0.113389
H	 0.1962507135	-0.5299799299	 0.8304741305	 0.113334
H	-1.1811987739	-0.2470243963	-0.2238145438	 0.091921
H	 0.3656186932	-0.0622460219	-2.1874813571	 0.072027
H	 2.7318772913	-0.0145663563	-1.9918208214	 0.104145
H	 2.6995097343	-0.2261225493	-0.2195197452	 0.108461
H	 2.9416296082	-2.7300598078	-1.8150123883	 0.101792
H	 0.0523524231	-2.7293710148	-1.9445450393	 0.096661
