20
gdb 102739	2.90692	0.86088	0.73591	3.224	79.53	-0.2784	0.0271	0.3055	1579.7757	0.170449	-403.14785	-403.138049	-403.137105	-403.183426	35.282	
O	 0.1185477505	 1.3521696067	-0.123287175	-0.416873
C	 0.0757914524	-0.0485495126	 0.0118130947	-0.070413
C	-1.3652445949	-0.6145146375	-0.008858311	-0.145402
C	-1.3876683076	-2.1567924411	 0.0864068673	-0.232882
C	-2.7742983972	-2.7505894542	-0.0278952566	 0.021843
C	-3.3911427601	-2.9836049596	-1.385843587	-0.258465
C	-2.9573985427	-4.155522623	-0.5393904786	-0.27893
C	-2.1290728489	 0.0040527934	 1.0786000349	 0.266044
N	-2.6855922323	 0.5156205158	 1.9540869352	-0.337766
H	-0.2808999353	 1.7425420357	 0.662664868	 0.298609
H	 0.6162866352	-0.459089233	-0.8465664171	 0.120365
H	 0.5846011592	-0.3926029212	 0.9250311242	 0.105628
H	-1.8327854198	-0.304865399	-0.9512294594	 0.136503
H	-0.7538968349	-2.5457578216	-0.7199591265	 0.104501
H	-0.9205533317	-2.462743692	 1.0306884537	 0.117052
H	-3.4580239115	-2.4378320482	 0.7566036899	 0.108316
H	-4.4520942537	-2.7991524295	-1.5102178882	 0.12004
H	-2.7952579656	-2.7480705225	-2.2623438222	 0.110209
H	-2.0723629234	-4.7021729807	-0.848683425	 0.112458
H	-3.7215890378	-4.7734951559	-0.0818208615	 0.119163
