18
gdb 45854	2.54027	1.73449	1.1649	2.5313	77.43	-0.2516	-0.0265	0.2251	1061.7393	0.149163	-401.959362	-401.951553	-401.950609	-401.992182	30.062	
O	 0.0360641354	 0.1171877504	 0.5930250692	-0.34132
C	-0.0016729852	 1.2429475499	 0.1401226516	 0.328956
C	-1.3241225838	 1.89999239	-0.234080651	-0.367201
C	-1.2127528372	 3.2490502377	-0.8863534886	-0.060773
C	-0.0613485456	 3.7958425445	-1.2694853997	-0.060296
C	 1.2761238442	 3.13172204	-1.0887083148	-0.352214
C	 1.2547950252	 2.0531038833	-0.0200318387	 0.238912
C	 2.0108968466	 2.2192794571	 1.2699597718	-0.255047
N	 2.5112777215	 1.3386037134	 0.2219994596	-0.350937
H	-1.8715603732	 1.1926446768	-0.8724440539	 0.144285
H	-1.9213816162	 1.9556360657	 0.687153518	 0.143785
H	-2.147125203	 3.7767781922	-1.0598172376	 0.093771
H	-0.0641619605	 4.7645063342	-1.7620560974	 0.094862
H	 1.6013783942	 2.6856952495	-2.0401129368	 0.129072
H	 2.0435403597	 3.8737727418	-0.8423342875	 0.116613
H	 2.5713095495	 3.1386839306	 1.420519443	 0.122344
H	 1.5885270046	 1.7755132628	 2.1674630766	 0.12772
H	 2.2649658038	 0.3763835299	 0.4600491262	 0.247469
