16
gdb 129761	3.30136	1.66077	1.24943	2.8618	76.62	-0.1938	0.0041	0.198	987.6846	0.127174	-396.86931	-396.862288	-396.861344	-396.90059	27.827	
N	-0.0946434229	 1.4095470985	-0.2225138271	-0.609386
C	-0.0880396127	 0.0227813039	-0.0335096047	 0.101367
C	-1.1199611719	-0.8541912738	 0.2444089376	 0.163832
C	-2.4853867932	-1.4111945499	-0.1054823161	-0.200469
C	-2.3456930235	-2.1578046658	-1.4264613911	-0.269988
C	-1.8036427542	-2.7799590913	-0.166402743	-0.002222
N	-0.5649844343	-2.1147739077	 0.2598228666	 0.047851
N	 0.7350758195	-2.1467342689	-0.0874403416	-0.268732
C	 1.0426308073	-0.848852832	-0.1682286877	-0.047426
H	 0.7678021419	 1.8534286237	 0.0649748889	 0.246302
H	-0.8732071179	 1.8673331243	 0.2309150356	 0.247048
H	-3.4404722628	-1.1670496984	 0.3382095785	 0.107897
H	-3.2524643731	-2.6146514334	-1.8156073748	 0.12113
H	-1.6600333872	-1.7870466539	-2.181303116	 0.140589
H	-2.1057323735	-3.7348934453	 0.2418362097	 0.119986
H	 2.0733210285	-0.5479974701	-0.3075874549	 0.102222
