14
gdb 2165	3.92324	3.19785	1.83245	4.7708	54.09	-0.2473	0.0552	0.3025	675.3106	0.115137	-361.764434	-361.757801	-361.756857	-361.795133	23.038	
C	-0.0547729767	 1.4091686611	 0.0374693155	-0.338178
N	-0.0289184203	-0.0318740964	 0.1274707267	-0.127723
C	-1.1978551492	-0.8533294396	-0.0969813855	-0.187648
C	-0.5790342707	-2.2570562187	 0.029300355	-0.088634
O	 0.8186111727	-2.0674036679	-0.2159527604	-0.242379
C	 1.1309923689	-0.7404335818	-0.0908970092	 0.488431
O	 2.2519538191	-0.3150192154	-0.1632675645	-0.401372
H	 0.9735151706	 1.764889727	 0.1167168264	 0.169183
H	-0.476500933	 1.7478732211	-0.9195919051	 0.120402
H	-0.6509403126	 1.8389618315	 0.849557391	 0.12605
H	-1.9781686216	-0.6750822412	 0.6502578901	 0.119992
H	-1.633503099	-0.6750722481	-1.0926040584	 0.110099
H	-0.7095366784	-2.665359994	 1.0376235255	 0.123038
H	-0.9688849999	-2.9709120276	-0.698419577	 0.128738
