18
gdb 5934	3.91375	1.02642	0.98244	2.7465	73.	-0.2472	0.0356	0.2828	1281.2209	0.150172	-384.91528	-384.905067	-384.904123	-384.951126	35.686	
C	 0.0293328991	 1.4684423235	-0.0163859076	-0.500392
C	 0.0354475257	 0.0130038766	 0.0128207544	 0.04652
C	 0.0437544006	-1.1915121996	 0.037356361	 0.083978
C	 0.0563166379	-2.6579136731	 0.0665807376	 0.111422
C	-1.3578230838	-3.2299665432	-0.1178266824	-0.413468
O	 0.9390489588	-3.1835948837	-0.94145027	-0.460824
C	 0.6930915681	-3.1579839172	 1.3838419196	-0.04859
O	 0.8165303704	-4.562718503	 1.3922970713	-0.426682
H	 0.9000218578	 1.8569819282	-0.5558819616	 0.152088
H	-0.8688978478	 1.8555598616	-0.5097686726	 0.149356
H	 0.0566005733	 1.8834223201	 0.9971226173	 0.152584
H	-1.7502015934	-2.9704203038	-1.1062006774	 0.107025
H	-1.3223862537	-4.3163438568	-0.014080861	 0.1344
H	-2.040548375	-2.8216143649	 0.6326272751	 0.124307
H	 0.6085283812	-2.9041902304	-1.8012895746	 0.284281
H	 1.6664338534	-2.6606845095	 1.5010236392	 0.099443
H	 0.0584742255	-2.8781866296	 2.2290013591	 0.11266
H	 1.277821302	-4.7883576754	 0.574973263	 0.291891
