20
gdb 69656	4.08737	1.11392	1.03737	1.7068	78.89	-0.246	0.0603	0.3063	1222.243	0.171081	-403.08619	-403.077826	-403.076882	-403.11937	31.985	
C	 0.1313779704	 1.5686471542	 0.0178646868	-0.483341
C	-0.0180085512	 0.0789785072	 0.0787754545	 0.355007
C	-1.3398954701	-0.7074352705	-0.0274996985	-0.390285
C	-0.7659940586	-1.7607001963	 0.9669628549	 0.29733
C	-1.5061495889	-2.104048892	 2.2754169459	-0.133652
O	-1.3615276638	-3.518061672	 2.0403879432	-0.272924
C	-0.7678770822	-3.2878967433	 0.7463364835	-0.138008
C	 0.5338017223	-0.9534069485	 1.026391617	-0.166032
N	 1.1054867174	-0.7700460876	-0.306805894	-0.360594
H	 1.1508361899	 1.8597628476	 0.2834586876	 0.134469
H	-0.0711614756	 1.9402061143	-0.9938238689	 0.122115
H	-0.5661503707	 2.0642760344	 0.7014393378	 0.116248
H	-2.1988608211	-0.1775024123	 0.3955168828	 0.108373
H	-1.6064073926	-1.0581748846	-1.0316296718	 0.095633
H	-1.0154562668	-1.7871833533	 3.2050534785	 0.103124
H	-2.5606969772	-1.7967435728	 2.3069461146	 0.096181
H	-1.4167752089	-3.6400036796	-0.0675645266	 0.097483
H	 0.216572456	-3.7641945609	 0.6507158721	 0.104039
H	 1.1899392215	-0.8559142351	 1.8858097452	 0.091687
H	 0.8504208103	-1.5157312388	-0.9532866148	 0.223148
