13
gdb 11207	4.7141	1.51173	1.34494	2.6155	55.47	-0.2632	-0.0556	0.2076	888.6452	0.09537	-435.756849	-435.749838	-435.748894	-435.789019	24.431	
N	-0.1012589392	 1.1252547587	 0.775736279	-0.567163
C	-0.0276402278	 0.0460410572	 0.1413348391	 0.497672
O	 0.9214607369	-0.3249178345	-0.7641940333	-0.248792
C	 0.7321060416	-1.6962938797	-1.1249554542	-0.123243
C	-0.7083276293	-1.9613036462	-0.6748366205	-0.005934
O	-0.9540619547	-0.9429448774	 0.2905499945	-0.234027
C	-1.7335549711	-1.8619241085	-1.8066876423	 0.129394
O	-1.5180438434	-2.2566881238	-2.920861208	-0.224736
H	 0.6957601906	 1.7182636816	 0.5581745902	 0.237713
H	 0.8518923634	-1.8133305229	-2.2031362258	 0.156508
H	 1.4592596649	-2.3192856917	-0.5951294126	 0.129149
H	-0.8308134422	-2.9368832603	-0.1909043139	 0.136054
H	-2.6978330196	-1.4029159324	-1.5030866223	 0.117406
