19
gdb 22056	4.15044	0.70477	0.66266	1.6385	78.22	-0.2476	0.0063	0.2539	1725.5015	0.155908	-456.318047	-456.307292	-456.306347	-456.355816	36.891	
C	-1.0579444695	 1.0225360604	 0.2537619918	-0.460591
C	-0.024751185	-0.0623939804	 0.0868289057	 0.405169
N	 0.929872027	-0.3798346198	 0.8608273606	-0.518265
O	-0.2315150774	-0.7220534651	-1.0733478516	-0.243661
C	 0.684427773	-1.7881667559	-1.3747256432	-0.144893
C	 0.1934885801	-2.4725073969	-2.6179477975	 0.361982
C	-1.185035417	-3.0697115617	-2.6374691222	-0.47867
N	 1.0357626402	-2.5198393103	-3.5783623259	-0.164268
O	 0.5392981216	-3.2324395278	-4.6769974343	-0.395178
H	-0.9043189911	 1.5683716946	 1.1858307313	 0.127229
H	-1.0064361269	 1.7228506403	-0.585340415	 0.149177
H	-2.0632617492	 0.5903348735	 0.2524627674	 0.145283
H	 0.9363725747	 0.2155299817	 1.6855526487	 0.220448
H	 1.691873775	-1.3940630083	-1.5238769446	 0.135385
H	 0.7122545716	-2.4792837929	-0.5237051855	 0.127497
H	-1.1409071948	-4.141282809	-2.4076378931	 0.141841
H	-1.8203381951	-2.5834703255	-1.8953153475	 0.132957
H	-1.6323082387	-2.9707240168	-3.6283130102	 0.150607
H	 1.2575634616	-3.1488988702	-5.3130444449	 0.30795
