19
gdb 101803	4.671	0.64296	0.58276	2.8656	69.47	-0.2475	0.0507	0.2982	1837.3692	0.158715	-493.512035	-493.501737	-493.500793	-493.548359	37.062	
N	-0.1441955847	 1.3417944461	-0.1862466467	-0.567016
C	 0.0294925879	-0.0201569245	 0.0383124652	 0.455125
O	 1.113987452	-0.5194951927	 0.2743507036	-0.392414
N	-1.1333317579	-0.7525363279	-0.0505568124	-0.348042
C	-1.0724469337	-2.2011461365	-0.050432826	-0.148173
C	-2.4774299566	-2.7701893929	 0.1057609756	 0.0662
O	-3.3500540022	-2.2746268988	-0.9251230627	-0.445436
C	-2.5213161169	-4.2973744684	 0.1127131962	-0.063611
O	-3.8482155876	-4.7633229862	 0.2211750064	-0.421862
H	 0.6561691605	 1.8811490352	 0.108036728	 0.260085
H	-1.0286099597	 1.7467286301	 0.0834311055	 0.248098
H	-1.9172632021	-0.3616000184	-0.5517111638	 0.243843
H	-0.6139724046	-2.5912510277	-0.9749591517	 0.098094
H	-0.4301294634	-2.523145018	 0.7734969459	 0.141073
H	-2.923442919	-2.3981119804	 1.0343177714	 0.109025
H	-2.9803636016	-2.5503498989	-1.7740798654	 0.285915
H	-2.0319236757	-4.6775216435	-0.8036312288	 0.076917
H	-1.9609883996	-4.6911533867	 0.9674196856	 0.116864
H	-4.3746417251	-4.1872921699	-0.3478467761	 0.285316
