22
gdb 120258	2.93341	1.00876	0.87575	1.7717	81.95	-0.2292	0.0627	0.2919	1437.6216	0.193737	-404.301998	-404.292405	-404.291461	-404.336933	35.744	
C	-0.2172199644	 1.6221283677	 0.0731488792	-0.381501
C	-0.0617579897	 0.0999334935	 0.0339993456	-0.162365
C	 0.6730806143	-0.3948572275	-1.2185475579	-0.191569
C	 0.826683405	-1.9068371841	-1.2515851021	 0.002962
C	 1.7452698121	-2.5824089894	-2.3247318956	 0.066607
O	 2.5514328342	-1.7727078261	-3.1562673937	-0.427936
C	 2.5071431518	-3.1953626125	-1.1642807245	-0.03334
C	 3.0002739306	-2.1464106659	-0.2532106561	-0.243348
N	 1.5926516649	-2.5643741387	-0.1212016184	-0.141937
H	 0.7584697672	 2.1208107731	 0.0608319091	 0.113361
H	-0.7837693786	 1.9870456886	-0.7912780433	 0.109998
H	-0.7440338778	 1.9459930495	 0.9761968085	 0.112214
H	 0.4794906752	-0.2430992772	 0.9232519325	 0.117235
H	-1.0510541531	-0.3736613158	 0.0827633974	 0.09427
H	 0.1160695842	-0.0893149224	-2.1162452694	 0.084897
H	 1.6499925378	 0.0946902121	-1.2974457692	 0.105677
H	-0.1652973998	-2.3712417928	-1.2589388125	 0.076281
H	 1.2009242974	-3.3308839885	-2.9135567167	 0.07319
H	 2.007053552	-1.4471983056	-3.8802579074	 0.284474
H	 2.8226933121	-4.2307689208	-1.0959224462	 0.092866
H	 3.6056640848	-2.4694526113	 0.5879698856	 0.119276
H	 3.2538829798	-1.1667239458	-0.6446213149	 0.128688
