18
gdb 80184	2.29064	1.67565	1.39849	5.0892	70.69	-0.2446	0.005	0.2496	1016.5527	0.148578	-439.101212	-439.092853	-439.091909	-439.13408	31.698	
C	 0.1604112305	 1.5767979805	-0.2821614075	-0.434054
C	 0.0822189246	 0.0933986308	 0.0146098888	-0.051972
C	 1.2275897918	-0.8547325674	-0.2057885048	 0.066223
O	 2.5109435531	-0.2734602343	-0.3618229975	-0.217431
C	 2.9276208561	 0.3193263478	 0.7989371663	 0.420848
O	 3.9309574181	 0.9611576758	 0.85982379	-0.320537
C	 1.9117058679	 0.0296148263	 1.9275445627	-0.135682
N	 1.7270664032	 1.1991401919	 2.7745778874	-0.502774
C	 0.7394801994	-0.6128377137	 1.1969150768	-0.122057
H	 1.1644857331	 1.9859709014	-0.1476388677	 0.147203
H	-0.1225790612	 1.7676207614	-1.3224279571	 0.130589
H	-0.5266643565	 2.1416766308	 0.3565586548	 0.12237
H	-0.8806334369	-0.3467873058	-0.2354264896	 0.098421
H	 1.1326242401	-1.7836994315	-0.7536069282	 0.112807
H	 2.3804165795	-0.7436729847	 2.5517528167	 0.122134
H	 1.3022661624	 1.9574401752	 2.2514140999	 0.235132
H	 1.0931650099	 0.9744607313	 3.5343502265	 0.232794
H	 0.1650970148	-1.3658722057	 1.7237003723	 0.095987
