18
gdb 103579	2.85435	1.21606	1.08548	2.9764	74.56	-0.2477	-0.0342	0.2135	1173.6875	0.147751	-439.130971	-439.122226	-439.121281	-439.16418	33.327	
C	-0.03224408	 1.565509309	-0.0232730071	-0.428526
C	-0.0412264819	 0.0285592667	 0.0198655746	 0.196342
C	-1.496581217	-0.5033859614	 0.0477668442	-0.076816
O	-2.2091952334	-0.1579714728	-1.1249560325	-0.419167
N	 0.6717829489	-0.5559485136	-1.1140083158	-0.365136
C	 1.8126920949	-1.2531048802	-0.7362036673	 0.390392
O	 2.6439775908	-1.7223805034	-1.4816273892	-0.377491
C	 1.7715200198	-1.2735263728	 0.7565628651	-0.205588
C	 0.7472368471	-0.5328610909	 1.1811693467	-0.095289
H	 0.9878218457	 1.9446732837	-0.1234046878	 0.127652
H	-0.634527432	 1.9137471205	-0.8669638163	 0.137167
H	-0.4677411693	 1.9782486868	 0.892085	 0.122455
H	-1.4745138776	-1.5908255703	 0.1998108172	 0.101565
H	-2.0384574844	-0.0506679852	 0.885038466	 0.110832
H	-1.8649603171	-0.7100729956	-1.8352664308	 0.287642
H	 0.6378156582	-0.1386126731	-2.0308648625	 0.248676
H	 2.5066363654	-1.803451151	 1.3453760104	 0.126809
H	 0.4545924219	-0.3442256564	 2.2071736751	 0.118483
