25
gdb 116354	2.14879	1.33353	0.88103	0.215	95.71	-0.2245	0.0341	0.2586	1431.0871	0.230232	-352.389695	-352.379993	-352.379049	-352.423994	37.698	
C	-1.6985894455	-0.2109393601	 0.5858388711	-0.38944
C	-0.2262386018	 0.1379997307	 0.3416833578	-0.182881
C	 0.730624096	-0.3055017575	 1.4721932179	-0.056135
C	 0.6490261163	-1.8264273044	 1.7064983944	-0.196104
C	 1.7821425128	-2.3423041721	 2.5951357857	-0.216637
C	 3.1379745376	-2.0634061943	 1.9393567165	-0.2418
C	 3.2147180183	-0.6502240352	 1.4270810558	-0.153293
C	 2.1648232802	 0.1537142749	 1.2281673413	 0.328555
C	 2.3703923867	 1.5847804662	 0.7946115366	-0.48132
H	-2.0483997769	 0.1988152576	 1.5406717832	 0.111489
H	-2.3306872099	 0.2069459944	-0.2040934208	 0.109687
H	-1.8706858306	-1.2909267731	 0.6054080161	 0.119295
H	 0.1079488184	-0.3123992061	-0.6029952293	 0.094282
H	-0.1483638686	 1.2216986044	 0.2072838458	 0.095849
H	 0.3841030339	 0.200454369	 2.3903455754	 0.071263
H	-0.3209697512	-2.08148492	 2.144718421	 0.092113
H	 0.6961551727	-2.3375608508	 0.7339600445	 0.090632
H	 1.7401656282	-1.8365515165	 3.5685983694	 0.095305
H	 1.6606483269	-3.4135963354	 2.7896446596	 0.086792
H	 3.9533297997	-2.240411331	 2.6522204905	 0.09607
H	 3.3115317143	-2.7734884612	 1.1160031997	 0.101793
H	 4.2123752008	-0.2599290061	 1.2317050233	 0.069285
H	 3.4317935006	 1.8465949756	 0.7992329813	 0.114489
H	 1.9845466071	 1.7751050406	-0.2136363115	 0.124455
H	 1.848291574	 2.2815136304	 1.4638490545	 0.116253
