21
gdb 55454	3.20619	1.04753	0.93493	1.8253	79.25	-0.2385	-0.0155	0.223	1342.886	0.18297	-424.259522	-424.250427	-424.249482	-424.294501	33.751	
C	 0.1161951268	 1.5051857227	 0.0081118477	-0.483878
C	-0.1116948692	 0.0064566879	 0.047885624	 0.378247
O	-0.3744478774	-0.5762951346	 1.0766320434	-0.312615
C	-0.0297633317	-0.7380191771	-1.2822997791	-0.096916
C	 0.6920631284	-2.0908914421	-1.1477607494	-0.203796
C	 0.5731736489	-2.8975452358	-2.4476148941	-0.217648
C	-0.8877331615	-2.9852908877	-2.8905131013	-0.06724
O	-1.4708070819	-1.6966196715	-3.0196921349	-0.245589
C	-1.4678221715	-0.9867650186	-1.8002849173	-0.077031
H	 1.1522659018	 1.7124826575	-0.2858607731	 0.142998
H	-0.522610677	 1.9733700772	-0.7495825232	 0.139077
H	-0.080488211	 1.9442367339	 0.9868858555	 0.141319
H	 0.4810878926	-0.1115460295	-2.0235566549	 0.076348
H	 1.7439156037	-1.935826083	-0.8841087894	 0.09667
H	 0.2357272978	-2.6368414289	-0.3145676741	 0.122591
H	 1.1554311733	-2.416079392	-3.2430946929	 0.102273
H	 0.9793646954	-3.906516363	-2.3132498045	 0.098048
H	-0.9813325052	-3.4597122497	-3.8714018672	 0.106274
H	-1.4650652488	-3.5849100516	-2.1655905562	 0.089057
H	-2.0285034986	-1.536758757	-1.0264147046	 0.105238
H	-1.9880999949	-0.0435791073	-1.9943306944	 0.106572
