17
gdb 53042	3.71031	0.89788	0.81125	1.8043	80.05	-0.2256	0.0321	0.2577	1452.4237	0.134137	-421.751192	-421.742103	-421.741159	-421.786775	32.585	
C	-0.0083803738	 1.517779264	-0.0025914203	-0.510822
C	-0.0032981262	 0.0628826548	-0.0021759821	 0.282005
C	 0.0016245364	-1.1434747173	-0.0009466603	-0.24983
C	 0.0223027475	-2.561782651	 0.003189618	 0.104965
C	 0.7411314971	-3.4693298658	-0.9969618329	-0.151952
O	-0.3122101617	-4.4752320775	-0.9178333578	-0.307786
C	-1.0936528896	-3.6291932499	-0.069708199	-0.025203
C	-0.3624152908	-3.4386246422	 1.2087113667	 0.062505
O	 0.4648542522	-4.4278006155	 1.7187477193	-0.431061
H	 0.7388931851	 1.9126494541	-0.6999735156	 0.151116
H	-0.9837067046	 1.9150775309	-0.3058515271	 0.148767
H	 0.2213441072	 1.9205826512	 0.9902544813	 0.14989
H	 0.788513654	-3.0511322736	-2.0059700995	 0.125364
H	 1.7175147796	-3.8631082784	-0.69577473	 0.118085
H	-2.1610721304	-3.5711548429	-0.2519087534	 0.115638
H	-0.8817004023	-2.8825773983	 1.9831677199	 0.119554
H	 0.4642477203	-5.1412761327	 1.0653040929	 0.298765
