15
gdb 124146	6.70095	0.75881	0.68499	2.6272	83.37	-0.2084	-0.0195	0.1888	1598.8058	0.114009	-412.999956	-412.991139	-412.990195	-413.035409	31.052	
C	-0.0775509136	 1.4427354659	 0.0175268428	-0.512388
C	 0.0048939784	-0.0077317524	 0.0002020138	 0.276273
C	 0.0861996711	-1.2106563944	-0.0162675887	-0.089916
C	 0.1572157492	-2.6207647769	-0.0335737193	 0.203875
N	 1.250116218	-3.380187574	-0.0734059114	-0.367256
C	 0.7426890185	-4.6426308878	-0.0754726695	 0.3614
N	 1.5561948031	-5.752933146	-0.1720405056	-0.601214
N	-0.5851139285	-4.7262435552	-0.0329589157	-0.27124
N	-0.9376327917	-3.4142816461	-0.0114326873	-0.268797
H	 0.9218539957	 1.8891991023	-0.0150144908	 0.162869
H	-0.6402981459	 1.8186506507	-0.844066638	 0.156977
H	-0.5753820607	 1.8017838897	 0.9250554286	 0.15635
H	 2.485061972	-5.5929010191	 0.1888862461	 0.258894
H	 1.134337212	-6.5987908216	 0.1823691241	 0.25626
H	-1.9071832778	-3.147892295	 0.0210169708	 0.277914
