15
gdb 1324	5.30937	1.86225	1.64939	1.8213	64.03	-0.2568	0.0225	0.2794	795.2723	0.121773	-308.473428	-308.465612	-308.464668	-308.504795	28.649	
C	-0.1197734127	 1.5435362949	-0.0261498028	-0.457215
C	-0.0553424317	 0.0357571271	 0.0524875845	 0.406656
C	-1.2066749067	-0.711295955	-0.5852044761	-0.451507
O	 1.236350434	-0.5349412433	-0.1916530868	-0.27908
C	 0.7049528388	-0.6295683327	 1.1422010773	-0.217698
C	 1.3818446125	 0.0914630708	 2.1864592947	 0.340296
C	 1.9361267098	 0.6663242375	 3.0854118072	-0.42314
H	 0.7385952704	 1.9981876345	 0.4705153714	 0.141594
H	-0.1284946741	 1.8628645326	-1.0737443749	 0.125489
H	-1.0353352661	 1.9150265861	 0.4460286513	 0.122231
H	-1.27879437	-0.4566024583	-1.6481353415	 0.128788
H	-1.0654469067	-1.7916285788	-0.5027125169	 0.128862
H	-2.155956374	-0.4423201349	-0.1104566299	 0.124676
H	 0.3952022038	-1.6375861286	 1.4201568604	 0.108644
H	 2.4307938127	 1.1771413682	 3.874288752	 0.201403
