16
gdb 125979	3.73872	1.20113	1.08137	4.2563	71.22	-0.2467	-0.0367	0.21	1130.0954	0.124399	-433.997843	-433.9901	-433.989156	-434.030728	28.546	
C	-0.0682782163	 1.0771045388	-1.3150273831	-0.417566
C	 0.1664223033	-0.3056967083	-0.7580890855	 0.00368
C	 1.1124229413	-1.2491844425	-1.4207721386	-0.248313
N	 1.4502969313	-0.6708995508	-0.1229511467	-0.165317
C	 2.4896286289	 0.2374367192	-0.0268861892	 0.366101
N	 3.5489538823	 0.2431669862	-0.7998642839	-0.165048
O	 4.3663648143	 1.226108011	-0.2948701106	-0.155803
N	 3.8023835163	 1.8380686263	 0.7871781205	-0.057165
C	 2.6579195231	 1.2474524186	 0.9707206482	-0.098246
H	 0.8120832124	 1.4520401769	-1.843662637	 0.142382
H	-0.9051434255	 1.0544660329	-2.0202561676	 0.134631
H	-0.3216306911	 1.7888409907	-0.5220748564	 0.130197
H	-0.6810651755	-0.7377166902	-0.2303828879	 0.106692
H	 0.9242308862	-2.3183715422	-1.4107795396	 0.130029
H	 1.6642481422	-0.8835553107	-2.2825019849	 0.146051
H	 1.9990259967	 1.5294186641	 1.7767089825	 0.147694
