18
gdb 5567	3.07784	1.81047	1.23261	3.5129	74.96	-0.2067	0.0371	0.2437	1017.6612	0.154896	-344.040825	-344.032461	-344.031517	-344.074173	30.224	
C	 0.0790916631	 1.5835524766	-0.3240534574	-0.36311
C	 0.0050567714	 0.1106778142	 0.1095455248	-0.289372
C	-1.3986467878	-0.4114294653	 0.1556100732	 0.21815
C	-2.1332286504	-0.8386078103	 1.2379964968	 0.217262
C	-1.832048558	-0.952507682	 2.6946383399	-0.51031
N	-3.3624426745	-1.1979655813	 0.711510153	-0.291409
C	-3.3157007992	-0.9756260652	-0.6321740241	-0.000646
N	-2.1517760887	-0.503218076	-1.0019303379	-0.309649
H	 1.1179450207	 1.9204849832	-0.4006584922	 0.102267
H	-0.4001051365	 1.7137731224	-1.2980002184	 0.137439
H	-0.4375816722	 2.2302552357	 0.3927991008	 0.10779
H	 0.5864704765	-0.4968728918	-0.5952165211	 0.11074
H	 0.4790607758	-0.0138857509	 1.0896801894	 0.090171
H	-2.4942689321	-0.3252433672	 3.3047249401	 0.127909
H	-1.9311770184	-1.9830796408	 3.0582556522	 0.127309
H	-0.8067277967	-0.6334999956	 2.8929474035	 0.143034
H	-4.1445401203	-1.5590863704	 1.2316054696	 0.258985
H	-4.1555525826	-1.1799283754	-1.280033772	 0.12344
