20
gdb 116710	2.81161	0.87727	0.75069	4.6966	80.07	-0.2424	0.005	0.2474	1579.2243	0.169319	-440.25329	-440.243186	-440.242242	-440.289765	35.453	
C	 0.0541465802	 0.8973242726	 0.2085596804	-0.250158
O	-0.3517781464	 0.2473013255	-0.9922400616	-0.189532
C	 0.4492642696	-0.7410109813	-1.4206156557	 0.140004
N	 0.1521808535	-1.3987270124	-2.4546240596	-0.246313
C	 1.0517462702	-2.4342429125	-2.8931248113	 0.017572
C	 1.7235841772	-3.4299149042	-1.9710818083	-0.334255
C	 0.5747913489	-3.8605855043	-2.8649736772	-0.025002
C	-0.7911171521	-4.1301872275	-2.2639037085	-0.071565
O	-1.833262472	-3.612542948	-3.069679245	-0.427666
H	 0.0537956441	 0.2040314519	 1.057806682	 0.131484
H	 1.049463012	 1.345200563	 0.1046420997	 0.131174
H	-0.6759561185	 1.6863121217	 0.3905152227	 0.151339
H	 1.3486206323	-0.9082798268	-0.8115756471	 0.088473
H	 1.6066236157	-2.1402575651	-3.7807215098	 0.100695
H	 2.7293619716	-3.7596322756	-2.2079523701	 0.113166
H	 1.5177010484	-3.367923344	-0.9070330379	 0.107681
H	 0.8160027094	-4.4622425659	-3.7360807241	 0.089122
H	-0.9662687233	-5.2081207536	-2.1803499845	 0.103487
H	-0.833967639	-3.7172195312	-1.2436071085	 0.075756
H	-1.6701867119	-2.660653122	-3.1221600055	 0.294537
