16
gdb 43335	3.00986	1.8539	1.40322	3.4013	73.83	-0.2427	-0.064	0.1787	917.4162	0.127122	-400.730289	-400.723826	-400.722882	-400.761034	26.224	
O	 0.0289506568	-0.0041491225	 0.0843705809	-0.334818
C	-0.0368040266	 1.2074774205	 0.0121081061	 0.38595
C	-1.3128723395	 1.9375251588	-0.1028050112	-0.177404
C	-1.3207006108	 3.2734518681	-0.0330750198	-0.032994
C	-0.0589574441	 4.0360403057	 0.2259574417	-0.048249
C	 0.5556101855	 3.8150312915	 1.6485410746	-0.266511
C	 1.6695132739	 3.0621433092	 0.9429672003	-0.029777
C	 1.2159859495	 2.0405600946	-0.044848315	-0.136356
N	 1.1948679885	 3.4682763894	-0.4340598428	-0.15718
H	-2.2074516947	 1.3409576642	-0.2439034262	 0.118055
H	-2.250022726	 3.8335338586	-0.0982148301	 0.114952
H	-0.1598824392	 5.0858844343	-0.0480875345	 0.097048
H	 0.9129788127	 4.7515101023	 2.0807577592	 0.122987
H	-0.0438640148	 3.2795636042	 2.3885746556	 0.117245
H	 2.7183925034	 3.1054423679	 1.2193655009	 0.106466
H	 2.0295254852	 1.4984070632	-0.5194350099	 0.120583
