21
gdb 123231	12.16651	0.40379	0.39567	2.9139	78.53	-0.258	-0.0286	0.2294	2686.576	0.177844	-461.348814	-461.337398	-461.336454	-461.387891	37.178	
C	-1.2945856589	 1.0494120769	-0.0243002043	-0.385278
C	-0.1180485292	 0.1037461136	 0.1445827646	-0.027148
O	 0.4597689904	-0.1285772776	-1.1252012059	-0.24606
C	 1.5654617455	-0.9969506584	-1.0841624338	-0.069712
C	 2.076948643	-1.1513564251	-2.50811773	-0.069844
O	 3.188316334	-2.0224187558	-2.4744482027	-0.250823
C	 3.7603590233	-2.2516082958	-3.7344809446	-0.140654
C	 4.9361335169	-3.1966986882	-3.5578394531	 0.139198
O	 5.6247122395	-3.580957493	-4.4647729874	-0.236909
H	-0.9647031907	 1.9996572085	-0.4536475901	 0.12737
H	-2.0442723679	 0.6141701916	-0.6911289238	 0.127371
H	-1.7641531607	 1.2494340602	 0.9433351271	 0.116492
H	 0.6324091246	 0.5354423113	 0.8281744893	 0.087913
H	-0.4471205991	-0.8500894924	 0.5904106611	 0.087916
H	 2.3681688942	-0.5961175348	-0.4438016998	 0.096302
H	 1.2866369842	-1.9844616926	-0.6815308208	 0.096312
H	 1.2782347285	-1.5553606537	-3.1496629224	 0.102343
H	 2.3596375355	-0.1664342197	-2.9116014598	 0.102323
H	 3.0434026525	-2.7055269756	-4.4398725611	 0.123335
H	 4.1219515886	-1.3197174738	-4.2020276282	 0.123298
H	 5.1039205859	-3.5038854659	-2.5019107344	 0.096254
