15
gdb 19342	5.09596	1.69472	1.52428	3.2762	66.36	-0.2365	-0.0317	0.2048	834.2338	0.118543	-362.582853	-362.576241	-362.575297	-362.613484	25.613	
O	-0.8915586925	 1.2092637905	-0.0100347564	-0.280578
C	 0.2607144512	 0.8474533005	-0.1001660586	 0.080268
C	 1.4207127672	 1.7348258292	 0.0562263043	 0.248198
C	 1.309781929	 3.0984643834	 0.7036621239	-0.346024
C	 1.71542494	 3.0333032059	-0.7239320445	-0.096928
C	 3.1272770815	 2.4669756949	-0.9395477041	-0.034313
C	 3.844399237	 2.0682000264	 0.291541113	-0.253084
N	 2.7974619386	 1.1762295595	-0.2406771887	-0.17926
H	 0.5340268207	-0.2035424746	-0.3339808887	 0.086025
H	 0.2685647931	 3.3647887671	 0.8543033668	 0.156088
H	 1.976717781	 3.4196706231	 1.4948327726	 0.125571
H	 1.1111375831	 3.43403209	-1.5265406109	 0.12278
H	 3.5969424287	 2.4537855294	-1.9171820827	 0.109943
H	 4.8362737125	 1.6469346121	 0.1554415419	 0.132997
H	 3.711890259	 2.5836667225	 1.2353091321	 0.128316
