19
gdb 39790	3.36731	1.43669	1.1658	1.8884	81.01	-0.2292	0.081	0.3102	1099.2201	0.158397	-385.769399	-385.761755	-385.760811	-385.801174	31.082	
C	-0.0145298089	 1.5247560566	 0.0107011586	-0.367662
C	 1.3359767861	 0.8083684719	-0.0066733472	-0.352824
C	 0.05960037	 0.0434801571	 0.0018103017	 0.503564
C	-0.5600056127	-1.0342911243	 0.9054409531	-0.188899
O	-1.7523160563	-1.027047624	 0.0139145944	-0.303721
C	-0.5779575851	-1.0243348589	-0.9011517104	-0.188895
C	 0.0553595639	-2.104511339	-0.0099847784	 0.503568
C	 1.328682009	-2.8743300664	-0.0268861358	-0.352829
C	-0.0246621704	-3.5854908337	-0.0173518607	-0.367658
H	-0.3119383632	 2.0238871705	 0.9272747929	 0.117313
H	-0.3300642135	 2.0339290694	-0.8942134751	 0.117313
H	 1.9165106019	 0.8425345911	-0.9231191899	 0.114719
H	 1.9346360386	 0.832520862	 0.8983585204	 0.114719
H	-0.7277102697	-1.0398775068	 1.983441149	 0.093613
H	-0.7670527475	-1.0180583622	-1.9756025098	 0.093613
H	 1.9091000375	-2.9007440384	-0.943661625	 0.114719
H	 1.9272186286	-2.9107903811	 0.8778148004	 0.11472
H	-0.3240786522	-4.0934672266	 0.8936916766	 0.117312
H	-0.3421922059	-4.0834417772	-0.9277962948	 0.117313
