17
gdb 43647	5.22674	0.86725	0.77608	3.0753	81.32	-0.2402	-0.0474	0.1928	1413.5831	0.135184	-384.694342	-384.685869	-384.684925	-384.728203	31.552	
O	 0.0420694036	-0.0503804078	-0.0835825006	-0.327381
C	 0.0299453281	 1.1561579908	-0.0226389429	 0.381607
C	-1.2248391961	 2.042321302	 0.0824833813	-0.365031
C	-0.7122841835	 3.4971502806	 0.0609810015	-0.045146
C	-1.1939161927	 4.3419291898	 1.2691318871	-0.368941
C	-0.6956325644	 5.711523076	 1.2448799275	 0.296045
C	-0.2710528233	 6.8350557492	 1.1943743645	-0.437474
C	 0.7917907443	 3.3438805561	 0.0166315234	-0.042989
C	 1.1964692901	 2.070194919	-0.0304026184	-0.186357
H	-1.9103113257	 1.8114262736	-0.7372199022	 0.13426
H	-1.7506546591	 1.799185473	 1.0121325746	 0.132173
H	-1.0439028312	 4.0177145417	-0.8462520597	 0.106655
H	-2.290779762	 4.3503336864	 1.2772940075	 0.138901
H	-0.8807767745	 3.8485719636	 2.1983862216	 0.136454
H	 0.0941160707	 7.8318490328	 1.1658498854	 0.200285
H	 1.4382449484	 4.2147159169	 0.0270501624	 0.129603
H	 2.2160075673	 1.7089377465	-0.0733309328	 0.117336
