20
gdb 61525	3.21827	0.88315	0.85438	5.4654	79.35	-0.2588	0.0216	0.2804	1438.7018	0.170807	-399.308853	-399.298984	-399.29804	-399.343866	36.323	
C	 1.1497065427	 0.4942838777	 0.9398526987	-0.475028
C	 0.0096179695	 0.1654162348	-0.0049938644	 0.321834
C	-1.1211443177	-0.6699935133	 0.5760154798	-0.241613
C	-1.9078018522	 0.0310313378	 1.7147593878	-0.143122
N	-2.6039062812	 1.2740288744	 1.3673563632	-0.504575
C	-2.8829306868	-0.9150201139	 2.2821276932	 0.301224
N	-3.6394269841	-1.6808483034	 2.701330793	-0.318283
C	-0.2667069068	 1.0985478252	-1.1347864438	-0.282901
N	 0.3489730164	-0.2153948118	-1.3881811224	-0.350567
H	 1.9247669254	 1.0754498511	 0.4301371232	 0.11909
H	 0.8175515135	 1.0828233812	 1.8023875512	 0.126688
H	 1.6108607373	-0.4222578079	 1.3259241103	 0.131387
H	-1.8142189585	-0.9369529666	-0.2279128466	 0.122404
H	-0.7090973058	-1.6115658494	 0.960592228	 0.119068
H	-1.2102408142	 0.2750478444	 2.5261192247	 0.133776
H	-1.9274744962	 1.9461089973	 1.0195392503	 0.243066
H	-3.2611249044	 1.1011845842	 0.6115754374	 0.239511
H	-1.2749381519	 1.209317852	-1.5247290749	 0.114348
H	 0.348004268	 1.9910400507	-1.2236445446	 0.113347
H	 1.348050137	-0.1040314046	-1.5442706141	 0.230347
