19
gdb 84403	3.11727	1.36028	1.07764	2.6084	76.52	-0.2547	0.0124	0.2671	1134.0235	0.159829	-423.012656	-423.004248	-423.003304	-423.045457	32.877	
O	-0.2633239212	 1.4626988301	 0.4742742123	-0.435056
C	-0.0138658049	 0.1138905687	 0.0690881019	 0.060445
C	 0.9257224169	-0.5820925451	 1.0217123539	-0.095262
C	 0.8009623672	-1.8513104235	 1.3988434875	-0.095255
C	-0.2973924091	-2.770486178	 0.9261436476	 0.060439
O	-0.7624146405	-3.6146465479	 1.9829498095	-0.435054
C	-1.4963276853	-2.022073795	 0.3859567901	-0.035207
C	-2.1227816716	-0.9248217297	 1.2047310582	-0.268951
C	-1.3544472977	-0.5786878335	-0.0429261091	-0.035208
H	 0.5703706813	 1.9428744347	 0.4328808518	 0.278786
H	 0.4514086206	 0.1187527167	-0.9326828631	 0.073256
H	 1.7536371046	 0.0192928797	 1.3936052604	 0.081902
H	 1.5264086465	-2.2923458616	 2.0804785542	 0.081902
H	 0.1055230213	-3.4000111834	 0.1128752003	 0.073256
H	-0.0315944211	-4.180876782	 2.2524187645	 0.278786
H	-2.1695474356	-2.6411986081	-0.1975502077	 0.086596
H	-3.201643631	-0.8251882081	 1.183137956	 0.109247
H	-1.6654909146	-0.6866339092	 2.1576198909	 0.128784
H	-1.9360037359	-0.2653164649	-0.9035138791	 0.086596
