16
gdb 133077	2.8943	1.26807	0.88734	1.9367	77.2	-0.2082	-0.0063	0.2019	1238.3075	0.125265	-442.097412	-442.089366	-442.088422	-442.130388	29.872	
C	 0.0811410892	 1.4451958693	 0.0336817002	-0.322124
N	-0.0487791248	 0.0153773542	-0.1063846317	-0.344508
C	-1.2332717153	-0.6627845724	-0.0422486147	 0.447374
N	-1.1271972665	-2.0040611098	-0.0032118636	-0.354357
C	-2.2527748997	-2.7132581827	 0.0356519777	 0.013816
C	-3.5338479455	-2.1713146582	 0.0419383624	-0.288189
C	-3.6086994315	-0.7846750404	 0.0080169353	 0.348651
F	-4.803081381	-0.1914655733	 0.017057688	-0.077798
C	-2.4744742553	 0.0023562521	-0.0323417777	-0.383817
H	 1.1391658579	 1.7089268076	-0.0158784398	 0.132623
H	-0.4309874869	 1.9748874584	-0.7792848996	 0.133871
H	-0.3210874683	 1.8182609795	 0.9871402969	 0.125191
H	 0.7624654169	-0.5668101676	 0.0211561484	 0.249025
H	-2.1276995357	-3.793440882	 0.0658625295	 0.109851
H	-4.4249698008	-2.7830640067	 0.075901529	 0.106252
H	-2.5606646028	 1.079886672	-0.0571083503	 0.104137
