21
gdb 69648	3.76724	1.22044	1.11314	1.4384	83.02	-0.226	0.0808	0.3068	1196.8724	0.181895	-387.051239	-387.042837	-387.041893	-387.083919	33.387	
C	 0.0650680142	 1.4989973589	-0.0358389223	-0.487877
C	 0.0559263653	 0.0099169523	 0.0715509515	 0.461064
C	-0.904488042	-0.8419114827	 0.844822984	-0.345891
C	 0.5911036956	-0.9881767909	 1.0723917179	-0.254851
C	 1.2074775976	-1.6802922383	-0.1380974181	 0.469515
C	 2.7438534538	-1.8299192332	-0.194219227	-0.292779
C	 2.5515813108	-3.3534345465	 0.0493320418	-0.216906
C	 1.067525818	-3.195746036	-0.3878854816	-0.289771
O	 0.574495661	-0.7406771684	-1.0405657089	-0.362364
H	 1.0697277661	 1.8704814418	-0.26057577	 0.126536
H	-0.6060336221	 1.8294519718	-0.8369432722	 0.131293
H	-0.2764828033	 1.9533115952	 0.8987355079	 0.121512
H	-1.4365254904	-0.3434277084	 1.6498015797	 0.109336
H	-1.4635893501	-1.6229841598	 0.336332388	 0.111623
H	 1.0675227679	-0.844673315	 2.0336972154	 0.09485
H	 3.1017791887	-1.6205920789	-1.206117099	 0.112158
H	 3.336935362	-1.254066107	 0.5210393819	 0.095973
H	 3.1747679316	-4.0334577737	-0.5338819822	 0.101937
H	 2.6432406958	-3.6169913411	 1.1060927808	 0.10447
H	 0.2951851345	-3.7310930676	 0.1700017405	 0.097237
H	 0.9382003348	-3.3916871123	-1.4562002979	 0.112935
