20
gdb 114769	3.85772	1.05945	0.89593	1.1539	80.88	-0.2318	0.0179	0.2497	1312.1795	0.172926	-403.125259	-403.116904	-403.11596	-403.158359	32.365	
O	 0.0901862536	 1.3788949786	 0.1360865684	-0.423082
C	 0.044080818	-0.0399605194	 0.0828876058	-0.090596
C	-1.4194273633	-0.4678618894	-0.0362493496	-0.034634
C	-1.5141744901	-1.9870938307	-0.2925996206	-0.222942
C	-2.923474685	-2.5382106886	-0.1045631658	-0.055391
N	-3.1879574013	-3.2077229234	 1.1878825814	-0.338357
C	-3.8089254435	-1.8890307208	 0.8923766122	-0.065468
C	-3.2851852795	-0.7047537034	 1.6176180888	-0.072585
C	-2.2093875884	-0.0486380369	 1.1835282145	-0.036048
H	 0.9954926565	 1.6449675399	 0.319847835	 0.287465
H	 0.6091063374	-0.4226560789	-0.7824330607	 0.083768
H	 0.4825247903	-0.4879040232	 0.9891989237	 0.090467
H	-1.8229505612	 0.0706147402	-0.9073722694	 0.093084
H	-1.1520651428	-2.2129603767	-1.3017959327	 0.092936
H	-0.8545434514	-2.5073058577	 0.4110914285	 0.113488
H	-3.3936479934	-2.9645996176	-0.9870337896	 0.081621
H	-3.8841247644	-3.9388474542	 1.0549477581	 0.224403
H	-4.8803451486	-1.8901668626	 0.6998294471	 0.084351
H	-3.8183682948	-0.3728215363	 2.5047951327	 0.085671
H	-1.8558876183	 0.8399582112	 1.6980203624	 0.10185
