18
gdb 41507	2.98496	1.60098	1.08955	2.1371	80.1	-0.2371	0.007	0.2441	1095.1039	0.149418	-401.936705	-401.929141	-401.928196	-401.969008	29.128	
C	-0.0291802435	 1.5322345066	-0.0453764352	-0.248838
C	 1.5339129179	 1.5358820231	 0.0009677622	-0.326157
C	 1.4512005668	 0.1023192052	 0.5041917406	 0.329104
C	 2.1924141815	-0.7106162688	 1.2360192372	-0.258791
C	 1.7404324724	-2.0597004188	 1.7367316445	-0.197403
N	 0.3457773108	-2.4365221687	 1.794815234	-0.265831
C	-0.700780936	-1.8190030381	 1.4682782001	 0.124732
O	-0.9586057158	-0.6187249963	 0.875810814	-0.234991
C	 0.0208179298	-0.0132820291	 0.0453005012	 0.059602
H	-0.460131355	 1.9482289286	 0.86759333	 0.123366
H	-0.5203818835	 1.9682437026	-0.9165793624	 0.105563
H	 1.9844441598	 1.6224475558	-0.9935259568	 0.115597
H	 2.0100475623	 2.2660431777	 0.6591593395	 0.119288
H	 3.2033591265	-0.4215296122	 1.521229171	 0.08922
H	 2.2662611452	-2.8463501388	 1.1717488089	 0.127493
H	 2.1195581808	-2.1814756443	 2.762131048	 0.127024
H	-1.6627116353	-2.2802253752	 1.6995673241	 0.114943
H	-0.0481217147	-0.4750203094	-0.9501265611	 0.09608
