18
gdb 17691	4.7987	1.59963	1.5464	1.9633	72.29	-0.2297	0.0797	0.3094	893.1271	0.155553	-343.869134	-343.862375	-343.861431	-343.900327	26.649	
C	-0.1285247172	 1.3334627429	-0.2201009881	-0.234837
C	 1.2730574777	 0.9053998551	 0.0366243497	-0.234839
N	 0.1779790043	-0.0619365898	 0.0910054719	-0.176275
C	-0.2047982783	-0.5430490962	 1.3793365711	 0.350804
C	-0.2629306057	 0.1210962359	 2.7973193033	-0.223097
N	-0.7476524181	-1.3083549395	 3.069126622	-0.137443
C	-1.5654157458	-1.1504796404	 1.7752428524	-0.209666
C	 0.3936822985	-1.7464695223	 2.1346998475	-0.209622
H	-0.6127903254	 1.9333368456	 0.5478525349	 0.114761
H	-0.4719215916	 1.5221692658	-1.2328043842	 0.120625
H	 1.9706768789	 0.7761396917	-0.7853967779	 0.120619
H	 1.7238352266	 1.2197221527	 0.9758344717	 0.114747
H	 0.6769019695	 0.3608032073	 3.301949163	 0.099667
H	-1.0270616895	 0.879155587	 2.9892736582	 0.099673
H	-2.4225295506	-0.4798337857	 1.8812345838	 0.097913
H	-1.8523188729	-2.1018656536	 1.3202850545	 0.104531
H	 0.2505358894	-2.7415929547	 1.7061275666	 0.104534
H	 1.3864746603	-1.6385978918	 2.5800913097	 0.097903
