15
gdb 133222	3.08322	1.3935	0.96579	4.7107	77.83	-0.2047	-0.0325	0.1723	1144.515	0.113016	-458.088078	-458.080107	-458.079162	-458.121408	28.986	
C	 0.0234797578	 1.4507283656	 0.1743189158	-0.325342
N	 0.0062561577	 0.0113263607	-0.0337051479	 0.001786
C	-1.1715369456	-0.6919161217	-0.0781929702	-0.114429
C	-1.1810032362	-2.0159320833	-0.3491884934	 0.217934
F	-2.3338467643	-2.6710312919	-0.3734498714	-0.050174
C	 0.0456114688	-2.7425958363	-0.6103432122	 0.155842
N	 0.0506620194	-4.0048565817	-0.8691885978	-0.556985
C	 1.2008181739	-1.8447879278	-0.5306282077	-0.056475
N	 1.1895949546	-0.5721615972	-0.2704019742	-0.201252
H	 1.0504618516	 1.7371880654	 0.3952272351	 0.166267
H	-0.3168624372	 1.9880474743	-0.7186275826	 0.144162
H	-0.6200155331	 1.7180364912	 1.0173874021	 0.143469
H	-2.0814540181	-0.1405375179	 0.1195829702	 0.143838
H	 1.0097481476	-4.325380214	-1.0205574852	 0.206832
H	 2.1876234631	-2.2672900554	-0.7037111605	 0.124526
