17
gdb 132728	2.2666	1.76488	1.00457	2.6944	78.16	-0.2475	-0.0242	0.2233	1134.8569	0.13574	-426.046082	-426.037763	-426.036818	-426.078991	30.929	
C	-0.1938897433	 1.5046193249	 0.0309590153	-0.50053
C	-0.0682683499	 0.0043472967	-0.0059899417	 0.209767
C	 0.0539982439	-0.6867510881	-1.2235078372	 0.080495
C	 0.0679684133	 0.0116389702	-2.5563203519	-0.5066
C	 0.1631981342	-2.0699501529	-1.1341905407	 0.197354
F	 0.2833666571	-2.8000187266	-2.2527258769	-0.081626
C	 0.1515617888	-2.7253560244	 0.089450524	-0.10198
N	 0.0355921285	-2.0675706539	 1.2408431767	-0.276521
C	-0.0704393805	-0.738666695	 1.1759964351	-0.063819
H	 0.6741918947	 1.9943634372	-0.4255919949	 0.134308
H	-1.0770236543	 1.8500369732	-0.5191490334	 0.134315
H	-0.2784223078	 1.863428952	 1.0595322076	 0.131608
H	 0.1703758497	-0.7037538262	-3.3722899623	 0.144762
H	-0.8546724739	 0.5819231263	-2.7116065797	 0.138856
H	 0.896777416	 0.7257082188	-2.6178971806	 0.138867
H	 0.2390950219	-3.8080229668	 0.1208581255	 0.118968
H	-0.1641636083	-0.2213955054	 2.1286489451	 0.101777
