18
gdb 8076	3.54361	2.21767	1.74986	1.2584	71.67	-0.235	0.0197	0.2548	801.6191	0.155735	-347.803636	-347.797014	-347.79607	-347.833719	27.85	
O	-0.0537340711	 1.4184398794	-0.0459060826	-0.490076
C	-0.0011559932	 0.0161874909	 0.0251755726	 0.416677
C	 0.2401430923	-0.6771026718	 1.4013762046	-0.272643
C	-0.704388503	-1.7966060967	 0.8604451127	-0.069372
C	-1.3801572665	-0.6811326181	 0.0002527289	-0.24638
C	 0.0970112126	-2.6908039736	-0.0613644009	-0.058716
C	 0.8788735428	-2.1102082225	-0.9718672453	-0.064815
C	 0.9226949949	-0.6000140618	-1.0421155634	-0.314113
H	 0.8480256593	 1.7542509969	-0.0982558755	 0.272477
H	 1.2584523632	-0.961490212	 1.6792954528	 0.087462
H	-0.2280759975	-0.0954888214	 2.1995936463	 0.099594
H	-1.3203606395	-2.3445741648	 1.5727466402	 0.064076
H	-2.1028840976	-0.1003633796	 0.5787914061	 0.103758
H	-1.8036253171	-0.9641911941	-0.9661888075	 0.094078
H	 0.0226920459	-3.7696913676	 0.0322025611	 0.086474
H	 1.48335296	-2.6816731266	-1.6697871813	 0.08816
H	 0.6158917103	-0.2420003787	-2.0346786393	 0.11178
H	 1.9531097842	-0.2394599979	-0.8919150195	 0.091579
