24
gdb 118837	2.56868	0.91802	0.75351	2.3282	87.59	-0.2328	0.081	0.3137	1655.3407	0.215354	-405.524278	-405.51313	-405.512185	-405.560949	39.851	
C	 0.9694223615	 1.43218858	-0.3260477014	-0.371422
C	 0.0030696561	 0.2449418886	-0.4137206358	-0.196162
C	 0.5160214059	-0.8253100976	-1.3518266031	-0.013526
N	 1.5565869823	-1.7434680373	-0.8329145287	-0.381263
C	 0.2453440233	-2.2842309254	-1.2304462972	 0.263564
C	-0.6025525126	-2.8720985051	-0.121850427	-0.454818
C	 0.1809302844	-3.1067587645	-2.5087904296	-0.125073
O	 1.0800781425	-2.5910699851	-3.4653286615	-0.236501
C	 1.0963482975	-3.3242512209	-4.6668071173	-0.226537
H	 1.9484945291	 1.0999051118	 0.032547077	 0.129668
H	 1.112593079	 1.9010619054	-1.3061647042	 0.108736
H	 0.5969055061	 2.199687866	 0.3594775583	 0.106571
H	-0.1461223866	-0.1741120573	 0.5856555445	 0.099317
H	-0.9793286429	 0.5884500644	-0.7644021367	 0.090595
H	 0.6679544307	-0.4809048607	-2.3735497852	 0.087995
H	 2.2245249171	-1.9327833458	-1.5775311245	 0.232422
H	-0.4748565852	-2.3164261765	 0.8075429194	 0.133403
H	-1.6658189455	-2.8645288791	-0.3885716379	 0.111725
H	-0.3123749983	-3.9111625597	 0.0732860443	 0.115014
H	 0.4359775297	-4.1575389588	-2.2813526632	 0.088441
H	-0.8493333768	-3.104990752	-2.9055222768	 0.091565
H	 1.3914841793	-4.3719503295	-4.5002307854	 0.10816
H	 0.1117518315	-3.3192908228	-5.1595568709	 0.108129
H	 1.825782982	-2.8514541683	-5.328664887	 0.129996
