19
gdb 74758	2.94091	1.49474	1.30161	1.606	81.15	-0.2188	0.0202	0.239	1064.8808	0.159489	-385.839415	-385.831748	-385.830804	-385.871234	30.792	
C	 0.0636076146	 1.4234570201	 0.0686296978	-0.519363
C	 0.008975838	-0.063376328	 0.0208107455	 0.352448
C	-0.0005467477	-0.9215372649	-1.0076129086	-0.18774
C	-0.0042527959	-2.3049457696	-0.3439212717	-0.180709
C	-1.0515490747	-2.0605733123	 0.7988867651	-0.214541
C	 0.0051047465	-0.9926129931	 1.2511815157	-0.23319
C	 1.0375221758	-2.0511968152	 0.7794051004	 0.541231
C	 1.9082533762	-2.9536880012	 1.5228579021	-0.306301
O	 2.4210339647	-1.9092790497	 0.659485826	-0.289912
H	 0.9700443246	 1.7702198123	 0.5814908507	 0.133148
H	 0.0597862253	 1.8532370258	-0.9372086343	 0.12566
H	-0.7872534915	 1.8422285816	 0.6212840552	 0.123794
H	 0.032008986	-0.7201249459	-2.0690911675	 0.096751
H	-0.0031798116	-3.1999400223	-0.9640883887	 0.066672
H	-2.0236029172	-1.6756129222	 0.4861998203	 0.098644
H	-1.1555288472	-2.8997063624	 1.4940052012	 0.095016
H	 0.0163451824	-0.5533448582	 2.2484206025	 0.064418
H	 2.0829280696	-2.7984139227	 2.5866884639	 0.116598
H	 2.0792672823	-3.9688747722	 1.1673337942	 0.117375
