19
gdb 39242	2.82058	1.59501	1.17607	2.334	73.43	-0.2569	0.0752	0.3321	1057.6826	0.161277	-422.997333	-422.990003	-422.989059	-423.02905	29.456	
C	 0.0550934331	 1.5434171426	 0.35812809	-0.25921
C	 1.3527451434	 2.0746580655	-0.267643956	-0.234966
C	 2.6453014786	 1.6006851305	 0.372405883	 0.078387
O	 2.821971927	 1.8151857669	 1.7738011974	-0.254297
C	 2.8317707884	 0.4613342133	 1.2978415682	 0.03804
C	 1.7283539963	-0.4583209016	 1.8182732046	-0.279851
C	 0.7381132315	-0.915756302	 0.7614396325	 0.050266
O	-0.6555303599	-0.7830406724	 1.0773408726	-0.26248
C	-0.1036839751	 0.0662063662	 0.0681345703	 0.075356
H	 0.0665944993	 1.7125001313	 1.4373962916	 0.127153
H	-0.7998637539	 2.0982477077	-0.0425754708	 0.102243
H	 1.3909254563	 1.8022876941	-1.3312751816	 0.103261
H	 1.3566703076	 3.1715138773	-0.2385863103	 0.11397
H	 3.5253491991	 1.8792561878	-0.214125101	 0.08544
H	 3.8301365742	 0.0201478177	 1.304046852	 0.0916
H	 2.1868723062	-1.3297776868	 2.296251683	 0.106283
H	 1.1790626631	 0.0730476614	 2.5989684141	 0.140343
H	 0.9832369095	-1.8416314878	 0.2408029659	 0.091052
H	-0.438842315	-0.1747113017	-0.9427020656	 0.087409
