21
gdb 38904	3.41342	1.46609	1.15993	0.3854	88.41	-0.2184	0.0257	0.2441	1114.7963	0.186223	-349.96532	-349.958152	-349.957208	-349.996705	30.009	
C	 0.0548857691	 1.5573801557	 0.1597060846	-0.274196
C	 1.2948178713	 0.7407973165	-0.0811813731	-0.024269
C	 2.16641429	 0.3987123407	 1.1448292954	-0.278914
C	 1.4550296423	-0.8092689142	 1.8013592208	-0.014111
C	 1.3277402413	-0.9875819047	 3.3239446421	-0.240252
C	-0.0738400086	-1.6459480313	 3.4952359917	-0.24256
C	-0.8345995568	-1.1490662602	 2.2769161942	-0.251081
C	 0.0089029497	-0.682849433	 1.3578654023	 0.380291
C	-0.0577647101	 0.0460795319	 0.0658163864	-0.181167
H	-0.0831883209	 2.0202738351	 1.131967282	 0.110127
H	-0.3429015598	 2.1322488818	-0.6706167099	 0.107649
H	 1.7716866921	 0.8166378728	-1.0519012124	 0.081898
H	 3.1929845372	 0.1664212748	 0.8482181864	 0.096229
H	 2.2171907551	 1.2480258618	 1.8372948146	 0.097611
H	 1.8715660953	-1.7257696109	 1.3532243121	 0.074457
H	 2.1332490047	-1.5738102946	 3.7750865864	 0.089459
H	 1.3227450065	-0.0023092278	 3.8059849351	 0.09601
H	 0.0015867361	-2.7440196744	 3.50044041	 0.100401
H	-0.5554328644	-1.3689606866	 4.4398600681	 0.097721
H	-1.9158535536	-1.1804352794	 2.202953354	 0.084736
H	-0.5814690463	-0.3757430342	-0.7849870411	 0.08996
