19
gdb 107950	3.03094	1.51669	1.32891	1.6219	78.88	-0.2261	-0.0035	0.2226	1045.8158	0.159086	-385.823128	-385.815458	-385.814514	-385.855216	30.694	
C	-0.1025266841	 1.5722077498	 0.0893712337	-0.38148
C	-0.0171749303	 0.0415235287	 0.0677971283	-0.32879
C	 0.793045992	-0.5106542177	 1.2003446643	 0.465992
O	 0.3542426254	-0.230760853	 2.582008825	-0.361
C	 1.562381557	-1.0443011455	 2.7328778542	 0.066985
C	 1.1379923789	-2.0063602156	 1.5739834851	-0.14615
C	 2.3910631428	-2.3838740498	 0.8134615782	-0.112778
C	 3.1381188901	-1.2735039263	 0.827752268	-0.112993
C	 2.3072965465	-0.2689638322	 1.596699101	-0.134832
H	 0.8873620265	 2.0245062564	-0.0288010094	 0.117795
H	-0.7381167293	 1.9383298002	-0.7218624369	 0.112875
H	-0.5189247886	 1.9207629026	 1.038220797	 0.140506
H	-1.0223050196	-0.3943402874	 0.1240169575	 0.113088
H	 0.4308916519	-0.3107161138	-0.8696188382	 0.112035
H	 1.8941261479	-1.2800437656	 3.7471303206	 0.088801
H	 0.3248997488	-2.712225052	 1.7369995909	 0.073208
H	 2.6036741092	-3.3441772228	 0.3644612072	 0.106329
H	 4.1128702115	-1.1008553483	 0.3929597348	 0.105736
H	 2.6549730835	 0.7454025223	 1.7849323185	 0.074673
