25
gdb 114736	2.70615	1.21327	0.96078	0.2623	91.42	-0.2569	0.0763	0.3332	1363.2501	0.230457	-352.362123	-352.352771	-352.351827	-352.39603	36.94	
C	-0.0086419285	 1.6008343349	-0.0090625616	-0.387454
C	 0.0230362679	 0.0685837641	-0.0491724252	-0.194292
C	-1.3686698391	-0.5710886168	-0.0674738587	 0.063224
C	-2.232530248	-0.241111773	-1.3126257053	-0.244868
C	-3.2937747724	-1.3412402362	-1.3596345029	-0.032369
C	-2.9138525573	-2.6285824795	-2.0411934171	-0.283538
C	-2.7771899466	-2.5081555041	-0.5416806532	-0.035795
C	-1.4191747147	-2.1294413399	 0.0721188466	-0.029158
C	-0.2249197117	-2.8853003879	-0.5297108137	-0.394305
H	 1.0026608666	 2.0159832805	 0.0462154811	 0.108848
H	-0.4880753993	 2.0177777174	-0.9006378159	 0.117998
H	-0.5643133563	 1.9618572668	 0.864020096	 0.111654
H	 0.5924494344	-0.258162028	-0.9285556387	 0.094391
H	 0.575901524	-0.2992807978	 0.8252608697	 0.091135
H	-1.921765665	-0.1794130299	 0.7982602259	 0.065968
H	-2.685029961	 0.7515392814	-1.2377461825	 0.09708
H	-1.6199147922	-0.2374025861	-2.2244712214	 0.090969
H	-4.3400212809	-1.0575066243	-1.3327350192	 0.076711
H	-3.7130622635	-3.2620285339	-2.4127627712	 0.103169
H	-2.0236259762	-2.639623627	-2.6621764771	 0.104688
H	-3.456055067	-3.0998480167	 0.0631697927	 0.076255
H	-1.4453860643	-2.3794325844	 1.1392986608	 0.067009
H	-0.0647905522	-2.6460241968	-1.5856873902	 0.112562
H	 0.7026827596	-2.652577673	 0.0022913497	 0.109821
H	-0.3866122663	-3.9658075196	-0.4602872185	 0.110298
