17
gdb 124212	4.84608	0.98518	0.82293	1.2045	78.62	-0.1993	0.0217	0.221	1359.3305	0.138182	-414.222259	-414.213688	-414.212744	-414.256227	31.439	
C	-0.0122964449	 1.5062045887	-0.1930621747	-0.488938
C	-0.0112407675	 0.0303475131	 0.1565205578	 0.365212
N	-0.0377556054	-0.4663542212	 1.3359541633	-0.512527
N	 0.023015844	-0.7756183642	-0.9588022855	-0.402694
C	 0.0346671432	-2.1648458121	-1.0155841467	 0.440891
N	 0.0697144933	-2.7303278969	-2.2226993807	-0.333936
N	 0.0727029284	-4.0559817886	-1.9573669533	-0.185124
C	 0.0407187501	-4.3305034339	-0.6339435053	-0.020977
C	 0.0150059528	-3.1211003794	 0.0276336135	-0.280793
H	 0.8860903476	 1.7751054487	-0.7599331989	 0.139655
H	-0.8809309924	 1.7621899661	-0.810052666	 0.139496
H	-0.0424411026	 2.1130112652	 0.7129106593	 0.132666
H	-0.0605364756	 0.2803923133	 2.0261085117	 0.209035
H	 0.0427768374	-0.3316432104	-1.8625326097	 0.25314
H	 0.0971256926	-4.7023682831	-2.7257554576	 0.272898
H	 0.0386733554	-5.3443179182	-0.2653732848	 0.12979
H	-0.0134303163	-2.9219887068	 1.0819983578	 0.142206
