17
gdb 45624	5.11428	0.97121	0.87664	3.4195	75.46	-0.2419	-0.0116	0.2303	1310.7547	0.137471	-418.052588	-418.04465	-418.043706	-418.086123	29.68	
O	 0.0313232267	-0.009614361	 0.1373165788	-0.359388
C	-0.0219232145	 1.1926119047	 0.0670194648	 0.397534
C	-1.2262144631	 2.1384911204	-0.0337289678	-0.298931
N	-0.6897731675	 3.4963632372	-0.0883942261	-0.315805
C	 0.5872580547	 3.3875912581	-0.0321737667	 0.410838
N	 1.0547612267	 2.0743374363	 0.059019896	-0.388104
C	 1.5427625754	 4.5108119805	-0.0571568907	-0.121733
C	 1.1982081377	 5.7354136201	-0.8878336657	-0.247849
C	 1.1392040413	 5.8187952154	 0.6021421786	-0.247874
H	-1.8181404897	 1.9050715082	-0.9263305593	 0.146623
H	-1.8882849681	 2.003222549	 0.8293482062	 0.146616
H	 2.0168816462	 1.7822693695	 0.1158496145	 0.264491
H	 2.5884639082	 4.2290149683	-0.0000414666	 0.086392
H	 2.0123847539	 6.2260864939	-1.408833165	 0.119123
H	 0.2584771656	 5.6871386217	-1.4248529761	 0.144471
H	 0.1598394077	 5.8265350596	 1.0653912219	 0.144482
H	 1.911912659	 6.3680800582	 1.1277828431	 0.119114
