16
gdb 123844	3.71191	1.66853	1.18533	3.2055	76.66	-0.2324	-0.0264	0.206	991.2068	0.129062	-396.977183	-396.970684	-396.96974	-397.008087	25.618	
C	-0.0249579242	 1.4860797754	 0.0655823358	-0.271929
C	 1.3921032257	 2.0950966588	-0.0342402275	-0.336283
C	 2.218392048	 1.3587136081	-1.0394890796	 0.384528
N	 3.2535011962	 1.7446945789	-1.7603564429	-0.344228
C	 3.6117846978	 0.5947032442	-2.406883921	 0.022253
N	 2.875478424	-0.4688981356	-2.1337126751	-0.260343
N	 1.9761332782	 0.0405998878	-1.2504209917	-0.012698
C	 0.9403281257	-0.6853221691	-0.6458838829	 0.039513
C	-0.0119449572	-0.0257050515	 0.013980074	-0.118481
H	-0.5071988899	 1.8334363833	 0.983811541	 0.118584
H	-0.6463160246	 1.8594208138	-0.762101356	 0.12907
H	 1.3538004619	 3.156031183	-0.2901885781	 0.139344
H	 1.893296714	 2.0225444187	 0.9410660463	 0.1328
H	 4.4387896824	 0.5449064796	-3.0992806802	 0.127414
H	 1.0035404679	-1.7570425509	-0.7735806848	 0.138582
H	-0.8184791658	-0.5799021746	 0.4786509725	 0.111873
