18
gdb 54984	3.54097	1.13121	0.97928	3.8856	73.74	-0.2474	0.001	0.2485	1238.1879	0.145892	-439.059892	-439.050905	-439.049961	-439.094375	31.966	
C	 0.0547501651	 1.4224480506	-0.096242636	-0.475076
C	-0.0667587063	-0.0872775364	-0.0291994135	 0.364126
O	 0.2157671825	-0.7422387646	 0.9494448273	-0.328588
N	-0.6085629113	-0.6726635546	-1.1759777007	-0.121568
C	-0.0856953264	-0.585877582	-2.5325848114	-0.321766
C	-0.1518714387	-1.8811846864	-1.7881618902	 0.276478
C	 0.9820396082	-2.8141154758	-1.3616299776	-0.146217
O	 0.1831528142	-3.9593120197	-1.7382236147	-0.274525
C	-0.9666306318	-3.1433365354	-2.0499676226	-0.139526
H	 0.9316542863	 1.7022732678	-0.6912306634	 0.141127
H	-0.8221025351	 1.8679835049	-0.5728621171	 0.143574
H	 0.1799197412	 1.8149686833	 0.9127744995	 0.150899
H	-0.8096537864	-0.3631287409	-3.3130767724	 0.129261
H	 0.8969053217	-0.1388209488	-2.6757596086	 0.127798
H	 1.9099681499	-2.748358873	-1.9425127268	 0.105044
H	 1.2049103824	-2.7929453445	-0.2905041903	 0.142473
H	-1.7947118558	-3.3003249202	-1.3477292006	 0.118865
H	-1.3196699999	-3.2973617443	-3.076951241	 0.107622
