17
gdb 19569	3.91846	2.06592	1.88803	1.7865	67.91	-0.2351	0.0823	0.3174	777.6079	0.144667	-363.803433	-363.79721	-363.796266	-363.833474	25.42	
C	 0.0347809678	 1.4952452791	-0.0063533028	-0.348259
N	 1.2758338451	 0.676541378	 0.0450815158	-0.395945
C	-0.0135423593	 0.0272257589	 0.0125827645	 0.449461
C	-0.5837220209	-0.9810304139	 1.0326134908	-0.159516
C	-1.7709835832	-1.1315172286	 0.0260466343	-0.236252
C	-0.61843897	-0.9566842404	-0.9954324941	 0.002901
O	 0.1783855376	-2.1381526906	-0.8026209433	-0.285507
C	 0.2634422489	-2.2029661661	 0.6464508997	-0.075956
H	-0.1661310576	 2.0697632648	 0.8941827548	 0.121375
H	-0.2112627098	 2.0090418279	-0.933175303	 0.114185
H	 1.722438141	 0.6407701951	-0.8687065293	 0.235691
H	-0.7147240605	-0.7551854167	 2.0890998877	 0.078766
H	-2.3019669678	-2.0852635785	 0.0001769037	 0.101599
H	-2.4610003865	-0.2872861724	 0.0548168198	 0.106247
H	-0.7497897672	-0.7623008639	-2.0590450172	 0.078811
H	 1.308056998	-2.1099422545	 0.9627812096	 0.113613
H	-0.1454842956	-3.1559464683	 0.9999418893	 0.098786
