16
gdb 4549	3.92281	1.668	1.1847	2.3547	68.62	-0.1718	0.0544	0.2262	980.0176	0.130838	-379.942358	-379.933874	-379.932929	-379.975026	30.878	
C	-0.062501394	 1.4624117972	 0.0148055158	-0.342995
N	-0.0114718316	 0.0178285013	-0.0052763613	-0.006084
C	-0.0678516769	-0.7656023565	-1.1473272544	-0.2029
C	 0.0309027332	-2.0775601395	-0.7524842834	 0.326431
O	 0.0248469266	-3.1390959578	-1.6144582413	-0.452154
C	 0.127943961	-2.107371409	 0.6656866135	-0.385018
C	 0.0946505185	-0.7923014976	 1.0949867291	 0.290774
N	 0.2112275229	-0.2215436679	 2.3817325951	-0.607798
H	 0.3313771894	 1.8085343608	 0.9716407252	 0.155473
H	 0.5513562721	 1.8671536827	-0.7949020858	 0.133718
H	-1.0861504531	 1.8391630824	-0.1048858582	 0.125181
H	-0.1728625349	-0.3288566814	-2.1256252448	 0.109334
H	 0.0960377619	-3.9456152413	-1.0968923476	 0.292488
H	 0.2024706964	-2.9796796301	 1.29874906	 0.075631
H	 0.7065280952	-0.8481106144	 3.0041419271	 0.245292
H	-0.6913260769	-0.0213406887	 2.8039359809	 0.242626
