18
gdb 84563	2.96903	1.81217	1.39404	1.8246	75.63	-0.2213	0.0048	0.2261	947.8944	0.150019	-401.908593	-401.901483	-401.900539	-401.939774	28.977	
O	-0.0838462333	 1.4442238053	 0.0398011795	-0.435598
C	 0.0374454	 0.0225729574	-0.0004896864	 0.082761
C	 0.8349057783	-0.5116632429	 1.1632219148	-0.134541
C	 0.4277401082	-1.5815309768	 1.8443916153	-0.043695
C	-0.7955450425	-2.3252016735	 1.4640049086	-0.061957
C	-2.1779786185	-1.7655253391	 1.5317964739	-0.036395
C	-2.1943564951	-0.2558622772	 1.3391325925	-0.260949
C	-1.3886525734	-0.5124331069	 0.0384980819	 0.017579
N	-1.4982118449	-2.0198060927	 0.2000743937	-0.175072
H	 0.8022244175	 1.8201840052	 0.0436396315	 0.283798
H	 0.5107580545	-0.2868791889	-0.9483075664	 0.08101
H	 1.754037266	 0.0075306221	 1.4258444028	 0.084816
H	 0.9983217857	-1.964908551	 2.6857093823	 0.095003
H	-0.7443751111	-3.399602363	 1.6266696385	 0.09705
H	-3.0156756843	-2.3732961468	 1.8616681635	 0.092154
H	-3.1928798189	 0.1362999111	 1.1415272774	 0.11102
H	-1.7154013808	 0.3527582042	 2.1096521937	 0.113616
H	-1.9220767873	-0.2124738364	-0.8648162273	 0.089399
