16
gdb 114582	2.11533	1.66618	1.09814	3.4717	71.14	-0.2668	-0.0078	0.259	1108.6341	0.122733	-437.840801	-437.832322	-437.831377	-437.874416	30.442	
C	 0.0462951263	 1.0215988179	 0.597157159	-0.251044
O	-0.222545788	 0.1644469631	-0.4985069085	-0.224319
C	-1.3947689868	-0.5610419517	-0.3669575307	 0.041507
C	-1.6710469061	-1.551939599	-1.5404574619	-0.286262
C	-1.7227903335	-2.6904458115	-0.5179137204	-0.052374
O	-0.4582388538	-2.7352992608	 0.1345659893	-0.262483
C	-1.4084488014	-1.7786057947	 0.6112755466	 0.30523
C	-1.8029734889	-1.8154047951	 1.9829883799	 0.196185
N	-2.136655788	-1.7840927655	 3.0905118046	-0.338739
H	 0.9617462828	 1.5658586232	 0.3583644843	 0.138977
H	-0.7710763192	 1.740862055	 0.7542529367	 0.114739
H	 0.1995521987	 0.4564933734	 1.5266380584	 0.130964
H	-2.2617370507	 0.0849529513	-0.1604142373	 0.090876
H	-2.6160062973	-1.3558970079	-2.0492054688	 0.123512
H	-0.8577805642	-1.6354061837	-2.2624196538	 0.137856
H	-2.3245878499	-3.590794804	-0.5087107274	 0.135375
