22
gdb 110352	2.17006	1.37769	1.29132	1.9015	82.	-0.2228	0.0594	0.2822	1179.6152	0.19343	-404.298675	-404.289004	-404.28806	-404.332684	36.612	
C	 0.4470201737	 1.0398849591	 0.7570641038	-0.375699
C	 0.3221776963	-0.2400857628	-0.0779094505	-0.228502
C	-1.0967053818	-0.7764276912	-0.108789122	 0.036165
C	-1.5442962608	-2.1619705586	-0.3523823708	-0.081567
C	-0.7076161637	-3.2175226849	 0.3538892934	 0.060328
O	 0.6313412447	-3.30105143	-0.096047306	-0.419864
C	-1.048645737	-2.4798688	 1.688117434	 0.039105
C	 0.0233556782	-2.0444774039	 2.6727740894	-0.418658
N	-1.8726011135	-1.4382178058	 0.9658745009	-0.177742
H	 1.461689207	 1.4463885067	 0.702423448	 0.10946
H	-0.2419042707	 1.8135419169	 0.4003371617	 0.113682
H	 0.2136895791	 0.8543498673	 1.8098597937	 0.122234
H	 0.5909219318	-0.0179590865	-1.1194735245	 0.098693
H	 1.0282626865	-1.0021509792	 0.2486075076	 0.127332
H	-1.771173838	-0.0566569077	-0.577017429	 0.092529
H	-2.3192098252	-2.3976244347	-1.0754511241	 0.089668
H	-1.1841510095	-4.2046830182	 0.3132454596	 0.077673
H	 1.0527140894	-4.0405075427	 0.3536317249	 0.284975
H	-1.7838539533	-3.0810627124	 2.2338140339	 0.081889
H	 0.8936310065	-1.5917655288	 2.1978762682	 0.130657
H	-0.3971184273	-1.3224650906	 3.3806226767	 0.129641
H	 0.3696475376	-2.9083443219	 3.251983641	 0.108
