21
gdb 63816	3.18663	1.50128	1.33748	1.645	81.14	-0.2402	0.074	0.3142	1060.9349	0.18211	-387.037703	-387.029496	-387.028552	-387.069757	33.394	
C	-0.3143810234	 1.6122009219	-0.0280604543	-0.446851
C	-0.0039726856	 0.124422177	 0.0219418565	 0.396455
C	-1.2505606708	-0.7033450025	-0.2910442997	-0.419539
O	 1.0726018302	-0.2732364762	-0.9066093803	-0.349207
C	 1.7175007801	-1.0731624708	 0.1172462626	 0.10838
C	 2.9676939788	-0.467614568	 0.794655658	-0.068183
C	 2.8693138828	 1.0216649135	 0.8229011865	-0.291181
C	 2.0366969254	 0.2332459199	 1.8052003466	-0.088842
C	 0.8036081545	-0.4840611675	 1.199665491	-0.104915
H	-0.5727395958	 1.9032090088	-1.0518937785	 0.12386
H	-1.1757835654	 1.8344145403	 0.6106429549	 0.114098
H	 0.5200874978	 2.2272702288	 0.3072989519	 0.126104
H	-1.6196615742	-0.464667164	-1.2934951491	 0.121046
H	-1.027390402	-1.7737928867	-0.258282829	 0.115013
H	-2.0483375842	-0.495215043	 0.430300374	 0.1098
H	 1.7627496542	-2.1346662216	-0.137095277	 0.073966
H	 3.8949670402	-1.0012505188	 0.9644352297	 0.083199
H	 3.7163543954	 1.5253056805	 1.2785863845	 0.109215
H	 2.4392451767	 1.5409602036	-0.0233561742	 0.130899
H	 2.1814858906	 0.362899291	 2.8709724524	 0.087595
H	 0.2655793847	-1.1141392262	 1.9079344338	 0.069089
