20
gdb 103505	3.00132	1.37278	1.22828	0.5687	79.66	-0.2193	0.0148	0.2341	1104.3618	0.17071	-403.122273	-403.113574	-403.11263	-403.155103	33.918	
C	-0.1508165702	 1.6444682084	-0.0046349938	-0.426754
C	-0.0006200505	 0.1189498848	-0.0388141825	 0.230583
C	-1.3837380364	-0.5389358147	 0.1173986815	-0.089131
O	-2.1778741256	-0.1790705012	-1.0046323611	-0.430071
C	 0.7012464559	-0.40206229	-1.2838095888	-0.103115
C	 1.7252355185	-1.1906540635	-0.9597701018	-0.097986
C	 1.8832285248	-1.2438554302	 0.5213329128	-0.071059
C	 2.2057717998	 0.0600118485	 1.1692338635	-0.2471
N	 0.8139146464	-0.3972132436	 1.1008696514	-0.130058
H	 0.7955559627	 2.1519126348	-0.206518197	 0.110633
H	-0.8781223764	 1.957678081	-0.7570474306	 0.137838
H	-0.5119275092	 1.9627068539	 0.9784253658	 0.120357
H	-1.2478549087	-1.6277406685	 0.1832979654	 0.089645
H	-1.8315230327	-0.1956021848	 1.0624209294	 0.09004
H	-3.0371158412	-0.5991493167	-0.9120270214	 0.289856
H	 0.3778937857	-0.1424567349	-2.2838700397	 0.107411
H	 2.3783585342	-1.71450077	-1.6473091123	 0.099823
H	 2.1125736683	-2.1825020031	 1.0192796521	 0.091735
H	 2.6112959899	 0.0867574971	 2.177503672	 0.112518
H	 2.5402258646	 0.8624860125	 0.5173034051	 0.114839
