19
gdb 74529	3.64031	1.34537	1.28032	1.8372	80.53	-0.2198	0.0147	0.2345	1076.3464	0.159898	-385.846368	-385.838768	-385.837824	-385.878015	30.664	
C	 0.0711439313	 1.5191956434	 0.0615853428	-0.487
C	-0.0083861476	 0.0271749221	-0.0266569401	 0.325488
C	-0.0410408985	-0.7172698415	-1.1473842951	-0.275325
C	-0.0318009515	-2.1711827717	-0.8401837885	 0.120032
C	 1.1696960953	-2.7749089835	-0.1170958764	-0.360769
C	 0.0254539225	-2.2393933962	 0.6733395937	 0.384967
C	-0.0349051237	-0.8371558769	 1.2427795501	-0.400984
O	-1.0575053505	-3.1794060331	 0.7668506107	-0.325234
C	-1.239195595	-3.108152936	-0.6792470776	-0.134094
H	 0.9901428413	 1.8401937842	 0.5686207594	 0.127594
H	 0.0510920141	 1.9836053056	-0.9278737014	 0.126213
H	-0.7636006254	 1.9243597077	 0.6478371356	 0.127509
H	-0.0408611877	-0.299978306	-2.1494548089	 0.08818
H	 1.3198617973	-3.8501433757	-0.1429720159	 0.117995
H	 2.07355854	-2.1769641045	-0.1467028484	 0.120338
H	 0.7914319397	-0.5947768774	 1.9224468176	 0.110241
H	-0.9637037628	-0.689575025	 1.808127151	 0.123263
H	-2.1935576206	-2.6319167409	-0.9285606047	 0.108427
H	-1.1840966282	-4.0985540845	-1.1463469739	 0.103157
