23
gdb 58987	3.35377	0.88745	0.84777	1.6196	88.82	-0.2323	0.0253	0.2576	1527.2847	0.205052	-388.312683	-388.302572	-388.301628	-388.347915	37.798	
C	 0.0538591323	 1.5071964208	-0.0591861998	-0.406748
C	 0.0293115711	-0.0243944404	 0.0140381272	 0.00938
O	 0.7783129709	-0.4921553533	 1.1400916909	-0.428988
C	-1.3697721299	-0.5833543449	 0.0095286006	 0.351569
C	-1.947317569	-1.2671221971	-0.9792777358	-0.191884
C	-3.3813383936	-1.6478540214	-0.6833145869	 0.000802
C	-3.7599002697	-3.0760270525	-1.090120311	-0.396122
C	-3.4746062966	-1.3818045462	 0.8430518097	-0.216647
C	-2.337341782	-0.3832530973	 1.1641016302	-0.325029
H	 1.087495205	 1.8644073525	-0.0468306505	 0.123127
H	-0.4337135265	 1.8644301863	-0.9713922052	 0.121085
H	-0.4717369668	 1.9499464611	 0.7955899261	 0.109199
H	 0.5638486731	-0.4268454913	-0.8534889369	 0.088607
H	 0.4304998592	-0.0541732234	 1.9242168292	 0.277711
H	-1.4661836859	-1.5109332242	-1.9223037741	 0.081269
H	-4.0518936461	-0.9582796689	-1.2209362435	 0.073838
H	-3.1084329622	-3.8066904426	-0.5981424397	 0.11623
H	-4.7942874228	-3.3037548394	-0.8106675389	 0.111336
H	-3.6687407422	-3.2202772795	-2.1720747646	 0.110454
H	-4.4598548725	-1.0236042309	 1.1537955582	 0.092777
H	-3.2884422689	-2.3223512546	 1.3739047275	 0.102396
H	-1.8807725016	-0.5750064797	 2.142354101	 0.093024
H	-2.7040496054	 0.653085327	 1.1903804464	 0.102615
