18
gdb 99079	4.04867	0.71106	0.68936	2.4224	71.11	-0.2585	-0.0407	0.2178	1651.5645	0.144438	-476.260398	-476.250007	-476.249063	-476.297544	35.48	
C	 0.1204761124	 1.5936875666	-0.3234312266	-0.397063
C	-0.0790818626	 0.1339972131	 0.0758269147	-0.058139
N	-1.4815147429	-0.2615627411	 0.1120079398	-0.333662
C	-2.0924315864	-0.7298386023	 1.232117746	 0.393759
O	-1.5124830604	-0.9197081011	 2.2902183004	-0.382391
C	-3.5913072263	-1.0232309604	 1.1194279071	-0.146396
O	-4.0777211882	-1.5022350962	 2.3360478592	-0.416768
C	 0.6926775586	-0.8350121708	-0.8197790963	 0.149569
O	 1.5435809502	-0.5074350559	-1.603111112	-0.23251
H	 1.1867583073	 1.8214469079	-0.3789116322	 0.149034
H	-0.306688396	 1.7925138903	-1.3118113421	 0.122765
H	-0.3524126243	 2.2574470767	 0.4038556723	 0.129684
H	 0.2851679536	-0.0391679912	 1.0974739734	 0.153114
H	-2.044098021	-0.0921597192	-0.7084042393	 0.255722
H	-4.1101946845	-0.0981305084	 0.81869335	 0.11185
H	-3.7498200052	-1.7554929797	 0.3112572289	 0.113495
H	-3.3058828476	-1.5029522023	 2.9268159107	 0.296799
H	 0.3924175731	-1.8986249658	-0.6859117241	 0.091138
