17
gdb 31040	2.37699	1.33036	0.89849	1.2467	71.36	-0.1797	0.0525	0.2322	1277.0949	0.135684	-455.189846	-455.180554	-455.17961	-455.224089	33.887	
C	 0.2002510312	 1.5868806691	 0.1577023159	-0.359438
C	-0.1149279581	 0.1132706553	-0.1466798045	-0.30058
C	 0.5846236017	-0.4024963718	-1.3630327818	 0.146975
C	 0.0611314157	-0.8524943988	-2.5386233263	 0.291878
O	-1.1894902873	-1.0166091765	-3.0427566326	-0.439837
N	 1.1288974744	-1.2058663827	-3.348807513	-0.353455
C	 2.2469924828	-0.947431958	-2.6130871347	 0.430041
O	 3.4577420636	-1.1969681752	-3.1470973271	-0.429186
N	 1.9855741644	-0.4724727505	-1.4349671323	-0.414131
H	 1.2791061439	 1.7234460079	 0.2699311307	 0.137156
H	-0.1354185809	 2.2365850537	-0.6570157265	 0.109714
H	-0.2879403886	 1.9133577913	 1.0816773199	 0.103294
H	 0.1634334559	-0.4980007573	 0.7218794159	 0.113508
H	-1.2003915879	-0.0139447823	-0.2654788738	 0.069415
H	-1.8216842292	-0.7501157466	-2.3679164123	 0.307074
H	 1.0789027484	-1.5807169208	-4.2804652979	 0.276125
H	 4.10135845	-0.9487555767	-2.4717046597	 0.31145
