17
gdb 80377	3.32872	1.30844	1.14741	5.1936	72.15	-0.248	0.0288	0.2769	1080.4061	0.136592	-417.975257	-417.96695	-417.966006	-418.00768	32.276	
N	 0.1616704539	 1.4938990486	-0.0854243739	-0.569471
C	 0.0044402146	 0.0522262053	-0.000121916	 0.147079
C	 0.2230721126	-0.5823838178	 1.4260608213	-0.271922
C	-1.1359753433	-1.2814600962	 1.3268193805	-0.099607
C	-2.224008494	-0.2708851516	 1.138946468	 0.070581
O	-2.1698474523	 1.0251379466	 1.6779876381	-0.419485
C	-1.3979844373	-0.6245005416	-0.051554808	-0.130546
C	 0.8856198537	-0.5812478869	-0.9877765282	 0.279472
N	 1.5561333815	-1.0892699836	-1.7802319684	-0.341906
H	 0.0047281875	 1.8137051056	-1.0364978482	 0.235227
H	-0.5448626469	 1.9211561547	 0.5058452955	 0.253604
H	 1.0727633287	-1.2635755662	 1.4584721032	 0.135082
H	 0.324321566	 0.1619695747	 2.2191229	 0.109186
H	-1.3359065569	-2.2972499233	 1.6433852473	 0.097745
H	-3.2291195496	-0.6913347552	 1.1028128697	 0.103568
H	-2.300789519	 0.9616161971	 2.6302533842	 0.294452
H	-1.8360732595	-1.0414368001	-0.9505593251	 0.106941
