20
gdb 99263	4.17817	0.79029	0.73814	2.0921	72.51	-0.2505	0.0037	0.2542	1607.2806	0.169144	-477.451223	-477.440558	-477.439614	-477.48808	37.456	
C	 0.1852193939	 1.2437651837	 0.2256858307	-0.394363
C	-0.1243588707	-0.2424133892	 0.0206008865	 0.139482
O	-0.233608691	-0.9253607179	 1.258178118	-0.440274
C	-1.3780458079	-0.405687671	-0.8387332182	-0.114936
O	-1.6968095893	-1.7912515654	-1.0774017315	-0.235665
C	-2.4801460095	-2.4044053217	-0.1764561516	 0.435758
O	-2.9077154472	-1.8863658194	 0.8310480191	-0.385978
C	-2.7800049686	-3.8387969548	-0.5992724541	-0.26984
N	-3.5571339368	-4.6168613478	 0.3463508097	-0.486295
H	 1.0679504321	 1.3459789302	 0.8611837081	 0.1324
H	 0.3819069277	 1.750875168	-0.7253407796	 0.110489
H	-0.6497544022	 1.7507066448	 0.7221542931	 0.116826
H	 0.7159899362	-0.7132266336	-0.5073339834	 0.089592
H	-1.1649510205	-0.9438890486	 1.5146486443	 0.293218
H	-2.2359841331	 0.0795324115	-0.3625405856	 0.127427
H	-1.2214729897	 0.0278679934	-1.8291575033	 0.121385
H	-3.297888274	-3.7966516039	-1.5653875872	 0.140841
H	-1.8236490536	-4.3345065537	-0.7996275676	 0.14531
H	-3.0496697884	-4.6794156809	 1.2245232198	 0.237524
H	-4.4089612872	-4.1107726836	 0.5724535929	 0.237101
