20
gdb 54682	3.29498	1.13601	0.87372	4.6387	86.19	-0.1956	-0.0123	0.1833	1337.1863	0.172242	-403.196489	-403.187468	-403.186524	-403.230344	33.735	
C	 0.0756505294	 1.5278280366	 0.02183996	-0.490018
C	 0.0842849149	 0.0033226401	-0.00990319	 0.310365
O	 1.1502607799	-0.5973590932	-0.0489692097	-0.354845
C	-1.2154504036	-0.681724301	 0.0122521517	 0.096198
C	-1.1994908222	-2.0403912457	-0.019572089	 0.006419
N	-2.3052889236	-2.8247530535	-0.004594108	-0.296956
C	-3.62280837	-2.2467167559	 0.21217173	-0.154389
C	-3.6832951277	-0.8619353216	-0.4412327136	-0.209092
C	-2.5445102813	 0.0452625471	 0.0592458018	-0.321451
H	 1.1034752943	 1.8841033293	 0.0972704718	 0.131764
H	-0.3772702661	 1.9334235641	-0.8905357427	 0.129804
H	-0.5101947482	 1.909397107	 0.8655117544	 0.124738
H	-0.2432054789	-2.5499563851	-0.0772095293	 0.13485
H	-2.1917354544	-3.8182109426	 0.0961905028	 0.251973
H	-4.3757866795	-2.9133169544	-0.2200817671	 0.110266
H	-3.8381008941	-2.1617909264	 1.2886907943	 0.108332
H	-3.5988328746	-0.9855174252	-1.5268064429	 0.113681
H	-4.6583368915	-0.4085079089	-0.2389753862	 0.101171
H	-2.7713426572	 0.3914712703	 1.0784769131	 0.103263
H	-2.5179502456	 0.9493559489	-0.5589158015	 0.103927
