19
gdb 112028	3.27534	1.35391	1.08854	2.4665	77.51	-0.2387	0.0089	0.2477	1154.3363	0.159818	-422.994897	-422.986754	-422.98581	-423.028083	30.382	
C	-0.2078535986	 1.2902203748	-0.0316452469	-0.231947
O	 0.0900483425	-0.0855048584	-0.0619354747	-0.231387
C	 0.7151717292	-0.5619047798	 1.1111234659	 0.090781
C	-0.2186987895	-0.835038102	 2.278136637	-0.101104
C	-0.0625762813	-2.0583840022	 2.7819616792	-0.080268
C	 0.9582258461	-2.8682401802	 2.0288995678	-0.130241
C	 0.3748023499	-3.7816391428	 0.924078159	-0.070924
O	 0.6013268585	-2.7669762396	-0.0756140673	-0.274452
C	 1.3476193978	-1.9469499566	 0.8463002363	 0.079309
H	 0.6946181427	 1.900104633	 0.1358562789	 0.101874
H	-0.6318922523	 1.5480953792	-1.0051823296	 0.130062
H	-0.9423203912	 1.5464312973	 0.7470881424	 0.103366
H	 1.5035241803	 0.1520961159	 1.4132628863	 0.062084
H	-0.9145645219	-0.0914360334	 2.6501403473	 0.099001
H	-0.6165998892	-2.4631873841	 3.6227358162	 0.098416
H	 1.746644803	-3.297448623	 2.6507854631	 0.082736
H	 0.9626115229	-4.6873546332	 0.7229729966	 0.09526
H	-0.6849229454	-4.0469313782	 1.0132200578	 0.104428
H	 2.4023921965	-1.8852414167	 0.5583303746	 0.073005
