22
gdb 60167	4.01465	0.77636	0.73724	1.8436	80.	-0.2348	0.0696	0.3043	1623.8012	0.193039	-441.454873	-441.444951	-441.444007	-441.490133	36.963	
C	 0.0947979644	 1.5666200606	 0.151439216	-0.386319
C	 0.0095051311	 0.0514862347	 0.034873581	 0.148739
O	 0.525433393	-0.5194361791	 1.2255293838	-0.441117
C	-1.4257025097	-0.4414829946	-0.1862882385	-0.165688
N	-1.4608154105	-1.893614451	-0.1666120637	-0.105235
C	-1.0590670823	-2.6489949543	-1.3791034756	-0.207996
C	-2.1577557074	-3.6922748184	-1.0450278316	 0.1428
O	-1.7158037735	-4.8450345322	-0.3714313326	-0.433847
C	-2.7700096999	-2.5844722328	-0.146677181	-0.206095
H	 1.1279023498	 1.8712660401	 0.3383643094	 0.126413
H	-0.2470204844	 2.049754465	-0.7694393598	 0.108593
H	-0.5199299015	 1.9208854743	 0.9851737138	 0.119079
H	 0.6177292096	-0.2701517566	-0.8308702992	 0.060273
H	 0.1489561839	-1.4107252222	 1.254456976	 0.272974
H	-2.0513243175	-0.079073273	 0.6388453556	 0.105975
H	-1.834914823	-0.0295154484	-1.1280293523	 0.076842
H	-1.2653027265	-2.1026971348	-2.3134082145	 0.092038
H	-0.0251635661	-3.0084726339	-1.3930099393	 0.110252
H	-2.7697211349	-4.0414122554	-1.8769894978	 0.097003
H	-1.1722811981	-4.5608408864	 0.3721863861	 0.286261
H	-3.1250497413	-2.8872029664	 0.8442714912	 0.106969
H	-3.5646578251	-2.0215629352	-0.660698317	 0.092084
