13
gdb 19222	3.22394	2.01475	1.44148	3.8176	65.14	-0.2366	-0.0275	0.2092	843.4631	0.094296	-361.386944	-361.379966	-361.379022	-361.418234	26.11	
O	-0.0939554558	 0.0081641681	-0.0938649149	-0.291665
C	-0.1028933145	 1.1931291388	 0.017860459	 0.447186
C	-1.1431569753	 2.2771113679	-0.1233767022	-0.192368
N	-0.9710279113	 3.1316616939	 1.1053007078	-0.312754
C	-0.0719212741	 3.3272196816	-0.0273938608	-0.053447
C	 1.0516968683	 2.2794436692	 0.125095601	-0.316481
C	 1.9232090803	 2.3218255342	 1.2750594866	 0.346283
C	 2.6545663376	 2.3440009081	 2.2284438622	-0.446343
H	-2.0817414593	 2.2604268279	-0.6615340899	 0.123631
H	-1.7049022211	 3.8388112776	 1.0559322743	 0.245287
H	-0.0071055189	 4.2620806579	-0.5678121797	 0.118441
H	 1.6263332881	 2.1922641517	-0.8060320239	 0.132824
H	 3.2906605459	 2.363129523	 3.0784475405	 0.199406
