13
gdb 1438	4.63736	1.83987	1.33924	1.1437	55.82	-0.2683	0.0125	0.2807	844.3381	0.101276	-340.684749	-340.676921	-340.675977	-340.717783	25.845	
C	 0.3300833702	 1.3798246218	-0.0464885624	-0.337974
N	 0.6335128081	 0.0276637139	 0.3861107454	-0.320999
C	-0.2349474933	-0.708216845	 1.1174225902	 0.436786
O	-1.3316857966	-0.3373266458	 1.4844711547	-0.36747
C	 0.235313474	-2.1329722513	 1.5016213556	-0.454902
C	 1.5594004301	-2.5149409989	 1.0306638444	 0.265404
N	 2.6160984798	-2.7603020989	 0.6300899293	-0.312356
H	 1.0547629089	 2.0933374861	 0.3591543568	 0.135812
H	 0.3372757856	 1.4531368332	-1.138901715	 0.135815
H	-0.6646646919	 1.6293415512	 0.3233288739	 0.174794
H	 1.5218562956	-0.3768774728	 0.1340065168	 0.272443
H	 0.1944184462	-2.2002966748	 2.5930758085	 0.186334
H	-0.5132404266	-2.8320791488	 1.1163889519	 0.186313
