21
gdb 38339	3.65008	1.41842	1.19935	1.417	82.65	-0.2343	0.0883	0.3226	1101.4587	0.18526	-387.048648	-387.041284	-387.04034	-387.08091	30.057	
C	-0.083037145	 1.5488150361	 0.0982909603	-0.234258
C	 1.450004365	 1.2750161657	 0.0680437012	-0.117012
C	 1.1743421206	 0.1242622734	 1.085868616	-0.231893
C	 0.052620846	 0.0007741132	 0.0092566868	-0.12088
C	 1.1633068363	 0.2439449913	-1.0638976877	 0.532224
C	 0.7923340767	 0.6836231128	-2.4987120638	-0.326014
C	 1.8605874378	 0.0164096296	-3.3789500929	-0.226003
C	 2.2029219813	-1.2194049619	-2.5469113452	-0.081571
O	 2.1466996015	-0.7758836804	-1.2008459086	-0.320098
H	-0.4703644443	 1.9309597095	 1.0453247794	 0.09243
H	-0.5285710479	 2.0741043252	-0.7487437689	 0.090608
H	 2.256644898	 2.0100323493	 0.0983995282	 0.064565
H	 1.9057310583	-0.6803217128	 1.1313747018	 0.11484
H	 0.8447535201	 0.4395406999	 2.0794552662	 0.083149
H	-0.7551217541	-0.733017791	-0.0302229784	 0.063193
H	-0.2051144801	 0.3123334758	-2.7590240249	 0.107037
H	 0.7757008551	 1.7692394514	-2.6119519981	 0.111244
H	 1.5076076524	-0.2223376257	-4.3851960087	 0.099184
H	 2.7425662984	 0.6586977624	-3.4689402691	 0.107796
H	 1.4739336798	-2.0272076065	-2.7251062223	 0.086489
H	 3.204870194	-1.6183917372	-2.7291154311	 0.104972
