18
gdb 37649	3.1975	2.3197	2.05997	1.7647	75.85	-0.2183	0.074	0.2923	775.008	0.152259	-364.740267	-364.734974	-364.73403	-364.769475	24.297	
C	-0.0459645337	 1.5516733547	-0.08102569	-0.240181
C	 1.5078283185	 1.4868387699	 0.0224116955	-0.060639
C	 2.1046762101	 1.1928798287	-1.3402337483	-0.039709
C	 2.6885052464	-0.1566179937	-1.4529422327	-0.056191
C	 1.960692854	-0.9485136305	-0.3537217657	-0.076356
C	 1.3971969177	 0.067399873	 0.6900302024	-0.05136
C	-0.0328150752	 0.0176718834	 0.0515424402	-0.036125
C	 0.6495533874	-0.7198362572	-1.1467653938	 0.007769
N	 1.3789259207	 0.1666818664	-2.1495590168	-0.167106
H	-0.4962529079	 2.016414951	 0.8005280171	 0.097298
H	-0.4693328758	 1.9976430242	-0.9857199427	 0.104048
H	 2.0312249882	 2.2863167789	 0.5505145176	 0.066903
H	 2.4760996194	 2.0094811544	-1.9518627296	 0.091686
H	 3.5826995173	-0.4244714583	-2.0047072956	 0.091946
H	 2.314008015	-1.9246151438	-0.0284416967	 0.06745
H	 1.6001405947	-0.0246869304	 1.7567369873	 0.064371
H	-0.8795625901	-0.5095510413	 0.4943465998	 0.060944
H	 0.1061462934	-1.5095868993	-1.665646878	 0.075251
