15
gdb 16830	3.77957	1.88903	1.43009	2.8987	60.55	-0.2418	-0.0234	0.2184	846.1165	0.120112	-399.796457	-399.789654	-399.78871	-399.827558	26.228	
O	-0.0217809959	 1.4206297661	 0.006744622	-0.437233
C	 0.0212372375	 0.013492259	-0.0911880366	 0.148386
C	 0.809195728	-0.692370375	 1.0455582369	-0.372666
C	 0.0631840888	-2.0010912446	 1.3201100827	 0.44263
O	 0.529623481	-3.0273824642	 1.7428532604	-0.319618
C	-1.3542974975	-1.8080113798	 0.8533093279	-0.162961
N	-1.9189703029	-0.5030770087	 1.3180820092	-0.346324
C	-1.3699503755	-0.616731617	-0.0392925021	-0.074569
H	-0.5492984715	 1.620021082	 0.7907745761	 0.288633
H	 0.4851947981	-0.2030052553	-1.0586801099	 0.101071
H	 1.8564228829	-0.8830551779	 0.8074125897	 0.131424
H	 0.7787828226	-0.0768262934	 1.9510794971	 0.139715
H	-2.0079976279	-2.6636215991	 0.7332371608	 0.111152
H	-2.9333406885	-0.5758283158	 1.2847246936	 0.246693
H	-2.0329612192	-0.5460494363	-0.8948422777	 0.103667
