19
gdb 37658	2.73417	2.57314	2.19309	0.0004	78.62	-0.2457	0.0839	0.3296	777.016	0.165118	-348.754576	-348.749459	-348.748514	-348.783594	24.496	
C	-0.0247236195	 1.5571732021	 0.0089881103	-0.194272
C	 1.5151141359	 1.7493511544	-0.0035597729	-0.067171
C	 1.9476330926	 0.8972145385	 1.2148915993	-0.066282
C	 2.3903400175	-0.4664019687	 0.7347885283	-0.07615
C	 2.3771081628	-0.4591305514	-0.7783474811	-0.07615
C	 1.9261734122	 0.9089924773	-1.2375195194	-0.066283
C	 0.9502155962	-0.2547317751	-1.2345673425	-0.066282
C	 0.0541883548	 0.0073678345	 0.0008565641	-0.067171
C	 0.971665266	-0.2665013689	 1.2178449433	-0.066283
H	-0.5017574265	 1.9595239697	 0.9093798113	 0.085982
H	-0.5174053206	 1.96811072	-0.8790138339	 0.085982
H	 1.8826199222	 2.7754077098	-0.0018482098	 0.056467
H	 2.3229970111	 1.3511685422	 2.1242915423	 0.076558
H	 3.105122516	-1.0644623546	 1.2872532199	 0.077458
H	 3.0820689423	-1.0517951746	-1.348949347	 0.077458
H	 2.2856003279	 1.3716902896	-2.1489489881	 0.076558
H	 0.5549170311	-0.6919660826	-2.1437129568	 0.076558
H	-0.892173859	-0.5332075854	 0.0065392196	 0.056467
H	 0.5922933971	-0.7124690869	 2.1295304131	 0.076558
