18
gdb 7672	3.70174	1.90214	1.70309	1.1597	67.19	-0.2439	0.0655	0.3094	852.4777	0.152673	-384.906752	-384.899095	-384.898151	-384.938247	29.384	
C	 0.2317738837	 1.443081521	-0.012503625	-0.431662
C	 0.0186767139	-0.0567908403	 0.0479042347	 0.386741
C	-1.4233776739	-0.4733785555	-0.2082812363	-0.425634
O	 0.9063548559	-0.769225679	-0.8906165304	-0.345939
C	 1.4480927439	-1.5895258828	 0.1525939831	 0.067744
C	 2.6945817622	-0.9866717989	 0.8175425223	-0.09891
O	 1.87056317	-0.2307120732	 1.7460646218	-0.291602
C	 0.66554413	-0.8232957902	 1.2333094369	 0.018867
H	 1.2511802142	 1.6984207796	 0.2817211592	 0.134663
H	 0.0534292355	 1.8018432756	-1.0310831814	 0.122541
H	-0.4617716237	 1.9598643555	 0.6590256648	 0.115829
H	-1.7255237353	-0.1781860901	-1.2176737913	 0.128351
H	-1.5391659157	-1.558702579	-0.1252159235	 0.117169
H	-2.0992063156	 0.0028687538	 0.5100866703	 0.11659
H	 1.416398561	-2.6574859266	-0.0700772034	 0.086885
H	 3.330087134	-1.7035951417	 1.3527489304	 0.103774
H	 3.3047179676	-0.3475075118	 0.1711236998	 0.114316
H	 0.0182859422	-1.2249149062	 2.0158135678	 0.080277
