17
gdb 91611	2.25234	2.01574	1.4622	3.9719	66.6	-0.2307	-0.0163	0.2144	936.7889	0.137259	-458.983682	-458.97634	-458.975396	-459.015499	28.993	
O	-0.0371044279	 1.4376826367	-0.0289909928	-0.424709
C	 0.0374142242	 0.02585387	 0.0092143057	 0.102885
C	 0.624761379	-0.568061818	 1.3288705282	-0.25768
C	-0.6028360663	-1.3000558219	 1.9061811046	 0.071647
C	-1.6479806018	-0.2965274695	 2.4269088312	-0.345327
C	-2.2022174731	 0.2422884766	 1.0922783073	 0.452258
O	-3.0800838721	 1.0390870324	 0.9222401779	-0.314505
C	-1.4036730756	-0.5516674975	 0.0400500539	-0.064846
O	-1.2364212152	-1.804871949	 0.7071613835	-0.267719
H	 0.8538870629	 1.7894686021	-0.1147858541	 0.29144
H	 0.5702834338	-0.3650275925	-0.8662573782	 0.084909
H	 1.4305867961	-1.2767288008	 1.1251568108	 0.109164
H	 1.0061439955	 0.2224896123	 1.9802594923	 0.105136
H	-0.3856233356	-2.1343309094	 2.5719373122	 0.088187
H	-2.4449202201	-0.7996014102	 2.9823115598	 0.136781
H	-1.2556234379	 0.5160178584	 3.0429587412	 0.131287
H	-1.8983599759	-0.6728122197	-0.9207227134	 0.101091
