13
gdb 28998	3.10521	1.58148	1.04782	1.4647	79.23	-0.2384	-0.0627	0.1756	1046.3452	0.090229	-415.630878	-415.623686	-415.622741	-415.662553	27.461	
O	 0.1137715222	 1.3364460389	 0.0582828573	-0.400095
C	 0.0764119626	-0.0034299143	 0.0246117673	 0.376587
N	 0.0898801546	-0.6031532561	-1.1539163079	-0.33535
C	 0.0517246008	-1.9398194534	-1.1514003969	-0.015328
C	 0.0003912661	-2.6639086587	 0.032460591	-0.045183
N	-0.0133098692	-2.0614410921	 1.2231649463	-0.294889
C	 0.0241936849	-0.7261706553	 1.2442765974	 0.057534
C	 0.0111550769	-0.046681872	 2.4955209491	 0.277108
C	 0.0006998321	 0.5410896764	 3.545333858	-0.364902
H	 0.1460914045	 1.6320856072	-0.8631224701	 0.303405
H	 0.0626963296	-2.4341317594	-2.1185253566	 0.123981
H	-0.0304125664	-3.7490029114	 0.0274112591	 0.116985
H	-0.0087280887	 1.0563404304	 4.4739711159	 0.200149
