21
gdb 109582	2.07821	1.49721	1.10859	4.2074	73.54	-0.246	0.0421	0.288	1186.7628	0.181892	-461.344295	-461.334529	-461.333585	-461.378422	36.979	
C	-0.7564786507	 1.2180063595	-0.2945956595	-0.428266
C	-0.0217760008	-0.1020116158	-0.099267776	-0.009265
C	 1.3743335754	-0.2901141014	-0.7663257539	 0.03668
O	 2.1600673007	 0.8930516827	-0.8332094141	-0.43936
C	 1.8325820457	-1.0567151306	 0.5040121686	 0.142435
O	 3.1367670699	-0.777225321	 0.9663605691	-0.445208
C	 0.6130368973	-0.4677513769	 1.2860551187	-0.085304
C	 0.9976123598	 0.6881096678	 2.2107402546	-0.079855
O	 1.7721435631	 0.2221572912	 3.3019330781	-0.433623
H	-0.1237462847	 2.0745352728	-0.0467578287	 0.125845
H	-1.0888649665	 1.3325727687	-1.3332310877	 0.108232
H	-1.6479296023	 1.2668380583	 0.3387069783	 0.126277
H	-0.6668313524	-0.9259762573	-0.4247104647	 0.077
H	 1.4061184067	-0.8265851972	-1.7227269109	 0.067387
H	 1.8824211954	 1.4184499074	-1.5886297377	 0.297635
H	 1.7466046365	-2.1393914473	 0.3753000337	 0.088136
H	 3.3943691531	 0.0537388584	 0.5429189576	 0.303048
H	 0.0553103265	-1.2020778795	 1.8738943094	 0.07253
H	 1.5279468702	 1.4709218931	 1.6490223377	 0.087926
H	 0.0985376962	 1.148167029	 2.6358494191	 0.099756
H	 2.5504401808	-0.188829922	 2.9017123181	 0.287994
