21
gdb 95172	2.54352	1.38305	1.04224	2.5315	77.65	-0.2414	0.0705	0.3119	1198.3698	0.183298	-424.224038	-424.215395	-424.214451	-424.256796	34.731	
O	-0.1359259106	 1.4384446423	 0.0488937754	-0.441289
C	 0.0277620282	 0.02636448	 0.0162206501	 0.144635
C	 0.7954744918	-0.5043237635	 1.2297360196	-0.238036
C	 1.042574801	-2.0148872978	 1.0952833487	-0.231946
C	-0.2194365234	-2.7888741463	 0.7535181628	-0.080108
C	-1.4939738108	-2.6290927355	 1.561083317	-0.318071
C	-1.4268272257	-2.0817611613	 0.1668214507	 0.398604
O	-2.2157593529	-2.7974738776	-0.7511677295	-0.470459
C	-1.3812626539	-0.5688181482	-0.054916267	-0.282575
H	 0.7383169784	 1.8379039112	 0.1008700473	 0.277394
H	 0.5830692106	-0.268635366	-0.8923371677	 0.054736
H	 1.7570210497	 0.0171375393	 1.3184890918	 0.082143
H	 0.2288758735	-0.2704122357	 2.1396570419	 0.105956
H	 1.7797195649	-2.1782092769	 0.2974459242	 0.095287
H	 1.4938206063	-2.4068617893	 2.0150795274	 0.09954
H	-0.0555236226	-3.7926847785	 0.3719553181	 0.084493
H	-2.1012916678	-3.5150386894	 1.7059196553	 0.11814
H	-1.5108289929	-1.9237423196	 2.3860382082	 0.108622
H	-1.7809559026	-2.7545556237	-1.6100633362	 0.275105
H	-2.0009112573	-0.048607645	 0.684913207	 0.114353
H	-1.8202520239	-0.3470039386	-1.0322957452	 0.103475
