17
gdb 65545	2.9422	1.5531	1.33587	5.288	71.59	-0.26	0.0229	0.2829	987.1075	0.138365	-417.988373	-417.981133	-417.980189	-418.019843	29.226	
O	 0.0378909039	 1.3583359257	-0.0016630731	-0.486996
C	 0.0374455191	-0.0483062693	-0.0108522865	 0.313047
C	 0.5198800292	-0.6839173617	 1.3525145982	-0.265164
C	-0.8235542623	-1.2890247525	 1.7853027068	-0.00895
C	-1.2713820678	-2.0611138353	 0.5154047648	-0.242204
C	-1.4156439444	-0.6109193549	 0.0070568287	-0.058545
N	-1.7667877376	-0.1572907471	 1.4063164911	-0.359146
C	 0.8082152941	-0.5017428343	-1.1716080531	 0.267351
N	 1.402090125	-0.9095565495	-2.074539311	-0.341753
H	-0.6171609358	 1.5862811764	 0.677066427	 0.291887
H	 1.302408117	-1.4344181508	 1.2294968246	 0.127393
H	 0.8761691488	 0.1077545107	 2.0131498285	 0.125261
H	-0.9007739984	-1.6966775903	 2.7924887052	 0.084826
H	-0.5676952736	-2.736834934	 0.0202394981	 0.12097
H	-2.2434495655	-2.5445380651	 0.6385919501	 0.108729
H	-2.0553599346	-0.3030780214	-0.8188217635	 0.096464
H	-2.721702017	-0.4568752567	 1.6012313042	 0.226829
