20
gdb 115209	4.006	0.98875	0.83117	3.7696	76.28	-0.2348	0.0295	0.2643	1398.3418	0.171945	-440.329094	-440.32008	-440.319136	-440.363115	33.437	
C	 0.006031003	 1.5661843101	-0.0024397353	-0.388709
C	-0.0023187864	 0.0357696	 0.0139835038	-0.19101
C	-1.4100841108	-0.5503968395	 0.0194305315	 0.131577
C	-1.4135633322	-2.0767905177	-0.0607172984	-0.163106
N	-2.7619814903	-2.5780121207	 0.1615171389	-0.324708
C	-3.7538945515	-1.9158927307	 0.821283303	 0.377842
O	-4.8500225089	-2.3982493803	 1.0351497435	-0.373929
C	-3.4226372117	-0.4837328749	 1.2394593738	-0.192649
O	-2.047584598	-0.1559275147	 1.2269996303	-0.257813
H	 1.0288159052	 1.9524317251	 0.0283214631	 0.114393
H	-0.4709253915	 1.9549082108	-0.9089761027	 0.113291
H	-0.5368463302	 1.9607980709	 0.8597301827	 0.13852
H	 0.5330146618	-0.3563625199	-0.8594915122	 0.098441
H	 0.5247213396	-0.3324954657	 0.9023745254	 0.11035
H	-1.9802448701	-0.1519938508	-0.8390709666	 0.071618
H	-1.0674545952	-2.3979197056	-1.0499690034	 0.112303
H	-0.7144445809	-2.4794587846	 0.6863528652	 0.112602
H	-2.9775360662	-3.5369098702	-0.0708921234	 0.248592
H	-3.9984304263	 0.1886945805	 0.5818513376	 0.119743
H	-3.7857893194	-0.340721442	 2.2593584031	 0.142652
