20
gdb 110452	3.03915	1.33018	1.10367	1.9132	78.61	-0.2025	0.0764	0.2789	1160.9334	0.170944	-403.063435	-403.055081	-403.054137	-403.096242	32.473	
C	 0.0344021	 1.5458599493	 0.0751580246	-0.330816
N	 0.1257432823	 0.0930597805	 0.0227570423	-0.082239
C	 0.7704247591	-0.5466396734	-1.1171155546	-0.035535
C	 2.300352205	-0.6582173845	-0.8525391508	-0.108337
C	 1.3067771998	-1.6639114787	-0.2920966732	-0.109063
C	 1.1161052319	-0.6208332954	 0.8788040835	-0.018702
C	 2.5326573538	-0.0536149309	 0.5312133569	-0.006736
C	 3.636991395	-0.7360165585	 1.3183600045	-0.096672
O	 3.5141544404	-0.3226545389	 2.6751077695	-0.426135
H	 0.9644250309	 2.080906482	-0.1713345236	 0.102688
H	-0.7374768486	 1.8746660867	-0.6292420345	 0.116644
H	-0.280623862	 1.8477864058	 1.0795602362	 0.120846
H	 0.3491742661	-0.5558796246	-2.1154672375	 0.093256
H	 3.0130712604	-0.8020811252	-1.6559035514	 0.080179
H	 1.2054604121	-2.7361420632	-0.3657794558	 0.09365
H	 0.8378547054	-0.8112588951	 1.9133692563	 0.084186
H	 2.6615042336	 1.030971895	 0.6143729136	 0.068762
H	 3.5436904839	-1.8295560478	 1.2225133148	 0.085374
H	 4.6196719321	-0.4526872524	 0.9081254289	 0.082676
H	 4.2228466889	-0.7321356805	 3.1795460703	 0.285972
