16
gdb 49584	2.11013	1.83217	1.13746	4.164	76.46	-0.2377	0.0174	0.2551	1068.5166	0.123037	-400.689988	-400.681766	-400.680821	-400.723299	30.469	
O	-0.0327956518	 0.0429898985	 0.1832219525	-0.32623
C	 0.0403960225	 1.2446623078	 0.0505802713	 0.139907
N	 1.1894233196	 1.9409532388	-0.1382670515	-0.038372
C	 1.4878837801	 3.3614208471	-0.1193279451	-0.022477
C	 2.19363412	 3.737252009	 1.1547535781	-0.295543
C	 2.9648218167	 3.0466613746	 0.0594269866	-0.083155
C	 2.6109235269	 1.5368720785	 0.0045187927	-0.193361
C	 2.9654986308	 0.7160207354	 1.150247553	 0.36186
C	 3.2977697481	 0.0614132033	 2.1010641268	-0.441758
H	-0.8424024366	 1.9183340315	 0.0276055926	 0.071184
H	 0.992139981	 4.0524015861	-0.7894182007	 0.119465
H	 2.4193252382	 4.7931752165	 1.2661585949	 0.125448
H	 1.963595566	 3.2138784404	 2.0778316701	 0.135226
H	 3.822102881	 3.4811778997	-0.433262501	 0.114782
H	 2.9671944523	 1.0710347436	-0.9210039673	 0.128211
H	 3.5732605852	-0.5348047207	 2.9358051473	 0.204813
