20
gdb 31508	3.15178	1.0387	0.83156	0.6109	84.7	-0.1701	0.0596	0.2297	1443.5219	0.169813	-403.196668	-403.186412	-403.185468	-403.232593	36.713	
C	 0.0816223802	 1.5091458926	-0.3638622631	-0.364105
C	-0.0189154167	 0.0670801549	 0.1675251624	-0.297646
C	-1.4109958792	-0.4749781719	 0.2071824828	 0.318804
C	-2.2333807661	-0.7977945332	 1.2564675141	-0.326166
C	-3.4905169971	-1.2657509704	 0.7432667904	 0.151743
C	-4.6822718124	-1.7273899347	 1.5255831128	-0.511665
C	-3.3708275453	-1.2027739788	-0.6246618333	 0.286396
O	-4.2115190706	-1.5123249597	-1.6492544705	-0.439993
N	-2.1312627998	-0.7296701039	-0.9520168931	-0.355333
H	 1.120493464	 1.8549563828	-0.3666518408	 0.109378
H	-0.2962500251	 1.5854623878	-1.3891744506	 0.106958
H	-0.5078431426	 2.191728241	 0.2554709603	 0.123444
H	 0.6286065707	-0.5827947669	-0.439108337	 0.097787
H	 0.3825400487	 0.0264441179	 1.1852971747	 0.112131
H	-1.9701237745	-0.7132988754	 2.3012282983	 0.082464
H	-5.1076396108	-0.9289787046	 2.1461709234	 0.126549
H	-5.4900474282	-2.0813831448	 0.8724149547	 0.090439
H	-4.4366910079	-2.5594916176	 2.1963896877	 0.127507
H	-5.0445118105	-1.8111381253	-1.2719385212	 0.302685
H	-1.8079803168	-0.6076269397	-1.8958390521	 0.258621
