20
gdb 115099	2.61685	1.28693	1.00731	3.524	75.13	-0.2403	0.0337	0.274	1223.6404	0.171595	-440.294846	-440.285762	-440.284818	-440.328687	33.735	
C	-0.1830330222	 1.5801750628	-0.068312606	-0.405183
C	 0.0214891494	 0.0675795712	 0.0168226559	 0.103722
O	 0.7319458771	-0.3735227732	-1.1607516617	-0.239816
C	 2.0860065864	-0.4126593101	-1.0806984484	 0.122444
N	 2.8442044307	-0.2426307605	-0.084490375	-0.272132
C	 2.2225636257	-0.0040776361	 1.2137835751	-0.16247
C	 0.7512369766	-0.4372585421	 1.2702535955	-0.016347
C	 0.0616540718	-0.0274850627	 2.5670603124	-0.103727
O	 0.6851914699	-0.7440330811	 3.6225867436	-0.420552
H	 0.7622198807	 2.1219004122	 0.0281873266	 0.134393
H	-0.6239736505	 1.8355181644	-1.0353645564	 0.130892
H	-0.8617987541	 1.9260615714	 0.7172367618	 0.121084
H	-0.9536119594	-0.4256239667	-0.0597170727	 0.091879
H	 2.4997385368	-0.6363176385	-2.0628162124	 0.120006
H	 2.7947705113	-0.5403817888	 1.9753678632	 0.128645
H	 2.3205797623	 1.063264226	 1.4605226439	 0.10307
H	 0.7241007416	-1.5337784312	 1.2305482631	 0.099538
H	 0.1549099972	 1.0592718973	 2.7194086801	 0.089897
H	-1.0152457786	-0.2605791259	 2.5095939919	 0.085238
H	 0.3136675874	-0.4410374883	 4.4560155995	 0.289419
