15
gdb 31475	4.20867	0.92754	0.77088	7.6503	76.78	-0.2266	-0.004	0.2226	1387.5808	0.114032	-416.855052	-416.846666	-416.845721	-416.889175	30.069	
O	 0.0756846132	 1.3069695103	 0.4672390202	-0.401596
C	 0.0011730592	 0.0054047362	-0.0849301687	-0.191123
C	-1.4206370275	-0.452057464	-0.0120650631	 0.342776
C	-2.5908169013	 0.2579566066	-0.0945909518	-0.321903
C	-3.6659673573	-0.6817512035	 0.0004260488	 0.171334
C	-3.1052455023	-1.9398708873	 0.136481777	-0.171088
N	-1.7519362836	-1.7827152595	 0.1299421718	-0.312788
C	-5.0529209798	-0.3964859646	-0.0332359381	 0.19621
N	-6.1861418794	-0.1566039505	-0.0638030834	-0.352812
H	 0.9109731158	 1.6991141813	 0.1958818165	 0.294399
H	 0.3487852465	 0.0038477846	-1.1314047913	 0.111188
H	 0.6443330229	-0.7071016036	 0.4617783271	 0.090547
H	-2.6776771614	 1.3263390885	-0.1993893901	 0.128754
H	-3.5693850697	-2.9062001065	 0.2407994665	 0.147324
H	-1.0891338351	-2.5327893779	 0.2320298187	 0.268778
