22
gdb 102561	2.4695	0.98822	0.80797	2.5963	78.59	-0.249	0.0646	0.3136	1493.7958	0.193725	-441.45134	-441.441054	-441.44011	-441.486959	37.796	
C	-1.6802635748	-0.3928446944	 2.5322516233	-0.396529
C	-0.8461488479	-0.7968361199	 1.3403694347	-0.000178
N	-0.4806740714	 0.2586236713	 0.3790997526	-0.348846
C	 0.5835837346	-0.4274582805	 1.1365727148	-0.033049
C	 1.4077139176	 0.4121147433	 2.092609895	-0.043918
C	 2.156305834	-0.4798695539	 3.0989251312	-0.052298
O	 2.8091221723	 0.2510601618	 4.1162845417	-0.436948
C	 2.3675988051	 1.2967530226	 1.2828278189	-0.080171
O	 3.1797626095	 2.1547639133	 2.0930664558	-0.424177
H	-1.3991539698	 0.595243649	 2.9018761137	 0.129973
H	-2.7397586004	-0.353856849	 2.2573437233	 0.121014
H	-1.5711966213	-1.1146576412	 3.3489127244	 0.12048
H	-1.1294591576	-1.7591897926	 0.9140974534	 0.082774
H	-0.5263105853	-0.0889668831	-0.5745739832	 0.229996
H	 1.1754128787	-1.161374469	 0.5866502823	 0.079246
H	 0.7380777412	 1.0706979629	 2.658949799	 0.075051
H	 1.4445785095	-1.1476329135	 3.5977004147	 0.103246
H	 2.8648257324	-1.1245181236	 2.5464983315	 0.075104
H	 3.315470889	 0.9411884004	 3.6651645573	 0.283379
H	 3.0782905603	 0.6700184255	 0.7309946595	 0.10951
H	 1.7977680119	 1.88132199	 0.5493343912	 0.115256
H	 2.6016237125	 2.8172765104	 2.4867971751	 0.291087
