20
gdb 71658	2.97921	1.88772	1.87739	1.5267	80.24	-0.2338	0.0928	0.3266	885.1779	0.174158	-365.989648	-365.983155	-365.98221	-366.019912	28.504	
C	-0.0507516462	 1.4734268959	 0.021364616	-0.476859
C	 0.0895440822	-0.0337572496	 0.0146532197	 0.323724
C	 0.8848883318	-0.6955852407	-1.1352094935	-0.243132
C	 0.4395635523	-2.1212444534	-0.7895523322	-0.072385
C	-1.0914880881	-1.9879838077	-0.8157032891	-0.049478
C	-1.1793819217	-2.0027483391	 0.6598087218	-0.049479
C	 0.3441059589	-2.1372824115	 0.8129302317	-0.072384
C	 0.7435557974	-0.719329972	 1.2373692238	-0.243134
N	-1.278378224	-0.7159016776	-0.0736579422	-0.149109
H	 0.9294937498	 1.957979519	 0.084329716	 0.10815
H	-0.5465260765	 1.8209206665	-0.890018028	 0.120157
H	-0.6511744745	 1.8033495461	 0.8744811574	 0.120147
H	 0.5428824175	-0.3841005707	-2.1276473651	 0.096703
H	 1.9614771222	-0.5152586923	-1.0555556548	 0.09269
H	 0.914142535	-2.9674148582	-1.2822293735	 0.067273
H	-1.7960373047	-2.2666111751	-1.5919050569	 0.085225
H	-1.9707571011	-2.2959620384	 1.3411774173	 0.085225
H	 0.7578511085	-2.9936743886	 1.3414832514	 0.067273
H	 1.8217730829	-0.5387332867	 1.2896951215	 0.09269
H	 0.2857837785	-0.427291996	 2.1882012488	 0.096703
