21
gdb 117932	1.91543	1.13612	0.76828	2.7908	76.42	-0.2603	-0.0217	0.2386	1538.1945	0.179011	-461.373633	-461.362675	-461.36173	-461.410778	38.022	
C	 0.3997813262	 0.938761361	-0.2340696873	-0.379875
C	-0.096673319	-0.4947126694	-0.0601513179	-0.28349
C	-1.600581182	-0.6164126117	-0.0101726947	 0.357396
O	-2.3425359053	 0.3461223697	-0.0197469878	-0.330532
C	-2.2366423095	-2.0137545613	 0.0714824848	 0.014705
O	-3.6077375434	-1.8871453685	 0.3363555773	-0.435401
C	-2.0677707598	-2.8111390787	-1.236097245	-0.086141
O	-0.7279654441	-3.2243337443	-1.3836831789	-0.230891
C	-0.5191665773	-4.0057737322	-2.5391471397	-0.231048
H	 1.4927507936	 0.9674017705	-0.238214113	 0.112881
H	 0.041398608	 1.3668028362	-1.1741662685	 0.128751
H	 0.0390222224	 1.5808790274	 0.5732871837	 0.132556
H	 0.2635927054	-1.1649731292	-0.8490567982	 0.150327
H	 0.2881095758	-0.9390727728	 0.8692157644	 0.12906
H	-1.738228682	-2.5818417437	 0.8716050665	 0.095238
H	-3.7845076146	-0.9331893307	 0.2703968835	 0.293731
H	-2.7431495707	-3.6773968097	-1.1732128095	 0.112943
H	-2.3944159412	-2.19912476	-2.0936135076	 0.095972
H	-1.1314006751	-4.9200818653	-2.5226876255	 0.112951
H	-0.7583221211	-3.4475653552	-3.4573001322	 0.110295
H	 0.5366305635	-4.2855599023	-2.5579992142	 0.130571
