18
gdb 28336	3.13564	1.37184	0.96565	3.1198	87.16	-0.2028	-0.0355	0.1673	1221.9597	0.14766	-402.00436	-401.995767	-401.994823	-402.037395	32.445	
C	 0.1066530011	 1.4896067047	 0.0030660914	-0.472826
C	-0.0621491504	 0.0070022707	 0.0197888444	 0.381588
C	-1.2138812591	-0.6773326528	 0.1575556199	-0.242448
C	-1.1755835269	-2.1127983199	 0.1496171243	-0.154
C	-0.0108999316	-2.7878061235	 0.0078268003	 0.201871
C	 0.098974938	-4.2826047499	-0.0081120915	-0.469942
C	 1.228027272	-2.0320537775	-0.1395471059	 0.321185
N	 2.3682904284	-2.5796052169	-0.2771439059	-0.537316
O	 1.1231619087	-0.6414290458	-0.1253253647	-0.272608
H	 0.7724092171	 1.8120641555	 0.8113913192	 0.144932
H	 0.5612716758	 1.8167005808	-0.9386658245	 0.144932
H	-0.857518217	 1.9871733792	 0.1207936826	 0.134728
H	-2.1472107947	-0.1425820268	 0.2717277797	 0.103329
H	-2.1048685021	-2.6636937704	 0.2602625957	 0.10315
H	 0.5545788519	-4.6284377509	-0.9418684852	 0.143544
H	 0.756589799	-4.6321471071	 0.7947551004	 0.143398
H	-0.8832887693	-4.7484813119	 0.1054260646	 0.1099
H	 3.0985926991	-1.8726418375	-0.3636454049	 0.216584
