17
gdb 1466	6.36162	1.14931	1.01969	1.8851	69.52	-0.2481	0.0411	0.2892	1175.7881	0.145641	-309.697879	-309.688604	-309.68766	-309.733049	31.297	
C	-0.1097434566	 1.556979902	 0.0038816141	-0.385732
C	-0.0195812719	 0.030372595	 0.0047337902	-0.169139
C	 0.7833850365	-0.5126383268	 1.2039910045	-0.045462
O	 0.2305773748	-0.0807600613	 2.4492923829	-0.417864
C	 0.9107366663	-1.9713860069	 1.1473711356	 0.038747
C	 0.9645157696	-3.1743071378	 1.1060803859	 0.086248
C	 1.0527981526	-4.6267400887	 1.0616013729	-0.499371
H	 0.882691842	 2.010832318	-0.0961022689	 0.11344
H	-0.7251042991	 1.9138472732	-0.8272350371	 0.108495
H	-0.5469088512	 1.9161070949	 0.9388385968	 0.131315
H	-1.0229527028	-0.4137465943	 0.0351340951	 0.09373
H	 0.4509932572	-0.331565278	-0.916790368	 0.104633
H	 1.7842362005	-0.0613819981	 1.1816056692	 0.109996
H	-0.5531712352	-0.6174817149	 2.6115934981	 0.280902
H	 0.9500376837	-5.0601260942	 2.0625577426	 0.150857
H	 0.2684378324	-5.0581018224	 0.4300171261	 0.14781
H	 2.0188852012	-4.9513180296	 0.6596006099	 0.151398
