13
gdb 20508	9.13471	1.00251	0.90849	3.0951	72.17	-0.2474	-0.0284	0.219	1217.5867	0.095322	-361.435477	-361.428064	-361.42712	-361.46876	25.449	
C	-0.0199065899	 1.4679394988	 0.0105015986	-0.509936
C	-0.0027029619	 0.014364734	 0.0027522784	 0.238907
C	 0.0258897868	-1.1903437426	-0.0037563135	-0.084205
C	 0.0207022533	-2.6070798006	-0.0111395931	 0.2356
N	 1.1491026985	-3.2986341524	-0.0219612778	-0.203401
O	 0.7690222882	-4.6298723501	-0.0265061383	-0.156524
C	-0.5704900798	-4.7108654403	-0.0183905417	 0.059831
C	-1.1186923411	-3.473274105	-0.0083647894	-0.335457
H	 0.9981072558	 1.8713368175	 0.0029776233	 0.160692
H	-0.5439098183	 1.8613626489	-0.8674584455	 0.155956
H	-0.527148173	 1.8521157065	 0.9022943161	 0.155972
H	-0.9808699017	-5.7086203526	-0.0210046092	 0.153499
H	-2.1581932169	-3.1949147223	-0.0002445479	 0.129065
