17
gdb 23019	2.57153	1.09224	1.004	3.5891	73.45	-0.251	-0.0185	0.2325	1261.5049	0.133318	-455.093538	-455.083949	-455.083005	-455.12932	33.368	
C	-0.170148034	 1.4198889762	-0.1134888763	-0.482524
C	-0.0554204789	-0.0807267749	-0.0964749886	 0.346643
N	-0.1209854325	-0.7929754954	 0.963908751	-0.15144
O	-0.3436048436	-0.0115461508	 2.0980609673	-0.389901
C	 0.1266959487	-0.8094312644	-1.3890894586	-0.096497
C	 0.0162731383	-2.3040998214	-1.4748199993	-0.242645
N	-1.0111180267	-1.4649707289	-2.0433642584	-0.069663
C	-2.3251235852	-1.4432230398	-1.6013075592	 0.146323
O	-2.977887075	-2.4215116147	-1.3383969903	-0.283645
H	 0.5175065459	 1.8633811337	 0.6124699279	 0.154917
H	 0.0391474917	 1.8238925257	-1.1057582981	 0.12564
H	-1.1784544296	 1.7281072695	 0.1848011023	 0.154795
H	-0.3563778655	-0.6685014015	 2.8028411846	 0.313033
H	 0.7861583268	-0.3017507717	-2.0910070466	 0.107679
H	 0.6422002622	-2.8382433521	-2.1838625995	 0.127034
H	-0.2327299771	-2.8359842565	-0.5628093858	 0.157777
H	-2.7393473255	-0.4165007528	-1.5973255322	 0.082473
