20
gdb 86459	1.80227	1.67168	0.91498	1.799	76.42	-0.2221	-0.0178	0.2043	1276.4849	0.170637	-440.298551	-440.289497	-440.288553	-440.332224	34.168	
C	-0.0147134464	 1.4488618251	-0.0009862092	-0.317
N	 0.0228334678	-0.0034890995	-0.0353534027	-0.079899
C	 0.6900735613	-0.5154104313	-1.223994158	-0.140945
C	 0.4760935984	-2.0226869178	-1.3406218257	 0.093214
O	 1.1479927357	-2.4435015997	-2.5176583044	-0.430307
C	 1.0147033021	-2.7339056932	-0.0903729861	-0.331961
C	 0.5463792693	-2.0789612988	 1.1996033795	 0.379542
O	 0.2106149354	-2.7089977026	 2.1730657666	-0.300671
C	 0.5822237237	-0.5529135808	 1.1952110757	-0.241113
H	 0.9907464767	 1.9072229159	 0.0630383335	 0.095596
H	-0.5038093408	 1.8268653486	-0.9037671693	 0.122577
H	-0.5928227182	 1.7833872767	 0.8660220957	 0.123254
H	 0.2653048618	-0.0284810263	-2.1065788189	 0.11257
H	 1.7792241083	-0.3069438698	-1.2278050268	 0.083911
H	-0.6059829732	-2.204797819	-1.4215466871	 0.085788
H	 0.9837488902	-3.3840621218	-2.63784761	 0.286333
H	 0.7540139537	-3.7959418758	-0.0643329427	 0.112162
H	 2.111225781	-2.6546043632	-0.1186355432	 0.129624
H	 1.6406540028	-0.244116327	 1.3479400845	 0.091568
H	 0.0098376403	-0.1988819098	 2.0559344785	 0.125759
