14
gdb 124092	5.25736	1.06949	1.02163	3.5748	62.82	-0.2799	-0.0564	0.2235	1127.2308	0.102218	-466.099544	-466.092478	-466.091533	-466.132517	24.522	
C	 0.0021693061	 1.4935348902	-0.1429215524	-0.08557
O	 1.410461464	 1.5563967001	 0.1481964688	-0.261895
C	 1.452175219	 0.1692496041	 0.5303858995	-0.085568
C	 0.0087297096	-0.0428983689	 0.0213500876	 0.004673
N	-0.9501428324	-0.6282786754	 0.9349922291	 0.138911
N	-1.1537858617	-0.2191141752	 2.1781630923	-0.118541
N	-2.0813209745	-0.9975256829	 2.64475866	-0.074337
N	-2.4393002397	-1.8762600026	 1.6875198406	-0.080987
N	-1.7373183865	-1.6497782226	 0.621319762	-0.110548
H	-0.6056074693	 2.0119709893	 0.6072223573	 0.137161
H	-0.2354365778	 1.8684445372	-1.1432681066	 0.127711
H	 2.2337461926	-0.3866529364	 0.0032937142	 0.127711
H	 1.5595469025	 0.0345388429	 1.6126101288	 0.137158
H	-0.0778372418	-0.6081377696	-0.9039550212	 0.144122
