16
gdb 73901	3.00412	1.23484	0.88472	3.1401	83.89	-0.2056	-0.0231	0.1825	1251.0489	0.122999	-400.782229	-400.773464	-400.77252	-400.815515	32.696	
C	 0.0656334206	 1.5339719301	 0.0521416317	-0.51826
C	-0.0231009013	 0.048774565	 0.034224336	 0.28082
C	-1.1163938543	-0.7478578664	-0.0347397277	 0.050733
C	-0.6590545054	-2.193019662	-0.0205372813	-0.471347
C	 0.8690012077	-2.0907234176	 0.0655350347	 0.415724
O	 1.6913835262	-2.9731585964	 0.1024928545	-0.36105
N	 1.1371847213	-0.7286258235	 0.0941604753	-0.36684
C	-2.4583115886	-0.3325517306	-0.107164154	 0.204437
C	-3.6215551117	-0.0169589555	-0.1703596625	-0.432661
H	 0.6538797534	 1.9058966149	-0.7955010021	 0.140431
H	-0.9344324164	 1.9664314739	-0.0018912296	 0.159643
H	 0.5521158937	 1.8903187247	 0.9682581817	 0.140536
H	-1.0406767822	-2.7599704019	 0.8354030641	 0.154276
H	-0.9436848456	-2.747866663	-0.9208198771	 0.154236
H	 2.0752598777	-0.3656964115	 0.1473113388	 0.262068
H	-4.6426786554	 0.2674947499	-0.2257036726	 0.187253
