18
gdb 77223	3.28819	1.11817	0.9689	1.7649	80.29	-0.2157	-0.0329	0.1828	1245.3814	0.144765	-401.891219	-401.881774	-401.88083	-401.925789	33.956	
C	 0.0120156583	 1.7939581913	-0.1827864831	-0.342223
N	-0.0463169163	 0.3591393374	 0.0193452813	-0.051801
C	-1.0209296364	-0.302604361	 0.8889548935	-0.083798
C	 0.0579246376	-1.4004733678	 1.1800044267	-0.267247
C	 1.086803488	-0.3711104589	 0.622248766	-0.1566
C	 2.1150131836	-0.8348171349	-0.2958763009	 0.333408
C	 2.9706303209	-1.2214086033	-1.04678668	-0.429233
C	-1.4368152255	 0.3794520689	 2.177040514	 0.147263
O	-0.8637650891	 1.3067446746	 2.6932448708	-0.251433
H	 0.7917745505	 2.0071768519	-0.9215039727	 0.127986
H	-0.9408705363	 2.1366912246	-0.6002220058	 0.118742
H	 0.2159516767	 2.3656794861	 0.7322353404	 0.13051
H	-1.9281727046	-0.6491826538	 0.3746446357	 0.088929
H	 0.1932979897	-1.7088842204	 2.2165790663	 0.123357
H	-0.0548272	-2.2713885822	 0.5358413475	 0.13148
H	 1.5577254477	 0.1866819821	 1.44734506	 0.105392
H	 3.724147238	-1.5609284523	-1.71369695	 0.197798
H	-2.3379479829	-0.0764660722	 2.6543789101	 0.077472
