19
gdb 91206	2.16201	1.58611	1.4348	2.2117	75.65	-0.244	-0.0267	0.2173	1052.588	0.157829	-423.022506	-423.013702	-423.012758	-423.056041	33.439	
C	 0.3437622696	 1.5850429089	-0.2651049638	-0.419337
C	 0.0515389617	 0.1094418565	-0.0251979409	-0.010399
C	 0.7332872446	-0.9633049157	-0.9305267393	-0.251147
C	 1.3776595731	-1.6307782228	 0.3011576647	-0.104121
C	 2.7391976413	-0.9991154092	 0.7063031133	-0.352028
C	 1.991427984	-0.171221006	 1.762585261	 0.314937
O	 2.3160240338	 0.29383524	 2.8230898976	-0.320284
C	 0.6112410107	-0.5682849553	 1.2606593416	 0.306306
O	-0.3485605333	-0.7905029061	 2.2336959116	-0.473362
H	 1.4200478705	 1.7832364734	-0.3183044628	 0.115983
H	-0.0998240988	 1.9205634228	-1.2086575005	 0.119194
H	-0.0711494384	 2.2019677618	 0.5386787646	 0.13136
H	-1.0301280594	-0.0518873589	 0.0035556471	 0.09967
H	 0.0149126422	-1.5967507462	-1.4553148663	 0.107637
H	 1.4475153001	-0.5764674984	-1.6638291973	 0.097694
H	 1.2898635473	-2.7072176853	 0.4369545298	 0.085173
H	 3.4654804307	-1.6774838316	 1.1623609885	 0.134122
H	 3.2430261118	-0.4261874025	-0.0771850415	 0.125012
H	 0.0929926085	-0.7650118455	 3.0927373327	 0.293589
