17
gdb 108348	2.71662	1.69287	1.35709	3.279	66.78	-0.2397	0.0485	0.2883	982.3861	0.134515	-458.863914	-458.856175	-458.855231	-458.896201	29.463	
C	 0.1318518659	 1.3604697517	-0.1033369037	-0.260415
O	-0.0196637761	-0.0150467053	 0.2004826014	-0.285356
C	-1.3012255851	-0.5166539441	 0.0625451241	 0.345733
C	-1.3855439718	-2.0509910486	-0.0615203124	-0.128272
O	-2.1898826736	-1.9521833684	-1.2673631904	-0.279493
C	-2.166822147	-0.5209232358	-1.2354154453	-0.009349
C	-3.3187168447	 0.1565111046	-0.4272883723	 0.010132
O	-3.6224352043	-0.687189207	 0.6851321478	-0.218281
C	-2.4951228118	 0.1803383853	 0.8004700274	-0.079018
H	 1.191954803	 1.5926781842	 0.0145741008	 0.137905
H	-0.1680426984	 1.5807512364	-1.1373004654	 0.115702
H	-0.4479925036	 2.0022448665	 0.5734986823	 0.116954
H	-0.4095868217	-2.5029998498	-0.2680510522	 0.109914
H	-1.9058653751	-2.5850569228	 0.7366691627	 0.119127
H	-1.8908248755	-0.0497718224	-2.1818314513	 0.084994
H	-4.1059369399	 0.8158743329	-0.7764386875	 0.109715
H	-2.4741282303	 0.8642029826	 1.6421326739	 0.110007
