16
gdb 27005	3.39909	1.27309	0.94861	3.1	77.13	-0.1841	0.0355	0.2195	1181.8164	0.123801	-400.744373	-400.735744	-400.734799	-400.777932	32.589	
O	 1.0268229246	 1.0929356674	-0.0077515768	-0.452889
C	 0.4597024484	-0.1442684255	-0.0095096756	 0.275996
C	 0.1189959833	-0.9382563513	-1.0891141107	 0.169953
C	 0.2119634175	-0.7157167172	-2.5721246261	-0.484229
C	 1.2468051139	 0.2482751113	-2.9468057645	 0.28609
C	 2.089027521	 1.0517617693	-3.2506182626	-0.430942
N	-0.4404991527	-2.0930537786	-0.5674149427	-0.30685
C	-0.4545545052	-2.0334091368	 0.7986069085	-0.083696
C	 0.0992305772	-0.8340387516	 1.1804638535	-0.227921
H	 1.3232391454	 1.2955288115	-0.9048624611	 0.29238
H	 0.4314107647	-1.6677869586	-3.0773570155	 0.137675
H	-0.747727463	-0.3739385069	-2.9919394243	 0.145149
H	 2.8409464194	 1.7460480539	-3.5354155872	 0.207967
H	-0.7688886084	-2.8676014167	-1.1159257568	 0.256129
H	-0.8486367943	-2.8461347098	 1.3868188558	 0.116521
H	 0.2440146782	-0.4765013804	 2.1872501059	 0.098668
