18
gdb 52557	2.27939	0.98456	0.74914	2.9568	83.3	-0.2414	-0.0472	0.1942	1556.5368	0.144654	-401.901328	-401.891145	-401.890201	-401.941545	34.074	
C	-0.5318842467	 0.4756117777	 1.0668552928	-0.501471
C	-0.0144031742	-0.5088488917	 0.1335478012	 0.025552
C	 0.41739483	-1.331384932	-0.6368484453	 0.110198
C	 0.9265009956	-2.2835157977	-1.5970705346	 0.214576
O	 0.6522436971	-2.2207479998	-2.7778079481	-0.286217
C	 1.8730714512	-3.3621611582	-1.0667886659	-0.256034
N	 1.526569734	-3.806458241	 0.2721360023	-0.063238
C	 0.6003931293	-4.932448036	 0.3583776829	-0.219979
C	 2.0454650556	-5.1100261326	 0.6711937591	-0.218925
H	 0.2837162509	 0.9500262727	 1.6234027248	 0.16125
H	-1.0960074227	 1.2604044753	 0.5525667654	 0.159443
H	-1.1968465349	 0.0023579092	 1.7977550687	 0.161738
H	 1.8937843235	-4.1670675267	-1.8195676295	 0.108242
H	 2.8779182924	-2.9178879606	-1.0318449323	 0.131292
H	-0.1351547602	-4.8764242569	 1.1551394561	 0.120668
H	 0.2359831022	-5.3663114292	-0.5714922335	 0.119096
H	 2.6449422935	-5.664981153	-0.04869455	 0.113268
H	 2.3836978434	-5.1864709594	 1.700575916	 0.12054
