17
gdb 13083	4.02647	1.30513	1.07758	5.1849	68.29	-0.2735	0.0401	0.3135	1080.0617	0.142258	-363.86631	-363.858129	-363.857185	-363.899275	29.713	
O	 0.233779303	 1.1650589306	-0.5804136953	-0.429428
C	 0.0706625338	-0.080990609	 0.0548637035	 0.122405
C	-0.1047752698	-0.1371865708	 1.5972126807	-0.262469
C	-1.2703763191	-1.1423685539	 1.3766562947	-0.228816
C	-1.3462130177	-0.6930593217	-0.1120910087	-0.021303
C	-2.4206825201	 0.370987427	-0.395590721	-0.342243
C	-3.7674590365	-0.1944306952	-0.3533142588	 0.256672
N	-4.8253313905	-0.6583500689	-0.3128480696	-0.311696
H	 1.1188057455	 1.4935465158	-0.3939650085	 0.289611
H	 0.8331422401	-0.7990999314	-0.2785218712	 0.076855
H	 0.748733975	-0.4649662613	 2.1948597732	 0.100166
H	-0.4566312587	 0.8246273568	 1.9804851273	 0.110986
H	-0.9507103121	-2.1821243087	 1.4734794776	 0.112648
H	-2.1730795499	-1.0028935542	 1.9750179826	 0.120246
H	-1.4324953051	-1.4910596335	-0.8529954425	 0.090884
H	-2.3605995723	 1.1888917126	 0.3299637846	 0.15245
H	-2.2505506555	 0.8215350458	-1.3784238987	 0.163032
