18
gdb 120252	3.26105	1.2659	1.02401	4.8386	73.24	-0.2474	-0.0019	0.2455	1177.879	0.148331	-439.072921	-439.06477	-439.063826	-439.106129	30.774	
O	 1.0555716516	-0.0281771427	-0.6357561818	-0.427048
C	 0.0062095117	-0.5895175205	 0.1090359416	-0.060199
C	-1.3065019733	 0.1991513986	 0.0165657242	-0.177874
N	-1.9685559942	 0.0394715222	-1.2736853465	-0.109971
C	-3.2853776185	 0.5602895607	-1.6604163787	 0.000034
C	-3.1673669692	 1.9264976486	-2.2598250795	-0.289409
C	-2.7998259786	 0.6909649567	-3.088165326	-0.210522
C	-1.4688326024	 0.1746037649	-2.5659771888	 0.431748
O	-0.3744703867	-0.0343907713	-3.0355358372	-0.391095
H	 0.8158788167	-0.1026537248	-1.5754703897	 0.303428
H	-0.1912739238	-1.6381275289	-0.1665441137	 0.092563
H	 0.3221246973	-0.5802192426	 1.15830186	 0.106783
H	-1.9998515387	-0.1686771755	 0.7821366313	 0.107929
H	-1.0986538863	 1.2580434004	 0.2284107214	 0.112276
H	-4.194426783	 0.1005764312	-1.2960736249	 0.120192
H	-4.0923231428	 2.4115978191	-2.5594950226	 0.130531
H	-2.3892955331	 2.6039288789	-1.9210795453	 0.135808
H	-3.2935347565	 0.428736335	-4.0117620839	 0.124827
