21
gdb 95083	2.23903	1.99487	1.31751	1.2727	77.82	-0.2299	0.0846	0.3145	1045.198	0.18272	-424.222299	-424.213977	-424.213033	-424.25449	33.362	
C	 0.0248358694	 1.5511461746	-0.1301006239	-0.409691
C	 0.0199744641	 0.0408914702	 0.0617913982	 0.11288
O	 0.5916946251	-0.5120531493	-1.1309580985	-0.285448
C	 1.0940532142	-1.8378786621	-1.0090717978	-0.071043
C	 1.6781133537	-2.0430897504	 0.3816293603	 0.073711
C	 2.2724428356	-0.7243123424	 0.9092944639	-0.291152
C	 0.7940115996	-0.4693532785	 1.2938062873	 0.37964
C	 0.4364484457	 0.1848736622	 2.6068789309	-0.484961
O	 0.5712555257	-1.9208746565	 1.3179237346	-0.333737
H	 1.0463118135	 1.9449179699	-0.1286053111	 0.118683
H	-0.4296480889	 1.7960627748	-1.0935864139	 0.130098
H	-0.5459932619	 2.0504772665	 0.6572785273	 0.117041
H	-1.0145751829	-0.322123532	 0.1767642804	 0.075598
H	 0.2990216961	-2.5817798404	-1.1709703063	 0.09913
H	 1.8509267648	-1.9537821823	-1.7935163404	 0.102556
H	 2.2245195711	-2.9836804103	 0.4917295929	 0.076166
H	 2.8977168135	-0.874752527	 1.7906054435	 0.103487
H	 2.7506504703	-0.0496266097	 0.1977024517	 0.110065
H	 0.7764241955	 1.2243415619	 2.633618223	 0.124654
H	-0.6468393573	 0.1722194103	 2.7694377364	 0.126163
H	 0.9101922629	-0.3591554394	 3.4282761512	 0.126159
