20
gdb 89863	3.32903	0.99472	0.86753	4.4715	85.13	-0.2735	0.0313	0.3047	1392.6028	0.170765	-366.013067	-366.004138	-366.003194	-366.047119	33.747	
C	-0.9809669234	 1.123152303	-0.040287106	-0.407405
C	 0.0429849518	 0.0045715166	 0.066082441	 0.055737
C	 1.3010929468	 0.0626838436	-0.8573537818	-0.311205
C	 2.1492419893	-0.320750165	 0.3593297229	 0.366131
C	 3.0935385416	-1.4713951902	 0.4432936413	-0.340846
C	 3.6241874146	-0.047801296	 0.5933105368	-0.250197
C	 4.4029992039	 0.5371656031	-0.4594776108	 0.290969
N	 5.011422864	 1.0189657434	-1.3184314834	-0.345642
C	 0.9866502046	-0.0172527126	 1.3103032045	-0.318132
H	-0.5040425212	 2.1040036032	 0.0670476288	 0.11629
H	-1.4895259678	 1.1043121763	-1.0104411041	 0.119633
H	-1.7463597719	 1.0366684889	 0.7389300684	 0.1168
H	-0.4510790987	-0.9664091648	-0.0405086821	 0.078318
H	 1.3265455682	-0.6147264899	-1.7143316546	 0.108536
H	 1.5134103832	 1.0776804328	-1.209160078	 0.118101
H	 3.1007530186	-2.0821780957	 1.3401988207	 0.126175
H	 3.3458958878	-1.9979149684	-0.4708384656	 0.137788
H	 3.9139384717	 0.2650983521	 1.5916315018	 0.128605
H	 1.0737768541	 0.9700925479	 1.7763710848	 0.106465
H	 0.7753960128	-0.7557147583	 2.0884805353	 0.10388
