17
gdb 64464	2.27112	1.74852	1.33115	3.2795	63.61	-0.2728	-0.0037	0.269	1004.9842	0.135537	-496.130851	-496.122463	-496.121519	-496.164017	31.473	
C	 0.6187758183	 1.3691646912	-0.1003345879	-0.428781
C	-0.0547171685	-0.0175249612	-0.0175950139	 0.222053
O	-1.4542101166	 0.1357870174	 0.0769231092	-0.473169
C	 0.2661567502	-0.8839929019	-1.2647066661	-0.126408
O	 1.0220681987	-2.0478761095	-0.9359803359	-0.217525
C	 2.0655909703	-1.7467197753	-0.0869723456	 0.00719
O	 1.5846053138	-1.3914046611	 1.2264591328	-0.221761
C	 0.4392782422	-0.6932701596	 1.2748702556	 0.404665
O	-0.1611828268	-0.5543724274	 2.3095862201	-0.356712
H	 1.7086602604	 1.299408819	-0.1795445704	 0.119107
H	 0.2380083302	 1.8934247096	-0.9814521184	 0.13527
H	 0.3709289612	 1.9543335173	 0.7888663764	 0.138826
H	-1.6487188471	 0.1588247927	 1.0265325983	 0.295135
H	-0.6729187046	-1.2327871871	-1.6938721576	 0.14682
H	 0.8115339737	-0.2951273931	-2.0153033745	 0.103513
H	 2.6679370447	-2.6439150882	 0.0583653852	 0.144289
H	 2.68875184	-0.9220366828	-0.4668588073	 0.107489
