19
gdb 16661	2.85604	2.25751	1.74886	3.2007	70.2	-0.244	0.0697	0.3137	844.9021	0.167852	-365.056398	-365.049162	-365.048217	-365.087369	29.184	
C	-0.0041679657	 1.5744433676	 0.0057042887	-0.392601
C	 0.0761464172	 0.049135315	 0.0102144439	 0.004128
C	 0.8133454286	-0.5696839988	-1.1686764989	-0.034732
N	 2.2901895055	-0.5483628168	-1.000724003	-0.358105
C	 1.5229701907	-1.7875304435	-0.709929727	-0.030562
C	 1.2581571616	-1.9688789856	 0.7734130479	-0.236647
C	 0.8141283519	-0.5584750107	 1.2473385769	 0.098137
O	 1.9167708523	 0.2235859047	 1.6663986282	-0.43608
H	 0.9944713897	 2.0161401399	 0.0093727398	 0.126764
H	-0.5403816484	 1.9350991272	-0.8787169375	 0.100679
H	-0.5312199496	 1.9418941848	 0.8916690416	 0.115695
H	-0.9427871987	-0.3642726661	-0.0028891672	 0.071206
H	 0.4110510362	-0.4813112319	-2.1733270419	 0.08322
H	 2.7418983465	-0.6270921737	-1.9074608911	 0.234408
H	 1.6697230091	-2.6462136362	-1.3569688148	 0.085836
H	 0.4546786032	-2.7028585332	 0.9100633397	 0.097172
H	 2.1298303407	-2.3065782049	 1.3409248589	 0.10955
H	 0.1454177958	-0.6147553823	 2.1107662107	 0.07451
H	 2.5115955834	 0.2450206744	 0.899935185	 0.287421
