20
gdb 59347	2.87543	1.17836	1.04472	2.5338	77.03	-0.2442	0.0305	0.2747	1257.3418	0.169921	-440.312554	-440.302669	-440.301725	-440.347568	35.473	
C	-0.0230379434	 1.5900365208	 0.040253693	-0.416842
C	-0.0042401208	 0.0609892457	 0.0702205823	 0.110961
O	-1.3161833682	-0.4798823402	 0.2086425403	-0.438622
C	 0.6862923515	-0.5143023298	-1.170463083	-0.153806
C	 0.694547926	-2.0626738463	-1.3451457809	-0.205326
N	-0.0686661732	-1.86566512	-2.5829259858	-0.060813
C	-0.7235268721	-2.7939841584	-3.4672087097	-0.345465
C	-0.1988214835	-0.5117703068	-2.4422838588	 0.392634
O	-0.8353374234	 0.3127133257	-3.0560245645	-0.396108
H	 0.9929852232	 1.9976127117	 0.0593560297	 0.114531
H	-0.5103536608	 1.9447010143	-0.8742573523	 0.146636
H	-0.5673918309	 1.9746482399	 0.9068741728	 0.121957
H	 0.5307816205	-0.2822934909	 0.9642327932	 0.090323
H	-1.8642353867	-0.0777795889	-0.4766730363	 0.291738
H	 1.6643118536	-0.0511925748	-1.3265008483	 0.09833
H	 1.6735981793	-2.5307454313	-1.4905613157	 0.104955
H	 0.1294993434	-2.5935876202	-0.57192595	 0.124143
H	-1.4205689693	-3.4438695053	-2.9230574819	 0.130974
H	-1.2848874787	-2.2132422041	-4.2031221236	 0.160226
H	 0.0017679134	-3.4260446511	-3.9926657205	 0.129574
