20
gdb 111296	3.26293	1.22651	1.07099	2.5558	75.91	-0.2262	0.0701	0.2963	1211.1138	0.169852	-440.230401	-440.221117	-440.220173	-440.264117	34.799	
C	 0.1696430972	 1.350839657	-0.0764204465	-0.243012
O	-0.2458698133	 0.0242389333	 0.1911767716	-0.241395
C	 0.5085832723	-0.5936556361	 1.1890792019	 0.131666
C	 0.118315176	-2.028227665	 1.4981122092	-0.171351
N	 0.4286026836	-2.8285240232	 0.2815798018	-0.386624
C	 1.5082082552	-2.5249995244	 1.2503176167	 0.33125
C	 2.3217331187	-3.5892994195	 1.9168115595	-0.520506
C	 1.9643091336	-1.118800533	 0.8063581306	 0.042685
O	 2.3455677096	-0.983538774	-0.5311616854	-0.438216
H	 1.2018797472	 1.3816184944	-0.4450446731	 0.13012
H	-0.4988515824	 1.7465956994	-0.8447938952	 0.124177
H	 0.0903670687	 1.9849124252	 0.8211968006	 0.097507
H	 0.5449602249	 0.0197516361	 2.1034488105	 0.058857
H	-0.6232183735	-2.3757169348	 2.2074711153	 0.094919
H	 0.1126000056	-3.7813698742	 0.4566132837	 0.22961
H	 1.6885762551	-4.4086713646	 2.2753767901	 0.11752
H	 3.0584256939	-4.010753437	 1.2235016712	 0.137411
H	 2.8670980961	-3.1857204146	 2.7766051776	 0.127671
H	 2.7547605067	-0.6900125341	 1.4266724602	 0.08206
H	 1.6545072246	-1.442455901	-1.0312166405	 0.295651
