20
gdb 47498	2.63075	1.43582	1.08581	4.2513	78.99	-0.2305	-0.0104	0.2201	1159.0305	0.172733	-403.162533	-403.154473	-403.153529	-403.195232	31.762	
O	 0.049053337	-0.0746418296	 0.0057560133	-0.302625
C	 0.0005614854	 1.1307208257	 0.0629359452	 0.390967
C	-1.3170506544	 1.8953952833	 0.1327419305	-0.289136
C	-1.3004513571	 2.9930751706	 1.2130135543	-0.212016
C	-0.0837887595	 3.9166834753	 1.0476855068	-0.279358
C	 1.204891233	 3.1144119185	 1.078288959	 0.34008
C	 2.4605215539	 3.7489509758	 1.5434433323	-0.300641
N	 1.7804240384	 2.7444666044	 2.3863196356	-0.341092
C	 1.2551959936	 2.0011069572	 0.0385035646	-0.352705
H	-1.4728043751	 2.3649989958	-0.8500590236	 0.11532
H	-2.1253213641	 1.1767918381	 0.286144039	 0.120573
H	-2.2285194384	 3.571936863	 1.1676752408	 0.103438
H	-1.2693267926	 2.523954036	 2.2042537581	 0.113177
H	-0.1590568401	 4.4526070846	 0.091058859	 0.101747
H	-0.0683673356	 4.6795905818	 1.8347467376	 0.092659
H	 3.4168690415	 3.4300161367	 1.1370890156	 0.119036
H	 2.4243089653	 4.7937383581	 1.8432205666	 0.109926
H	 1.2757972462	 3.2123249824	 3.1362972012	 0.226374
H	 2.1285366735	 1.3635674191	 0.1851580135	 0.129605
H	 1.3210877791	 2.4520038932	-0.9630530992	 0.114672
