15
gdb 63456	1.87939	1.81519	1.10433	4.7673	72.17	-0.2846	-0.0131	0.2715	1091.6743	0.110547	-416.818245	-416.809203	-416.808259	-416.851713	32.99	
C	-0.0617494051	 1.5337077399	-0.0508790593	-0.468026
C	 0.0469821008	 0.0290752048	-0.0758048687	 0.381551
O	-1.0171620206	-0.6478056669	-0.6405552776	-0.426273
C	 1.3412628335	-0.6637039411	-0.2539123021	-0.334919
C	 0.7186496953	-0.7014269465	 1.1591271077	-0.069023
C	 1.3302906394	 0.0945475471	 2.1884889045	 0.255595
N	 1.8198719611	 0.7675946775	 2.9919205018	-0.336991
C	 0.0999392312	-1.9229281642	 1.5985573009	 0.257625
N	-0.4191952866	-2.8934581287	 1.9522088333	-0.328002
H	 0.807961241	 1.997528397	 0.4178619239	 0.156834
H	-0.1509071199	 1.9031501994	-1.0767349564	 0.147838
H	-0.9507659285	 1.8475253213	 0.5071234264	 0.136116
H	-1.8303918986	-0.4045374477	-0.1814451694	 0.302379
H	 1.3286290359	-1.6050031196	-0.7898697796	 0.167569
H	 2.245271981	-0.0746268525	-0.3497325054	 0.157727
