20
gdb 103007	2.02622	1.37428	1.175	3.7957	81.01	-0.2609	0.0204	0.2812	1211.6835	0.168408	-403.143864	-403.133479	-403.132535	-403.178909	37.002	
C	 0.1581431663	 1.3250385714	 0.1592519311	-0.263386
O	-0.1484326486	-0.0337939665	-0.13765121	-0.278988
C	 0.605706957	-0.5823102241	-1.1699706998	 0.254712
C	 0.4673378603	 0.0866896795	-2.4475339099	 0.25357
N	 0.3639543892	 0.6334076705	-3.4622858852	-0.357314
C	 1.9486010069	-1.2497021893	-0.8459580585	-0.083476
C	 2.5319887197	-1.1579849527	 0.5468405022	-0.419785
C	 0.7355240134	-2.0957699041	-1.1627711324	-0.088661
C	 0.0006049682	-2.9162188036	-0.1249108886	-0.410909
H	 1.2084859585	 1.4463360603	 0.4518504792	 0.118197
H	-0.0506836456	 1.976020608	-0.69868817	 0.140851
H	-0.4865108257	 1.6097182466	 0.9926955743	 0.135957
H	 2.6823663132	-1.1889036264	-1.6447828778	 0.106556
H	 1.756315057	-1.0271006354	 1.3033599184	 0.137113
H	 3.09065306	-2.0683464378	 0.7888227907	 0.126369
H	 3.2254619894	-0.3146931235	 0.6230125845	 0.126134
H	 0.7399013272	-2.5393770061	-2.1542078205	 0.110822
H	-0.1073002813	-2.3815475491	 0.8189968102	 0.138503
H	-1.0036634386	-3.1670177898	-0.4797013452	 0.13113
H	 0.5333594235	-3.8539295081	 0.0646189975	 0.122605
