14
gdb 127656	3.58654	1.763	1.19107	3.8935	69.28	-0.2249	-0.0203	0.2046	956.8792	0.103951	-429.043875	-429.036884	-429.03594	-429.076053	25.343	
C	 0.0915708067	 1.4078802703	-0.0204309439	-0.337698
N	 0.0384201737	-0.0363150519	 0.0092145945	-0.127232
N	 0.0867855796	-0.7816756217	-1.137111336	-0.232495
C	 0.0973447177	-2.0333653877	-0.7682632115	 0.011747
N	 0.06701613	-2.1373319474	 0.6082380453	-0.06504
C	 0.0518725319	-2.9138541211	 1.7514850512	-0.021778
N	 0.0196402858	-2.1325546584	 2.8042854646	-0.207735
N	 0.0127905856	-0.8034007364	 2.4103467443	-0.36808
C	 0.0391385127	-0.8525891023	 1.0988459584	 0.545289
H	 1.1131579336	 1.7658027394	-0.1846100194	 0.150494
H	-0.5526002444	 1.7737817761	-0.8216608108	 0.158283
H	-0.2688878502	 1.778944028	 0.9404108338	 0.173802
H	 0.1205094938	-2.867508592	-1.4481853665	 0.168836
H	 0.0642575634	-3.9902681649	 1.754570826	 0.151607
