19
gdb 119389	3.23875	0.99101	0.87886	0.8045	71.79	-0.2509	0.0743	0.3252	1353.634	0.158124	-460.089199	-460.080383	-460.079438	-460.123232	33.313	
O	 0.0585839796	 1.375485127	 0.1054450009	-0.416161
C	 0.0330277088	-0.041776415	 0.0675040427	-0.062256
C	-1.384634137	-0.5938030541	-0.1266102328	-0.359579
C	-1.4420763986	-2.0890434572	-0.1849124428	 0.364362
C	-0.7525078877	-3.1085383991	-1.123094539	-0.269172
C	-1.3889101047	-3.8899523244	 0.039191997	-0.007531
O	-0.8825321827	-2.8585560473	 0.9856702007	-0.378985
C	-2.681240039	-3.0402804838	-0.1061716098	 0.150047
O	-3.5200061288	-2.9172806499	 0.9907732854	-0.445959
H	-0.3945064227	 1.6571411807	 0.9065067133	 0.282615
H	 0.6636307154	-0.3266820824	-0.7810336032	 0.114796
H	 0.4813452077	-0.484004577	 0.9681606129	 0.111988
H	-2.0297476536	-0.2592143894	 0.6974745237	 0.103677
H	-1.8113546818	-0.1844267472	-1.0498539148	 0.119539
H	-1.1664708366	-3.2417910462	-2.1261951713	 0.101261
H	 0.3368839286	-3.0857394275	-1.1104223374	 0.11722
H	-1.261875596	-4.9323281134	 0.3310004945	 0.09888
H	-3.2869432665	-3.168159483	-1.00611389	 0.089541
H	-2.9221448643	-2.8328548208	 1.7489707799	 0.285717
