23
gdb 102535	1.9533	1.17026	0.86558	3.4531	82.79	-0.2388	-0.0164	0.2224	1464.039	0.201677	-425.43165	-425.420059	-425.419115	-425.469476	40.086	
C	 0.0970970823	 1.1290548414	 0.7155210611	-0.394768
C	-0.012575936	-0.2945208409	 0.1665925033	-0.176591
C	 0.5817516529	-0.4567398083	-1.2377193285	 0.098915
O	 1.9777607697	-0.1543811707	-1.2053390598	-0.254967
C	 2.3814684446	 0.9466621561	-1.990789685	-0.238253
C	 0.3840028232	-1.8855302186	-1.795902041	-0.063347
C	 0.89944404	-2.012670586	-3.2408317692	-0.424067
C	 1.0975789648	-2.9124270649	-0.9330748874	 0.164263
O	 0.5714737043	-3.8818272017	-0.4466934826	-0.261587
H	 1.1434081569	 1.4406098764	 0.7778985829	 0.12966
H	-0.4348937053	 1.84579858	 0.07931744	 0.109712
H	-0.3331182507	 1.1952142955	 1.7191429859	 0.116618
H	 0.4960162131	-0.9902250693	 0.8451764434	 0.114379
H	-1.0634991614	-0.6072466397	 0.1341229537	 0.101508
H	 0.0733727595	 0.2404736422	-1.9215577012	 0.068013
H	 1.8908073932	 1.8790728202	-1.67701291	 0.110433
H	 3.4605996231	 1.0577046168	-1.8545733384	 0.128751
H	 2.177262934	 0.7904186856	-3.0599886134	 0.107278
H	-0.6836448587	-2.1276910078	-1.7625447278	 0.08985
H	 0.3970724234	-1.2907467227	-3.8928574933	 0.11869
H	 1.9759242415	-1.82401089	-3.289071405	 0.134395
H	 0.7098978946	-3.014208202	-3.6374541129	 0.12972
H	 2.182938641	-2.7147221617	-0.795447805	 0.091395
