16
gdb 35405	3.07243	1.6273	1.35447	5.5229	71.42	-0.2699	0.0278	0.2977	954.45	0.125359	-400.696465	-400.689481	-400.688537	-400.728003	27.357	
N	-0.1694845606	-1.2026355583	-0.2696429939	-0.340764
C	-0.0889675753	-0.0600064673	-0.1121843788	 0.294674
C	-0.0017070886	 1.3811402579	 0.0539274152	-0.154348
C	-0.2193439064	 1.9913201477	 1.4870635849	-0.256138
C	 1.141740394	 2.7379848163	 1.3723912875	-0.065251
C	 2.3768288174	 1.9867056518	 1.9289995511	 0.015997
O	 2.1346137421	 0.5871426677	 1.7666345064	-0.222582
C	 2.6060208218	 1.3167804087	 0.6321222271	 0.019965
C	 1.410547913	 2.0582563476	-0.0094512378	-0.073373
H	-0.6721735797	 1.8474399688	-0.6731214226	 0.125543
H	-1.0911216428	 2.6448525249	 1.5405529917	 0.11366
H	-0.2654427915	 1.2507101318	 2.2842692448	 0.138128
H	 1.1533543105	 3.8215158769	 1.4781435066	 0.085785
H	 3.0601532298	 2.2798888039	 2.7177660014	 0.112149
H	 3.5064744193	 0.9496403566	 0.15399661	 0.11686
H	 1.649738987	 2.635771415	-0.9013772936	 0.089696
