25
gdb 101740	4.36616	0.68663	0.62488	2.0544	89.	-0.2407	0.0691	0.3098	1869.3519	0.22807	-389.477403	-389.466782	-389.465838	-389.513936	38.511	
C	 0.171552188	 1.5499706374	 0.0502548406	-0.392409
C	 0.0040504828	 0.0282682264	-0.0117464947	-0.167396
C	-1.4552665544	-0.4660815531	-0.044341949	 0.042968
C	-2.1864534712	-0.0171359939	-1.3181276081	-0.390929
C	-1.4968273835	-1.9952624791	 0.14100533	-0.212678
C	-2.8896375962	-2.606705077	 0.2573405787	-0.027021
C	-3.6852468087	-2.9749391697	-1.0195514901	-0.079977
O	-3.8508189931	-4.3376949661	-0.5817259658	-0.274955
C	-2.9804757493	-4.122902006	 0.5469136969	-0.089795
H	 1.2279769746	 1.8215509147	 0.140973957	 0.112839
H	-0.2156940775	 2.0450257018	-0.8453131653	 0.118551
H	-0.3535349847	 1.9703397514	 0.915636837	 0.112823
H	 0.5322374721	-0.3634068407	-0.8923593202	 0.092479
H	 0.5016698939	-0.4158502749	 0.8599895402	 0.090785
H	-1.9752011377	-0.0184514631	 0.816991904	 0.067543
H	-3.2364669002	-0.3243472473	-1.3114804376	 0.118986
H	-2.1719720067	 1.0707799768	-1.4278629201	 0.114661
H	-1.7172197935	-0.4475928769	-2.2111855547	 0.111824
H	-0.9565687288	-2.480683982	-0.6850415246	 0.093368
H	-0.9379993949	-2.2459104225	 1.0534496503	 0.093516
H	-3.4964313676	-2.0260033237	 0.9595112299	 0.077459
H	-4.648549763	-2.4728661351	-1.1702418423	 0.100033
H	-3.104884364	-2.9136995524	-1.9507438226	 0.095392
H	-2.0275727207	-4.6609583314	 0.4370229601	 0.092572
H	-3.4483930256	-4.4221640034	 1.4923789107	 0.099361
