21
gdb 42047	2.82244	1.49867	1.08194	2.1419	78.03	-0.2441	0.0695	0.3136	1150.8587	0.185113	-424.216164	-424.208336	-424.207392	-424.24854	30.934	
C	 0.1641076778	 1.5439563228	 0.230479133	-0.104782
O	 1.4128314862	 1.4803315413	-0.4904075955	-0.297401
C	 1.3424604915	 0.036838007	-0.5949013736	 0.116898
C	 2.4792307531	-0.6748728574	 0.1222649642	-0.21212
C	 2.2503170751	-2.1939496203	 0.2208350553	-0.206245
C	 1.2897801635	-2.6104143591	 1.3459995624	-0.184212
C	-0.1276926559	-2.0413627752	 1.2497488037	-0.074285
O	-0.1601142168	-0.6206788575	 1.3375617395	-0.250202
C	-0.0470620469	 0.029329363	 0.1015231924	 0.063359
H	 0.2935202631	 1.874730514	 1.2677768489	 0.11112
H	-0.5702467293	 2.1839272517	-0.2714229143	 0.101824
H	 1.3102645495	-0.2711699208	-1.6497681834	 0.069924
H	 3.4070204089	-0.4649081052	-0.4219874764	 0.10119
H	 2.5933700601	-0.2461656374	 1.1238116636	 0.107343
H	 1.8812623062	-2.57422193	-0.7427524328	 0.092753
H	 3.211688925	-2.6915353479	 0.3895076352	 0.099712
H	 1.2111665031	-3.7052163902	 1.3742343272	 0.092885
H	 1.711906053	-2.3019828087	 2.31073189	 0.107303
H	-0.6173907604	-2.3726215651	 0.3197940817	 0.086899
H	-0.7286381228	-2.4129243421	 2.0869527138	 0.105819
H	-0.870033864	-0.2668174228	-0.5640901549	 0.072219
