20
gdb 68883	2.34131	1.79136	1.37444	1.3971	78.58	-0.2432	0.0733	0.3165	1037.0226	0.170851	-403.098132	-403.0897	-403.088756	-403.130707	32.652	
C	 0.0886816203	 1.5570590391	-0.0371090643	-0.491847
C	-0.0393465819	 0.0680956313	 0.0839094505	 0.292371
N	 1.1045094245	-0.7756046645	-0.2783735277	-0.416266
C	 0.5526331209	-0.9229763553	 1.0682262863	 0.280352
C	 1.4154977683	-0.7505720593	 2.2792259958	-0.496932
C	-0.7180748256	-1.7697151209	 0.9946198154	 0.042771
O	-1.6870052072	-1.4120926612	 2.0008742311	-0.28904
C	-2.3509828207	-0.493844535	 1.1049324399	-0.087873
C	-1.3294161731	-0.749450879	-0.0226106829	-0.166006
H	 1.0882171608	 1.8809967962	 0.264012272	 0.134197
H	-0.0667035244	 1.8790728943	-1.0737489258	 0.121958
H	-0.6471672033	 2.0737670545	 0.5879668329	 0.118907
H	 0.8556896571	-1.5426483792	-0.9028798937	 0.22224
H	 2.0941433543	 0.0979164822	 2.1578277652	 0.127372
H	 0.7910555806	-0.5846144678	 3.1622231311	 0.134121
H	 2.0261506651	-1.6436651964	 2.4565492119	 0.121208
H	-0.6353100047	-2.8539476593	 0.8628787932	 0.07306
H	-3.367285512	-0.8361083381	 0.8748309412	 0.103402
H	-2.4010704899	 0.5252629163	 1.5075149744	 0.102917
H	-1.7147854192	-0.9921252581	-1.0151878864	 0.073089
