22
gdb 98686	3.40615	0.95552	0.87966	3.0582	84.59	-0.2394	0.0163	0.2557	1467.5811	0.191123	-404.370021	-404.359329	-404.358385	-404.406181	38.498	
C	-0.440657147	 1.3810407792	-0.182731229	-0.370256
C	-0.0656235319	-0.0984677575	-0.1341440673	-0.286074
C	 0.7123981085	-0.5492438134	-1.365098062	 0.385582
O	 0.8456846804	 0.1350632394	-2.3586011544	-0.354968
N	 1.3380451607	-1.7814161684	-1.2316773931	-0.10482
C	 0.7527735459	-3.0527589742	-0.8575645432	-0.299088
C	 1.3956413831	-2.8507269719	-2.2097696097	 0.316101
C	 0.4974707542	-2.7678965447	-3.428699467	-0.442184
C	 2.7762867494	-3.4230530251	-2.4622489082	-0.445133
H	 0.4533032064	 2.009967204	-0.2066568919	 0.129027
H	-1.0180362619	 1.6044009503	-1.0825818988	 0.134182
H	-1.0340729088	 1.6578190013	 0.6933788722	 0.105612
H	 0.5254197924	-0.3367216367	 0.7576478642	 0.122881
H	-0.9680620506	-0.7214731719	-0.0617616381	 0.116734
H	 1.2720381226	-3.6112951369	-0.0817982492	 0.117841
H	-0.3327048403	-3.126321786	-0.8219127037	 0.119002
H	-0.5073564371	-2.426481094	-3.1674691283	 0.118523
H	 0.9054244547	-2.0633423602	-4.1583598517	 0.147478
H	 0.4154785863	-3.7519872651	-3.9016190516	 0.1153
H	 2.70597615	-4.4502986506	-2.8357040811	 0.117907
H	 3.3061477573	-2.8264094864	-3.2121697114	 0.132455
H	 3.3721162658	-3.4236132812	-1.5462759369	 0.123898
