20
gdb 101310	2.94114	0.91875	0.86211	3.352	77.67	-0.2518	0.0015	0.2533	1446.0239	0.168178	-440.265766	-440.255581	-440.254637	-440.30183	35.548	
C	 0.1018047467	 1.3904749748	-0.0420563267	-0.239471
O	-0.0706623319	-0.0078377541	-0.1075542084	-0.2489
C	 0.4784384482	-0.6260720486	-1.2611421724	 0.122828
C	 2.0074720391	-0.7046408898	-1.2026645619	-0.4156
C	-0.1590383365	-2.002079846	-1.3147372536	-0.019474
C	-1.5336610266	-2.1639177868	-1.8945622826	-0.245511
N	-0.3739443419	-2.6771186222	-2.5835251149	-0.064966
C	 0.0360113252	-2.2849365913	-3.843174822	 0.134651
O	-0.7027155299	-2.0513931465	-4.7690468801	-0.291647
H	 1.1517251825	 1.684089607	 0.0983235274	 0.110816
H	-0.2786884178	 1.8878088429	-0.9477610135	 0.108674
H	-0.4721463694	 1.7409219493	 0.8190582803	 0.1326
H	 0.1727828522	-0.0654874631	-2.1619618019	 0.076215
H	 2.4574089453	 0.2908787572	-1.1656829963	 0.124368
H	 2.3222074152	-1.2584315529	-0.3126255286	 0.129469
H	 2.4041246795	-1.214028739	-2.0860055579	 0.125809
H	 0.1311562861	-2.6583842469	-0.4956686162	 0.108027
H	-2.2105331259	-2.9041774678	-1.4785053943	 0.130248
H	-2.0097336891	-1.2854062048	-2.3226195139	 0.138056
H	 1.1390962891	-2.2877567615	-3.9359510523	 0.083809
