14
gdb 34775	2.16971	1.91844	1.23233	4.6734	71.09	-0.2625	0.0027	0.2652	991.7636	0.099739	-399.470085	-399.462321	-399.461377	-399.502566	28.895	
C	-0.1839606038	-1.2270773316	-0.202808731	-0.400252
C	-0.0626000874	-0.0417411713	-0.0524146597	 0.327504
C	 0.0550934562	 1.3947403174	 0.0819289364	-0.082032
O	-0.1154582636	 1.9191172128	 1.4448599237	-0.275839
C	 1.0702573798	 2.6848192481	 1.3097078007	 0.087258
C	 2.2909116396	 1.8029228254	 1.1853995288	-0.210957
C	 2.4178470407	 0.5297512601	 1.8426693237	 0.311166
N	 2.5640422153	-0.4745864832	 2.3960962005	-0.336589
C	 1.4160330487	 2.0945584578	-0.0303647108	-0.160731
H	-0.2671886772	-2.2806529833	-0.3120776126	 0.213232
H	-0.6734686192	 1.8976204728	-0.5650720672	 0.128561
H	 1.0861380354	 3.6903976933	 1.7118502086	 0.129154
H	 3.2204790397	 2.3656591271	 1.1491689033	 0.1434
H	 1.8259581857	 2.5259309147	-0.9325607746	 0.126126
