21
gdb 97928	4.42244	0.63381	0.61648	1.6875	88.6	-0.2432	0.0464	0.2895	1929.1817	0.180241	-387.055495	-387.045068	-387.044124	-387.092607	37.785	
C	-0.2252369385	 1.5318066897	-0.0949493483	-0.363014
C	-0.020621013	 0.0064615952	-0.0430969098	-0.314341
C	 0.7728527233	-0.4990618357	-1.159999522	 0.097334
C	 1.4318238352	-0.8651495306	-2.1011154712	 0.014679
C	 2.2264811074	-1.3895205742	-3.2114558016	-0.409365
C	 2.0128779291	-2.8899012161	-3.3884445514	 0.441903
O	 2.3255544647	-3.638589827	-2.24832664	-0.468295
C	 0.9022038131	-3.3901928621	-4.2770608312	-0.310565
C	 2.359274612	-3.5489165419	-4.6829985796	-0.314322
H	 0.7354104799	 2.0531246495	-0.0691209831	 0.129168
H	-0.7423354594	 1.8231882324	-1.0131123574	 0.128423
H	-0.8225384515	 1.8653494618	 0.758817202	 0.11493
H	 0.4650314154	-0.2643188582	 0.903276034	 0.128074
H	-0.998096515	-0.4928098827	-0.0332496383	 0.128037
H	 1.9726246439	-0.8677714671	-4.1418577977	 0.122387
H	 3.292029936	-1.2040584777	-3.0228187786	 0.132409
H	 1.775846472	-3.2947558947	-1.5322150589	 0.282642
H	 0.3818695466	-4.2823877556	-3.9486168085	 0.115299
H	 0.290128069	-2.6719297389	-4.8124266027	 0.109632
H	 2.7417174887	-2.9378347788	-5.4937462858	 0.110341
H	 2.7901126111	-4.5412844074	-4.61818573	 0.124645
