21
gdb 39576	2.40864	1.94838	1.54461	0.1455	87.12	-0.2355	0.0306	0.2661	980.2814	0.187196	-349.990538	-349.98356	-349.982616	-350.021379	29.833	
C	-0.0003278721	 1.5547919531	 0.0626911905	-0.253401
C	 1.391838268	 2.1164141456	-0.0738670956	-0.042991
C	 2.447093599	 1.3830135997	-0.4283924865	-0.054994
C	 2.3623592407	-0.0936033246	-0.7493461414	-0.046533
C	 2.7962906032	-0.9560615728	 0.4605102082	-0.253401
C	 1.7186561603	-1.0223171794	 1.5124186439	-0.042992
C	 0.474018376	-0.5871798134	 1.3157966871	-0.054993
C	-0.0009803356	 0.0079001332	 0.007803525	-0.046534
C	 0.9186180333	-0.4555913953	-1.1334564636	-0.233961
H	-0.4479164876	 1.8991047624	 1.0041104477	 0.100437
H	-0.6432266611	 1.9569291352	-0.7346373655	 0.10098
H	 1.5157705014	 3.1766138296	 0.1356243306	 0.080194
H	 3.4317235536	 1.8426805045	-0.4821788511	 0.078128
H	 3.0379849518	-0.3096944426	-1.5855614507	 0.064955
H	 3.0492056897	-1.9723571646	 0.1229548562	 0.100981
H	 3.7182785639	-0.5532732203	 0.8996640153	 0.100436
H	 1.9969662628	-1.449008447	 2.4735360717	 0.080194
H	-0.2508496229	-0.637732274	 2.1255460631	 0.078129
H	-1.027788528	-0.3290912086	-0.1779995882	 0.064955
H	 0.6400301444	 0.0359974002	-2.072150611	 0.090206
H	 0.8229424992	-1.5366159308	-1.2839552357	 0.090206
