20
gdb 126759	2.48432	1.34571	0.93932	2.8852	82.57	-0.2373	0.0202	0.2575	1316.6627	0.170938	-399.384118	-399.374296	-399.373352	-399.4198	34.524	
C	-0.0625320563	 1.5515138602	 0.2878809025	-0.37479
C	-0.0657193027	 0.0636680683	-0.0654128917	-0.147317
N	-1.4058359901	-0.4963138355	-0.1028893444	 0.003445
N	-2.0948511604	-0.6840431544	 1.0560015687	-0.308266
C	-3.2548268841	-1.1626145418	 0.6329573149	 0.337379
C	-4.3582219394	-1.5337335635	 1.5660918753	-0.48311
N	-3.3492450569	-1.2899034061	-0.7233502144	-0.351945
C	-2.1739625922	-0.8614612658	-1.1561973072	 0.338653
C	-1.7486280219	-0.7932875012	-2.5852821061	-0.508023
H	 0.9648232811	 1.9241417311	 0.3403768435	 0.120502
H	-0.603851913	 2.135467613	-0.4625843634	 0.124214
H	-0.5416555968	 1.7074080634	 1.2571738825	 0.151223
H	 0.3896585129	-0.1075195408	-1.0443989827	 0.120985
H	 0.5088275676	-0.5042887838	 0.6722481204	 0.134676
H	-5.2612092194	-0.9545231779	 1.3482824663	 0.135552
H	-4.6189245502	-2.5913517736	 1.4575256301	 0.135847
H	-4.0577162587	-1.3470599168	 2.5985304776	 0.135017
H	-1.5112830421	 0.2302419519	-2.8947519655	 0.137531
H	-0.8653151356	-1.41185891	-2.7786237921	 0.138549
H	-2.5678462019	-1.1597287669	-3.2046012643	 0.159877
