20
gdb 120565	3.73807	0.73149	0.69169	4.3441	81.17	-0.2754	0.0372	0.3126	1662.6477	0.169441	-403.151038	-403.140802	-403.139858	-403.186741	36.526	
C	 0.0198583221	 1.5351902293	-0.1515985923	-0.460038
C	 0.0026535501	 0.0233403725	 0.0208430992	 0.136563
C	 1.3045329503	-0.7679593465	-0.0384586504	-0.31332
C	 0.5708149393	-0.6570741912	 1.2684007509	-0.030922
C	 1.1199179902	 0.1307632489	 2.4375863192	-0.214648
C	 2.0351992441	-0.7207423601	 3.3143635466	-0.066971
O	 2.4997560839	 0.1038884964	 4.3698909532	-0.419645
C	-1.1566781534	-0.6153387578	-0.5548548986	 0.240765
N	-2.0922441731	-1.1180020233	-1.0147120939	-0.349138
H	 0.9380375918	 1.9649070695	 0.2528894209	 0.128162
H	-0.0363407334	 1.7978081993	-1.2119639553	 0.139459
H	-0.8295191505	 1.9999104803	 0.3578014805	 0.139737
H	 1.3064343946	-1.7145904849	-0.5654274073	 0.136167
H	 2.2049459742	-0.1755244104	-0.1670419175	 0.124224
H	 0.0222801867	-1.549248934	 1.5595736876	 0.110089
H	 1.6911234945	 1.0000316281	 2.0975064073	 0.11079
H	 0.3018113049	 0.5125651027	 3.0595704623	 0.118793
H	 1.4772869262	-1.590011459	 3.6989052351	 0.090045
H	 2.8693173347	-1.1108335195	 2.7092688858	 0.091229
H	 3.063541603	-0.4249003804	 4.9418029666	 0.288659
