27
gdb 117829	2.2524	1.00374	0.86141	0.9478	92.74	-0.2512	0.0733	0.3246	1574.2811	0.249231	-390.693047	-390.680974	-390.68003	-390.7304	43.858	
C	-0.109228215	 1.5247663659	 0.2000223273	-0.403998
C	 0.0157093214	 0.0029742727	 0.0657929716	-0.179759
C	 0.7144168333	-0.5260299792	-1.2136796023	 0.237966
C	 0.7462995099	-2.0657798929	-1.1493423654	-0.420382
C	 0.0159305681	-0.0498301177	-2.512155221	-0.192421
C	-1.4593644014	-0.4354274997	-2.6696152284	-0.403353
C	 2.1650702491	-0.0153773578	-1.2818088034	-0.067282
O	 2.8563865937	-0.3598025908	-0.0986111243	-0.23973
C	 4.203230473	 0.0420290836	-0.1114346318	-0.226081
H	 0.870631616	 2.0115514541	 0.2266868468	 0.118742
H	-0.6821740473	 1.9694018752	-0.6201914612	 0.113034
H	-0.6229089687	 1.7812377249	 1.132108412	 0.110624
H	 0.5704667268	-0.3810872746	 0.9275155115	 0.110386
H	-0.9834110241	-0.4449544693	 0.1229554442	 0.087939
H	-0.2547929488	-2.4845687919	-1.0101921205	 0.10799
H	 1.1622638353	-2.4901724528	-2.070672461	 0.099985
H	 1.3701767636	-2.3969234133	-0.3154244698	 0.127763
H	 0.1041372854	 1.0411688609	-2.587074861	 0.092854
H	 0.5772129757	-0.4519370899	-3.3663341489	 0.088888
H	-1.8452677454	-0.072067401	-3.6273316649	 0.111276
H	-1.6036037378	-1.5197971632	-2.6492292418	 0.118541
H	-2.0822684775	-0.0018283887	-1.8812058668	 0.119731
H	 2.6706637932	-0.4595321416	-2.1572456925	 0.077907
H	 2.1846730887	 1.0783165465	-1.4228471734	 0.080659
H	 4.6467397386	-0.2611191395	 0.8404292037	 0.124812
H	 4.7645913846	-0.4328777376	-0.9321798135	 0.102235
H	 4.3044261598	 1.1341526576	-0.2182787251	 0.101673
