19
gdb 12475	3.30679	1.85043	1.30807	3.3335	72.65	-0.2501	0.0264	0.2766	963.9435	0.168217	-365.080431	-365.072859	-365.071915	-365.112436	28.893	
N	-0.0766862195	 1.335921537	 0.3059113084	-0.489361
C	-0.0265535969	 0.1096507034	-0.0167267908	 0.368805
C	-1.3087147752	-0.6908682516	-0.1091562615	-0.259633
C	-1.5062490196	-1.4883119626	-1.4116398993	-0.210497
C	-0.8207278331	-2.8646568535	-1.4064726649	-0.192643
C	 0.582621989	-2.8592359636	-0.7722441013	-0.210871
C	 1.4055567004	-1.6061358868	-1.0704970081	-0.066527
O	 1.1853807986	-0.5033235921	-0.1797981793	-0.257174
H	 0.8719364191	 1.7170686856	 0.3412872774	 0.213762
H	-1.359757684	-1.3717626764	 0.7511517835	 0.11503
H	-2.108389683	 0.0398557213	 0.0183205078	 0.132813
H	-2.578999419	-1.6254800265	-1.5818913943	 0.103905
H	-1.1480975681	-0.8879243018	-2.2562109262	 0.10748
H	-1.4470419169	-3.5843245641	-0.8663145526	 0.102771
H	-0.7572224145	-3.2321731798	-2.4374011878	 0.099968
H	 0.5217449639	-2.9626120848	 0.3170387826	 0.114557
H	 1.1443689304	-3.7309468073	-1.126912716	 0.103377
H	 2.4695395625	-1.819724133	-0.9415940167	 0.117642
H	 1.2612598159	-1.2745131834	-2.1079847208	 0.106597
