21
gdb 75406	2.45922	1.43678	1.03371	0.2087	93.3	-0.2059	-0.014	0.1919	1238.8539	0.18359	-349.960397	-349.95158	-349.950636	-349.994603	33.862	
C	 0.0680594334	 1.6031541138	-0.3029107263	-0.477223
C	-0.0676069154	 0.1280756408	 0.0015621062	 0.309378
C	-1.2638065454	-0.4719967471	-0.0685431219	-0.155558
C	-1.4987983142	-1.9410970174	 0.1839998643	-0.321023
C	-1.0825186942	-2.7339315109	-1.0318168308	-0.039602
C	 0.1596082297	-3.155553564	-1.2489936541	-0.04749
C	 1.3222468783	-3.0513344569	-0.286172713	-0.321717
C	 1.7085479199	-1.7402349114	 0.3675802382	-0.04824
C	 1.1826827213	-0.5078650767	 0.4541421972	-0.125052
H	 0.7694354289	 1.7738518969	-1.1291064958	 0.125836
H	-0.8925913134	 2.0467649079	-0.5760667693	 0.117295
H	 0.4641910052	 2.1519751526	 0.5611527739	 0.120852
H	-2.1226027543	 0.1190661014	-0.3787094546	 0.079084
H	-0.9114127765	-2.2590334371	 1.0534342749	 0.114677
H	-2.5532328411	-2.1210102069	 0.416104999	 0.097216
H	-1.8359054658	-2.8828019887	-1.8019799717	 0.084808
H	 0.3775888952	-3.6668965046	-2.1835161557	 0.085477
H	 1.1932352046	-3.788796382	 0.5249244655	 0.123595
H	 2.222965319	-3.4007244722	-0.8079010384	 0.112817
H	 2.6714651303	-1.8458081698	 0.8695664143	 0.08712
H	 1.8256023343	 0.2028166622	 0.9768445282	 0.077748
