16
gdb 74102	2.66781	1.7298	1.23979	5.6737	73.32	-0.2148	-0.0278	0.187	997.0285	0.126293	-437.892365	-437.885148	-437.884203	-437.923745	28.871	
N	 0.059379087	 1.3605379493	 0.1140977349	-0.592046
C	-0.0086797734	 0.0045058133	 0.007246638	 0.416094
C	-1.139875939	-0.7484582787	-0.0374112375	-0.321549
C	-0.9729662378	-2.1987434979	-0.0090161969	 0.41468
O	-1.8709055254	-3.0192530973	 0.0209475532	-0.365576
C	 0.5136697324	-2.6114706512	 0.0089501261	-0.029037
C	 1.2636866726	-1.8466053172	 1.1287388082	-0.258544
C	 1.3047762753	-0.7663795584	 0.0192218502	-0.004084
O	 1.2259571153	-1.805517437	-0.9841794768	-0.286695
H	 0.9056163349	 1.8248240751	-0.1736185412	 0.262758
H	-0.7858244757	 1.895628041	-0.0124382887	 0.265446
H	-2.1389538802	-0.3274982021	-0.0668173261	 0.088734
H	 0.6424508704	-3.6857374776	-0.1257560323	 0.096057
H	 0.7412034155	-1.6217279658	 2.0591434844	 0.121082
H	 2.2512441022	-2.2706894771	 1.3196413631	 0.117074
H	 2.1844362059	-0.1249120584	-0.0945814586	 0.075606
