23
gdb 87208	3.90191	0.90373	0.8417	0.9486	87.21	-0.235	0.0925	0.3275	1504.6567	0.203254	-388.258557	-388.24851	-388.247565	-388.293481	38.107	
C	-0.1297156364	 1.553155763	 0.1386455358	-0.418431
C	 0.1656161795	 0.074894697	 0.0197114185	-0.042224
C	 1.5850802616	-0.4514744997	-0.1041276434	-0.351056
C	 0.755694094	-0.7529989209	 1.126252324	 0.429623
C	 1.1214095437	-0.1637516986	 2.4702978092	-0.455239
O	 0.1860348423	-2.0428867923	 1.1836368183	-0.294136
C	 1.0683728878	-3.062622276	 1.5532160701	 0.13948
C	 1.0977151453	-3.5477946086	 2.9813246133	-0.284223
C	 0.4408351408	-4.3746695712	 1.8928276249	-0.297074
H	 0.6511960625	 2.0866934821	 0.6884410603	 0.114109
H	-0.1967436944	 2.0114860216	-0.8541618472	 0.118832
H	-1.0809611878	 1.7326821374	 0.6520984707	 0.119487
H	-0.5626875913	-0.4815838365	-0.5639731818	 0.095102
H	 1.7679060438	-1.2596832804	-0.8034564482	 0.112979
H	 2.4015398599	 0.2579019576	-0.0067172817	 0.104813
H	 1.5080871177	 0.8526529796	 2.3665002264	 0.115188
H	 0.2450468729	-0.1318327608	 3.1266170753	 0.11932
H	 1.8922398011	-0.7635381673	 2.9630691797	 0.125272
H	 2.00335255	-3.0649212243	 0.9943312786	 0.084438
H	 2.0398581892	-3.8846727365	 3.4008106955	 0.108917
H	 0.4381287836	-3.047675981	 3.6809796656	 0.118383
H	-0.6428680393	-4.4042789675	 1.8832152222	 0.12436
H	 0.9243665234	-5.2850807167	 1.5572067439	 0.112079
