20
gdb 32730	3.06019	0.99652	0.7953	1.8814	82.42	-0.2251	0.0121	0.2372	1490.0245	0.170788	-403.20184	-403.192371	-403.191427	-403.237137	33.78	
C	-0.3215502348	 1.6079567341	 0.0820212981	-0.382623
C	-0.2221311214	 0.0817443614	 0.0422034751	-0.158108
C	 0.811670447	-0.4696257475	 1.0440865796	-0.308806
C	 0.9148764143	-1.9532520982	 1.0450113912	 0.272571
C	 1.8697071016	-2.8613287831	 0.7089921209	 0.165496
C	 3.2547538269	-2.6515588762	 0.1953853797	-0.493652
N	 1.3650610422	-4.1480828187	 0.9189152934	-0.304452
C	 0.1672914633	-3.9547142841	 1.3559333751	 0.059252
O	-0.1932661108	-2.6580537128	 1.465484676	-0.184267
H	 0.6390632904	 2.0758325983	-0.1613622945	 0.114708
H	-1.0614778051	 1.9756302033	-0.6352351983	 0.115924
H	-0.6177431164	 1.9601113626	 1.0764038395	 0.116678
H	-1.1991547946	-0.3629481833	 0.2622967275	 0.112921
H	 0.0481590819	-0.2514779759	-0.9668750852	 0.102662
H	 1.8014197399	-0.0580409373	 0.817751222	 0.113576
H	 0.5543028829	-0.1188493472	 2.0529496165	 0.116186
H	 3.9916031201	-3.1103345667	 0.8631916989	 0.138697
H	 3.38050479	-3.1146822463	-0.7891884658	 0.138179
H	 3.4910208504	-1.5883917169	 0.1044353961	 0.121141
H	-0.5695347379	-4.6894151553	 1.6415000041	 0.143918
