18
gdb 33498	2.65047	1.17799	0.90666	2.7825	77.7	-0.2443	0.029	0.2733	1291.3608	0.146003	-401.859801	-401.850786	-401.849842	-401.894213	33.316	
C	-0.5819591762	-1.1154845521	 0.2280066822	-0.462444
C	-0.3490304895	 0.0619463145	 0.1429052	 0.307296
C	-0.0710820415	 1.4717531076	 0.0225304897	 0.124417
C	-1.0818499144	 2.2961711896	-0.7626353547	-0.303056
C	-1.1395423602	 1.9000023789	-2.2202052079	 0.104631
C	-2.1464906704	 0.9670820266	-2.7377751551	-0.167181
O	-2.2654502575	 2.3742281216	-2.9606733129	-0.241024
C	 0.71919085	 2.1081592665	 1.122062989	-0.274062
N	 1.3444520093	 1.8806304362	-0.1844286373	-0.344089
H	-0.7864027174	-2.1545796197	 0.3082903924	 0.20013
H	-2.0770087435	 2.1943206389	-0.3171573393	 0.111441
H	-0.7900542414	 3.3493449551	-0.6902525389	 0.117681
H	-0.1899172571	 1.9754436846	-2.7507756266	 0.103303
H	-1.9299028135	 0.3693065775	-3.6217987479	 0.113866
H	-2.8773563217	 0.5378030984	-2.0541688524	 0.114682
H	 0.5283339614	 3.1498926383	 1.3652222613	 0.125955
H	 1.0085262716	 1.4832692757	 1.9613341759	 0.126237
H	 1.9428419321	 1.0593427517	-0.1422961678	 0.242216
