20
gdb 12374	2.89874	1.97513	1.26633	1.38	77.4	-0.2329	0.0269	0.2597	1007.0009	0.177687	-349.019518	-349.011378	-349.010434	-349.051646	31.263	
C	-0.0550098212	 1.5532280919	-0.0423108628	-0.405853
C	 0.0316048909	 0.0201831582	 0.0313533655	-0.083226
C	 0.7182077651	-0.5206061074	-1.2305648506	-0.081691
O	 0.9758546849	-1.907258221	-1.1486136315	-0.248527
C	 1.9114300549	-2.2094122368	-0.1327314561	-0.121964
C	 1.6291407295	-1.4943445379	 1.1586288416	-0.178211
C	 0.7580799274	-0.4888839924	 1.2668165663	 0.32908
C	 0.4373923195	 0.1460220571	 2.5938475654	-0.48387
H	 0.9416189978	 2.0076501239	-0.0093132371	 0.118108
H	-0.5334899677	 1.8641159833	-0.9773378936	 0.114663
H	-0.6418658332	 1.9692595205	 0.7804570521	 0.119663
H	-0.9961061307	-0.3734772818	 0.055525041	 0.0861
H	 0.0819447996	-0.3764905226	-2.1093823013	 0.103138
H	 1.6569704752	 0.0360306267	-1.4002026139	 0.081464
H	 1.861094638	-3.295106517	 0.0149933921	 0.113681
H	 2.9396794835	-1.9853965611	-0.4762254097	 0.091931
H	 2.1668152102	-1.8541715115	 2.033540528	 0.079809
H	 0.9572119775	-0.3625725977	 3.4101696192	 0.11825
H	 0.7180965712	 1.2053457904	 2.6230239801	 0.12555
H	-0.6400162521	 0.1038444651	 2.8019094255	 0.121905
