16
gdb 27304	3.21605	1.39935	0.9809	4.5617	76.38	-0.2067	-0.0055	0.2012	1150.4652	0.126528	-434.129273	-434.121252	-434.120307	-434.161655	30.713	
C	-0.001303995	 1.5011173521	-0.0213194976	-0.471923
C	-0.0027651189	 0.0031874056	-0.0220327196	 0.254083
C	-1.1280709144	-0.7231798668	-0.1279935479	-0.102174
N	-1.0794811556	-2.1126410767	-0.1243072083	-0.366168
C	 0.1321364366	-2.7170156208	-0.0107417716	 0.49948
O	 0.0488732667	-4.0591822487	-0.0191780823	-0.412614
N	 1.2589561247	-2.1141518675	 0.0953526198	-0.433767
C	 1.2863362617	-0.7059606485	 0.0985556257	 0.259937
N	 2.3715360618	-0.0302381613	 0.2006450595	-0.538843
H	 0.6154781305	 1.8827218665	-0.8411048082	 0.144757
H	-1.0136250554	 1.9049158888	-0.1156773016	 0.101605
H	 0.4531300044	 1.8820247814	 0.8986946281	 0.144782
H	-2.1169361755	-0.2924456559	-0.2205164052	 0.127068
H	-1.9098938855	-2.6752078576	-0.202185928	 0.273972
H	 0.958928027	-4.3762064467	 0.0661270314	 0.313674
H	 3.1575556967	-0.6788919042	 0.2741278558	 0.206129
