17
gdb 128157	3.21032	1.22629	0.90642	2.3608	73.19	-0.1836	0.0554	0.239	1258.1487	0.136814	-451.325011	-451.315305	-451.314361	-451.359676	34.679	
C	-0.3463360853	 1.2905213746	 0.1401830404	-0.334494
N	 0.245359521	-0.0147987758	-0.1217215927	-0.393884
C	 0.7221401708	-0.7566174732	 0.9467982479	 0.394462
C	 0.7743268544	-2.131296037	 1.1028219174	 0.025915
O	 0.2227935256	-3.0634293774	 0.2470313115	-0.461065
C	 1.4088661687	-2.341556437	 2.35060101	 0.309094
N	 1.73210336	-3.5822754932	 2.9015899071	-0.599888
N	 1.7333200396	-1.1981293091	 2.9385772775	-0.332871
N	 1.2912247843	-0.235744589	 2.0597584162	-0.292962
H	 0.4233500372	 1.9950677876	 0.4747005953	 0.127052
H	-0.7548816723	 1.6848024272	-0.7927510175	 0.132996
H	-1.1458519121	 1.2707217461	 0.8964008041	 0.12152
H	-0.3230308943	-0.6001194747	-0.7194191688	 0.247836
H	 0.9363335486	-3.5050331217	-0.227857759	 0.297282
H	 0.9955345011	-4.2629523944	 2.7626202709	 0.245538
H	 1.956381531	-3.5008678957	 3.8855274166	 0.248003
H	 1.4964618317	 0.7258957727	 2.2568382329	 0.265464
