18
gdb 120362	3.19506	1.063	0.84489	3.6146	75.21	-0.2226	-0.0163	0.2062	1374.8694	0.14678	-439.113521	-439.104443	-439.103499	-439.148362	32.585	
C	 0.0532248412	 1.5211522477	 0.0324576765	-0.385371
C	-0.1203832302	 0.0180558621	-0.0993901643	-0.033496
O	 0.7602765569	-0.4406656958	-1.1105796395	-0.24391
C	 0.7654083958	-1.8379484485	-1.2782246148	-0.029137
C	-0.3787108775	-2.4359936385	-2.069632625	-0.171172
C	 0.1302258557	-3.0943615507	-3.1142440305	-0.014333
N	 1.5317521136	-3.016317521	-3.150084173	-0.332266
C	 2.0137667712	-2.2210382545	-2.1258008848	 0.401052
O	 3.1608073914	-1.9054937736	-1.9389116755	-0.349854
H	 1.0862068921	 1.7641583565	 0.295552166	 0.134177
H	-0.1862598734	 2.0185832393	-0.9115211279	 0.128835
H	-0.6087622847	 1.9134547079	 0.8103001397	 0.113935
H	 0.1107667832	-0.4866144899	 0.8536903672	 0.089236
H	-1.1643771552	-0.2271829386	-0.3521403986	 0.08759
H	 0.86673764	-2.3359699578	-0.2971560254	 0.098556
H	-1.4230460033	-2.374422617	-1.8067090992	 0.110478
H	-0.3813798516	-3.663927159	-3.8778412336	 0.132371
H	 2.1153333447	-3.3335595688	-3.9060943175	 0.263308
