21
gdb 38126	2.65451	1.99721	1.77432	0.209	85.04	-0.2283	0.02	0.2482	914.1138	0.187801	-349.96244	-349.956073	-349.955128	-349.992585	28.422	
C	-0.0276775578	 1.5444450487	 0.0423547283	-0.235163
C	 1.5342036193	 1.4668878824	 0.0067716922	-0.074067
C	 1.9728040594	 1.2375488501	 1.4359340783	-0.065318
C	 1.4019077626	 0.2246664784	 2.088997979	-0.072067
C	 0.4903230102	-0.7003166834	 1.3061270252	-0.067706
C	 1.3643033023	-1.8438843291	 0.7270957292	-0.193417
C	 2.211342851	-1.1340518738	-0.3660876066	-0.237054
C	 1.3597137392	 0.0897563477	-0.7502416762	 0.015821
C	-0.000118508	 0.0013817853	 0.0046136917	-0.022673
H	-0.4832021614	 2.0523265296	 0.8959222984	 0.090415
H	-0.4393712022	 1.9422581884	-0.8901881392	 0.091158
H	 2.0888851656	 2.2616449299	-0.4947666528	 0.054787
H	 2.6761344946	 1.9174524234	 1.9066456956	 0.082435
H	 1.6228887367	-0.0060172206	 3.127035545	 0.083428
H	-0.3295839901	-1.0763859946	 1.9259262441	 0.060574
H	 1.9729131947	-2.3431146694	 1.4872918669	 0.090915
H	 0.7171770917	-2.6039929369	 0.2720450682	 0.090348
H	 3.1875277203	-0.8350953196	 0.0264388707	 0.101223
H	 2.394707693	-1.7888214719	-1.2227366233	 0.09004
H	 1.2665976823	 0.2518733596	-1.8263252809	 0.061936
H	-0.8419797533	-0.5312500442	-0.4460950839	 0.054384
