17
gdb 5860	4.49244	0.90728	0.90727	5.3939	83.03	-0.2811	-0.0337	0.2474	1341.6161	0.140145	-326.730817	-326.721598	-326.720654	-326.764462	33.197	
C	-0.0149099965	 1.5443831482	 0.0035093479	-0.395227
C	 0.0000906653	-0.0025793133	 0.006167882	 0.029135
C	 0.7563525207	-0.520659586	 1.2523612582	-0.395246
C	-1.4491325568	-0.5441606738	 0.0054386117	-0.395158
C	 0.6852492342	-0.4743490456	-1.1973824998	 0.236372
C	 1.251026921	-0.8642571898	-2.1925466256	-0.094672
C	 1.8894538832	-1.304320673	-3.3159561559	 0.203571
N	 2.4328112001	-1.6789749299	-4.2723831911	-0.34024
H	 1.0013620663	 1.9472742779	-0.0002345613	 0.130907
H	-0.5407496377	 1.9311752064	-0.8734399944	 0.130927
H	-0.5268311446	 1.9062825479	 0.9008199922	 0.122004
H	 0.2497247605	-0.1721325785	 2.1579193967	 0.121994
H	 0.7826153314	-1.6134186459	 1.2702218048	 0.130913
H	 1.7854824266	-0.1522096417	 1.269004679	 0.130907
H	-1.9996260487	-0.1932319566	-0.8714625716	 0.130921
H	-1.460385855	-1.6373184594	 0.0030204973	 0.130899
H	-1.9699529302	-0.1952503368	 0.9027499098	 0.121992
