18
gdb 19404	3.12389	2.13042	1.61009	2.0919	71.4	-0.2299	0.0719	0.3018	861.7236	0.154619	-343.907065	-343.899771	-343.898826	-343.938202	28.628	
C	-0.2050081886	 1.573617973	-0.0364402224	-0.407648
C	 0.0649972209	 0.0805280714	 0.0208392294	-0.025708
N	 0.9916950066	-0.5015019244	-1.0298293523	-0.144537
C	 2.3570236877	-0.0190708352	-0.739466384	-0.245731
C	 1.8212247199	-1.1154039571	 0.0898881188	-0.100421
C	 0.906877012	-0.5464282401	 1.1467133489	 0.350184
C	 1.1860746848	-0.0799995248	 2.5228079403	-0.312225
N	 0.4050046758	-1.3127060932	 2.2755290629	-0.375357
H	 0.7051315047	 2.1682358525	 0.0798473081	 0.120158
H	-0.6666572828	 1.8375570078	-0.9934707172	 0.131543
H	-0.8970700063	 1.8669022631	 0.7607429087	 0.116567
H	-0.8808396217	-0.4652835158	-0.0767068294	 0.0904
H	 3.0586711072	-0.2716920986	-1.5285195005	 0.12277
H	 2.5099333389	 0.9626934449	-0.2986522736	 0.111883
H	 2.1747252345	-2.1400348517	 0.0515902609	 0.10629
H	 2.1627686601	-0.2409030573	 2.9716050644	 0.120356
H	 0.664968237	 0.8067796882	 2.8762970582	 0.111535
H	-0.5881550708	-1.1358719926	 2.4122133987	 0.229943
