16
gdb 50750	3.04917	1.40039	0.99317	5.2054	67.15	-0.2436	-0.0364	0.2072	1129.0703	0.12484	-475.063539	-475.055476	-475.054532	-475.09694	28.967	
O	-0.2978257407	 0.0149167268	 0.0264054945	-0.255884
C	-0.0905974161	 1.1938920396	 0.0116583892	 0.166061
N	 1.1561666289	 1.8413407812	-0.0191016873	-0.159386
C	 1.1333430454	 3.3127168145	-0.0981402298	-0.169605
C	 2.4096920588	 3.9028950747	 0.4746915609	-0.098013
O	 3.5194991814	 3.3739343523	-0.2194346339	-0.237056
C	 3.6532503304	 1.9912663365	 0.0229408043	-0.189974
C	 2.3771859836	 1.1406665621	-0.0413765	 0.386771
O	 2.4650695619	-0.0597633452	-0.0530421073	-0.304918
H	-0.902965632	 1.9501160302	 0.032016691	 0.08205
H	 1.0318867964	 3.6317555904	-1.1424947977	 0.134686
H	 0.2621686979	 3.6784451123	 0.4547595683	 0.126286
H	 2.4219718557	 4.9858433116	 0.3282080215	 0.127275
H	 2.4829678626	 3.6953128965	 1.5549081159	 0.105476
H	 4.3461534763	 1.5890305106	-0.7187668831	 0.154673
H	 4.0869833696	 1.804147426	 1.0195898934	 0.131555
