21
gdb 82938	2.09812	1.7971	1.48156	1.7993	81.48	-0.2455	0.0825	0.328	1050.4273	0.182778	-387.071042	-387.06259	-387.061645	-387.103529	33.387	
C	-0.2155800033	 1.6026347514	 0.0644606967	-0.425407
C	 0.043907532	 0.1091308731	 0.0935051317	-0.03829
C	 1.3427024584	-0.5882049888	-0.2499515824	-0.116972
C	 2.7011933636	 0.120128782	-0.1509837842	-0.269165
C	 2.9296788426	 0.3966665878	 1.3318932639	 0.040964
O	 2.0165118603	 1.3320429906	 1.9182830512	-0.253372
C	 1.7563105935	-0.0689631799	 2.0897313215	-0.027799
C	 0.7524785765	-0.718302336	 1.1549321979	 0.304503
C	 0.1173572915	-1.9935608343	 1.6650894133	-0.488058
H	 0.6595458271	 2.1898430465	 0.3298359606	 0.144772
H	-0.5485959977	 1.8934079487	-0.9388689595	 0.103796
H	-1.0154713634	 1.8691006859	 0.7644643266	 0.112998
H	-0.8079521879	-0.4431157632	-0.3043051544	 0.078572
H	 1.2841477622	-1.4220106567	-0.9435410992	 0.078741
H	 3.4890224155	-0.5482167364	-0.5156528167	 0.104997
H	 2.762345682	 1.0398936275	-0.7436689655	 0.115617
H	 3.9394464332	 0.4330365277	 1.7356349466	 0.09296
H	 1.8116627419	-0.4191864082	 3.1180369283	 0.089624
H	-0.5760373338	-1.7948766992	 2.4911746134	 0.119685
H	-0.4473738918	-2.4929479642	 0.8721443456	 0.117052
H	 0.8716816777	-2.7020186644	 2.0286011347	 0.114783
