20
gdb 11477	4.08498	1.29065	1.17068	2.2735	71.29	-0.2441	0.0725	0.3166	1107.3948	0.177195	-386.141418	-386.132858	-386.131914	-386.175134	31.705	
C	 0.1264040416	 1.2685318875	 0.1814926034	-0.237396
O	-0.1653952554	-0.0689891481	-0.1457746899	-0.243482
C	 0.583901484	-0.5707362441	-1.2341757332	 0.160116
C	 2.0810401684	-0.8172235474	-0.9418592724	-0.229304
C	 2.439953132	-1.9337103115	-1.9304396968	-0.235881
C	 1.2346180432	-2.8894826778	-1.83392838	 0.124023
O	 1.3160123438	-3.712014025	-0.6702490417	-0.437641
C	 0.0232278436	-1.9554995507	-1.6401507436	-0.233312
H	 1.1571344436	 1.3976019171	 0.543895062	 0.104921
H	-0.0198421	 1.9399037638	-0.6804918478	 0.09897
H	-0.5615055367	 1.5648538306	 0.9775267886	 0.124663
H	 0.4969472745	 0.1335909375	-2.0796781434	 0.055157
H	 2.7023058481	 0.0755080588	-1.0489977541	 0.088562
H	 2.1744292303	-1.1863240492	 0.0849330165	 0.117304
H	 2.5119051519	-1.5346259236	-2.9506870209	 0.094909
H	 3.3891314096	-2.4338670937	-1.7101474498	 0.085964
H	 1.133079397	-3.5170117404	-2.7303615554	 0.05617
H	 2.1068796628	-4.255508099	-0.7488184723	 0.277648
H	-0.6077768135	-2.3418568603	-0.8372467054	 0.132427
H	-0.5846604089	-1.8908537244	-2.5456129741	 0.096182
