18
gdb 106752	2.04266	1.67563	1.10498	4.3649	73.85	-0.2158	-0.0072	0.2086	1140.8124	0.14547	-439.05319	-439.04392	-439.042975	-439.087446	34.25	
C	-0.4401489549	 1.3228437388	 0.1046464314	-0.329363
N	 0.3026983379	 0.0836421794	-0.0978382609	-0.379911
C	 0.93427675	-0.4513758044	 1.0470813342	 0.188683
C	 0.1654121917	-0.9361246827	 2.3185626173	-0.394055
C	 1.0015638314	-1.9023821352	 1.5578922423	 0.333009
O	 0.489856908	-2.9835930132	 0.8688563129	-0.461539
C	 2.4748315796	-1.7459626914	 1.9682565155	-0.423994
C	 2.3802339022	-0.2822815359	 1.4393528678	 0.401449
O	 3.1920820282	 0.5831688288	 1.2836800321	-0.312793
H	 0.250535609	 2.1049644981	 0.4332367774	 0.144636
H	-0.8775752711	 1.638969201	-0.8462434232	 0.120786
H	-1.2467939437	 1.246278951	 0.8535886399	 0.095692
H	-0.2592081294	-0.6257815287	-0.554455481	 0.233492
H	 0.4389104365	-0.6144693998	 3.3197971442	 0.119025
H	-0.9025069957	-0.9921036525	 2.1285483007	 0.121366
H	 0.0874795822	-3.5900548136	 1.4999618544	 0.29331
H	 2.7383474816	-1.9059491164	 3.0183251041	 0.112091
H	 3.1490013365	-2.3186519234	 1.324248271	 0.138115
