21
gdb 59439	2.66859	1.06659	0.94937	4.4896	80.32	-0.2411	0.022	0.2631	1367.0575	0.181095	-420.422708	-420.412105	-420.41116	-420.459145	38.013	
C	 0.1916337266	 0.3542455267	-2.4844336352	-0.395413
C	 0.1428254924	-0.1672658213	-1.0414943483	 0.033547
C	 0.2648111859	 0.9718372715	-0.0206195566	-0.393735
C	-1.1418024279	-0.9412451516	-0.8204092662	-0.004271
N	-1.2064388229	-2.3093073752	-1.3244040355	-0.31763
C	-1.2788614131	-2.0962823492	 0.1305763525	-0.156795
C	-0.1218526824	-2.6053745124	 0.9530383692	 0.435024
N	-0.4569253277	-2.8930535442	 2.2490489169	-0.534924
O	 1.0078608966	-2.747079317	 0.5293759964	-0.357794
H	 1.131683435	 0.8812250616	-2.6769151461	 0.110401
H	 0.1127298374	-0.4718214583	-3.1972446586	 0.126382
H	-0.6279972593	 1.0565392749	-2.6832197026	 0.099798
H	 0.9686048581	-0.8675915955	-0.8930400208	 0.124007
H	-0.5665355112	 1.6821141073	-0.1130029759	 0.102957
H	 0.2671455941	 0.5897509931	 1.0054736932	 0.111604
H	 1.1935579214	 1.5311175062	-0.1710723254	 0.114556
H	-2.0459986401	-0.3345946067	-0.912848827	 0.076948
H	-2.1308571735	-2.5298957134	-1.6844476791	 0.233858
H	-2.254558427	-2.2044349799	 0.6027009825	 0.073791
H	-1.3640280571	-2.6917481272	 2.6306911453	 0.256267
H	 0.2844583949	-3.1504405293	 2.8796365213	 0.261423
