18
gdb 49649	4.04264	1.38459	1.30179	3.1279	75.29	-0.2312	-0.0279	0.2033	1006.8009	0.149773	-401.890323	-401.883519	-401.882575	-401.921717	27.298	
O	-0.7128174242	 0.7655276963	-0.6245106225	-0.244678
C	 0.1114461534	 0.9156174309	 0.2423495285	 0.130522
C	 1.2385269897	 1.9134035797	 0.2156202069	-0.072135
C	 1.3311989672	 3.0825611572	-0.7994515524	-0.089518
C	 0.0248705031	 3.832424301	-0.4700025137	-0.172209
N	 0.3308247785	 4.1812776153	 0.9570337215	-0.149871
C	 1.5297939507	 5.0811253513	 0.7243752913	-0.187746
C	 2.2676124954	 3.83376632	 0.2547554876	-0.045664
C	 1.3678677603	 3.0492442382	 1.2480711149	-0.024139
H	 0.0996777246	 0.2764951428	 1.1571528474	 0.077082
H	 2.1774097642	 1.3433113837	 0.2657106172	 0.101092
H	 1.6207824106	 2.920842423	-1.8355291471	 0.078359
H	-0.1319345678	 4.7427196752	-1.0526292402	 0.10043
H	-0.8616514783	 3.2052948442	-0.5510262719	 0.131215
H	 1.3486431246	 5.9219709878	 0.048087221	 0.102462
H	 1.9117035897	 5.4522282385	 1.6798443391	 0.108223
H	 3.3478266789	 3.7099730517	 0.1693880796	 0.071844
H	 1.5621629595	 2.9078073632	 2.3094722129	 0.08473
