17
gdb 7430	3.29648	1.62171	1.17541	2.4082	67.61	-0.2349	-0.0496	0.1853	1041.1601	0.139132	-401.042072	-401.032283	-401.031339	-401.077598	32.615	
C	 0.3030748063	 1.2406531607	 0.1647850242	-0.346399
N	 0.0867688399	-0.1772599799	-0.0861410916	-0.098278
C	 0.286477366	-1.048179471	 1.0618806353	-0.335353
C	-0.2739306998	-0.5639501329	-1.339127341	 0.339738
O	-0.3878467635	 0.2068919423	-2.2838771898	-0.381758
C	-0.6197910068	-2.0472934418	-1.611755625	 0.291543
C	-0.2589039503	-2.5149985688	-3.0009598325	-0.468585
O	-1.2133345137	-2.7320428607	-0.8105014126	-0.29859
H	 1.3243891465	 1.4116669949	 0.5254181267	 0.125396
H	 0.1445838609	 1.7867354057	-0.763177984	 0.171485
H	-0.3956307444	 1.6025655088	 0.9290435	 0.12904
H	-0.4777240545	-0.860482986	 1.8264604147	 0.132078
H	 0.2304699601	-2.0939105568	 0.7782495371	 0.166118
H	 1.2681054167	-0.8423873074	 1.5059584815	 0.121158
H	-0.7022006962	-1.8433767673	-3.7396838597	 0.172996
H	 0.8266463646	-2.4577746681	-3.142883808	 0.143091
H	-0.6018171017	-3.5400830318	-3.1430320953	 0.136317
