18
gdb 58071	1.78071	1.69545	1.12299	4.8722	77.87	-0.2557	0.0045	0.2602	1158.4727	0.14574	-398.087653	-398.077389	-398.076445	-398.122089	38.117	
C	-0.1443035162	 1.5255551047	 0.0255624936	-0.415017
C	 0.0333359218	 0.0100825368	-0.0006435046	 0.021837
N	 0.8547502473	-0.3702766906	-1.1480269297	-0.530081
C	 0.7859061436	-0.5116793526	 1.2932400281	-0.102183
N	 2.1640546508	-0.0204864259	 1.4103445531	-0.523094
C	 0.0203227291	-0.1774886469	 2.4980941996	 0.344278
C	-0.6155465014	 0.1209950219	 3.4715529262	-0.42521
C	 0.8402462013	-1.9930415292	 1.1701034022	 0.323617
N	 0.8582775189	-3.1360919233	 1.0035204348	-0.352756
H	 0.8254842405	 2.0314535144	 0.0077497391	 0.121303
H	-0.7087884543	 1.8490995317	-0.8547890154	 0.120354
H	-0.6941944341	 1.8412366854	 0.9143480879	 0.139951
H	-0.9598803075	-0.4645764394	 0.0054884985	 0.088669
H	 0.773072504	-1.3641164345	-1.3399223946	 0.252196
H	 0.5534895123	 0.1257554798	-1.9791386896	 0.235561
H	 2.5448647829	 0.0147924897	 0.465483928	 0.250944
H	 2.1476530167	 0.9237194737	 1.7813360288	 0.239946
H	-1.1722741756	 0.3709779244	 4.3414376939	 0.209685
