20
gdb 92936	2.19241	1.51298	1.22712	4.2348	83.98	-0.2619	-0.0001	0.2618	1135.5572	0.171055	-366.048815	-366.039811	-366.038867	-366.082073	34.521	
C	-0.7660328435	 1.125324476	 0.0035729604	-0.421397
C	 0.148572946	-0.0900790963	-0.1172027833	 0.003934
C	 1.3418204015	 0.0715200421	-1.0909667591	-0.284759
C	 2.3673941605	-0.8856361274	-0.5387210533	-0.080015
C	 2.0744830157	-1.2747949141	 0.6989007504	-0.083799
C	 0.8112862335	-0.5976077138	 1.220990589	 0.077357
C	 1.1851011085	 0.5307360086	 2.2133294996	-0.424872
C	-0.0776491744	-1.5461021298	 1.9045684645	 0.25372
N	-0.7836832205	-2.2854630719	 2.4450190357	-0.351282
H	-0.2243278055	 2.0155277213	 0.3381975182	 0.119582
H	-1.2120583149	 1.3581864425	-0.9686482717	 0.121061
H	-1.585343045	 0.9404421332	 0.7058463289	 0.131495
H	-0.4470677017	-0.9316513229	-0.4869820483	 0.103354
H	 1.0545096308	-0.1515184591	-2.1242884528	 0.113393
H	 1.7287911026	 1.1012181606	-1.0949929168	 0.109828
H	 3.2532131958	-1.1841195362	-1.0881032822	 0.105425
H	 2.6631565704	-1.9337703536	 1.3258919508	 0.112588
H	 1.8141290787	 1.2720938041	 1.7135562182	 0.126484
H	 0.2949326067	 1.0278540616	 2.6069467965	 0.135365
H	 1.746539965	 0.1219080949	 3.0577232054	 0.132538
