18
gdb 111352	2.52424	1.41776	1.07325	0.6129	71.26	-0.2478	0.0562	0.304	1143.6855	0.147122	-438.999024	-438.990663	-438.989719	-439.032228	31.579	
O	 0.0322114975	 1.4951523752	-0.0927906678	-0.421357
C	 0.0729226223	 0.0823724402	 0.0556978493	-0.084876
C	-1.3189212347	-0.5346479391	 0.0818105127	-0.148052
C	-2.0880823625	-0.5784634526	-1.2619190002	 0.001545
O	-1.3301399606	-1.3992880355	-2.1596386786	-0.246486
C	-2.1991188333	-2.0452524528	-1.214354938	-0.052209
C	-1.4526038302	-2.0848760877	 0.1068406197	 0.335697
C	-0.5572480501	-3.1172558672	 0.6665457049	-0.30444
N	-1.90729464	-2.8912871048	 1.2307352198	-0.373373
H	-0.2334895073	 1.6849490404	-0.9980067576	 0.287708
H	 0.6642830407	-0.3941529114	-0.7373239679	 0.110466
H	 0.5831608687	-0.1035202628	 1.0074380705	 0.104939
H	-1.9270701916	-0.0732859439	 0.8680909634	 0.088379
H	-2.7516253052	 0.1605196547	-1.6953664757	 0.108885
H	-2.9551516764	-2.7214230667	-1.5947575518	 0.115605
H	-0.4268832873	-4.0666478587	 0.1548275521	 0.125355
H	 0.3065855038	-2.7887591552	 1.2390821307	 0.117782
H	-1.8428365639	-2.3616863722	 2.0971713043	 0.234432
