19
gdb 8675	2.63638	1.59265	1.29351	3.1774	71.18	-0.2825	0.0311	0.3136	1047.1858	0.163819	-365.084362	-365.074772	-365.073828	-365.118186	34.656	
C	-0.0289273396	 1.559144515	-0.1028206044	-0.403944
C	 0.0081959188	 0.0341713051	 0.0255100469	-0.200018
C	 0.7118594872	-0.5069859046	 1.2966618443	 0.068379
C	 0.0296959038	-0.0353876192	 2.5978134346	-0.411889
C	 0.718633701	-2.0634285565	 1.2472182059	-0.07805
O	 1.3921589632	-2.6564229033	 2.333537974	-0.418822
C	 2.1213355679	-0.0811380276	 1.3039569142	 0.26756
N	 3.2427030693	 0.2030610283	 1.313692264	-0.355465
H	 0.9805000835	 1.981794759	-0.0881086162	 0.1424
H	-0.4983695097	 1.8470577038	-1.0478218596	 0.122777
H	-0.602196144	 2.0230778264	 0.7048551117	 0.124509
H	-1.0135263856	-0.365120495	 0.0287415608	 0.106173
H	 0.5073988373	-0.3914340892	-0.8528540957	 0.113498
H	-1.0377826596	-0.2746543422	 2.5533319341	 0.12042
H	 0.4650677006	-0.5541371184	 3.4537203206	 0.148522
H	 0.1377974572	 1.0406296099	 2.7466837072	 0.133458
H	-0.3192089164	-2.4079285224	 1.3033404811	 0.117617
H	 1.1330593308	-2.3908479947	 0.2826346829	 0.10404
H	 2.3305720143	-2.4480302242	 2.2538213334	 0.298835
