21
gdb 39093	3.29154	1.64892	1.40873	1.5038	80.97	-0.2423	0.0855	0.3278	999.7978	0.186591	-387.079708	-387.07271	-387.071766	-387.111071	29.222	
C	-0.0767467184	 1.5438190844	 0.0605632457	-0.27217
C	 1.4597772729	 1.3808528076	-0.0472258954	-0.070153
C	 1.7795691694	 0.6701543695	 1.2949909444	-0.213579
C	 0.6007061195	-0.3804796619	 1.3458267267	-0.316744
C	-0.0423639637	-0.0268540556	 0.0060521958	 0.367769
C	-1.0616315081	-0.78120405	-0.8162465083	-0.383821
C	-0.6779573604	-0.3311401274	-2.2595879813	-0.071363
O	 0.6149548401	 0.306682725	-2.2109899529	-0.297024
C	 1.1784629872	 0.1347575284	-0.9298208144	 0.143457
H	-0.4793209373	 2.0045121837	 0.9673135986	 0.08277
H	-0.5238381522	 1.9930982855	-0.8248876	 0.110618
H	 2.1231119637	 2.1905249382	-0.3517816232	 0.061909
H	 2.7598371555	 0.1839164238	 1.2869820305	 0.099048
H	 1.7589804893	 1.3670491277	 2.1369868073	 0.099753
H	 0.9640174497	-1.4123178741	 1.3788766036	 0.09613
H	-0.0618176347	-0.2277678651	 2.2024281487	 0.097695
H	-0.9330837149	-1.8629618847	-0.6972994415	 0.103733
H	-2.102053505	-0.5402550702	-0.5806576176	 0.105035
H	-0.6396534494	-1.1801079015	-2.953515512	 0.099961
H	-1.3924290394	 0.3967145255	-2.6607637143	 0.105121
H	 1.9505260062	-0.6485412588	-0.9421279905	 0.051855
