18
gdb 11613	5.54123	0.81581	0.75931	1.9015	79.36	-0.2376	0.0374	0.275	1528.5139	0.152241	-347.762947	-347.753756	-347.752812	-347.797985	32.717	
C	-0.0040005958	 1.5845732307	 0.2145918508	-0.381235
C	-0.0125680948	 0.0585474097	 0.03907802	-0.015874
O	 0.7490496864	-0.5862685187	 1.0611766743	-0.416408
C	-1.3790241158	-0.4650439126	-0.0383137076	 0.076568
C	-2.5093563864	-0.8874733788	-0.0533091448	 0.03615
C	-3.8486460217	-1.397550794	-0.0818959437	-0.158081
C	-4.2894992861	-2.3260192561	-1.2043193629	-0.250211
C	-4.1080084816	-2.8745501922	 0.1784243968	-0.251237
H	 1.0287586805	 1.9372214508	 0.2785576256	 0.122937
H	-0.5005088684	 2.0769791944	-0.6266564483	 0.122936
H	-0.5299159465	 1.8662314566	 1.1325658752	 0.114996
H	 0.518579413	-0.188547777	-0.8885970411	 0.113666
H	 0.2208003268	-0.5601739772	 1.8666744008	 0.280105
H	-4.6089442636	-0.7156639061	 0.2881551758	 0.1092
H	-5.2965489014	-2.1972428909	-1.5845471639	 0.119111
H	-3.5486500842	-2.5759933483	-1.9540394401	 0.128718
H	-3.2430209524	-3.4977366171	 0.3705991024	 0.129789
H	-4.989013568	-3.1271604433	 0.7575742108	 0.11887
