17
gdb 44675	3.23853	1.53247	1.16306	4.1544	76.01	-0.2306	-0.0004	0.2302	1047.2175	0.137623	-417.990394	-417.982766	-417.981822	-418.022777	29.203	
N	 0.0330859632	 1.1209239741	 0.518216311	-0.544902
C	 0.0385081882	-0.0516304302	 0.0499422257	 0.384695
N	 0.9525436431	-0.8946751052	-0.5697440127	-0.353682
C	 0.0443222527	-2.0565375253	-0.6306697001	-0.024123
C	 0.3443816406	-3.2638158458	 0.2011260189	-0.086328
C	-0.5227859244	-3.673149649	 1.1235912091	-0.066853
C	-1.7436410917	-2.8553033156	 1.4545380175	-0.121516
O	-1.5344804527	-1.468684378	 1.2466249673	-0.253387
C	-1.0620167753	-1.1218861126	-0.0303618411	 0.014222
H	 0.9559698231	 1.5557694506	 0.458526733	 0.206425
H	 1.9600593687	-0.8878133134	-0.5046088149	 0.238491
H	-0.1496064044	-2.3590802438	-1.6681969763	 0.09281
H	 1.2485400531	-3.8257390365	-0.0197929682	 0.095261
H	-0.3687543849	-4.5943372078	 1.6783605511	 0.101545
H	-2.61887204	-3.214428193	 0.8838470647	 0.103664
H	-1.9940309775	-2.9546261343	 2.5152984552	 0.125046
H	-1.889461932	-0.8979715542	-0.7158608802	 0.088634
