18
gdb 12369	2.93783	2.15107	1.46945	1.8073	69.27	-0.2424	0.0095	0.2519	896.7856	0.154214	-384.946158	-384.938373	-384.937429	-384.977914	29.861	
C	-0.0332456846	 1.5306635644	-0.029746931	-0.399078
C	 0.0438638581	 0.014547674	 0.0293503252	 0.094424
O	 0.777497069	-0.4281550141	-1.1158393093	-0.270552
C	 0.682998012	-1.8265138946	-1.3024998883	-0.126881
C	 0.9436385488	-2.6023734518	-0.0411576713	-0.062056
C	 0.972438356	-2.0086447785	 1.1503426499	-0.103073
C	 0.7414626253	-0.5221019713	 1.2913228205	 0.095151
O	 1.9677788164	 0.1578033737	 1.5574852662	-0.432792
H	 0.9659544996	 1.9652131346	 0.0396524755	 0.130451
H	-0.4972601691	 1.8472641229	-0.967176309	 0.118116
H	-0.6292757626	 1.9131601653	 0.8044628106	 0.11473
H	-0.9735765256	-0.4118422055	-0.0066200226	 0.06464
H	-0.3104876274	-2.0949537235	-1.7097317401	 0.100299
H	 1.4185166933	-2.0868327434	-2.0728891905	 0.11781
H	 1.1068180379	-3.67200109	-0.1480831957	 0.096807
H	 1.202189932	-2.5665298497	 2.0534130601	 0.096541
H	 0.1091535923	-0.3179433487	 2.1634945006	 0.085628
H	 2.5338788684	-0.0131945237	 0.7947348391	 0.279834
