18
gdb 7519	5.00796	1.17871	1.10383	2.0368	74.03	-0.2541	0.0498	0.3039	1132.29	0.150067	-347.761991	-347.752725	-347.751781	-347.795742	33.68	
C	 0.0696254958	 1.4124478864	-0.3537281213	-0.425992
C	 0.0676258374	-0.027061869	 0.0931029645	 0.028983
O	 1.3293304595	-0.7065949925	 0.1654878684	-0.289548
C	 0.5876693607	-0.5301209133	 1.3794354175	 0.383934
C	 1.2122818406	 0.3706454941	 2.4205957563	-0.464817
C	-0.0281380863	-1.8231477971	 1.9246725233	-0.415872
C	 0.9162700431	-2.6536174485	 2.6647385875	 0.313949
C	 1.7005169155	-3.3277961633	 3.2769217877	-0.448371
H	 0.853001009	 1.9944325797	 0.1342611508	 0.128647
H	 0.2333689432	 1.4666927809	-1.4351751606	 0.132486
H	-0.8985693581	 1.8782559923	-0.1396026493	 0.12186
H	-0.7165015107	-0.6286163285	-0.3749813614	 0.080905
H	 1.6910356806	 1.2373699961	 1.9642227568	 0.127718
H	 0.4560537903	 0.7204053391	 3.1322113799	 0.118221
H	 1.9702066984	-0.1827681599	 2.9824508771	 0.144298
H	-0.8751296874	-1.5653186594	 2.5750694658	 0.130145
H	-0.4370372624	-2.39429775	 1.0839481001	 0.136575
H	 2.3916089007	-3.9319956772	 3.8104070971	 0.196878
