21
gdb 69475	4.14684	0.85501	0.80132	2.966	84.07	-0.2435	-0.0185	0.2251	1494.1514	0.181003	-387.077311	-387.068007	-387.067063	-387.112233	34.492	
C	-0.1188299012	 1.5422317598	-0.0552848906	-0.497184
C	-0.0081194702	 0.0452485615	-0.0248178169	 0.376394
C	-0.8919071578	-0.8349863618	 0.812454671	-0.325889
C	 0.5986870844	-0.8849811339	 1.0356330871	-0.121058
C	 1.2970462108	-1.7099356884	-0.0524356107	 0.014216
C	 1.0586918789	-3.2266162626	-0.0913565281	-0.292958
C	 1.7707178019	-3.8621556172	-1.2618807743	 0.164183
O	 1.2325004038	-4.4384312228	-2.1723183076	-0.241111
C	 0.6225529237	-0.8048393642	-1.1415655737	-0.311683
H	 0.8331398683	 2.0095480159	-0.3330212611	 0.115107
H	-0.8714896901	 1.8694820561	-0.7832325656	 0.121647
H	-0.4134915989	 1.9379033701	 0.9223602137	 0.117129
H	-1.44706884	-0.3232756792	 1.5929413847	 0.109269
H	-1.4267302148	-1.6743075403	 0.3734088831	 0.106111
H	 1.0328540579	-0.6350704118	 1.9976343861	 0.081092
H	 2.3756286619	-1.5199602881	-0.0336381981	 0.077831
H	 1.4601252961	-3.6704278586	 0.8311713405	 0.113475
H	-0.0054199251	-3.4678504203	-0.157896627	 0.117961
H	 2.8809039545	-3.7424899618	-1.2407481771	 0.067063
H	-0.0816505368	-1.3016968539	-1.8176265482	 0.105662
H	 1.3540738728	-0.2600775285	-1.7435672473	 0.102743
