17
gdb 130028	3.07286	1.50135	1.07102	3.8916	73.79	-0.2186	0.0312	0.2498	1101.5086	0.138775	-414.19933	-414.191422	-414.190478	-414.232361	29.798	
N	 0.1502682617	 1.2314230288	-0.4259071599	-0.599007
C	 0.0356868089	-0.111295493	-0.1384710114	 0.415006
N	-1.0910647602	-0.7983333151	-0.067766454	-0.343593
C	-0.6518285194	-2.0289482782	 0.3273251484	 0.032424
N	 0.6465462802	-2.1535055383	 0.5004603094	-0.261153
N	 1.0969726298	-0.8894357563	 0.1876720434	-0.016674
C	 2.467785835	-0.5057595484	 0.2966844212	 0.024256
C	 3.5110908641	-1.4849890554	-0.1440450586	-0.261297
C	 3.259041061	-0.2528233576	-0.973045434	-0.283327
H	 0.9999078688	 1.4945416119	-0.9052951795	 0.25977
H	-0.6803913505	 1.5958872623	-0.8702795737	 0.267979
H	-1.3219402396	-2.8615106125	 0.485273211	 0.119589
H	 2.6863204481	 0.1199544533	 1.1576780765	 0.117285
H	 4.4201650209	-1.5406372449	 0.4424923637	 0.126832
H	 3.148272538	-2.4333050067	-0.5188460439	 0.150852
H	 2.7407381025	-0.3845785954	-1.9164162442	 0.127879
H	 3.9917950207	 0.5462606954	-0.9604548844	 0.123177
