15
gdb 127203	2.35635	2.02979	1.09792	1.726	72.9	-0.2497	-0.0696	0.1801	1029.3809	0.113488	-450.108643	-450.100615	-450.099671	-450.141944	29.183	
C	-0.5714100851	 1.3231495548	 0.0163748262	-0.336322
N	-0.0802262676	-0.056335554	 0.0335973445	-0.181849
C	 0.1505110465	-0.6553040794	-1.1907290724	 0.502639
N	-0.0514603724	-0.0450710581	-2.2796188139	-0.557921
O	 0.6154586916	-1.9599798854	-1.1972276481	-0.280703
N	 0.8566941643	-2.6833790847	-0.0355739552	-0.055172
C	 0.6285977084	-2.087091187	 1.0686453303	-0.017338
C	 0.1369381902	-0.7135988002	 1.2334729278	 0.362222
N	-0.0818405124	-0.1441568531	 2.3569625081	-0.532342
H	 0.1470974654	 1.9621527114	-0.5011571527	 0.152511
H	-1.5186668714	 1.3686447616	-0.5249355808	 0.152518
H	-0.698869853	 1.639528621	 1.0485286573	 0.173853
H	 0.1732288661	-0.6442890714	-3.0707473068	 0.239027
H	 0.8257123274	-2.6756383234	 1.9596057304	 0.149226
H	 0.132280672	-0.775767882	 3.1257982353	 0.229651
