18
gdb 92320	2.18046	2.01505	1.29043	1.3912	70.59	-0.2196	-0.0274	0.1922	1002.6212	0.148272	-439.081257	-439.073286	-439.072342	-439.114212	30.353	
O	 0.2882500132	 1.1564666529	-0.6980132498	-0.425362
C	 0.1152203247	-0.0940173833	-0.0799238826	 0.115517
C	 0.136865258	 0.002931741	 1.4606100409	-0.191462
N	-1.1715497007	-0.7095130152	 1.5440909639	-0.098853
C	-2.2824939164	 0.0185036438	 2.1886459609	-0.18497
C	-2.801147635	 1.0526104013	 1.1678805945	-0.342201
C	-2.3930877531	 0.4724908688	-0.1887049616	 0.418403
O	-2.7826940672	 0.8107603615	-1.2772351051	-0.328471
C	-1.3491786178	-0.6135113893	 0.0755428164	-0.162972
H	-0.0586942856	 1.1039510448	-1.5963356882	 0.297434
H	 0.792604592	-0.8510628217	-0.4934224981	 0.082859
H	 0.94745316	-0.5169077761	 1.9788754298	 0.110693
H	 0.1121041219	 1.049284554	 1.7893629934	 0.109376
H	-3.0735513963	-0.697777064	 2.4399690839	 0.112408
H	-1.9384947029	 0.4662356238	 3.1244904864	 0.114346
H	-3.8752952675	 1.2450104542	 1.2083893993	 0.131237
H	-2.2915522567	 2.0193692328	 1.2664499741	 0.144548
H	-1.6107871806	-1.5417431693	-0.443160628	 0.09747
