25
gdb 117663	2.74135	0.94881	0.85798	2.1631	85.87	-0.2541	0.0778	0.3319	1537.2609	0.225464	-426.626678	-426.615028	-426.614083	-426.663019	43.052	
C	-0.2732766994	 1.3706959012	-0.1337160167	-0.229238
O	-0.1622752289	-0.0328847184	-0.1076015619	-0.253266
C	 0.7886353993	-0.5420860298	-1.0280917189	-0.105271
C	 0.7133815575	-2.0784407758	-0.9594175083	 0.362714
C	 1.2098604027	-2.5669436297	 0.4116012815	-0.432648
O	-0.6579111727	-2.4460890233	-1.1292060433	-0.483809
C	 1.4602363018	-2.7137944658	-2.1599783461	 0.030291
C	 2.9403211818	-2.3164417179	-2.2600853729	-0.409509
C	 1.3061268167	-4.2419078858	-2.1846181059	-0.408624
H	 0.6776696253	 1.8566718055	 0.1329414627	 0.108957
H	-0.5800112433	 1.7357158085	-1.1259939614	 0.109709
H	-1.0324928875	 1.6536380934	 0.5994362555	 0.129397
H	 0.5439934298	-0.2020223154	-2.0472561837	 0.088623
H	 1.7929859592	-0.1728023994	-0.7731936069	 0.090568
H	 0.6756060298	-2.0362388356	 1.204165897	 0.121852
H	 1.0202564312	-3.6360357603	 0.5261424993	 0.122197
H	 2.2804966254	-2.3838572464	 0.5488048379	 0.106595
H	-1.1631681474	-1.8272339492	-0.587161687	 0.282407
H	 0.9439120683	-2.3227308405	-3.0467771202	 0.076722
H	 3.0830552192	-1.2349529203	-2.3458436118	 0.111313
H	 3.5130524203	-2.6638356203	-1.39335349	 0.117188
H	 3.3887603028	-2.7740181462	-3.1479232585	 0.113591
H	 0.259151252	-4.5286028298	-2.0693394646	 0.137553
H	 1.6722601498	-4.6424181308	-3.1356096244	 0.103738
H	 1.8846003062	-4.7192064077	-1.3862451615	 0.10895
