12
gdb 18926	3.66751	2.72851	2.09711	2.699	52.56	-0.2336	-0.0401	0.1935	642.6294	0.084615	-418.411934	-418.406694	-418.40575	-418.441226	20.863	
O	 0.0062074428	 0.0838674436	 0.0511942734	-0.314777
C	-0.0127571745	 1.2754604765	 0.0163433792	 0.51162
C	-1.1638866015	 2.3068543721	-0.0254186496	-0.09708
O	-0.90121842	 2.9238866927	 1.2801635466	-0.297778
C	 0.2581058956	 3.5055210188	 0.6559863694	 0.069857
C	-0.3538072128	 3.4550100911	-0.7509798119	 0.069845
O	 0.8240266804	 2.8754041273	-1.3414932184	-0.297787
C	 1.1049554998	 2.3436284931	-0.0026312644	-0.097093
H	-2.1931951721	 2.0091127234	-0.1996877068	 0.112354
H	 0.7204893146	 4.3351606274	 1.1859363493	 0.114244
H	-0.8418541555	 4.2374538706	-1.3276421628	 0.114243
H	 2.1430446033	 2.0893499534	 0.187655886	 0.112352
