20
gdb 112886	2.25869	1.37519	1.02406	3.2125	76.44	-0.2348	0.0365	0.2713	1243.9782	0.171253	-440.334725	-440.325354	-440.32441	-440.369621	34.153	
C	-0.2753605891	 1.5856497774	 0.411258316	-0.377679
C	-0.1912305209	 0.1667242354	-0.1583794358	-0.157136
N	-1.4393199228	-0.5667214503	-0.0677871311	-0.06972
C	-1.9590819442	-1.1019498715	 1.17725631	-0.171277
C	-3.3965887391	-1.5303871004	 0.8270768872	 0.112528
O	-4.2343201754	-0.431940635	 1.160915078	-0.436957
C	-3.3367930467	-1.7766331942	-0.6866650686	-0.370562
C	-2.1691035036	-0.9155084854	-1.1733858518	 0.418492
O	-1.9099828126	-0.6163087955	-2.3211546013	-0.399695
H	 0.6889638852	 2.0916286914	 0.302036708	 0.118263
H	-1.0329372598	 2.1683482416	-0.1199961321	 0.136085
H	-0.5311263424	 1.5830766921	 1.4755314427	 0.118743
H	 0.0591338302	 0.1999838291	-1.2219870149	 0.143996
H	 0.5967331153	-0.400929031	 0.3557957693	 0.099379
H	-1.3575536437	-1.9527626267	 1.5302024616	 0.100521
H	-1.984250495	-0.3474628544	 1.9690893893	 0.128027
H	-3.6896058756	-2.4258819036	 1.3902960362	 0.072996
H	-5.1162040969	-0.6141260473	 0.8209079185	 0.285233
H	-3.1141589038	-2.8243542115	-0.9198579028	 0.127279
H	-4.2608380491	-1.5125277702	-1.2065103184	 0.121483
