21
gdb 120985	3.64894	0.96798	0.89554	2.1879	79.05	-0.2373	0.0741	0.3114	1402.8747	0.182098	-424.183137	-424.174219	-424.173275	-424.217638	32.972	
C	-0.2870702098	 1.4522814235	-0.1283253455	-0.386115
C	 0.1775213548	 0.0060787029	-0.1299110335	-0.037374
O	 0.2474866473	-0.445865278	 1.2107995232	-0.250593
C	 0.6556270574	-1.7797561394	 1.3396390234	 0.138654
C	 2.1715469646	-2.1289706233	 1.1283703193	-0.276277
C	 2.2214662949	-2.6725726523	 2.5771862065	 0.115459
O	 2.6854353146	-1.6887050055	 3.5188689774	-0.291649
C	 1.3308767664	-1.2465968127	 3.790608062	-0.078918
C	 0.7354979911	-2.2660784272	 2.8038939929	-0.12688
H	 0.4150379408	 2.0802105747	 0.4275203553	 0.128257
H	-0.3563806891	 1.831524754	-1.1522326449	 0.115318
H	-1.2705313953	 1.5390912973	 0.3422755694	 0.1266
H	-0.5219706967	-0.6267404535	-0.7020052576	 0.085941
H	 1.1627668746	-0.0820375595	-0.6147569964	 0.09344
H	 0.0104647081	-2.4333979442	 0.7325089001	 0.064859
H	 2.3593450798	-2.8663084185	 0.3436720993	 0.097827
H	 2.826269498	-1.2660588239	 0.987518095	 0.114916
H	 2.6483096148	-3.662414972	 2.7556661052	 0.074316
H	 1.0630696858	-1.4215678727	 4.8393856068	 0.098548
H	 1.1731593019	-0.193006483	 3.5407817944	 0.118781
H	-0.0534545544	-2.9224795167	 3.167540658	 0.074889
