15
gdb 45573	3.42941	1.51873	1.29821	4.9767	60.01	-0.2892	0.0392	0.3284	962.2702	0.11527	-494.967285	-494.960623	-494.959679	-494.998971	25.147	
O	 0.0900336663	-0.0185546982	-0.0424372218	-0.365107
C	 0.0392664669	 1.1674499012	-0.009416024	 0.493295
O	-1.1099376191	 1.8877792988	 0.0934256586	-0.256133
C	-0.8344736402	 3.2896710474	 0.0987985475	 0.033314
C	-1.1821521185	 3.9316434462	 1.4447259747	-0.243688
C	 0.1286461264	 3.7836709551	 2.2263260044	-0.109825
O	 1.1499374683	 3.9431475625	 1.2294204257	-0.239007
C	 0.715894021	 3.3671822915	 0.0457765733	 0.196271
O	 1.1123639181	 1.996905462	-0.0738278868	-0.255631
H	-1.3380937512	 3.7436830593	-0.7558641798	 0.112796
H	-1.4176438881	 4.9892533843	 1.295736949	 0.124005
H	-2.0377445224	 3.4423079614	 1.912646302	 0.136543
H	 0.2875946382	 4.5549760424	 2.9812395822	 0.128631
H	 0.2101946144	 2.7997841066	 2.7059139388	 0.127385
H	 1.16291959	 3.9104150296	-0.787195354	 0.117149
