17
gdb 74881	2.85695	1.71678	1.23172	3.2445	73.74	-0.2487	-0.0126	0.2361	1019.737	0.136255	-421.797401	-421.790049	-421.789105	-421.829045	28.888	
C	-0.0285627002	 1.5078113665	 0.0744905003	-0.490082
C	 0.0050196215	 0.0071499341	-0.0068022649	 0.335203
C	-0.0041766659	-0.6587161792	-1.1720042358	-0.181534
C	 0.0112853783	-2.1326828442	-1.2690203503	-0.004085
O	 1.1877380379	-2.8392127805	-0.8190039476	-0.234567
C	 0.0185384289	-2.9361560186	-0.0245656256	 0.005279
C	 0.0255000404	-2.2092139534	 1.2921667907	 0.018678
O	 1.1989281111	-1.4864878679	 1.6257734753	-0.23124
C	 0.0222411998	-0.7280371653	 1.2858539779	-0.074714
H	 0.8757365491	 1.8942998926	 0.5607099665	 0.141867
H	-0.1050948425	 1.962578192	-0.916194706	 0.12625
H	-0.8790108659	 1.851880918	 0.6766498122	 0.12815
H	-0.0414537585	-0.1035504649	-2.1057506237	 0.093643
H	-0.4248666076	-2.5635204295	-2.1689156907	 0.093243
H	-0.4644436524	-3.9130142082	-0.021603075	 0.092298
H	-0.4503858086	-2.7296133653	 2.1229986238	 0.092278
H	-0.4076822155	-0.2016460962	 2.1381713929	 0.089333
