19
gdb 92272	2.24695	1.688	1.48222	2.2713	76.23	-0.2444	0.0034	0.2478	1020.2214	0.15914	-423.025371	-423.017196	-423.016251	-423.057677	32.224	
C	-0.8096318576	 1.3466850443	-0.0239981497	-0.414736
C	-0.0159670872	 0.0608366231	-0.0870499404	 0.137515
O	 1.1884145317	 0.177153568	-0.8866913689	-0.319493
C	 1.9819010549	-0.535562588	 0.0886536902	 0.071262
C	 3.1563331314	 0.2951197382	 0.6182083424	-0.287835
C	 2.5636702774	 0.9852070924	 1.8279877467	-0.057409
C	 1.3119716566	 0.603033262	 2.0894766246	-0.171597
C	 0.8147288098	-0.4365863498	 1.1210051277	 0.29203
O	 0.2559540392	-1.5797857379	 1.7200781664	-0.480217
H	-0.2013431277	 2.1614828011	 0.3776963324	 0.121482
H	-1.146774044	 1.6284314306	-1.0264758295	 0.126707
H	-1.6948458121	 1.2169668781	 0.6078378613	 0.119747
H	-0.641685173	-0.7653248767	-0.4546361832	 0.079484
H	 2.2454865658	-1.5409858149	-0.2567573594	 0.074035
H	 4.0308155127	-0.3135826645	 0.8834932685	 0.103914
H	 3.4831733766	 1.0067039934	-0.1488108991	 0.12763
H	 3.118031385	 1.7189978896	 2.4042527921	 0.101086
H	 0.6942573005	 0.9717976052	 2.9014407087	 0.09902
H	 0.78481728	-1.7988578642	 2.494907759	 0.277377
