18
gdb 120374	2.7278	1.30297	0.97106	2.061	75.29	-0.2171	0.0018	0.2189	1219.9127	0.148958	-435.284117	-435.275307	-435.274363	-435.318692	31.772	
O	-0.1635740663	 1.5043495618	 0.1838371644	-0.416877
C	 0.0605339369	 0.1121206771	 0.0121888311	-0.07657
C	-1.3023192135	-0.5622900659	-0.0850231062	-0.170324
N	-2.0384742947	-0.1735080293	-1.2704204411	-0.064001
C	-2.6948205456	 1.0302974615	-1.4963123475	 0.070935
N	-3.2636617822	 1.1671756915	-2.6326735846	-0.270796
C	-2.9941120566	-0.0841841994	-3.3534634759	-0.269212
C	-2.1567298988	-0.9558975195	-2.4154685839	 0.34107
N	-1.633012213	-2.1118715692	-2.5199657194	-0.558343
H	 0.6655035463	 1.9700900891	 0.0441808409	 0.294003
H	 0.6350452682	-0.0970187948	-0.9008810882	 0.111035
H	 0.6091800207	-0.3150081076	 0.8661471091	 0.094099
H	-1.1772658351	-1.6467634188	-0.1314636591	 0.150824
H	-1.8890546241	-0.3119426044	 0.8058752658	 0.12198
H	-2.6871042306	 1.7809015118	-0.7151995857	 0.147139
H	-3.9330491587	-0.5821233955	-3.6229036189	 0.138338
H	-2.4591996609	 0.1178397757	-4.2887911022	 0.137143
H	-1.842636722	-2.5216712041	-3.4284080185	 0.219556
