23
gdb 79986	2.06709	1.62196	1.48555	0.2924	90.1	-0.2198	0.0179	0.2377	1114.9252	0.205193	-351.13429	-351.125157	-351.124213	-351.167094	36.62	
C	-0.2492532987	 1.5180763032	 1.1539614271	-0.434548
C	-0.090640014	 0.071624767	 0.7147166822	 0.020853
C	 0.9332175183	-0.3521024171	-0.3996262443	-0.107582
C	 2.2552315443	 0.1001754099	 0.229028929	-0.096786
C	 2.1410500875	-0.2996500436	 1.4988721933	-0.12739
C	 0.7559815003	-0.9660418851	 1.5543487894	 0.286221
C	 0.27149573	-1.5487293335	 2.863118663	-0.518442
C	 0.8481231501	-1.8074449116	 0.2087544404	 0.022997
C	-0.3081196154	-2.7186769318	-0.1870802681	-0.440445
H	 0.7132966257	 1.9860558949	 1.3740344555	 0.117746
H	-0.7438106662	 2.1067841569	 0.3728601953	 0.109295
H	-0.8738002264	 1.5831810694	 2.0524820176	 0.109183
H	-1.0820179042	-0.3396142297	 0.5009703877	 0.063494
H	 0.757240004	-0.1532456337	-1.45775369	 0.049743
H	 3.0687225716	 0.6069848486	-0.2708081889	 0.095022
H	 2.8342522748	-0.2095125001	 2.3243911787	 0.091479
H	 0.1713719752	-0.7712703217	 3.6293348108	 0.117571
H	-0.7057756019	-2.0299862503	 2.7511672661	 0.113946
H	 0.9705676291	-2.3007005242	 3.2472621855	 0.115274
H	 1.7871594842	-2.362134426	 0.1193742721	 0.061845
H	-1.2891988979	-2.2395591947	-0.1377769459	 0.117938
H	-0.1691973705	-3.0783559423	-1.2129423059	 0.115999
H	-0.3382870603	-3.6007626848	 0.4629907893	 0.116589
