15
gdb 71456	4.1469	1.40514	1.26354	3.4587	63.8	-0.2585	0.0064	0.2649	967.1005	0.113491	-457.763018	-457.756204	-457.75526	-457.794043	27.195	
O	-0.0044848953	 1.3756131201	-0.0375181061	-0.452675
C	 0.0664800515	 0.0003747751	-0.0442393513	 0.342871
C	 0.7894464877	-0.8510945247	-1.0836211695	-0.304616
C	-0.2228171684	-2.0125567839	-0.744153443	-0.203941
C	-1.1080211988	-0.9772594078	-0.0053191566	-0.164006
C	-0.2295463777	-0.829644921	 1.1951748273	 0.013624
O	 0.5104847865	-2.0097699757	 1.4657464029	-0.227476
C	 0.4247801273	-2.8300338248	 0.3638100641	 0.448016
O	 0.8702389433	-3.9375597099	 0.3471680031	-0.337932
H	 0.74392032	 1.7228938596	 0.4614617894	 0.294254
H	 0.5957596655	-0.4712829035	-2.088429077	 0.128172
H	 1.8589399688	-1.0504655205	-0.959438828	 0.115849
H	-0.6101401934	-2.6042836468	-1.5671742607	 0.109129
H	-2.1801200253	-0.8447070716	-0.0490934501	 0.114101
H	-0.5666697518	-0.3229372745	 2.0893442355	 0.12463
