20
gdb 73984	3.01352	1.53589	1.37642	1.0149	86.96	-0.1982	-0.0365	0.1617	1055.2971	0.169901	-365.903255	-365.894918	-365.893974	-365.935612	32.754	
C	-0.1863293323	 1.3908641227	-0.3401305663	-0.472447
C	-0.0977089376	 0.0378293226	 0.2860003924	 0.253968
C	-1.128473728	-0.8286021315	 0.4386893621	-0.124568
C	-1.7027204186	-1.3163957518	-0.9100345612	-0.276069
C	-0.6158065732	-2.4466100626	-0.7353545843	-0.094089
N	 0.6977077427	-2.1817091728	 0.0154768556	-0.158597
C	 1.183086496	-0.7942016741	 0.2257550866	-0.234109
C	-0.5637924832	-2.2469383321	 0.7295950812	 0.323027
C	-0.8393081129	-3.1422778089	 1.8965630551	-0.517521
H	 0.4062522846	 1.4530861008	-1.2629717244	 0.122787
H	-1.2227638019	 1.6608299	-0.5615110621	 0.129225
H	 0.2140948704	 2.1611040361	 0.3326470227	 0.133835
H	-2.6916632233	-1.7892718397	-0.8921798805	 0.108575
H	-1.6426111753	-0.6218991252	-1.7527915257	 0.102272
H	-0.6097439431	-3.3842780159	-1.283272977	 0.099711
H	 1.7920731397	-0.4400450249	-0.615236408	 0.11431
H	 1.8317887968	-0.8072446575	 1.1119593341	 0.114853
H	-0.42985888	-2.722409999	 2.8224597659	 0.122469
H	-1.916506202	-3.2755460873	 2.0427044596	 0.122603
H	-0.3844095788	-4.1239623889	 1.7374004342	 0.129766
