18
gdb 76069	2.05699	1.56923	1.14245	2.9444	79.66	-0.2452	0.0041	0.2493	1146.1318	0.144132	-401.922718	-401.912845	-401.9119	-401.957544	35.474	
C	 0.1146029304	 1.3854960304	 0.2936233272	-0.411004
C	-0.0731248997	-0.0865667174	 0.0201218215	 0.002301
C	 0.6064189766	-0.7807474671	-1.1572440255	-0.246493
C	 1.4661131455	-0.0451615182	-2.0434003651	 0.357298
C	 2.178774058	 0.5456030625	-2.8119132286	-0.451781
N	 0.9840118878	-1.0387234095	 0.2295864032	-0.096665
C	 2.201324653	-0.8148188331	 0.8757390684	 0.386162
C	 3.3820570375	-1.528547656	 0.2517657006	-0.483691
O	 2.2616978095	-0.1741020095	 1.9019608563	-0.342036
H	 1.056119888	 1.7533225878	-0.1188234124	 0.137328
H	-0.7064737724	 1.9520667192	-0.1564555528	 0.120439
H	 0.1220387579	 1.5684762458	 1.3705314887	 0.15248
H	-1.0591668984	-0.4762417676	 0.2722288894	 0.105927
H	 0.0748925356	-1.6040474409	-1.6315836452	 0.123479
H	 2.8040821792	 1.0757788634	-3.4875440566	 0.209088
H	 3.6355525055	-1.0678195769	-0.7083982463	 0.152687
H	 4.2347752869	-1.4581395037	 0.9267374133	 0.143735
H	 3.1407262491	-2.5778701092	 0.059120674	 0.140747
