21
gdb 76822	2.64413	1.47854	1.17214	1.4907	84.46	-0.2277	0.0162	0.2438	1137.3569	0.18371	-387.077143	-387.068706	-387.067761	-387.10985	33.424	
C	-0.1283388667	 1.5240123906	-0.1686754567	-0.406822
C	-0.0560122805	 0.0107996055	-0.0326040569	-0.061572
C	 1.1583883007	-0.6397632681	-0.8397423524	 0.048967
O	 1.7228883368	 0.0209344024	-1.9383500296	-0.42242
C	 1.8760476097	-0.6650732001	 0.485482425	 0.249888
C	 2.9549733096	-0.2109179793	 1.1168012429	-0.25163
C	 2.5954087765	 0.1169563738	 2.5636480042	-0.233695
C	 1.0365620948	 0.2700798042	 2.5285731625	-0.245571
C	 0.608164024	-0.5475325649	 1.2897979018	-0.050273
H	 0.8197648622	 2.0031382124	 0.1025738077	 0.1076
H	-0.3610003958	 1.8050062495	-1.2004993804	 0.125436
H	-0.9034987685	 1.9432687936	 0.4804350641	 0.118796
H	-1.0253553154	-0.4359624207	-0.2716180438	 0.069246
H	 0.8739844364	-1.6346757775	-1.1971510024	 0.099626
H	 2.1245493165	 0.833983463	-1.6131350189	 0.281733
H	 3.9345101436	-0.0245392939	 0.6909782596	 0.093919
H	 2.9050050316	-0.6817427429	 3.2524935909	 0.10625
H	 3.0924548922	 1.029096224	 2.9125028374	 0.099976
H	 0.5620136171	-0.0695348165	 3.4533676048	 0.094525
H	 0.7800335797	 1.327363765	 2.404000137	 0.103173
H	 0.1541329755	-1.50715364	 1.560712703	 0.072848
