15
gdb 13479	3.45505	1.87388	1.24703	1.4876	64.93	-0.2506	-0.0041	0.2466	925.854	0.120231	-396.018333	-396.010681	-396.009737	-396.050673	27.88	
N	-0.055487107	 1.3414398606	-0.3663806876	-0.558037
C	 0.0520426276	-0.0020808389	-0.0540670529	 0.431136
O	 1.1009499343	-0.5737645226	 0.1548266323	-0.373864
N	-1.1669491399	-0.6595548187	 0.0343431658	-0.141147
C	-1.3986532159	-2.0927389548	 0.2611720086	-0.166342
C	-2.9211115544	-1.7654896801	 0.3235367232	-0.321789
C	-2.5241866589	-0.300826154	 0.1741093743	 0.391468
N	-3.1867145809	 0.7720904349	 0.2194952542	-0.547107
H	 0.8356360989	 1.7652385395	-0.5795427413	 0.267587
H	-0.8090531881	 1.617478516	-0.9786243533	 0.258363
H	-1.0704848507	-2.722354756	-0.5688786282	 0.12736
H	-0.9589742318	-2.4555885192	 1.1928993112	 0.135425
H	-3.5106664459	-2.1543963957	-0.5083281156	 0.137645
H	-3.4211461003	-2.0004516236	 1.263793223	 0.140448
H	-2.5969161271	 1.6022217426	 0.1652452662	 0.218854
