18
gdb 39643	4.35226	1.03692	0.92138	2.8052	73.02	-0.2464	0.0185	0.2648	1282.4469	0.149346	-439.077051	-439.068848	-439.067903	-439.111687	28.68	
C	-0.020516913	 1.3708414803	-0.2761935866	-0.069843
O	 1.3241464351	 1.5947550168	 0.1787746922	-0.27099
C	 1.4660003296	 0.2220138656	 0.6081983374	-0.079105
C	 0.0640753561	-0.1389764058	 0.08136925	-0.156807
C	-0.9286028518	-0.6471157154	 1.0665101066	 0.413825
N	-0.7245510826	-0.9057714633	 2.2927396994	-0.311746
C	-2.0092399989	-1.3582687966	 2.8465457467	-0.18554
C	-2.9996325213	-1.2839952222	 1.6545987991	-0.112064
O	-2.1809367518	-0.8228775329	 0.5557802547	-0.263076
H	-0.7578492836	 1.9418735376	 0.3017016125	 0.107338
H	-0.1440616517	 1.5985256551	-1.341221103	 0.107026
H	 2.3042901218	-0.277274568	 0.1096986987	 0.101168
H	 1.5703259469	 0.1321230356	 1.6934342414	 0.132778
H	 0.056970432	-0.7835033231	-0.8004419747	 0.107172
H	-1.906534468	-2.3729677357	 3.2454408242	 0.118927
H	-2.3053605642	-0.7115816183	 3.6789735597	 0.120002
H	-3.4298391985	-2.2506961516	 1.3791126195	 0.120521
H	-3.8105068261	-0.5654004281	 1.8032941022	 0.120414
