15
gdb 31461	6.24158	0.89356	0.79104	8.3073	77.03	-0.2117	-0.0085	0.2032	1377.5097	0.114642	-413.040151	-413.031773	-413.030829	-413.073563	30.078	
C	 0.2499279862	 1.2849908616	 0.2295785422	-0.3458
N	-0.1959241175	-0.0397733855	-0.1652558034	-0.382329
C	 0.4752645675	-0.7441191347	-1.1349335207	 0.458913
N	 0.4834771098	-2.0514529701	-1.2485601568	-0.393453
C	 1.2191535677	-2.3029150571	-2.3975167055	 0.182618
C	 1.6600755307	-1.1367103632	-2.966331676	-0.175584
N	 1.1805500508	-0.1372181333	-2.1436328298	-0.298756
C	 1.4639501243	-3.6168562193	-2.8756811444	 0.209843
N	 1.6756724056	-4.6803322662	-3.2820474124	-0.347866
H	 1.3071375613	 1.3233951639	 0.5323830933	 0.127442
H	 0.0963795827	 2.0020338071	-0.5859250127	 0.129431
H	-0.3621177539	 1.624562604	 1.0667903379	 0.147538
H	-0.4885195716	-0.6468078975	 0.5861128081	 0.263597
H	 2.255882986	-0.9338939673	-3.8390421411	 0.151883
H	 1.2991573905	 0.8508626276	-2.2873750687	 0.272522
