18
gdb 87666	3.55709	1.12832	0.9693	4.0649	82.21	-0.2358	-0.05	0.1858	1238.9469	0.147862	-401.965643	-401.957451	-401.956507	-401.998591	31.363	
C	-0.0703317171	 1.5229133763	-0.1135750027	-0.398633
C	-0.0111480166	 0.0231414454	 0.0419389469	-0.052593
N	 1.295478183	-0.6176160707	-0.1389167135	-0.370929
C	 0.6656386156	-0.639224782	 1.2019071246	 0.309247
C	 1.3421455632	 0.0716772062	 2.3660825522	-0.420846
C	 1.1207365411	-0.8649805541	 3.5696082847	 0.371149
O	 1.4792161313	-0.6578526545	 4.7049056237	-0.327189
C	 0.3805708335	-2.0469360752	 3.0652826388	-0.207479
C	 0.1341120418	-1.9083087018	 1.7543287946	-0.115468
H	 0.8394548801	 1.990404789	 0.2697878043	 0.134641
H	-0.1668984021	 1.7928081154	-1.1704593964	 0.125991
H	-0.9314325401	 1.9373593016	 0.4213440139	 0.122327
H	-0.8776677503	-0.5066914709	-0.3548158069	 0.083973
H	 1.1990182761	-1.5248758471	-0.5907211666	 0.231207
H	 2.4119862615	 0.208026021	 2.1879095863	 0.146731
H	 0.9182900303	 1.0551774417	 2.5889496264	 0.134089
H	 0.0986049533	-2.8751195453	 3.7019900757	 0.119447
H	-0.3882116046	-2.6241853149	 1.125988784	 0.114335
