23
gdb 88429	2.42767	1.15079	1.09363	1.3602	85.83	-0.2376	0.081	0.3186	1301.7402	0.204041	-388.260462	-388.250386	-388.249442	-388.295083	38.689	
C	-1.8388969389	 0.3590137868	 1.717398345	-0.406454
C	-0.9237479952	-0.6205133266	 1.0163982286	 0.014541
C	-0.0157113371	-0.1651201368	-0.0987807257	-0.315717
C	 0.5808306285	-0.6190798928	 1.2145220264	-0.086764
C	 1.3073734359	 0.3162136876	 2.1568197275	 0.321277
C	 1.6001533735	 1.7277117578	 1.6801326827	-0.469783
C	 1.0715175094	 0.1265740588	 3.6528066357	-0.361072
C	 2.3716741352	-0.3098019271	 3.032431292	 0.055149
O	 2.6427845685	-1.6715395107	 2.8664288868	-0.416373
H	-1.3750226117	 1.3431661393	 1.8278515235	 0.118056
H	-2.7694547497	 0.4947356084	 1.1545048448	 0.112273
H	-2.1073747049	 0.010575898	 2.7209319851	 0.112543
H	-1.3606716284	-1.6085118843	 0.8899144427	 0.076029
H	 0.1153628513	-0.7974853871	-0.9705872741	 0.105004
H	-0.0100426594	 0.8963690776	-0.3243195484	 0.10531
H	 1.0311958041	-1.6054869817	 1.1935115519	 0.104799
H	 0.6844339888	 2.3069152302	 1.5190456589	 0.118442
H	 2.1987590691	 2.2708366835	 2.418642258	 0.107271
H	 2.1572576945	 1.7161320822	 0.7373833212	 0.123251
H	 1.0627936854	 0.9963159111	 4.3024355523	 0.103964
H	 0.383389737	-0.6627055157	 3.9378545636	 0.110247
H	 3.2559545818	 0.2970658498	 3.2300310631	 0.079979
H	 2.6933456222	-2.0740813384	 3.7390264783	 0.288028
