15
gdb 45497	3.17051	1.77991	1.56926	4.8489	63.53	-0.2569	0.0048	0.2616	866.2083	0.115293	-457.789668	-457.783558	-457.782614	-457.820216	24.624	
O	 0.0102823546	 0.001607246	-0.4119871475	-0.342517
C	 0.0339732541	 1.145759237	-0.0693365704	 0.4669
O	-1.1060337134	 1.8462321598	 0.225987152	-0.235592
C	-0.796342055	 3.1818446362	 0.6606416237	 0.057519
C	-0.7104106366	 3.1744537028	 2.1859501291	-0.089124
O	 0.5476292675	 2.5400060307	 2.4587163868	-0.256343
C	 1.3978178811	 2.8164357059	 1.3784218845	 0.103379
C	 0.6668278543	 3.4571919898	 0.2539300286	-0.148459
C	 1.2136470675	 2.0595130713	 0.0597076508	-0.257347
H	-1.5372052879	 3.8616219124	 0.2403610259	 0.106441
H	-0.7217644755	 4.1988823585	 2.5864767179	 0.102974
H	-1.5028138122	 2.5854450422	 2.6512210045	 0.136151
H	 2.40793868	 3.0845101117	 1.6657748741	 0.120018
H	 0.9678237929	 4.3350829154	-0.3010777457	 0.112754
H	 2.0877862585	 1.8340896906	-0.5362663743	 0.123247
