19
gdb 88111	2.8541	1.46427	1.24798	2.7784	76.24	-0.2279	0.0265	0.2544	1075.5431	0.16057	-419.183124	-419.174949	-419.174005	-419.215837	31.141	
C	-0.1835185858	 1.4537610661	-0.0930086449	-0.321815
N	 0.0395708463	 0.0204914491	 0.0332113553	-0.100619
C	 1.3927710076	-0.4794503884	-0.1821647223	-0.309773
C	 0.7820937719	-0.5257993182	 1.1747712241	 0.270844
C	 1.3100082817	 0.3608831902	 2.2762768605	-0.141557
O	 0.2960255318	 0.5936857253	 3.2694320881	-0.23028
C	-0.4938954603	-0.475428961	 3.5524799721	 0.132457
N	-0.5804533793	-1.5899522515	 2.9654325281	-0.268046
C	 0.2190321648	-1.8086748917	 1.7598630809	-0.206412
H	 0.6970770751	 2.0793103169	 0.1244742589	 0.098838
H	-0.4913253395	 1.6660559039	-1.121581552	 0.128244
H	-0.9940311076	 1.7554890042	 0.5770218089	 0.135266
H	 1.4859642739	-1.3876881202	-0.7736486253	 0.11724
H	 2.1856915493	 0.2509266933	-0.3502013459	 0.103146
H	 2.1685329617	-0.1199886892	 2.7635434647	 0.117169
H	 1.6216561477	 1.3464463551	 1.9299306721	 0.118106
H	-1.1124515488	-0.2517926522	 4.4200382892	 0.123921
H	-0.4139981864	-2.2966560556	 1.0127534235	 0.124183
H	 1.028868106	-2.5108255061	 2.002826224	 0.109088
