16
gdb 44908	2.84692	1.78679	1.55438	3.6036	68.12	-0.2415	-0.0263	0.2152	893.1237	0.127278	-437.925722	-437.919176	-437.918232	-437.956621	26.29	
O	 0.0054536273	 0.0159021332	 0.0715021778	-0.309162
C	-0.011299611	 1.2133357122	 0.0382768395	 0.426567
C	-1.2706307139	 2.1101415271	-0.0005581509	-0.336521
C	-0.7052758025	 3.5339781037	-0.0352746998	 0.096414
C	 0.6403135476	 3.3707121604	-0.7641684313	-0.269043
C	 1.198201621	 2.1750462802	 0.0202917572	-0.088082
N	 1.4314195458	 2.570534189	 1.4193064699	-0.261639
C	 0.6198633308	 3.4175690117	 1.9058116507	 0.118033
O	-0.4543993844	 3.9916725564	 1.3150477315	-0.232656
H	-1.8319955637	 1.885630557	-0.9143203659	 0.138036
H	-1.9306899874	 1.9232215288	 0.8498198615	 0.1454
H	-1.3773835614	 4.2754034456	-0.4656648218	 0.09951
H	 0.4803516464	 3.1343603383	-1.8208684235	 0.11515
H	 1.2703698301	 4.2596442386	-0.6889982112	 0.12498
H	 2.0950187917	 1.7057288789	-0.3816024544	 0.097065
H	 0.7402571035	 3.787767149	 2.9214492807	 0.135948
