18
gdb 10409	2.64738	1.92888	1.42292	4.4304	71.95	-0.2381	0.0279	0.266	955.5871	0.15418	-343.97643	-343.968067	-343.967122	-344.009141	30.769	
C	 0.0316161864	 1.4756657069	 0.0939427178	-0.341286
N	-0.104946306	 0.0360219441	-0.1197926162	-0.335686
C	 0.6881824174	-0.5039475486	-1.2036152861	 0.166147
C	 2.2705811463	-0.5077587045	-1.1525232149	-0.255172
C	 2.2470944226	-1.9637185802	-1.6827975542	-0.217027
C	 0.7529243162	-2.0634721386	-1.2819578733	-0.262097
C	 0.2265532815	 0.0646581691	-2.4782639691	 0.297117
N	-0.1068776171	 0.5078385671	-3.4925554132	-0.351148
H	 1.0674214191	 1.8093692011	 0.2710985047	 0.104342
H	-0.3505928099	 2.0110042773	-0.7803036976	 0.152689
H	-0.5751490878	 1.7648288822	 0.9557625213	 0.126291
H	 0.1324755934	-0.4663505088	 0.7286979597	 0.22116
H	 2.8025115641	 0.2455944922	-1.7352391197	 0.120499
H	 2.5956209324	-0.4519987071	-0.1091083197	 0.103629
H	 2.3792404283	-2.0023493811	-2.7663697937	 0.127457
H	 2.9339494344	-2.6748362708	-1.2216118845	 0.108171
H	 0.6220318359	-2.4810876301	-0.2791044375	 0.106716
H	 0.057524023	-2.5556817404	-1.9625140536	 0.128199
