15
gdb 125484	2.76275	1.70632	1.06168	2.1422	68.23	-0.27	-0.0289	0.241	1057.329	0.114206	-450.203987	-450.19578	-450.194836	-450.23705	29.588	
C	-0.0316414354	 1.5084172808	-0.0481456248	-0.477409
C	-0.012785039	 0.0204342072	-0.0361699391	 0.382281
N	-0.0273050583	-0.7558211967	-1.1028552188	-0.317083
C	 0.0000585925	-2.0179016533	-0.5847376625	 0.036199
N	 0.0308341212	-2.086494458	 0.727033749	-0.263009
N	 0.0223520112	-0.7650797114	 1.0862655548	-0.099738
C	 0.0481930841	-0.3679424275	 2.4600960599	 0.512187
N	 0.0814208721	-1.4260205084	 3.2957178595	-0.559661
O	 0.0393240568	 0.8012450736	 2.7720845255	-0.376054
H	 0.8487015429	 1.9169390249	 0.4539754296	 0.157809
H	-0.0565754909	 1.8398512909	-1.0867310981	 0.145703
H	-0.9015802157	 1.8948615991	 0.4885281045	 0.157749
H	-0.0027604574	-2.9065846422	-1.1987527684	 0.13566
H	 0.0837189537	-2.3623163871	 2.9252706974	 0.289018
H	 0.0991059923	-1.2457588218	 4.2835333116	 0.276348
