16
gdb 125042	3.2353	1.23193	0.89943	6.4801	75.53	-0.224	-0.0413	0.1827	1230.7125	0.12473	-434.097178	-434.088201	-434.087257	-434.131119	31.817	
C	-0.1903244328	 1.5588952269	 0.0280156935	-0.525212
C	-0.0629959519	 0.066023505	 0.0148658398	 0.088375
C	-0.0393985208	-0.7547607006	-1.0980459941	 0.301796
N	-0.183319753	-0.5121207532	-2.4683909596	-0.612225
N	 0.0970392329	-2.0284723053	-0.6304274521	-0.224589
N	 0.1817916248	-2.1093753456	 0.7015446639	-0.268268
C	 0.0728143218	-0.8398537803	 1.1095050261	 0.167645
C	 0.1108980248	-0.4918468077	 2.5374554879	 0.098424
O	 0.2510823021	-1.2685466	 3.4522724914	-0.265045
H	 0.5021733434	 2.0193704417	 0.7389639387	 0.14115
H	 0.0383162541	 1.9797658386	-0.9575713681	 0.110954
H	-1.1997642116	 1.8920193574	 0.2967016161	 0.139359
H	 0.6476540992	-0.7342461706	-3.0063986113	 0.254997
H	-0.4436795017	 0.4479199944	-2.6523856062	 0.255615
H	 0.108795213	-2.872833324	-1.1801161027	 0.277202
H	-0.0065184242	 0.5990846431	 2.7293332968	 0.059822
