15
gdb 79114	2.57684	2.04482	1.55585	4.552	63.47	-0.2594	0.0066	0.266	867.2703	0.114016	-457.764317	-457.757629	-457.756684	-457.795326	26.588	
O	 0.0275571591	 1.4536751876	 0.0083630574	-0.418781
C	-0.0188043622	 0.0572669205	-0.0660327452	 0.141612
C	-1.40606326	-0.5463275257	-0.0172934534	-0.137588
C	-2.0416404721	-0.5340606723	-1.3924667244	 0.100252
O	-1.6230078731	 0.402879215	-2.368950287	-0.223449
C	-0.266059461	 0.2875216985	-2.5231372361	 0.472012
O	 0.3563439801	 0.9197229785	-3.323097596	-0.347038
C	 0.2234821774	-0.6751050287	-1.4543208814	-0.296505
C	-0.9994246795	-1.5543447139	-1.1127104415	-0.109734
H	 0.9446125973	 1.7433248087	-0.0484409874	 0.293438
H	 0.6246966998	-0.4190879651	 0.6845386976	 0.090977
H	-2.0013990019	-0.6977147943	 0.8748273559	 0.100718
H	-3.089544366	-0.7839595345	-1.4832890858	 0.124481
H	 1.2051461709	-1.0972793307	-1.6461810476	 0.099842
H	-1.0902368787	-2.6297520636	-1.1662162952	 0.109763
