23
gdb 90714	2.94775	1.25305	1.23857	1.5238	85.32	-0.2358	0.0796	0.3154	1200.7633	0.204492	-388.276297	-388.266924	-388.26598	-388.309925	36.655	
C	 0.4446641216	 1.5928676431	-0.0428724085	-0.405564
C	 0.1073550401	 0.1112255621	 0.0120763704	 0.024644
C	 0.8630635795	-0.8774228545	-0.9380136354	-0.281194
C	 1.2555004731	-1.7611389353	 0.2791421353	-0.117304
C	 0.6190440851	-0.7073727068	 1.2254496152	 0.106199
O	 1.9175031522	-0.2989747274	 1.7008299084	-0.342206
C	 2.5783375271	-1.4125935396	 1.0112281551	 0.421201
C	 2.9647508101	-2.4816581186	 2.0314589194	-0.421443
C	 3.7879428235	-0.9394180919	 0.2217982921	-0.43961
H	 1.5069926868	 1.7529813264	 0.159882598	 0.129894
H	 0.2106706102	 2.0120747603	-1.0274974934	 0.108381
H	-0.1243612852	 2.1569945934	 0.7044320934	 0.112843
H	-0.9750745749	-0.0327168303	-0.0854940957	 0.067857
H	 0.2155008127	-1.3839810277	-1.6572612468	 0.099416
H	 1.7005420715	-0.4440629662	-1.4900135764	 0.09842
H	 0.9759397251	-2.8140663662	 0.2471976022	 0.06663
H	-0.0736807434	-0.9160239521	 2.0467353347	 0.064595
H	 2.0875580804	-2.8231538129	 2.5888111445	 0.116311
H	 3.4165405662	-3.3481609467	 1.5358803841	 0.11033
H	 3.6868704022	-2.0764127484	 2.7471420404	 0.120602
H	 4.5544053309	-0.5642232977	 0.9080429643	 0.122985
H	 4.2226379424	-1.7648505707	-0.352110954	 0.11473
H	 3.5342956229	-0.1320589121	-0.4679021675	 0.122282
