10
gdb 50	9.17136	9.04195	4.5531	1.8689	43.14	-0.2029	0.0499	0.2528	303.9808	0.082433	-210.101789	-210.097816	-210.096872	-210.12818	14.821	
N	-0.0082969396	 1.3536283762	 0.0099597114	-0.214431
C	 1.2803325407	 1.8245742139	-0.0002245919	-0.088833
C	 2.1221663909	 0.7369889796	-0.0144560017	-0.136445
C	 1.308499041	-0.4310958031	-0.0128415387	-0.136445
C	-0.0034278156	-0.0183688392	 0.0023573641	-0.088832
H	-0.8324323359	 1.9277266825	 0.0212299459	 0.260046
H	 1.4847182035	 2.8831263012	 0.0035431347	 0.112688
H	 3.200669182	 0.7734307713	-0.0248841554	 0.089782
H	 1.6481059949	-1.4553968264	-0.0218039432	 0.089782
H	-0.925516472	-0.5769705361	 0.0083940248	 0.112688
