18
gdb 126595	5.52744	0.66959	0.64135	3.0777	74.33	-0.3118	-0.0674	0.2444	1755.9863	0.146704	-435.226714	-435.217789	-435.216845	-435.261882	31.278	
C	 0.0381642694	 1.5610975255	 0.0932241638	-0.384549
C	 0.0131963751	 0.0333253379	 0.0005940065	-0.16746
C	 0.7047487662	-0.4963507098	-1.2593982737	-0.169878
C	 0.6706528767	-2.0342724498	-1.3474775004	-0.303903
C	 1.3782328389	-2.5538115106	-2.5499609579	 0.411258
N	 0.8168180433	-3.134958798	-3.5718569026	-0.14973
O	 1.8381208277	-3.41483052	-4.4168798713	-0.139023
N	 3.0269619375	-2.9717952376	-3.8451826357	 0.046166
N	 2.7514505266	-2.4582147311	-2.7330633982	-0.203007
H	 1.065811144	 1.9399782018	 0.110447257	 0.119609
H	-0.4687292948	 2.018316248	-0.7635094936	 0.118608
H	-0.4613996809	 1.9113042131	 1.0014268452	 0.117262
H	 0.4976097043	-0.3975302752	 0.8867100311	 0.100956
H	-1.0261080993	-0.3200905826	 0.0195223671	 0.100667
H	 0.2237824049	-0.0761024465	-2.1515269072	 0.11059
H	 1.7481952267	-0.1596801244	-1.2807059473	 0.121829
H	 1.1444801851	-2.4622519281	-0.4563600432	 0.134326
H	-0.3616898215	-2.3940694125	-1.3757297897	 0.13628
