15
gdb 28641	5.67003	1.00446	0.85781	4.4402	83.84	-0.27	-0.0608	0.2092	1281.9893	0.114456	-379.75624	-379.748428	-379.747484	-379.789287	28.3	
C	-0.0483448171	 1.5084510865	-0.0037753095	-0.467653
C	-0.0150902237	 0.0054412901	 0.0292168688	 0.328888
N	-0.2372219255	-0.6209400096	-1.1379791371	-0.310245
C	-0.2181856683	-1.9470645561	-1.1607051153	-0.053606
C	 0.0223626368	-2.7392339137	-0.0275465766	 0.12099
C	 0.2535761821	-2.0862766528	 1.1874898511	-0.153616
C	 0.2336140885	-0.7010198135	 1.2108545685	-0.152545
C	 0.0284154892	-4.1632196461	-0.1239130177	 0.209277
N	 0.0325098636	-5.3181719144	-0.2061566995	-0.328079
H	 0.1400789918	 1.9418556832	 0.9808051834	 0.124132
H	 0.7014625721	 1.8866402498	-0.7058571521	 0.15044
H	-1.0222992003	 1.8560423246	-0.3625661244	 0.150442
H	-0.4014255241	-2.4238957435	-2.1199759634	 0.135009
H	 0.4435517386	-2.6604421624	 2.0870439049	 0.133549
H	 0.4091787264	-0.1657632021	 2.1370040889	 0.113016
