18
gdb 90168	2.83583	1.63829	1.41782	3.9534	71.	-0.2316	0.0624	0.2939	973.3117	0.149082	-439.0206	-439.013081	-439.012137	-439.05231	29.829	
O	 0.1446525773	 1.3775844271	-0.0718885877	-0.426
C	 0.0635434036	-0.0277865636	-0.0422696805	 0.048658
C	 0.3633362236	-0.6671697078	 1.3618574643	-0.332171
C	-1.1175108969	-1.088300666	 1.4447798785	 0.186657
C	-2.237398487	-0.6665266655	 2.3622187085	-0.125634
O	-3.252029822	-0.1450134718	 1.4938854987	-0.262461
C	-2.678234407	 0.3223016836	 0.2603572939	-0.138417
C	-1.4075433444	-0.4699299968	 0.1089791545	 0.195517
N	-1.5354712308	-1.9064373604	 0.309407315	-0.371275
H	 1.0730292065	 1.6288961272	-0.032201668	 0.28989
H	 0.5890404708	-0.4756352458	-0.8997168806	 0.065778
H	 1.1033442146	-1.4717915492	 1.4255997751	 0.095892
H	 0.6171574457	 0.1192589342	 2.0769061849	 0.114201
H	-2.7005815745	-1.4748684424	 2.9359182504	 0.113015
H	-1.8689762241	 0.1002947909	 3.0621339355	 0.090322
H	-3.4294017726	 0.1501374666	-0.5157100507	 0.112006
H	-2.4374830249	 1.3931349637	 0.3015428453	 0.112702
H	-0.760827168	-2.4257635341	-0.097645737	 0.231322
