14
gdb 127718	3.50719	1.32241	0.96728	7.5876	72.65	-0.242	-0.0138	0.2282	1135.0554	0.102195	-429.062454	-429.054121	-429.053177	-429.095511	29.65	
C	-0.0481572417	 1.427717611	-0.0272080367	-0.348792
N	-0.0023833794	-0.0158058638	 0.0438999882	 0.003904
N	 0.0113814472	-0.7757264333	-1.1032948321	-0.145157
N	 0.0244940282	-2.0131469901	-0.7548085831	-0.251068
C	 0.0307497855	-2.0993881799	 0.6144114531	 0.177959
C	 0.0569798765	-3.300679926	 1.355467744	 0.217521
N	 0.0837947138	-4.2445863704	 2.0278795592	-0.353449
C	 0.0127505742	-0.8080613608	 1.1345612146	 0.277606
N	-0.0664594803	-0.3435253617	 2.4241800369	-0.616672
H	 0.8844993388	 1.8732359938	 0.3352854008	 0.146261
H	-0.1842595577	 1.6930206144	-1.0753769642	 0.182744
H	-0.8871516287	 1.8106741913	 0.561022719	 0.15813
H	 0.0839079271	-1.058680107	 3.1226971135	 0.283704
H	 0.4506789065	 0.5003394126	 2.6273460168	 0.267311
