23
gdb 109299	2.51745	1.1075	0.83526	1.2527	88.6	-0.2286	0.0307	0.2593	1463.568	0.206505	-388.318213	-388.308659	-388.307715	-388.352557	36.601	
C	 0.0861918334	 1.5679520867	-0.13517999	-0.371113
C	-0.0304321455	 0.0423431576	 0.0318426109	-0.273277
C	 0.6646472984	-0.4899763763	 1.2638221411	 0.313599
C	-0.0178936293	-0.9101324069	 2.3327642771	-0.146064
C	 0.6107047066	-1.4557915983	 3.588847685	-0.26214
C	 2.0912268456	-1.8077030945	 3.3844830847	-0.225803
C	 2.8063455256	-0.7026061518	 2.6053337012	 0.125387
O	 4.1851270341	-0.9872148911	 2.3987282726	-0.441546
C	 2.1770710876	-0.5328618062	 1.2243485188	-0.287031
H	 1.1296698738	 1.890565762	-0.2048215936	 0.119561
H	-0.4226566061	 1.8988478259	-1.0460873092	 0.111798
H	-0.367117855	 2.086596069	 0.7154440027	 0.117748
H	-1.0900552503	-0.2337360981	 0.0669516433	 0.097658
H	 0.3896576781	-0.4437384529	-0.860028	 0.097701
H	-1.1054663137	-0.8620946232	 2.3162529456	 0.072266
H	 0.5060515212	-0.7209172671	 4.4016494202	 0.105002
H	 0.0581311637	-2.3407541579	 3.9286987459	 0.102753
H	 2.5831713413	-1.9681635486	 4.3524503503	 0.077703
H	 2.1838665903	-2.7421895113	 2.8177328078	 0.10498
H	 2.694372752	 0.2454306934	 3.1595973456	 0.062526
H	 4.5959355728	-1.0994159171	 3.2619726077	 0.276742
H	 2.510218111	-1.3680066158	 0.5907984611	 0.114792
H	 2.5789018846	 0.3713448928	 0.7528178511	 0.106756
