15
gdb 31209	2.3785	1.55507	0.94602	5.8066	78.84	-0.1943	0.0234	0.2177	1182.4192	0.112039	-416.795411	-416.786801	-416.785857	-416.82968	31.146	
C	-0.0041145402	 1.4380594557	-0.0030970058	-0.269067
O	-0.009401597	 0.0207735869	-0.0037515649	-0.250168
C	 0.5852311737	-0.6027357892	-1.0323047789	 0.341407
C	 0.7236920757	-1.9601272757	-1.2511480136	 0.01624
N	 1.4066904179	-2.1600471401	-2.446466557	-0.303499
C	 1.6650986026	-0.9751941889	-2.9203425154	-0.013899
N	 1.1863579755	 0.0225729777	-2.0976708305	-0.340334
C	 0.2625611136	-3.0068062713	-0.423633211	 0.258042
C	-0.1351655472	-3.891974297	 0.2898320564	-0.430272
H	 1.0192643666	 1.836555137	 0.0183112551	 0.126902
H	-0.5387560049	 1.8429186187	-0.87315485	 0.126412
H	-0.5230029189	 1.7454219213	 0.9051157306	 0.156427
H	 2.1866829744	-0.751367967	-3.8384340662	 0.131442
H	 1.2625857342	 1.0133611955	-2.2494785133	 0.270246
H	-0.483975786	-4.6752538135	 0.9149923646	 0.180122
