17
gdb 90283	3.5231	1.3432	1.16829	4.269	79.27	-0.2252	-0.0299	0.1953	1080.6455	0.136714	-417.98083	-417.973083	-417.972139	-418.013141	30.004	
C	-0.0597100517	 1.5672235372	-0.056826061	-0.366744
C	 0.0330344895	 0.0543184856	-0.0323435741	-0.035283
N	 1.2412341101	-0.4525544167	-0.8059759353	-0.378569
C	 1.8809470036	-0.6942378831	 0.4512465545	 0.254569
C	 2.9643997555	-0.3616127091	 1.1600024861	-0.29389
C	 2.4619343579	 0.0237785105	 2.4983283398	 0.407218
N	 3.1463416355	 0.390193592	 3.4954139472	-0.543387
O	 1.0538392314	 0.025557579	 2.4785083908	-0.266383
C	 0.6612685802	-0.5981445477	 1.272918629	 0.039307
H	 0.8800809884	 2.0190864567	 0.2717457618	 0.139827
H	-0.276000294	 1.9219240768	-1.0682829753	 0.125394
H	-0.8571987672	 1.9071582838	 0.6111370907	 0.127551
H	-0.9073851851	-0.4155748821	-0.3358745851	 0.086419
H	 1.0709300385	-1.2521243708	-1.4063931258	 0.245958
H	 3.987879025	-0.1947630898	 0.8633213907	 0.129743
H	 2.5391085741	 0.6896026399	 4.2590199961	 0.223634
H	 0.1484597681	-1.5407745322	 1.4968883999	 0.104635
