16
gdb 102908	2.84405	0.84126	0.73167	4.8786	70.49	-0.271	-0.0075	0.2635	1509.6159	0.123674	-434.063502	-434.053844	-434.0529	-434.099333	33.071	
O	 0.011345017	 1.0675500114	 0.4963119728	-0.411697
C	-0.2247782913	-0.2651163367	 0.0971142524	-0.082918
C	-1.7298830632	-0.4922708307	-0.2062949808	-0.135722
N	-2.6186074297	-0.1319765076	 0.896353811	-0.285431
C	-2.6762693563	-1.1339159575	 1.9574554273	-0.275344
C	-3.600695263	-0.7104451653	 3.012424862	 0.265809
N	-4.3102586029	-0.3766673341	 3.859829193	-0.287373
C	-2.0838046023	 0.3105684287	-1.3909440159	 0.279979
N	-2.2856740321	 0.9719909459	-2.3164449171	-0.310659
H	-0.0552174105	 1.6341988338	-0.2815638184	 0.306199
H	 0.3797862999	-0.5587321657	-0.7716986377	 0.121504
H	 0.067887276	-0.898326999	 0.9403286756	 0.125725
H	-1.8911521663	-1.5486048773	-0.4563856257	 0.132301
H	-2.3148277891	 0.76275946	 1.2712685211	 0.250943
H	-3.0491086482	-2.0741408863	 1.5325799973	 0.163329
H	-1.7088882879	-1.3631013597	 2.4363247434	 0.143356
