15
gdb 126129	4.6403	0.98672	0.82185	1.6137	68.06	-0.2776	-0.0829	0.1947	1334.0959	0.111335	-453.926717	-453.918389	-453.917444	-453.960877	28.925	
C	 0.0447538401	 1.5345113538	 0.0099154225	-0.386497
C	-0.0484777946	 0.0112091483	 0.0034712764	-0.287988
C	-1.4734523277	-0.4985919771	 0.0130692433	 0.299759
O	-2.4492778315	 0.2195397864	 0.0244864546	-0.301416
C	-1.6771651718	-1.9773199274	 0.0079117285	 0.261911
N	-0.70695979	-2.8565630251	-0.0041828928	-0.143441
O	-1.3056007792	-4.0734888813	-0.004837269	-0.141908
N	-2.6768817606	-3.9603839341	 0.0068939699	-0.058977
C	-2.9165623785	-2.6816846479	 0.0149415795	-0.090534
H	 1.0907059428	 1.8515314928	 0.0024775791	 0.118184
H	-0.4527492667	 1.9616274212	-0.8644179218	 0.134765
H	-0.4376792424	 1.9532604869	 0.8966550888	 0.134756
H	 0.4534977571	-0.4242773205	-0.8706830648	 0.143465
H	 0.4681774704	-0.4325385632	 0.8648186031	 0.143463
H	-3.9196916675	-2.2873815228	 0.0250564626	 0.174458
