12
gdb 25124	3.14856	1.49197	1.1195	3.2466	64.63	-0.2765	-0.1005	0.176	1003.2802	0.077483	-472.657364	-472.650256	-472.649312	-472.689519	25.759	
O	 0.2377223838	-0.0545410733	 0.0623564749	-0.277811
C	 0.0570587759	 1.1158568817	-0.0935974191	 0.385797
O	-1.1915643172	 1.5472864527	-0.475369887	-0.205507
C	-1.5487038559	 2.790044802	-0.9040624035	 0.089231
C	-0.7770883117	 3.7885149177	-1.3390375291	-0.22977
C	 0.6955965758	 3.7449817384	-1.4578315116	 0.34789
O	 1.2935841805	 4.2104328553	-2.3956405112	-0.297945
N	 1.4053192353	 3.2182175525	-0.3490915797	-0.19386
C	 1.12059224	 2.1307306843	 0.2315919358	-0.083072
H	-2.6304685865	 2.8561631848	-0.9228526585	 0.154632
H	-1.2685302707	 4.6596620014	-1.756493664	 0.145246
H	 1.7393421408	 1.8050682225	 1.070014423	 0.165169
