17
gdb 74838	2.45732	1.62893	1.10287	2.8202	74.83	-0.2398	-0.0325	0.2073	1102.8503	0.13564	-421.842898	-421.83502	-421.834076	-421.875307	30.17	
C	 0.0918291881	 1.5346605918	 0.0142341334	-0.475557
C	-0.029836483	 0.0399893961	-0.050178887	 0.284518
C	-0.0295612054	-0.644848587	-1.1984033563	-0.14563
C	-0.0756594388	-2.1268341155	-1.2270617439	 0.001528
O	 0.9031365176	-2.8144630334	-0.4327511355	-0.246151
C	-0.457994701	-2.8734362557	 0.0000767237	-0.069498
C	-0.8171503616	-2.0422092075	 1.1933715361	 0.392997
O	-1.6341161155	-2.4159426135	 2.0032525252	-0.313815
C	-0.1276378413	-0.685619027	 1.278834195	-0.419046
H	 0.9755720068	 1.8307757624	 0.5938204085	 0.134315
H	 0.1739428392	 1.9767602826	-0.9817553606	 0.127869
H	-0.7748292196	 1.977412523	 0.5207319749	 0.134073
H	 0.0419978606	-0.1288567524	-2.1509550827	 0.091963
H	-0.2759878348	-2.6045155962	-2.1839184328	 0.107733
H	-0.9456723102	-3.843480259	-0.0648007181	 0.110321
H	 0.8887510019	-0.8547259255	 1.6650719294	 0.154017
H	-0.6559163331	-0.0889706633	 2.0276334809	 0.130364
