18
gdb 84727	2.51604	1.73307	1.14218	1.7786	80.95	-0.2186	-0.0338	0.1847	1069.0554	0.150404	-401.923826	-401.916204	-401.915259	-401.956066	30.228	
O	 0.2734597942	 1.3073010208	-0.4520263937	-0.432299
C	 0.0072914891	-0.0244579964	 0.0036201822	 0.052334
C	 0.8540726323	-0.3134817551	 1.210892368	-0.100326
C	 0.6221023892	-1.045623847	 2.3096427015	-0.073254
C	-0.5560424989	-1.7960460094	 2.714214548	-0.093506
C	-1.7883912249	-1.7896844942	 2.185635127	-0.050979
C	-2.2981901051	-0.964283969	 1.0736995701	-0.083184
N	-2.1795124346	 0.521072315	 1.1593772992	-0.341117
C	-1.4993234391	-0.1915805466	 0.0774990413	-0.049396
H	-0.0778084031	 1.8908214	 0.2322777989	 0.28743
H	 0.3649683431	-0.6635888071	-0.8168201637	 0.102293
H	 1.8359315942	 0.1446419997	 1.1121240627	 0.100526
H	 1.4530116051	-1.1232280998	 3.0081828066	 0.087892
H	-0.3989870883	-2.4459653617	 3.5720828395	 0.089524
H	-2.530480366	-2.4460397321	 2.6335942751	 0.090432
H	-3.2481158436	-1.324356514	 0.6823444426	 0.086165
H	-3.0368012179	 0.9529773658	 0.8250238898	 0.235248
H	-1.9456357957	-0.1198254791	-0.9145270451	 0.092217
