17
gdb 18901	3.49119	2.66286	2.19217	1.9649	70.3	-0.2204	0.0845	0.3049	716.1381	0.143697	-326.644007	-326.637952	-326.637007	-326.67368	25.149	
C	 0.0341938681	 1.5734734132	-0.0246964017	-0.537165
C	 0.0203678926	 0.0757024913	-0.0476011926	 0.356874
C	 0.5513002737	-0.9043946933	-1.1324498254	-0.122895
C	 0.8520390963	-1.870988356	-0.0516346449	-0.042762
C	 0.6064895345	-0.8695370375	 1.0920616923	-0.119632
C	-0.8298046768	-1.1573752583	 1.5917678023	-0.247111
C	-1.2126532257	-0.8732144611	 0.1316257497	-0.034926
N	-0.4901376879	-1.9002838364	-0.732044566	-0.15013
H	 1.0577311968	 1.9629957577	-0.0734060528	 0.122168
H	-0.5210612083	 1.9890167483	-0.8737004836	 0.123545
H	-0.4240802108	 1.9585486481	 0.8934781558	 0.122317
H	 0.9139219702	-0.7974587553	-2.1485145952	 0.090083
H	 1.438952125	-2.7808701346	-0.0609374759	 0.092864
H	 1.4319243234	-0.5893593612	 1.7445038191	 0.070423
H	-1.0569411811	-2.1422310143	 2.0088586129	 0.103174
H	-1.1938613435	-0.3706904735	 2.2598993607	 0.101625
H	-2.2291608265	-0.6723561372	-0.2057120247	 0.071549
