13
gdb 123395	7.96141	0.81404	0.74193	0.6027	66.39	-0.2629	-0.0321	0.2308	1406.1816	0.089354	-448.857608	-448.849787	-448.848842	-448.891083	27.389	
C	 0.0485078378	-1.1419976568	-0.0049880895	-0.397829
C	 0.0540660556	 0.0580623735	 0.0019267684	 0.298877
C	 0.0136854326	 1.5095701756	 0.0108374079	-0.245979
O	 1.3672730697	 2.0080994397	-0.0019818284	-0.247936
C	 1.4773583404	 3.3312477118	 0.0041743138	 0.518487
N	 2.6642117408	 3.9299894844	-0.0063687552	-0.309808
N	 2.2764879317	 5.2036397747	 0.0053721007	-0.053579
N	 0.9745423561	 5.400735327	 0.0217604853	-0.115515
N	 0.4368672335	 4.2019225482	 0.0212998296	-0.277485
H	 0.0492898794	-2.2042238847	-0.0111795433	 0.208104
H	-0.524322531	 1.8953531928	-0.8629058468	 0.158018
H	-0.5038300051	 1.885087357	 0.9012729658	 0.158016
H	 2.9350704787	 5.9681098469	 0.0019614118	 0.306628
