16
gdb 34938	4.83137	0.99389	0.91812	4.2875	75.49	-0.2509	0.0079	0.2588	1247.6197	0.125208	-396.85589	-396.848342	-396.847398	-396.888048	28.827	
N	-0.1249886625	-1.0483284405	-0.0025343793	-0.320546
C	-0.0399734021	 0.1038740485	 0.032307026	 0.298436
C	 0.0239079145	 1.5426947812	 0.0946889856	-0.177255
C	 0.5987709809	 2.199187703	 1.3050326363	-0.126405
N	 1.3905697333	 2.1183008838	 0.0264716703	-0.123347
C	 1.1831737757	 3.6084668625	-0.1555181253	-0.242288
C	 0.4379015548	 3.6962664979	 1.1829410946	 0.349655
C	-0.6335491148	 4.5719168309	 1.7046302611	-0.309858
N	 0.7558184234	 4.6860560203	 2.1971755279	-0.364763
H	-0.7807378554	 2.0463964176	-0.4367033567	 0.135482
H	 0.8689365887	 1.6335142505	 2.1915339102	 0.125112
H	 2.1477686626	 4.1176602355	-0.1307657865	 0.142867
H	 0.6442373895	 3.8694323116	-1.071016195	 0.119773
H	-0.9777064888	 5.4202624731	 1.1194866404	 0.130291
H	-1.3872991882	 4.1265838348	 2.3494427299	 0.122943
H	 0.8486170984	 4.2525043792	 3.1131163004	 0.239903
