19
gdb 53572	4.88202	0.64975	0.59258	2.977	85.2	-0.2403	-0.0188	0.2215	1854.3343	0.156384	-385.879893	-385.869885	-385.868941	-385.917658	34.791	
C	 0.0474930445	 1.4353053504	-0.2027922658	-0.496831
C	 0.0464424077	-0.0184939612	-0.1199742965	 0.089424
C	 0.058005151	-1.2207619157	-0.0514215907	 0.044406
C	 0.0314549798	-2.6774240568	 0.0325570138	-0.375052
C	-1.383189979	-3.2407210682	 0.2145225194	 0.035086
C	-2.3693820206	-3.0789610637	-0.9849690841	-0.348583
C	-2.6582786662	-4.584786972	-0.8868022613	 0.404149
O	-3.4830317858	-5.3057979139	-1.367230167	-0.288315
C	-1.529600019	-4.7938454515	 0.1377623042	-0.372983
H	 0.6902107472	 1.877901209	 0.566277399	 0.148103
H	 0.4124337735	 1.7792333068	-1.1769360317	 0.147999
H	-0.960260682	 1.842727644	-0.0652223493	 0.147668
H	 0.473859045	-3.1094077213	-0.8766494375	 0.121265
H	 0.6639902907	-3.0152830828	 0.8644710003	 0.12871
H	-1.8169715426	-2.8442876915	 1.135553537	 0.092106
H	-3.2298296666	-2.4175782829	-0.8588224565	 0.131926
H	-1.8705691967	-2.8160424057	-1.9249330204	 0.133154
H	-0.6615005709	-5.2927935483	-0.3093232088	 0.127999
H	-1.80425938	-5.3316654147	 1.0487417461	 0.129768
