17
gdb 55007	3.09965	1.19114	0.95078	3.0781	71.08	-0.2469	-0.0066	0.2403	1228.683	0.134741	-455.182078	-455.172751	-455.171807	-455.217296	33.077	
C	 0.4449437944	 0.8428723335	 0.1254429669	-0.473104
C	-0.0251233444	-0.5957945207	 0.186121818	 0.394653
O	 0.737195854	-1.543997394	 0.0867016953	-0.370623
N	-1.3696626252	-0.7445753899	 0.4288452454	-0.072671
C	-2.5303937822	-0.1652098949	-0.1974393923	-0.245694
C	-2.3851085432	-1.6595930993	-0.0284144814	-0.113378
C	-2.3021830881	-2.5558160931	-1.2572570887	 0.364396
N	-1.0565307287	-2.8615566039	-1.6901642688	-0.53445
O	-3.3345487802	-2.9415681394	-1.7711382725	-0.361808
H	 1.5164957387	 0.8735126945	 0.3227456997	 0.154437
H	 0.2675738864	 1.2415328676	-0.8801846682	 0.148609
H	-0.0921456325	 1.47529948	 0.8358231011	 0.143082
H	-3.2158467175	 0.3827025634	 0.4437480851	 0.135797
H	-2.4173720336	 0.2320418495	-1.2039760605	 0.142412
H	-2.9707574987	-2.1180815854	 0.7651199746	 0.138688
H	-0.2415377505	-2.6581310929	-1.1184211082	 0.291576
H	-0.9864143586	-3.5091431551	-2.4595419655	 0.258078
