16
gdb 35957	3.47331	1.19959	0.94837	4.9956	71.87	-0.2748	-0.014	0.2608	1189.8636	0.124998	-437.877582	-437.869662	-437.868718	-437.910746	29.05	
N	 0.4687921976	-1.1490372535	 0.7985805234	-0.310443
C	 0.2016492473	-0.0741679222	 0.4736203087	 0.273705
C	-0.1170739936	 1.2889775991	 0.0079567658	-0.066091
O	-0.8795736454	 1.8964518223	 1.0295348362	-0.235573
C	-1.316843853	 3.2080906683	 0.7637704356	 0.013179
O	-0.3778359349	 4.1708697085	 1.1210841656	-0.215293
C	 0.6273648736	 4.4496301698	 0.1682888193	-0.14047
C	 1.4356036985	 3.2966379423	-0.3593068921	-0.085518
C	 1.1519391044	 1.9984739744	-0.4261676284	-0.061538
H	-0.7475977911	 1.1667454751	-0.8940977813	 0.132106
H	-1.6134175489	 3.3076189664	-0.2960313386	 0.083074
H	-2.1806245672	 3.3637258361	 1.4128659614	 0.129695
H	 0.1904084291	 4.9805445602	-0.6982644761	 0.113416
H	 1.2978543747	 5.1628487646	 0.6587507622	 0.134003
H	 2.3779147401	 3.6147169675	-0.8030741696	 0.111697
H	 1.8674577989	 1.3375593611	-0.9084093322	 0.124052
