16
gdb 115089	2.95092	1.43737	1.02909	1.918	66.24	-0.2636	-0.0336	0.2301	1121.7923	0.124149	-475.048619	-475.04039	-475.039446	-475.08182	29.578	
C	 0.0134058158	 1.3604750533	-0.0815989599	-0.249504
O	-0.1209026507	-0.0437226834	 0.086144188	-0.228793
C	 0.6705230514	-0.6005309809	 1.0899354717	-0.047758
C	 0.0906910537	-1.9686902562	 1.4718700185	-0.192557
N	 0.9429425744	-2.6941831375	 2.4020713748	-0.240005
C	 2.1771206389	-2.461102345	 2.3549362494	 0.134171
O	 2.8531285783	-1.618903173	 1.491893631	-0.212117
C	 2.13192197	-0.7680674917	 0.6729222244	 0.415743
O	 2.6831551696	-0.223070593	-0.2332218957	-0.294212
H	 1.0166609753	 1.6301001657	-0.4250169098	 0.144608
H	-0.7206714335	 1.653834191	-0.8346778292	 0.134526
H	-0.2077483047	 1.891705837	 0.8564783601	 0.106614
H	 0.6828421793	 0.0346543897	 1.9952118089	 0.105618
H	-0.8968719868	-1.8299448564	 1.9179118653	 0.133733
H	-0.0527223064	-2.5694547427	 0.563972831	 0.142983
H	 2.8894311955	-2.9588338869	 3.0063699114	 0.146948
