19
gdb 12677	2.77494	1.92937	1.49803	2.3372	70.96	-0.2093	-0.0181	0.1913	938.7344	0.16506	-365.081181	-365.072765	-365.07182	-365.114464	31.052	
C	 0.3808040584	 1.6971460914	-0.0005601747	-0.387027
C	 0.0115172195	 0.2086139121	-0.0797565801	-0.075274
N	 0.5231220123	-0.4417297944	-1.2956820392	-0.068458
C	-0.4276454944	-1.3685001922	-1.8998867495	-0.331915
C	 1.7957502036	-1.0886651886	-0.9123806488	-0.186195
C	 1.622775065	-1.5696222293	 0.5386012408	-0.329259
C	 0.62798989	-0.558049055	 1.1111750611	 0.402985
O	 0.3745296382	-0.3668031428	 2.2719258718	-0.316854
H	 1.4637766871	 1.8393770456	-0.0729136774	 0.118191
H	-0.0863634995	 2.2445206915	-0.8229117868	 0.121748
H	 0.0434580215	 2.1157087542	 0.9517087712	 0.133876
H	-1.0783520897	 0.1128748199	-0.0260348431	 0.09741
H	-1.3338873848	-0.8259684506	-2.1853558504	 0.12477
H	 0.0054176062	-1.791734138	-2.8113953748	 0.121499
H	-0.7316401293	-2.2086352806	-1.2473145691	 0.092957
H	 2.0348687246	-1.8904839083	-1.6138706367	 0.108142
H	 2.6067803861	-0.3525774484	-0.970755261	 0.109731
H	 1.1592888401	-2.5629085256	 0.582795261	 0.133992
H	 2.5363760551	-1.6082751209	 1.1356864954	 0.129681
