11
gdb 129017	4.15655	1.8602	1.28508	3.0012	66.44	-0.2741	-0.1093	0.1648	847.8448	0.07029	-443.874475	-443.869065	-443.868121	-443.904297	20.944	
N	 0.0364510019	 1.2202329211	 0.0087551848	-0.055514
N	 1.0872129896	 2.0407905775	 0.002894473	-0.076129
N	 2.2870185908	 1.5312386565	-0.0115354074	-0.257074
C	 2.3586447723	 0.1910898545	-0.0194242254	 0.383497
N	 3.4292131506	-0.5926923749	-0.0337864973	-0.315859
C	 2.8561880534	-1.8356441111	-0.0350065979	 0.05029
N	 1.5155013864	-1.9404518944	-0.0227094156	-0.320005
C	 1.1565864071	-0.6447827723	-0.0120824605	 0.388765
N	-0.0450420722	-0.1036344169	 0.0024907368	-0.258947
H	-0.849272124	 1.7107862164	 0.0199734718	 0.318109
H	 3.4804040042	-2.7213116863	-0.0458540623	 0.142866
