15
gdb 98004	7.4781	0.47787	0.4517	5.3124	94.83	-0.2511	-0.0682	0.1828	2325.3982	0.10868	-420.586549	-420.576052	-420.575108	-420.625566	34.127	
C	 0.0318696007	 1.4499027694	 0.0095369254	-0.519662
C	 0.0304296882	-0.0000965169	 0.0007818792	 0.255961
C	 0.0259428547	-1.2111588772	-0.0064184926	-0.196326
C	 0.0177609003	-2.5667365774	-0.0144708701	-0.218339
C	 0.0189824232	-3.7810391261	-0.0217223963	 0.326657
C	-0.0129531054	-5.2301698712	-0.0302217715	 0.149094
O	-1.0459708456	-5.8578802278	-0.0292365661	-0.255438
C	 1.3675339249	-5.876947247	-0.0404010391	-0.175295
O	 1.2316509073	-7.27069522	-0.0480956426	-0.394183
H	 1.0525923648	 1.8469385452	-0.014655899	 0.162948
H	-0.5053980555	 1.8466905982	-0.8590596128	 0.166255
H	-0.4589961594	 1.8356919703	 0.9099824966	 0.166276
H	 1.9030135581	-5.487745662	-0.9240481844	 0.118457
H	 1.9111036023	-5.4982892702	 0.8428876151	 0.118457
H	 2.1124790214	-7.6562489974	-0.0544352213	 0.295137
