21
gdb 54786	3.35298	1.22133	1.10497	2.5481	82.56	-0.2382	-0.0112	0.2269	1200.2828	0.18378	-387.104476	-387.096174	-387.09523	-387.137762	32.201	
C	-1.2937187154	 0.7714802551	 0.3648822	-0.47873
C	-0.0376326827	-0.0517794016	 0.1250110772	 0.348386
O	 0.8613941537	-0.0822618091	 0.9377296759	-0.30363
C	 0.0011990012	-0.8031431004	-1.1885452337	-0.073195
C	 1.329885924	-1.5192144927	-1.5763004344	-0.017106
C	 0.8935028356	-2.6756118751	-0.6292774975	-0.2288
C	-0.522937211	-2.2913468467	-1.1374596378	-0.024014
C	-0.4457664654	-2.6779277092	-2.6276784893	-0.21747
C	 0.9704886359	-2.091769346	-2.9618526807	-0.222535
H	-1.320040242	 1.6167808798	-0.333195625	 0.140791
H	-2.1946307778	 0.1776797824	 0.1760832708	 0.134899
H	-1.3002130106	 1.1507070396	 1.3873890881	 0.139901
H	-0.4715918678	-0.1876764941	-1.9640419604	 0.066116
H	 2.2882594762	-1.0155600377	-1.458110633	 0.07138
H	 1.2511325819	-3.6836694094	-0.8604735009	 0.083859
H	 1.0601415197	-2.4384427566	 0.4192432309	 0.129419
H	-1.4308350157	-2.5573990866	-0.5939317974	 0.062347
H	-0.4995510264	-3.7614287516	-2.7689490871	 0.099351
H	-1.2433478773	-2.2220858619	-3.2215623666	 0.094991
H	 0.933659098	-1.3227031482	-3.7389563921	 0.095229
H	 1.6782730058	-2.86055777	-3.2843925671	 0.098809
