21
gdb 110201	2.27905	1.47541	1.06797	3.087	79.09	-0.2508	0.0687	0.3194	1201.2674	0.181787	-424.177699	-424.168453	-424.167509	-424.211271	35.947	
C	 0.7284833115	 1.3518201117	 0.2189874675	-0.509591
C	 0.2727168406	-0.076511475	 0.0949951263	 0.30584
C	 0.5223961762	-1.036356592	-1.1159457702	-0.321051
C	-0.2909538777	-1.8497911135	-0.0680026174	 0.379127
O	-0.8234230256	-3.1300847758	-0.1590628721	-0.481306
C	 0.6616495906	-1.2745299749	 1.0209729469	-0.342747
C	-1.2067462715	-0.6123794594	 0.0933782541	-0.044067
C	-2.1478748284	-0.5407236983	 1.285415618	-0.120147
O	-3.1810808373	-1.5093124551	 1.1569136694	-0.427576
H	 1.8196223026	 1.4229606972	 0.1533776788	 0.12041
H	 0.3034383914	 1.9704647263	-0.578700553	 0.122532
H	 0.4226606671	 1.7843670804	 1.1776582954	 0.12273
H	 0.0111495717	-0.7896873391	-2.0503303349	 0.094037
H	 1.5608908705	-1.337770041	-1.2838378698	 0.082499
H	-0.1066554667	-3.7734521869	-0.1414229418	 0.286155
H	 1.706798571	-1.5955576639	 0.9686270292	 0.083895
H	 0.3103684142	-1.2559053577	 2.0531501012	 0.09827
H	-1.7631386928	-0.3669494334	-0.8186883955	 0.07082
H	-1.6162668299	-0.6564958417	 2.24115734	 0.083768
H	-2.6471989097	 0.4343005223	 1.3170347806	 0.102779
H	-2.7531963578	-2.35155901	 0.9606676674	 0.293623
