18
gdb 31827	4.99559	1.00728	0.84883	3.5459	85.4	-0.2093	-0.0266	0.1828	1368.4265	0.148664	-398.18582	-398.176898	-398.175953	-398.220453	32.092	
C	 0.0486901716	 1.4533197536	-0.0490484683	-0.326841
N	-0.0040745345	 0.0135023584	 0.1104890206	-0.37906
C	-1.2023380262	-0.6729037179	 0.0495252609	 0.2777
C	-2.4613516632	-0.069119112	 0.149003891	-0.06543
N	-3.5981052995	-0.7675278905	 0.1345060853	-0.276913
C	-3.511160138	-2.0928005587	 0.0108266682	 0.33644
C	-4.7857399273	-2.8912070688	-0.0031666619	-0.45997
N	-2.3577997745	-2.7726781128	-0.1066075074	-0.276383
C	-1.2363912181	-2.071409203	-0.0861193128	-0.058305
H	 1.0933865173	 1.7704106816	-0.0386179154	 0.130402
H	-0.4142449444	 1.8058596294	-0.9838662071	 0.12164
H	-0.4559513229	 1.9516082712	 0.7859868319	 0.140322
H	 0.7825629231	-0.4864880867	-0.2737541965	 0.241047
H	-2.5601506191	 1.0088624723	 0.2447689796	 0.101983
H	-4.8645004196	-3.475200376	-0.9259278799	 0.132688
H	-4.8013415916	-3.6056805266	 0.8266366074	 0.133228
H	-5.6466465264	-2.2269585331	 0.0787720814	 0.131439
H	-0.3033600565	-2.6289809403	-0.181431797	 0.096012
