16
gdb 25882	4.11297	1.08766	0.86483	4.7305	74.04	-0.2267	0.0023	0.229	1286.4336	0.125589	-434.159382	-434.150567	-434.149623	-434.193417	31.591	
C	-0.0300459066	 1.4667632669	-0.0226943108	-0.500394
C	 0.0049837989	-0.0246258571	-0.0446879708	 0.340781
N	-0.0117079985	-0.7874875699	-1.1136375834	-0.367931
C	 0.0350325759	-2.0908252131	-0.655131783	 0.199221
C	 0.0804002997	-2.1115959987	 0.7136985266	-0.15929
N	 0.0609556188	-0.7923410259	 1.0917025272	-0.283313
C	 0.0340296014	-3.2703424633	-1.5505731055	 0.31129
N	-0.0166365646	-2.9479158793	-2.871572957	-0.541798
O	 0.073974039	-4.4144346731	-1.1260664806	-0.381247
H	 0.8628201917	 1.8885147524	 0.4529116043	 0.136288
H	-0.0765227159	 1.8292589852	-1.0500907712	 0.159307
H	-0.9046767308	 1.8460300538	 0.5180561579	 0.136111
H	 0.1230669852	-2.9263736486	 1.4153234917	 0.157952
H	 0.0837838247	-0.4497511617	 2.0379508538	 0.267948
H	-0.0515021915	-1.9814310559	-3.1500400198	 0.269481
H	-0.0252331673	-3.6852111816	-3.5542493593	 0.255595
