21
gdb 110990	2.58342	1.41083	1.13022	1.0629	82.71	-0.2254	0.0145	0.2399	1182.0863	0.182344	-387.057585	-387.048935	-387.04799	-387.090587	34.431	
C	-0.0345968793	 1.5755742686	 0.1266999156	-0.383137
C	 0.001120274	 0.0441197912	 0.2027131797	-0.21967
C	-1.3841655447	-0.5771421127	 0.0540665707	 0.035143
C	-2.0245338215	-0.7268509531	-1.3880750545	-0.095049
C	-1.1461255232	-2.0136602505	-1.5537183404	-0.288027
C	-1.4999178961	-2.1406693976	-0.0273825888	 0.360345
O	-0.7730760492	-2.9075757808	 0.8792840151	-0.495417
C	-3.03052353	-2.292019834	-0.1190989345	-0.168413
C	-3.3703950213	-1.3615357076	-1.0148362823	-0.083448
H	 0.9633254685	 2.0017112067	 0.2691465489	 0.111206
H	-0.4070570446	 1.9195572549	-0.8444049632	 0.1142
H	-0.6896132339	 1.9953284664	 0.898126724	 0.114726
H	 0.6982381241	-0.3408618939	-0.5483052032	 0.096541
H	 0.4052174288	-0.2659478673	 1.1745116345	 0.111164
H	-2.0630643392	-0.1300958525	 0.7878391746	 0.064284
H	-2.0065898285	 0.0808405441	-2.1174258787	 0.063962
H	-1.5263069632	-2.7885717277	-2.2236970235	 0.08606
H	-0.0891374931	-1.8181453471	-1.745711895	 0.099324
H	-0.9269275011	-3.838520888	 0.6864956161	 0.279109
H	-3.6335834682	-2.9835326975	 0.4535164095	 0.096933
H	-4.3425741382	-1.0794911216	-1.3943536947	 0.100165
