18
gdb 48943	3.75611	1.42616	1.22791	3.357	76.09	-0.2159	-0.0328	0.1831	1028.6108	0.148749	-401.892005	-401.884816	-401.883872	-401.923774	28.314	
O	-0.1305692304	-0.006433065	-0.1315703563	-0.251607
C	-0.0213831729	 1.1829249445	 0.0413907111	 0.05419
C	 1.2667601949	 1.9331561307	 0.00033157	 0.244656
C	 1.4504267276	 3.1468087119	 0.958607069	-0.299254
C	 2.1702409927	 3.9523827149	-0.1505097516	-0.045705
C	 3.5898382447	 3.4243794155	-0.4458755364	-0.172356
N	 3.0629810096	 2.2544006942	-1.2335072927	-0.142239
C	 2.5771299252	 1.1837067188	-0.2956846679	-0.232292
C	 1.6848928114	 2.8953062317	-1.1881415482	-0.04294
H	-0.9201580328	 1.8182684014	 0.2283545967	 0.066847
H	 0.4758907428	 3.5924218363	 1.1872322779	 0.109523
H	 1.9840005369	 2.9646847809	 1.8966576501	 0.104974
H	 1.9862294758	 5.025368276	-0.2058230815	 0.076175
H	 4.1549408007	 4.0849410855	-1.1108033348	 0.112029
H	 4.2257865202	 3.1563283633	 0.4054720154	 0.101365
H	 3.2441778875	 0.9760620154	 0.5474868504	 0.102408
H	 2.3933388385	 0.2555089098	-0.8425628837	 0.130974
H	 1.1264821575	 3.0606144641	-2.1088528574	 0.083249
