19
gdb 33131	3.1274	1.02188	0.78261	2.2329	79.44	-0.1809	0.0386	0.2194	1460.3931	0.159665	-419.216833	-419.207277	-419.206333	-419.251849	34.787	
C	 0.0170445822	 1.5490315701	 0.0187335375	-0.399632
C	-0.0967253081	 0.0344781663	-0.1161805823	-0.109145
N	 0.8665384989	-0.4751128589	-1.075765945	-0.407048
C	 0.8805951039	-1.8320195773	-1.3617220873	 0.268687
C	 0.4491157203	-2.8856655117	-0.6079991467	-0.105334
O	 0.7421821624	-4.0705422896	-1.2343160713	-0.159159
C	 1.334559679	-3.7587466699	-2.4131752593	-0.056214
C	 1.4505535302	-2.4101083619	-2.5564253235	 0.076172
N	 2.0461884095	-1.6437727694	-3.5896702111	-0.618337
H	 1.0276507725	 1.8369336281	 0.322715153	 0.130818
H	-0.2070120355	 2.0473984002	-0.9317882709	 0.113868
H	-0.6904494412	 1.9239983528	 0.7633246107	 0.120912
H	 0.1095835041	-0.4352236953	 0.8548612399	 0.110036
H	-1.1306631303	-0.2476432279	-0.3829551795	 0.08887
H	 0.9972880402	 0.1061324978	-1.890846284	 0.227373
H	-0.0319417234	-2.9670906648	 0.3505085309	 0.118792
H	 1.6285522686	-4.5885560667	-3.0354445886	 0.119893
H	 2.628298809	-2.2195084468	-4.1869090043	 0.240908
H	 1.3463419778	-1.2082563954	-4.1844849682	 0.23854
