14
gdb 42723	3.86534	1.32479	1.22713	1.7643	70.93	-0.2709	-0.0252	0.2457	994.8758	0.101718	-399.543846	-399.536852	-399.535908	-399.575336	26.83	
N	-0.1147303904	-1.2335053001	-0.1348803631	-0.316172
C	-0.0563258773	-0.0820928708	-0.0566687136	 0.280335
C	-0.0189580207	 1.3727351983	 0.0063650366	-0.169719
C	-0.0977671248	 2.0576912437	 1.4162142382	-0.183705
C	 1.1529726027	 1.5257243833	 2.0932495056	-0.0808
C	 2.0930665213	 1.543460896	 1.1299464558	-0.0808
C	 1.3757911572	 2.0852819228	-0.0938429429	-0.183706
C	 0.6285925396	 3.2632125512	 0.6727829396	 0.409585
O	 0.6208734442	 4.4443525846	 0.6868244034	-0.281827
H	-0.7458827532	 1.7951503321	-0.6952548459	 0.137584
H	-1.0296053847	 2.1513961237	 1.9662704032	 0.106934
H	 1.2516351624	 1.311055402	 3.1467620726	 0.127674
H	 3.1524529081	 1.3468935551	 1.1990002381	 0.127679
H	 1.9009243656	 2.2062585681	-1.0368515877	 0.106938
