15
gdb 43305	3.32616	1.71271	1.28488	3.0559	70.59	-0.2403	-0.0679	0.1724	935.4337	0.114193	-420.582746	-420.576502	-420.575558	-420.613294	25.472	
O	-0.042715746	-0.0683726295	-0.0690281313	-0.328896
C	-0.0635628318	 1.1436227905	-0.0007798256	 0.384809
C	-1.3062342106	 1.9413796484	 0.0641763981	-0.214876
C	-1.1830076484	 3.2728475535	 0.1372801321	-0.061262
C	 0.1785303601	 3.8973349173	 0.1508817785	-0.06943
C	 1.2678732822	 3.2998735418	-0.7923380324	 0.037653
O	 2.3161509318	 3.8030250385	 0.1116855327	-0.3092
C	 1.2960525556	 3.1995319241	 0.9860377638	 0.037674
C	 1.2104392682	 1.9712252203	 0.0258388962	-0.130787
H	-2.2548729859	 1.4173393246	 0.0497700197	 0.119854
H	-2.0510944589	 3.923272196	 0.1877874677	 0.120076
H	 0.1928000319	 4.9852981006	 0.2120436413	 0.092739
H	 1.4029657877	 3.4416624361	-1.865143706	 0.109317
H	 1.4652091297	 3.2200076232	 2.0631789159	 0.109315
H	 2.1086523943	 1.3563972246	-0.0230592707	 0.103014
