17
gdb 80969	2.39574	1.43814	1.2753	1.7014	69.11	-0.2457	-0.0292	0.2165	1061.2978	0.134256	-458.911932	-458.903372	-458.902428	-458.945053	32.17	
O	 0.1844167903	 1.3409687034	 0.1071674123	-0.44956
C	 0.065945864	-0.0606221793	 0.0725150784	 0.06825
C	-0.1817162665	-0.8497447475	 1.4035531325	-0.117892
C	-1.5586319895	-0.1280826116	 1.5021331405	-0.304969
C	-1.3987626974	-0.5597012397	 0.0034556015	 0.365132
O	-2.293759243	-0.4401050115	-1.0361011082	-0.47315
C	-0.8919682865	-1.9412260576	 0.5483740742	-0.115217
C	-0.1289460166	-2.8813387304	-0.3417242895	 0.119282
O	 1.0644749764	-2.8680146658	-0.5270477282	-0.253692
H	 1.1178168406	 1.563403783	 0.1675188529	 0.291223
H	 0.7770904522	-0.5110241383	-0.6216481838	 0.099707
H	 0.5287331568	-1.0321748726	 2.2052272524	 0.089867
H	-2.3400825583	-0.6394056053	 2.0687586718	 0.094529
H	-1.5267831401	 0.940920675	 1.7039338629	 0.116943
H	-2.3122152011	 0.4859212691	-1.3050001849	 0.295797
H	-1.6843397507	-2.4941722111	 1.0645679694	 0.089583
H	-0.7690240305	-3.6450246897	-0.8398582743	 0.084165
