20
gdb 8512	4.13444	1.79673	1.5692	0.2684	79.13	-0.2364	0.0947	0.3311	917.1513	0.177106	-311.833634	-311.826077	-311.825133	-311.864654	30.549	
C	-0.0808934518	 1.4748629475	 0.0058027361	-0.505766
C	 0.0341154078	-0.0201714421	-0.0087901852	 0.3615
C	 0.9385681732	-0.8738069555	-0.8973802867	-0.318989
C	 0.071266225	-2.0903910325	-0.4589727678	 0.332026
C	-0.0784311037	-3.3027099483	-1.3388143915	-0.505232
C	 0.4040572151	-2.2255618004	 1.0573341076	-0.271551
C	-0.2917765381	-0.8791663246	 1.2266760361	-0.103552
C	-1.0682341936	-1.0532209048	-0.0600670446	-0.17643
H	 0.8302189325	 1.9431037474	 0.3976878678	 0.11708
H	-0.2509415265	 1.8723068481	-1.0016211928	 0.11464
H	-0.9159332639	 1.8011789331	 0.6356012205	 0.115763
H	 0.7876854174	-0.6339203365	-1.9556518497	 0.086969
H	 2.0144148928	-0.9160436151	-0.6819726583	 0.078795
H	 0.8787715647	-3.8287209316	-1.441647934	 0.116477
H	-0.8034335702	-4.0116760009	-0.9236803883	 0.114237
H	-0.4154775772	-3.0286231057	-2.3447632098	 0.114016
H	-0.171139861	-3.032743175	 1.5223530812	 0.09116
H	 1.4613797264	-2.3218086052	 1.335016306	 0.081621
H	-0.6344631209	-0.4130894132	 2.1425139555	 0.077175
H	-2.123229178	-0.9805473746	-0.2855353822	 0.080058
