24
gdb 117080	2.76044	0.94797	0.89336	3.2456	86.84	-0.2357	0.0379	0.2736	1517.8242	0.214946	-405.600364	-405.588903	-405.587959	-405.63801	41.802	
C	 0.4574272112	 0.6199400586	 0.8500064811	-0.370283
C	-0.1456292012	 0.5961637004	-0.5571836651	-0.144301
N	 0.6693035858	-0.1336242	-1.5181640592	-0.32962
C	 0.4845322168	-1.4625020398	-1.7584256677	 0.418666
O	-0.4061310754	-2.0982023003	-1.2146454937	-0.407416
C	 1.432455205	-2.1476281408	-2.7713273918	 0.160498
C	 2.0778095684	-3.3431628655	-2.0411086096	-0.395425
C	 0.5461816875	-2.6665884708	-3.9231229417	-0.39633
C	 2.5300824725	-1.2310110739	-3.3355542969	-0.447084
H	 0.5594044409	-0.3984959382	 1.2342800987	 0.140274
H	 1.4463317908	 1.0908557676	 0.8521348801	 0.10787
H	-0.1867019454	 1.183046659	 1.5331308264	 0.116581
H	-1.1207128649	 0.1047714478	-0.5371200002	 0.144441
H	-0.2864541571	 1.6161020195	-0.9317332113	 0.100422
H	 1.4536835429	 0.3378410867	-1.9331292564	 0.243251
H	 1.304842928	-3.9750567874	-1.599642532	 0.141671
H	 2.6707332739	-3.9417593638	-2.7405938094	 0.104811
H	 2.7421981392	-3.0062914616	-1.2376665189	 0.107905
H	 0.0945716304	-1.8389441186	-4.4809704504	 0.109761
H	 1.1423543739	-3.2607063044	-4.6238129083	 0.105589
H	-0.2585917072	-3.2890529746	-3.5267944788	 0.140927
H	 3.1952997995	-0.853901226	-2.5500995826	 0.112965
H	 3.1540108485	-1.7897758124	-4.040599607	 0.12049
H	 2.1131973059	-0.3787850815	-3.8841475153	 0.114338
