16
gdb 97758	4.60653	0.64184	0.62386	3.9445	77.78	-0.2616	0.0087	0.2703	1782.6976	0.122784	-437.839664	-437.830431	-437.829486	-437.875627	31.992	
O	 0.221309438	 1.1746015794	-0.7477672625	-0.406933
C	-0.0297274741	 0.4022566697	 0.4177612817	-0.214658
C	-1.2677269767	-0.3474152833	 0.25191185	 0.097936
C	-2.2849488293	-0.9799858603	 0.1330542469	 0.107235
C	-3.5190334088	-1.7156729294	-0.0188243502	-0.06387
C	-4.3810338327	-1.4351831451	-1.2807061404	-0.365719
C	-4.1119207556	-2.8897276584	-1.5965160511	 0.442956
N	-4.4562699886	-3.6713087555	-2.5120189614	-0.535893
O	-3.3246493014	-3.1047211625	-0.4816071152	-0.252161
H	 1.0538248731	 1.6386212255	-0.6120336342	 0.29325
H	 0.7876351543	-0.3106714135	 0.6139885929	 0.126579
H	-0.1168910244	 1.040073231	 1.3125696795	 0.122431
H	-4.0886495959	-1.7312263221	 0.9150179591	 0.12148
H	-5.4251941949	-1.1823195197	-1.0942715106	 0.142326
H	-3.9439701947	-0.7274326382	-1.9851301776	 0.154741
H	-4.0642906382	-4.6042598176	-2.3736116468	 0.2303
