20
gdb 57777	3.4545	0.70977	0.65737	1.4211	86.72	-0.2353	0.0257	0.261	1787.707	0.168639	-403.096089	-403.08558	-403.084636	-403.132797	37.699	
C	-0.012754128	 1.5780060253	 0.1988969468	-0.383566
C	-0.0240227975	 0.0512070618	 0.0335074247	-0.023921
O	 0.7508421998	-0.5911316453	 1.0448916789	-0.413321
C	-1.3933451679	-0.4721146511	-0.0191268301	 0.105661
C	-2.5225498701	-0.8978878801	-0.0257780307	-0.026464
C	-3.8721620645	-1.4048512142	-0.008446273	 0.172026
C	-4.9019647418	-0.536398236	 0.6889576417	-0.451589
C	-4.283751189	-2.2922205025	-1.141830076	-0.263004
N	-4.0557764692	-2.8675530454	 0.1880310226	-0.344461
H	 1.0211044574	 1.930210163	 0.2422837076	 0.125955
H	-0.5234798082	 2.0651318014	-0.6368019045	 0.125156
H	-0.5227351944	 1.8663827771	 1.1237984617	 0.116999
H	 0.490016509	-0.2032803445	-0.9015243969	 0.117204
H	 0.2589247249	-0.519927382	 1.8706476684	 0.281764
H	-4.9835829495	 0.4383344048	 0.1983684157	 0.123382
H	-5.8773795669	-1.0282550714	 0.6683491817	 0.128758
H	-4.622542277	-0.3715737891	 1.7339198774	 0.126478
H	-5.3219856561	-2.2791450005	-1.4633650663	 0.121358
H	-3.5600760398	-2.4783664092	-1.9294996597	 0.121438
H	-3.1447157212	-3.3191883622	 0.2139871499	 0.240149
