21
gdb 115433	4.72244	0.80067	0.71818	1.553	85.22	-0.254	0.0579	0.3118	1572.4554	0.182427	-387.068416	-387.058866	-387.057922	-387.103779	35.736	
O	 0.1682243797	 1.3301130037	-0.3777516843	-0.422488
C	 0.054454281	-0.0416183909	-0.0298080638	-0.095971
C	-1.4252126621	-0.3829096574	 0.0737664259	 0.048973
C	-2.205203638	-0.1587099459	-1.2436065793	-0.213092
C	-3.3420786125	-1.1849726176	-1.1911096232	-0.215367
C	-2.6392049202	-2.4423565169	-0.6252900637	-0.146735
C	-1.6755317543	-1.8703832067	 0.4593757746	-0.251672
C	-3.5378158686	-3.4773991011	-0.137832463	 0.298305
C	-4.2883365421	-4.3212210952	 0.2759952888	-0.449728
H	 1.1017472574	 1.5460282628	-0.4576874476	 0.286708
H	 0.5245516936	-0.6871042044	-0.7921478979	 0.07943
H	 0.5541911771	-0.2519195927	 0.9298018369	 0.085779
H	-1.8531561973	 0.2651962554	 0.8466308345	 0.082199
H	-2.5519297248	 0.8704778967	-1.354436643	 0.106828
H	-1.5534655803	-0.3712890622	-2.1014137295	 0.093906
H	-4.1250521644	-0.8624692277	-0.4951375688	 0.107171
H	-3.8158049147	-1.3718057756	-2.1583985495	 0.102498
H	-2.0296725437	-2.8683016828	-1.433714475	 0.0995
H	-0.7487778411	-2.4517306195	 0.5008259451	 0.100941
H	-2.1402826135	-1.946451441	 1.4452314236	 0.113473
H	-4.9492176614	-5.0695671611	 0.636811359	 0.189342
