20
gdb 91539	3.03828	1.32557	1.09794	2.2305	78.83	-0.2384	0.0697	0.3081	1175.6852	0.171035	-403.086985	-403.078482	-403.077538	-403.120261	32.551	
C	-0.1139399664	 1.5419598836	 0.0681798788	-0.411734
C	 0.0256090521	 0.0307235784	-0.0387995732	-0.048095
C	 1.1953939009	-0.562472469	-0.9122205346	-0.267056
C	 1.710021287	-1.2735920587	 0.3417770522	-0.047952
O	 1.9778611635	-0.2530360486	 1.3202165205	-0.296138
C	 0.6256998726	-0.7183549691	 1.17610469	 0.423282
C	-0.0686671401	-1.1983404725	 2.3944321303	-0.128723
C	 0.7071998858	-1.7099090765	 3.5498038227	-0.240383
N	 0.0193208564	-0.4107007788	 3.6442199057	-0.32631
H	 0.828495501	 1.9879487723	 0.3987222312	 0.130176
H	-0.3787012366	 1.9822740724	-0.8988783466	 0.115089
H	-0.8944830436	 1.818023085	 0.785429187	 0.121934
H	-0.924831165	-0.4300801918	-0.3281244597	 0.078183
H	 0.8445339728	-1.2435122914	-1.6909059031	 0.10667
H	 1.8914993101	 0.1609285334	-1.3445531122	 0.111046
H	 2.269309055	-2.1975466085	 0.4368415977	 0.104548
H	-1.0615129583	-1.602679484	 2.2097414746	 0.090663
H	 0.2878023362	-2.4969410632	 4.169732769	 0.116108
H	 1.7888383822	-1.7109933662	 3.4597669044	 0.125541
H	 0.7099971045	 0.325705423	 3.5093472553	 0.24315
