16
gdb 50839	5.21746	0.81403	0.78325	5.5351	67.97	-0.2563	-0.0435	0.2128	1431.5503	0.123799	-475.039363	-475.03059	-475.029646	-475.074889	29.831	
O	-0.5270926009	 0.171211189	 0.2203956912	-0.24375
C	-0.1637159566	 1.2293636131	-0.2074361056	 0.166859
N	 1.1343313165	 1.7415475357	-0.1688572549	-0.366059
C	 2.2819237058	 1.1412758133	 0.3712312156	 0.429316
O	 2.284506787	 0.0520236648	 0.8862211653	-0.304946
C	 3.5341836572	 1.9919956981	 0.2648897688	-0.179072
C	 4.2928727086	 2.2375079367	 1.5979686409	-0.066263
O	 5.5059557014	 1.6755586141	 1.0710580359	-0.266341
C	 4.8298876611	 1.2350366577	-0.1208953299	-0.068046
H	-0.8408349103	 1.9549055531	-0.7035522154	 0.088631
H	 1.2498266428	 2.6562290631	-0.5797872431	 0.257375
H	 3.38023099	 2.9056741282	-0.3130814189	 0.077129
H	 4.4140935587	 3.2847971833	 1.8951772817	 0.108753
H	 3.8971366579	 1.6528940038	 2.4366253556	 0.127427
H	 4.6993775074	 0.1475059572	-0.1425823004	 0.130894
H	 5.3328458032	 1.5751077188	-1.0323194269	 0.108093
