23
gdb 117888	3.56628	0.53616	0.4924	1.2181	92.91	-0.2394	0.0366	0.276	2311.5963	0.202778	-388.264315	-388.252453	-388.251508	-388.304252	40.819	
C	 0.1287007864	 1.6370813289	 0.059580856	-0.383909
C	 0.0813622317	 0.1071947904	 0.0010544121	-0.174847
C	 0.8003383731	-0.547438886	 1.185906422	-0.152102
C	 0.6924574793	-2.0916529864	 1.2300917975	-0.167008
C	 1.386515229	-2.7776967908	 0.0346860609	-0.382546
C	 1.2304832143	-2.6070134194	 2.4895668743	 0.053066
C	 1.7006159183	-3.0221595051	 3.5176923032	 0.116466
C	 2.2412019317	-3.5198416811	 4.7758914694	-0.216444
O	 3.4542084252	-4.2254952366	 4.5333208788	-0.409992
H	 1.1620738861	 2.0011013754	 0.0517730523	 0.115715
H	-0.3883042178	 2.085183651	-0.794675751	 0.111369
H	-0.3461158286	 2.0136287517	 0.9723769444	 0.114595
H	-0.9651610623	-0.2263528962	-0.0167841906	 0.093749
H	 0.5251299772	-0.2299638979	-0.9430124972	 0.100805
H	 1.8622994932	-0.2695340914	 1.1791678812	 0.102006
H	 0.3868871537	-0.1485365191	 2.1199976821	 0.100484
H	-0.3764006724	-2.3496471414	 1.1900710235	 0.098776
H	 2.4501276827	-2.5207261395	 0.0100298484	 0.125728
H	 1.305215037	-3.8646439837	 0.1143553403	 0.126182
H	 0.933268386	-2.4694593234	-0.9112284291	 0.115069
H	 2.4075341738	-2.6705188313	 5.4590792961	 0.112585
H	 1.4938585786	-4.171647585	 5.2580104463	 0.112707
H	 3.7776285437	-4.5371200032	 5.3848316191	 0.287546
