17
gdb 10874	2.39643	2.2531	2.05957	2.0304	69.93	-0.2414	0.0073	0.2486	823.6131	0.140842	-363.81354	-363.805696	-363.804752	-363.845276	29.443	
C	 0.0232719302	 1.5023231764	-0.097756824	-0.347414
N	 0.010738966	 0.0438970788	 0.0532357498	-0.11539
C	-1.1428476724	-0.5916449915	 0.8150789613	-0.13872
C	-0.201826878	-1.805810843	 1.0145029065	-0.256173
C	 0.7078779583	-0.5705877732	 1.2771531473	 0.208237
C	 2.1858656856	-0.4961098037	 1.5027912207	-0.523532
C	-0.4867465677	 0.027207954	 2.0737898021	 0.386085
O	-0.7153059881	 0.7692404641	 2.9789277518	-0.325584
H	 1.0111667047	 1.8037609537	-0.4588015428	 0.128221
H	-0.7092186897	 1.7743073404	-0.863665715	 0.129436
H	-0.20303982	 2.0678311616	 0.8187755626	 0.129067
H	-2.1638101738	-0.5652388402	 0.4396233782	 0.097999
H	-0.40437218	-2.4726417208	 1.8539818483	 0.10831
H	 0.0347205654	-2.3270125007	 0.0854673226	 0.111495
H	 2.7334755805	-0.9388049011	 0.6652115548	 0.134611
H	 2.5120881404	 0.541959425	 1.6220517039	 0.135968
H	 2.4548709486	-1.0363484897	 2.415543262	 0.137384
