20
gdb 73897	2.52745	1.15498	0.88264	4.2166	86.75	-0.2399	0.0096	0.2495	1361.2898	0.171249	-366.057823	-366.048517	-366.047572	-366.092621	33.841	
C	 0.151147404	 1.540218921	 0.0722417374	-0.501079
C	 0.0392706991	 0.0518305365	-0.0320430997	 0.217352
C	-1.0601593118	-0.7107549982	-0.0792877837	 0.242178
C	-2.4943753507	-0.2464554516	-0.0151161337	-0.452718
C	-3.2626553906	-0.6315237512	-1.2046535122	 0.266891
N	-3.8563640429	-0.9445590631	-2.1453870102	-0.314861
C	-0.7346172632	-2.1884336911	-0.1343076471	-0.30226
C	 0.7784918225	-2.2066755453	-0.452265259	-0.209191
C	 1.2905127197	-0.8048993124	-0.0459059924	-0.285161
H	 0.6928586549	 1.827048855	 0.9827903422	 0.131032
H	 0.7258619816	 1.9454549707	-0.7698957361	 0.13455
H	-0.8175402549	 2.0459259562	 0.0874553213	 0.121808
H	-2.9984540086	-0.6845038596	 0.8579244578	 0.154556
H	-2.560413028	 0.8395239339	 0.0989492886	 0.151592
H	-0.9585060172	-2.6643910302	 0.832350627	 0.101734
H	-1.3293757688	-2.7232229592	-0.8832968096	 0.122531
H	 1.309072113	-3.0169741268	 0.0532166582	 0.099857
H	 0.9207930483	-2.3478574749	-1.5278610257	 0.112561
H	 2.0520890296	-0.4171214999	-0.7329983711	 0.10373
H	 1.7552914739	-0.8071090299	 0.951232568	 0.104898
