15
gdb 14075	3.83245	1.63413	1.37008	3.2883	62.36	-0.2707	-0.0045	0.2662	918.7048	0.119046	-399.799014	-399.791647	-399.790703	-399.830758	26.8	
C	-0.0743144814	 1.5144592482	-0.1199293385	-0.395785
C	 0.0179695118	 0.0143822414	 0.0065387511	-0.063569
N	 1.3519624494	-0.58516478	-0.1334760805	-0.371697
C	 0.6912806529	-0.6351771296	 1.1603663213	 0.125207
C	 1.1988516886	-0.1383763342	 2.5075604635	-0.145652
O	 0.6513530772	-1.3543538655	 3.126832136	-0.252797
C	 0.2293746411	-1.8544062344	 1.9147217702	 0.421375
O	-0.2846245242	-2.9016007383	 1.6819082662	-0.342976
H	 0.809926734	 1.9938560854	 0.3081846796	 0.130264
H	-0.1392353207	 1.8059011142	-1.173063243	 0.133909
H	-0.9644545603	 1.8939891654	 0.3921413058	 0.127585
H	-0.8198341672	-0.5472431738	-0.4044632806	 0.114002
H	 1.3037679514	-1.4997094493	-0.5790103121	 0.253101
H	 2.2838602379	-0.0989046221	 2.6192057099	 0.137272
H	 0.7249002195	 0.7537532826	 2.921657711	 0.129759
