16
gdb 44550	3.50142	1.49536	1.40933	4.8301	67.57	-0.2398	0.0367	0.2765	944.6383	0.12643	-437.888047	-437.881324	-437.88038	-437.919349	26.816	
O	 0.0171098726	-0.0098082353	 0.1545283214	-0.369805
C	-0.0324197391	 1.1935749143	 0.0615805126	 0.406157
C	-1.3023758232	 2.0625624486	 0.0184983396	-0.347335
C	-0.806088502	 3.50974445	 0.0352759633	-0.067707
C	-0.691616871	 4.2141841471	 1.4009288535	 0.015831
O	-0.0049820818	 3.3181717686	 2.2800752807	-0.230166
C	 0.7793338667	 4.124978037	 1.402326434	 0.011636
C	 0.767675763	 3.4304811213	 0.0115808252	-0.061654
N	 1.0574696385	 2.0298017671	-0.0613392288	-0.280133
H	-1.8649073036	 1.8148494716	-0.8858780632	 0.12894
H	-1.92584305	 1.8062503449	 0.8778830358	 0.142394
H	-1.2226730218	 4.1466271921	-0.745073467	 0.090057
H	-1.3577867029	 4.9400450932	 1.8523620002	 0.111277
H	 1.5355167923	 4.7610591313	 1.8481969731	 0.110448
H	 1.2575410065	 4.0209918027	-0.7674136455	 0.089386
H	 1.9823933558	 1.6417830356	 0.0415461051	 0.250673
