19
gdb 98767	3.96557	1.09834	0.95136	3.5253	77.53	-0.2269	0.0576	0.2844	1279.7912	0.159731	-419.201484	-419.192512	-419.191568	-419.235861	32.557	
C	-0.0584605441	 1.3376788993	 0.2140698896	-0.3228
N	-0.0662773855	-0.1023507949	 0.0349807887	-0.349563
C	-1.2626877914	-0.7831653557	-0.0431160677	 0.448388
O	-2.3469750015	-0.2836065077	 0.2014863352	-0.407528
N	-1.132693587	-2.104142588	-0.4493268147	-0.134755
C	-0.0390645883	-3.0576190426	-0.1266228646	-0.204296
C	-1.098959202	-4.1286180677	 0.1562118423	-0.083998
C	-2.0643322983	-3.6364715604	 1.2088954172	-0.277528
C	-2.1659997802	-3.0967198186	-0.1863262439	 0.009995
H	 0.7995048863	 1.6390634142	 0.8225513861	 0.11818
H	-0.0227985794	 1.8823774669	-0.7389170652	 0.118789
H	-0.9803499514	 1.6107066267	 0.7280969536	 0.167657
H	 0.7253093545	-0.5111754687	-0.4353017195	 0.242442
H	 0.5917128595	-3.2741941776	-0.9958635125	 0.11197
H	 0.5932882064	-2.760438333	 0.7189563396	 0.113258
H	-1.0305818238	-5.1630555894	-0.1488838777	 0.100793
H	-2.8364930437	-4.3474141177	 1.4856944262	 0.118798
H	-1.7267069982	-2.9939524583	 2.0175933615	 0.119726
H	-3.0491733418	-3.1631166869	-0.807806644	 0.110472
