19
gdb 76309	2.2492	1.45326	1.00847	4.5277	77.23	-0.2457	0.0125	0.2582	1214.6813	0.157725	-419.196316	-419.186624	-419.18568	-419.230871	35.111	
C	 0.1452368498	 1.590003545	 0.0775879523	-0.402477
C	 0.0750958313	 0.0835319669	-0.0764644104	 0.020739
C	 0.7566108606	-0.6030374633	-1.3007147878	 0.118432
O	 1.7896566079	 0.0989768	-1.9236367983	-0.415649
C	 1.1986451999	-1.6963308465	-0.2638246313	-0.184131
C	 2.5593881187	-2.2194878276	-0.3478809067	 0.301835
N	 3.6441182636	-2.6120124401	-0.4189711853	-0.326057
N	 0.9633967356	-0.7108387289	 0.80505439	-0.085748
C	 0.4762862965	-1.1826301519	 2.0841693601	-0.339551
H	 1.1624018808	 1.9571148931	-0.0793593787	 0.118408
H	-0.5125103292	 2.0803369325	-0.6468225095	 0.12732
H	-0.1754301547	 1.8904136301	 1.0803941315	 0.122968
H	-0.9730814679	-0.258449893	-0.0057070596	 0.063185
H	 0.0945265687	-0.9519249934	-2.0929682013	 0.107007
H	 2.4519232696	 0.331902279	-1.2619352657	 0.298911
H	 0.4874687591	-2.5394814614	-0.2543047521	 0.10402
H	 1.2384817802	-1.8038648988	 2.5646362721	 0.139579
H	 0.2785234779	-0.3289390171	 2.7392499659	 0.131845
H	-0.4529059681	-1.7756336446	 1.9971410849	 0.099365
