16
gdb 127638	2.49591	1.87912	1.07959	2.555	77.49	-0.2053	-0.0301	0.1752	1062.9399	0.126108	-434.119373	-434.111174	-434.11023	-434.152104	30.713	
C	-0.0099562626	 1.3998641197	-0.0015994297	-0.31377
N	-0.0153759925	-0.058953993	-0.0131576816	-0.066901
N	-0.0523543263	-0.6403295664	-1.2389201925	-0.249481
C	-0.0443804156	-1.9456688966	-1.2537162617	 0.023241
C	-0.0059013625	-2.7694803899	-0.1040163055	-0.244906
C	 0.0202794637	-2.1705197799	 1.1281851724	 0.250609
N	 0.0179460035	-2.7743011919	 2.3431152226	-0.570649
C	 0.0274716843	-0.7035617912	 1.2028277779	 0.416767
O	 0.0756333711	-0.0929479068	 2.2708442821	-0.435119
H	 0.8960090421	 1.7695596984	 0.4856959487	 0.147234
H	-0.0518449863	 1.7305857311	-1.0372877442	 0.146883
H	-0.8696037744	 1.7748808298	 0.5595700803	 0.14819
H	-0.0719391881	-2.3883853622	-2.2440384865	 0.118343
H	-0.0036814572	-3.849232684	-0.2104830767	 0.094214
H	 0.2530303377	-3.7469005549	 2.4331972777	 0.259812
H	 0.193484033	-2.1558919223	 3.1223243866	 0.275533
