21
gdb 97968	4.77046	0.46779	0.44288	1.2388	85.26	-0.246	0.0381	0.2842	2454.32	0.179418	-424.195282	-424.18386	-424.182916	-424.235559	39.459	
C	-0.0209656738	 1.4459090938	-0.3778472128	-0.40878
C	-0.0191568477	-0.0324432802	 0.0094851248	 0.137455
O	 0.5593684343	-0.2291593102	 1.2998071627	-0.428189
C	-1.4169729645	-0.6575393303	-0.0773821023	-0.181219
C	-1.4118006158	-2.1588248333	 0.270430696	-0.359323
C	-2.7405851841	-2.7578035448	 0.2604357709	 0.000237
C	-3.8552010408	-3.2169323897	 0.25966136	 0.106964
C	-5.1863149817	-3.8195718697	 0.2110458173	-0.190702
O	-5.7081304916	-3.9422844772	-1.1067559831	-0.404095
H	 0.985875009	 1.8625491622	-0.2887871048	 0.125813
H	-0.3674529398	 1.5870068291	-1.4065696606	 0.119154
H	-0.6885742536	 2.0183257926	 0.2786608706	 0.108239
H	 0.6521804945	-0.5769153324	-0.6675842309	 0.088732
H	 0.0558553268	 0.3014977574	 1.9278750568	 0.277273
H	-2.0936076261	-0.1292898511	 0.607856838	 0.097375
H	-1.8226787785	-0.5131320109	-1.0851613239	 0.107933
H	-0.7620054155	-2.6926669054	-0.4363744083	 0.124408
H	-0.9486465975	-2.2873305342	 1.255331994	 0.142781
H	-5.1638663737	-4.7957583708	 0.7222350528	 0.114782
H	-5.9051842937	-3.1972653277	 0.7560005746	 0.135781
H	-5.030766236	-4.3686072072	-1.6419311917	 0.285382
