18
gdb 47569	2.63365	1.59302	1.08653	3.604	72.8	-0.2403	0.0261	0.2663	1098.6879	0.150104	-439.093692	-439.085977	-439.085033	-439.126149	29.861	
O	-0.3553973887	-0.0855307743	 0.2366095473	-0.366162
C	-0.2522190445	 1.1096906778	 0.0264946988	 0.345587
C	-1.3193574422	 1.7507845164	-0.8782128612	-0.177569
O	-1.297864409	 3.1207163043	-1.1974622077	-0.240566
C	-1.1694141899	 3.9819951485	-0.0777857489	-0.125462
C	 0.2926039513	 4.2997536203	 0.1349859884	-0.006621
C	 0.9576129316	 4.2336497222	 1.4860299629	-0.317187
C	 1.2258523928	 3.1669305611	 0.4428564433	 0.018516
N	 0.7195699369	 1.843984182	 0.6582600061	-0.311296
H	-1.2834551161	 1.2070642279	-1.8260218082	 0.144398
H	-2.2698574676	 1.4792215386	-0.3912627397	 0.126737
H	-1.7312934626	 4.8931164894	-0.3074224828	 0.114326
H	-1.6184265673	 3.5318925586	 0.8187865191	 0.10041
H	 0.688026159	 5.0266402295	-0.5677294366	 0.102245
H	 1.742771479	 4.9440739068	 1.7184967798	 0.120456
H	 0.3445175689	 3.9361567362	 2.3301705629	 0.123265
H	 2.1963193894	 3.1952959935	-0.0478190642	 0.104103
H	 1.2805577891	 1.2488724613	 1.2557830806	 0.244819
