17
gdb 52829	2.72059	0.99072	0.95518	2.8098	79.07	-0.2472	0.0124	0.2596	1360.4818	0.13476	-417.969319	-417.959542	-417.958598	-418.005915	33.964	
C	 0.0153886845	 1.4998372822	-0.0676624249	-0.499425
C	 0.0236037236	 0.0453903062	-0.0195689132	 0.031815
C	 0.0145747876	-1.1589488262	 0.0135273369	 0.067459
C	 0.0505208093	-2.6158057932	 0.0382065417	-0.007208
N	 1.0002979541	-3.2325024701	-0.8905449397	-0.561501
C	 0.0574993218	-3.257651239	 1.4595800969	-0.088805
O	-1.2579264738	-3.8465965052	 1.2098836294	-0.253328
C	-1.3117105803	-3.3150474619	-0.0517495441	 0.43054
N	-2.1593064965	-3.408842838	-0.9670344456	-0.549237
H	 0.7143615154	 1.8760228141	-0.8226280861	 0.151505
H	-0.9810373046	 1.8788429679	-0.3193595451	 0.157338
H	 0.302761835	 1.9321541723	 0.8969587783	 0.150878
H	 0.5902554157	-3.2073552715	-1.8209487202	 0.251625
H	 1.8445845024	-2.6680239616	-0.9320320939	 0.233919
H	 0.8154936926	-4.0310142815	 1.5920572169	 0.12863
H	 0.0218277119	-2.5651732598	 2.3017384826	 0.123684
H	-2.9473433086	-4.0000075149	-0.6980713698	 0.232111
