18
gdb 30057	3.01842	1.40227	1.01367	1.3042	79.74	-0.2054	0.0298	0.2352	1166.4789	0.148407	-401.956692	-401.948232	-401.947288	-401.990749	30.788	
C	-0.287885726	 1.4854462006	-0.0471070012	-0.347585
N	-0.0943957372	 0.0485485873	-0.0230828539	-0.042961
C	-0.1680911735	-0.7852816851	-1.1077734955	-0.105624
C	 0.0842318438	-2.0725706458	-0.6898495499	-0.159888
C	 0.3269057711	-2.0150350606	 0.706182682	-0.238072
C	 0.2131614551	-0.6956640244	 1.0980200061	 0.31169
C	 0.3271924954	-0.0713639246	 2.427880531	-0.091672
C	 1.342243447	-0.5091343671	 3.393476148	-0.161129
O	 1.5097105895	 0.7215395523	 2.6982224502	-0.234731
H	 0.5150928983	 1.9837178979	 0.5013596259	 0.166708
H	-0.2738843218	 1.8291203081	-1.0827858909	 0.138539
H	-1.2478662354	 1.7701204803	 0.3992460748	 0.134489
H	-0.3831216932	-0.3877066507	-2.087471601	 0.113912
H	 0.0998399576	-2.9501485078	-1.317309354	 0.094986
H	 0.5514725617	-2.8427976484	 1.3617210578	 0.09291
H	-0.5740491646	 0.392947331	 2.8329511888	 0.097198
H	 1.1384889507	-0.4239463079	 4.4601341136	 0.111155
H	 2.0319160415	-1.302661265	 3.1118049282	 0.120074
