21
gdb 117892	3.07937	0.59306	0.52327	1.0325	86.59	-0.247	0.0309	0.2779	2159.0382	0.178376	-424.180683	-424.169035	-424.16809	-424.219909	39.349	
C	-0.2737980198	 1.418439017	 0.1675301959	-0.384286
C	 0.0445812948	-0.0578962134	-0.0009173492	-0.030581
O	 0.6481011084	-0.5156888606	 1.1952829367	-0.253945
C	 0.919807745	-1.9135467598	 1.2229454779	-0.043789
C	 2.2264660583	-2.2562175884	 0.4872871047	-0.392303
C	 0.9717639084	-2.3438211767	 2.619871662	 0.053064
C	 1.0253822016	-2.7293695862	 3.7583359631	 0.14107
C	 1.1104506822	-3.1738288127	 5.1427392147	-0.219088
O	-0.1070830992	-3.8045263327	 5.5230457826	-0.408814
H	 0.6406078905	 1.9886525746	 0.3540103503	 0.127094
H	-0.7502696046	 1.8111015896	-0.7358524996	 0.112957
H	-0.9495376268	 1.5692289559	 1.0138613706	 0.129704
H	-0.8759696672	-0.6314572312	-0.2019770799	 0.088133
H	 0.7118832538	-0.2051702411	-0.8649547889	 0.086736
H	 0.0885477765	-2.4499027177	 0.7339923693	 0.094889
H	 3.0629226952	-1.7297776602	 0.9536102686	 0.132292
H	 2.4173889527	-3.3318343781	 0.5339144593	 0.125775
H	 2.167082599	-1.9633733128	-0.5646397263	 0.117115
H	 1.9648059885	-3.8626638017	 5.2479531354	 0.115155
H	 1.3253844185	-2.3018579861	 5.7819163255	 0.119785
H	-0.0144575362	-4.0729248476	 6.4429144172	 0.289035
