19
gdb 62880	2.83408	1.57831	1.15938	2.7007	72.02	-0.2498	0.0572	0.307	1084.4508	0.15613	-460.091976	-460.083025	-460.082081	-460.124713	35.415	
C	-0.0446517911	 1.5671299689	-0.1170550791	-0.469553
C	 0.0069056357	 0.0461920051	-0.0872856106	 0.42702
O	-1.2021032883	-0.49794988	-0.5575801458	-0.470599
C	 1.3030944597	-0.6345361384	-0.6028059173	-0.085104
O	 1.9997789766	-0.0327471998	 0.5701426952	-0.340293
C	 0.7454269276	-0.6103780507	 1.1325794116	-0.111489
C	 1.0734137737	-1.9083468438	 0.3018118949	 0.483559
C	 0.0791346254	-3.0111500314	 0.0049163968	-0.47616
O	 2.2585881613	-2.5425319758	 0.6893862046	-0.486385
H	 0.8952825649	 2.0070468	 0.2114687359	 0.151247
H	-0.2699137844	 1.9102675455	-1.1319684434	 0.126064
H	-0.8437927824	 1.9287484327	 0.5434046126	 0.108042
H	-1.9205042856	 0.0642350117	-0.2513924726	 0.284925
H	 1.7985859856	-0.5423147887	-1.5712967218	 0.09164
H	 0.5875568579	-0.4862586176	 2.2061910886	 0.087215
H	-0.8919454558	-2.633001883	-0.2974768834	 0.147915
H	 0.4864532331	-3.6490453796	-0.7855646231	 0.124726
H	-0.0287175894	-3.6327719366	 0.8993362779	 0.122713
H	 2.8784372455	-1.8221271085	 0.8768093889	 0.284519
