18
gdb 45089	2.80148	1.71867	1.25959	2.9701	75.39	-0.2352	-0.0149	0.2204	1006.0196	0.149683	-401.929323	-401.922204	-401.921259	-401.960723	28.963	
O	-0.0079410414	-0.0244111808	-0.2427496326	-0.329689
C	 0.0142065204	 1.1747317113	-0.0740036544	 0.414704
C	-1.2622773278	 1.9879303865	 0.148890037	-0.371998
C	-1.2875903497	 3.2697740662	-0.684095851	-0.000923
C	-1.0131738265	 4.6042690642	-0.078198292	-0.254362
N	-0.0337186524	 3.9718291665	-0.9569522681	-0.093961
C	 1.2036824636	 3.4301908325	-0.4485114694	 0.01492
C	 1.4682821968	 3.0464855856	 0.9746194609	-0.317341
C	 1.2816944553	 1.9540535182	-0.0794502913	-0.128195
H	-2.108958467	 1.3447367519	-0.0962447267	 0.132642
H	-1.3342811049	 2.2184770085	 1.2188459577	 0.126913
H	-1.9457703739	 3.2224979081	-1.5491399075	 0.104015
H	-1.4788195499	 5.5037246461	-0.4724578923	 0.120223
H	-0.8122785089	 4.6327912166	 0.9909774467	 0.110684
H	 2.0597780692	 3.8133573361	-0.9958763632	 0.11215
H	 2.4724500153	 3.1878695696	 1.3580974527	 0.12924
H	 0.6920982113	 3.1640607312	 1.7210259394	 0.123279
H	 2.1505110806	 1.3818881518	-0.3816622259	 0.107702
