21
gdb 92849	2.89183	1.47991	1.05503	0.0681	93.65	-0.1947	0.0018	0.1965	1195.9498	0.184673	-349.992705	-349.984469	-349.983525	-350.026092	32.004	
C	-0.0803202964	 1.556108967	 0.0160246673	-0.388265
C	 0.0222167196	 0.0246214273	 0.0076098221	-0.128326
C	 0.8546940959	-0.5331555161	-1.2033886247	-0.267251
C	 1.977320994	-1.3403057004	-0.5781990011	-0.260034
C	 1.894356766	-1.3182716618	 0.7574483414	 0.327376
C	 2.6230621103	-1.8580170292	 1.9633366174	-0.363158
C	 1.7954768027	-1.3079798402	 3.175550401	-0.247414
C	 0.6709607964	-0.5058170818	 2.5434819185	-0.265533
C	 0.7544971111	-0.5322039443	 1.2077025373	 0.348329
H	 0.9154941479	 2.0102624674	 0.0538410804	 0.118619
H	-0.5852369895	 1.9203399344	-0.8849813258	 0.110382
H	-0.6422719357	 1.9098237648	 0.886243744	 0.114152
H	-0.9938624365	-0.3858510681	-0.0293152175	 0.086182
H	 0.2353882805	-1.1455287352	-1.8719348171	 0.102125
H	 1.2425156597	 0.2860973951	-1.825145317	 0.100347
H	 2.72850942	-1.8470365292	-1.1735556226	 0.085493
H	 2.6556682542	-2.9522853404	 1.9626507615	 0.116259
H	 3.6626980962	-1.5167397471	 1.9975695633	 0.116113
H	 1.4093034349	-2.1207465094	 3.8044725415	 0.104506
H	 2.4127607882	-0.6871342649	 3.8379341792	 0.104703
H	-0.0793143594	 0.0037677521	 3.1375524711	 0.085395
