20
gdb 75799	3.0636	1.26298	1.06019	3.7451	79.76	-0.2418	0.0375	0.2793	1197.0143	0.170998	-403.169893	-403.161122	-403.160177	-403.203414	33.473	
C	-0.1271045863	 1.5462284216	 0.1815959603	-0.407649
C	 0.0067804459	 0.0315685272	 0.1270142418	-0.248652
C	 0.9940736946	-0.5161367367	-0.9346919775	 0.449465
O	 1.1069342489	-0.4417741941	-2.1294401076	-0.373529
N	 1.7385194214	-1.1321634368	 0.041627065	-0.408372
C	 0.9148029088	-0.7129249451	 1.1707152924	 0.416597
C	 1.5046035367	 0.0362923291	 2.3928738843	-0.280558
C	 0.4701877331	-0.7014052561	 3.2865087867	-0.209474
C	 0.2741218527	-1.7351057093	 2.1438330381	-0.282865
H	 0.8493716437	 2.0336622326	 0.2609264473	 0.125391
H	-0.6025793793	 1.9072523758	-0.7351847212	 0.138556
H	-0.740224868	 1.8672011854	 1.0301092309	 0.11756
H	-0.9758715016	-0.4419594893	 0.0362820024	 0.098361
H	 2.5575848115	-1.7211231023	-0.0121963009	 0.241296
H	 2.5264728465	-0.2989995852	 2.5966141916	 0.1015
H	 1.4951062779	 1.1283501379	 2.3796297136	 0.105159
H	 0.8192757897	-1.0793479958	 4.2488485066	 0.103325
H	-0.4276224512	-0.1006067961	 3.4534847229	 0.109101
H	-0.7384969117	-2.0800804936	 1.9186922249	 0.102875
H	 0.9186926765	-2.609894259	 2.2771809784	 0.101914
