14
gdb 44270	3.24903	1.49714	1.22057	2.7539	61.28	-0.2497	-0.0562	0.1935	977.1975	0.102122	-473.849151	-473.84208	-473.841136	-473.881158	26.248	
O	-0.3452081535	 0.3850521256	 0.7386070782	-0.309597
C	-0.0992949908	 1.4015637613	 0.1788504754	 0.438179
O	-0.9860124014	 2.2479343104	-0.4574934342	-0.256874
C	 0.0811708161	 3.2065937408	-0.7864651053	 0.008904
C	 1.1217046756	 2.3142350428	-0.0922531832	-0.196372
N	 1.6445952329	 3.0817772742	 1.0337192258	-0.308146
C	 0.6448590224	 4.0766108921	 1.4378987016	-0.295828
C	-0.0490179546	 4.4364736522	 0.1216208433	 0.424547
O	-0.5807722178	 5.4731724432	-0.1607545434	-0.285455
H	 0.1206081987	 3.4161690691	-1.8531971772	 0.12416
H	 1.9157543123	 1.8551416341	-0.683334974	 0.124914
H	 1.9511507948	 2.4864923298	 1.7940572231	 0.247055
H	-0.1223678237	 3.7039995629	 2.138365805	 0.138179
H	 1.109362339	 4.9585052215	 1.8850926648	 0.146334
