19
gdb 58759	2.49543	1.55973	1.16161	1.0617	71.16	-0.2564	0.0632	0.3196	1097.3812	0.157716	-460.095227	-460.086498	-460.085554	-460.128482	33.907	
C	 0.4948403661	 0.2991518962	-0.935602192	-0.417001
C	-0.0024285477	-0.0540722247	 0.4682795375	-0.010539
O	-0.0466169615	 1.0857292997	 1.318448136	-0.428975
C	-1.3522155542	-0.7217250914	 0.4423729796	 0.362768
C	-2.2734107441	-1.1094630013	 1.6185719833	-0.268018
C	-3.1017383324	-1.1803058899	 0.325638505	-0.010373
O	-2.4857627968	 0.1026760271	-0.1196730689	-0.391217
C	-1.9316981414	-1.9250110889	-0.3761614663	 0.135916
O	-1.8557084401	-1.8862086426	-1.7601031058	-0.44191
H	 1.4798688677	 0.7674389488	-0.8719073009	 0.12334
H	 0.5568618543	-0.5918149045	-1.5672553609	 0.134048
H	-0.1930659662	 1.0052057613	-1.4130568072	 0.120159
H	 0.7016781725	-0.7472092954	 0.9455158342	 0.098369
H	-0.7799455857	 1.631499826	 1.0089307326	 0.288225
H	-2.060659277	-2.0413319401	 2.1486607145	 0.101433
H	-2.5282552368	-0.2863130438	 2.2838768113	 0.12019
H	-4.1780052982	-1.2818198946	 0.1868713523	 0.10091
H	-1.6878851244	-2.9334943731	-0.0356286166	 0.093678
H	-2.1053342841	-0.9814088187	-1.9997582075	 0.288998
