19
gdb 48240	2.36561	1.22242	0.9248	4.0496	79.83	-0.2494	-0.0228	0.2266	1309.3695	0.160266	-419.221518	-419.212675	-419.211731	-419.255771	32.216	
N	-1.9940353275	 1.5990860234	-0.1001386556	-0.464087
C	-2.1932056686	 0.343848509	-0.1108586755	 0.102033
N	-1.1645158308	-0.5940916822	-0.0596756544	-0.101386
C	 0.1638380359	-0.1799681121	 0.0076626102	 0.157481
O	 1.1029394335	-0.9404346366	 0.0544548469	-0.318071
C	-1.4590402864	-2.0220969117	-0.0756901219	 0.058795
C	-2.426103032	-2.6473367723	 0.9647527342	-0.246446
C	-2.8822460841	-3.6317269538	-0.1487842669	-0.207868
C	-2.3164433855	-2.6455730081	-1.2091744796	-0.246451
H	-2.879475367	 2.097601557	-0.1449037392	 0.233356
H	-3.1775423351	-0.1306217847	-0.1612781544	 0.104551
H	 0.2498440072	 0.9143130986	 0.0128505558	 0.140817
H	-0.4859433928	-2.5100411595	-0.0270022797	 0.133163
H	-1.9835076978	-3.0551249847	 1.8759468538	 0.112651
H	-3.2321777032	-1.96224724	 1.2443117603	 0.104019
H	-2.3170455207	-4.566544837	-0.1210298763	 0.115093
H	-3.9459912383	-3.8684789826	-0.202634104	 0.105679
H	-3.0903438773	-1.9599594276	-1.5673227833	 0.10402
H	-1.7843657397	-3.0519237051	-2.0718618604	 0.112651
