17
gdb 65003	1.91597	1.69545	1.05841	4.3918	76.18	-0.3089	-0.0106	0.2983	1151.5988	0.134942	-380.881041	-380.871926	-380.870982	-380.915091	33.163	
C	-0.1912338067	 1.4788317899	 0.4035626565	-0.473785
C	 0.0300933737	 0.0311866122	 0.0108004947	 0.338096
C	 1.3886651219	-0.3962348715	-0.4797367165	-0.291848
C	 0.9061731137	-0.8313508268	 0.8845160552	-0.322942
C	-1.2243181758	-0.604064317	-0.630584914	-0.350072
C	-1.5881905957	 0.0872023102	-1.8804967028	 0.311793
N	-1.8647381109	 0.6631810218	-2.8419990672	-0.310591
C	-1.0905850486	-2.0457973127	-0.8810837253	 0.300454
N	-0.9746958659	-3.1819320115	-1.0501869186	-0.315534
H	 0.7171311542	 1.8915104182	 0.8497749531	 0.130041
H	-0.4493809805	 2.0958644496	-0.4632286081	 0.149805
H	-0.9973001823	 1.5736487486	 1.1408737955	 0.123726
H	 1.4460436873	-1.1553230471	-1.2521426571	 0.142188
H	 2.1564744958	 0.3663222494	-0.5446009508	 0.125734
H	 1.3354429985	-0.3612960873	 1.762324268	 0.123245
H	 0.6539343978	-1.8774909405	 1.014742878	 0.144386
H	-2.0662773065	-0.4772220854	 0.0650883292	 0.175303
