15
gdb 27779	2.05077	1.75937	0.95254	3.4426	73.89	-0.2186	-0.0411	0.1775	1165.3016	0.112063	-457.843855	-457.835835	-457.834891	-457.876502	30.107	
C	-0.0178668516	 1.5240439164	 0.0289229394	-0.484621
C	 0.0018034262	 0.0198874535	 0.0054958808	 0.358711
C	-0.0214012839	-0.6693071303	-1.1755733341	-0.378397
C	-0.003672147	-2.1001894133	-1.23420087	 0.428461
O	-0.0198371602	-2.8438932946	-2.1727460596	-0.33754
O	 0.0404340547	-2.7333636017	 0.0689226011	-0.273627
C	 0.0621252152	-2.0373043265	 1.199433434	 0.506577
O	 0.1023476831	-2.8056182661	 2.2914978242	-0.394438
C	 0.0452537447	-0.6806669796	 1.2450636791	-0.391548
H	 0.8709530877	 1.9117904324	 0.5391639713	 0.143473
H	-0.0503338159	 1.9427943958	-0.9785629825	 0.135238
H	-0.8885057711	 1.8879913038	 0.5859161404	 0.143503
H	-0.0545491162	-0.1631991712	-2.1315792416	 0.114892
H	 0.1068042714	-3.7287069529	 2.0036568726	 0.315744
H	 0.064679203	-0.1748246557	 2.1994645949	 0.113575
