17
gdb 43180	2.33249	2.16905	1.30215	4.111	73.92	-0.237	-0.0076	0.2295	970.0033	0.137432	-417.935159	-417.928026	-417.927082	-417.966742	27.92	
N	-0.0737165591	 1.2414948838	-0.1959207311	-0.522056
C	-0.0461353666	-0.0018858703	-0.0024177805	 0.348608
C	-1.1404977766	-1.0720801079	 0.0274845165	-0.033195
O	-1.4890319271	-1.5543640971	 1.3470795925	-0.286481
C	-0.558438334	-2.6665999251	 1.2605767738	-0.150921
C	 0.0209139899	-2.1012470965	-0.0275573762	 0.320706
C	 0.798975958	-2.6639536385	-1.2207827548	-0.358244
C	 1.7031182569	-1.3989030201	-1.1353131161	-0.184425
N	 1.0109425833	-0.96948331	 0.1356285073	-0.170615
H	 0.8729223871	 1.6310918534	-0.2181253313	 0.222789
H	-2.0026267142	-0.9691162032	-0.6349220636	 0.098595
H	 0.1241232132	-2.7141651953	 2.1154475577	 0.119296
H	-1.0930181783	-3.6191294383	 1.1488925778	 0.106808
H	 1.3267155327	-3.5927069356	-0.9907959622	 0.123522
H	 0.2320017103	-2.803787026	-2.1432172692	 0.122727
H	 2.7678425973	-1.5877475849	-0.9835835567	 0.122097
H	 1.5801216872	-0.6793261684	-1.9501325637	 0.120791
