16
gdb 123464	5.21457	0.94452	0.83496	1.89	70.15	-0.2588	-0.002	0.2568	1322.4853	0.126522	-434.046639	-434.038965	-434.038021	-434.080227	27.628	
C	 0.1117570028	 1.3177885704	 0.647743676	-0.348306
C	-0.0761587277	-0.0687786626	 0.0687308462	 0.097794
C	-1.3819013924	-0.5449718246	-0.400342099	-0.181104
O	-0.3765853355	-0.1299492068	-1.3287829185	-0.233371
C	 1.4222766628	 1.9260792226	 0.2506870454	 0.305146
N	 2.2929833162	 2.3937198625	 1.1498667223	-0.271946
N	 3.2961905784	 2.8365570588	 0.4020858616	-0.072421
N	 3.1667476668	 2.6996578318	-0.9101432703	-0.192009
C	 1.9737225949	 2.118384608	-1.032271355	-0.1197
H	-0.7161892729	 1.9503792956	 0.3062929683	 0.120158
H	 0.062136256	 1.2729940968	 1.7405270615	 0.12651
H	 0.6546758041	-0.8107524275	 0.3933664871	 0.102108
H	-1.6047902913	-1.6106922187	-0.398632414	 0.118316
H	-2.2488344882	 0.1105205342	-0.3261877299	 0.11565
H	 4.115564261	 3.2544614172	 0.8118131184	 0.292022
H	 1.5685624949	 1.8607589122	-1.9971301101	 0.141153
