18
gdb 45234	3.25619	1.70169	1.5262	2.932	74.41	-0.2384	-0.0235	0.2149	920.2025	0.151417	-401.942793	-401.936521	-401.935576	-401.973268	26.587	
O	-0.0078859631	-0.0209108804	-0.1333806733	-0.32199
C	-0.0378791753	 1.1762415655	-0.0216218328	 0.417585
C	-1.2679488839	 2.0911699475	 0.0596182382	-0.332505
C	-0.6204313469	 3.3691918274	 0.5960639567	 0.007046
C	 0.0130057979	 3.056738946	 1.9978811149	-0.251142
C	 1.4356047893	 2.7813935235	 1.4830558388	-0.03961
C	 1.651637983	 4.0556406087	 0.6355789098	-0.172565
N	 0.6017772908	 3.4998396526	-0.2924794429	-0.141986
C	 1.1430676933	 2.1262349488	 0.0794460273	-0.108079
H	-1.6623465923	 2.2419902995	-0.9523444761	 0.137936
H	-2.0559675935	 1.66754552	 0.6854445682	 0.126089
H	-1.2398345088	 4.2644564798	 0.5515453078	 0.079631
H	-0.01076255	 3.9059005408	 2.6856112346	 0.104136
H	-0.456714716	 2.202767081	 2.4936009235	 0.108972
H	 2.1725101644	 2.378170042	 2.1787771631	 0.075719
H	 1.4176558383	 5.0275943915	 1.0820797037	 0.100142
H	 2.6126250117	 4.1009018113	 0.1184004372	 0.11269
H	 2.0266979411	 1.8321354346	-0.4858256788	 0.097931
