23
gdb 95402	2.1684	1.51937	1.03058	1.499	87.98	-0.2382	0.0219	0.2601	1267.0082	0.206075	-388.320753	-388.311132	-388.310188	-388.3545	37.279	
C	-0.0334070658	 1.5630599462	 0.0384085022	-0.401517
C	 0.0448875523	 0.0351242472	-0.0040530665	 0.01539
C	 0.7326478046	-0.4874108371	-1.2716441005	-0.208451
C	 0.6504676446	-2.0167373987	-1.3442353388	-0.263554
C	 0.9574097413	-2.6682386493	-0.0219961129	-0.137649
C	 0.9894712437	-2.0303368985	 1.1523745477	 0.276112
C	 1.3148948377	-2.7199796645	 2.4502631798	-0.480002
C	 0.7448737003	-0.53662847	 1.2459839378	 0.045952
O	 1.9752104364	 0.141013171	 1.5495730305	-0.438655
H	 0.967409004	 2.0026175159	 0.0571226158	 0.123125
H	-0.5670765558	 1.9500507399	-0.8359009727	 0.102907
H	-0.5595699425	 1.9091207759	 0.9346871133	 0.10854
H	-0.9789840454	-0.3674548968	 0.008029051	 0.069957
H	 0.2835308657	-0.0376110047	-2.1636257293	 0.091431
H	 1.7857033849	-0.171645956	-1.2675570928	 0.084556
H	-0.3575792707	-2.3187358163	-1.6686000081	 0.108836
H	 1.3288067063	-2.4044535815	-2.1148819072	 0.100714
H	 1.1504578786	-3.739974282	-0.0432870448	 0.077974
H	 1.5889866237	-3.7673106166	 2.2972656307	 0.114347
H	 2.1422052073	-2.2117184473	 2.9580344951	 0.134415
H	 0.4600773273	-2.688590222	 3.1385355315	 0.121257
H	 0.1143363294	-0.3282834245	 2.1202378145	 0.077267
H	 2.6370618922	-0.1842134902	 0.9298331837	 0.277047
