21
gdb 77727	2.60296	1.55541	1.46836	1.4714	81.16	-0.2169	0.0728	0.2897	1040.8188	0.184702	-387.061777	-387.05392	-387.052976	-387.09345	32.31	
O	 0.1360466243	 1.1975112001	 0.140351968	-0.429719
C	-0.0839955685	-0.1840389707	 0.1539898237	 0.028842
C	-0.5703877558	-0.8215966702	 1.4142526903	 0.235484
C	-1.5411302305	 0.1112171659	 2.1648234655	-0.282369
C	-2.4558298279	 0.1599899771	 0.8974396562	-0.280359
C	-1.4719442014	-0.7715806184	 0.1604653013	 0.188313
C	-1.6760705853	-2.1874343771	-0.3405431834	-0.29575
C	-0.547519319	-3.0091638741	 0.3616852421	-0.215597
C	-0.2141619392	-2.2670074176	 1.695281444	-0.296891
H	-0.118114252	 1.5269874798	-0.7281655449	 0.285197
H	 0.6606598046	-0.7554851864	-0.4006983128	 0.079699
H	-2.0215147373	-0.3875485063	 3.0099322658	 0.094858
H	-1.122925897	 1.0616531869	 2.5032197927	 0.109453
H	-3.4276607973	-0.3123714215	 1.0595455306	 0.096984
H	-2.6177525019	 1.1445910067	 0.4494172042	 0.089545
H	-2.6617690344	-2.5422251228	-0.0156520421	 0.098389
H	-1.6382839276	-2.3071574897	-1.4296656685	 0.093323
H	-0.8381712243	-4.0504298747	 0.5294682196	 0.097671
H	 0.3411266715	-3.0381456848	-0.277543359	 0.106008
H	 0.8244903871	-2.4376883469	 2.0001032956	 0.098592
H	-0.8513091982	-2.6398018354	 2.5062146311	 0.098329
