15
gdb 75666	2.85207	1.3418	1.11999	3.5653	71.15	-0.2722	-0.0427	0.2294	1091.6708	0.111871	-416.800743	-416.79259	-416.791646	-416.833584	29.804	
C	-0.0535191253	 1.6493226773	 0.0070389703	-0.420512
C	 0.0650474744	 0.1332452153	 0.0623631976	-0.191457
C	 1.1212053692	-0.600844803	-0.7844665702	 0.406421
O	 1.4242152601	-0.6313016698	-1.9317766179	-0.278771
N	 1.6649327934	-1.3865896464	 0.3272109223	-0.188343
C	 2.2031987071	-0.3706962753	 1.2702244241	-0.273962
C	 0.7379250034	-0.5742709611	 1.2549878993	 0.16925
C	 0.0248376485	-1.1931545992	 2.3297123789	 0.223765
N	-0.5757980452	-1.6510144462	 3.2055401089	-0.324941
H	 0.8928356727	 2.1434267016	 0.2430063354	 0.128746
H	-0.351511729	 1.9583445611	-0.9988313818	 0.151263
H	-0.8106150236	 2.005054591	 0.7115594309	 0.142903
H	-0.905087242	-0.3356573217	-0.1374572541	 0.141704
H	 2.7656532679	-0.815209393	 2.0838973977	 0.165526
H	 2.6217563384	 0.5494646594	 0.8712559986	 0.148407
