20
gdb 110851	2.22245	1.34691	1.13586	2.8945	75.	-0.2373	0.0536	0.2909	1194.4464	0.169569	-440.228699	-440.219086	-440.218142	-440.26294	35.758	
C	-0.0439720193	 1.5814882244	 0.1113214768	-0.50019
C	-0.2059661454	 0.0885482009	 0.0830581187	 0.281371
C	-0.1598222008	-0.7541748979	 1.2983023404	-0.065885
C	-1.0798270036	-1.8859558317	 1.6992346113	-0.112906
O	-0.4371609925	-2.7588668956	 2.6207205273	-0.419468
N	 0.963194056	-0.8796007826	 0.3295500448	-0.198934
C	 0.466841551	-1.7131401239	-0.8241721392	-0.189024
C	-0.6397032845	-0.6991845217	-1.1636468433	 0.044579
O	-1.9413368803	-1.2406563455	-1.2410988484	-0.421817
H	 0.5753521625	 1.8901054725	 0.9580367381	 0.135535
H	 0.4309679046	 1.9465723095	-0.8060250949	 0.122174
H	-1.0168704504	 2.0790808242	 0.2082192694	 0.118903
H	 0.1981183973	-0.2141004007	 2.1745568861	 0.100097
H	-1.9372752362	-1.4654137801	 2.2363448495	 0.109579
H	-1.4814227432	-2.4228534546	 0.8350006232	 0.118209
H	 0.3853888489	-3.0509955648	 2.2137761925	 0.288244
H	 1.2481430943	-1.7904576008	-1.5819950155	 0.11413
H	 0.1242579513	-2.7183327136	-0.5644195738	 0.111542
H	-0.400424359	-0.1311644379	-2.0729639202	 0.079215
H	-2.5624348509	-0.5261812501	-1.4166875827	 0.284646
