19
gdb 102539	2.33502	1.25617	0.97485	2.9597	69.02	-0.2547	-0.0385	0.2162	1257.6805	0.156315	-497.28647	-497.276459	-497.275515	-497.321613	35.744	
C	 0.0194764031	 1.2902828592	-0.3271934276	-0.243804
O	-0.1121643216	 0.0044902125	 0.2469772443	-0.249233
C	-1.3660449338	-0.6219571612	 0.0656380264	 0.073196
C	-1.8171652149	-0.7073468875	-1.4056928372	-0.088298
O	-0.7955351539	-1.1409195653	-2.2689238375	-0.41848
C	-1.2139764883	-2.017699339	 0.6963727353	 0.029663
O	-0.4553127332	-2.8935713765	-0.1056936498	-0.438475
C	-0.5669864423	-1.8944509872	 2.065461958	 0.157981
O	 0.432651407	-2.5086299941	 2.3434617759	-0.262822
H	 0.96821821	 1.6961665629	 0.0314475138	 0.131374
H	 0.0433666862	 1.2399379227	-1.4216235457	 0.139933
H	-0.7927000681	 1.9623471556	-0.009886296	 0.101901
H	-2.1524883161	-0.0829640164	 0.6283670144	 0.063035
H	-2.7120327181	-1.3526304871	-1.4465648884	 0.089942
H	-2.1291502325	 0.2830909564	-1.75394818	 0.107118
H	-0.4019472974	-1.9188917824	-1.84864657	 0.297242
H	-2.2248738081	-2.4342278691	 0.8411815779	 0.103273
H	 0.3318031283	-3.1107680604	 0.4219790016	 0.302719
H	-1.0683624863	-1.223525243	 2.7897079346	 0.103737
