18
gdb 16349	2.59729	2.19714	1.405	2.9623	73.17	-0.2348	-0.0164	0.2184	933.2623	0.152684	-347.808324	-347.800284	-347.79934	-347.840965	30.125	
C	-0.4550047605	 1.4090967312	 0.0344709426	-0.401274
C	 0.0506116983	-0.0251705431	-0.056848423	-0.081952
C	 1.3757862706	-0.2398734783	-0.8686989316	-0.36981
C	 2.0125357008	-0.8383504099	 0.4008527802	 0.352727
O	 3.0824195342	-1.3158337446	 0.6619287491	-0.318033
C	 0.7596496298	-0.6031551353	 1.1901457233	 0.238524
C	 0.7244824828	-0.1427202088	 2.633062242	-0.310255
C	 0.2427589913	-1.5127955606	 2.2824040189	-0.310368
H	 0.3348148445	 2.0836136442	 0.3827721083	 0.118114
H	-0.797167076	 1.7664180069	-0.9425078674	 0.11916
H	-1.2968538547	 1.4940162785	 0.7305163737	 0.115256
H	-0.7492761324	-0.6825738346	-0.4117261438	 0.078301
H	 1.322051078	-0.9282653438	-1.7164164004	 0.128477
H	 1.8620674059	 0.6830041815	-1.201453059	 0.127425
H	 1.6821688028	-0.0418956152	 3.1327101656	 0.13507
H	-0.0104744168	 0.6125635173	 2.8912681868	 0.122563
H	-0.8254032046	-1.7038840811	 2.298836506	 0.121093
H	 0.8671904759	-2.3622586341	 2.5390185288	 0.134982
