18
gdb 47522	2.54621	1.81337	1.32554	2.9404	70.94	-0.22	-0.0249	0.1951	985.476	0.150235	-439.078164	-439.070844	-439.069899	-439.109877	29.077	
O	 0.0265141564	 0.022665146	-0.5205127906	-0.306418
C	 0.0189923209	 1.146321502	-0.0740920448	 0.360835
C	-1.2714455009	 1.9226382488	 0.2228522205	-0.255114
N	-1.368131797	 3.2185118016	-0.4517954036	-0.292605
C	-0.4989514459	 4.2938152222	 0.0160934119	-0.178431
C	 0.9877585384	 3.9549642491	 0.164757037	 0.11486
C	 1.5793233304	 3.0098621329	-0.9031979875	-0.289691
C	 1.3193581678	 1.914582518	 0.1634123344	 0.013137
O	 1.1590199711	 2.9269983459	 1.1815087772	-0.292378
H	-2.1102716179	 1.2898679453	-0.0806394587	 0.12196
H	-1.3371058813	 2.0919007612	 1.3038194373	 0.135223
H	-1.293867897	 3.0994572138	-1.455052317	 0.225222
H	-0.6164573443	 5.141766793	-0.6693767949	 0.105403
H	-0.8520314797	 4.62575746	 1.0017896678	 0.120297
H	 1.5654375517	 4.8540245171	 0.4070637181	 0.082805
H	 1.0682427347	 2.9248726529	-1.8638116002	 0.10803
H	 2.6450025724	 3.1722852925	-1.0678425215	 0.124268
H	 2.1294592202	 1.2131252977	 0.3771117846	 0.102597
