18
gdb 28577	4.8971	0.96832	0.85366	3.6652	80.14	-0.2138	0.0257	0.2395	1363.4428	0.149764	-398.146643	-398.138159	-398.137215	-398.180902	30.868	
C	-0.1151849605	 1.4732692519	 0.117478811	-0.499414
C	-0.0400092094	-0.0101873682	-0.0236450361	 0.340548
N	 0.0237664818	-0.6770395717	-1.1553756494	-0.291883
C	 0.0805722868	-2.0073574498	-0.8034433083	-0.184847
C	 0.0420702433	-2.1596508769	 0.5589209847	 0.295577
N	-0.0296818392	-0.8649524331	 1.0454499521	-0.343941
C	 0.088726529	-3.3436814488	 1.4399903373	-0.144886
C	-1.1712548432	-3.9333360541	 1.9846695102	-0.232955
N	-0.4032835222	-4.6404702231	 0.9499826032	-0.305652
H	 0.7374710506	 1.8746583183	 0.6774807691	 0.131494
H	-0.1120652424	 1.9163665048	-0.879007077	 0.159365
H	-1.0286686766	 1.7902338864	 0.6341477861	 0.12993
H	 0.1608653849	-2.7822958106	-1.5512354931	 0.107373
H	-0.0930685105	-0.6082643082	 2.0168064776	 0.260266
H	 0.9852085137	-3.4408871775	 2.052182483	 0.103975
H	-1.1666782162	-4.4066317548	 2.9625526838	 0.119632
H	-2.1078604491	-3.4595431868	 1.7043414756	 0.116817
H	-0.8557198508	-4.5047998379	 0.0488904603	 0.238597
