13
gdb 127912	3.99534	1.20284	0.9298	3.5876	69.01	-0.2808	-0.1064	0.1744	1169.1314	0.087741	-486.046166	-486.038058	-486.037114	-486.079533	28.483	
C	 0.0804409742	 1.4405850452	-0.1066042579	-0.336311
N	-0.0116096671	-0.0042498411	-0.1262490995	-0.294885
C	-1.1066576309	-0.602527464	 0.0550567644	 0.508949
N	-1.1853092796	-1.9861903138	 0.0354654377	-0.43792
C	-2.3255967254	-2.731135454	 0.2217643884	 0.521893
O	-2.3621396297	-3.9268649371	 0.1990349082	-0.351137
O	-3.4526283084	-1.993749753	 0.4422809529	-0.274495
N	-3.4095331398	-0.5053541593	 0.4712863263	 0.062166
N	-2.349357951	 0.061640598	 0.2949302987	-0.119253
H	 0.8029689489	 1.7318482101	 0.6635988851	 0.144255
H	 0.491862664	 1.7750994497	-1.0652173269	 0.144259
H	-0.8689962882	 1.9527671706	 0.0770232868	 0.144366
H	-0.330616047	-2.4991976115	-0.1305197042	 0.288114
