17
gdb 27637	2.99793	1.21623	0.87466	6.5879	84.83	-0.2156	0.0003	0.2159	1298.266	0.136605	-380.94911	-380.940076	-380.939132	-380.983035	32.524	
C	-0.0028058696	 1.4926048253	 0.0625748433	-0.504367
C	 0.007547481	 0.0044389363	-0.0477241111	 0.327723
C	-0.032458559	-0.8217246122	-1.1395997027	-0.34681
C	 0.0021016611	-2.1728309339	-0.6606217269	 0.117457
C	-0.0203451493	-3.3551526581	-1.437383537	 0.191843
N	-0.038567972	-4.3277949711	-2.0684926895	-0.367119
C	 0.0627229352	-2.131285736	 0.725209538	 0.220559
C	 0.1180567348	-3.2335574858	 1.7273621481	-0.518278
N	 0.0648926866	-0.8088796212	 1.0702314548	-0.347779
H	 0.898242942	 1.875262354	 0.557546771	 0.132368
H	-0.0472574436	 1.9372064389	-0.9337551337	 0.146494
H	-0.8685962376	 1.8578362949	 0.6285808075	 0.13251
H	-0.0810437648	-0.5146235317	-2.1720375722	 0.114941
H	 1.0306119403	-3.1880888691	 2.33375616	 0.136178
H	-0.7369276328	-3.2043769352	 2.4134202958	 0.136123
H	 0.1038340781	-4.1971614173	 1.2141903512	 0.166459
H	 0.1033420096	-0.4724183178	 2.0180926934	 0.261698
