21
gdb 120505	3.06985	1.015	0.89201	0.707	81.51	-0.2504	0.0102	0.2606	1424.3393	0.181196	-424.237177	-424.227622	-424.226678	-424.272371	34.91	
C	-0.3291428985	 1.3559096445	-0.3646586052	-0.384645
C	-0.1040982456	-0.1293812992	-0.1419058678	-0.03836
O	 0.6149840141	-0.6446920299	-1.2557850066	-0.253567
C	 0.9312769656	-2.0085772445	-1.1472461459	 0.176927
O	-0.2109518922	-2.8459154413	-1.2400990107	-0.275279
C	-0.2379636267	-3.5163168366	-2.5075322874	 0.0788
C	-1.4035535769	-3.0225561143	-3.3675214757	-0.389081
C	 1.1192727915	-3.2377848285	-3.0975532714	-0.085941
C	 1.7905038772	-2.3984408798	-2.3204058771	-0.119764
H	 0.6254627951	 1.8804661898	-0.4653421265	 0.123068
H	-0.9087065199	 1.5236242736	-1.2769401384	 0.12604
H	-0.8768146796	 1.7882380509	 0.4782997349	 0.113467
H	 0.4707174736	-0.3013634605	 0.7833947979	 0.083939
H	-1.0599138338	-0.6597193212	-0.0373308762	 0.106506
H	 1.3885294168	-2.1916066716	-0.1603408139	 0.066625
H	-0.3701738458	-4.5890225687	-2.303243284	 0.085967
H	-1.2935536079	-1.9538433597	-3.5701904218	 0.130405
H	-1.4387203266	-3.5622684503	-4.3200428734	 0.110076
H	-2.350519228	-3.1858633751	-2.8454754377	 0.124339
H	 1.4481434234	-3.6636518883	-4.0372671516	 0.10852
H	 2.7745732843	-1.9809217394	-2.4834177016	 0.111958
