17
gdb 105847	2.09916	1.63022	1.22989	3.3384	68.75	-0.2272	-0.0008	0.2264	1085.4314	0.13563	-455.114017	-455.105111	-455.104166	-455.14779	32.461	
C	 0.1418562591	 1.4227194313	-0.2726985888	-0.334718
N	-0.1560323351	 0.0258661265	 0.0639316516	-0.38062
C	 0.5504503807	-0.4775983092	 1.1728488353	 0.125111
C	 2.0307996788	-0.878998744	 1.0667641524	-0.026238
N	 3.0771444458	-0.2739310385	 1.8411617244	-0.5253
C	 1.0408365907	-1.8865412248	 1.543307491	-0.014004
O	 0.7694993751	-1.6411607938	 2.9499525192	-0.2779
C	 0.1924708296	-0.4035450706	 2.6435645112	 0.399979
O	-0.4141708317	 0.3059733393	 3.3773204723	-0.326504
H	 1.2072353398	 1.5166112498	-0.5015229163	 0.138841
H	-0.4239039688	 1.7000143098	-1.1662727091	 0.121564
H	-0.0977026009	 2.1335122251	 0.5310426257	 0.127356
H	-1.1547718435	-0.1045283664	 0.1830651223	 0.232152
H	 2.29353737	-0.995938376	 0.0176679683	 0.122216
H	 2.8581865146	-0.3410621944	 2.8317348394	 0.250824
H	 3.9407064361	-0.7915551631	 1.7036926652	 0.237756
H	 0.7691994296	-2.8562946711	 1.149481126	 0.129484
