20
gdb 116817	6.49809	0.42774	0.41809	3.8019	83.37	-0.2463	-0.0193	0.227	2546.7886	0.167319	-440.286437	-440.275434	-440.27449	-440.325252	36.062	
C	-0.1289786263	 1.472439003	 0.0582214799	-0.250114
O	 0.0139244251	 0.0642713405	-0.0879911988	-0.190726
C	-1.1242914251	-0.6484543258	-0.0029258507	 0.13093
N	-1.1084501269	-1.9015607799	-0.1169613362	-0.211164
C	-2.3758060739	-2.5979805876	-0.0249490342	-0.155713
C	-2.6526405097	-3.3848538284	-1.3122308013	-0.179244
C	-3.9431234762	-4.2164532204	-1.2264367828	-0.274377
C	-4.1425983472	-5.0655084772	-2.4604095032	 0.160548
O	-5.1142200399	-5.0388867041	-3.170709255	-0.238233
H	 0.8714320056	 1.8941751959	-0.0435572534	 0.148783
H	-0.7765949318	 1.8939263547	-0.7200721743	 0.128715
H	-0.5302707015	 1.7351905773	 1.044523878	 0.128587
H	-2.0300934041	-0.0454150845	 0.1730932872	 0.073419
H	-2.3201889879	-3.3050152872	 0.8140245437	 0.106945
H	-3.2222580806	-1.9190044108	 0.1832189933	 0.08235
H	-2.7171023907	-2.6845643255	-2.1534164746	 0.111336
H	-1.7938829904	-4.0358763319	-1.5131491405	 0.119149
H	-3.874319686	-4.8976764677	-0.3649929074	 0.117972
H	-4.8271320382	-3.586102125	-1.0908186141	 0.119371
H	-3.2874106042	-5.7460587455	-2.6866843756	 0.071468
