17
gdb 14070	3.46761	1.67459	1.39327	2.4559	70.64	-0.2312	-0.0215	0.2097	947.446	0.141377	-363.845041	-363.837072	-363.836128	-363.87747	29.369	
C	-0.0625956946	 1.4701212693	-0.1036983396	-0.395871
C	 0.0790568625	-0.032478341	-0.0514613345	-0.039568
C	 1.4334760409	-0.6835406229	-0.1225990345	-0.355653
C	 0.677845443	-0.6784604945	 1.1825292866	 0.221345
N	 1.0302793956	 0.0191453195	 2.436050041	-0.379669
C	 0.5280454655	-1.1345233208	 3.2529877702	-0.28626
C	 0.1114405358	-1.8383329001	 1.9437947162	 0.326304
O	-0.4381614893	-2.8622179294	 1.6562720593	-0.309155
H	 0.7381362409	 1.9582234852	 0.4590738196	 0.123639
H	-0.0292128985	 1.8318409576	-1.1368774782	 0.119856
H	-1.0121187497	 1.789275215	 0.3372507258	 0.12642
H	-0.7370064548	-0.6007042939	-0.4913878147	 0.106893
H	 1.5445894721	-1.6347925247	-0.6327780344	 0.133195
H	 2.3005793221	-0.0308140084	-0.1762076881	 0.118985
H	 2.0344766719	 0.1276863212	 2.5363075982	 0.224282
H	 1.2911013377	-1.677885934	 3.8214509144	 0.128323
H	-0.2949136612	-0.8689363682	 3.9239678524	 0.136934
