14
gdb 18198	4.46408	1.77453	1.46042	2.378	63.06	-0.2575	0.0322	0.2896	843.1994	0.106493	-382.475902	-382.469094	-382.46815	-382.506989	25.599	
C	 0.0888728989	-1.2242529382	 0.0734959515	-0.427667
C	 0.0491177279	-0.0243895428	 0.0796310093	 0.317693
C	 0.0139048124	 1.4322711837	 0.033492499	-0.067119
O	-0.6273420393	 1.9438561383	 1.2066163329	-0.26458
C	-0.0677335213	 3.2072770202	 1.5518370385	-0.105482
C	 1.3202120612	 3.2186275987	 0.9513317415	 0.024177
O	 2.0645266903	 2.03292855	 1.2542232699	-0.236421
C	 1.3834332394	 2.1052525653	 0.0056426953	 0.006531
H	 0.1258297045	-2.285640686	 0.0839447568	 0.201316
H	-0.5317743251	 1.7509645162	-0.872081864	 0.101555
H	-0.6557646676	 4.0409279699	 1.1348698854	 0.09921
H	-0.0740664504	 3.2843180506	 2.6436287873	 0.126918
H	 1.8868810339	 4.1392610302	 0.8457598421	 0.108759
H	 1.9893334351	 2.0835146239	-0.8951244354	 0.115111
