23
gdb 92473	2.39886	1.57963	1.55883	1.4639	83.3	-0.2315	0.0703	0.3018	1058.8589	0.209701	-388.318014	-388.31001	-388.309066	-388.350525	32.446	
C	-0.2357573695	 1.5411058104	 0.0089319619	-0.416997
C	 0.0317316867	 0.0339765303	 0.0006784322	 0.046575
C	 0.8055881352	-0.4455026189	-1.263702748	-0.230939
C	 1.9519902976	-1.3778137973	-0.8282146221	-0.023895
C	 2.9794568057	-0.5702990867	-0.0133670534	-0.206497
C	 2.2678439303	 0.0079691202	 1.2431336577	-0.216453
C	 0.8080518872	-0.4681702691	 1.235003861	 0.103093
O	 0.7830755379	-1.8993318661	 1.2466161743	-0.284617
C	 1.3769761183	-2.4722051824	 0.0762382107	-0.061303
H	 0.6936279199	 2.1196511497	-0.0367738954	 0.114973
H	-0.8413350811	 1.8297170996	-0.8568148758	 0.114839
H	-0.7776881609	 1.8478150642	 0.9105666557	 0.111762
H	-0.9353546112	-0.4804765443	 0.0385491235	 0.077036
H	 0.1331608501	-0.9644523304	-1.9551237465	 0.093916
H	 1.2193314102	 0.4109453325	-1.8097195764	 0.08857
H	 2.4274570197	-1.8399230576	-1.6994411466	 0.06012
H	 3.8140889267	-1.2166438834	 0.2774668249	 0.095231
H	 3.3998572013	 0.2282896731	-0.6335627212	 0.091807
H	 2.7435764846	-0.3468215153	 2.1616869945	 0.103009
H	 2.3126901959	 1.1014240624	 1.2652427385	 0.096999
H	 0.295389653	-0.1683838634	 2.1540808693	 0.065514
H	 0.6156838915	-3.0601323816	-0.4581628013	 0.08709
H	 2.1670810709	-3.1671080059	 0.3949524724	 0.090168
