19
gdb 111949	3.17664	1.21783	0.94475	3.9061	78.91	-0.2376	-0.0493	0.1883	1254.7101	0.158309	-423.049963	-423.040752	-423.039808	-423.084967	33.21	
C	 0.1095331135	 1.4852773811	 0.0053652121	-0.239333
O	-0.1114796236	 0.094950381	-0.068057971	-0.236073
C	 0.586089297	-0.5516231905	-1.1193851853	 0.070379
C	 2.035504724	-0.8414177643	-0.7713274044	-0.071926
C	 2.3656059273	-2.1254298204	-0.9358075224	-0.178583
C	 1.1876802487	-2.9049296836	-1.3856887916	 0.381464
O	 1.1554179563	-4.0816129655	-1.6612560019	-0.336923
C	-0.0171443883	-1.9464033669	-1.4247344686	-0.15878
C	-1.1050116002	-2.4126872442	-0.4479532552	-0.376987
H	 1.1541552162	 1.7370588246	 0.241301279	 0.107427
H	-0.1606254277	 1.9875353162	-0.9366923737	 0.109121
H	-0.5268732455	 1.8686977677	 0.8062942051	 0.134023
H	 0.5460678787	 0.0892905282	-2.0163005666	 0.078513
H	 2.7063396014	-0.0585645664	-0.4339377676	 0.117292
H	 3.3340650418	-2.5809628584	-0.7704523892	 0.119466
H	-0.4267004374	-1.9720741	-2.4401196101	 0.101242
H	-0.7454558827	-2.3949438959	 0.583971911	 0.126943
H	-1.9838898491	-1.7675322404	-0.5051185341	 0.121595
H	-1.3913683002	-3.4367732023	-0.7005009153	 0.131141
