20
gdb 6553	3.11903	1.5458	1.39685	2.6939	71.25	-0.2522	0.062	0.3142	1022.7942	0.173846	-386.126141	-386.116718	-386.115774	-386.159703	35.355	
C	-1.89759911	 0.7311481727	 1.6006167692	-0.443046
C	-0.8367194152	 0.2682675465	 0.6318988939	 0.064717
O	 0.0723266832	 1.2570537285	 0.1330948611	-0.265159
C	 0.6169231797	 0.1659249959	 0.8743185076	 0.064501
C	 1.4052656027	 0.4592075345	 2.1550117763	 0.290155
C	 1.9059732866	-0.87065863	 2.7394793147	-0.429375
C	 2.5719205725	 1.388389087	 1.804384947	-0.387659
O	 0.6496544956	 1.1634301774	 3.1404810629	-0.449263
H	-1.5091758734	 1.5067665619	 2.2584839298	 0.1539
H	-2.7492133839	 1.1359608704	 1.0436559979	 0.124733
H	-2.2710793219	-0.1076401267	 2.200438515	 0.109512
H	-1.2192063278	-0.3928464054	-0.1512865723	 0.084098
H	 1.148606795	-0.5514302883	 0.2407960288	 0.078187
H	 2.5618534176	-1.3988119593	 2.0409087449	 0.121372
H	 2.4633729093	-0.6810301893	 3.6607779907	 0.126764
H	 1.0660915527	-1.5365206915	 2.9739370227	 0.108171
H	 2.1816663362	 2.3319976095	 1.4169664445	 0.142748
H	 3.1694573851	 1.5913665255	 2.6971771252	 0.116769
H	 3.2163198765	 0.9390352936	 1.0431521958	 0.110655
H	 0.0365271997	 0.541631117	 3.5455158242	 0.27822
