16
gdb 47882	2.3427	1.75752	1.14057	4.9457	65.94	-0.2354	-0.0704	0.165	1044.4894	0.125269	-475.03725	-475.029124	-475.02818	-475.070662	29.421	
O	-0.0395879761	-0.0084381476	 0.0636764862	-0.267577
C	-0.0662154257	 1.1950525818	 0.0679271968	 0.262913
C	-1.3536983121	 2.0059212053	 0.104065802	-0.277398
N	-1.7729708103	 2.3838682486	-1.2530526148	-0.28475
C	-0.6918866505	 2.8613243229	-2.1247588692	-0.197122
C	 0.2741801549	 3.7868249159	-1.3978455092	-0.063249
O	 1.335969418	 3.1553099999	-0.6561907691	-0.230428
C	 1.2732547468	 1.9776955338	 0.0037894448	 0.331933
O	 2.2463228942	 1.5534544277	 0.558210583	-0.291028
H	-2.1368476059	 1.3961558432	 0.5584479607	 0.138458
H	-1.2232649532	 2.9075178936	 0.7143981352	 0.12366
H	-2.2191542908	 1.5830124109	-1.6869927922	 0.239347
H	-0.1061683116	 2.0531548653	-2.5941450037	 0.117566
H	-1.1455640745	 3.4359492194	-2.9406175457	 0.124944
H	 0.8063716732	 4.3967957573	-2.1305036504	 0.138324
H	-0.2718641665	 4.4636911618	-0.7308951744	 0.134405
