23
gdb 77087	2.62028	1.0517	0.92769	3.0616	87.16	-0.2427	-0.0201	0.2226	1399.6528	0.203004	-388.305959	-388.295643	-388.294699	-388.341128	38.568	
C	-0.0650896329	 1.6122847858	-0.0384141821	-0.420929
C	 0.1204349668	 0.1028813459	-0.0057371972	-0.008739
C	 1.2228675801	-0.5374086279	-0.9120323714	-0.077234
C	 1.477064912	-1.568000864	 0.2274133792	-0.290221
C	 0.7491150126	-0.6263804732	 1.2360287024	 0.323921
C	 1.7442476281	 0.2381046797	 2.0147757641	-0.439627
C	-0.2443216764	-1.2891213152	 2.1853179876	-0.454647
C	 0.7666844049	-1.0787798171	-2.2343745531	 0.153993
O	 1.219466561	-0.7813866399	-3.3106206847	-0.256023
H	 0.8707660087	 2.1420820639	 0.1630571363	 0.119954
H	-0.4229989356	 1.9360710527	-1.0217177725	 0.124893
H	-0.8018852402	 1.9371321584	 0.7047257622	 0.118054
H	-0.8379607397	-0.3834079908	-0.231637907	 0.070615
H	 2.0678173567	 0.1356178916	-1.0744949278	 0.086307
H	 0.9200659066	-2.4962654367	 0.0590932721	 0.099144
H	 2.5201986479	-1.8202998613	 0.4333128687	 0.106307
H	 2.4840897115	 0.7094205425	 1.3599795875	 0.116349
H	 1.2347567456	 1.0329524987	 2.5702347935	 0.115428
H	 2.2907617079	-0.3756375931	 2.7396356454	 0.114243
H	 0.2701698934	-1.914207388	 2.9246469877	 0.114621
H	-0.8256426735	-0.5399467704	 2.7359140551	 0.114397
H	-0.9495110688	-1.9269360844	 1.6416425474	 0.108629
H	-0.074366267	-1.8112940871	-2.1506154033	 0.060566
