15
gdb 51394	2.86766	1.23627	1.03771	4.947	66.73	-0.2576	-0.0278	0.2298	1144.1076	0.111115	-457.765267	-457.757321	-457.756377	-457.798928	28.554	
O	 0.2781723717	 0.1235540757	-0.2134749067	-0.259901
C	 0.4132504884	 1.296286901	-0.3738619715	 0.176543
O	 1.0340608413	 2.0827552036	 0.5419197283	-0.194898
C	 1.0546759629	 3.4714476441	 0.280531452	 0.105862
C	 2.2152390231	 4.2687953735	 0.7117543907	-0.109932
C	 3.5097790205	 3.4502296803	 0.5704818222	-0.354447
C	 3.2050605695	 3.3550270864	-0.9430371954	 0.429427
O	 3.846914198	 3.0027273315	-1.8885565114	-0.303334
C	 1.8963580909	 4.0915520045	-0.8180044006	-0.240629
H	 0.0648869098	 1.8611204916	-1.2575747916	 0.092832
H	 0.0802256536	 3.9377433268	 0.4035976719	 0.128829
H	 2.1094344319	 5.171227516	 1.2985096235	 0.120684
H	 4.4180770608	 4.0353100038	 0.7355673844	 0.139822
H	 3.5609870442	 2.5173764982	 1.1344305893	 0.149014
H	 1.4626719934	 4.7657484629	-1.546731645	 0.120129
