17
gdb 107984	2.80393	1.39725	1.3394	3.1331	68.02	-0.2361	0.0638	0.2999	1033.8627	0.13427	-458.860716	-458.852549	-458.851605	-458.893403	31.361	
O	-0.0072610192	 1.4022454918	 0.0925798999	-0.415962
C	 0.0030461103	-0.0132790661	 0.0454282061	-0.207387
C	-1.3899486458	-0.5554783004	-0.0315908956	 0.406645
O	-2.2972870082	-0.1900184043	 1.064249164	-0.372036
C	-3.1217721428	-0.9840648071	 0.1630284185	 0.003391
C	-2.4901866533	-0.4148197406	-1.1371237333	-0.130486
C	-2.1929848156	-1.8118080997	-1.7229859705	-0.34827
C	-1.9651669425	-1.9954147298	-0.2033877752	 0.308405
O	-1.504950475	-3.0848994132	 0.494069468	-0.46291
H	-0.6498692353	 1.6471987509	 0.769057951	 0.296012
H	 0.569901297	-0.3060691168	-0.8447487556	 0.11864
H	 0.5068077005	-0.4477365023	 0.9228528319	 0.110871
H	-4.1668034583	-1.1544185586	 0.4202169903	 0.095604
H	-2.7756901417	 0.5040058504	-1.6407398742	 0.100517
H	-3.0422514814	-2.3448332351	-2.160584162	 0.096935
H	-1.311721403	-1.8984947451	-2.3638610713	 0.109093
H	-2.0933945757	-3.830942104	 0.3343965281	 0.290938
