18
gdb 80603	2.90851	1.46214	1.23922	1.694	71.75	-0.2452	-0.0124	0.2328	1050.3602	0.148976	-439.070492	-439.062616	-439.061672	-439.102693	30.862	
C	-0.0945064664	 1.5332594368	-0.0006503417	-0.411293
C	 0.0527491476	 0.0135133498	-0.0016882354	-0.018623
C	 0.9819331125	-0.5393549987	-1.1039882777	-0.147436
N	 2.3463946665	-0.3590533122	-0.4540907522	-0.343674
C	 1.87176543	-1.4270109297	 0.5222830806	-0.174239
C	 0.8063160213	-0.5891891486	 1.2568701945	 0.15058
O	 1.3924140484	 0.3683413472	 2.1040831011	-0.430358
C	 1.1301651469	-2.0181024449	-0.6934592682	 0.428146
O	 1.0040858773	-3.0910119383	-1.2035834401	-0.32632
H	 0.8779507948	 2.030168548	-0.0497675153	 0.122355
H	-0.6818360669	 1.8576346512	-0.865545282	 0.113142
H	-0.6003168411	 1.8763290242	 0.9053302278	 0.132439
H	-0.9366487675	-0.4471273241	-0.0927121982	 0.089382
H	 0.8512474581	-0.2009274196	-2.130779478	 0.092828
H	 3.0605842841	-0.7562527651	-1.0637925972	 0.240305
H	 2.6109332448	-1.9600680742	 1.117028191	 0.097489
H	 0.1493614601	-1.196005829	 1.8829823256	 0.095974
H	 2.0849949795	 0.7950704572	 1.5818086654	 0.289303
