18
gdb 92384	2.17327	1.59587	1.26207	3.328	76.23	-0.2655	0.0085	0.274	1080.1546	0.147925	-401.931907	-401.923617	-401.922673	-401.965122	31.062	
C	-0.579329445	 1.3713679497	 0.0239687344	-0.420909
C	 0.0424084589	-0.0131578988	-0.0680151907	-0.03288
C	 1.349292486	-0.1992731329	-0.9070406018	-0.257304
C	 2.0624411861	-0.7976169967	 0.320746152	 0.075948
O	 2.7692533481	 0.1902055329	 1.0883558757	-0.281218
C	 1.6659530629	 0.3653956538	 1.9999475685	-0.124373
C	 0.7712998843	-0.6075374137	 1.1952505412	 0.126442
C	 0.0948111702	-1.6526663292	 1.9199303929	 0.194151
N	-0.4568611289	-2.493670574	 2.4922499864	-0.344123
H	 0.1577951501	 2.1359589425	 0.2886490417	 0.127792
H	-1.0068681995	 1.6536744152	-0.9437256874	 0.128968
H	-1.3846734578	 1.3996634212	 0.7655191599	 0.13016
H	-0.7174144061	-0.7302766661	-0.3887103154	 0.102121
H	 1.2409735092	-0.8850709895	-1.7502823017	 0.114562
H	 1.8220617422	 0.7230468509	-1.252078164	 0.119347
H	 2.6102453239	-1.7375550759	 0.2270408749	 0.099297
H	 1.9094700184	-0.000035641	 3.0037655725	 0.125817
H	 1.3279242967	 1.4048303018	 2.063628731	 0.116202
