16
gdb 1280	8.17317	1.17164	1.04506	2.462	57.94	-0.264	0.0595	0.3235	1106.8366	0.135959	-362.967171	-362.95874	-362.957795	-363.000762	28.9	
C	-0.0581644673	 1.4771960206	 0.0563797388	-0.383227
C	 0.0346812357	-0.0486411964	-0.0303610638	-0.189659
C	 0.7500693194	-0.5014247284	-1.2929354801	-0.03212
O	 0.7872317965	-1.9376785328	-1.28393095	-0.261943
C	 1.4005052044	-2.5042063578	-2.3510869554	 0.489756
N	 1.4238460471	-3.8647970349	-2.2051308128	-0.562905
O	 1.882037638	-1.8930985174	-3.2760965072	-0.397873
H	 0.9357822251	 1.937480767	 0.0642830405	 0.120883
H	-0.6085755029	 1.8925723074	-0.7947533263	 0.120306
H	-0.5748781965	 1.7863600378	 0.9692217552	 0.118819
H	 0.5674613639	-0.4460687071	 0.8412320139	 0.107626
H	-0.9683029766	-0.49070943	-0.0125095074	 0.105574
H	 0.2325287742	-0.158765983	-2.1956593361	 0.116907
H	 1.7738600119	-0.1143292038	-1.337959668	 0.118368
H	 0.8054706567	-4.2877245905	-1.5339133545	 0.262396
H	 1.6526824204	-4.3917004305	-3.0302645067	 0.267093
