20
gdb 82550	2.96358	1.45055	1.32602	1.3205	77.97	-0.2206	0.0736	0.2942	1061.0683	0.171719	-403.110152	-403.102124	-403.101179	-403.142409	31.764	
C	 0.3021632902	 1.7716804773	-0.1993500726	-0.448394
C	 0.0744111839	 0.2791808829	-0.0995553983	 0.01502
C	 0.4489934508	-0.7273425303	-1.131162437	-0.049236
C	 1.4378997654	-0.3696725085	-2.2306943644	-0.313816
C	 2.6789486328	 0.1211220953	-1.4844404365	 0.396506
C	 3.9759516549	 0.3616736741	-2.1226592078	-0.247246
O	 3.1320904236	 1.4560699818	-1.7529217725	-0.2671
C	 2.5127395544	-0.2925455628	-0.017886799	-0.240657
N	 1.1218131425	-0.7233468226	 0.1942723534	-0.125509
H	 1.1439198384	 2.0575605517	-0.8297205871	 0.164852
H	-0.598000294	 2.245746402	-0.6058678202	 0.119836
H	 0.4686152485	 2.1960825309	 0.7974476476	 0.122894
H	-0.830130849	 0.0416559231	 0.4599966628	 0.089321
H	-0.2202568642	-1.5628282551	-1.3213082692	 0.085306
H	 1.6667052868	-1.2636433863	-2.8210085124	 0.112751
H	 1.0807310258	 0.4000978182	-2.9209358474	 0.123937
H	 4.8934778057	 0.2624708324	-1.5424235261	 0.11437
H	 4.0914067872	 0.2005006533	-3.1944601733	 0.113157
H	 3.1570071897	-1.1475742649	 0.2168275496	 0.111294
H	 2.7921285663	 0.5297742474	 0.6479650903	 0.122714
