20
gdb 39163	3.03344	1.67904	1.24669	1.6244	85.45	-0.2168	0.0224	0.2392	1049.7437	0.174663	-366.016964	-366.00972	-366.008776	-366.048535	29.659	
C	-0.0355556838	 1.5109864143	-0.1298153477	-0.253426
C	 1.4419202384	 1.9648730645	 0.1072759678	-0.343411
C	 2.2407828297	 0.6729318096	 0.0001273274	 0.317692
N	 3.4478384625	 0.5325299817	-0.8373518406	-0.386587
C	 3.5130851345	 0.1568053215	 0.5824506322	-0.094543
C	 3.3082508608	-1.3145644326	 0.9481432772	-0.230253
C	 1.98892373	-1.7518629409	 0.2315075644	-0.372118
C	 1.2661043798	-0.4498313811	 0.0146714569	 0.349535
C	 0.0119210309	-0.0051559438	-0.0314220135	-0.260101
H	-0.7169927451	 1.9427669781	 0.6123651348	 0.103315
H	-0.4107102125	 1.8372846084	-1.1093170398	 0.107588
H	 1.7813252119	 2.703940861	-0.6212707342	 0.115228
H	 1.5464090632	 2.410882235	 1.1014460144	 0.106393
H	 3.3968247062	-0.2849174981	-1.4429876686	 0.22136
H	 4.1817930034	 0.7620306483	 1.1883452223	 0.089292
H	 4.1626188437	-1.9425834394	 0.6728834331	 0.102225
H	 3.1888477064	-1.394020883	 2.034817391	 0.109354
H	 2.2126828918	-2.2457767904	-0.7220917454	 0.113844
H	 1.4147340929	-2.4713137029	 0.8205304037	 0.116849
H	-0.8860108948	-0.6118364603	 0.0127612947	 0.087763
