21
gdb 55113	2.42585	1.434	1.14168	2.841	82.77	-0.2283	-0.0088	0.2196	1183.2002	0.180855	-387.091024	-387.081572	-387.080627	-387.125601	35.244	
C	 0.0991393458	 1.0970244499	 0.8080004338	-0.482198
C	 0.0696775638	-0.0210676744	-0.2202670295	 0.38088
O	 1.0254063258	-0.2611682185	-0.9266083677	-0.310738
C	-1.2008187885	-0.8448899434	-0.2817472762	-0.151059
C	-1.3819980199	-1.8475131145	-1.4610420686	-0.252828
C	-1.4420043414	-3.0029033695	-0.4549006749	-0.090862
C	-0.183301063	-3.0366760827	 0.3692847936	-0.331935
C	-1.2582767263	-2.0403641356	 0.7203259158	 0.347465
C	-1.9412024565	-1.987745612	 2.056363838	-0.501756
H	 1.0979235775	 1.5321751135	 0.8596010647	 0.140001
H	-0.6234467572	 1.8740331149	 0.5313962309	 0.138533
H	-0.1993084998	 0.7260782353	 1.7947814116	 0.139348
H	-2.0743560046	-0.1991995193	-0.1459908395	 0.075535
H	-2.3210692314	-1.6833118209	-1.9935693591	 0.09992
H	-0.5577671366	-1.8749597865	-2.1774870009	 0.119841
H	-2.103934594	-3.8584818976	-0.520227024	 0.083164
H	-0.1034092267	-3.8710045415	 1.0594817216	 0.106885
H	 0.7618856084	-2.7149183853	-0.0590699022	 0.131873
H	-1.3662193736	-1.404550132	 2.7867408617	 0.120008
H	-2.9371973696	-1.5355092261	 1.9809276494	 0.115663
H	-2.0626674421	-2.994094424	 2.4709853114	 0.12226
