13
gdb 133312	2.3466	1.89523	1.04924	4.817	65.92	-0.2257	-0.0465	0.1792	1022.451	0.090575	-494.064566	-494.057157	-494.056213	-494.096322	28.17	
N	 0.0236009366	 1.401780995	 0.1635673914	-0.594273
C	 0.0019097394	 0.0287321608	 0.0604948586	 0.198084
C	-1.1639248845	-0.6848049634	 0.0355520431	 0.095811
F	-2.3314610011	-0.0373433867	 0.0512338776	-0.068853
C	-1.1985212354	-2.1260918194	-0.0124453812	 0.333257
O	-2.1814637495	-2.8441369863	-0.039411548	-0.393226
N	 0.1007959616	-2.6643149878	-0.0348391354	-0.27423
N	 1.2710718294	-2.0225568077	-0.018993976	-0.191627
C	 1.2243731599	-0.7249330606	 0.029068937	-0.039978
H	 0.8387209884	 1.8706074263	-0.1994446971	 0.263148
H	-0.8453036807	 1.8675602529	-0.0498706909	 0.270251
H	 0.1574366871	-3.6734700332	-0.0709139879	 0.277338
H	 2.1804309187	-0.2121681699	 0.0497883688	 0.124297
