15
gdb 132264	1.94711	1.84245	0.95222	1.3079	73.71	-0.2213	-0.0304	0.1909	1154.8287	0.11346	-458.149385	-458.141672	-458.140728	-458.181673	29.211	
C	 0.0280942689	 1.4924182298	 0.0065585863	-0.464096
C	-0.0279108847	-0.0051222101	 0.0139030418	 0.312445
C	-1.1823057147	-0.7039593274	-0.1134008573	-0.18028
C	-1.2045213214	-2.152653132	-0.1031401365	 0.377053
N	-2.2686999092	-2.8519822656	-0.2200766735	-0.549497
N	 0.1009414011	-2.6889845802	 0.0526609872	-0.431082
C	 1.189628503	-1.8951876015	 0.1716308492	 0.401789
F	 2.3107071453	-2.5834967199	 0.3075499664	-0.05925
N	 1.2151550696	-0.6232255478	 0.1632653601	-0.40564
H	 0.6751141645	 1.8398073077	-0.806147861	 0.144107
H	-0.9631605309	 1.9334835019	-0.1128532519	 0.127446
H	 0.4721684544	 1.8559393689	 0.9395093185	 0.144098
H	-2.1373093461	-0.2093851396	-0.2282412702	 0.116497
H	-2.0784941475	-3.8542292365	-0.1891225693	 0.199857
H	 0.2276155179	-3.6908189478	 0.0762504402	 0.266554
