21
gdb 84094	2.50971	1.47958	1.09452	2.1311	84.14	-0.2238	0.0158	0.2396	1186.1859	0.18191	-387.096354	-387.08719	-387.086246	-387.129515	35.694	
C	-0.043626567	 1.5012989048	 0.0381080342	-0.500102
C	-0.0380433383	 0.005607875	-0.0207851	 0.267876
C	-0.0107481862	-0.7632909613	-1.1135979838	-0.240676
C	-0.0070586358	-2.2471235252	-0.7932466817	 0.088527
O	 1.004516755	-2.9872458983	-1.4686438585	-0.434269
C	 0.0815725621	-2.2631136743	 0.7346363524	-0.107421
C	 1.2850703815	-1.6102353414	 1.3830148398	-0.336481
C	-0.0137844546	-0.8387413211	 1.232412203	 0.271758
C	-0.8148498657	-0.4246400181	 2.4442825117	-0.492326
H	 0.8217109245	 1.8786426851	 0.5979689397	 0.127622
H	-0.0227801219	 1.9403348994	-0.9625510435	 0.125714
H	-0.9351598451	 1.8778983884	 0.554631404	 0.129296
H	 0.0402545999	-0.4052616588	-2.1363039678	 0.089921
H	-0.9392739952	-2.723971976	-1.1222243183	 0.088917
H	 1.8541757303	-2.6484377188	-1.165058508	 0.273456
H	-0.3944082948	-3.0736967404	 1.2741532528	 0.084009
H	 1.5496246298	-1.9657663355	 2.3743756151	 0.108694
H	 2.1332999324	-1.3095136913	 0.7747405268	 0.099487
H	-0.467174733	 0.5329687475	 2.8487116972	 0.118718
H	-1.8786511157	-0.317478183	 2.2027656317	 0.119807
H	-0.7277895122	-1.1685461968	 3.2420186331	 0.117473
