25
gdb 90762	3.13951	1.17033	0.96648	0.076	92.31	-0.2715	0.0824	0.3539	1358.1628	0.230851	-352.370928	-352.361862	-352.360918	-352.404623	36.116	
C	-0.0240780275	 1.6187386819	-0.2007341581	-0.410496
C	 0.0369404277	 0.1116120569	 0.0041606277	 0.035907
C	 0.9579987737	-0.7462074624	-0.9114908077	-0.262293
C	 1.3664020733	-1.6048514114	 0.3241420641	 0.015912
C	 0.7517550363	-0.50445268	 1.2479678575	-0.017633
C	 1.9855619481	 0.2038838214	 1.8416702115	-0.234884
C	 3.0128227656	-0.9322747327	 1.9860964447	-0.19921
C	 2.8652403685	-1.7608730855	 0.6864497664	 0.034256
C	 3.3361056477	-3.2101774281	 0.8228444231	-0.411007
H	 0.9720394281	 2.0729564709	-0.1895101474	 0.11257
H	-0.4814153312	 1.860401033	-1.1670780864	 0.110988
H	-0.6213415154	 2.1053666636	 0.5789213159	 0.110847
H	-0.9816272451	-0.2909812992	-0.0372658134	 0.06748
H	 0.4801735695	-1.2633407864	-1.7478832646	 0.091561
H	 1.8026282395	-0.1704387083	-1.3060769348	 0.090236
H	 0.8367122268	-2.5610371821	 0.354738015	 0.056314
H	 0.0861161875	-0.845341572	 2.0466699219	 0.054491
H	 2.3757617908	 0.9596574715	 1.1495713527	 0.0935
H	 1.7741029052	 0.7162276293	 2.784831845	 0.09115
H	 4.0349553755	-0.5756356731	 2.1503878169	 0.087703
H	 2.748772339	-1.5611510958	 2.847476631	 0.08997
H	 3.4656374265	-1.278641238	-0.0967164206	 0.063793
H	 2.7518160694	-3.7412071199	 1.583819815	 0.110134
H	 3.2284728593	-3.7568191463	-0.1202383812	 0.110343
H	 4.3897993414	-3.2625152974	 1.1185022056	 0.108368
