18
gdb 35761	3.3713	1.37995	1.19201	4.876	75.33	-0.2186	0.0195	0.2382	1058.771	0.15153	-398.092456	-398.08521	-398.084266	-398.124114	28.872	
N	-0.4730916723	-0.9550897896	-0.8861772362	-0.321033
C	-0.2475381583	 0.087715466	-0.4425199064	 0.292036
C	 0.0049484275	 1.3986353438	 0.1703349289	-0.136468
C	-0.5585103295	 1.4219474356	 1.6382751597	-0.196094
N	 0.1759362074	 2.3448352713	 2.5133795908	-0.28943
C	 1.5591517644	 2.5626185619	 2.0790900252	 0.005691
C	 1.6101261186	 3.1300607365	 0.6381907254	-0.184084
N	 1.4508410763	 1.7196724691	 0.1183609755	-0.118958
C	 2.0881860153	 1.2712820722	 1.4158120698	-0.187038
H	-0.5056780788	 2.1479942893	-0.4454342681	 0.126096
H	-1.6196197963	 1.6816519286	 1.6344816116	 0.120951
H	-0.4904939021	 0.4087878955	 2.0466636905	 0.134764
H	-0.3006921373	 3.2389627799	 2.5615888101	 0.221279
H	 2.1316209974	 3.0477692936	 2.8747801459	 0.07714
H	 0.8276231825	 3.8334648356	 0.3349815055	 0.095137
H	 2.5888664336	 3.5161263928	 0.3368243059	 0.112668
H	 3.1737886316	 1.2732138218	 1.2977956215	 0.120992
H	 1.76956154	 0.3006491162	 1.7999382344	 0.126353
