20
gdb 63759	2.94463	1.39729	1.17102	1.3801	85.54	-0.2275	0.0291	0.2566	1132.1768	0.168877	-365.93695	-365.927901	-365.926957	-365.969906	35.587	
C	-0.5054653988	 1.548249867	-0.0068003191	-0.452611
C	-0.0998465764	 0.0815860261	-0.0265387403	 0.348019
C	-1.3394722179	-0.8114256166	-0.0631976648	-0.409181
C	 0.9831692925	-0.4160193148	-1.0352537507	-0.323281
C	 1.7179591356	-0.9779221624	 0.1774803605	-0.024486
C	 2.126660613	 0.0952324258	 1.1159363101	-0.196771
C	 2.5855872572	 1.3919605183	 0.7005240218	 0.338997
C	 3.0659264476	 2.4520118501	 0.3931909275	-0.448724
N	 0.7209889086	-0.4131682107	 1.1646333414	-0.187127
H	 0.3510112038	 2.2202688657	-0.0268506058	 0.137247
H	-1.1366620239	 1.770233475	-0.8746478713	 0.111304
H	-1.0901718025	 1.7606301147	 0.8949862537	 0.121403
H	-1.9136066729	-0.6294285836	-0.9780257081	 0.109559
H	-1.0633001294	-1.8695326652	-0.0321396078	 0.115479
H	-1.9822917281	-0.6064613117	 0.7983397888	 0.121454
H	 0.6153513138	-1.1705460389	-1.7326069627	 0.105559
H	 1.5324156167	 0.3495014125	-1.5896568326	 0.114358
H	 2.1110564456	-1.9856504422	 0.2727905547	 0.097301
H	 2.6432414747	-0.2613090062	 2.0052690582	 0.122165
H	 3.4678579709	 3.396227487	 0.1196725064	 0.199335
