19
gdb 65276	3.46547	1.21476	1.16818	1.6277	71.71	-0.2409	0.0788	0.3196	1144.3465	0.159205	-460.143368	-460.134941	-460.133996	-460.17672	32.014	
O	-0.2231991207	 1.1933684954	-0.6847279866	-0.473319
C	-0.0769469978	-0.1106507335	-0.2011665999	 0.420568
C	-0.5132780524	-0.414355327	 1.2134305919	-0.33125
C	-1.3408269796	-0.8698641015	 0.0279505014	-0.305568
C	 1.1288568937	-0.8277951522	-0.7659963919	 0.144698
O	 1.018264148	-1.0886976483	-2.1546192297	-0.260517
C	 1.8638066077	-0.1737720707	-2.8397325707	-0.09738
C	 2.971312491	 0.0638832396	-1.8177827644	-0.091488
O	 2.2631289798	 0.0164168865	-0.582407677	-0.288636
H	 0.5983207233	 1.6472036872	-0.457913904	 0.282709
H	 0.0325904911	-1.1572138525	 1.7857568039	 0.113293
H	-0.8884026531	 0.4241248883	 1.7883942985	 0.118803
H	-2.2604042981	-0.3342209605	-0.1760812807	 0.127701
H	-1.3631765401	-1.924855435	-0.2225236945	 0.120374
H	 1.2770643744	-1.7944851559	-0.260935321	 0.077228
H	 2.208182442	-0.6438559181	-3.7642390754	 0.112202
H	 1.328151888	 0.7549415021	-3.0752587819	 0.111014
H	 3.7328140163	-0.7276473855	-1.8599021166	 0.104841
H	 3.4590647166	 1.0383125815	-1.9008524714	 0.114727
