13
gdb 131312	5.48861	1.37284	1.09816	4.7152	65.22	-0.2131	0.0204	0.2336	996.7653	0.093122	-448.961518	-448.955051	-448.954106	-448.992141	25.463	
O	 0.0772582941	 1.2494581628	-0.108410471	-0.405039
C	 0.0651662665	-0.087799687	-0.0519590756	 0.421483
N	 0.0133059802	-0.8045341589	-1.1731068851	-0.358465
N	 0.0207629127	-2.0685709217	-0.6412983979	 0.052192
C	-0.0098629077	-3.3838532991	-1.0647831061	-0.112876
C	 0.0268653713	-4.1396591212	 0.0689151578	-0.092427
N	 0.079451671	-3.2835780217	 1.1726819241	-0.42007
C	 0.0747831088	-2.0038621667	 0.7103095749	 0.50858
N	 0.1052484712	-0.7498964502	 1.1441214287	-0.493728
H	 0.1166247649	 1.5590345893	 0.8044334354	 0.310133
H	-0.0537776424	-3.6671416017	-2.1008265623	 0.157518
H	 0.0201936677	-5.2084634898	 0.1884520178	 0.149568
H	 0.1148314318	-3.557652104	 2.1375830094	 0.28313
