21
gdb 104099	2.90687	1.103	0.98945	3.9792	78.14	-0.2331	-0.0107	0.2224	1283.8846	0.181273	-424.261792	-424.252293	-424.251348	-424.296029	35.96	
C	-0.0987286185	 1.5718169411	-0.0567093637	-0.428169
C	-0.0152235758	 0.0367576568	 0.0155411707	 0.282744
C	-1.4202249056	-0.5632950799	-0.0119823629	-0.11956
O	-2.1393879195	-0.0904624764	 1.1175013148	-0.425518
C	 0.8412518796	-0.5269292308	-1.1560347288	-0.262315
C	 2.301432245	-0.3801386946	-0.7033022038	-0.32665
C	 2.2499303498	-0.4257071149	 0.8299563117	 0.398593
O	 3.2040229111	-0.4765129334	 1.5620938093	-0.314567
C	 0.7827327347	-0.4002983008	 1.2635585506	-0.336
H	 0.8924150921	 2.0338584006	-0.0015434695	 0.11243
H	-0.5646881552	 1.8920953744	-0.9952841026	 0.108237
H	-0.6997081775	 1.9579436353	 0.7696390042	 0.139182
H	-1.9222479778	-0.2777049204	-0.9513634915	 0.084125
H	-1.3453514881	-1.6631563361	 0.0015377805	 0.080459
H	-3.0341476442	-0.4394768604	 1.0768731494	 0.290018
H	 0.6049310049	-1.588109023	-1.3036099143	 0.097804
H	 0.6299911775	-0.0157836882	-2.0994697254	 0.101714
H	 2.9781233042	-1.1471018465	-1.0883287718	 0.12772
H	 2.7279084015	 0.5874519424	-0.9933825612	 0.134311
H	 0.6371518993	 0.2277328941	 2.144450335	 0.132807
H	 0.5158577924	-1.4251951796	 1.5571998691	 0.122634
