18
gdb 45149	2.8426	1.54681	1.17588	2.1486	76.29	-0.2314	-0.0288	0.2026	1070.2194	0.147447	-401.900026	-401.892329	-401.891385	-401.932641	29.899	
O	 0.3603258155	 0.0805851457	-0.5819767893	-0.290498
C	 0.1579962483	 1.1809887163	-0.1639633718	 0.405846
C	-1.0458037418	 1.9261027917	 0.4454240538	-0.306735
N	-0.2280839211	 3.1764167815	 0.5452158475	-0.125829
C	 0.4731390065	 3.3049433068	 1.868993492	-0.255513
C	 1.7249057994	 2.6199957561	 1.3083070485	 0.361807
C	 3.1620809042	 2.9935072883	 1.5156624983	-0.330303
C	 2.6557876561	 1.6457828629	 1.9701451006	-0.323594
C	 0.992540863	 2.4641731817	-0.0280485923	-0.212066
H	-1.8883444874	 2.0316886992	-0.2471879358	 0.139129
H	-1.4238099796	 1.5294883757	 1.3949411675	 0.128859
H	 0.6087112194	 4.3536838386	 2.1521131244	 0.113127
H	-0.0346530875	 2.7848051401	 2.6902820645	 0.103252
H	 3.8096610226	 3.0326919033	 0.6456614727	 0.121078
H	 3.3822546105	 3.7411329392	 2.271471599	 0.118478
H	 2.5338688372	 1.475773022	 3.0351791992	 0.118116
H	 2.9521760478	 0.7665235699	 1.4077785249	 0.133191
H	 1.4658619969	 2.858750661	-0.9319957537	 0.101656
