21
gdb 53057	4.66295	0.71496	0.64285	0.2908	101.06	-0.2115	-0.0059	0.2056	1817.3206	0.181855	-349.962822	-349.95284	-349.951896	-349.999473	35.748	
C	-0.0917850037	 1.4939828078	-0.0432465971	-0.507782
C	-0.0236235884	 0.0415985206	-0.0102671182	 0.217364
C	 0.0499629865	-1.1637838159	 0.0146788289	-0.15578
C	 0.070793834	-2.5783761304	 0.0537508616	 0.20679
C	 1.1468854224	-3.3761326672	-0.0330393385	-0.182004
C	 0.7943831919	-4.8441484738	-0.0040026424	 0.001289
C	 1.7163038889	-5.7034055493	 0.8689697851	-0.39712
C	-0.6836361676	-4.8211470005	 0.4704392287	-0.225749
C	-1.2071658621	-3.4029641423	 0.1500720284	-0.323328
H	 0.4749229736	 1.9380103157	 0.7833584927	 0.149262
H	 0.322702648	 1.8919891891	-0.976722769	 0.148911
H	-1.1258277712	 1.8471879907	 0.0372651433	 0.148041
H	 2.1645336615	-3.0199481928	-0.1502314613	 0.087832
H	 0.8470387957	-5.2386170434	-1.0320257454	 0.079051
H	 1.7177274718	-5.3449756347	 1.9042100191	 0.115696
H	 1.389035801	-6.7486509093	 0.8735940136	 0.112479
H	 2.7484429065	-5.6794003536	 0.5034245302	 0.111855
H	-1.2858293445	-5.6116155	 0.014471587	 0.094671
H	-0.7066014795	-4.9805026344	 1.5546613379	 0.101122
H	-1.8952370454	-3.0175376589	 0.909001889	 0.108033
H	-1.7462190695	-3.3673882074	-0.8061508135	 0.109364
