15
gdb 45762	3.06495	1.43046	1.12351	2.7204	65.02	-0.2552	-0.0395	0.2157	1056.7612	0.114185	-453.956043	-453.948698	-453.947754	-453.98856	26.969	
O	-0.134468431	 0.0458387125	 0.2237790539	-0.305504
C	-0.0325666775	 1.2227729387	 0.1076354917	 0.44084
O	-1.1445559106	 2.0745268376	 0.0261828606	-0.200556
C	-0.6278147932	 3.3382571687	-0.0725423282	 0.123189
N	 0.6306594743	 3.4908152686	-0.0910386855	-0.261426
C	 1.1885016436	 2.1399076347	 0.0050474067	-0.172066
C	 2.1560254788	 1.9585121441	 1.1672737017	 0.008234
C	 3.1438702643	 3.0138947589	 1.4823237632	-0.244871
N	 2.0134544756	 2.7468615159	 2.3946376315	-0.315649
H	-1.3699972427	 4.1259310936	-0.1269681918	 0.165374
H	 1.7135258684	 1.893887218	-0.9281401557	 0.146585
H	 2.4125507656	 0.9143746972	 1.3301603757	 0.120585
H	 4.1212307935	 2.7401124429	 1.8682292331	 0.124647
H	 3.1140481599	 3.9204852542	 0.8854547244	 0.133284
H	 1.309433271	 3.4687886944	 2.2519199886	 0.237335
