18
gdb 125669	2.90528	1.34942	0.97621	1.4791	77.79	-0.2328	0.0219	0.2547	1198.9827	0.149792	-398.126463	-398.118006	-398.117062	-398.160587	30.946	
C	-0.1194462696	 1.4672425111	-0.0206012878	-0.495073
C	-0.0423655093	-0.0255859688	 0.0272553477	 0.275756
N	-0.0245511343	-0.7431178088	-1.0934619213	-0.283381
N	 0.0546515409	-2.0234451278	-0.6790236315	-0.189465
C	 0.0883649829	-2.1427437159	 0.6687086035	-0.124658
C	 0.0198067523	-0.8610560092	 1.1790301308	 0.133283
C	 0.0466049048	-0.4467730123	 2.6017827401	-0.135084
C	-1.1887047362	 0.029445452	 3.2835782146	-0.229654
N	-0.5966973237	-1.2713166648	 3.6427684125	-0.320209
H	 0.7875601071	 1.9303402389	 0.3848653336	 0.128619
H	-0.241324381	 1.8004204065	-1.0532017803	 0.140067
H	-0.9618752446	 1.8422259322	 0.5706138568	 0.128604
H	 0.0756894822	-2.7576726	-1.365372959	 0.274076
H	 0.1647943683	-3.1027845804	 1.1553774398	 0.137314
H	 0.9866942966	-0.0148659649	 2.9432312406	 0.101769
H	-1.1233809432	 0.7909531585	 4.0554089633	 0.117878
H	-2.1095608493	 0.0374773113	 2.7070056424	 0.113002
H	-1.1349257839	-2.0083088177	 3.192336504	 0.227156
