18
gdb 19878	3.32245	2.20498	1.96878	2.3692	70.78	-0.2018	0.0703	0.2722	788.3565	0.155881	-343.922776	-343.9159	-343.914955	-343.953555	27.276	
C	-0.3635233094	 1.5196437106	-0.0646425885	-0.305298
N	 0.0620420144	 0.1331102383	 0.0591547708	-0.084858
C	 1.3494692038	-0.399977221	-0.3212925252	-0.042124
C	 2.6232231715	 0.4628781577	-0.3425032428	-0.249178
C	 2.9232635559	 0.8343553787	 1.1115092479	-0.034215
N	 1.9459093215	 1.743895167	 1.7379831506	-0.331525
C	 1.8431825685	 0.286329715	 1.9752270119	-0.050407
C	 0.8572843966	-0.4748854861	 1.1063105597	-0.033231
H	 0.4378893587	 2.2607555749	-0.0309387571	 0.130094
H	-0.9117636758	 1.6136534334	-1.009559342	 0.10516
H	-1.058912217	 1.7471681379	 0.7487703897	 0.117004
H	 1.320172366	-1.244898883	-1.0083441231	 0.082294
H	 3.4454798438	-0.1402178034	-0.7419228385	 0.103693
H	 2.531892343	 1.3480567197	-0.9815665065	 0.114095
H	 3.9566082898	 0.8890304583	 1.4410490494	 0.085747
H	 2.3717729661	 2.184145768	 2.5504218454	 0.229678
H	 2.0385726065	-0.0956417197	 2.9718945613	 0.08106
H	 0.436710896	-1.3794937165	 1.541644757	 0.082014
