18
gdb 75939	2.18815	1.79523	1.02569	3.8725	74.74	-0.2404	0.0126	0.253	1142.0813	0.148489	-439.135723	-439.127171	-439.126226	-439.169061	32.375	
C	 0.5571423452	 1.4075694527	 0.0501257191	-0.472974
C	 0.0991591589	-0.0169196311	-0.0632349039	 0.28701
C	-0.0528527597	-0.6587360819	-1.2206031235	-0.163581
C	-0.5095191511	-2.0849647775	-1.3310965081	-0.207291
N	-0.3836057708	-2.8040255811	-0.0709103783	-0.328637
C	-0.1244019681	-2.2414627324	 1.1301239016	 0.394002
O	 0.1925337736	-2.880003158	 2.1238711826	-0.402001
C	-0.2715451642	-0.7184432928	 1.2272574789	-0.055671
O	 0.4912152658	-0.2624489812	 2.3164768563	-0.43782
H	 1.4464400976	 1.4706275324	 0.6838589828	 0.151714
H	 0.7823393039	 1.8324155799	-0.9312370959	 0.114941
H	-0.2087195098	 2.0276128888	 0.5324338191	 0.130629
H	 0.1338635373	-0.1515515184	-2.1628566579	 0.093439
H	-1.5495692214	-2.1247837883	-1.6940071902	 0.124435
H	 0.0927932928	-2.6067192197	-2.0864199765	 0.125101
H	-0.2951103553	-3.8093108431	-0.0988836842	 0.253471
H	-1.3464678591	-0.5253564903	 1.4178264432	 0.099026
H	 0.6350050645	-1.058613598	 2.8553512849	 0.294209
