16
gdb 41568	3.09378	1.87339	1.73043	2.8494	66.31	-0.2425	0.0151	0.2577	841.5036	0.12716	-437.851177	-437.84491	-437.843965	-437.882032	24.871	
C	 0.2496711238	 1.5732143686	-0.1551267957	-0.089352
O	 1.5434481333	 1.4123219712	 0.4791734986	-0.279965
C	 1.3224063509	 0.0125803534	 0.7026282682	 0.107105
C	-0.0275306744	 0.0650621179	-0.0802509306	-0.110994
C	 0.6083031592	-0.7917175255	-1.2093817025	 0.056472
O	 1.0222025758	-0.0853259644	-2.3974418913	-0.230142
C	 2.3731305722	 0.077469215	-2.2645619146	 0.114178
N	 2.9757222953	-0.3630361441	-1.2403160685	-0.236408
C	 1.9303280964	-0.9288887413	-0.3944617295	-0.043528
H	-0.4210280142	 2.1803461212	 0.464617108	 0.105925
H	 0.3243504211	 2.0105431221	-1.155052406	 0.119094
H	 1.4484928197	-0.2744866862	 1.7496891461	 0.082282
H	-0.9870481739	-0.2729378964	 0.3076407617	 0.082224
H	 0.0501404597	-1.6788420704	-1.5128645086	 0.094349
H	 2.8376581276	 0.5866096647	-3.1014420379	 0.144614
H	 2.2006401277	-1.9184526659	-0.0185439775	 0.084147
