17
gdb 49061	2.81133	1.54089	1.25513	2.9383	73.85	-0.2479	-0.0348	0.2132	1027.1604	0.136215	-421.824451	-421.816797	-421.815853	-421.857051	28.727	
O	-0.85972585	 1.1304567469	 0.6368508509	-0.251215
C	 0.0823280725	 0.9505199941	-0.0932991949	 0.08345
C	 1.3623884348	 1.7433258348	-0.0590525893	 0.151288
C	 1.4390482487	 2.9254399475	 0.9311544079	-0.12447
O	 1.7758838914	 3.8464776549	-0.1320859923	-0.289812
C	 1.5531708353	 2.8573197568	-1.1524512354	 0.085627
C	 2.8126419216	 2.5094301961	-1.9599828854	-0.285537
C	 3.3917196104	 1.3341262941	-1.2091179336	-0.060417
C	 2.6159855968	 0.9180134355	-0.2071639561	-0.164625
H	 0.0564577447	 0.1631907207	-0.8811403319	 0.08027
H	 0.4770777807	 3.1640142579	 1.3967282822	 0.124792
H	 2.2243811403	 2.8719850358	 1.6918777778	 0.107769
H	 0.6845499517	 3.1095974683	-1.7708968759	 0.085467
H	 2.5823380695	 2.2558161892	-3.0028925758	 0.111051
H	 3.4870496778	 3.3735921868	-1.9810980079	 0.130897
H	 4.3466377414	 0.8908976973	-1.4709099766	 0.106874
H	 2.8461370824	 0.0967684833	 0.4628194163	 0.10859
