23
gdb 58204	2.10816	1.05514	1.02333	1.801	87.36	-0.2534	0.0555	0.3089	1405.8367	0.201881	-388.265646	-388.254284	-388.25334	-388.301784	42.121	
C	 0.058248531	 1.5056661411	 0.5499639966	-0.41915
C	-0.0239453847	-0.0087949367	 0.3564672655	 0.128565
O	 0.4571451815	-0.6807367457	 1.5234564746	-0.430296
C	-1.430698443	-0.520901517	-0.0269577733	 0.013557
C	-2.0153309702	 0.2060422671	-1.2449668267	-0.416349
C	-1.4026290155	-2.0700448146	-0.20440198	-0.134615
C	-2.8076163513	-2.7035160878	-0.1703364615	-0.409642
C	-0.6806661433	-2.467879412	-1.4130856135	 0.353178
C	-0.0991652002	-2.7978256631	-2.4133068499	-0.509856
H	 1.0516170524	 1.7694743997	 0.9227300092	 0.12512
H	-0.1128709989	 2.0498802835	-0.3822463106	 0.124153
H	-0.6845670858	 1.8511835383	 1.2812833758	 0.10362
H	 0.6749512875	-0.307749698	-0.4340917898	 0.102943
H	-0.0629657799	-0.3680841026	 2.2725238022	 0.273691
H	-2.0848466518	-0.3278899988	 0.8380358594	 0.055728
H	-2.9846882698	-0.2139510484	-1.5278238726	 0.117017
H	-2.1700757438	 1.2682567325	-1.0403133468	 0.114018
H	-1.3516732113	 0.1147579352	-2.1104243374	 0.131377
H	-0.8403156797	-2.4545298963	 0.6544308547	 0.122237
H	-3.4199170833	-2.3784614149	-1.0157769771	 0.126092
H	-2.7357497616	-3.7934487342	-0.2141222973	 0.12585
H	-3.3243252741	-2.430718309	 0.7556314894	 0.109548
H	 0.4230112757	-3.0984613881	-3.2875612511	 0.193213
