18
gdb 120417	3.18405	0.93068	0.79585	3.6976	69.32	-0.2497	0.0014	0.2511	1455.262	0.146566	-476.222755	-476.213134	-476.212189	-476.258178	33.376	
C	 0.1445596462	 1.3144362717	-0.1580271906	-0.229087
O	-0.0473712513	-0.0681306043	 0.0328807607	-0.232201
C	 0.7330563531	-0.5896456834	 1.0797476929	-0.059162
C	 0.4656142181	-2.071999634	 1.1817399537	 0.105719
O	 1.145321321	-2.8515013639	 0.1367550257	-0.249635
C	 1.9380826682	-3.5041722525	 1.0461119117	 0.418962
O	 2.8379542276	-4.2515895	 0.8312139245	-0.325734
C	 1.2466689802	-2.8598163005	 2.2687331845	-0.184429
N	 2.0023555876	-2.1325487938	 3.2618160334	-0.515622
H	 1.1875839867	 1.5485290858	-0.4222979677	 0.10909
H	-0.5055844598	 1.6219808705	-0.9800249629	 0.133103
H	-0.1200718316	 1.8912435112	 0.7423347306	 0.10573
H	 1.8066557394	-0.4096535324	 0.8998789582	 0.087509
H	 0.4793906182	-0.1211499267	 2.0455275975	 0.109262
H	-0.6091198365	-2.2619501666	 1.1353409061	 0.107363
H	 0.6015487681	-3.5851379432	 2.771130788	 0.124699
H	 2.2841591028	-2.7484787571	 4.015537717	 0.249428
H	 2.8536793318	-1.744231261	 2.8688341968	 0.245004
