19
gdb 49667	2.53491	1.31204	1.27784	3.5746	81.23	-0.2362	-0.017	0.2193	1115.3887	0.160744	-385.903256	-385.895317	-385.894373	-385.935922	30.562	
O	-0.2856394283	 0.0981422416	-0.1844920611	-0.278622
C	-0.1347223964	 1.2567957747	 0.1302031355	 0.146593
C	 1.1727638721	 1.9471839464	 0.0709856403	-0.121719
C	 1.3092613681	 3.4251005456	-0.3110530934	-0.059342
C	 0.1037538103	 4.2981340623	-0.6275174337	-0.281779
C	-0.7879726009	 4.5885237966	 0.5484218998	-0.050783
C	-0.5342744541	 4.214939525	 1.8008691728	-0.050779
C	 0.6832513058	 3.4448412383	 2.2332151196	-0.281757
C	 1.5944018154	 3.0053165019	 1.0964771496	-0.059342
H	-0.99197459	 1.8654446867	 0.4844503556	 0.08249
H	 1.9621751868	 1.292323727	-0.2841737539	 0.102226
H	 2.1696371275	 3.618970304	-0.9440326732	 0.098091
H	 0.4701575253	 5.2543040257	-1.0273461437	 0.118332
H	-0.4866062019	 3.8594463439	-1.4439415767	 0.119173
H	-1.6886635151	 5.1576070526	 0.3314222038	 0.090809
H	-1.2309015258	 4.4835168161	 2.5912889108	 0.09081
H	 1.2686211624	 4.0785508255	 2.9144869372	 0.118328
H	 0.381583013	 2.5810723001	 2.8418339131	 0.119176
H	 2.6399606858	 2.9264596961	 1.3776806876	 0.098093
