18
gdb 55656	2.37844	1.29087	1.13144	3.3766	68.87	-0.2412	-0.0262	0.2149	1170.5835	0.144634	-476.275453	-476.265441	-476.264497	-476.311005	36.181	
C	 0.1237053303	 1.5685548789	 0.0077446675	-0.423741
C	 0.0917171916	 0.0380782053	 0.0616484856	 0.265489
O	 0.9103416834	-0.3558754228	 1.1460006086	-0.465885
C	-1.3484023274	-0.4933931718	 0.203735369	-0.35502
C	-1.3778517981	-2.0135744948	 0.3101111239	 0.440876
N	-2.4263560703	-2.63649224	-0.2833422844	-0.513199
O	-0.5304875524	-2.6353574319	 0.9423559383	-0.389743
C	 0.7244625419	-0.4979387988	-1.2289007762	 0.140433
O	 0.1215929346	-1.0248879793	-2.1299238686	-0.267466
H	 1.1528906066	 1.9165101384	-0.1207229422	 0.132272
H	-0.4853183272	 1.953932124	-0.8151290088	 0.121522
H	-0.2507694139	 1.9700566392	 0.953598022	 0.132094
H	 0.6912024479	-1.2929638099	 1.3108984847	 0.301684
H	-1.7742258747	-0.0870760616	 1.127949695	 0.139074
H	-1.9601502821	-0.1472341994	-0.632809206	 0.113365
H	-2.9808499398	-2.1631903743	-0.9757380994	 0.268979
H	-2.4165334325	-3.6447602274	-0.2971411618	 0.266582
H	 1.8288434319	-0.3659546338	-1.2520697473	 0.092685
