15
gdb 28062	4.84487	0.93274	0.78598	3.4856	72.44	-0.2259	-0.0046	0.2213	1388.3637	0.112228	-453.977791	-453.969292	-453.968348	-454.012624	29.325	
C	 0.0444174927	 1.4569891838	-0.0278091515	-0.4864
C	-0.053464939	-0.0236718421	 0.0300549819	 0.407717
N	-1.123022062	-0.7612248586	-0.0392711454	-0.389251
C	-0.6520724387	-2.0537830077	 0.0645623991	 0.366758
O	-1.4385410384	-3.1555451772	 0.0389612746	-0.225106
C	-2.7889255602	-3.0092152863	-0.0975412899	 0.100897
N	-3.4969877653	-4.0504259377	-0.1183357133	-0.432451
C	 0.6959351496	-2.0499089875	 0.193907588	-0.171032
O	 1.0863525806	-0.7313434515	 0.1716571407	-0.169726
H	 0.666146049	 1.7759694371	-0.8705338623	 0.152355
H	-0.9551873288	 1.8759560177	-0.1430864174	 0.158432
H	 0.4970854132	 1.8557209437	 0.8857347295	 0.152354
H	-3.102775512	-1.9677744998	-0.175024403	 0.143038
H	-4.4768164466	-3.7941049892	-0.2242041427	 0.234938
H	 1.4582913659	-2.7984325045	 0.3011077517	 0.157478
