17
gdb 27694	2.87106	1.28119	0.89573	2.7003	88.56	-0.2037	-0.0033	0.2005	1283.4287	0.134877	-380.903208	-380.893818	-380.892874	-380.937744	33.798	
C	 0.0267066573	 1.462269047	 0.0537650956	-0.506956
C	 0.0252435656	-0.0275034456	-0.0211208271	 0.335675
N	 0.0293644937	-0.7439043536	-1.1294814408	-0.334839
C	 0.0260777473	-2.0610463986	-0.7440698028	 0.182043
C	 0.0291367151	-3.1783778975	-1.7322454195	-0.503108
C	 0.019795797	-2.1499991871	 0.6371609921	 0.105686
N	 0.0194730726	-0.8302199779	 1.0769223287	-0.360588
C	 0.014615525	-3.2488794129	 1.5128491467	 0.258359
C	 0.0101341557	-4.1909644727	 2.2661491794	-0.461874
H	 0.9093691615	 1.8422469061	 0.580890099	 0.13491
H	 0.0312121314	 1.8615819214	-0.9608832997	 0.160379
H	-0.8592100984	 1.8443408112	 0.5738733416	 0.134877
H	 0.9127102126	-3.1266950453	-2.3775328648	 0.134937
H	 0.0261038077	-4.1457249277	-1.2244696373	 0.130195
H	-0.8489175962	-3.1250099082	-2.3848974085	 0.134933
H	 0.0150537869	-0.542176229	 2.0412453706	 0.266355
H	 0.0062760754	-5.0255709496	 2.9221061168	 0.189014
