16
gdb 5916	3.63841	1.36088	1.25403	2.3899	66.65	-0.257	-0.0326	0.2244	1009.842	0.125636	-383.717034	-383.707685	-383.706741	-383.751142	33.34	
C	 0.2426316086	 1.5900486593	 0.166136501	-0.427757
C	 0.0709722054	 0.0655188929	 0.0432747675	 0.25243
O	 0.6526973638	-0.6070743263	 1.1476319222	-0.469658
C	-1.4167246546	-0.3361742046	-0.1374688807	-0.371841
C	-2.2000369692	-0.0257294439	 1.0508113905	 0.265196
C	-2.7876249529	 0.2290690692	 2.0694046967	-0.426301
C	 0.8734974639	-0.4030143053	-1.1691355482	 0.151572
O	 0.4618311752	-0.382371416	-2.2990696353	-0.260691
H	 1.2966868858	 1.8378152217	 0.3185998217	 0.129898
H	-0.1151017163	 2.0980885086	-0.7340389761	 0.134861
H	-0.3279101256	 1.9573804214	 1.0246670883	 0.133091
H	 0.1126716642	-0.4092986499	 1.9226271258	 0.289733
H	-1.819025493	 0.1668128533	-1.0222024209	 0.150986
H	-1.4638232597	-1.4126135478	-0.337292924	 0.143434
H	-3.3427067652	 0.4509154782	 2.9474180638	 0.202489
H	 1.8967450297	-0.751814691	-0.9105802923	 0.102558
