19
gdb 70572	2.56491	1.7626	1.42306	2.508	74.41	-0.2487	0.0891	0.3378	995.8881	0.159799	-422.995216	-422.98755	-422.986606	-423.026878	30.744	
C	-0.0130221033	 1.4887786755	-0.0336071196	-0.477147
C	-0.0124514531	-0.0258857288	 0.0133590694	 0.278608
C	-0.3416083146	-0.727682387	 1.3146311149	-0.344042
C	 1.0697921954	-0.7366594836	 0.7917387002	 0.05276
O	 1.5598330596	-1.9575629614	 0.3160919688	-0.249858
C	 1.7706769254	-2.0270400828	-1.081691704	-0.114719
C	 0.5266927471	-1.6692804869	-1.8708092139	 0.0323
O	-0.7154772558	-2.0739163556	-1.2906821482	-0.252046
C	-0.3909979584	-0.6803392298	-1.2908736827	-0.012882
H	 0.6210939541	 1.8666276584	-0.8443914029	 0.118851
H	-1.0258769887	 1.8776303739	-0.1918345974	 0.122826
H	 0.3607245578	 1.9102616698	 0.9039284418	 0.120903
H	-0.5739579824	-0.114816749	 2.1790030138	 0.10705
H	-0.8708028435	-1.6703400859	 1.2436057043	 0.139526
H	 1.8238505531	-0.1315751212	 1.294251628	 0.085078
H	 2.5944064307	-1.3685557888	-1.4076888308	 0.092312
H	 2.070304062	-3.0608183947	-1.2815786599	 0.121018
H	 0.6004414025	-1.786475991	-2.9522482461	 0.092865
H	-1.0151047479	-0.0775960511	-1.9512485257	 0.086597
