18
gdb 44135	3.46606	1.12182	1.02697	2.6633	78.18	-0.2525	0.0193	0.2719	1222.5182	0.148092	-401.900441	-401.892656	-401.891712	-401.933411	30.1	
N	 0.0293439493	 1.1964030574	-0.042165061	-0.556631
C	-0.0235980674	-0.0530634208	 0.0255286088	 0.45093
O	 1.0069134554	-0.991998056	 0.1508058895	-0.274608
C	 0.0469670434	-2.0670324842	-0.0327798905	 0.056002
C	-0.9255107595	-2.0876574636	 1.0925753241	-0.051509
C	-0.5999368014	-1.7207120656	 2.5032317564	 0.010986
C	-1.6910615894	-1.6925807939	 3.5444296631	-0.267068
C	-0.6463486405	-2.7790370692	 3.5797353978	-0.272856
C	-1.1026604568	-1.0797857232	-0.0626689265	-0.231332
H	 0.9928556952	 1.5290907847	 0.0238196049	 0.2302
H	 0.33281472	-2.8697546446	-0.6992003546	 0.121384
H	-1.6507512086	-2.895673346	 0.9971793975	 0.100061
H	 0.1799154971	-0.9741725526	 2.6015078454	 0.10627
H	-1.6576333082	-0.9142096509	 4.2983280419	 0.118472
H	-2.6948092706	-1.9644353096	 3.2341701099	 0.111893
H	-0.9472713421	-3.7820360645	 3.294342024	 0.1102
H	 0.1087602787	-2.7497815316	 4.3572283504	 0.11737
H	-1.9939716646	-1.0240343657	-0.6697687612	 0.120235
