19
gdb 87495	2.95623	1.42803	1.16218	2.8896	75.95	-0.2528	0.083	0.3358	1114.4496	0.158732	-422.955421	-422.94734	-422.946396	-422.987673	32.153	
C	 0.0612316901	 1.5329201655	-0.1226346235	-0.41558
C	 0.0303015038	 0.0387676897	 0.0592804244	-0.091445
O	 1.3204949453	-0.6405272939	 0.0042646781	-0.349028
C	 0.5908191642	-0.6353297258	 1.2206387695	 0.526889
C	 1.1231640239	-0.2283620761	 2.6053454028	-0.209514
C	-0.2039530578	-0.8283521892	 3.158231995	-0.23235
C	 0.2487661645	-1.8609625144	 2.0828535446	-0.212036
C	 1.6919247858	-1.693550884	 2.6843668002	 0.194649
O	 2.8213542968	-2.0692903904	 1.9663676309	-0.454275
H	 0.8470277992	 1.9836148837	 0.4883680932	 0.1295
H	 0.2469587372	 1.7896215812	-1.1705890713	 0.132724
H	-0.9010208452	 1.9704797037	 0.164930149	 0.125197
H	-0.7416628597	-0.4854229286	-0.5064620185	 0.098636
H	 1.6134289318	 0.6994297102	 2.898332427	 0.082155
H	-0.1762259173	-1.1743990679	 4.1938292005	 0.102092
H	-1.1166902158	-0.27115559	 2.9419903116	 0.101823
H	-0.2532174899	-2.7794643305	 1.7805506947	 0.082787
H	 1.8116351004	-2.0813537632	 3.6995633366	 0.082907
H	 2.7374740626	-1.7420748102	 1.0621548552	 0.304871
