10
gdb 127	27.12022	2.32375	2.19911	3.7158	39.41	-0.2914	0.0323	0.3237	519.4529	0.079045	-247.21445	-247.20867	-247.207726	-247.243281	18.636	
O	-0.0795236974	 1.430664197	 0.010429788	-0.414267
C	 0.043089162	 0.0223760031	 0.0016466347	-0.067115
C	-1.389138142	-0.5276947647	 0.0124152178	-0.311728
C	-1.4204543733	-1.9862580193	 0.0046644278	 0.245343
N	-1.4253842524	-3.1415816619	-0.0016329723	-0.301678
H	 0.8026315794	 1.8134323925	 0.004929803	 0.296382
H	 0.5681447054	-0.3412903062	-0.8934650028	 0.113168
H	 0.5852102579	-0.3509125828	 0.8825060666	 0.11317
H	-1.9107506213	-0.1558944198	 0.9005338526	 0.163357
H	-1.9277365483	-0.1461444079	-0.8613218354	 0.163367
