15
gdb 47787	2.18737	1.75019	1.20435	3.373	66.99	-0.2639	-0.0099	0.254	1032.2108	0.112373	-457.752706	-457.744707	-457.743763	-457.785791	29.243	
O	 0.0226111486	 0.0278281418	 0.3561103906	-0.31014
C	-0.0093810491	 1.1748876912	 0.0180927133	 0.406672
O	-1.1878301316	 1.7744568739	-0.269106529	-0.229473
C	-1.2303275877	 3.0010187664	-1.0215663205	 0.026425
O	-0.1793171398	 3.8606692325	-0.764323985	-0.21147
C	 1.059435234	 3.2271303155	-1.032276099	-0.116918
C	 1.2514425069	 2.0660642061	-0.0379080898	-0.289671
C	 1.5402760692	 2.5525723387	 1.3075941535	 0.349442
C	 1.7776606785	 2.9671830175	 2.4093165118	-0.46745
H	-1.2652068026	 2.7202430444	-2.0864703203	 0.108045
H	-2.1544065741	 3.4989673473	-0.7263486933	 0.141903
H	 1.0775323241	 2.8442073403	-2.064885852	 0.106913
H	 1.8416652146	 3.9782840526	-0.9168994845	 0.13751
H	 2.0649662119	 1.414006701	-0.3734807434	 0.140326
H	 1.9867878371	 3.3238365608	 3.3877456675	 0.207887
