16
gdb 71040	3.16439	1.67147	1.32266	4.6403	77.87	-0.2348	-0.0852	0.1496	968.3882	0.123176	-400.655858	-400.648509	-400.647565	-400.687374	28.951	
C	-0.0699498599	 1.4952298197	-0.0863081396	-0.476643
C	-0.0553541916	-0.0031590064	-0.0518683853	 0.306449
C	 0.6547811715	-0.9092348439	-1.1767459072	-0.311682
C	-0.1301521947	-2.0127456393	-0.4949665844	 0.078536
C	 0.4461987332	-2.7482084287	 0.4820465222	-0.243926
C	 0.3182389653	-1.9068923963	 1.7199779889	 0.385864
O	 0.8347134651	-2.0631546827	 2.7895075892	-0.306364
N	-0.3547753768	-0.6573425888	 1.3298921272	-0.211603
C	-1.108678842	-1.0082114288	 0.1164484505	-0.131075
H	 0.9110343121	 1.9004440549	 0.1816471543	 0.138902
H	-0.3230337519	 1.8536582078	-1.0897648636	 0.125948
H	-0.8045105877	 1.8809205733	 0.6237082215	 0.151178
H	 0.2682306889	-0.5393131663	-2.1318519343	 0.130393
H	 1.7418476595	-1.01291768	-1.2108404653	 0.124378
H	 1.3427312573	-3.3482805805	 0.3711594634	 0.126674
H	-2.1913145281	-0.973963874	 0.0904992226	 0.112971
