21
gdb 74873	2.64478	1.66438	1.19085	0.3716	88.51	-0.2144	0.0295	0.2439	1111.1313	0.184853	-349.952007	-349.944217	-349.943273	-349.983857	32.078	
C	-0.0229228451	 1.5099289482	 0.0753814598	-0.478467
C	-0.0027900177	 0.0064190998	 0.0037365778	 0.315927
C	 0.0043826331	-0.6524128109	-1.1645623359	-0.17198
C	 0.0121611507	-2.1249156762	-1.2975000166	-0.062408
C	 1.2641861548	-2.9286630106	-0.9819437722	-0.3018
C	 0.1036057283	-2.9466327741	-0.0240511812	-0.042466
C	 0.1012407372	-2.225504079	 1.2981113653	-0.038424
C	 1.2566148803	-1.4045069836	 1.8040462285	-0.305001
C	-0.0014766654	-0.710865591	 1.3046420535	-0.115509
H	 0.8579212793	 1.8952616076	 0.6049896205	 0.12292
H	-0.0465815465	 1.9607032757	-0.920617076	 0.116418
H	-0.8995137577	 1.8670382904	 0.631705151	 0.119315
H	-0.0036875165	-0.0799627124	-2.0900153405	 0.074215
H	-0.6008484282	-2.5172964393	-2.1046141159	 0.08189
H	 1.4509520896	-3.8242680988	-1.5651262303	 0.107002
H	 2.1568867407	-2.3759277802	-0.7128517546	 0.112753
H	-0.4769119048	-3.8629747291	-0.015296201	 0.082386
H	-0.4761132847	-2.732300036	 2.0641649898	 0.082743
H	 1.4468288167	-1.4018228624	 2.8721554978	 0.107637
H	 2.147338412	-1.3229793592	 1.1914330614	 0.114413
H	-0.617662356	-0.2544854387	 2.0757235787	 0.078437
