23
gdb 121120	3.67787	0.8052	0.70557	1.046	83.11	-0.2411	0.0856	0.3267	1692.9942	0.205086	-425.427124	-425.416959	-425.416015	-425.463453	36.331	
C	-0.5727752682	 1.359333794	 0.5194194671	-0.222124
O	-0.7098270065	-0.0387990951	 0.5910117495	-0.236577
C	-0.6018467862	-0.6684257333	-0.6664759574	-0.076938
C	-0.7530876343	-2.168683512	-0.4545719375	 0.112097
C	-2.1245000775	-2.6138418346	 0.0663697101	-0.233578
C	-2.2947521759	-3.996735696	-0.5834097901	 0.015779
C	-3.7307060234	-4.5065515574	-0.6710389834	-0.41252
C	-1.6215715945	-3.7572325268	-1.9418575885	-0.069394
O	-0.5715305858	-2.8202717118	-1.7180692826	-0.283845
H	-0.6646176586	 1.7513852592	 1.5354339703	 0.125366
H	 0.4075429011	 1.6533481786	 0.1119093461	 0.104543
H	-1.3539551192	 1.8153597055	-0.1095877805	 0.103054
H	-1.384080702	-0.3119343018	-1.3585905027	 0.083236
H	 0.3734029223	-0.4551039956	-1.1335678031	 0.094398
H	 0.0394326166	-2.5009002845	 0.2327234256	 0.076914
H	-2.172996655	-2.6309420626	 1.1567994276	 0.110881
H	-2.9056147262	-1.9315939868	-0.2932097343	 0.095621
H	-1.6890781492	-4.7214928759	-0.023550033	 0.078615
H	-4.3648976035	-3.7989268385	-1.2173504981	 0.115669
H	-3.7817037364	-5.4703230991	-1.189103812	 0.115883
H	-4.1638817736	-4.6435707636	 0.3247835482	 0.11847
H	-1.1917355129	-4.6661935283	-2.3775193249	 0.100689
H	-2.3473573112	-3.3482652234	-2.6640431365	 0.08376
