14
gdb 17868	3.47705	2.25284	2.13491	4.2731	61.77	-0.217	-0.021	0.196	706.711	0.109698	-378.716397	-378.71035	-378.709406	-378.746335	23.825	
O	 0.0286084008	 0.0233842855	 0.0705037203	-0.313251
C	 0.0115993103	 1.2148376346	-0.0113937833	 0.456667
C	-1.1086555939	 2.2908871001	 0.02400603	-0.123812
C	-0.0533763797	 3.1254317313	 0.8282827848	-0.255402
C	 1.0405297741	 2.3499018933	 0.0216226423	-0.109677
N	 1.1257986704	 2.9121889408	-1.3501274624	-0.241062
C	-0.0052078013	 3.1593300236	-1.8928072593	 0.061932
N	-1.2244245803	 2.8146618852	-1.3436814226	-0.280538
H	-2.0843454742	 2.0466693906	 0.4405042161	 0.100207
H	-0.0714881946	 4.2074063349	 0.6861381659	 0.113809
H	-0.0508860219	 2.8663815926	 1.8885593928	 0.123381
H	 2.035204827	 2.1944468594	 0.4353651356	 0.094739
H	-0.0461124654	 3.6374129704	-2.870668547	 0.125087
H	-2.0186642513	 3.4018566476	-1.5593868332	 0.247921
