18
gdb 90565	2.77166	1.316	1.13622	3.3905	73.66	-0.2465	0.0252	0.2717	1143.3437	0.146591	-439.03132	-439.022755	-439.021811	-439.065076	31.546	
C	-0.0104668525	 1.6622284079	-0.0389695997	-0.421482
C	 0.3437340799	 0.1934150811	-0.1251652546	 0.15339
O	 1.6912332693	-0.081780333	-0.635112433	-0.298641
C	 1.9229854892	-1.0031714576	 0.4197782322	 0.028339
C	 1.9304489871	-0.3192056851	 1.7496359907	 0.089258
O	 2.3363073111	 1.0101737592	 1.9361972117	-0.195981
C	 3.5507911794	 1.3521986425	 1.441173329	 0.146585
N	 3.9867850374	 2.5200938114	 1.6273416863	-0.450711
C	 0.6080791581	-0.6580892839	 1.1222567016	-0.209112
H	 0.0265041584	 2.1112253744	-1.0368147569	 0.126696
H	-1.0337105696	 1.7684680699	 0.3379779739	 0.118586
H	 0.6663639432	 2.2030821157	 0.621724686	 0.164979
H	-0.3663571867	-0.3332341575	-0.7754790971	 0.090171
H	 2.4190218236	-1.9385315814	 0.1839121677	 0.109981
H	 2.1856815096	-0.9677799165	 2.5864062258	 0.112121
H	 4.0452156017	 0.5356374056	 0.9033850818	 0.099919
H	 4.8991731002	 2.6219344363	 1.1876230009	 0.229775
H	-0.1247345096	-1.2801549589	 1.6184598939	 0.106127
