19
gdb 107156	3.73384	1.11386	1.00768	2.0379	76.49	-0.2303	0.0618	0.2921	1237.2151	0.158001	-422.95994	-422.951429	-422.950485	-422.993257	32.908	
O	-0.043603301	 1.40719714	 0.087746881	-0.412194
C	-0.0239112393	 0.0057790263	-0.1360463191	-0.171245
C	-1.3842610522	-0.5969254235	 0.0023358573	 0.44622
C	-2.0832311236	-1.0512733681	 1.244522765	-0.335093
C	-1.9303892244	-2.0062205209	 0.0696074693	-0.289579
C	-2.8492877441	-1.5524554264	-1.0353251103	 0.47463
C	-3.1634021467	-2.2179721097	-2.3307268806	-0.34558
C	-4.2737227116	-1.8629571708	-1.3445249002	-0.338047
O	-2.352776463	-0.2005686702	-0.9929368047	-0.361217
H	-0.675626909	 1.7801558019	-0.5370333111	 0.29503
H	 0.380252249	-0.2322772126	-1.131997453	 0.095801
H	 0.6489084766	-0.4231594953	 0.6132802903	 0.112205
H	-1.4369133413	-1.2669254903	 2.0898408298	 0.117014
H	-3.0577153889	-0.6433072607	 1.4957285431	 0.118637
H	-1.422029177	-2.9594610122	 0.1265118281	 0.104966
H	-3.0816569377	-1.615300449	-3.2286848238	 0.125881
H	-2.8938234082	-3.2619473938	-2.4553345365	 0.11683
H	-4.7627943651	-2.6627321536	-0.798568869	 0.119062
H	-4.9154882128	-1.0277922611	-1.6030337857	 0.12668
