19
gdb 89694	3.77102	1.19279	1.09321	3.3416	80.16	-0.2495	0.0196	0.2691	1158.3959	0.161686	-382.057713	-382.049926	-382.048981	-382.08976	30.854	
C	-0.1179504634	 1.525931109	 0.0241211412	-0.417398
C	 0.0693103005	 0.0158497728	 0.0230135194	 0.064144
C	 0.9725107346	-0.5603650494	-1.1295564744	-0.291263
C	 1.9700045557	-1.3235356372	-0.2290972565	 0.211181
C	 1.0044825923	-1.923635853	 0.8380146659	-0.211325
N	 0.7619076956	-0.4918560702	 1.2555411094	-0.136263
C	 2.2138981569	-0.2695764492	 0.8901352475	-0.216996
C	 3.0321286641	-2.0761652846	-0.8587855981	 0.150906
N	 3.8893104686	-2.6848542198	-1.3409860983	-0.338086
H	 0.835304619	 2.0635517682	 0.0295535539	 0.119735
H	-0.6648221972	 1.8381440736	-0.8713101719	 0.122864
H	-0.688811687	 1.8370254385	 0.903262541	 0.133567
H	-0.9173417789	-0.4568438672	 0.0013244028	 0.086097
H	 0.437321538	-1.2238430976	-1.8126437098	 0.118527
H	 1.4655982658	 0.2178872985	-1.7178853268	 0.117937
H	 0.1227486276	-2.4675341813	 0.4897871286	 0.114501
H	 1.5160956905	-2.4776194398	 1.6265380646	 0.126836
H	 2.8651294129	-0.6248317949	 1.6898850687	 0.128406
H	 2.4889709145	 0.744478414	 0.5956111228	 0.11663
