23
gdb 114360	2.80877	1.15619	1.07563	1.5259	85.56	-0.2366	0.0777	0.3142	1303.5187	0.205656	-388.269666	-388.260393	-388.259449	-388.30388	35.37	
C	 0.4037655033	 1.4090015636	 0.2037914366	-0.378475
C	 0.075158054	-0.0820770326	 0.0662965947	-0.204024
C	 0.570445686	-0.6525077829	-1.2489936352	 0.171492
O	 2.0188870529	-0.5949997809	-1.3975130988	-0.319164
C	 2.0620108117	-1.9389067008	-1.9269930162	 0.113108
C	 2.509289127	-2.9990334784	-0.8911400576	 0.028207
C	 3.5872563083	-2.6129615569	 0.1092982147	-0.405099
C	 1.0242337485	-3.1073110318	-0.4054838651	-0.264561
C	 0.5696191442	-2.1630999666	-1.5571344642	-0.120696
H	 1.4833187185	 1.5698122291	 0.1338789105	 0.137662
H	-0.0737552198	 1.9950231485	-0.5893602392	 0.112488
H	 0.0604234865	 1.8032382934	 1.1647618457	 0.109624
H	 0.5193887407	-0.6343502696	 0.9010576313	 0.101698
H	-1.0104745722	-0.2391283405	 0.120577959	 0.095202
H	 0.1044302936	-0.0942705797	-2.077532424	 0.066644
H	 2.4834948849	-1.9682385405	-2.9366756249	 0.065631
H	 2.7945266016	-3.9157404921	-1.4206092783	 0.068426
H	 3.3561495126	-1.6469028235	 0.5660217734	 0.128725
H	 3.671888441	-3.3623944867	 0.9036514106	 0.109026
H	 4.5664170339	-2.527104165	-0.3748685869	 0.112902
H	 0.6057137761	-4.1142537962	-0.4670965087	 0.100098
H	 0.8412492584	-2.7293922965	 0.6033383495	 0.100746
H	-0.1891636818	-2.5376780934	-2.2429539971	 0.070341
