25
gdb 103598	2.93307	1.0471	0.93791	1.3382	89.1	-0.2494	0.0678	0.3172	1433.736	0.226212	-389.498733	-389.488007	-389.487063	-389.533681	41.508	
C	 0.1435297668	 1.5029840066	-0.1603874764	-0.404378
C	 0.0213908915	-0.0142767377	 0.0166457272	-0.219697
C	-1.4218657657	-0.5146678825	 0.0657199494	 0.42145
O	-2.1267625976	 0.0469534671	 1.1725778873	-0.485304
C	-2.2521135474	-0.4581589659	-1.2548630345	-0.3195
C	-2.7376055354	-1.9237416835	-1.002026558	 0.360959
C	-4.1529249722	-1.9779013262	-0.4227434808	-0.443967
C	-2.5919247162	-2.8747157816	-2.186355644	-0.451409
C	-1.637990713	-2.0479249752	 0.1031946288	-0.296771
H	 1.1915731586	 1.8092739717	-0.225617353	 0.11823
H	-0.357520118	 1.8423167437	-1.0742562073	 0.118352
H	-0.2958892273	 2.0400611561	 0.6873810049	 0.11184
H	 0.5397155669	-0.5225136888	-0.8055189094	 0.089457
H	 0.5211976977	-0.3201521593	 0.9442720592	 0.101375
H	-2.2521372949	 0.9856157724	 0.9969018646	 0.275135
H	-3.0267118609	 0.3137574944	-1.3004315786	 0.085108
H	-1.6199771506	-0.3736100593	-2.1445059955	 0.087416
H	-4.8960379999	-1.6937364998	-1.1776328874	 0.102346
H	-4.3952926259	-2.9908964877	-0.080174594	 0.105661
H	-4.2501422641	-1.2989300551	 0.4282627138	 0.12968
H	-1.5803394047	-2.8402351649	-2.6058600243	 0.103293
H	-2.7943599293	-3.9102812264	-1.8878302778	 0.110758
H	-3.2948945991	-2.6184318513	-2.9880608522	 0.109342
H	-0.7570344976	-2.6008732433	-0.2356277772	 0.086682
H	-1.9551632717	-2.4368325535	 1.0735663652	 0.103943
