19
gdb 50754	2.676	1.28637	1.04395	3.3318	78.67	-0.2332	-0.03	0.2032	1195.7371	0.159911	-423.032133	-423.023668	-423.022724	-423.065896	31.377	
O	 0.5552553822	-0.3349107508	-0.340319249	-0.248164
C	 0.2334696831	 0.8243125834	-0.3693227822	 0.161053
C	 1.2109339365	 1.9962099263	-0.2595577183	-0.125227
C	 1.0696344647	 2.9340796671	-1.4708902518	-0.112069
O	-0.2055932877	 3.5230158921	-1.6146325863	-0.241384
C	-0.4215993896	 4.6678367675	-0.8099089524	-0.071949
C	-0.8450759673	 4.3527145459	 0.6240825953	-0.256291
C	 0.137448633	 3.5775098583	 1.4663014798	-0.049328
C	 0.9999669923	 2.6247302522	 1.1006276401	-0.096038
H	-0.8289452647	 1.133225307	-0.4627124111	 0.092952
H	 2.2152859419	 1.560204909	-0.2988018969	 0.09711
H	 1.8472561148	 3.7114639572	-1.4100605361	 0.099098
H	 1.2417928408	 2.3577153154	-2.3868969355	 0.116094
H	 0.4833564912	 5.2958570625	-0.8025983855	 0.092781
H	-1.219290664	 5.234306848	-1.3022179557	 0.108085
H	-1.0615314415	 5.3075764559	 1.1198184904	 0.107186
H	-1.8025255698	 3.8124398338	 0.597149696	 0.126564
H	 0.1104560813	 3.8210936167	 2.5268947823	 0.096135
H	 1.5881248729	 2.1615374925	 1.8895900068	 0.103391
