21
gdb 104791	2.12854	1.59855	1.11418	2.3454	77.48	-0.2387	0.0698	0.3085	1176.1059	0.181618	-424.183885	-424.174779	-424.173835	-424.217604	35.065	
C	 0.7779620254	-0.2924414509	 1.5047631408	-0.391555
C	 0.0683774022	-0.0262309995	 0.1724038769	-0.234969
C	-1.299989259	-0.6888565534	 0.0720104336	 0.378469
C	-2.3757288983	 0.0117743942	 0.9076476933	-0.090925
O	-2.6210467946	 1.3127118343	 0.4145673396	-0.422374
O	-1.8093951944	-0.6874643034	-1.3190422964	-0.349542
C	-2.0471796763	-2.0955759149	-1.2389999717	 0.098171
C	-0.7662439408	-2.8494063443	-1.0854178797	-0.314254
C	-1.4209092089	-2.2175482453	 0.1276725133	-0.176734
H	 1.7691512818	 0.1700410106	 1.5097956684	 0.118669
H	 0.2235682394	 0.1169764227	 2.3551453463	 0.122242
H	 0.9110347661	-1.3660604414	 1.676070379	 0.120322
H	-0.0697026116	 1.0500718684	 0.0231372613	 0.117705
H	 0.6894882871	-0.3828508295	-0.654746508	 0.100266
H	-3.2890175875	-0.6032002738	 0.8982228194	 0.084024
H	-2.0557639879	 0.1174249722	 1.9496460448	 0.106932
H	-2.7950595287	 1.1971961227	-0.5287406063	 0.291793
H	-2.9653335975	-2.4825520153	-1.6649083415	 0.104804
H	-0.8561348909	-3.9309435114	-1.1230478323	 0.117105
H	 0.1498835844	-2.4516378512	-1.5103695605	 0.119914
H	-1.7309365297	-2.7862869606	 0.9944323898	 0.099938
