15
gdb 34085	3.58703	1.58877	1.365	3.9331	73.55	-0.2379	-0.0205	0.2175	930.2007	0.114601	-379.623918	-379.617381	-379.616437	-379.654639	26.699	
N	-0.116838136	-1.1371201667	 0.0892436104	-0.33587
C	-0.048164839	 0.0143491569	 0.0122925141	 0.163307
C	 0.0186270561	 1.454940674	-0.0859055186	 0.165903
N	-0.7944591644	 2.2182081847	 0.9900919927	-0.345669
C	-1.321512414	 3.054646297	-0.1031477615	-0.024091
C	-0.1650373593	 3.5549134956	-1.0167605756	-0.098942
C	 1.2291212163	 3.3634684326	-0.532449579	-0.074699
C	 1.3811307625	 2.1236368864	-0.0593087327	-0.109707
C	-0.7953423689	 2.1988995703	-1.2101634819	-0.145281
H	-1.5515718454	 1.5959428863	 1.2727207619	 0.236081
H	-2.2352080203	 3.6239174051	 0.0115674973	 0.111455
H	-0.4288454721	 4.3561974038	-1.6963016435	 0.101343
H	 1.97145703	 4.1508948026	-0.5072091875	 0.116434
H	 2.2366975408	 1.7010242179	 0.4480817414	 0.125767
H	-1.2063632561	 1.7904792136	-2.1249911075	 0.113969
