18
gdb 83074	2.62299	1.48095	1.2359	3.2856	78.33	-0.2265	-0.0246	0.2019	1079.4754	0.147197	-401.940609	-401.932449	-401.931505	-401.97317	31.178	
C	-0.17187649	 1.5481062329	 0.0017988156	-0.426819
C	 0.0210871429	 0.0532066147	 0.0743284489	-0.018635
N	 1.2576216909	-0.6444072717	-0.2590689411	-0.160681
C	 2.4898280065	 0.1837484386	-0.2785890967	-0.217897
C	 2.722050082	 0.6373171252	 1.1454329941	-0.088367
C	 1.7749807649	 0.1593750707	 1.9520565598	-0.147623
C	 0.800790192	-0.6479954672	 1.1722290564	 0.184314
C	 0.2532222614	-1.9148743603	 1.7230595886	 0.090234
O	 0.2921447717	-2.2191352741	 2.8898666183	-0.263436
H	 0.6100704231	 2.1032118874	 0.5219089168	 0.133784
H	-0.1892818041	 1.8711375293	-1.0455250465	 0.130057
H	-1.1356594456	 1.8167447071	 0.4450412815	 0.13057
H	-0.8414884053	-0.5022899222	-0.2957179558	 0.09831
H	 3.3178095248	-0.4296558826	-0.6552390245	 0.123908
H	 2.3742349775	 1.0214993977	-0.979018053	 0.11895
H	 3.5481937461	 1.276278393	 1.4350587313	 0.108616
H	 1.6957275216	 0.2892521985	 3.0223984918	 0.124352
H	-0.2243435205	-2.567482767	 0.9584446244	 0.080363
