21
gdb 89159	2.21079	1.56841	1.28923	2.6134	78.61	-0.2339	0.0646	0.2985	1126.3235	0.180728	-424.199365	-424.189995	-424.189051	-424.233486	35.65	
C	 0.3445051322	 1.551050823	-0.1524247073	-0.415252
C	 0.1418926248	 0.0669205258	 0.0683701594	 0.160996
O	 0.9668997725	-0.7558480168	-0.7991988243	-0.342565
C	 1.305446446	-1.6539743235	 0.2837793189	 0.450724
C	 0.8962603346	-3.0763941748	-0.0015502223	-0.483485
C	 2.7086786619	-1.3610221708	 0.8705328323	 0.090941
O	 3.6699196917	-1.0074678934	-0.0890569436	-0.426569
C	 2.0922343868	-0.2530650801	 1.7852036683	-0.290118
C	 0.6688400377	-0.6647071386	 1.3179963433	-0.161938
H	 1.3912122141	 1.8402469646	-0.0326851692	 0.128526
H	 0.039967663	 1.8163875272	-1.1698761108	 0.128173
H	-0.2678981989	 2.1301753906	 0.5474828587	 0.112895
H	-0.9193295776	-0.1786400624	-0.0961690282	 0.067912
H	 1.4617772002	-3.4591741295	-0.8585085453	 0.136198
H	 1.0943737449	-3.7253448181	 0.8577384901	 0.110637
H	-0.168684755	-3.1355531143	-0.2454602484	 0.120654
H	 3.0409764574	-2.2196325752	 1.4748181446	 0.05935
H	 4.515335025	-0.8992164025	 0.3573909003	 0.284022
H	 2.2773690723	-0.393046591	 2.8527600074	 0.095777
H	 2.393290278	 0.7595074304	 1.5096185568	 0.104429
H	-0.0505086715	-0.9554458806	 2.0827349094	 0.068694
