16
gdb 111940	3.21172	1.26901	0.98112	5.8663	73.83	-0.2387	-0.0916	0.1471	1189.2499	0.124042	-437.941087	-437.932608	-437.931663	-437.975098	30.437	
C	-0.1512076069	 1.5727157651	-0.0227775376	-0.37868
C	 0.0630769242	 0.0579069475	 0.0095361825	-0.167197
N	 0.7123203931	-0.456489852	-1.1869697408	-0.094165
C	 0.1131754802	-0.6657853989	-2.4243015065	 0.00556
C	 0.9572942874	-1.1206771462	-3.3783866768	-0.296666
C	 2.276407322	-1.2430760733	-2.7638996918	 0.307147
O	 3.3379795832	-1.6070098102	-3.2059750694	-0.297297
C	 2.064611708	-0.776810196	-1.2723446228	 0.30681
O	 2.8716776778	-0.7057673546	-0.3833164404	-0.328686
H	 0.8047543524	 2.0956543476	-0.1132134555	 0.143658
H	-0.785959467	 1.8693131089	-0.8640349222	 0.12165
H	-0.6381874848	 1.9025168226	 0.8998054115	 0.129176
H	 0.713386932	-0.2173974563	 0.8437801897	 0.151274
H	-0.8901969486	-0.4661439788	 0.1427456324	 0.11851
H	-0.9462681341	-0.4611032984	-2.5200621992	 0.148069
H	 0.707794911	-1.357568937	-4.3998675731	 0.130838
