19
gdb 13620	2.59259	1.65048	1.3107	3.2225	67.62	-0.2412	0.0612	0.3025	1023.7559	0.165391	-402.165126	-402.156422	-402.155478	-402.198203	32.646	
C	 1.0204598039	 1.6283647088	-0.0152063166	-0.412199
C	 0.4494007666	 0.2333130372	 0.0661002513	 0.016005
N	 1.372112153	-0.8449111284	 0.4710015069	-0.360888
C	 0.2349326404	-0.4864314688	 1.3524462477	-0.049182
C	 0.5183776139	 0.0959134521	 2.7463023004	 0.079766
O	-0.4689000948	-0.3513363968	 3.669852375	-0.427835
C	 1.9284266941	-0.2267364298	 3.27070697	-0.085123
O	 2.9571912248	 0.2940385758	 2.4612371719	-0.418658
H	 1.7521548383	 1.7949144921	 0.7787387967	 0.149546
H	 1.5200247914	 1.7825859967	-0.9773697162	 0.120308
H	 0.2253184016	 2.3764106947	 0.0746379612	 0.12061
H	-0.2528271829	-0.0170348261	-0.7276847238	 0.087994
H	 1.1896128987	-1.707072744	-0.0327256457	 0.23717
H	-0.6028905808	-1.1812066639	 1.372002673	 0.088407
H	 0.4029686591	 1.1842218069	 2.719610756	 0.102059
H	-0.2985420182	-1.2825191829	 3.853260635	 0.278466
H	 2.033054123	 0.212551721	 4.267932804	 0.112666
H	 2.0141874369	-1.3239151153	 3.3848837179	 0.065337
H	 2.839914211	-0.1415552991	 1.5991870751	 0.29555
