20
gdb 85685	2.41687	1.37496	1.06109	4.1971	83.55	-0.283	0.0284	0.3114	1207.9483	0.170957	-366.011641	-366.002763	-366.001819	-366.045297	33.782	
C	-1.0066518599	 1.0705739086	-0.0470303532	-0.41479
C	-0.0438174258	-0.1039379904	-0.1164618913	-0.042137
C	 1.3042666752	 0.0970008435	-0.8695218877	-0.248053
C	 2.0345320559	-0.6926135066	 0.2659353223	-0.226223
C	 3.2951291715	-0.1697501087	 0.7631170387	 0.281918
N	 4.2837672108	 0.261687723	 1.1809771867	-0.339901
C	 0.7692605982	-0.4942839522	 1.1331385482	 0.348299
C	 0.7411916791	 0.1868799275	 2.4696085038	-0.321818
C	 0.3601961254	-1.2713503286	 2.3440432671	-0.32849
H	-0.5070978027	 1.9688584788	 0.3302521014	 0.122799
H	-1.4103613918	 1.3008636164	-1.0387638156	 0.120406
H	-1.8559813973	 0.8551144577	 0.6110615151	 0.118857
H	-0.5636274125	-0.9861218124	-0.5102258617	 0.078629
H	 1.3942013928	-0.3143321709	-1.8760629234	 0.113538
H	 1.6100305717	 1.1456834977	-0.8807651124	 0.12415
H	 2.1690251275	-1.7445368806	-0.0065790166	 0.120358
H	 1.6905638311	 0.4305600287	 2.935505919	 0.138393
H	-0.0486714582	 0.906599511	 2.6567207772	 0.117511
H	-0.6874330563	-1.5383640345	 2.4449641368	 0.115762
H	 1.0491391553	-2.0146673683	 2.7329758654	 0.120794
