18
gdb 90574	4.45355	0.84107	0.82701	2.4651	72.84	-0.2467	-0.0248	0.2219	1409.8767	0.145572	-439.028725	-439.019926	-439.018982	-439.063227	32.12	
O	-0.0072325585	 1.4635892485	 0.207299768	-0.437265
C	 0.0302060126	 0.0631010419	 0.0487785711	 0.11492
C	 0.3475974404	-0.7318634335	 1.3608430416	-0.292118
C	-1.0989573159	-1.2594293709	 1.3585400547	-0.046692
C	-1.4089026824	-0.4828515727	 0.1006288262	-0.05494
N	-1.459693494	-1.9237278913	 0.1202589599	-0.094151
C	-0.5556819664	-2.776242906	-0.6314701314	-0.235229
C	-0.8169360944	-4.2351403704	-0.2861339194	 0.158121
O	 0.0064258621	-5.1069294714	-0.3790232709	-0.238742
H	 0.8979704086	 1.7851216831	 0.2681887311	 0.286795
H	 0.6127386098	-0.2194971983	-0.8395978199	 0.068205
H	 1.1555655436	-1.4700316627	 1.3486649313	 0.103103
H	 0.5139205932	-0.0259687807	 2.1774551186	 0.115762
H	-1.7141994552	-1.4397704123	 2.2330571036	 0.100081
H	-2.2882315541	 0.0826311423	-0.1884375417	 0.104879
H	-0.785250535	-2.657648519	-1.7003427657	 0.136202
H	 0.5175979616	-2.5806055263	-0.5070940416	 0.120871
H	-1.858042666	-4.4336617903	 0.0517567145	 0.090196
