18
gdb 87842	2.88388	1.40512	1.18595	2.2716	72.18	-0.2261	0.0665	0.2926	1082.6836	0.146613	-439.001456	-438.993086	-438.992142	-439.034033	32.959	
O	-0.0256185104	 1.2984589272	-0.0822909384	-0.43979
C	 0.0322898157	-0.0927417231	-0.02137739	 0.071262
C	-0.4423018514	-0.7907681121	 1.2453161906	-0.398765
C	-1.2794371019	-0.8090718272	 0.0049702348	 0.256652
N	-2.5398870939	-0.0358275454	-0.1702212471	-0.387559
C	-3.1247095363	-1.2168418027	-0.8666525421	-0.067119
C	-2.3285789145	-1.5001088574	-2.1155496759	-0.339994
C	-1.8238112477	-1.9907817507	-0.7797260624	 0.274897
O	-1.5743737954	-3.3127536901	-0.4753830711	-0.452042
H	-0.9151271294	 1.5104232243	-0.4037560673	 0.29018
H	 0.8733590945	-0.5235439608	-0.5613884289	 0.089118
H	 0.0331292385	-1.7229693261	 1.5342163093	 0.122679
H	-0.7563070911	-0.1535634558	 2.0666654274	 0.117595
H	-2.9926816101	 0.0788097753	 0.7335837403	 0.229354
H	-4.1600063052	-1.502597357	-0.7346671971	 0.109062
H	-2.7547210989	-2.2813988643	-2.7385246546	 0.115599
H	-1.8348300551	-0.6906438652	-2.6476512737	 0.117899
H	-0.9562023675	-3.6649175591	-1.1250943838	 0.290974
