21
gdb 59924	2.20989	0.98692	0.8118	0.7201	90.54	-0.2593	0.035	0.2943	1532.81	0.178377	-349.891868	-349.880973	-349.880029	-349.928077	40.08	
C	-0.105264773	 1.537184158	-0.0948162296	-0.390172
C	 0.0378254926	 0.0095025651	-0.0410058196	 0.033102
C	 0.8039236636	-0.5064570101	-1.2672217634	-0.395448
C	 0.7303793596	-0.4738634408	 1.2436970281	-0.173726
C	-0.0287753394	-0.1533301235	 2.5657135582	-0.368463
C	-1.3720644394	-0.743849722	 2.5846402575	 0.35503
C	-2.4722581557	-1.2262699648	 2.5811334232	-0.473461
C	 0.7560591949	-0.5878627493	 3.7261065615	 0.322991
C	 1.4274638122	-0.9424462975	 4.6566486737	-0.433261
H	 0.8741745172	 2.0269694076	-0.0297014941	 0.111792
H	-0.5687147656	 1.8493371093	-1.0362393237	 0.113573
H	-0.7298871904	 1.9247954256	 0.7159740309	 0.117903
H	-0.9685595793	-0.4278678868	-0.0609100107	 0.091339
H	 1.8232569623	-0.1026126025	-1.2943024454	 0.112235
H	 0.8787225907	-1.5988309964	-1.2613715205	 0.113078
H	 0.3055391286	-0.2087061318	-2.195430619	 0.111477
H	 0.8758431251	-1.5581556401	 1.1987158724	 0.112606
H	 1.7266992901	-0.0226031055	 1.3228872154	 0.105819
H	-0.1422216126	 0.9374389224	 2.6337985169	 0.137142
H	-3.4448732349	-1.6525209377	 2.5913210586	 0.199902
H	 2.0096294235	-1.2550416091	 5.4878622397	 0.196542
