17
gdb 74298	2.75893	1.26798	1.18048	3.3064	70.79	-0.2252	-0.0199	0.2053	1126.4655	0.135396	-455.182908	-455.174025	-455.173081	-455.216721	32.649	
C	 0.0977974423	 1.6114616343	 0.1876142046	-0.440547
C	 0.0266379473	 0.082554583	 0.1083180671	 0.180835
C	 0.7036143598	-0.5144603205	-1.1498497799	-0.153682
O	 1.5586584822	-1.5556547838	-0.6283076976	-0.251071
C	 1.4939377584	-1.4351942127	 0.7202267732	 0.481017
N	 2.2576325902	-2.3395376015	 1.3947016217	-0.577207
N	 0.7275554361	-0.5494915888	 1.2394479225	-0.395887
C	-1.439264431	-0.3493692472	 0.2231486298	 0.148543
O	-2.0791767036	-0.8801323342	-0.6477289769	-0.258622
H	 1.1434182352	 1.9303202492	 0.2265833277	 0.124928
H	-0.3825401972	 2.0746846685	-0.6809121562	 0.123778
H	-0.3981549543	 1.9725481999	 1.0934738426	 0.131108
H	-0.0192696882	-0.9611336316	-1.8348561268	 0.145668
H	 1.3276857893	 0.2109763039	-1.6803556643	 0.109262
H	 3.0593546038	-2.7000139729	 0.9027178537	 0.267255
H	 2.394516253	-2.1356899869	 2.3713231322	 0.271955
H	-1.8722340533	-0.1420262088	 1.2255320464	 0.092666
