18
gdb 22626	2.51797	1.50765	1.19182	1.2963	75.54	-0.246	0.013	0.259	1098.4545	0.146963	-439.020931	-439.012582	-439.011637	-439.053612	32.159	
C	-0.0004270789	 1.5208520036	 0.07333774	-0.497905
C	-0.05238079	 0.0249426182	-0.0083953934	 0.329432
C	 0.5393120412	-0.726456785	-1.2292624362	-0.255948
C	 0.4110107712	-2.1893886303	-0.6873708649	-0.226827
C	-0.2140185104	-1.8484748876	 0.6821757426	-0.012646
O	 0.6016894142	-0.7023420333	 1.1069068869	-0.33942
C	-1.2698538688	-0.8214977245	 0.3221749504	 0.448382
N	-2.5012017147	-0.5797790024	 0.4254333364	-0.310108
O	-3.2031684712	-1.6984857063	 0.9269192622	-0.396039
H	 1.0350519335	 1.8693600925	 0.0092770164	 0.130007
H	-0.5628586129	 1.9612591556	-0.7553694603	 0.134009
H	-0.4339986848	 1.8720690308	 1.012400274	 0.140146
H	-0.0326080324	-0.5514157964	-2.1442651674	 0.109646
H	 1.5765919994	-0.4281797461	-1.398953557	 0.109787
H	-0.2323536985	-2.8266030962	-1.2992925929	 0.113048
H	 1.3790028155	-2.6790938635	-0.5628694704	 0.11339
H	-0.3479756675	-2.6186777948	 1.4375104628	 0.103857
H	-4.1053426147	-1.3643406841	 0.9715938006	 0.30719
