15
gdb 34608	4.01228	1.25571	1.03914	5.7516	72.28	-0.2717	-0.0459	0.2258	1108.3061	0.114187	-416.808717	-416.80139	-416.800446	-416.840888	27.495	
N	 0.1737991984	-1.0295505002	 0.4426787723	-0.318433
C	 0.0689164571	 0.0935855889	 0.1944095679	 0.294949
C	-0.0666194257	 1.5026979561	-0.1163056809	 0.289099
N	-1.1201897489	 2.1122719013	 0.224953182	-0.297873
C	-1.2906499655	 3.5177547881	-0.113616065	-0.191224
C	-0.0875527805	 4.1962562822	-0.7448027786	-0.075433
C	 1.2059978551	 4.3243796292	 0.0355649448	-0.315319
C	 1.0846034078	 3.3258242912	-1.0792815754	 0.09852
O	 1.0401776619	 1.9496508261	-0.7569300747	-0.248218
H	-2.14028799	 3.5720686567	-0.8057152934	 0.136837
H	-1.613269242	 4.0389490568	 0.796473975	 0.130037
H	-0.3203308259	 4.9889494292	-1.4482229522	 0.106241
H	 1.8320056896	 5.1947803117	-0.1237390556	 0.130226
H	 1.2219743401	 3.930627822	 1.0470962843	 0.138154
H	 1.6393632883	 3.4585487307	-1.9993200905	 0.122437
