20
gdb 26118	2.46233	1.28742	1.03614	1.2964	82.6	-0.1784	0.0505	0.2289	1256.0394	0.170427	-403.189037	-403.179237	-403.178293	-403.223973	36.323	
C	 0.0064273366	 1.5612117994	-0.0092960855	-0.378618
C	 0.0042388552	 0.0215913634	 0.0694436899	-0.08926
C	 0.7782071635	-0.4659583935	 1.3103763513	-0.378608
C	-1.3803671401	-0.5498231929	 0.0014511987	 0.228366
C	-1.9589428515	-1.3801522971	-0.9351930611	 0.23407
O	-1.2909866983	-1.8442449761	-2.0382552039	-0.45658
C	-3.3032312353	-1.6417997803	-0.5510911174	-0.278486
C	-3.517595459	-0.9572916577	 0.6252979912	-0.081339
N	-2.3609063957	-0.3059997533	 0.9490155271	-0.305982
H	 1.0302110135	 1.9504065205	-0.0189016151	 0.108896
H	-0.5038859856	 1.9091765437	-0.9116137791	 0.121951
H	-0.503880027	 2.0053310515	 0.8541203946	 0.097433
H	 0.5213173423	-0.3594568058	-0.8182941174	 0.10177
H	 0.304911938	-0.1191790232	 2.2371333168	 0.097437
H	 0.8162271882	-1.5581990519	 1.3455969163	 0.121952
H	 1.8047384159	-0.0839779719	 1.3055018295	 0.10889
H	-1.8904992554	-2.4007553292	-2.5422073849	 0.293698
H	-4.0215612046	-2.2558284058	-1.073980554	 0.084113
H	-4.3944297967	-0.8855875328	 1.2480159888	 0.113759
H	-2.2350864438	 0.2708757428	 1.7612266243	 0.256536
