17
gdb 52750	2.39211	0.82601	0.63241	2.9212	84.31	-0.2467	-0.0277	0.219	1728.397	0.131028	-384.635375	-384.624593	-384.623649	-384.674061	35.998	
C	-0.0520794195	 1.5075014315	-0.0023384084	-0.499753
C	 0.0125538052	 0.0535360097	-0.0239490423	 0.117287
C	 0.0766310496	-1.1475644247	-0.0469558945	 0.060109
C	 0.1232953025	-2.612417652	-0.0590301468	-0.370778
C	-1.2956205042	-3.2050812824	 0.2029761263	-0.272912
C	-1.2960770248	-4.7131169776	 0.3470873367	 0.147202
O	-1.898076791	-5.30469758	 1.2061850687	-0.240075
C	 0.6961046917	-3.1219831736	-1.3114982599	 0.34222
C	 1.1508415992	-3.5514016268	-2.3370382088	-0.462266
H	 0.5861551943	 1.9215053768	 0.7857073944	 0.152264
H	 0.2797628121	 1.930956722	-0.9564535275	 0.154111
H	-1.0742250702	 1.8569079261	 0.179217482	 0.151751
H	 0.7735686388	-2.940594719	 0.7656762687	 0.143628
H	-1.7249154452	-2.7626030737	 1.1042651451	 0.135284
H	-1.9362124038	-2.9417813728	-0.6480838727	 0.142114
H	-0.6980386647	-5.255852546	-0.4169246766	 0.094862
H	 1.56261691	-3.9222784775	-3.2431589743	 0.204953
