14
gdb 131963	4.60336	1.08967	0.88603	5.2666	69.78	-0.2777	-0.073	0.2047	1223.7455	0.101779	-469.944784	-469.936974	-469.93603	-469.978376	27.114	
C	-0.0103738506	 1.4059329184	 0.0609986717	-0.321705
N	-0.0351754923	-0.040426197	-0.0421979401	 0.054755
C	 0.1666432181	-0.7945990717	-1.1361240421	-0.078021
C	 0.0380488266	-2.10506843	-0.7110473132	 0.241099
C	-0.243904791	-2.039789981	 0.667228157	-0.038104
N	-0.287319153	-0.7783725031	 1.0694513816	-0.253238
N	 0.1692772371	-3.2717493238	-1.5259262731	 0.334119
O	 0.4198704137	-3.1049891119	-2.7174262619	-0.379664
O	 0.0222726408	-4.3596148529	-0.9776544024	-0.368843
H	 0.1957088113	 1.8264672847	-0.9237653987	 0.150577
H	-0.9763429643	 1.7683161826	 0.4197897268	 0.163783
H	 0.7683631728	 1.714860017	 0.7619953312	 0.163496
H	 0.3799554552	-0.3869216667	-2.1095896995	 0.176163
H	-0.4106781444	-2.8551843846	 1.3522918129	 0.155583
