17
gdb 72964	2.64184	1.54834	1.20469	5.6199	73.39	-0.2469	0.014	0.2609	1055.749	0.135604	-417.968208	-417.95976	-417.958816	-418.00083	32.26	
C	-0.0563054163	 1.6106659298	 0.0131883583	-0.508634
C	 0.0187808938	 0.1133909803	 0.0592784003	 0.231295
C	-1.1848610311	-0.8368072247	-0.0259269453	-0.234104
N	-0.471141116	-1.8588079664	 0.8202978812	-0.368596
C	 0.6129939256	-0.8871649686	 1.0462198277	-0.139453
C	 1.257006523	-0.7197781807	-0.318259232	 0.275074
O	 1.2109226486	-1.7552640514	-1.2424872396	-0.474063
C	 2.5045900506	 0.0068936891	-0.3341793737	 0.25263
N	 3.4897927066	 0.612815913	-0.3324593232	-0.348059
H	 0.9175012177	 2.0646481221	 0.2146788236	 0.153409
H	-0.3818331813	 1.9512830964	-0.976448035	 0.135563
H	-0.7695533871	 1.9921168996	 0.7520588108	 0.121456
H	-2.0595460416	-0.4155981458	 0.4775461865	 0.118738
H	-1.4680373332	-1.2027690073	-1.0170346105	 0.125176
H	-0.9785182793	-2.0784186862	 1.6692492949	 0.239218
H	 1.1443201467	-0.7904479511	 1.985847503	 0.118674
H	 0.7357069231	-2.4718333682	-0.786763037	 0.301677
