21
gdb 35844	3.14265	1.13285	0.88682	0.5926	90.01	-0.2399	0.0168	0.2567	1335.4885	0.183521	-349.936753	-349.927943	-349.926998	-349.970156	34.422	
C	-0.0378440842	-1.2267477889	-0.1086662412	-0.447072
C	-0.029281045	-0.0253208548	-0.0563325656	 0.309022
C	-0.0031315287	 1.4342570578	 0.0363463094	-0.170395
C	-0.830001902	 1.895848208	 1.2610331782	-0.178738
C	-1.0933371146	 3.4108311053	 1.3348735579	-0.265186
C	 0.0982424628	 4.2615614597	 1.7057593561	-0.04767
C	 1.2692089151	 4.2809413959	 1.0700030797	-0.047667
C	 1.6286033248	 3.4558738025	-0.1429518155	-0.265188
C	 1.4620459911	 1.9337787339	 0.016602654	-0.178737
H	-0.0519698516	-2.28675139	-0.1669254623	 0.189882
H	-0.49779263	 1.8345678398	-0.8625388033	 0.097666
H	-1.7935137174	 1.3764803881	 1.2227044852	 0.104884
H	-0.3292450306	 1.5608574328	 2.1765710947	 0.106902
H	-1.5021590861	 3.7439023249	 0.3684695885	 0.106613
H	-1.8908454294	 3.5808685577	 2.0652627406	 0.099191
H	-0.0298458031	 4.916885849	 2.5643596395	 0.084451
H	 2.0420960644	 4.9511791852	 1.4394322632	 0.084451
H	 1.0323390616	 3.7858486349	-1.0075867195	 0.106613
H	 2.6707927746	 3.6563421076	-0.4113815548	 0.099191
H	 1.9656739071	 1.5988316596	 0.9305803296	 0.106902
H	 1.9676572812	 1.4387137608	-0.8193604843	 0.104885
