16
gdb 123565	3.9295	1.56555	1.22747	3.7579	74.12	-0.2317	-0.0051	0.2266	982.3567	0.127718	-400.732742	-400.726476	-400.725532	-400.763282	25.584	
C	-0.0288998606	 1.4658822235	 0.0947446842	-0.277578
C	 1.2944427714	 0.7564047765	 0.0192553232	-0.023818
C	 2.0587283829	 0.4503711942	 1.3296142321	-0.37719
C	 1.0943462179	-0.4529252206	 2.0530103172	 0.145406
C	 0.0145344108	-0.7371885797	 1.279446318	 0.417607
O	-0.8399057971	-1.5515389545	 1.8930995854	-0.234629
N	-0.3030568096	-1.8440442318	 3.1671553702	-0.149728
C	 0.8300255638	-1.1748236703	 3.2408365913	-0.125368
C	-0.015613652	-0.0490705885	-0.0220714948	-0.198687
H	-0.3483572488	 1.8964154414	 1.0381716503	 0.125704
H	-0.3409905407	 2.0209481085	-0.7837304232	 0.121012
H	 1.8740853938	 0.878212659	-0.8879005935	 0.097671
H	 3.0128090181	-0.0460539204	 1.1160851625	 0.118789
H	 2.295237638	 1.3689214075	 1.8786974398	 0.120894
H	 1.4088430696	-1.2611866134	 4.1502567001	 0.129762
H	-0.3872113876	-0.5338476616	-0.9159266928	 0.110154
