15
gdb 44668	3.00503	1.93765	1.73612	4.6999	67.9	-0.2475	-0.0233	0.2242	826.8573	0.11638	-416.819632	-416.813628	-416.812684	-416.849858	24.875	
O	-0.0510995779	 0.0185693953	 0.2775492533	-0.352542
C	-0.0367394672	 1.2007677507	 0.063588544	 0.400741
N	-1.1459397471	 2.0254222037	-0.1315632439	-0.306668
C	-0.7734932268	 3.4061695171	 0.2422280309	-0.098392
C	-0.6980508348	 3.4704830249	 1.7639571071	-0.090081
C	 0.5321385403	 3.1436677447	 2.177104198	-0.070909
C	 1.4630551168	 3.0057174192	 1.0213520263	-0.064461
C	 0.7102927411	 3.3962377668	-0.1909432834	-0.043233
N	 1.1453763471	 2.0066726255	-0.0940377443	-0.169054
H	-2.0188624531	 1.6414206509	 0.2060098402	 0.249232
H	-1.4087987765	 4.1417081811	-0.2508057883	 0.094856
H	-1.5761037512	 3.5675624835	 2.392284181	 0.112295
H	 0.8372111797	 2.97069497	 3.2014701217	 0.116045
H	 2.5291766821	 3.1574155733	 1.1377878173	 0.113672
H	 1.0852857375	 4.0073680734	-1.0042504399	 0.108498
