18
gdb 37148	4.00759	1.8266	1.60701	2.0379	78.12	-0.2229	0.0848	0.3077	869.0986	0.150595	-364.672478	-364.666695	-364.665751	-364.702133	25.888	
C	-0.0201253049	 1.5371041988	-0.1146340256	-0.295722
C	 1.3129729912	 0.8298901926	 0.0097525965	-0.047249
C	-0.0006600466	 0.0314590316	 0.0027763653	-0.198498
C	 0.2546536989	-0.7288185449	-1.2856157183	 0.297659
C	-0.0532190645	-1.7209066244	-2.4235383356	-0.276412
N	 1.3371531869	-1.2178464925	-2.8502406024	-0.196554
C	 1.7472994933	-1.1553343055	-1.3608951461	-0.004367
C	 2.0515537256	 0.3603495903	-1.2735603661	-0.095193
C	 0.9529930542	 0.1852576222	-2.3260944279	-0.026738
H	-0.3580367181	 2.0944474714	 0.7535965515	 0.111653
H	-0.3033868067	 1.9907382897	-1.0583861755	 0.114133
H	 1.8823150347	 0.949626791	 0.9243915044	 0.090484
H	-0.3657363976	-0.4579175083	 0.8976356633	 0.090922
H	-0.0774243308	-2.7894353619	-2.1869292096	 0.103531
H	-0.8440637566	-1.4617798119	-3.1346050549	 0.104175
H	 2.2261674363	-2.0044673793	-0.8694456506	 0.077302
H	 3.0290796186	 0.7932749831	-1.490034561	 0.070077
H	 0.4854924661	 0.9097155482	-2.9939781474	 0.080794
