12
gdb 4249	4.04296	2.04281	1.3571	5.8264	59.61	-0.2587	-0.0464	0.2123	816.994	0.087354	-410.91001	-410.903731	-410.902787	-410.940656	23.443	
N	-0.0883165318	 1.3123338331	 0.317085359	-0.554922
C	 0.0125137864	 0.0884928712	-0.0098729905	 0.465863
N	 1.1869130098	-0.6321054579	-0.269618268	-0.348019
C	 1.1615793611	-1.953640802	-0.6145705295	 0.110957
N	 0.1139235037	-2.6813594671	-0.7422017063	-0.312717
C	-1.1320339068	-2.07224311	-0.5073684815	 0.448534
O	-2.1827934524	-2.6546062203	-0.5967413711	-0.353116
N	-1.0997533161	-0.7148018888	-0.153422839	-0.369602
H	 0.8161303525	 1.7724606425	 0.3831896864	 0.21652
H	 2.0664882633	-0.1465623001	-0.1953272966	 0.271403
H	 2.1433293709	-2.3921068006	-0.788722784	 0.1451
H	-1.9918256506	-0.27185163	 0.0164911811	 0.28
