21
gdb 79816	2.04305	1.89067	1.62393	1.1575	80.5	-0.2398	0.0722	0.3121	1003.634	0.183649	-387.07509	-387.066973	-387.066029	-387.107008	33.121	
C	-0.2775088177	 1.5812931875	 0.0530940381	-0.430742
C	 0.0428258036	 0.0908031011	-0.0122950169	-0.019831
C	 0.6275607459	-0.5531412337	-1.2743556089	-0.091892
C	 2.1444059006	-0.4409057394	-1.3473602078	-0.037148
C	 2.8825758239	 0.6329199737	-0.5467577863	-0.243807
C	 2.4380493193	 0.3806127287	 0.9184484601	-0.270996
C	 1.2292424415	-0.56261224	 0.7942525161	 0.386762
O	 0.8927936471	-1.262658844	 1.9637608989	-0.500657
C	 1.5204442852	-1.4582405946	-0.4405587925	-0.118568
H	 0.5751689072	 2.2114283302	-0.2139968185	 0.117592
H	-1.0917934632	 1.8259640202	-0.6384047905	 0.115367
H	-0.6089087599	 1.872939482	 1.0570756679	 0.105117
H	-0.8480356216	-0.4827130836	 0.2689725619	 0.078213
H	 0.0588287337	-0.8124520832	-2.1609227487	 0.07724
H	 2.573533452	-0.7790959096	-2.2847535373	 0.08087
H	 3.9646991835	 0.5093486038	-0.6551231184	 0.099495
H	 2.6460257372	 1.6447259935	-0.890905954	 0.100496
H	 3.2207365448	-0.1362740486	 1.4838019986	 0.101799
H	 2.1937986623	 1.3040520794	 1.4556305962	 0.087148
H	 0.7148561647	-0.6188786365	 2.6576962068	 0.275148
H	 1.6568623298	-2.530802087	-0.4463582849	 0.088396
