18
gdb 30014	3.15117	1.57475	1.07421	3.0641	79.6	-0.1736	0.0423	0.216	1106.4656	0.149814	-401.969705	-401.96167	-401.960726	-402.002796	29.809	
C	 0.1368115815	 1.4507201177	 0.022623154	-0.342054
N	-0.0034928092	 0.0121640368	 0.0230129286	-0.101085
C	 0.0075347723	-0.7956008827	-1.0933341515	-0.081758
C	-0.0571150625	-2.1294783056	-0.716337045	-0.355758
C	-0.0968289619	-2.0999862621	 0.6948082966	 0.367811
C	-0.047122056	-0.8066511962	 1.126737997	 0.191112
C	-0.2422495694	-0.7369400593	 2.6069726029	-0.376315
C	-0.0657509513	-2.2635779435	 2.9220168542	-0.079849
O	-0.2446946652	-3.0201551427	 1.6971248218	-0.290796
H	 1.1295759794	 1.7625245813	 0.3688117181	 0.134781
H	-0.0100194058	 1.8234371346	-0.992967126	 0.140089
H	-0.6156899391	 1.9123861992	 0.6699128134	 0.137139
H	 0.0905349406	-0.3565928736	-2.0754258527	 0.112896
H	-0.0789134289	-2.9794603642	-1.3785974189	 0.101235
H	 0.4951106867	-0.1449161098	 3.1603860352	 0.108958
H	-1.2376092687	-0.3697930629	 2.8968825504	 0.109379
H	 0.9497216979	-2.4523296861	 3.2910456946	 0.10995
H	-0.7837544204	-2.6393792808	 3.6539561774	 0.114264
