17
gdb 64589	3.92878	1.14088	1.12021	3.0311	69.84	-0.2482	-0.0288	0.2194	1124.6173	0.134459	-458.945457	-458.936956	-458.936011	-458.979368	30.44	
C	-0.0736323441	 1.5649993295	 0.1061443158	-0.47064
C	-0.0156832584	 0.0566272185	 0.0862896598	 0.135442
C	-1.2212081188	-0.6524319064	-0.4116925167	 0.120928
O	-2.2224226687	-0.1099131174	-0.8114808087	-0.263003
C	 1.309633865	-0.6892184646	-0.2120415192	 0.003724
O	 2.4710850705	 0.0946434327	-0.1602456697	-0.250121
C	 2.8262074035	 0.1656812338	 1.2143602367	 0.018682
O	 1.6265309117	 0.0355084176	 1.961577584	-0.249512
C	 0.7629963849	-0.7293138298	 1.1616622205	 0.007535
H	 0.9264213282	 1.9984998737	 0.125508037	 0.132721
H	-0.592483993	 1.916734816	-0.7885875021	 0.141653
H	-0.6280940462	 1.924737896	 0.9771869807	 0.132458
H	-1.1466310986	-1.766185484	-0.3965941085	 0.06324
H	 1.3424284267	-1.5221651051	-0.905401729	 0.120739
H	 3.5266333438	-0.646823283	 1.4685867197	 0.104539
H	 3.2729571738	 1.141742444	 1.4191418261	 0.132238
H	 0.3329700397	-1.6004393617	 1.6440446634	 0.119378
