18
gdb 60301	5.94135	0.48759	0.46691	5.4253	88.18	-0.2757	-0.0347	0.241	2249.048	0.145648	-401.944754	-401.934567	-401.933623	-401.98096	35.769	
C	 0.0474359282	 1.5571141103	 0.0660650235	-0.414419
C	 0.0041933451	 0.0307708159	 0.0315872024	 0.136957
O	 0.6946954681	-0.5386684975	 1.1417531203	-0.426232
C	-1.431650956	-0.5047891989	-0.0612899391	-0.190539
C	-1.4610093492	-2.0466307123	-0.1185286772	-0.380476
C	-2.8062232083	-2.5908245623	-0.1166852805	 0.053267
C	-3.9361677069	-3.0205318932	-0.1116385685	 0.083457
C	-5.2104794158	-3.5088401994	-0.1068034624	 0.202027
N	-6.2962636453	-3.9228671786	-0.1025607	-0.340698
H	 1.0811211669	 1.9040691031	 0.1432786096	 0.13172
H	-0.3980555245	 1.9878967733	-0.8360262009	 0.124168
H	-0.5104010044	 1.9427678617	 0.928841173	 0.112577
H	 0.5661209161	-0.3223945907	-0.8429167824	 0.094234
H	 0.3400992964	-0.1407771724	 1.945230686	 0.281125
H	-2.0049282902	-0.1634863836	 0.810198786	 0.107607
H	-1.9261419853	-0.0899959671	-0.9463016409	 0.11716
H	-0.9348274445	-2.3948369812	-1.0173029349	 0.146005
H	-0.8989537803	-2.440103537	 0.7362251959	 0.16206
