21
gdb 106164	2.66217	1.46093	1.43647	1.4906	81.86	-0.2473	0.0707	0.3181	1061.7855	0.184018	-387.046928	-387.038907	-387.037962	-387.079349	31.897	
O	-0.0614070395	 1.4469898537	 0.038208581	-0.423552
C	 0.015116989	 0.0247688439	 0.0228703014	-0.249591
C	-1.3790224589	-0.5098056131	 0.0133022601	 0.434343
C	-2.4727436459	-0.2342945105	-1.0871517085	-0.08145
C	-2.6131196229	-1.762832337	-1.2979865888	-0.226157
C	-1.7997850356	-2.0285452577	-0.0053125976	-0.112596
C	-2.6197149862	-1.7926639688	 1.2889914225	-0.22615
C	-2.4783351243	-0.2596721202	 1.1142118559	-0.081486
C	-3.4054501484	 0.3214785059	 0.0177253884	-0.224637
H	 0.834837761	 1.7956343123	 0.0472994831	 0.287084
H	 0.5605127045	-0.3336976356	-0.8671328023	 0.083153
H	 0.5558134568	-0.3531235946	 0.9076610581	 0.083163
H	-2.3080727526	 0.3874597456	-1.9676972784	 0.064901
H	-3.6247440069	-2.1799809431	-1.3543880004	 0.086374
H	-2.0558095364	-2.087927764	-2.1822526669	 0.094401
H	-1.095380451	-2.8625302712	-0.0131251995	 0.057831
H	-3.6315957468	-2.210925398	 1.3305880956	 0.086377
H	-2.0669033842	-2.1381253921	 2.1683459866	 0.094388
H	-2.3182109005	 0.3415715344	 2.0097188592	 0.064844
H	-3.3735218132	 1.4144231261	 0.0304004037	 0.107097
H	-4.4520000379	-0.0034166359	 0.0113250367	 0.081664
