20
gdb 86593	3.52084	1.10759	0.91393	3.3112	81.51	-0.2351	0.0349	0.27	1331.7287	0.170925	-403.160755	-403.151647	-403.150703	-403.195458	33.243	
C	-0.2258139997	 1.5373188734	-0.155207002	-0.401948
C	 0.0066588397	 0.0575228503	 0.1186650468	-0.131255
C	 0.6846860011	-0.7995990899	-0.9925454767	-0.189105
N	 1.7872149044	-1.0423095762	-0.0539686955	-0.079843
C	 2.990908092	-1.7815452883	-0.2070597319	 0.026074
C	 3.5823590554	-2.4428955389	 1.0072470373	-0.265095
C	 2.959933707	-3.2905573982	-0.0713304985	-0.273909
C	 1.2548660994	-0.2847356485	 0.9692702962	 0.405301
O	 1.644155651	-0.0209983382	 2.0780563193	-0.384007
H	 0.6680436515	 2.0053511126	-0.5811843011	 0.12196
H	-1.0543982257	 1.6876186927	-0.854579792	 0.118445
H	-0.4653581407	 2.061493652	 0.7746369501	 0.139116
H	-0.8954253897	-0.4124635924	 0.5215911799	 0.09957
H	 0.148656526	-1.7062375101	-1.2935836157	 0.107661
H	 0.9824435001	-0.2398422888	-1.8871541448	 0.106069
H	 3.6833253049	-1.3691586448	-0.9387418381	 0.095704
H	 4.6620693593	-2.4325687472	 1.1003163758	 0.120262
H	 3.0481582398	-2.3185484919	 1.9402064921	 0.150968
H	 1.9990495933	-3.7465782938	 0.1386082646	 0.118332
H	 3.6071778209	-3.8701298238	-0.7199494659	 0.115698
