21
gdb 64249	3.1911	1.21832	1.16867	1.6381	78.3	-0.2473	0.0803	0.3276	1181.519	0.18099	-424.221647	-424.212584	-424.21164	-424.255162	34.964	
C	 0.1648658236	 1.4007578811	 0.1253822993	-0.423625
C	-0.075278333	-0.105297785	-0.0569222983	 0.381757
C	-1.563463698	-0.4348519624	-0.0516973019	-0.432073
C	 0.6788274834	-0.6565036682	-1.2857097904	-0.328079
C	 2.072002395	-0.8774468929	-0.728482126	 0.389748
C	 3.2376678844	-1.3146143304	-1.4958550278	-0.256435
O	 3.0968609475	 0.0542384847	-1.0999140909	-0.272035
C	 1.8743877326	-1.1289969079	 0.7656143974	-0.142047
O	 0.5139745059	-0.8313891463	 1.0449385365	-0.301005
H	 1.2314554859	 1.6402346295	 0.0889891854	 0.135935
H	-0.3342947393	 1.9734958116	-0.6632558324	 0.11107
H	-0.2304459568	 1.7257194634	 1.0920142491	 0.119816
H	-2.0715018307	 0.0560325938	-0.8876217962	 0.113435
H	-1.715397943	-1.5147082129	-0.1336839779	 0.116075
H	-2.0267754512	-0.0937377335	 0.878761852	 0.123155
H	 0.2368928021	-1.61002941	-1.5956526755	 0.103622
H	 0.6908985357	 0.0224083518	-2.1405668083	 0.11539
H	 4.038562378	-1.863844421	-1.0006524541	 0.113982
H	 3.1432935518	-1.5070924995	-2.5644506264	 0.114053
H	 2.0604035776	-2.1734291506	 1.0440605143	 0.105893
H	 2.5613413585	-0.4900391252	 1.3371761022	 0.111368
