17
gdb 4133	4.1155	1.21189	1.14795	1.485	69.05	-0.2402	-0.0019	0.2383	1097.6393	0.139498	-400.943181	-400.934351	-400.933407	-400.976632	31.904	
C	 0.8993069531	 0.9514200398	-0.7481581532	-0.430853
C	-0.0420028757	 0.1039891604	 0.067822503	 0.081925
O	 0.430577	-1.1397949607	 0.5929848642	-0.258563
C	 0.038933181	-0.1273693595	 1.5277498203	-0.011446
C	 1.0850198195	 0.4235941978	 2.4384134569	 0.341728
C	 2.5504692502	 0.2692608002	 2.146282651	-0.489289
N	 0.6083867684	 0.9765393204	 3.4910773386	-0.173606
O	 1.6187412663	 1.4937760439	 4.3095311122	-0.393785
H	 1.8877355091	 1.0333283571	-0.2960524662	 0.13272
H	 1.016030283	 0.523758034	-1.7496707811	 0.131998
H	 0.4853571628	 1.9589534969	-0.8632483759	 0.128327
H	-1.0474957249	 0.0313826964	-0.354074827	 0.094887
H	-0.9025145519	-0.3163367796	 2.0421799552	 0.104155
H	 2.705346913	-0.4639231275	 1.3552342108	 0.14468
H	 2.996178515	 1.2254640578	 1.8493926189	 0.141983
H	 3.0711446	-0.0481335906	 3.0535918233	 0.146939
H	 1.1194369411	 1.8267897934	 5.0628087791	 0.308201
