19
gdb 100215	2.64145	1.13629	0.97151	4.3315	81.24	-0.2621	0.024	0.2861	1298.792	0.156717	-382.048084	-382.037636	-382.036692	-382.083245	38.077	
C	 0.1030273113	 1.551147663	 0.0442048622	-0.400261
C	-0.0249092455	 0.0286323948	-0.0200393469	-0.187992
C	-1.4821953105	-0.4979784905	-0.0141786244	 0.056562
N	-2.2007374641	 0.0490900181	-1.1663978616	-0.51298
C	-1.4509935753	-2.0662550278	 0.0221179818	-0.389856
C	-2.7733382243	-2.6632590162	-0.0892731944	 0.289214
C	-3.8809268336	-3.1177572971	-0.1964047536	-0.416455
C	-2.1641342959	-0.0265085568	 1.2101787729	 0.331044
N	-2.6725571583	 0.3253643039	 2.1859566066	-0.345459
H	 1.1556335309	 1.8437865904	-0.0082775973	 0.115047
H	-0.4325851416	 2.0234331502	-0.7820266392	 0.13958
H	-0.3098590151	 1.9407987242	 0.9791378004	 0.144036
H	 0.4430298024	-0.3518276608	-0.9377086818	 0.099404
H	 0.5106464195	-0.4330917703	 0.816646576	 0.115655
H	-1.7201683855	-0.2322363095	-2.0172725386	 0.232146
H	-3.1338428004	-0.3526180084	-1.2078238038	 0.248105
H	-0.8200048785	-2.3972596865	-0.8126453395	 0.129982
H	-0.9602003012	-2.4021909749	 0.9432076142	 0.146626
H	-4.8540608244	-3.5370257759	-0.2702962929	 0.205602
