20
gdb 98756	3.5414	1.0768	1.00469	1.2073	78.76	-0.2384	-0.0199	0.2184	1287.0445	0.170178	-403.12184	-403.112799	-403.111854	-403.156509	33.216	
C	 1.5781155079	 1.7836910964	-0.3633711235	-0.380721
C	 1.693897496	 0.2642515734	-0.44986297	-0.281297
C	 0.5990036312	-0.388999052	-1.2759215702	 0.377037
O	-0.3514996621	 0.2252556841	-1.7106129849	-0.310899
C	 0.801554239	-1.8665206474	-1.5714129983	-0.039951
C	-0.2290560854	-2.6157518118	-2.4452408736	-0.278987
C	 0.9063989382	-2.8192586184	-3.4473650603	-0.009972
C	 1.4955997742	-1.5332192444	-3.8536024317	-0.246631
N	 1.9343564344	-2.1224082184	-2.5638191259	-0.156326
H	 1.6534068879	 2.2383462184	-1.354948124	 0.127674
H	 0.6125409323	 2.0775542694	 0.0554092011	 0.132616
H	 2.371407695	 2.1972314312	 0.265333256	 0.111388
H	 2.6581076101	-0.0518977749	-0.8696245004	 0.142674
H	 1.658855757	-0.192602185	 0.5500777728	 0.122927
H	 1.0533133631	-2.3971407415	-0.6485971495	 0.093216
H	-0.5811804412	-3.5388088046	-1.9829289899	 0.110916
H	-1.0828924883	-2.0300706739	-2.7917956592	 0.127451
H	 1.1451612107	-3.7531489369	-3.9452329709	 0.098451
H	 2.2892749112	-1.5532737725	-4.5935496269	 0.123576
H	 0.8863998587	-0.6330477213	-3.8578814308	 0.13686
