18
gdb 19862	3.70489	2.18372	1.92892	1.5767	69.35	-0.2357	0.0811	0.3168	778.3208	0.15675	-347.773873	-347.767489	-347.766545	-347.804432	25.531	
C	-0.0744149456	 1.4625756585	-0.2368175511	-0.291902
C	 1.2571583218	 0.8222239436	 0.0229724241	-0.062679
C	-0.0281197921	-0.0220084827	-0.0106294562	-0.065551
C	 0.5125454146	-0.7796515312	-1.2386208857	 0.109522
O	-0.1206703422	-0.6405133869	-2.4927960971	-0.267337
C	 0.4744286741	 0.4196436261	-3.2434247714	-0.077308
C	 1.840647022	 0.7729057065	-2.5944378922	-0.261515
C	 1.7999449185	 0.0883897337	-1.2193745142	-0.041797
H	-0.4753710926	 2.0279474095	 0.598911499	 0.11216
H	-0.3312594807	 1.8851667967	-1.2021688866	 0.113893
H	 1.8599411668	 1.0939118779	 0.8808612041	 0.084826
H	-0.5602296732	-0.4845726711	 0.8118685137	 0.08197
H	 0.6528605867	-1.8456605271	-1.0383509751	 0.077745
H	 0.5843075123	 0.0735800956	-4.2775367954	 0.099615
H	-0.1962162194	 1.2892081795	-3.2607311593	 0.099597
H	 2.6625262363	 0.3725745117	-3.1941662355	 0.106002
H	 1.9807238282	 1.8548697469	-2.5233608706	 0.107484
H	 2.7095164545	-0.473273507	-1.0030799805	 0.075274
