23
gdb 59195	2.73411	1.06662	1.03322	1.6259	85.82	-0.2511	0.0721	0.3232	1343.6766	0.205183	-388.241111	-388.23171	-388.230766	-388.275175	36.634	
C	 0.0250296716	 1.4867558039	 0.0702979483	-0.3853
C	 0.0848342834	-0.0476786933	 0.1178538789	-0.02943
C	 0.7554604503	-0.5316580675	 1.4126212807	-0.38534
C	-1.3214273967	-0.6370011345	-0.0028826957	 0.073193
C	-2.1295876893	-0.6315159313	-1.3468850953	-0.1257
C	-1.2387260361	-1.8137703825	-1.8235522805	-0.233129
C	-1.5812493027	-2.1457675684	-0.3433489864	-0.125787
C	-3.0437411089	-1.7348761972	-0.7181271676	 0.191727
O	-4.0152848843	-1.4490556729	 0.2443045704	-0.450758
H	 1.0256783504	 1.9224787976	 0.158535082	 0.110343
H	-0.4155832938	 1.842688811	-0.8662907905	 0.115129
H	-0.5810494061	 1.8814953815	 0.8950258161	 0.109469
H	 0.7031902017	-0.3827480379	-0.7223768176	 0.07462
H	 0.839011394	-1.622713664	 1.4381532171	 0.11511
H	 1.7627422529	-0.1144384957	 1.5138483093	 0.110345
H	 0.1791303849	-0.2207606642	 2.2926765424	 0.109457
H	-1.8922370646	-0.2696372914	 0.8628879442	 0.028551
H	-2.4451246442	 0.2360084778	-1.9292304844	 0.069157
H	-1.6715804533	-2.4730246278	-2.5816116842	 0.0915
H	-0.1988176006	-1.5910108637	-2.0554142996	 0.101783
H	-1.2659530896	-3.0201669568	 0.2287585782	 0.069143
H	-3.5314488817	-2.3916205294	-1.4428247509	 0.080964
H	-3.6415574674	-0.8704830233	 0.916496605	 0.284952
