14
gdb 26810	3.86248	1.12453	0.87498	1.7198	78.37	-0.1946	-0.008	0.1866	1236.4113	0.101496	-432.867475	-432.859125	-432.858181	-432.90014	31.423	
N	-0.1861021914	 1.4169391003	-0.0009723292	-0.62928
C	-0.0383230424	 0.0080416563	-0.0162092984	 0.081243
C	-1.1102034464	-0.8508244083	-0.09557156	 0.387949
O	-2.4313613197	-0.6202089968	-0.1712945887	-0.434222
N	-0.5995002812	-2.1114596958	-0.0863641945	-0.368434
C	 0.7799677654	-1.9811189096	-0.0009694214	 0.167752
N	 1.1288118403	-0.7070084772	 0.0419085867	-0.332289
C	 1.626968337	-3.1070004095	 0.030804728	 0.259412
C	 2.3210435623	-4.0916421074	 0.0557796723	-0.406479
H	 0.3112599473	 1.8428900612	-0.7784976139	 0.245989
H	 0.2132424327	 1.8150587722	 0.8448258615	 0.245988
H	-2.5227238589	 0.3441736929	-0.1603132778	 0.311399
H	-1.1215236056	-2.9707970141	-0.1325706951	 0.278221
H	 2.9477641905	-4.9482936744	 0.0788863805	 0.192751
