16
gdb 49925	5.0893	0.87225	0.7967	1.9273	76.06	-0.2597	-0.0485	0.2112	1366.7311	0.124363	-400.780532	-400.772211	-400.771267	-400.814766	29.602	
O	-0.8033723508	 0.4426944045	 0.1279044264	-0.239242
C	-0.2368796459	 1.4828901706	-0.072002149	 0.160449
C	 1.2675434656	 1.693953399	 0.0582114426	-0.119774
C	 1.8473938712	 2.513524975	-1.1288833435	-0.269449
C	 2.0472768373	 3.9688395759	-0.5923966812	-0.178612
C	 1.9537883028	 3.7980841288	 0.9150887848	-0.061724
C	 1.5492953634	 2.5781022917	 1.255214468	-0.09061
C	 3.307155809	 4.5743514152	-1.0294520346	 0.264665
N	 4.3034085377	 5.0496307088	-1.3720733468	-0.318311
H	-0.7969648034	 2.4041564825	-0.3605976921	 0.076585
H	 1.7230417448	 0.7037661086	 0.1517852687	 0.109927
H	 2.8107250504	 2.092726302	-1.4216875612	 0.145771
H	 1.2035205847	 2.498091748	-2.0118510982	 0.126897
H	 1.2424916005	 4.6282550889	-0.944371988	 0.138148
H	 2.1892854341	 4.6067664615	 1.5957471866	 0.12935
H	 1.3813335384	 2.2351105291	 2.2693599574	 0.12593
