17
gdb 93614	2.74253	1.31655	1.0485	1.5305	74.4	-0.2429	-0.0322	0.2107	1169.4982	0.133996	-421.813422	-421.804572	-421.803628	-421.847314	32.604	
C	-0.3558557245	 1.3714417448	-0.324520711	-0.401522
C	-0.1941791032	-0.0801160627	 0.1357669566	 0.016385
O	 0.1562427686	-0.9678415524	-0.9199130609	-0.261135
C	 1.5696461139	-1.1407607673	-0.925534725	-0.109825
C	 1.9720406249	-1.1848891902	 0.5629878289	-0.31137
C	 3.3504935037	-0.8655757365	 0.8639781196	 0.32549
C	 4.4956592988	-0.5852617393	 1.0946393654	-0.435527
C	 0.9270402013	-0.2143625043	 1.1744811327	 0.372411
O	 0.9814691996	 0.3380223404	 2.2358340683	-0.297272
H	 0.5656480843	 1.7499552503	-0.7772184368	 0.126292
H	-1.1583932679	 1.4407077705	-1.0627393252	 0.131804
H	-0.6005159715	 2.0030055186	 0.533896521	 0.142522
H	-1.1348961694	-0.4365937367	 0.5715442871	 0.116403
H	 1.7907511512	-2.0646133353	-1.4622042029	 0.128913
H	 2.0810857944	-0.3084614544	-1.430011555	 0.111801
H	 1.7141443566	-2.1778561057	 0.9599765484	 0.142368
H	 5.506884129	-0.3411605195	 1.3080033489	 0.202262
