18
gdb 81913	2.48437	1.70981	1.26939	1.2434	71.97	-0.2398	-0.0338	0.206	1027.9445	0.14771	-439.079147	-439.070856	-439.069912	-439.111752	31.836	
C	 0.1162647197	 1.642706423	 0.0373602889	-0.3933
C	 0.0778479077	 0.1212254411	 0.0097914397	 0.02865
C	 0.71329635	-0.5524481514	-1.2216031395	-0.041308
O	 1.7633856364	 0.2386382279	-1.7726635901	-0.420541
C	 1.2998456393	-1.8682150122	-0.6481466526	 0.403568
O	 1.59095073	-2.8392563529	-1.3020723306	-0.335949
C	 1.4171801302	-1.6926484577	 0.828691729	-0.154669
C	 2.1484773467	-0.4435773946	 1.2352926238	-0.248378
N	 0.6947554453	-0.4711193336	 1.2372795306	-0.103792
H	 1.1392004172	 2.0176203318	-0.0336432936	 0.135406
H	-0.4487245004	 2.0555257429	-0.8032554465	 0.122479
H	-0.3287363987	 2.0052961129	 0.9679071944	 0.126572
H	-0.9668363159	-0.2103744011	 0.0434883356	 0.095567
H	-0.0386185586	-0.7857840506	-1.9860635839	 0.094736
H	 2.190812048	-0.2900136195	-2.4568915567	 0.298058
H	 1.3955181525	-2.5639683339	 1.4736111978	 0.11562
H	 2.61049545	-0.431165577	 2.218105553	 0.128959
H	 2.6689724907	 0.1136795346	 0.4628609105	 0.148323
