17
gdb 10349	2.75758	1.75015	1.18936	13.0782	63.7	-0.1797	-0.0145	0.1652	1005.2424	0.141116	-438.088977	-438.080054	-438.07911	-438.123023	31.352	
C	-0.4953184763	 0.6858701949	 0.2766276907	-0.258644
O	 0.8322648542	 0.4120532272	-0.2034797569	-0.307147
C	 0.9386154567	-0.4233987954	-1.3795553031	-0.02639
C	 1.2348620429	-1.8469704559	-0.8934704677	-0.2125
N	 2.1317701899	-1.6688822509	 0.3409944292	-0.431983
H	 3.1181941815	-1.5991693391	 0.0941496125	 0.31303
H	 1.786065978	-0.7199038343	 0.6636377189	 0.32661
H	 2.0163572096	-2.3874523146	 1.0529019674	 0.310707
C	-0.270072818	-0.5001022057	-2.4117409833	 0.354998
O	-0.9043652763	 0.5443061288	-2.5873497108	-0.451063
O	-0.3482179459	-1.6431429006	-2.9010378052	-0.465397
H	-1.0813265915	 1.1297032876	-0.5279861177	 0.198116
H	-0.9945591897	-0.2288173174	 0.6273648731	 0.095959
H	-0.3714606854	 1.3712996407	 1.1185035838	 0.113865
H	 1.8091325295	-0.0286811866	-1.9182842438	 0.099373
H	 0.3291772217	-2.3500646445	-0.5572072456	 0.168312
H	 1.738221649	-2.4644317541	-1.6305583214	 0.172154
