18
gdb 13006	2.62503	2.46288	1.6641	1.6235	72.02	-0.231	0.0084	0.2394	849.0103	0.154178	-347.800457	-347.792907	-347.791963	-347.831686	29.782	
C	-0.0757650046	 1.4819293215	 0.0041411411	-0.493311
C	 0.0633108089	-0.0206292382	-0.0009573886	 0.337012
C	-0.8070254952	-0.8537279242	 0.9143803844	-0.332357
C	 0.6981538628	-0.8088802902	 1.1247272912	-0.115197
C	 1.4343877417	-1.9330015147	 0.4696385643	-0.07442
C	 1.3004556012	-1.8983684196	-0.8572069123	-0.13441
C	 0.4995646872	-0.6915869823	-1.3161565774	 0.029151
O	-0.5618157279	-0.9927648708	-2.2140931468	-0.433254
H	 0.8676285308	 1.9685174613	-0.2695410076	 0.117448
H	-0.8356881044	 1.7997690855	-0.7190476526	 0.12847
H	-0.372106385	 1.857969677	 0.9884749905	 0.111235
H	-1.433389809	-0.3050546915	 1.6110668201	 0.110827
H	-1.234082082	-1.7920084087	 0.5715191282	 0.099394
H	 1.0933676514	-0.3301771691	 2.0140932327	 0.087541
H	 1.9649369913	-2.6930602277	 1.0331069595	 0.099052
H	 1.6799389914	-2.628780147	-1.5622784399	 0.099435
H	 1.1338406653	-0.0006712954	-1.8880530932	 0.088541
H	-1.1813214738	-1.5609934357	-1.7425617036	 0.274843
