21
gdb 95295	2.11261	1.81491	1.38042	2.2591	77.42	-0.2426	0.0718	0.3144	1062.144	0.18277	-424.222996	-424.214426	-424.213482	-424.25574	33.224	
C	-0.4184612207	 1.457196132	-0.0258052231	-0.419604
C	 0.0399936094	 0.0095221928	-0.0101017618	 0.092834
O	 0.941035532	-0.2103732656	-1.094105362	-0.266527
C	 1.5673102478	-1.4638491284	-0.8501215859	-0.113565
C	 1.8050737624	-1.5155983515	 0.6562342744	 0.080135
O	 2.9319001459	-0.7226441669	 1.0738603081	-0.291958
C	 2.075063176	 0.3105915547	 1.5998574608	-0.117469
C	 0.7936601107	-0.4854785358	 1.2417750132	 0.252017
C	-0.0985640797	-0.892579502	 2.401141861	-0.4929
H	 0.4237531449	 2.1432664442	 0.0965054401	 0.127182
H	-0.9045715362	 1.6854352658	-0.9780172011	 0.130983
H	-1.1390208687	 1.6394271589	 0.7775261397	 0.117239
H	-0.84334595	-0.6447607631	-0.1369118453	 0.058799
H	 0.9111856246	-2.2965839598	-1.1563056313	 0.083601
H	 2.4947799838	-1.5064187193	-1.4261916903	 0.119496
H	 1.8401949902	-2.5305212693	 1.0668561597	 0.072376
H	 2.2360942106	 0.4665267693	 2.6741105616	 0.095262
H	 2.2174638227	 1.2610562124	 1.0736983973	 0.105743
H	-0.6475472757	-0.0314287983	 2.8000688148	 0.12177
H	-0.8365369721	-1.6402716176	 2.0901802002	 0.11914
H	 0.4872524121	-1.3186825123	 3.22137483	 0.125446
