20
gdb 56912	2.93697	0.99633	0.8859	5.642	80.31	-0.2567	0.0233	0.28	1392.1436	0.169907	-399.314818	-399.304594	-399.30365	-399.350093	37.282	
C	-0.778170765	 1.1843534982	 0.3141363963	-0.444198
C	-0.185862805	-0.20602617	 0.1871618312	 0.308597
C	-1.1851468475	-1.2683707199	-0.2312878995	-0.457116
N	 1.1677762919	-0.2574593826	-0.3966237893	-0.356715
C	 0.9820012748	-0.6527626763	 1.0050572444	-0.072379
C	 1.6663262991	 0.2066132287	 2.066935023	-0.138145
N	 1.0441336831	 0.1723652183	 3.3952894171	-0.505437
C	 3.0747228569	-0.20714826	 2.1881958116	 0.302619
N	 4.1672291443	-0.5737015557	 2.269117837	-0.319777
H	-0.0167831535	 1.934556656	 0.5346768529	 0.132378
H	-1.2561603525	 1.4739125409	-0.6280837209	 0.126535
H	-1.5452810754	 1.2177555695	 1.0963462439	 0.114262
H	-1.6042478878	-1.034520368	-1.216838719	 0.127691
H	-0.7198512207	-2.257763319	-0.2857361331	 0.117641
H	-2.0206732148	-1.327807287	 0.4748987395	 0.124959
H	 1.2863990796	-1.0741783008	-0.9905693567	 0.234143
H	 1.0177388797	-1.7168113117	 1.2406537187	 0.088634
H	 1.6706690997	 1.245538767	 1.7222169565	 0.138956
H	 0.0727619885	 0.4563770194	 3.3068922693	 0.238312
H	 1.0397815046	-0.7798898372	 3.7506094269	 0.239043
