25
gdb 120843	3.43577	0.61156	0.55466	1.0052	91.45	-0.2478	0.0885	0.3363	2125.9288	0.227212	-389.472496	-389.461325	-389.46038	-389.510038	39.648	
C	 0.1118575355	 1.524642272	-0.2860396843	-0.382099
C	 0.2748214282	 0.0082743123	-0.156250324	-0.15551
C	 0.437021259	-0.457655319	 1.2975949463	-0.19407
C	 0.5868795786	-1.962299498	 1.4133072935	-0.006853
C	 1.9359821404	-2.6307754606	 1.2984406926	-0.284283
C	 1.1917472503	-2.6617931954	 2.6113224414	-0.033849
C	 1.713136558	-1.9174558499	 3.8110571186	-0.073417
O	 2.6596826423	-2.7367208169	 4.4706349168	-0.229936
C	 3.1733001042	-2.1426658048	 5.6360885629	-0.223963
H	 0.9831127195	 2.0529954204	 0.1174623123	 0.112393
H	-0.0041241566	 1.8264921616	-1.3316908588	 0.111035
H	-0.7691819624	 1.8776188265	 0.2618070607	 0.112661
H	-0.5949439776	-0.4941398973	-0.6000046236	 0.093314
H	 1.1446009022	-0.3232094998	-0.7373432183	 0.099731
H	 1.3069899548	 0.0459898501	 1.736337545	 0.092456
H	-0.4337384428	-0.1250363352	 1.8804394051	 0.092089
H	-0.2377659655	-2.5055015727	 0.9557125898	 0.07985
H	 2.0294303823	-3.5485465541	 0.7286116069	 0.108703
H	 2.8075610793	-1.9846743449	 1.2432225796	 0.10809
H	 0.7359861708	-3.6115931865	 2.8777521568	 0.087714
H	 2.1802694863	-0.9638500366	 3.5155111676	 0.080518
H	 0.8875400178	-1.6683420276	 4.5015723188	 0.081789
H	 3.8865457122	-2.844185151	 6.0762129678	 0.124641
H	 3.6954448593	-1.1960080353	 5.4200104399	 0.09914
H	 2.3821038537	-1.9316256474	 6.3742359366	 0.099856
