18
gdb 9279	6.40169	0.81801	0.76376	5.01	66.04	-0.2779	0.0087	0.2866	1438.2058	0.15114	-422.093923	-422.084241	-422.083297	-422.129667	32.744	
C	-0.181655161	 1.439734889	-0.1456598405	-0.401889
C	-0.0416276401	-0.0795637157	-0.006216068	 0.025398
C	 0.7600579902	-0.4611700908	 1.2406351527	-0.079831
O	 2.0634694206	 0.0793148827	 1.1031718861	-0.418858
C	-1.3973930166	-0.7853168274	 0.0250339846	-0.091625
O	-2.0906556941	-0.5849779697	-1.2129703268	-0.179623
C	-3.3163684427	-0.0309321255	-1.1838152619	 0.173081
O	-3.9655387028	 0.1570476783	-2.1678517362	-0.274898
H	 0.8040286796	 1.9085087172	-0.1399423298	 0.142193
H	-0.6876260904	 1.7058619911	-1.0770436744	 0.13204
H	-0.7588860723	 1.8582682354	 0.6887691928	 0.104588
H	 0.510438711	-0.4651118969	-0.8726110683	 0.105457
H	 0.2573165576	-0.0654322213	 2.1396203676	 0.085636
H	 0.7955540691	-1.5585085222	 1.3401500589	 0.08687
H	 2.5550350154	-0.1052054924	 1.9085095829	 0.290433
H	-1.2731755557	-1.8665401558	 0.1505829868	 0.11916
H	-2.0114556998	-0.4141588567	 0.858053807	 0.105952
H	-3.6463562681	 0.2253448908	-0.1574163334	 0.075915
