20
gdb 112007	2.51547	1.41156	1.08947	2.0413	79.64	-0.2307	0.0076	0.2383	1175.7578	0.171366	-403.126471	-403.117692	-403.116748	-403.159709	33.834	
C	-0.0610230503	 1.4802330981	 0.0292089424	-0.494752
C	 0.0942764385	-0.0180572747	 0.0087496533	 0.309036
N	-0.7502952358	-0.8583062821	 0.893641914	-0.368181
C	 0.7307556293	-0.8050822008	 1.1017368648	-0.139415
C	 1.4366336833	-1.9474265537	 0.4545861464	-0.055094
C	 1.2526630761	-1.918542749	-0.8674414453	-0.104293
C	 0.429780953	-0.7255055205	-1.3167643936	-0.08573
C	-0.8223683462	-1.0943296032	-2.1327466451	-0.083114
O	-0.5089764465	-1.7563844658	-3.3505351299	-0.42431
H	 0.8125816164	 1.9734182651	-0.4107105457	 0.127169
H	-0.9420138635	 1.7975297147	-0.5414850346	 0.127254
H	-0.1761676588	 1.8518654861	 1.0531847734	 0.112727
H	-1.1921108006	-0.2442299067	 1.5778941943	 0.220724
H	 1.1052649198	-0.3432159816	 2.0097156791	 0.086333
H	 1.9910875925	-2.6981068763	 1.0050279651	 0.098157
H	 1.6309978691	-2.6557288201	-1.5674285382	 0.091874
H	 1.041928025	-0.0657660719	-1.9484970095	 0.080891
H	-1.4975489389	-1.6875039785	-1.5046357698	 0.114816
H	-1.3508942377	-0.1784579381	-2.4202433798	 0.102019
H	-0.2786937846	-2.6654068509	-3.1374663012	 0.28389
