15
gdb 51215	3.80253	1.28615	1.07962	4.0778	65.85	-0.2551	-0.0063	0.2488	1076.7882	0.111371	-457.681976	-457.674748	-457.673803	-457.714344	27.088	
O	 0.342271048	 0.0394606649	-0.2774686117	-0.261642
C	 0.6018874925	 1.1937507668	-0.4211651511	 0.12959
O	 0.3268123009	 2.1081842824	 0.5545922894	-0.246557
C	 0.6603976574	 3.4353811294	 0.3093100299	 0.398126
C	 0.4161496996	 4.5745451679	 1.300884668	-0.33347
C	 1.0705367935	 5.276698979	 0.0884175299	-0.087851
C	 1.9979600767	 4.0644375074	-0.2272823104	 0.011368
O	 1.611304072	 3.9873294541	-1.6327386831	-0.316369
C	 0.3734612212	 4.3402631154	-0.9443125899	 0.011348
H	 1.0707056126	 1.6430967616	-1.3112935642	 0.127541
H	-0.6274213975	 4.8236906168	 1.5051674975	 0.118195
H	 1.0000095365	 4.5473662498	 2.2234973236	 0.118196
H	 1.3157582798	 6.3232843901	-0.0645595988	 0.10665
H	 3.0338437545	 3.8773526291	 0.0513030428	 0.112438
H	-0.5366589375	 4.4835982654	-1.5246600218	 0.112438
