18
gdb 106887	2.8493	1.25435	1.04464	3.1762	72.87	-0.2382	-0.0213	0.2168	1178.9005	0.146277	-439.050277	-439.041249	-439.040305	-439.084179	33.263	
C	-0.1458617907	 1.5662027896	 0.0227488294	-0.42274
C	 0.024863734	 0.0549250789	-0.0280702394	-0.148808
C	 1.1735694097	-0.5790446679	-0.8719523574	 0.455118
O	 1.4095235498	-0.6218624747	-2.0429596537	-0.310671
C	 1.7421512445	-1.2729111704	 0.3499975275	-0.270116
N	 1.9930783706	-0.1573657106	 1.3322330165	-0.368569
C	 0.6287460835	-0.6945904248	 1.1821502396	 0.306297
C	-0.1287423307	-1.3003692708	 2.3217231927	-0.187179
O	-0.7652663619	-0.319327236	 3.1268352523	-0.405104
H	 0.7695184371	 2.0428018812	 0.3811766069	 0.13888
H	-0.370919263	 1.9565081993	-0.9742157005	 0.131495
H	-0.9677687292	 1.8392495712	 0.6915563351	 0.126024
H	-0.9046990122	-0.4364410505	-0.3443417685	 0.104742
H	 2.2828416649	-2.20782886	 0.4331072772	 0.116395
H	 2.4226078339	-0.6081614727	 2.1429394573	 0.232686
H	-0.9358037505	-1.9359949637	 1.9423491935	 0.123388
H	 0.5448229898	-1.9423917088	 2.9145348374	 0.087881
H	-0.0897273897	 0.2932505807	 3.4370663641	 0.290281
