17
gdb 85207	2.61065	1.20927	0.9306	4.9896	70.54	-0.258	-0.0462	0.2118	1257.9113	0.133217	-458.989128	-458.97995	-458.979006	-459.024082	32.128	
C	-0.2973706075	 1.5115398914	 0.0611308641	-0.389213
C	 0.0014819324	 0.0211242605	-0.0686944356	-0.057613
C	 1.3273657898	-0.2890556072	-0.8435061398	-0.352929
C	 2.0035821316	-0.4727027183	 0.5221239315	 0.373567
O	 3.1183274766	-0.380675704	 0.9426697834	-0.285343
C	 0.6293297558	-0.6120186903	 1.2123714356	 0.018898
O	 0.4037981453	 0.0775502315	 2.4265329358	-0.193121
C	 1.086227861	-0.3508707928	 3.5174639341	 0.175882
O	 0.9790580663	 0.1841462879	 4.5776952539	-0.267972
H	 0.577909793	 2.0664906644	 0.414511952	 0.132975
H	-0.5902581259	 1.9229243123	-0.9094935177	 0.121667
H	-1.1072195692	 1.6892858832	 0.7728876657	 0.140806
H	-0.8739658531	-0.5183753944	-0.4338484988	 0.09098
H	 1.2978181774	-1.2224898294	-1.4139922177	 0.137671
H	 1.7380245512	 0.5003150609	-1.4771115827	 0.141031
H	 0.3569070586	-1.672038025	 1.3051687297	 0.115821
H	 1.7258268968	-1.2269675709	 3.3120237964	 0.096895
