17
gdb 98711	2.95738	1.14182	0.95358	3.6408	76.99	-0.2431	0.0282	0.2713	1273.2296	0.134026	-417.975035	-417.965364	-417.96442	-418.010315	34.097	
C	-0.1880984259	 1.247220509	-0.2460953251	-0.32413
N	 0.0986637559	-0.1699740116	-0.1348968016	-0.331097
C	 0.7809662264	-0.8315773786	-1.1225631498	 0.451984
O	 1.0565173772	-0.3592539166	-2.2037920809	-0.381394
N	 1.197130466	-2.1234797079	-0.7237046484	-0.141992
C	 0.3046039062	-3.145522093	-0.2136718131	-0.260795
C	 0.9857831641	-3.3043021417	-1.5516637328	-0.18333
C	 0.1957491003	-3.2590506446	-2.7522057275	 0.365131
C	-0.4570728514	-3.2723972484	-3.7607335184	-0.455858
H	 0.5417036178	 1.8641334249	 0.2938723865	 0.123711
H	-0.1458870419	 1.5086863451	-1.3037001136	 0.171219
H	-1.1878764754	 1.4657783926	 0.1411275741	 0.122601
H	 0.086878222	-0.5884443286	 0.7808662706	 0.248309
H	 0.6611146954	-3.7121455997	 0.6429449939	 0.126734
H	-0.7649011478	-2.9516603847	-0.2391369809	 0.138619
H	 1.8554221844	-3.9554813646	-1.6035629989	 0.126308
H	-1.0256671432	-3.2570595317	-4.6574961343	 0.20398
