17
gdb 73245	2.2709	1.9388	1.42753	2.2085	68.93	-0.2401	0.0125	0.2526	959.4918	0.137923	-455.134612	-455.126985	-455.126041	-455.16669	29.684	
O	 0.0888010842	 1.3822438015	 0.0002343821	-0.476657
C	 0.030865177	-0.0098988918	-0.024374029	 0.319122
C	 0.2526821535	-0.7247456461	-1.3850728207	-0.228342
N	-0.8930689725	-1.6173693349	-1.0713476688	-0.323347
C	-1.3403629035	-0.7340205947	 0.0346826127	-0.069711
C	-1.3652145372	-1.4389244993	 1.3857448039	-0.086924
O	 0.0152627468	-1.5118624623	 1.8160885975	-0.241582
C	 0.7802645669	-0.6163857133	 1.148411717	 0.368244
N	 1.9513135605	-0.2537413756	 1.4551166414	-0.565113
H	 0.9265853813	 1.6062720619	 0.4306774522	 0.295404
H	 0.0737277909	-0.0127779327	-2.1999146517	 0.107045
H	 1.2044384222	-1.239664641	-1.5462840623	 0.11753
H	-1.5640049943	-1.7280676328	-1.821902079	 0.225438
H	-2.2191868282	-0.113910285	-0.1603959071	 0.088267
H	-1.9299122132	-0.8781977727	 2.1396591004	 0.11426
H	-1.7455449483	-2.4600561269	 1.3199129573	 0.127542
H	 2.2773874537	-0.7057366642	 2.3095960939	 0.228822
