19
gdb 1139	4.77422	1.7673	1.65623	1.5303	67.01	-0.2539	0.0746	0.3286	850.7327	0.170464	-310.915653	-310.907707	-310.906762	-310.947014	30.604	
C	-0.6178211606	 1.599359837	-0.0530013182	-0.443781
C	-0.0307496325	 0.1930130215	 0.0169660116	 0.347447
C	-1.1164272375	-0.8595021873	-0.2280093855	-0.433994
C	 1.2457425246	-0.0645331993	-0.8494880426	-0.300946
C	 1.8771967331	-0.8062341655	 0.3573601985	 0.178956
O	 3.249265967	-0.6621547105	 0.6294367245	-0.436236
C	 0.8302038006	-0.1319492589	 1.2817413271	-0.300946
H	 0.1494539687	 2.3613957219	 0.1206520935	 0.10287
H	-1.0645142032	 1.7931541477	-1.0355344863	 0.112118
H	-1.4027969078	 1.7382733984	 0.6999784565	 0.112119
H	-1.5735232823	-0.7267661233	-1.2153569557	 0.111857
H	-0.717416587	-1.8780491784	-0.1824157407	 0.1145
H	-1.9122247158	-0.781695766	 0.5216995387	 0.111856
H	 1.1289212357	-0.6127303671	-1.7884768457	 0.095646
H	 1.7836170756	 0.8686535943	-1.0544513383	 0.083743
H	 1.7126735752	-1.8851109988	 0.2911563364	 0.091763
H	 3.4401713027	 0.2794846231	 0.6964739222	 0.27364
H	 1.2407134416	 0.780571264	 1.7300105728	 0.083743
H	 0.376024882	-0.734880973	 2.0729829613	 0.095646
