13
gdb 21001	7.6186	1.28072	1.1041	7.0602	64.26	-0.2545	-0.0515	0.203	1007.0019	0.095805	-394.787466	-394.780251	-394.779306	-394.819572	24.639	
C	-0.0056030871	 1.4359689552	 0.0478583451	-0.335385
N	 0.0007298643	-0.0114564245	-0.0512423366	 0.070646
C	 0.0624108226	-0.801198618	-1.1374487096	-0.155931
C	 0.0347475242	-2.0903033897	-0.6366892116	 0.2053
C	 0.0784875491	-3.3424488208	-1.3998182667	 0.094304
O	 0.0523968035	-4.4521262061	-0.9281389168	-0.254556
N	-0.0425319475	-2.0108129541	 0.7292073477	-0.223801
N	-0.0628957352	-0.768884501	 1.0805538656	-0.121285
H	 0.9115474725	 1.854180965	-0.3747043856	 0.155765
H	-0.8707424018	 1.8532128332	-0.4737555736	 0.15578
H	-0.0646475646	 1.6828863553	 1.1076132699	 0.179778
H	 0.1189249555	-0.411962552	-2.1408545555	 0.162143
H	 0.1406991549	-3.1814160525	-2.5006458722	 0.06724
