20
gdb 81992	2.37512	1.45172	1.30345	1.9317	84.73	-0.2338	0.0427	0.2765	1117.2325	0.16885	-365.933282	-365.924051	-365.923107	-365.966491	35.834	
C	-0.2406679157	 1.5993789369	 0.0877186262	-0.418261
C	-0.0054682089	 0.0945874371	 0.074005942	-0.041189
C	 0.5235645779	-0.5724517043	-1.1932278621	-0.022854
C	 1.9148661249	-0.1920162876	-1.489823303	-0.248354
N	 1.6842005446	-1.2412834829	-0.4761495448	-0.148759
C	 1.2426169751	-0.5451575675	 0.8120493445	 0.078825
C	 2.2889619473	 0.3632510762	 1.4611146257	-0.443873
C	 0.8294973259	-1.5658234607	 1.7678595965	 0.324226
C	 0.4761087395	-2.3837275897	 2.5748254816	-0.438202
H	 0.6208887925	 2.1627729442	-0.2812979346	 0.115239
H	-1.0962236441	 1.8532762736	-0.5476451588	 0.121883
H	-0.4646302807	 1.9523238299	 1.0999803839	 0.122738
H	-0.9071520467	-0.4140854073	 0.4208335084	 0.095685
H	-0.0878386697	-1.1232305328	-1.9010471825	 0.09328
H	 2.3612607934	-0.5974745574	-2.3927660822	 0.12374
H	 2.3036641265	 0.7799210703	-1.2032084152	 0.109952
H	 2.5890779919	 1.188820774	 0.8128327891	 0.114021
H	 1.8942621734	 0.787879068	 2.3883044503	 0.130976
H	 3.1778531219	-0.2244660118	 1.7076256666	 0.139011
H	 0.169836831	-3.1165282684	 3.2796732084	 0.191917
