11
gdb 133435	3.13708	1.51541	1.02181	1.6938	58.01	-0.2767	-0.0739	0.2028	1015.3073	0.064277	-529.924473	-529.917288	-529.916344	-529.957378	25.694	
F	 0.0300181259	 0.0945238043	-0.2512093681	-0.025588
C	-0.0816073419	 1.3802701099	-0.0617076693	 0.43195
N	-1.1828990276	 1.848380815	 0.3496252981	-0.221482
O	-1.2118814744	 3.2477323783	 0.5256673223	-0.274714
C	-0.1210843076	 4.0430824616	 0.2685787143	 0.371766
N	-0.1728868371	 5.2904435056	 0.4356977432	-0.456011
C	 1.1305578799	 3.3872531707	-0.2160716597	 0.341657
N	 2.181629417	 4.0121224077	-0.4838130024	-0.444131
O	 1.065518392	 1.9981600318	-0.359032542	-0.223536
H	-1.098044357	 5.570487768	 0.7691701766	 0.248008
H	 2.9208462506	 3.3813230071	-0.7987656429	 0.252081
