21
gdb 112931	4.73546	0.60341	0.58878	1.4063	89.65	-0.2365	0.0553	0.2918	1964.9496	0.180881	-387.054098	-387.043596	-387.042652	-387.091982	36.793	
C	-0.0220429188	 1.5384974878	-0.0229677666	-0.498389
C	-0.0377759389	 0.0825168102	-0.0295438442	 0.091459
C	-0.0475462113	-1.1227097539	-0.0410864484	 0.049021
C	-0.0784684169	-2.571017482	-0.0297789816	-0.163701
C	 0.314509498	-3.3312834081	 1.2801145935	-0.25714
C	-0.8220249928	-4.3462601538	 0.988225377	 0.051568
C	-1.6452648627	-4.8509058872	 2.1533437305	-0.100852
O	-2.693797321	-5.6558219702	 1.6322814906	-0.42291
C	-1.4571126655	-3.3076064234	 0.0263223163	-0.226784
H	 0.3966576603	 1.9294661485	 0.9113558254	 0.144387
H	 0.5820773411	 1.9361022407	-0.8463068855	 0.145179
H	-1.0326290721	 1.9494162717	-0.1276328089	 0.145061
H	 0.5100813332	-2.965027392	-0.8661033989	 0.095147
H	 1.337978911	-3.7050883663	 1.3549007684	 0.101356
H	 0.0943397887	-2.7201549087	 2.1605777163	 0.105266
H	-0.4419042323	-5.2055951908	 0.4254956592	 0.079539
H	-1.0031356265	-5.4254678524	 2.8422418341	 0.083224
H	-2.0447846607	-3.9920991404	 2.7185142288	 0.080359
H	-3.2401281463	-5.9521205664	 2.3659597977	 0.286384
H	-2.2054074644	-2.694803205	 0.5369169142	 0.105523
H	-1.8736577321	-3.6633426284	-0.9173704179	 0.106301
