19
gdb 86957	3.49548	0.94319	0.81072	3.842	78.79	-0.2387	-0.0183	0.2203	1426.7859	0.157361	-423.043303	-423.034126	-423.033182	-423.078579	32.932	
C	 0.1381330421	 1.465851479	-0.1954621707	-0.390208
C	-0.0298104928	-0.0290606586	 0.0731043365	 0.090411
O	 0.4909838464	-0.7873892661	-1.028962036	-0.289241
C	 1.4181201019	-1.7760080881	-0.5773675414	 0.062784
C	 2.7466425318	-1.6398899129	-1.3494367998	-0.282724
C	 2.5555524201	-1.7950693744	-2.8434847415	 0.154572
O	 3.1502035815	-2.591388364	-3.5252020878	-0.24269
C	 1.5395690594	-1.5337557704	 0.9037901731	-0.100934
C	 0.7251670199	-0.5511831921	 1.267230726	-0.098507
H	 1.1975662438	 1.7294396046	-0.264011721	 0.118705
H	-0.3505063	 1.7348915069	-1.1360108557	 0.12953
H	-0.3179837013	 2.0536231732	 0.6080307419	 0.114894
H	-1.1065505149	-0.2485850738	 0.170722477	 0.08582
H	 1.0033342587	-2.7783261086	-0.7788225549	 0.094292
H	 3.1479472393	-0.6369097445	-1.1540351988	 0.119659
H	 3.47093609	-2.386198427	-1.0094612308	 0.115496
H	 1.8038951746	-1.1052901841	-3.2820555345	 0.095773
H	 2.2018981697	-2.1069582723	 1.5399599975	 0.11191
H	 0.5844275498	-0.1586636069	 2.2664976108	 0.110457
