23
gdb 117544	2.03088	1.12872	0.76577	0.72	89.1	-0.2601	0.0398	0.2999	1577.4721	0.201522	-388.260058	-388.248618	-388.247673	-388.296942	41.184	
C	-0.3554542463	 1.4147631617	 1.1955310148	-0.385492
C	-0.6894692478	-0.0631057394	 1.3030165775	-0.040668
O	-0.9500231719	-0.5540292823	-0.0021091419	-0.248903
C	-1.2515595977	-1.9390178449	-0.0644228758	-0.044556
C	-2.5491222463	-2.2290248817	 0.565433136	 0.334616
C	-3.6139251709	-2.4444601844	 1.0812224731	-0.46461
C	-1.2112333535	-2.3613135232	-1.5506561579	 0.020476
C	 0.1517048142	-2.0200491332	-2.1654066589	-0.396827
C	-1.5375020829	-3.8501709374	-1.7156940916	-0.400433
H	-0.145101171	 1.8288563952	 2.1862527293	 0.114982
H	 0.5224444359	 1.5682895762	 0.5613526546	 0.124308
H	-1.1936101239	 1.9658985122	 0.7599083192	 0.128749
H	 0.1502744491	-0.6206572194	 1.7509641967	 0.084172
H	-1.5660004831	-0.2177853928	 1.9488580455	 0.102139
H	-0.4722767562	-2.5075038893	 0.4759217499	 0.085371
H	-4.5528810343	-2.6388708313	 1.5380482317	 0.196654
H	-1.984103308	-1.7710285977	-2.0586326832	 0.090691
H	 0.9512472971	-2.5973676686	-1.6846693434	 0.106092
H	 0.1613065823	-2.267164676	-3.2316410648	 0.107826
H	 0.3818901615	-0.959823284	-2.0503097361	 0.132069
H	-2.5209938282	-4.0971839543	-1.3085450578	 0.129081
H	-1.5269134521	-4.125186629	-2.7747881103	 0.113228
H	-0.7932246962	-4.4742052666	-1.2060085766	 0.111033
