21
gdb 68244	2.80454	1.81921	1.43339	1.5686	81.03	-0.2409	0.0867	0.3277	998.9712	0.184297	-387.069132	-387.061662	-387.060718	-387.100538	31.098	
C	 0.0788793542	 1.483748239	 0.1931082114	-0.499529
C	 0.0395354426	-0.0068124635	 0.0076510445	 0.408157
C	 0.8483407787	-0.7773798588	-1.0728691969	-0.271193
C	 0.7374472643	-1.8479026756	 0.0342231074	 0.059809
O	 0.7876921908	-0.7708151676	 1.0213598354	-0.329387
C	-0.7563108886	-2.2182191893	 0.0092981181	-0.020749
C	-1.4338001204	-2.4525628591	 1.387375566	-0.225912
C	-1.9900566269	-0.9974298051	 1.3680902753	-0.229305
C	-1.3174278536	-0.7508865891	-0.0108586991	-0.055934
H	 1.1100080266	 1.8426102511	 0.2533450866	 0.126094
H	-0.4159139041	 1.9827019362	-0.6467654263	 0.120259
H	-0.4399507619	 1.7735699499	 1.1127582302	 0.12969
H	 0.3892129581	-0.9669284886	-2.0475780103	 0.089709
H	 1.8629482024	-0.3892473017	-1.1748340669	 0.104306
H	 1.4824589708	-2.627059179	 0.1991112727	 0.074331
H	-1.0207256373	-2.9033205281	-0.7984492216	 0.064229
H	-2.2068013892	-3.2245103699	 1.3713490915	 0.092302
H	-0.7384516915	-2.6670785026	 2.2019495424	 0.105
H	-3.0807065858	-0.9375603024	 1.3421179918	 0.091929
H	-1.6225392343	-0.3565941636	 2.1729210876	 0.103919
H	-1.9665124449	-0.4382824722	-0.8312543598	 0.062273
