17
gdb 54365	3.80156	1.4027	1.20766	3.0546	76.9	-0.2289	-0.0113	0.2176	1045.6923	0.134281	-384.601246	-384.593522	-384.592577	-384.633943	29.552	
C	 0.4003161871	 1.3903576963	 0.0992006282	-0.493431
C	-0.1672820748	-0.0096063184	-0.0410526154	 0.227415
O	-0.7214984829	-0.5851872936	 0.8769228718	-0.328871
C	-0.0170610351	-0.6541617955	-1.3514516696	 0.303181
C	 0.5897797645	-0.3178853152	-2.744405028	-0.2001
C	-0.4458352676	-1.2088444754	-3.4149767438	-0.089046
C	 0.8874554059	-1.7924231765	-2.9748119095	-0.089054
C	 0.2609498661	-2.1532123826	-1.5949897692	-0.123997
C	-1.0523576986	-1.5780304138	-2.0284628156	-0.124037
H	 1.4750042778	 1.3890137005	-0.1171835061	 0.137593
H	-0.0685869337	 2.0657005768	-0.6259251445	 0.137549
H	 0.2280301732	 1.7582452931	 1.1112920408	 0.140121
H	 1.0988514034	 0.5567535524	-3.1268596467	 0.091199
H	-0.8796920244	-1.1414001838	-4.4028163204	 0.09626
H	 1.6676955274	-2.2563677598	-3.5618297152	 0.096267
H	 0.4855923715	-2.8881927606	-0.8345927018	 0.10948
H	-2.0539652499	-1.7759228641	-1.6728126651	 0.109471
