18
gdb 16140	3.80059	1.6989	1.42499	3.1339	72.66	-0.2442	-0.0129	0.2313	921.8844	0.155307	-347.826938	-347.819796	-347.818851	-347.858189	27.771	
O	-0.3254708285	 0.1425730241	 0.2067870818	-0.273107
C	-0.0685717088	 1.3102049046	 0.0313571602	 0.078437
C	 1.2913076439	 1.8693904862	-0.0591250941	 0.273228
C	 1.4850217459	 3.3361473475	 0.3090513204	-0.339552
C	 1.597718388	 2.9398648926	-1.1236125237	-0.06387
C	 2.9730917953	 2.6231176974	-1.6943868255	-0.213348
C	 3.651475397	 1.7214030589	-0.6374671966	-0.233607
C	 2.4983077475	 0.950491489	 0.0451627583	-0.276983
H	-0.8822759326	 2.0655910613	-0.0855830977	 0.058462
H	 0.595928045	 3.8836816055	 0.605928242	 0.120684
H	 2.3738215315	 3.5946900603	 0.8746373491	 0.123584
H	 0.814229804	 3.2613305882	-1.8018413741	 0.094489
H	 2.8474497107	 2.082395878	-2.6395264562	 0.108452
H	 3.5577423247	 3.5231962307	-1.9128365435	 0.104447
H	 4.396106971	 1.0538192987	-1.0778615285	 0.104839
H	 4.1812053295	 2.3373525629	 0.0963740703	 0.106141
H	 2.7336517116	 0.6746626588	 1.077688654	 0.106339
H	 2.2667726842	 0.0216620851	-0.4863372862	 0.121366
