21
gdb 83541	3.12054	1.46701	1.27535	1.5956	82.74	-0.2328	0.0921	0.3249	1091.0079	0.183724	-387.052262	-387.044342	-387.043398	-387.0842	32.115	
C	-0.086182878	 1.6240554432	 0.0504422644	-0.4431
C	 0.0165170853	 0.1094602079	-0.0068987421	 0.040774
C	 0.8519024396	-0.6274814435	-1.1197582278	-0.186777
C	 2.2395391567	-0.0066007377	-0.901568259	-0.083634
O	 2.3014611567	-0.010984584	 0.5459865979	-0.278961
C	 1.0483947643	-0.6354749527	 0.8900441456	-0.008954
C	 0.9481122509	-1.78978373	-0.1091535051	 0.462221
C	 0.1293603677	-3.0327984915	-0.0272882764	-0.364074
C	 1.6446058694	-3.1039353203	-0.1653505491	-0.367872
H	 0.8960888293	 2.0889767595	 0.1636542332	 0.13488
H	-0.5576263254	 2.0248940183	-0.853849476	 0.112318
H	-0.6978352721	 1.9345681543	 0.9045273571	 0.114591
H	-0.9662747092	-0.3614566827	 0.0726350412	 0.07843
H	 0.4968773277	-0.7523660453	-2.1426875026	 0.066648
H	 3.0500323859	-0.6189638763	-1.3131108527	 0.100271
H	 2.3361437145	 1.0171780165	-1.2794718159	 0.096027
H	 0.9720122114	-0.739821852	 1.9718045561	 0.073503
H	-0.3074760805	-3.3079598012	 0.927977322	 0.113183
H	-0.4713534541	-3.3171224507	-0.8860239067	 0.111598
H	 2.0493650843	-3.4360910387	-1.1167663326	 0.111087
H	 2.2225267956	-3.4199940531	 0.6971979886	 0.11784
