19
gdb 95024	2.6578	1.83881	1.43091	2.5702	73.04	-0.2394	0.0693	0.3086	967.3269	0.160556	-422.984461	-422.97701	-422.976066	-423.016374	29.556	
C	 0.2307221528	 1.4783901146	-0.2616074955	-0.408785
C	-0.0955144576	 0.0379609548	 0.1312924264	 0.124411
O	 0.0524515592	-0.8584497984	-0.9823533315	-0.276512
C	 1.2562773799	-1.6169682509	-0.8852254217	-0.09755
C	 1.569165696	-1.7395724458	 0.6118212487	-0.071187
C	 2.8625720559	-1.0805581201	 1.1461726069	 0.004948
O	 2.945674584	 0.2185014948	 0.5552243337	-0.231948
C	 2.1084789897	 0.0520247781	 1.7071072081	 0.006766
C	 0.7627457633	-0.5658731443	 1.26162124	-0.076796
H	 1.2745341085	 1.5801978728	-0.5627162853	 0.145194
H	-0.408894157	 1.7862882242	-1.0933251777	 0.118855
H	 0.0429822808	 2.1552516325	 0.5800498875	 0.102707
H	-1.1560527772	-0.0156565127	 0.4073484726	 0.075796
H	 1.0688460859	-2.5813808598	-1.3668448463	 0.100524
H	 2.0782768555	-1.1150162591	-1.4116790412	 0.105079
H	 1.3603304371	-2.7230957676	 1.0341050688	 0.082839
H	 3.7904726298	-1.5430582012	 1.4612246639	 0.107094
H	 2.3149926347	 0.6902417019	 2.5583949046	 0.105584
H	 0.1698143487	-0.8766966039	 2.1239067177	 0.08298
