14
gdb 127497	3.95801	1.1574	0.9018	8.0783	72.22	-0.247	-0.0302	0.2168	1207.7639	0.102883	-429.088595	-429.080333	-429.079389	-429.121682	29.318	
C	-0.0156279809	 1.405990903	-0.0481909367	-0.342619
N	 0.0045619737	-0.0399459213	 0.0123472771	 0.005004
N	 0.0401739096	-0.7924330295	-1.1185626077	-0.296513
C	 0.0229914859	-2.0238784814	-0.6290047232	 0.243769
N	-0.0031255247	-2.1202544513	 0.73301448	-0.360166
C	-0.0105740326	-0.8514972871	 1.100394728	 0.403623
N	-0.1063098902	-0.3819385822	 2.392005417	-0.610036
C	 0.0365792219	-3.1654465117	-1.4842905613	 0.266864
N	 0.0487696355	-4.0964170524	-2.1697227631	-0.335486
H	 0.9905079405	 1.826798401	 0.0549153667	 0.148748
H	-0.4244885354	 1.6967926624	-1.0153318719	 0.178306
H	-0.6559619414	 1.7907584896	 0.7497043206	 0.155998
H	-0.0147144828	-1.1307321337	 3.0650731171	 0.278414
H	 0.492016921	 0.4005941246	 2.6178364974	 0.264095
