18
gdb 44783	2.39357	2.15911	1.57531	1.9522	76.26	-0.2206	-0.0152	0.2053	908.2715	0.14926	-401.848832	-401.842021	-401.841077	-401.879656	28.458	
O	 0.1031956981	 0.1151587199	 0.1187898554	-0.342289
C	 0.025135947	 1.3121200911	 0.0595367191	 0.396337
C	-1.2100246604	 2.2325685376	 0.1087474377	-0.278243
N	-0.5720911172	 3.5582835159	-0.0536331273	-0.171656
C	 0.61021061	 3.3946200969	 0.9340962478	-0.277049
C	 1.1584917129	 2.3341926807	-0.1153139816	 0.148458
C	 2.1761416766	 1.8625763179	-1.1903147026	-0.319701
C	 1.0469587024	 2.2958724537	-2.247687018	-0.295038
C	 0.5575060055	 3.2614131863	-1.113458285	 0.047506
H	-1.9050511034	 2.0152321373	-0.7076713729	 0.131607
H	-1.7527009585	 2.1687613322	 1.0556674245	 0.130823
H	 1.2037731347	 4.3075530544	 0.9773662887	 0.12756
H	 0.3087576659	 3.0746158922	 1.9358014101	 0.117098
H	 3.0656708504	 2.4887021353	-1.2787657528	 0.115267
H	 2.4530758957	 0.806554873	-1.165855539	 0.128742
H	 1.3732877974	 2.7556105488	-3.1826524365	 0.10872
H	 0.3813685512	 1.4579770752	-2.4638894388	 0.137387
H	 1.0974474217	 4.2065903114	-1.204232299	 0.094473
