19
gdb 126419	2.93239	1.23768	0.93887	1.1041	79.51	-0.2029	0.0294	0.2323	1292.4025	0.158771	-419.238992	-419.229021	-419.228077	-419.274427	35.299	
C	-0.0081022196	 1.5596545386	-0.1417268709	-0.373479
C	-0.0557367692	 0.0430081917	 0.1165990502	-0.307684
C	-1.4365422542	-0.5294069102	 0.0146780515	 0.248836
N	-2.1117860254	-0.9305885963	 1.0925808022	-0.294127
N	-3.2999860522	-1.3487987969	 0.6193407879	-0.267687
C	-3.4220958514	-1.2485276356	-0.7355965539	 0.303999
C	-4.6330985862	-1.6500540198	-1.5064350544	-0.512427
C	-2.2201173693	-0.7130483533	-1.1515896121	 0.107191
O	-1.9153723585	-0.4125620206	-2.4523282553	-0.455035
H	 1.0176846202	 1.9369245132	-0.0821224778	 0.11077
H	-0.4032726219	 1.8061134843	-1.1328489053	 0.115594
H	-0.613885885	 2.0937483748	 0.5959801865	 0.129721
H	 0.6148265744	-0.4663144383	-0.5912493505	 0.088844
H	 0.3296127919	-0.1791947283	 1.1160106291	 0.124479
H	-3.9820433429	-1.7055670243	 1.266013624	 0.266509
H	-5.488957934	-0.9930985067	-1.3094398053	 0.133902
H	-4.4122177987	-1.5964481603	-2.5747896334	 0.153552
H	-4.9431862645	-2.67603073	-1.2765641547	 0.128867
H	-0.9589725034	-0.3564527018	-2.5376559578	 0.298175
