13
gdb 20686	3.872	2.00017	1.32972	4.0967	65.29	-0.2561	-0.092	0.164	866.5581	0.095035	-394.759296	-394.752254	-394.75131	-394.791347	25.233	
C	-0.0311557836	 1.4952808352	 0.0333826154	-0.487217
C	 0.0007096052	-0.000530962	-0.0408204138	 0.310029
N	-0.033613383	-0.5919556532	-1.1823650868	-0.295617
C	-0.0021505028	-1.979660789	-1.2112134244	 0.448283
N	-0.0333463269	-2.6242780904	-2.2963793422	-0.499925
O	 0.0657307794	-2.6899264544	 0.0063929778	-0.269747
N	 0.1022847389	-2.0521816812	 1.2263095954	-0.032336
C	 0.0710690865	-0.7702514605	 1.1973376958	-0.013946
H	 0.8629049152	 1.8726211998	 0.5436260991	 0.149556
H	-0.0831869157	 1.9170312432	-0.9701923962	 0.16327
H	-0.8959767536	 1.8314337806	 0.6174785824	 0.149562
H	-0.0023473922	-3.6280302845	-2.1158960908	 0.235388
H	 0.1007410927	-0.2853084236	 2.1679009482	 0.1427
