14
gdb 28064	4.87427	0.92456	0.78491	4.438	66.93	-0.241	-0.0123	0.2287	1364.0402	0.09988	-473.879105	-473.870818	-473.869874	-473.913331	28.353	
C	 0.0702636224	 1.4806850212	-0.0074931949	-0.487067
C	-0.0528167059	 0.0031083197	 0.0693866749	 0.405728
N	-1.1375788399	-0.714044817	 0.1005896345	-0.375877
C	-0.6812806509	-2.0138092991	 0.1687203905	 0.34662
O	-1.502605799	-3.0943877509	 0.2598613077	-0.228601
C	-2.7800473509	-2.9974873368	-0.2279710451	 0.155078
O	-3.5403739425	-3.9079850852	-0.1295859687	-0.257797
C	 0.6713794007	-2.0367913605	 0.1790313538	-0.154609
O	 1.0827108372	-0.7284001324	 0.1196754799	-0.167289
H	 0.6073989433	 1.782416085	-0.9124321562	 0.153634
H	-0.9267910732	 1.9206876384	-0.0206242398	 0.161741
H	 0.6242784842	 1.8719419	 0.8516447083	 0.154571
H	-2.983404808	-2.0218835383	-0.6896176598	 0.131953
H	 1.4255251925	-2.799945314	 0.2285194449	 0.161915
