21
gdb 115606	2.8577	1.06877	0.942	2.3217	75.77	-0.239	0.0609	0.2999	1350.1854	0.180134	-461.330029	-461.319847	-461.318903	-461.365204	37.252	
C	-0.0119197498	 1.3616742291	-0.2557568221	-0.236247
O	-0.0636222629	 0.0868824422	 0.3425830827	-0.23578
C	-1.280970313	-0.5632358509	 0.144262221	 0.129438
C	-1.6507209328	-1.173920513	-1.235967609	-0.272515
C	-2.2722859752	-2.3715439066	-0.4631048589	-0.267995
C	-1.3940636735	-1.9771201494	 0.7686895004	 0.38631
O	-0.1344163043	-2.6138601768	 0.7325232914	-0.480708
C	-1.9834808671	-2.0885822251	 2.1648983348	-0.16153
O	-2.0185219026	-3.4800524062	 2.4817140802	-0.436404
H	 0.964838215	 1.7913396358	-0.0210481859	 0.127267
H	-0.1214647854	 1.3093448742	-1.3492686157	 0.10907
H	-0.7976616262	 2.0283206224	 0.1360645435	 0.098586
H	-2.1166263682	 0.0618528494	 0.5068121259	 0.055512
H	-2.2964251077	-0.5968280671	-1.9009524924	 0.090334
H	-0.745569533	-1.4764790824	-1.7671708308	 0.123144
H	-3.3419063473	-2.2426179371	-0.2754534994	 0.095669
H	-2.0925519771	-3.3704277433	-0.862066608	 0.106287
H	-0.2651976338	-3.4474124033	 1.2033077587	 0.283681
H	-1.338984562	-1.5384280445	 2.8653073947	 0.105549
H	-2.9914690295	-1.6495185098	 2.1969376239	 0.085352
H	-2.1145846537	-3.5781257277	 3.4326570751	 0.29498
