18
gdb 49177	3.77489	1.16884	0.98239	4.5113	81.52	-0.2447	-0.0535	0.1912	1197.7052	0.149739	-401.957107	-401.949515	-401.948571	-401.989255	29.594	
O	-0.1431766692	-0.0023879801	 0.0523970229	-0.279372
C	-0.0216545721	 1.201288911	 0.112045464	 0.091201
C	 1.2590538195	 1.9206820734	 0.0302661839	 0.199831
C	 1.2515213988	 3.2646510996	 0.0631776595	-0.089583
C	 2.4969081945	 4.0488602321	-0.0439458006	-0.088093
N	 3.6125908364	 3.6547136465	 0.869514702	-0.328793
C	 3.7161065079	 3.3479738055	-0.5571031693	-0.021336
C	 3.5857586812	 1.8917867203	-0.9537040661	-0.224587
C	 2.5405766018	 1.1397435098	-0.1056950389	-0.31692
H	-0.9099885727	 1.8629746461	 0.2307274439	 0.063887
H	 0.3080446668	 3.8002253626	 0.1453820919	 0.100162
H	 2.3886223897	 5.1084103832	-0.2544607673	 0.090128
H	 4.1611916314	 4.4813125533	 1.093700071	 0.235992
H	 4.4008067067	 3.9433337882	-1.158169775	 0.088948
H	 3.3003658063	 1.8563043035	-2.0127911794	 0.107004
H	 4.5566870008	 1.3913508905	-0.8696475291	 0.108405
H	 2.9526902601	 0.9577038741	 0.8924217152	 0.137876
H	 2.3201355522	 0.1598362005	-0.5370980887	 0.125252
