22
gdb 70090	2.10495	1.83986	1.43478	1.5455	86.44	-0.226	0.0175	0.2435	1066.5859	0.193926	-367.206091	-367.197111	-367.196167	-367.238663	36.181	
C	-0.0951941621	 1.4971455566	 0.0932174792	-0.498949
C	 0.0897197059	 0.0027985508	-0.0008165127	 0.294653
N	-0.4987851779	-0.8455302136	 1.0624843814	-0.370164
C	 0.986695991	-0.7693760751	 0.9045506729	-0.140171
C	 1.5123199253	-1.918897112	 0.1152956813	-0.073081
C	 0.9871051326	-1.9134664482	-1.1099011413	-0.099782
C	 0.0948062094	-0.708127073	-1.3822399487	 0.209715
C	-1.3222073091	-1.1279899232	-1.8118716097	-0.422206
C	 0.7383431769	 0.16434463	-2.4782361481	-0.431468
H	 0.6430020603	 2.0427052218	-0.5017878561	 0.127136
H	-1.09052404	 1.7965167694	-0.2569582661	 0.123795
H	 0.0044906752	 1.8317178468	 1.1313791588	 0.109581
H	-0.7751775482	-0.2347447011	 1.8311475069	 0.217739
H	 1.5677859521	-0.301715653	 1.6932933882	 0.082124
H	 2.1805011597	-2.6694190073	 0.520553679	 0.095851
H	 1.148374879	-2.6724686061	-1.8691118479	 0.089707
H	-1.796732919	-1.7197243801	-1.0270585426	 0.140267
H	-1.9453941629	-0.2477550745	-2.0089661248	 0.103631
H	-1.2913400912	-1.7213150401	-2.7322001461	 0.103948
H	 0.8574562532	-0.4167245695	-3.3989354032	 0.111461
H	 0.1183533081	 1.0351877664	-2.7166596141	 0.111081
H	 1.7303315615	 0.5164208351	-2.1781088164	 0.115133
