17
gdb 65961	2.34613	1.48505	1.35508	2.1971	74.58	-0.2331	0.021	0.2541	1053.4355	0.132697	-421.745838	-421.736897	-421.735953	-421.779425	33.735	
O	-0.1176929399	 1.3577376364	-0.2867650027	-0.457015
C	 0.0047703171	-0.0332214378	-0.0669183084	 0.069191
C	 0.07917395	-0.4837465914	 1.4268066477	-0.112416
O	-1.1715271641	-1.1933593905	 1.3190725642	-0.308286
C	-1.3618702524	-0.7323233945	-0.0154371939	 0.445168
C	-2.6569664737	-0.2007874789	-0.5249517065	-0.325823
C	-2.0855523273	-1.510408289	-1.0554963251	-0.344592
C	 0.9975455796	-0.6303550265	-0.9488063772	 0.306842
C	 1.8361341176	-1.09135093	-1.6769352195	-0.497568
H	 0.7458913237	 1.6951150985	-0.5475319555	 0.288698
H	 0.9067626128	-1.1456033047	 1.6978410157	 0.112448
H	 0.0184519232	 0.3679150523	 2.1134883217	 0.111262
H	-3.506641098	-0.2611284714	 0.1465850196	 0.124629
H	-2.6255348587	 0.6798661358	-1.1566303494	 0.131282
H	-1.669999431	-1.5349903459	-2.0577051443	 0.123842
H	-2.560254532	-2.4310284254	-0.7334556908	 0.125972
H	 2.5704913231	-1.509685167	-2.3206543855	 0.206366
