18
gdb 32820	3.52242	1.08551	0.85328	1.6526	76.34	-0.178	0.039	0.2169	1340.9742	0.147712	-439.098248	-439.089233	-439.088288	-439.132387	32.907	
C	-0.9022964447	 1.3985628551	-0.3831951132	-0.224789
O	-1.0203756892	 0.002813452	-0.5343527494	-0.2407
C	-0.5565084944	-0.7138270893	 0.6061721143	-0.200056
C	-0.7911204489	-2.1738190508	 0.4027901605	 0.169428
C	-1.858220513	-2.7433445606	-0.236352545	 0.310686
N	-2.9907535775	-2.2014261808	-0.8184547018	-0.603382
O	-1.765887134	-4.0924187755	-0.2275778195	-0.178312
C	-0.6057194292	-4.4114016688	 0.4423075494	-0.036018
C	 0.0187714576	-3.2794385177	 0.8417348222	-0.27445
H	-1.2865097005	 1.8617412359	-1.2952364673	 0.126461
H	-1.4817204146	 1.7680798781	 0.4774487894	 0.107889
H	 0.1469945712	 1.7024657438	-0.2458147519	 0.108729
H	 0.5170005696	-0.5182779237	 0.7630802156	 0.096582
H	-1.0804984027	-0.3331403415	 1.5018244872	 0.096344
H	-2.8126491342	-1.2453513427	-1.1022840633	 0.262144
H	-3.3456830757	-2.7612017577	-1.5833693479	 0.249402
H	-0.3957339416	-5.4628776658	 0.5300974685	 0.128203
H	 0.9514681419	-3.22044237	 1.3824824324	 0.101838
