8
gdb 21779	7.30493	1.43969	1.20267	0.1523	48.71	-0.3214	-0.1061	0.2152	855.5134	0.036958	-449.40235	-449.396469	-449.395525	-449.432743	20.279	
O	 0.0909587337	 0.0065808156	 0.0027147654	-0.32554
C	-0.0015054732	 1.1814262033	 0.0095826205	 0.5172
O	-1.149074098	 1.9298785193	 0.0293868288	-0.210879
N	-0.8268387245	 3.2914794223	 0.0311517569	-0.136954
C	 0.4596372438	 3.3067832126	 0.012927148	 0.355011
O	 1.0491124947	 2.0914389336	-0.0011809373	-0.213013
C	 1.2588694496	 4.4801047868	 0.0069922571	 0.299395
N	 1.9207657839	 5.4269766165	 0.0019624207	-0.28522
