23
gdb 60104	3.61959	0.93519	0.88085	1.7524	86.13	-0.2443	0.0791	0.3234	1465.7399	0.204272	-388.267313	-388.257621	-388.256677	-388.302188	36.717	
C	 0.0118216866	 1.5753061738	 0.0989123629	-0.392671
C	 0.0313605747	 0.0412639996	 0.0917844548	 0.042933
C	 0.6790385566	-0.5052936392	 1.3717549289	-0.381659
C	-1.3941686231	-0.5128555724	-0.1195861137	-0.320795
C	-1.4508356279	-1.9915126889	-0.3490985405	 0.442167
C	-0.9004504956	-2.7986454737	-1.5453088038	-0.286039
C	-2.0269530238	-3.8610682956	-1.2917992784	-0.239684
C	-2.498175117	-3.0043605223	-0.1103377532	-0.050912
O	-1.3852855983	-2.875654148	 0.7851887833	-0.289752
H	 1.0212134426	 1.9818818165	 0.2198219115	 0.110132
H	-0.4036510095	 1.9781387912	-0.8311406607	 0.106685
H	-0.5985076636	 1.9534078366	 0.9279337491	 0.112541
H	 0.6408174804	-0.2831570161	-0.7641113705	 0.074373
H	 0.7145143801	-1.597069782	 1.3770133559	 0.137808
H	 1.7008765689	-0.1265993164	 1.4808371254	 0.104046
H	 0.1120376069	-0.1912898315	 2.2562863807	 0.110926
H	-2.0182711669	-0.2693263293	 0.7495527915	 0.103466
H	-1.8450985412	-0.013019175	-0.9872794901	 0.095212
H	-1.0172207642	-2.2856574835	-2.5034130761	 0.103175
H	 0.1320764191	-3.1391135215	-1.4381386157	 0.107179
H	-2.7505180458	-3.9070814571	-2.1092840362	 0.103571
H	-1.7052795976	-4.8720566333	-1.030892814	 0.109994
H	-3.4887860813	-2.9148992418	 0.322761659	 0.097303
