21
gdb 115335	3.27964	1.08211	0.90736	2.471	74.81	-0.2365	0.0631	0.2996	1333.9956	0.181776	-461.360105	-461.350248	-461.349304	-461.394931	36.152	
C	-0.5799115263	 1.439280241	-0.0495277093	-0.431379
C	 0.1967216198	 0.1312118545	-0.073248231	 0.150713
O	 1.188926025	 0.1943091019	-1.0974857371	-0.285167
C	 2.3956772179	-0.4331009083	-0.6593456007	-0.063853
C	 2.0648658949	-1.1263593044	 0.6722916871	-0.002685
C	 3.2559669322	-1.32877998	 1.5940529649	-0.107991
O	 4.1606263542	-2.1973061455	 0.9199417265	-0.428351
C	 0.9517430628	-0.2270746929	 1.2226994607	 0.048265
O	 1.564471518	 0.894934762	 1.8456435392	-0.433678
H	 0.0860909762	 2.276321619	 0.178148655	 0.124716
H	-1.0272351689	 1.624619042	-1.0293307968	 0.133676
H	-1.3885732492	 1.404323276	 0.6896941424	 0.105937
H	-0.5004516395	-0.6965699847	-0.2912878188	 0.063476
H	 2.7375820471	-1.1357920513	-1.4246022995	 0.109663
H	 3.174808577	 0.3288535702	-0.5186790351	 0.098533
H	 1.6257019095	-2.1087154839	 0.4614393239	 0.087298
H	 3.7181379422	-0.3588123849	 1.8173608381	 0.109239
H	 2.920794896	-1.7655652109	 2.5484064822	 0.08381
H	 4.9661923193	-2.2533333362	 1.4416616118	 0.287338
H	 0.2978056945	-0.7552536623	 1.9315656372	 0.062344
H	 0.8716135674	 1.4962701887	 2.1344841393	 0.288096
