18
gdb 75482	2.78326	1.18001	0.90009	3.2083	77.58	-0.255	0.0057	0.2607	1308.2287	0.146776	-439.09569	-439.086663	-439.085719	-439.130372	31.992	
C	-0.1306228418	 1.4730960427	 0.0704813821	-0.500613
C	-0.0167434833	-0.0129327258	 0.0017345455	 0.299686
C	 0.1799890603	-0.8159961609	-1.0402101565	-0.20085
C	 0.2657543832	-2.2438151218	-0.591297052	-0.125899
O	-0.0106407648	-2.197282767	 0.8127345857	-0.259825
C	-0.04315502	-0.8670603577	 1.2462942424	 0.123295
O	 1.1130568228	-0.5320640615	 2.0241789261	-0.197724
C	 1.1430624961	-1.0110123287	 3.2864323243	 0.134531
N	 2.1607617241	-0.8230963927	 4.007801204	-0.4433
H	 0.6537064822	 1.8851186009	 0.7148068978	 0.156075
H	-0.04354498	 1.9275535837	-0.9191603252	 0.129235
H	-1.0915442705	 1.777980049	 0.5034822935	 0.12911
H	 0.2892033598	-0.5140723436	-2.0743204668	 0.110091
H	-0.4792069561	-2.894614604	-1.0675506498	 0.117986
H	 1.2574671047	-2.6833645254	-0.7734211031	 0.122343
H	-0.9288348909	-0.7290022924	 1.884286858	 0.085689
H	 0.225437337	-1.5398756704	 3.5766258027	 0.092477
H	 2.0122029972	-1.2339884045	 4.9274581214	 0.227693
