16
gdb 98910	6.98142	0.56181	0.52547	6.8279	84.49	-0.2692	-0.0411	0.2281	2005.1148	0.12132	-400.760112	-400.750099	-400.749155	-400.797301	33.639	
C	-0.1231024174	 1.5098381848	 0.2123501294	-0.383018
C	-0.0374735667	 0.0105178955	-0.0620052374	-0.280384
C	 0.7767336468	-0.3299258791	-1.29994906	 0.388365
O	 1.2211759711	 0.4980068673	-2.0503847129	-0.264228
C	 1.0019791775	-1.8462036932	-1.5252018603	-0.509495
C	 1.6429071251	-2.1693169436	-2.782541363	 0.092857
C	 2.1744926989	-2.4367910166	-3.8325175607	 0.094101
C	 2.7749979402	-2.7466711296	-5.018731614	 0.210369
N	 3.2852200639	-3.0164019801	-6.0268472514	-0.336389
H	 0.8703641959	 1.9338408292	 0.3788579613	 0.135934
H	-0.5640009294	 2.0357093217	-0.6375890023	 0.140946
H	-0.7347058798	 1.7028682052	 1.0975197645	 0.117987
H	 0.3917521856	-0.5311822899	 0.7920593989	 0.124999
H	-1.0381335893	-0.4239982844	-0.1994031168	 0.131702
H	 1.6061474446	-2.219547023	-0.6863985924	 0.171025
H	 0.0369776931	-2.3635794041	-1.4434169228	 0.16523
