21
gdb 64277	2.82667	1.50473	1.35332	1.6267	77.66	-0.2407	0.0825	0.3231	1072.9757	0.182088	-424.222463	-424.213897	-424.212952	-424.254966	34.266	
C	 0.0383551788	 1.5062567086	 0.0036836862	-0.412664
C	-0.0259051368	-0.0139120252	-0.0159498455	 0.424357
C	-1.4699160896	-0.5297084724	 0.0729393304	-0.428938
O	 0.6160305902	-0.4114616195	-1.216819082	-0.275353
C	 0.6811232964	-1.8163962265	-1.422274432	-0.111755
C	 1.1593943187	-2.5485941898	-0.1860848992	-0.069428
C	 2.4379313923	-2.1433164706	 0.5119714661	-0.309983
C	 1.1047366474	-1.7927988295	 1.1187823862	 0.102545
O	 0.7279621342	-0.4442423199	 1.1155423075	-0.282018
H	 1.0767465047	 1.8231870708	-0.1106648988	 0.128779
H	-0.5527868946	 1.920632731	-0.8163491372	 0.119196
H	-0.3465913182	 1.8843010772	 0.9533528238	 0.122333
H	-2.0323746158	-0.2428801644	-0.8200921735	 0.122028
H	-1.509302481	-1.6163677349	 0.1758806353	 0.12117
H	-1.9553166874	-0.0935132802	 0.9494855491	 0.123772
H	-0.3015637419	-2.2077068164	-1.7250673773	 0.095031
H	 1.3645258417	-1.9575233057	-2.2659225113	 0.11233
H	 0.8921897114	-3.6006911653	-0.1551438121	 0.090167
H	 3.0399037292	-2.9178828607	 0.9740740771	 0.108992
H	 2.9921741616	-1.3109276191	 0.0919524686	 0.127418
H	 0.7843526286	-2.3119417675	 2.0183680885	 0.092022
