13
gdb 128711	5.02221	1.12124	0.92193	3.0547	64.39	-0.2691	-0.107	0.1621	1174.6359	0.088563	-489.867489	-489.859892	-489.858948	-489.900037	27.164	
C	-0.215945873	 1.391010226	 0.0227280898	-0.237291
O	-0.0721071778	-0.0328724335	-0.0428598668	-0.232208
C	 0.6782191467	-0.517424377	-1.0283688499	 0.50576
N	 1.2361451778	 0.2914069284	-1.8695050615	-0.180474
O	 2.0092316345	-0.3075968404	-2.8756714385	-0.249933
C	 2.165421261	-1.6615832888	-2.9647141319	 0.427212
O	 2.8348186517	-2.1400103984	-3.8396547437	-0.320398
C	 1.4582739908	-2.4330307471	-1.9221055573	-0.088398
N	 0.7492834462	-1.903292314	-0.9975423797	-0.23611
H	 0.7581076378	 1.8703854017	 0.1535889712	 0.150195
H	-0.6774821555	 1.7735188075	-0.8918080582	 0.150196
H	-0.8560259137	 1.5767143459	 0.8845099877	 0.144996
H	 1.5653645333	-3.5150053202	-1.9689111211	 0.166453
