15
gdb 50955	1.896	1.35668	0.86578	5.7573	73.12	-0.268	0.0022	0.2702	1286.9416	0.11067	-416.806202	-416.796708	-416.795764	-416.841666	32.807	
O	-0.0307150864	 0.1786311536	-0.8497432862	-0.307065
C	-0.0032746601	 1.2428610432	-0.276123663	 0.170966
N	 1.1244202702	 1.8246729136	 0.2358189689	-0.276055
C	 2.4153135737	 1.1568209999	 0.1909902424	-0.170266
C	 3.458555348	 1.966446572	-0.6325431213	-0.345539
C	 3.0091828143	 2.2504852917	-1.9922238517	 0.267471
N	 2.6556352176	 2.4847652278	-3.0665594659	-0.297052
C	 2.9447999449	 0.9039186806	 1.531144829	 0.300951
C	 3.399794129	 0.7352601539	 2.6300025271	-0.407321
H	-0.8981659477	 1.8709003471	-0.1092184647	 0.093116
H	 1.0330190592	 2.6651110648	 0.785441156	 0.257482
H	 2.2216673385	 0.2085092015	-0.3212826161	 0.172973
H	 3.6726680592	 2.9117161034	-0.1222535372	 0.157752
H	 4.3970074523	 1.4043944888	-0.6679856292	 0.171427
H	 3.790419567	 0.561013538	 3.602713492	 0.211158
