11
gdb 16264	3.48946	1.99386	1.4333	4.7268	57.57	-0.2774	-0.0612	0.2162	810.4642	0.070974	-397.374808	-397.368245	-397.367301	-397.405788	23.66	
O	-0.0598725761	-0.0002848538	-0.0077584113	-0.258786
C	-0.0516145388	 1.1852902329	 0.0516703338	 0.371689
C	-1.1458031529	 2.2872592571	 0.1739112046	-0.366023
C	-0.0284862722	 3.309109784	-0.0693366884	-0.038838
O	 0.9086797018	 3.1386766795	 0.9804074955	-0.251198
C	 1.0362230801	 2.2640826527	-0.1628869001	 0.207722
C	 2.2707964653	 2.2153936237	-0.8746884448	 0.199137
N	 3.2550714955	 2.1257938443	-1.4744774722	-0.325736
H	-1.8684546271	 2.1880151279	-0.6412905427	 0.153964
H	-1.6633605698	 2.3799358338	 1.1297583147	 0.156456
H	-0.0556254358	 4.259228838	-0.5874723591	 0.151613
