20
gdb 80064	2.85108	1.85108	1.64469	1.3719	82.29	-0.2135	0.0084	0.2219	936.1083	0.173841	-365.963394	-365.956446	-365.955502	-365.994211	29.457	
C	-0.2006627927	 1.6175736219	 0.0229877962	-0.430045
C	 0.0609846817	 0.1224187745	 0.0222076318	 0.05003
C	 1.1670740596	-0.5600966699	-0.8629895615	-0.079689
C	 2.3851991534	 0.3179787979	-0.8439331539	-0.069948
C	 2.898748725	 0.5274139417	 0.3713725814	-0.077394
C	 2.2847551189	-0.3192853537	 1.4549214818	-0.104133
C	 2.4755403919	-1.785393892	 0.9449564223	-0.152868
N	 1.1953654554	-1.6964797657	 0.1933835334	-0.148978
C	 0.7523647842	-0.6081260669	 1.1709864489	-0.011975
H	 0.7038975789	 2.1925835262	 0.2329315517	 0.121076
H	-0.5957004997	 1.9485008319	-0.9441864946	 0.113812
H	-0.9462782152	 1.8692798051	 0.7854054951	 0.113617
H	-0.8699642947	-0.425498658	-0.1605784133	 0.090824
H	 0.8836350003	-0.915763475	-1.8542785717	 0.068837
H	 2.7531655369	 0.7806173388	-1.7531905932	 0.089961
H	 3.7592091161	 1.156247291	 0.573355706	 0.093219
H	 2.5865006488	-0.0543860444	 2.4695509789	 0.061147
H	 3.3787353958	-2.0070809848	 0.37037538	 0.100517
H	 2.3374426416	-2.5320989314	 1.7340363841	 0.104986
H	 0.1807249238	-0.9182208673	 2.0512254065	 0.067005
