19
gdb 70986	3.21248	1.57552	1.44858	2.0395	80.32	-0.2266	0.0045	0.2311	989.2364	0.159033	-385.762318	-385.755001	-385.754057	-385.793331	30.891	
C	-0.0456981434	 1.6200697119	-0.0208094439	-0.501271
C	-0.0287966316	 0.1103512535	 0.0069243333	 0.230614
C	 1.0740679	-0.7421588869	-0.8493301784	-0.336654
C	 0.566003664	-1.8191194846	 0.188255318	 0.37217
O	 0.9602333382	-2.834951496	 1.1552428082	-0.359086
C	 0.3278431039	-1.9563063358	 2.1784001895	-0.170104
C	 0.5632010911	-0.7423709526	 1.2267532275	-0.058748
C	-0.9039291485	-1.9460110207	-0.2447347734	-0.172535
C	-1.2966542683	-0.6770617337	-0.3408463613	-0.104174
H	 0.9207533583	 2.0362612441	 0.2793356527	 0.118869
H	-0.2729933769	 1.991842217	-1.0262804657	 0.122226
H	-0.808719683	 2.0117144498	 0.6609806308	 0.124065
H	 0.8511990163	-0.8905465538	-1.9092799006	 0.10122
H	 2.0989847556	-0.3957026887	-0.6941437152	 0.106978
H	-0.7123972686	-2.251743496	 2.3417961823	 0.116688
H	 0.8955392161	-1.967458007	 3.1114936474	 0.113786
H	 1.5827762622	-0.3945090872	 1.4173422097	 0.086826
H	-1.4276209907	-2.8781365833	-0.4016034048	 0.106501
H	-2.2496899047	-0.2477351302	-0.619309706	 0.102631
