17
gdb 48154	5.2263	0.73688	0.70147	2.4943	72.9	-0.2452	-0.0762	0.169	1567.634	0.135104	-455.123642	-455.114506	-455.113562	-455.15993	31.48	
N	-0.0336717497	 1.4211868394	-0.0859283277	-0.513677
C	 0.0012262298	 0.1484192908	 0.0183027946	 0.289344
N	-1.1214190856	-0.6291909883	 0.1348336767	-0.335754
C	-2.446392641	-0.0813039992	 0.0446285686	 0.015429
C	-3.2164608902	-0.1334830546	-1.3025960058	-0.084286
O	-4.3309834486	-0.79630565	-0.6695653175	-0.266921
C	-3.6012547519	-0.9643469521	 0.5586760964	-0.103198
C	 1.2949218397	-0.6382650758	 0.0640680084	 0.107102
O	 2.3738386782	-0.1130574481	 0.0007397651	-0.230653
H	 0.9271889249	 1.7680705056	-0.0986757169	 0.237952
H	-1.0182685847	-1.6221791278	-0.0092867406	 0.242871
H	-2.4171526878	 0.920202571	 0.4725434087	 0.136707
H	-3.5019671277	 0.8248710189	-1.7478869354	 0.120523
H	-2.7364761885	-0.762654002	-2.0652290341	 0.094109
H	-3.3157246428	-2.0135717951	 0.7327447687	 0.091037
H	-4.15676137	-0.6011581388	 1.4298803578	 0.11815
H	 1.191647096	-1.743486034	 0.161327223	 0.081265
