20
gdb 92802	2.83533	1.68883	1.33616	1.5492	84.69	-0.2222	0.0149	0.237	1026.9501	0.172701	-365.948591	-365.941027	-365.940083	-365.980253	30.869	
C	-0.0104675614	 1.6184138482	-0.0173882866	-0.387828
C	 0.0073550697	 0.0873311766	-0.0203923593	-0.033796
C	 0.9820476714	-0.485747769	-1.1229830342	-0.251261
C	 2.3100680463	-0.7025844734	-0.3960048315	-0.232952
C	 2.0717389081	-0.7323394785	 0.9084668283	 0.350016
C	 2.5013521259	-0.3674485405	 2.3063000519	-0.197117
N	 2.1067210403	 1.0772770774	 2.4040807537	-0.317717
C	 1.0848115521	 0.0300215647	 2.6217959791	-0.097932
C	 0.6148853666	-0.5475500415	 1.2526979986	-0.029255
H	 0.9890819018	 2.0237700914	 0.1560583112	 0.144799
H	-0.3855010979	 1.9993143105	-0.9737136798	 0.099743
H	-0.6625584841	 2.0006416037	 0.7749524061	 0.104773
H	-1.010229247	-0.2773998358	-0.1976480431	 0.059728
H	 0.5910591565	-1.4207256744	-1.5495454118	 0.098963
H	 1.0920129639	 0.2117207362	-1.9623129112	 0.10071
H	 3.2649392859	-0.7467492454	-0.9064986619	 0.093509
H	 3.2795544183	-0.7682821127	 2.9423987526	 0.099568
H	 2.398320923	 1.3928468389	 3.330877017	 0.227454
H	 0.555488816	-0.0318399307	 3.5650620865	 0.089737
H	 0.1479415548	-1.5186755757	 1.4700011845	 0.078858
