19
gdb 108431	2.28032	1.65448	1.19837	4.0457	74.55	-0.2649	0.0121	0.277	1104.7414	0.159325	-423.048091	-423.039622	-423.038678	-423.081328	31.734	
C	-0.0640357955	 1.5423107351	 0.0194654014	-0.386457
C	-0.0668394588	 0.0083933053	-0.038551428	-0.298403
C	 0.716452549	-0.5216054428	-1.2222563752	 0.15254
C	 0.1563127076	-0.3388213574	-2.6779240471	-0.286889
C	 0.429009001	-1.8454117045	-2.9761831053	-0.236486
C	 1.0337926123	-2.0049568201	-1.5699307989	 0.04682
O	 2.4671741473	-1.7036320706	-1.5574638989	-0.262436
C	 2.2394663925	-0.3903866941	-1.2107586405	 0.43617
O	 3.0527936242	 0.4525563348	-0.9977706833	-0.337156
H	 0.9582007306	 1.9242822073	 0.0837929706	 0.152126
H	-0.5283101123	 1.9733030753	-0.8738651339	 0.11869
H	-0.6223210667	 1.898038265	 0.8900412874	 0.115728
H	 0.3580780246	-0.3965279248	 0.8882693982	 0.109898
H	-1.0976014299	-0.3639787215	-0.0980151423	 0.099325
H	-0.9065712056	-0.0866549311	-2.6739203828	 0.115642
H	 0.6818776995	 0.3889478321	-3.2985659977	 0.124387
H	-0.4844678595	-2.4276759805	-3.1175125245	 0.114192
H	 1.1224798365	-2.0717993104	-3.78785418	 0.125124
H	 0.8116354531	-2.869571407	-0.9457273992	 0.097186
