19
gdb 72852	3.07217	1.25444	1.08316	5.1611	79.82	-0.2361	0.0159	0.2521	1174.6686	0.159735	-382.046529	-382.038152	-382.037207	-382.079864	31.947	
C	-0.5934590515	 1.5210571685	 0.0462739703	-0.467809
C	-0.1140662251	 0.0941394871	-0.0788315409	 0.386239
C	-1.1592511344	-1.0370667397	 0.1229111643	-0.303163
C	-0.2636885598	-1.5559886391	 1.2788619774	-0.16806
N	 0.7441366129	-0.468864938	 1.057909839	-0.162687
C	 1.7901148555	-0.8732471682	 0.062518114	-0.110001
C	 1.0070725031	-0.1972992242	-1.1057740296	-0.322916
C	 3.1137237696	-0.3241307044	 0.3504432983	 0.291223
N	 4.1633105507	 0.1163139615	 0.5512842816	-0.327144
H	 0.2510244129	 2.2133067639	 0.1190900373	 0.131325
H	-1.1930407032	 1.8003610065	-0.8284954984	 0.120697
H	-1.2144705737	 1.6482538429	 0.9386785426	 0.124737
H	-2.1470746244	-0.685732841	 0.428957935	 0.112491
H	-1.2811408466	-1.7151145295	-0.7256147619	 0.106617
H	-0.7110308388	-1.4803127719	 2.2733755429	 0.117245
H	 0.1406563196	-2.5671279737	 1.1630052846	 0.107335
H	 1.8893285696	-1.9599497572	-0.0414836816	 0.116938
H	 0.7516539786	-0.8557763784	-1.9380846357	 0.116976
H	 1.4929351651	 0.6986163048	-1.4952714196	 0.129958
