23
gdb 117693	1.97265	1.15301	0.89408	1.4565	87.99	-0.2477	0.0544	0.3021	1462.2969	0.200897	-388.261349	-388.249921	-388.248977	-388.298031	41.834	
C	-0.174292651	 1.5488059999	 0.0427884562	-0.37875
C	 0.0108676539	 0.048373228	-0.1258775977	-0.045111
O	-1.2620595405	-0.5543073096	 0.0124797855	-0.282594
C	-1.348480777	-1.9814419256	 0.0088989119	 0.356399
C	-0.6676461594	-2.6054254352	-1.2170345738	-0.425496
C	-0.7720908302	-2.5612851619	 1.3112073464	-0.418016
C	-2.8761675877	-2.2476454363	-0.0161934051	-0.372356
C	-3.5503454625	-1.7987637323	-1.2276866758	 0.323918
C	-4.1205670216	-1.4481932772	-2.2260323274	-0.455595
H	 0.7821223739	 2.0674473512	-0.0746637072	 0.110249
H	-0.8737277087	 1.9316083543	-0.7056265285	 0.129414
H	-0.5764456883	 1.7774178819	 1.0338211689	 0.122582
H	 0.4433321829	-0.1674824861	-1.1139407528	 0.090979
H	 0.7169622866	-0.3303735246	 0.6289567346	 0.083816
H	 0.4185661594	-2.4851042535	-1.1777944551	 0.113198
H	-0.8779280359	-3.6788126598	-1.2576239217	 0.113964
H	-1.0418498957	-2.1489232259	-2.1364267296	 0.13775
H	-1.2514773706	-2.0985931587	 2.1790127412	 0.119409
H	-0.9327101862	-3.6428432516	 1.3600786852	 0.113716
H	 0.3051322015	-2.3875116216	 1.3809300366	 0.116182
H	-3.0488280915	-3.3217077553	 0.1228870932	 0.122082
H	-3.3124529574	-1.7394331895	 0.8516925535	 0.133557
H	-4.6240289039	-1.1285776907	-3.1042882585	 0.190704
