19
gdb 93553	2.92979	1.25134	0.9618	3.0386	77.08	-0.2311	-0.0167	0.2143	1220.9289	0.159649	-423.049645	-423.041118	-423.040174	-423.082914	32.69	
O	-0.1706634092	 1.5151364786	-0.168880836	-0.441216
C	 0.0088373684	 0.1128180052	-0.0137241153	 0.090672
C	-1.396092147	-0.4932866328	 0.1071837504	-0.191548
C	-1.4267184014	-1.9243605092	 0.6820492674	-0.308214
C	-0.6593251021	-2.9906411014	-0.0938763654	 0.393586
O	-1.2135702916	-3.9521506861	-0.5715652762	-0.299082
C	 0.8569049243	-2.8030159538	-0.2223672226	-0.346157
C	 1.1726930753	-1.7462243038	-1.2615990232	-0.079582
C	 0.791449057	-0.4740923015	-1.1691431459	-0.083907
H	 0.6987939811	 1.9193391857	-0.2534231547	 0.282215
H	 0.5478675054	-0.0925385954	 0.9305177041	 0.070824
H	-1.9774724921	 0.1555625577	 0.7706521783	 0.116332
H	-1.880298747	-0.4683952119	-0.8745075575	 0.117591
H	-1.0103649068	-1.9003850345	 1.6996897168	 0.112594
H	-2.4613784499	-2.267802903	 0.7557485137	 0.123951
H	 1.267691309	-2.5097890482	 0.7534621915	 0.116498
H	 1.287507332	-3.7652936863	-0.502910182	 0.123772
H	 1.7051186623	-2.0816338729	-2.1463152641	 0.105791
H	 1.0129533823	 0.2203362736	-1.9765875693	 0.09588
