23
gdb 57386	2.65958	1.29675	1.1865	1.9477	84.43	-0.2275	0.0682	0.2957	1202.4212	0.203891	-388.252634	-388.243042	-388.242097	-388.286656	37.55	
C	-0.1330706034	 1.5559293822	 0.0370128664	-0.407225
C	 0.0040789514	 0.0190317153	 0.0383557064	 0.139166
C	 0.7757454275	-0.3996999993	 1.3029396529	-0.420005
C	-1.3992307308	-0.6222007256	 0.063580827	-0.405103
C	 0.722272985	-0.4430336853	-1.2218652713	 0.31218
C	 1.6151306609	-1.6695742239	-1.3466223013	-0.363818
C	 2.1422409009	-0.320701902	-1.7325191461	 0.033844
O	 1.7370285883	 0.0124532651	-3.0605285254	-0.288738
C	 0.3426409433	-0.0373187512	-2.6536303408	-0.143515
H	 0.8485928781	 2.0391452162	-0.0036282607	 0.114888
H	-0.7198783336	 1.9135833712	-0.8142549581	 0.111831
H	-0.6390607085	 1.8945237944	 0.9473770911	 0.109229
H	 0.2797952217	-0.0009228365	 2.1938457484	 0.111882
H	 0.820753385	-1.4872126004	 1.4109874306	 0.116284
H	 1.8009923111	-0.0133560188	 1.294168896	 0.111917
H	-1.9886767186	-0.3253067993	-0.8109161109	 0.111884
H	-1.3310462753	-1.7148698987	 0.0674683618	 0.115534
H	-1.9534396595	-0.3135318968	 0.9566807217	 0.108439
H	 1.9922482343	-2.0690081516	-0.4117790384	 0.112829
H	 1.4398528621	-2.408815085	-2.1246223856	 0.109115
H	 3.0403207476	 0.1452370501	-1.3419890126	 0.1014
H	-0.2390115107	-0.7560436186	-3.2437935757	 0.101447
H	-0.1096865669	 0.9562665587	-2.7362173553	 0.106536
