19
gdb 89910	4.47873	0.87226	0.82822	2.9127	76.6	-0.2471	-0.0271	0.22	1432.7156	0.156728	-423.003049	-422.993948	-422.993003	-423.037795	33.122	
C	-0.1012558963	 1.5676517729	 0.037597165	-0.404327
C	-0.0295034004	 0.0478786686	 0.0464071259	 0.011484
C	 0.9169768909	-0.667376225	-0.9915047091	-0.316432
C	 1.6677610527	-1.2984536193	 0.1940667758	 0.408832
C	 2.4263137785	-2.5915780663	 0.2510415146	-0.395934
C	 3.7589159095	-2.5012714756	-0.4758960836	 0.158692
O	 4.1441454128	-3.2983013747	-1.2906561082	-0.235661
O	 2.1611659091	-0.2033762946	 0.988898449	-0.289837
C	 0.7970114755	-0.6138231781	 1.165183205	-0.061494
H	 0.9005312094	 1.9948268886	 0.1364900425	 0.134321
H	-0.5401319012	 1.9350018314	-0.8958568005	 0.116733
H	-0.7157032546	 1.9402131836	 0.8645317288	 0.114894
H	-1.0305566489	-0.393101314	 0.0035565941	 0.07966
H	 0.3908131684	-1.394946366	-1.6139868978	 0.111046
H	 1.5251078603	-0.0164318802	-1.6249332425	 0.111222
H	 2.6421759677	-2.8198397097	 1.3035177194	 0.134051
H	 1.8487806946	-3.4160519772	-0.1768534838	 0.12581
H	 4.3754388483	-1.6219481905	-0.186001684	 0.097523
H	 0.4964982738	-0.8943039641	 2.1694729394	 0.099416
