23
gdb 119467	4.77758	0.8277	0.78776	0.7713	87.19	-0.238	0.0929	0.3309	1589.5012	0.204291	-388.261035	-388.251205	-388.250261	-388.296072	36.864	
C	-0.1610200693	 1.5665816946	-0.0659733321	-0.3864
C	-0.0631543963	 0.05452328	-0.1662885097	-0.05877
O	-1.3091720589	-0.500999708	 0.2414460835	-0.293793
C	-1.35460874	-1.8761033506	 0.1650250753	 0.468395
C	-1.5674472181	-2.6037067785	-1.133031737	-0.341727
C	-2.5861252688	-2.7418794845	-0.0164627022	-0.160376
C	-2.0866405925	-3.7094296563	 1.0718419759	 0.041606
C	-1.9270385902	-5.1859312408	 0.7315843847	-0.402187
C	-0.797559181	-2.8245749927	 1.237606969	-0.328569
H	 0.7814241242	 2.0309834306	-0.3715579106	 0.113689
H	-0.9597664088	 1.9427340441	-0.7116805471	 0.125616
H	-0.3809240586	 1.8704167268	 0.9614366864	 0.1264
H	 0.1631158847	-0.2577584087	-1.1971769517	 0.091835
H	 0.747426686	-0.3244904293	 0.4753204734	 0.092231
H	-1.8962488078	-1.965047926	-1.9468522052	 0.112255
H	-0.9381828301	-3.4363617284	-1.4388169668	 0.100605
H	-3.6163912327	-2.440917916	-0.1649730393	 0.088223
H	-2.7088014207	-3.6091533839	 1.9666097765	 0.076637
H	-1.3174294063	-5.3319060205	-0.1661372615	 0.113808
H	-1.4432328416	-5.7272925716	 1.5520952975	 0.112513
H	-2.9005679663	-5.6549500501	 0.5509300561	 0.114025
H	 0.1606540522	-3.3059328696	 1.0138290051	 0.08863
H	-0.7398682193	-2.3550976407	 2.2222753896	 0.105355
