16
gdb 12623	2.90941	2.23999	1.45774	3.061	66.78	-0.2484	-0.055	0.1935	864.0969	0.13071	-383.774417	-383.76692	-383.765975	-383.806102	28.236	
C	 0.1180878574	 1.5854458276	-0.0230031631	-0.378948
C	-0.0347816074	 0.0556931075	 0.0323903829	-0.089051
C	 0.6595532594	-0.6244234946	-1.1293870087	-0.044928
C	 1.7832136569	-1.2726505748	-0.7871730314	-0.184038
C	 1.9914019106	-1.1264535389	 0.6646613549	 0.343506
O	 2.9858996724	-1.3170514701	 1.3307966283	-0.351248
C	 0.6792469452	-0.5850005864	 1.2491651165	 0.040497
O	 0.9061847606	 0.2662587471	 2.3390644145	-0.434408
H	 1.1729940154	 1.8733006941	-0.0226832919	 0.126072
H	-0.3480312886	 1.9869443809	-0.9281577015	 0.110849
H	-0.3544039893	 2.0421895012	 0.8488740073	 0.141271
H	-1.1047335401	-0.1832329607	 0.0263501058	 0.089494
H	 0.277345726	-0.5395560166	-2.1421835625	 0.11908
H	 2.4789627341	-1.7737728625	-1.4475278945	 0.122339
H	 0.0944206595	-1.4693108209	 1.5603152763	 0.096375
H	 1.7805872979	 0.0215308071	 2.6778968371	 0.293137
