10
gdb 21381	5.69018	2.39912	1.68759	1.0849	52.81	-0.2655	-0.0463	0.2193	660.826	0.064901	-409.628674	-409.623779	-409.622835	-409.657618	18.611	
N	 0.0424299192	 1.2521600767	 0.0088416845	-0.098645
N	 1.2605512275	 1.8393267545	 0.0002449667	-0.325286
C	 2.015924832	 0.7591364321	-0.0129895667	 0.392306
O	 3.3318889982	 0.4381629654	-0.0275051402	-0.206814
C	 3.2745542006	-0.9520641598	-0.0345578939	 0.071304
N	 2.1084334673	-1.5082403581	-0.0262821764	-0.324477
C	 1.2607247393	-0.4066235986	-0.012042204	 0.325598
N	-0.0322207335	-0.0855944457	 0.0022477872	-0.304347
H	-0.7919720728	 1.8159345985	 0.0200156734	 0.303261
H	 4.2365482922	-1.4409779749	-0.0465597044	 0.167101
