20
gdb 113974	3.14812	0.84576	0.79403	3.151	79.92	-0.2657	0.0116	0.2773	1541.9174	0.169318	-403.136205	-403.126328	-403.125384	-403.17223	35.178	
C	 0.2225537483	 1.3037806285	-0.2027920468	-0.373588
C	-0.2783247073	 0.1286793615	 0.6437331716	-0.189554
C	-1.3622582642	-0.6689446209	-0.0545918054	-0.030754
C	-0.9933643688	-1.7516561827	-1.0527277226	-0.316756
C	-1.608632254	-2.1080464938	 0.2780479986	 0.091968
O	-0.8137383872	-2.6706467837	 1.2909931556	-0.229295
C	-0.7216571727	-4.0718642927	 1.2394485517	-0.193137
C	 0.1462718767	-4.5741661911	 0.1544411331	 0.262447
N	 0.8343930674	-4.9770564543	-0.6815109662	-0.308906
H	 0.9989547961	 1.8666405823	 0.3244258129	 0.112642
H	 0.6439407191	 0.9545514305	-1.1511258662	 0.120206
H	-0.5909162531	 1.9989694038	-0.4385037872	 0.112138
H	 0.5538283141	-0.5367536592	 0.8933496701	 0.110134
H	-0.6661841194	 0.5017272759	 1.6002238985	 0.099297
H	-2.2590488234	-0.0981835971	-0.2851721329	 0.087573
H	-1.5857855561	-1.8832566893	-1.9513523991	 0.116176
H	 0.0630208338	-1.9651615184	-1.1716191005	 0.138322
H	-2.6368927097	-2.4710738338	 0.2943162375	 0.090267
H	-0.2985516383	-4.3963926022	 2.1950697386	 0.160395
H	-1.7113215215	-4.5410673131	 1.1330768188	 0.140425
