18
gdb 53837	3.87733	0.93209	0.78601	1.6615	75.02	-0.232	-0.0181	0.2138	1438.522	0.148343	-435.298156	-435.288937	-435.287993	-435.332938	33.964	
N	-0.00043519	 1.1688353578	-0.2454014331	-0.522241
C	-0.0179694264	-0.0922182335	 0.2239494189	 0.40225
O	 0.8985503639	-0.648412971	 0.8097167823	-0.390841
C	-1.3391092034	-0.8136132846	-0.0413056985	 0.270968
N	-2.2899030021	-0.1721289249	-0.6140009549	-0.562309
N	-1.2920460487	-2.1012654065	 0.3932274512	-0.311911
C	-2.4205928173	-2.9685625124	 0.4159387819	 0.029426
C	-2.8956419253	-3.5891853909	-0.8814600576	-0.258428
C	-2.1921147299	-4.4305470875	 0.1521199106	-0.28714
H	 0.8112359205	 1.7448731994	-0.1067624138	 0.263715
H	-0.8354366132	 1.516629338	-0.692389966	 0.281928
H	-3.1195189317	-0.7525367762	-0.7363334515	 0.21797
H	-0.4515651292	-2.3321626004	 0.9074336277	 0.263083
H	-3.1920317374	-2.7120712717	 1.1417503116	 0.102873
H	-3.9624179709	-3.7230584318	-1.0206144112	 0.120025
H	-2.3449821666	-3.3334298212	-1.7787498607	 0.131581
H	-1.1754847709	-4.7402253949	-0.0625130298	 0.126622
H	-2.7718819216	-5.1441292079	 0.7256771129	 0.122429
