16
gdb 74742	2.53235	1.87403	1.40919	2.6737	69.78	-0.2532	-0.0189	0.2343	954.48	0.125596	-437.890433	-437.883309	-437.882365	-437.921942	27.964	
C	 0.032372091	 1.4730257445	 0.0690082328	-0.508306
C	-0.0587230992	-0.0094548787	-0.0222811484	 0.336187
C	-0.0722208977	-0.8416219678	-1.0675256927	-0.213054
C	-0.0068045671	-2.235119346	-0.4521295975	 0.138058
O	-0.7547644365	-2.0960804015	 0.727019306	-0.222417
C	-0.0093488805	-0.9521723102	 1.1946618188	-0.152791
C	 1.3976816783	-1.5590824334	 1.1411669576	 0.458459
N	 2.363708584	-1.3108640541	 1.9108625959	-0.561801
O	 1.3680828504	-2.4074230761	 0.0691413561	-0.269405
H	 0.9449544335	 1.7718433708	 0.5984581142	 0.154573
H	 0.0439136768	 1.9350198451	-0.9211625347	 0.134777
H	-0.8111003323	 1.886687049	 0.635145801	 0.13786
H	-0.0195221529	-0.6164023882	-2.1229106984	 0.118476
H	-0.2730467798	-3.1172946649	-1.0275049847	 0.108621
H	-0.3469638063	-0.5952453008	 2.1629639726	 0.113567
H	 3.1925087085	-1.8420276376	 1.6363959614	 0.227197
