21
gdb 73084	2.37927	1.7812	1.38678	1.0601	83.53	-0.239	0.0223	0.2613	1046.0756	0.183501	-387.092676	-387.08454	-387.083596	-387.124894	32.706	
C	 0.0210167458	 1.5143591852	-0.056907409	-0.462822
C	-0.0132263095	-0.0023119185	 0.0482894225	 0.405096
C	-1.320485921	-0.6920014229	 0.5139857319	-0.258091
C	-0.4771269351	-1.6742009265	 1.3707694698	-0.243087
C	 0.7321535852	-0.68978796	 1.2324315818	-0.061879
C	 2.0995368431	-1.1982316398	 0.9151085912	-0.084331
C	 2.5747735396	-1.1466311215	-0.3273696666	-0.07617
C	 1.7407359611	-0.6379176491	-1.470991674	-0.131857
O	 0.3525912369	-0.6151362201	-1.1896524574	-0.304234
H	 1.0364807442	 1.8801197861	-0.2449731108	 0.117982
H	-0.6199342475	 1.8502596257	-0.8785810724	 0.121886
H	-0.3315720846	 1.9772199058	 0.869967131	 0.110526
H	-1.9340555994	-0.0250229087	 1.1258093515	 0.09457
H	-1.9304112749	-1.1122735795	-0.2876755635	 0.106996
H	-0.8284895239	-1.8878151216	 2.3823108398	 0.093839
H	-0.2867166745	-2.6151677232	 0.8514329718	 0.111201
H	 0.7649138958	-0.0195234164	 2.0992475576	 0.072138
H	 2.7038750167	-1.5985261876	 1.7257900338	 0.08721
H	 3.5831530469	-1.4745011505	-0.5653967384	 0.090033
H	 2.0998866048	 0.3568180492	-1.7911057076	 0.096996
H	 1.8512328203	-1.297007036	-2.3404174133	 0.113999
