21
gdb 60824	2.6348	0.92973	0.88203	3.712	79.43	-0.2385	-0.0167	0.2218	1452.2889	0.17949	-424.218635	-424.208025	-424.207081	-424.255649	37.445	
C	-0.0777846883	 1.5448160273	 0.1959224222	-0.432649
C	 0.0420032735	 0.0245287275	-0.0096528516	-0.057677
C	-1.343643841	-0.5924909326	 0.0480658958	 0.145211
O	-1.7256959106	-1.3378312774	 0.914664068	-0.254848
C	 0.7154536082	-0.3537959904	-1.3585612536	 0.092644
O	 0.0197488416	 0.2272849782	-2.4615677549	-0.44001
C	 2.1949232831	-0.0408695946	-1.381629703	-0.015184
C	 3.1935605607	-1.0659441317	-0.9024681407	-0.265633
C	 3.0852785766	-0.7482006449	-2.3713074209	-0.274
H	 0.903389532	 2.0285783492	 0.1820363925	 0.124723
H	-0.6961457374	 1.9984394228	-0.5851779873	 0.125442
H	-0.5407193559	 1.7677348223	 1.1612413515	 0.135154
H	 0.623487972	-0.4194362506	 0.8051171984	 0.095325
H	-2.0078117248	-0.2984695269	-0.7947252812	 0.089894
H	 0.5996950643	-1.4365745044	-1.4985698859	 0.090369
H	 0.3602550782	 1.1177604073	-2.592941338	 0.283592
H	 2.4431372521	 0.9974791301	-1.1718692414	 0.08178
H	 4.0640137673	-0.7171871476	-0.3584695086	 0.116172
H	 2.8119752576	-2.0222823497	-0.5600481148	 0.120637
H	 2.6235605241	-1.4848598777	-3.0199512548	 0.124437
H	 3.8852482367	-0.1841670464	-2.8375410617	 0.114621
