20
gdb 22722	3.81633	0.92847	0.82522	1.5121	84.99	-0.2262	0.0186	0.2448	1445.0593	0.169676	-403.08608	-403.076896	-403.075952	-403.120133	34.84	
C	-0.2565627852	 1.4835051546	 0.0049879865	-0.374737
C	 0.1201174438	-0.0042106197	 0.0502238881	-0.293643
C	 0.8114245161	-0.468621231	-1.2014751995	 0.376556
C	 0.0953648353	-0.9345180108	-2.4287202825	-0.325749
C	 1.0257452644	-1.9136255836	-1.7279563761	-0.214061
C	 2.4320473142	-1.5566325708	-2.0367257129	 0.458598
C	 2.269414008	-0.110279049	-1.5802883952	-0.389736
N	 3.4057869973	-2.2934810029	-2.3756510854	-0.273128
O	 4.5938715721	-1.5344523036	-2.4696812272	-0.398133
H	 0.6301648039	 2.1121717488	-0.128792691	 0.121579
H	-0.9394973578	 1.6915233616	-0.8250708759	 0.119896
H	-0.747191818	 1.792714736	 0.9328502202	 0.114093
H	 0.7695440927	-0.1907160015	 0.9157122707	 0.101492
H	-0.7827436894	-0.6075682234	 0.2067661998	 0.099083
H	-0.9591076236	-1.159905355	-2.2970124082	 0.115552
H	 0.348700541	-0.5501882591	-3.4134891148	 0.114748
H	 0.6717352016	-2.8607347353	-1.3405470965	 0.100622
H	 2.4124355947	 0.6771281743	-2.3263751531	 0.115611
H	 2.90986945	 0.100221084	-0.7178833749	 0.127148
H	 5.239942839	-2.2063764336	-2.7105775824	 0.304209
