21
gdb 105666	1.76199	1.45746	1.1949	2.9218	78.53	-0.2407	-0.0228	0.2178	1213.0701	0.18052	-424.222354	-424.212323	-424.211379	-424.257469	36.547	
C	-0.7085655417	 1.0061403999	-0.1338542377	-0.423459
C	 0.2661033417	-0.1625241864	-0.0887997712	 0.0016
C	 1.7045809436	 0.0207037042	-0.6401296702	-0.234302
C	 2.2371845714	-0.8600976154	 0.5176531675	-0.271388
C	 0.8699385415	-0.6436275742	 1.2715392071	 0.188294
C	 0.9822130799	 0.4258987008	 2.3665323342	-0.145631
O	 1.7492623851	-0.009814544	 3.4799004035	-0.416857
C	 0.280238778	-1.9205718143	 1.8313933939	 0.093013
O	-0.425082537	-2.6737095049	 1.2038279622	-0.264176
H	-0.2915897868	 1.9139853037	 0.3150228418	 0.112115
H	-0.9648392708	 1.2441960061	-1.1720107313	 0.119546
H	-1.6422438694	 0.7690894416	 0.3875927718	 0.123826
H	-0.1975199064	-1.0398088284	-0.5497181195	 0.103442
H	 1.9005958217	-0.3232821237	-1.6581527806	 0.104081
H	 2.0469563196	 1.0568889157	-0.5558966284	 0.10025
H	 2.3795419773	-1.9020229342	 0.2214740357	 0.122284
H	 3.1430555725	-0.522449916	 1.0318015241	 0.08658
H	 1.3920158134	 1.3545435984	 1.9427578498	 0.096777
H	-0.0078691206	 0.6655415288	 2.7687148886	 0.120973
H	 2.6566923376	-0.1380112399	 3.185209338	 0.286164
H	 0.5656810093	-2.1438487277	 2.8805102908	 0.096866
