14
gdb 73881	2.21606	1.74059	0.98092	9.2898	69.27	-0.2439	-0.054	0.1898	1108.4087	0.100321	-473.886123	-473.8777	-473.876756	-473.919431	29.75	
N	 0.040662384	 1.299133662	 0.0071943356	-0.583022
C	-0.0412573591	-0.0403843473	 0.0002130423	 0.281772
C	-1.1251188403	-0.8720326469	 0.0013414617	-0.066555
C	-2.5231729654	-0.4682638099	 0.0108881729	 0.06417
O	-3.485347708	-1.1993549833	 0.0118068296	-0.254937
C	-0.6330073339	-2.2649153916	-0.008804182	 0.409762
O	-1.2120566204	-3.3067282369	-0.012028917	-0.320951
O	 0.7648176899	-2.2213862738	-0.0163429545	-0.241455
C	 1.2104910571	-0.8840824866	-0.0112601816	-0.157608
H	 0.93158688	 1.7644159106	 0.0050399372	 0.277775
H	-0.7820548125	 1.8770995456	 0.0148103068	 0.283653
H	-2.6677210723	 0.642530771	 0.0176749275	 0.029802
H	 1.8196739935	-0.6839387032	-0.903145454	 0.138807
H	 1.8292973375	-0.6939143696	 0.8761703354	 0.138788
