14
gdb 132581	3.10699	1.31795	0.93072	1.4529	67.83	-0.2555	-0.0279	0.2276	1152.7377	0.099761	-485.99446	-485.986764	-485.985819	-486.027666	28.024	
C	-0.0343788634	 1.5056496595	-0.0032967565	-0.46529
C	-0.0175547796	-0.0003764414	 0.0224489552	 0.337655
N	-0.2237618695	-0.6222832791	-1.1466738794	-0.31612
C	-0.2171794204	-1.9542882094	-1.1698329407	-0.107394
C	-0.0069745264	-2.7322821586	-0.0412093155	 0.105236
F	-0.0082547971	-4.0618847102	-0.1077941861	-0.058407
C	 0.2070361494	-2.088674435	 1.1720846013	 0.20474
F	 0.4114918108	-2.8030854582	 2.2717336951	-0.051389
C	 0.2026311685	-0.7048348146	 1.2096165364	-0.309398
H	 0.1410033336	 1.9311723253	 0.9873819048	 0.120633
H	 0.7329917631	 1.8818236265	-0.6869843707	 0.144819
H	-0.998137485	 1.8678210402	-0.3745066609	 0.14482
H	-0.3855868819	-2.4472453128	-2.1239855038	 0.12952
H	 0.3688861179	-0.1977238021	 2.152490061	 0.120573
