17
gdb 77982	2.64211	1.56173	1.33738	2.7494	67.87	-0.239	-0.0089	0.2301	999.4925	0.135283	-458.936305	-458.928064	-458.92712	-458.968463	32.521	
O	-0.0308120356	 1.4246009241	 0.0100408231	-0.429037
C	-0.0640062677	 0.0203431492	-0.0656612422	 0.022105
C	-1.3746923318	-0.7410780029	-0.0479684437	-0.175225
C	-2.6330613045	 0.0821261948	-0.3528418624	 0.087214
O	-2.8752047506	 1.1338304886	 0.5682331416	-0.44246
C	-2.4011798341	 0.5596957809	-1.7852019226	-0.115698
C	-1.2670996503	 0.0823757035	-2.3006593003	-0.190858
C	-0.5112807031	-0.7410327293	-1.2954927481	 0.309681
O	 0.1589424995	-1.8928830981	-1.6994829767	-0.461765
H	-0.2599244344	 1.7706503541	-0.8624034709	 0.287955
H	 0.7522854482	-0.4279632987	 0.4931004173	 0.113961
H	-1.4444806662	-1.62007828	 0.580438843	 0.102508
H	-3.5295280837	-0.5483598642	-0.3110728445	 0.098379
H	-2.0287908149	 1.5876632399	 0.6841788503	 0.291755
H	-3.0978884393	 1.2313246565	-2.2738241147	 0.111104
H	-0.8847755476	 0.2662353136	-3.2994547696	 0.104116
H	 1.0261843062	-1.6395074819	-2.0342470896	 0.286264
