20
gdb 85522	2.43958	1.55854	1.06454	3.8042	79.17	-0.2298	0.0326	0.2624	1162.1146	0.172962	-403.187922	-403.179671	-403.178727	-403.220615	32.541	
C	 0.099286849	 1.5828922353	 0.0122338108	-0.392358
C	 0.0220837213	 0.0512452423	 0.032462159	-0.003368
C	 0.5376981034	-0.5492476916	-1.2879078653	-0.333829
C	 0.7110083827	-2.0639799761	-1.3070417821	 0.377932
O	 0.5993059262	-2.724512671	-2.3236936584	-0.37685
N	 1.0462331728	-2.6329626437	-0.108490166	-0.307791
C	 1.2385110397	-1.948009614	 1.137713715	 0.015766
C	 2.2288633592	-0.8080692893	 1.2549703266	-0.313432
C	 0.7353088223	-0.5394305793	 1.2381839726	-0.026529
H	 1.1397157303	 1.9182585039	-0.0617062713	 0.117576
H	-0.4497220519	 1.9943103469	-0.8410623255	 0.116421
H	-0.3264336866	 2.0126839978	 0.9248624371	 0.112718
H	-1.0353918966	-0.2331837441	 0.1289354054	 0.085141
H	-0.1252403155	-0.2950863733	-2.1180747295	 0.129404
H	 1.5155105079	-0.1148886205	-1.5363860999	 0.124939
H	 1.2739891067	-3.6148195072	-0.1599690209	 0.24645
H	 1.1131926496	-2.606885297	 1.9899323761	 0.102625
H	 2.7600299899	-0.6774425857	 2.1915420668	 0.115022
H	 2.8140662413	-0.5702032392	 0.3733793126	 0.119993
H	 0.2994342782	-0.2558152243	 2.1921926367	 0.090172
