15
gdb 131369	3.3692	1.52869	1.06635	1.7015	66.87	-0.2026	0.0515	0.2541	1051.6285	0.115562	-453.954316	-453.94689	-453.945946	-453.986559	27.757	
O	 0.1113117054	 1.3616125625	-0.0221295824	-0.427964
C	 0.0772184309	 0.0149286813	 0.049059513	 0.271922
N	 0.1299959056	-0.7299285397	-1.0511984861	-0.353186
N	 0.0806565189	-2.0348797457	-0.5887154879	-0.359177
C	-0.0080383786	-2.040258885	 0.7474469011	 0.507762
C	-0.0170818187	-0.75923831	 1.2230133346	 0.056029
C	-0.0614707677	-0.8230139419	 2.7224637798	-0.391163
C	-0.2462845642	-2.3700778835	 2.9283912975	-0.092627
O	-0.0631949894	-3.0458990101	 1.6347468887	-0.287304
H	 0.1766344928	 1.5881604138	-0.9589272676	 0.300865
H	 0.0877940382	-2.796289898	-1.2422798888	 0.276264
H	 0.8592924192	-0.466084492	 3.1985579296	 0.121172
H	-0.893112845	-0.2746990404	 3.1761126757	 0.122601
H	 0.4801062476	-2.8040972204	 3.6176992734	 0.127988
H	-1.254965635	-2.613990951	 3.2731178593	 0.12682
