19
gdb 110720	3.0538	1.3991	1.33572	1.2852	78.42	-0.2185	-0.002	0.2164	1048.573	0.161044	-385.867134	-385.859602	-385.858658	-385.899024	30.634	
O	-0.1313627373	 1.4390858758	-0.2387851184	-0.42653
C	 0.0208849761	 0.0521477389	 0.0500543366	-0.121525
C	-1.3595592791	-0.5750441788	-0.0444867254	 0.065719
C	-2.0539091349	-0.6001072796	-1.4513547701	-0.108432
C	-1.1456104885	-1.6228379577	-2.1600522764	-0.075833
C	-0.7912555446	-2.5326898938	-1.2533853579	-0.078493
C	-1.4616994248	-2.1323880876	 0.0778962777	-0.138352
C	-2.9859249401	-2.2603680276	-0.1290700868	-0.08195
C	-3.336285325	-1.3508396727	-1.0377452892	-0.083363
H	 0.7390804339	 1.8463137136	-0.213026785	 0.285787
H	 0.7202208681	-0.4263397474	-0.6469485832	 0.090626
H	 0.4090679858	-0.0976710253	 1.0715874749	 0.078935
H	-2.0051792564	-0.0811738389	 0.6873892143	 0.080614
H	-2.1913222634	 0.3551913951	-1.9541171148	 0.071197
H	-0.9032528563	-1.5976188931	-3.2139085172	 0.095958
H	-0.1982959132	-3.426446245	-1.3938321541	 0.095494
H	-1.0605463634	-2.5999853006	 0.9776654144	 0.055676
H	-3.6065498909	-2.9989531189	 0.3599657574	 0.097141
H	-4.3136111158	-1.1689961263	-1.4640865369	 0.097331
