14
gdb 46482	3.0826	1.52212	1.10742	6.0551	63.63	-0.253	-0.0892	0.1638	1031.8493	0.101266	-473.832676	-473.825157	-473.824212	-473.86544	27.336	
O	-0.0126559206	-0.007026859	-0.0699225678	-0.305796
C	 0.0078508868	 1.1844763543	-0.0409916089	 0.370461
O	-1.1095095021	 1.9581430955	-0.0760086901	-0.226557
C	-0.8231079115	 3.368808498	 0.0068063602	-0.179531
C	 0.6917157163	 3.5075807448	 0.0015315871	 0.170469
C	 1.4287719016	 4.5893199159	-0.7196635519	-0.261113
N	 1.4148052389	 4.5583061902	 0.7401043	-0.318647
C	 1.2329137544	 2.1173380802	 0.0380115084	 0.218634
O	 2.375662918	 1.7573511344	 0.083336318	-0.272072
H	-1.3101688047	 3.8574935689	-0.8416391078	 0.139044
H	-1.2692320334	 3.7450229793	 0.9343829664	 0.13678
H	 2.3854831591	 4.3398184223	-1.1696896843	 0.155153
H	 0.834925623	 5.3324012615	-1.2464951758	 0.130177
H	 0.7420134542	 5.2343718137	 1.0993447565	 0.242999
