17
gdb 65623	3.3785	1.33318	1.22913	1.0528	74.29	-0.2523	0.0222	0.2744	1065.3738	0.133818	-421.746432	-421.738143	-421.737198	-421.779096	31.642	
C	 0.2047278085	 1.4206636396	-0.0543182235	-0.442663
C	 0.0336374418	-0.0876255422	 0.0115530763	 0.159667
O	 0.959124615	-0.7903808006	-0.892596753	-0.33034
C	 1.4921456182	-1.5960920746	 0.171393211	 0.068641
C	 2.712386036	-0.958669594	 0.8508492818	-0.102067
O	 1.8478872848	-0.2043735276	 1.7475210895	-0.290687
C	 0.673064468	-0.8379466235	 1.2273093464	 0.026454
C	-1.3397106734	-0.5126322026	-0.2347702393	 0.339656
C	-2.472463201	-0.879368542	-0.4014608452	-0.456544
H	 1.2095628899	 1.6917974136	 0.2737201289	 0.137828
H	 0.0491998984	 1.7620800377	-1.0811323223	 0.13601
H	-0.5271497075	 1.9154033419	 0.5904845719	 0.130198
H	 1.4778280981	-2.6648575393	-0.0445132384	 0.096873
H	 3.3482731228	-1.6515603903	 1.4153051016	 0.109098
H	 3.3233925815	-0.3166549707	 0.2088779248	 0.118673
H	 0.0114276606	-1.2373466577	 1.9960427291	 0.097776
H	-3.4733889016	-1.1962237575	-0.5635674296	 0.201428
