19
gdb 115040	2.0117	1.5596	0.95891	3.8827	78.	-0.2342	-0.0239	0.2103	1242.3011	0.158083	-423.031527	-423.022401	-423.021457	-423.066399	32.618	
C	-0.3800305441	 1.5764929372	 0.0451143795	-0.237734
O	-0.2844519549	 0.2558977258	 0.5292316106	-0.242848
C	-1.2843269008	-0.6119618378	 0.0408026527	 0.118356
C	-1.1353926079	-1.0151761978	-1.4559748597	-0.285212
C	-1.4906785306	-2.4806414671	-1.4450764491	-0.061484
C	-1.5774630131	-2.9745947911	-0.2099589802	-0.093527
C	-1.2470840452	-1.9407080435	 0.8460803432	-0.171924
C	 0.1379783954	-2.2316680328	 1.4205665137	 0.182439
O	 0.3372621127	-2.5756755493	 2.5554638729	-0.255526
H	 0.3996476736	 2.1591937657	 0.5407801403	 0.133873
H	-0.2254816055	 1.6328617623	-1.0423671041	 0.10973
H	-1.360396844	 2.0203689187	 0.2787056307	 0.108181
H	-2.2732596749	-0.1493372376	 0.185073093	 0.079347
H	-1.779265931	-0.4273393402	-2.1193951973	 0.107648
H	-0.1020420512	-0.8530423714	-1.7917865858	 0.120209
H	-1.6488554019	-3.0506551767	-2.3541523315	 0.102568
H	-1.8013924283	-4.0034769635	 0.0464077425	 0.11065
H	-1.9445805377	-1.9387937406	 1.6883501811	 0.094906
H	 0.9654709393	-2.1492147804	 0.6836227276	 0.080349
