18
gdb 30198	2.60738	1.66384	1.06574	1.0497	80.24	-0.1744	0.0572	0.2316	1122.8597	0.148358	-401.952755	-401.944469	-401.943525	-401.985606	31.622	
C	-0.2204585179	 1.6767847726	-0.6362428967	-0.399978
C	 0.0985702866	 0.2794280789	-0.1402635923	 0.060295
C	 1.1841183601	-0.5702022437	-0.9122480719	-0.392807
C	 1.9095791812	-0.6325687643	 0.4201938666	 0.298519
C	 2.7018857348	-1.210298149	 1.374924331	-0.300695
C	 2.2413175191	-0.6733522743	 2.6322192568	-0.283495
C	 1.1635288786	 0.1584875029	 2.3835720381	 0.307454
O	 0.3600719457	 0.9055359802	 3.1862705516	-0.436768
N	 1.0075805766	 0.2115465629	 1.0326210017	-0.044337
H	 0.6981100315	 2.2435164909	-0.8150864396	 0.128237
H	-0.7859929847	 1.6239842739	-1.5725203192	 0.120929
H	-0.824053461	 2.2217521498	 0.0961569956	 0.133848
H	-0.8180261314	-0.293523524	 0.0356386278	 0.100493
H	 0.816001951	-1.5205356244	-1.307779066	 0.118596
H	 1.6865999634	-0.0231064968	-1.7164144649	 0.112628
H	 3.5050587068	-1.9182044905	 1.2421493861	 0.09151
H	 2.6887726179	-0.8426960509	 3.6011732369	 0.081571
H	 0.6325436318	 0.7621299456	 4.0976150187	 0.304
