19
gdb 74453	3.86887	1.17441	1.05112	1.0783	88.75	-0.2201	0.0167	0.2367	1204.1008	0.158848	-348.69787	-348.689666	-348.688722	-348.730185	32.879	
C	-0.0601279753	 1.4698610539	 0.0731641965	-0.516957
C	-0.0075706453	-0.0165379921	 0.0040788697	 0.349522
C	-0.0262029231	-0.858795425	-1.0327460953	-0.260236
C	 0.057582362	-2.2563512206	-0.3778483083	 0.249156
C	-0.9616879727	-2.0536548573	 0.8106006677	-0.242832
C	 0.0869509735	-0.9665653807	 1.215544391	-0.151366
C	 1.1693153455	-1.9741764593	 0.7069310878	-0.242807
C	 0.0609376236	-3.431286854	-1.2100386224	 0.038298
C	 0.0644830438	-4.4199095102	-1.8955647484	-0.348788
H	 0.8283698949	 1.8792740538	 0.5710968295	 0.127665
H	-0.1236815275	 1.9130247235	-0.9246541532	 0.127127
H	-0.9262511669	 1.8134120795	 0.6535281717	 0.127701
H	-0.0847176346	-0.6695234282	-2.0948364465	 0.105143
H	-1.9660230072	-1.7192554104	 0.5428485615	 0.098848
H	-0.996423268	-2.909625844	 1.4910571147	 0.100758
H	 0.1193509724	-0.5325294855	 2.2144651807	 0.063593
H	 1.3333483239	-2.8227685535	 1.3776755279	 0.100756
H	 2.1153268469	-1.5670309202	 0.3443065962	 0.098852
H	 0.0675901841	-5.2920443696	-2.5007879208	 0.175567
