16
gdb 42905	2.97015	1.50913	1.24064	3.4523	68.27	-0.2513	-0.0251	0.2262	1015.6552	0.124432	-437.831736	-437.824198	-437.823254	-437.864308	27.851	
O	-0.1607653867	 0.0529435048	-0.0875780276	-0.297334
C	-0.106613647	 1.2378732639	 0.0088822518	 0.343263
N	-1.1841292026	 2.2181054222	-0.0276405477	-0.179647
C	-1.0149100344	 3.0212867237	 1.2236148024	-0.253766
C	-0.09929776	 3.3030146178	 0.1112078509	-0.110625
C	 1.0227709078	 2.2764908306	 0.0490181574	 0.150717
C	 2.2480503952	 2.2206683821	 0.9816297285	-0.131678
O	 3.1613958642	 2.2530165856	-0.1308770535	-0.268184
C	 2.0800002285	 2.2714686088	-1.0797967207	-0.132672
H	-1.8495142576	 3.6937709619	 1.3910255035	 0.146854
H	-0.6516716683	 2.5202363222	 2.1178091511	 0.136689
H	-0.1602325034	 4.1980051315	-0.4962081275	 0.122442
H	 2.364890066	 3.0861921335	 1.6455679864	 0.110133
H	 2.3406024502	 1.2954613457	 1.563117091	 0.12213
H	 2.0692525565	 1.3776627897	-1.714210718	 0.128759
H	 2.0907720215	 3.1699229362	-1.7092548381	 0.112917
