22
gdb 120768	2.54615	0.9504	0.75015	0.5046	84.2	-0.2402	0.0757	0.3159	1591.8796	0.193527	-404.291512	-404.281638	-404.280693	-404.327716	35.655	
C	-0.4276764658	 1.3010641907	-0.4750787348	-0.221654
O	-0.6324363561	-0.0860686881	-0.5782298353	-0.235005
C	-1.0538156012	-0.6675167686	 0.6377324267	-0.049212
C	-1.1708909837	-2.1563597916	 0.4374847524	-0.055156
N	-1.9901510877	-2.8768624278	 1.4254264748	-0.359382
C	-2.4223726628	-2.8445207432	 0.0158791364	-0.007247
C	-3.7097428489	-2.1570784236	-0.2999051	 0.039843
C	-4.1943741532	-2.1044416005	-1.7274006782	-0.264062
C	-4.907346507	-2.9743172464	-0.7235982862	-0.274774
H	-0.1006068437	 1.6589719105	-1.4545384074	 0.124888
H	-1.3510939464	 1.8324307684	-0.1933939323	 0.10205
H	 0.3462840038	 1.5472448976	 0.270018693	 0.101603
H	-0.32202825	-0.459313286	 1.4382183601	 0.084331
H	-2.0151041851	-0.2457653313	 0.96849298	 0.093615
H	-0.2398834775	-2.6191165911	 0.1128079314	 0.084331
H	-1.569637602	-3.7715440671	 1.6587664247	 0.230906
H	-2.2666856317	-3.7545787611	-0.5654715097	 0.074242
H	-3.9217863813	-1.2920843944	 0.3187482802	 0.087373
H	-4.6818593517	-1.1989390634	-2.0705829165	 0.111964
H	-3.5886563362	-2.5931034189	-2.4836883504	 0.11159
H	-4.7824939874	-4.049509899	-0.8046187268	 0.107948
H	-5.8869160545	-2.668077055	-0.3739418422	 0.11181
