19
gdb 87580	2.6044	1.422	1.20425	0.391	75.22	-0.2496	0.0715	0.3211	1128.0138	0.156863	-422.969651	-422.960902	-422.959958	-423.0029	33.019	
C	 0.0919226369	 1.6123554673	-0.0806742668	-0.41656
C	-0.037224146	 0.1201949889	 0.0727571159	-0.019476
O	 1.1644735448	-0.6648668887	-0.1082438804	-0.304041
C	 0.5671757735	-0.6266601898	 1.1742739766	 0.422242
C	 1.304886943	-0.1427537187	 2.4148216438	-0.097324
O	 0.3110617319	-0.0852044619	 3.4533213118	-0.243997
C	 0.8988806812	-1.3549557171	 3.145926727	 0.020765
C	 0.1491807711	-1.9268409107	 1.9217657989	-0.111481
C	-1.3247293003	-2.2658556494	 2.0850845759	-0.412774
H	 0.9763605204	 1.9850616188	 0.4418572751	 0.12545
H	 0.1761459237	 1.8859242667	-1.1374882289	 0.129538
H	-0.7916730468	 2.113081935	 0.3290605508	 0.129396
H	-0.910536006	-0.3252717154	-0.4069927386	 0.091775
H	 2.1797187692	 0.4897190859	 2.5054950476	 0.113858
H	 1.3930823028	-1.8834163038	 3.9528965242	 0.107009
H	 0.7116981529	-2.7592837386	 1.4842229522	 0.095524
H	-1.8539547999	-1.4383989854	 2.5650935863	 0.133569
H	-1.7942482765	-2.4599090052	 1.1151726909	 0.119585
H	-1.4564844957	-3.1620738277	 2.7008425177	 0.116943
