19
gdb 56331	7.23069	0.48521	0.46289	6.4495	76.24	-0.2526	0.0234	0.2761	2262.5228	0.157054	-456.376035	-456.364933	-456.363988	-456.416019	36.165	
N	-0.0313499207	 1.2937847597	-0.1843703962	-0.523271
C	 0.0331939259	-0.0113980616	 0.2087018518	 0.412294
O	 1.0523672337	-0.5119691537	 0.6404892144	-0.352583
C	-1.2835573429	-0.7822709001	 0.0905615107	-0.320412
C	-1.0492992739	-2.2837405451	-0.0840310495	-0.183178
C	-2.342389817	-3.0774140235	 0.007624124	-0.079468
O	-2.0290391433	-4.4541141288	-0.210500558	-0.181115
C	-3.0264963113	-5.3334188886	-0.0069483322	 0.130672
N	-2.8513832181	-6.5596615802	-0.2504787578	-0.437494
H	 0.7920285464	 1.8643426409	-0.0840342821	 0.262633
H	-0.8717564487	 1.7119360145	-0.5411917707	 0.257497
H	-1.8479545894	-0.5928937206	 1.014745387	 0.129068
H	-1.8906099621	-0.377512407	-0.7284539382	 0.102757
H	-0.5783626403	-2.4817944503	-1.0525213344	 0.123113
H	-0.3470089363	-2.6266311765	 0.6796884361	 0.144873
H	-2.8061325391	-2.9493711165	 0.9965756366	 0.10461
H	-3.066323079	-2.7396171258	-0.7483042106	 0.102827
H	-3.9470204128	-4.8724434481	 0.3800635282	 0.079657
H	-3.6970856314	-7.0805518289	-0.0279889492	 0.227521
