20
gdb 91884	2.34014	1.58813	1.055	2.952	79.73	-0.2318	-0.0176	0.2141	1172.0053	0.171879	-403.153558	-403.145251	-403.144306	-403.186435	32.239	
C	-0.0158188663	 1.5691631148	 0.0196875426	-0.401607
C	 0.014105039	 0.0388925414	-0.012618157	 0.011558
C	 0.688834665	-0.4735869699	-1.292028797	-0.15347
N	 0.8551577715	-1.9396000872	-1.3713021358	-0.099306
C	 2.0857054682	-2.5013467837	-0.8608154822	-0.243292
C	 0.7976086314	-2.7275992701	-0.1257050597	-0.106863
C	 0.5937113079	-2.0718256065	 1.2041254893	 0.385153
O	 0.2787464229	-2.7198324315	 2.1774674598	-0.324528
C	 0.7196823889	-0.5567521778	 1.2213963548	-0.320198
H	 0.9997239253	 1.9814864935	 0.0408981319	 0.116573
H	-0.5235969513	 1.9746836472	-0.8616281003	 0.119201
H	-0.5424278875	 1.9327913433	 0.9073829361	 0.121322
H	-1.022628174	-0.3258417069	-0.0107029324	 0.092395
H	 0.0943783274	-0.1691273602	-2.1607082861	 0.112819
H	 1.6709852219	 0.0074808234	-1.3974867378	 0.098975
H	 2.5152729113	-3.3223625237	-1.4290525392	 0.126663
H	 2.8158995511	-1.8317570624	-0.4078785942	 0.114454
H	 0.3151835519	-3.6976185929	-0.2084778618	 0.113392
H	 1.7800794453	-0.2672161697	 1.2132044561	 0.114353
H	 0.2896839199	-0.1961954408	 2.159573723	 0.122406
