13
gdb 21218	7.14108	1.32562	1.12747	6.4921	56.54	-0.2342	0.0256	0.2598	988.2084	0.096377	-431.936432	-431.929104	-431.92816	-431.968146	26.126	
C	-0.0448109354	 1.43835761	 0.0290098143	-0.325661
N	-0.0871903754	-0.0203219288	-0.040046476	-0.394153
C	 0.5994169496	-0.6287019377	-1.0523032751	 0.532286
N	 1.1776201918	-0.0076222	-2.0361722823	-0.220323
O	 1.663957335	-1.0554554337	-2.883925799	-0.23549
C	 1.3698322161	-2.2743293455	-2.3542240104	 0.511993
O	 1.6381293545	-3.3375790574	-2.835298134	-0.393552
N	 0.7080989788	-1.9926450221	-1.1610831237	-0.449234
H	 0.9650601611	 1.8266081809	 0.2099070555	 0.139808
H	-0.3993089467	 1.8466136485	-0.9193280379	 0.167789
H	-0.7112679245	 1.7663013805	 0.8284638494	 0.132322
H	-0.0149725761	-0.4903139271	 0.8509542757	 0.251844
H	 0.2406368712	-2.6945001977	-0.6139680963	 0.282371
