15
gdb 27319	3.34353	1.40345	0.99563	4.4596	72.63	-0.2186	-0.0363	0.1823	1132.2611	0.113045	-454.005091	-453.996927	-453.995983	-454.038007	30.313	
C	-0.0201120447	 1.4822211196	 0.0581219803	-0.470144
C	-0.0098028925	-0.010937516	-0.0349300865	 0.402091
N	-0.1185574759	-0.6357436754	-1.1512153531	-0.351886
C	-0.1022146279	-2.0307275777	-1.1691771351	 0.367678
O	-0.1596506451	-2.6741654449	-2.2016321403	-0.367653
C	 0.0038290258	-2.7181826437	 0.1402492921	 0.139136
N	-0.0678218564	-4.091172525	 0.0907464306	-0.581948
C	 0.1299927889	-1.9560835142	 1.245006737	-0.054212
O	 0.1274966001	-0.5870997105	 1.1743710899	-0.19659
H	 0.9017168369	 1.8411513977	 0.5265514673	 0.149984
H	-0.1148457374	 1.9038777194	-0.9410558646	 0.162407
H	-0.8547488264	 1.8182745204	 0.681678597	 0.15103
H	 0.0788247438	-4.4342155788	-0.8506078895	 0.270019
H	 0.3980694272	-4.6155688716	 0.814327277	 0.250627
H	 0.2368887233	-2.3049609793	 2.2629607779	 0.129459
