23
gdb 83960	2.05965	1.83412	1.71358	0.128	88.21	-0.231	0.0242	0.2551	1022.2228	0.209968	-351.181781	-351.174132	-351.173188	-351.213127	32.536	
C	-0.2364202394	 1.5387926021	 0.0104782993	-0.432222
C	 0.0645655002	 0.040916372	 0.0026270907	 0.055764
C	 0.8951686627	-0.5229429426	-1.182751817	-0.059777
C	 2.2324756886	 0.2538655418	-1.2956506007	-0.20427
C	 3.0688499311	 0.1563251507	 0.0033256739	-0.184511
C	 2.2323862814	 0.2403093641	 1.3031891907	-0.20427
C	 0.8950932694	-0.5352997299	 1.1820985907	-0.059774
C	 1.1545478752	-1.9425142776	 0.6595605753	-0.076014
C	 1.1546011434	-1.9355408715	-0.6749186595	-0.076011
H	 0.6581079276	 2.1660683525	 0.0134634009	 0.118654
H	-0.8264005422	 1.8149800896	-0.8709103403	 0.1104
H	-0.825870864	 1.80582339	 0.8950403498	 0.110403
H	-0.8958665651	-0.4892262146	-0.0001810983	 0.066632
H	 0.3571256558	-0.4876479013	-2.1359524107	 0.053449
H	 2.823758961	-0.1316941868	-2.1343672602	 0.088931
H	 2.0132806463	 1.3007805405	-1.5349628905	 0.094806
H	 3.597569349	-0.8013818048	-0.0016495049	 0.102474
H	 3.8426585201	 0.9318078028	 0.007396939	 0.085989
H	 2.8236208458	-0.1539553232	 2.1378828048	 0.088931
H	 2.0131397698	 1.2846681155	 1.5533779414	 0.094807
H	 0.3569796598	-0.5099538601	 2.1355762684	 0.053448
H	 1.3827702662	-2.7890557141	 1.2975742058	 0.086081
H	 1.382870547	-2.775367435	-1.3217295887	 0.086081
