21
gdb 92296	2.1292	1.8486	1.20832	2.786	81.26	-0.231	-0.0166	0.2144	1104.5454	0.18367	-387.120689	-387.112369	-387.111425	-387.153705	32.517	
C	-0.9377598355	 1.232154254	 0.1552465704	-0.405784
C	-0.0573303547	 0.005043283	-0.0264787896	 0.041068
C	 1.2088863358	 0.0993257597	-0.9261396141	-0.256266
C	 2.0265193568	-0.6828871104	 0.1456336242	-0.003973
C	 3.2673884758	 0.0134144299	 0.736141049	-0.234864
C	 2.7093477437	 1.1157977854	 1.6532677611	-0.324518
C	 1.3278089822	 0.6169353411	 2.1022427284	 0.412527
O	 0.7131945312	 1.0251352613	 3.0557662718	-0.329801
C	 0.857425109	-0.4834007282	 1.1520297032	-0.153328
H	-0.3532538405	 2.1120824124	 0.4439469318	 0.116606
H	-1.4613187833	 1.4715440354	-0.7769783789	 0.11135
H	-1.6891280304	 1.0702869228	 0.9346798122	 0.130048
H	-0.6750695074	-0.8405213272	-0.3457947851	 0.080247
H	 1.139660042	-0.3555474793	-1.9169779838	 0.100206
H	 1.5572678902	 1.1302405108	-1.0522537843	 0.095606
H	 2.2238924602	-1.7167133735	-0.1430802458	 0.070187
H	 3.8431788767	-0.7052004968	 1.3307897054	 0.104858
H	 3.9361816142	 0.398606305	-0.0396928397	 0.102553
H	 3.3328129565	 1.3544520472	 2.5177049982	 0.126093
H	 2.5543601903	 2.0571969854	 1.1094724971	 0.129535
H	 0.4766121675	-1.327770628	 1.7308693285	 0.087651
