17
gdb 73162	2.81894	1.60292	1.34237	1.7915	67.86	-0.2483	0.0515	0.2997	986.9691	0.135118	-458.899672	-458.89203	-458.891086	-458.931759	29.89	
O	-0.2098270861	 1.2319181503	-0.42490696	-0.46577
C	-0.031794458	-0.0818457799	-0.0460951824	 0.292365
C	-1.299093011	-0.8911676804	 0.2615654573	-0.125597
O	-0.7069422451	-1.4683477605	 1.4480860273	-0.288378
C	 0.4959909852	-0.6892070011	 1.316840901	 0.02755
C	 1.6092825652	-1.457932226	 0.5535863522	-0.328699
C	 1.0935025807	-0.847176394	-0.7552174827	 0.337536
C	 1.2377744271	-1.1795462628	-2.1707126943	-0.263587
O	 1.9498810086	-0.0678643676	-1.5908479596	-0.282414
H	 0.5696432438	 1.4726132986	-0.9476746491	 0.295436
H	-2.1502200871	-0.2449850822	 0.5081501071	 0.115758
H	-1.6100486709	-1.6474832567	-0.4694369258	 0.101345
H	 0.754285189	-0.1359817842	 2.2214718466	 0.088198
H	 2.624682579	-1.1220211647	 0.7814113383	 0.123201
H	 1.5465648587	-2.5436926128	 0.6480334042	 0.121018
H	 1.8660612773	-2.0160966664	-2.4710791832	 0.127629
H	 0.4507796338	-0.9094480195	-2.873255147	 0.124408
