18
gdb 9483	2.858	1.68688	1.5055	4.475	72.19	-0.2556	0.0284	0.284	951.442	0.15404	-343.985744	-343.97726	-343.976315	-344.018271	31.726	
C	-0.6282447753	 1.2726715716	 0.0083212384	-0.406633
C	 0.1496068582	-0.0276327146	-0.0927758225	 0.027205
C	 1.5263233239	-0.068754808	-0.8114333446	-0.249833
C	 2.028896327	-1.069170042	 0.2606416234	-0.255824
C	 0.8498125613	-0.6111342665	 1.1958054594	 0.121356
N	 1.156620501	 0.4214375393	 2.1833191543	-0.547056
C	 0.1294908889	-1.6951696206	 1.8641014732	 0.271393
N	-0.4269297098	-2.5784407801	 2.3609880426	-0.343923
H	-0.0259567495	 2.079242569	 0.4359745488	 0.114836
H	-0.9572772152	 1.5905691619	-0.9868641094	 0.118882
H	-1.5156482179	 1.1549070975	 0.6373558848	 0.135657
H	-0.4922049012	-0.8115373898	-0.5056720002	 0.099101
H	 1.5347927725	-0.4042966383	-1.8499434375	 0.109917
H	 2.0443164074	 0.8943046817	-0.7598776161	 0.101506
H	 1.9204348758	-2.1084364482	-0.0577294634	 0.123888
H	 3.0302067905	-0.9259381963	 0.6738318959	 0.104109
H	 1.7156646332	 0.0245141181	 2.9335496493	 0.241102
H	 1.7205670091	 1.1488002154	 1.7534579236	 0.234317
