18
gdb 40059	3.2902	1.5681	1.46044	1.0971	70.18	-0.2419	0.0763	0.3182	958.6492	0.150546	-439.05966	-439.052841	-439.051897	-439.090833	27.72	
C	 0.0597196394	 1.5272486141	-0.026214008	-0.302177
N	 1.2764807875	 0.6892938171	 0.0393798743	-0.366296
C	-0.0432077438	 0.0567978364	 0.0281481833	 0.375394
C	-0.4781289532	-0.8098631085	 1.2216943771	-0.312786
C	-1.1538531965	-1.9779553485	 0.4658250675	 0.03426
C	-2.4628348251	-1.4772374522	-0.1739383401	-0.082053
O	-1.966321392	-0.6381645704	-1.2325799637	-0.269023
C	-0.5476890942	-0.7728486087	-1.1520237622	 0.071549
O	-0.3341532381	-2.0991994617	-0.7156645304	-0.246305
H	-0.132493462	 2.1213737024	 0.8631268313	 0.119701
H	-0.189679999	 2.0234015778	-0.9615659137	 0.116941
H	 1.7144724117	 0.6289447913	-0.8778220718	 0.23051
H	 0.3973745317	-1.1517194882	 1.7776520594	 0.12566
H	-1.158207419	-0.2995674573	 1.9085581557	 0.10804
H	-1.2092811194	-2.9314072104	 0.9875586863	 0.093654
H	-3.0559166668	-2.2937015107	-0.6004591052	 0.109284
H	-3.084667407	-0.8938178986	 0.5131897472	 0.105256
H	-0.0991446744	-0.5883422538	-2.129447047	 0.088393
