19
gdb 103573	2.35345	1.23154	1.14617	2.8163	71.57	-0.2494	-0.0302	0.2192	1197.5656	0.155745	-460.166095	-460.156199	-460.155255	-460.200623	36.518	
C	 0.1268391489	 1.415568412	-0.3006173109	-0.41747
C	-0.0939056941	-0.0964674836	-0.1930978566	-0.20692
C	-1.5275315212	-0.4894736885	 0.1685131779	 0.33784
O	-1.9648681018	 0.0705245445	 1.3865020001	-0.484874
C	-2.5418317935	-0.3919586149	-1.0365615	-0.408136
C	-2.2966731784	-1.8881458493	-1.2316046868	 0.346016
O	-2.2376997041	-2.6194438614	-2.182245673	-0.311693
C	-1.7463146613	-2.0465269583	 0.1807615485	 0.019233
O	-0.6890536506	-2.9325276142	 0.3825372893	-0.427561
H	 1.1562952329	 1.6360999625	-0.5961621913	 0.127627
H	-0.5351355691	 1.8744363127	-1.0435464273	 0.119459
H	-0.0406407084	 1.9162461226	 0.6596901443	 0.116307
H	 0.1750552105	-0.5750847115	-1.1428873306	 0.101008
H	 0.5709694828	-0.5230197898	 0.5646323728	 0.12509
H	-1.9100535051	 1.029486046	 1.3184921929	 0.282656
H	-3.552671528	-0.1773574927	-0.6783696462	 0.135846
H	-2.302044001	 0.2515286966	-1.8850455503	 0.128634
H	-2.5564612617	-2.2396319122	 0.8986915398	 0.11886
H	-0.5048975768	-3.3516551505	-0.4677183829	 0.298078
