18
gdb 80683	3.00658	1.50079	1.24715	2.876	71.03	-0.2398	0.0661	0.3059	1040.1053	0.148322	-438.996888	-438.989016	-438.988072	-439.029273	30.453	
O	 0.1536407065	 1.4204191708	 0.6019963242	-0.418529
C	 0.0069410543	 0.0594838744	 0.3484465177	 0.096777
C	-0.6636090808	-0.8481183121	 1.3179701467	 0.062312
O	-1.7765715922	-0.2311083292	 1.9651912117	-0.295025
C	-2.4910991744	-0.1428288416	 0.702436157	 0.109474
C	-3.1309976518	 1.1961738754	 0.4387437416	-0.026179
C	-3.7425709058	 1.9554507834	 1.557272806	-0.24262
N	-2.5218146593	 2.4481805069	 0.8957838375	-0.335374
C	-1.2647852749	-0.6392476813	-0.077829511	-0.245753
H	-0.1943505832	 1.9189438672	-0.1456113668	 0.301825
H	 0.8811811506	-0.4068553167	-0.1111685046	 0.100341
H	-0.2122061706	-1.7009755437	 1.8120920553	 0.110786
H	-3.2685349293	-0.9197657585	 0.681937713	 0.093678
H	-3.5981547343	 1.2537686153	-0.5443921094	 0.088784
H	-4.6383681053	 2.546440621	 1.3885624653	 0.11307
H	-3.6429012869	 1.5396699555	 2.5560193523	 0.128275
H	-1.7167315329	 2.211989703	 1.473520566	 0.256253
H	-1.3095116397	-1.2939254096	-0.9384120923	 0.101905
