14
gdb 3111	6.14116	2.11955	1.84486	1.8787	64.9	-0.2432	0.0319	0.275	705.8501	0.113648	-287.362939	-287.35666	-287.355716	-287.392753	24.245	
C	 0.0221152572	-1.2118759796	 0.0423631909	-0.412174
C	 0.0422264461	-0.0092581177	 0.0237790818	 0.247816
C	 0.0364362805	 1.4140239337	-0.0525692186	 0.160517
C	-0.7169270799	 2.2529448407	-1.1086811088	-0.293556
C	 0.4510457535	 3.2925331297	-1.0847629617	-0.238777
C	 1.1605706685	 2.4353821126	-0.0297930538	-0.086138
N	 0.3268951611	 2.2179563928	 1.1390530126	-0.344086
H	 0.012085981	-2.2730571158	 0.0747288798	 0.189133
H	-0.8001423651	 1.744194765	-2.070560036	 0.121791
H	-1.7102759532	 2.5964699573	-0.8029452585	 0.101917
H	 0.983694709	 3.3357779677	-2.0372163315	 0.114908
H	 0.2092891554	 4.3135492345	-0.7716300324	 0.102813
H	 2.2275669036	 2.2750540235	 0.0728594748	 0.108431
H	-0.3617805177	 2.9564502655	 1.2798471813	 0.227406
