13
gdb 7016	8.34164	0.92151	0.84803	1.3873	62.29	-0.2751	-0.033	0.242	1250.6766	0.092348	-398.584168	-398.575833	-398.574888	-398.617815	28.504	
N	-0.0154404498	 1.5721933694	-0.1845852723	-0.46417
C	 0.0278689199	 0.31622574	-0.1669290136	 0.420889
C	-1.1560565312	-0.5836158172	 0.1059729284	-0.454819
C	-2.4225484288	 0.1024404944	 0.2976367264	 0.341226
C	-3.4861738358	 0.6326145448	 0.4621978448	-0.437764
O	 1.1435609919	-0.4803732325	-0.4280364375	-0.200306
C	 2.3575022753	-0.1121274521	 0.0805122322	 0.157487
O	 3.3611078385	-0.6750295538	-0.2192558449	-0.244414
H	 0.8733719466	 2.0022790086	-0.4384455375	 0.237522
H	-1.2210457959	-1.2948558328	-0.7283786378	 0.170132
H	-0.9109129173	-1.1985291078	 0.9827431041	 0.161456
H	-4.4206096058	 1.1167801052	 0.603769222	 0.203935
H	 2.2781925627	 0.7222333437	 0.797556876	 0.108826
