22
gdb 59713	2.93685	1.25274	1.16567	0.7981	80.91	-0.2303	0.0783	0.3085	1193.4166	0.195533	-404.335197	-404.326408	-404.325464	-404.368414	34.616	
C	-0.0437206798	 1.5476945541	-0.2410779114	-0.411397
C	 0.0357532921	 0.0437303871	 0.0205805716	 0.119315
O	 0.8094201791	-0.2370943305	 1.1867863363	-0.435671
C	-1.3507448445	-0.6185199093	 0.0664886521	 0.059826
C	-1.336632875	-2.1576255006	 0.203505138	-0.264943
C	-2.7089751735	-2.4738121396	 0.8339389897	-0.233813
C	-3.0440379336	-1.2121737345	 1.6195041062	-0.006989
C	-1.9783617086	-0.6536205802	 2.485196257	-0.270944
N	-2.2218285032	-0.0835547445	 1.1408541334	-0.117826
H	 0.9600027262	 1.9811286273	-0.2567941123	 0.11724
H	-0.5275562681	 1.7552795486	-1.200778717	 0.115523
H	-0.6347772463	 2.0401791851	 0.5382000408	 0.129552
H	 0.5914020144	-0.4328919986	-0.7972497345	 0.08509
H	 0.4750288367	 0.3268557807	 1.891993736	 0.286333
H	-1.8600528694	-0.3524864235	-0.8700785532	 0.075219
H	-1.194353878	-2.6524739414	-0.7605080224	 0.097841
H	-0.5134442771	-2.4694359829	 0.8514619508	 0.123574
H	-3.4667040452	-2.6285729346	 0.0574246902	 0.103854
H	-2.6961267768	-3.3720237614	 1.4589779431	 0.104814
H	-4.0863997245	-0.9938195387	 1.8341974434	 0.086404
H	-2.2414759122	 0.0153046603	 3.2998923826	 0.111552
H	-1.0890156226	-1.2508610627	 2.6586129495	 0.125445
