18
gdb 38668	3.02103	1.81503	1.32453	2.1403	76.48	-0.2414	0.0286	0.27	968.0019	0.150678	-401.931084	-401.924203	-401.923258	-401.962231	27.802	
C	 0.0390044842	 1.4787643414	 0.0980230761	-0.35789
C	 1.3494643803	 0.7488264636	-0.0594971933	-0.093855
C	 1.7489996679	 0.0631277185	 1.2523842402	-0.233465
C	 0.401240184	-0.7409166663	 1.21678256	-0.035826
N	 0.6234081909	-2.1608141486	 1.0228921202	-0.271924
C	 0.3628692354	-2.6687431778	-0.1079910046	 0.128657
O	-0.162664638	-2.1189803953	-1.2309546923	-0.225867
C	-0.6887014581	-0.781155906	-1.130070104	-0.193262
C	 0.0174779117	-0.005999736	-0.0730280494	 0.326553
H	-0.2385516843	 1.9242869709	 1.0516486895	 0.108852
H	-0.2741971454	 2.0572220205	-0.7671391079	 0.112444
H	 2.0126229723	 0.9642985403	-0.8891944818	 0.089076
H	 2.5991065787	-0.6141166854	 1.1582510082	 0.117576
H	 1.9039530201	 0.7223295836	 2.1123496419	 0.097194
H	-0.258263966	-0.5989243904	 2.080930249	 0.074431
H	 0.5698203538	-3.7216635312	-0.2938602858	 0.122109
H	-0.5868440318	-0.3373001884	-2.1249521115	 0.118815
H	-1.7601871057	-0.8666007536	-0.9013229145	 0.116383
