21
gdb 104207	2.60796	1.24579	1.19682	2.0847	78.28	-0.2244	0.0677	0.2921	1184.3487	0.180436	-424.187218	-424.177581	-424.176637	-424.221576	36.196	
C	-0.2665255896	 1.5451444187	 0.1926283656	-0.466896
C	-0.0800770682	 0.0409015352	 0.0402930273	 0.185491
C	-1.3691876434	-0.656890443	-0.3810248331	-0.126041
O	-1.7497360144	-0.1437411277	-1.650618846	-0.426937
C	 1.1391783709	-0.4290837041	-0.7934464248	-0.107552
O	 1.6435354026	-1.2232322409	 0.3074400608	-0.31493
C	 0.6407594785	-0.6995535774	 1.1762812661	 0.43042
C	 0.9735215288	-0.2445991771	 2.5598721306	-0.340722
C	 0.1224878007	-1.4888203779	 2.3327966711	-0.344089
H	 0.6735036357	 2.0328566555	 0.4660403551	 0.117044
H	-0.6294117736	 1.9796315127	-0.7424927334	 0.137696
H	-1.0030710469	 1.7719836605	 0.9725478157	 0.109472
H	-1.1969663537	-1.7426590653	-0.42452277	 0.096381
H	-2.1522893861	-0.4739689497	 0.3731429403	 0.082789
H	-2.5425759307	-0.6047509124	-1.9387030847	 0.289938
H	 0.9146726424	-1.0387183011	-1.6740826144	 0.109045
H	 1.8386249346	 0.3693701021	-1.0696527445	 0.097412
H	 1.9961171746	-0.3935097534	 2.8896535073	 0.122912
H	 0.4930141836	 0.6468564266	 2.950267189	 0.11316
H	-0.9348200528	-1.4441798503	 2.5742928924	 0.111657
H	 0.587474547	-2.4523692013	 2.5128097495	 0.123751
