20
gdb 85524	2.47056	1.58127	1.14249	3.9201	78.17	-0.2288	0.0375	0.2663	1120.5852	0.173244	-403.183594	-403.175379	-403.174435	-403.216549	32.326	
C	-0.3017277552	 1.5333857329	-0.066468487	-0.383783
C	 0.0266411231	 0.0352819595	 0.0290865434	 0.004115
N	 0.7597616057	-0.4363048903	-1.1496593371	-0.298454
C	 2.1166102095	-0.4390818122	-1.3152446161	 0.390047
O	 2.6397391667	-0.7062700463	-2.3819979371	-0.379558
C	 2.925222561	-0.0700785961	-0.0729512146	-0.349642
C	 2.2732608866	-0.4806769763	 1.2406299	-0.017536
C	 1.619757365	 0.5484267076	 2.1244018107	-0.302155
C	 0.7673304713	-0.3874324797	 1.3026859336	-0.027308
H	 0.6050571861	 2.1426646477	-0.1229423538	 0.122568
H	-0.890036748	 1.7345192289	-0.9673894696	 0.114439
H	-0.8814595347	 1.858402006	 0.8030302951	 0.122167
H	-0.9271071232	-0.5038295099	 0.0233318983	 0.091047
H	 0.2426726312	-0.5891241663	-2.0036058746	 0.242146
H	 3.9093185698	-0.5255130503	-0.1954673412	 0.133959
H	 3.0845353794	 1.0155998373	-0.1073986492	 0.124795
H	 2.7272028712	-1.3358869317	 1.729911075	 0.093729
H	 1.6347829974	 0.3974888365	 3.1981726581	 0.11398
H	 1.6951102636	 1.5884864938	 1.8249696012	 0.113467
H	 0.2626106934	-1.170561881	 1.8579357349	 0.091976
