11
gdb 130732	3.14973	1.60176	1.23652	2.4902	60.82	-0.275	-0.1137	0.1612	928.1293	0.065952	-484.842697	-484.835776	-484.834832	-484.874415	25.041	
O	 0.0450922481	 0.094072209	-0.5974141146	-0.316828
C	 0.0659978835	 1.2420235108	-0.2229303328	 0.400306
N	-1.125457793	 1.986431625	-0.1365676574	-0.290977
N	-1.4468799676	 3.1085924118	 0.6320330907	-0.03513
N	-0.6521442558	 4.0555340847	 0.7195646819	-0.131428
C	 0.5471279679	 4.0538281131	-0.1049364586	 0.396325
O	 0.6699799053	 4.8529865034	-0.9835174354	-0.259598
N	 1.5357880645	 3.1593402849	 0.3117236732	-0.177568
C	 1.3219605103	 1.9088035969	 0.2501189366	-0.046143
H	-1.9454845482	 1.402103802	-0.2563843595	 0.28717
H	 2.1049863748	 1.2126458985	 0.5491404958	 0.173871
