21
gdb 116392	2.42228	1.36814	0.93056	2.6791	79.28	-0.2296	-0.0198	0.2098	1304.3053	0.182557	-424.259923	-424.250809	-424.249864	-424.29413	34.069	
C	 0.0026590713	 1.558800254	 0.0049864771	-0.394005
C	 0.0380305456	 0.0295371211	 0.0310461887	-0.182161
C	 0.7384848531	-0.5668558908	-1.1821777178	 0.022922
O	 2.102781323	-0.1502055326	-1.165256855	-0.258785
C	 2.8530130829	-0.6054711694	-2.2769764605	-0.068538
C	 2.9736493272	-2.1273281938	-2.2618641241	-0.21054
C	 1.5726974594	-2.7630143155	-2.2516462871	-0.3065
C	 0.6463194345	-2.1028944332	-1.2388941554	 0.379061
O	-0.1312669765	-2.730763533	-0.5599578531	-0.303888
H	 1.0138155889	 1.9702382134	-0.0491484071	 0.131769
H	-0.5573873458	 1.9285176006	-0.8616890427	 0.108398
H	-0.4798866361	 1.9526273511	 0.9043293188	 0.112465
H	 0.5546238166	-0.3251894257	 0.9298132353	 0.110584
H	-0.9721676034	-0.3872292423	 0.0720865475	 0.117414
H	 0.2603134765	-0.1911489292	-2.1097771044	 0.076205
H	 2.3857259456	-0.2660683197	-3.2181555838	 0.086241
H	 3.8340577515	-0.1283052571	-2.197984854	 0.111588
H	 3.5492657797	-2.475758358	-3.1267449866	 0.102696
H	 3.5224654602	-2.4252867174	-1.3614419059	 0.118203
H	 1.1057638799	-2.6174182085	-3.2374462487	 0.1226
H	 1.5932864259	-3.838133244	-2.0580479309	 0.124272
