16
gdb 6627	4.91483	0.82496	0.79342	3.57	70.63	-0.2424	0.0421	0.2845	1469.5169	0.129597	-379.937339	-379.927778	-379.926834	-379.974298	32.344	
C	-0.1232317727	 1.2219013752	-0.4954173421	-0.495725
C	-0.0633072367	-0.1600384165	-0.0416605228	 0.038025
C	-0.0009208772	-1.3066791821	 0.320576987	 0.069814
C	 0.0451872281	-2.6924348687	 0.7831358935	-0.287815
N	-1.2550370567	-3.3574088169	 0.7365916349	-0.333161
C	-1.4817198183	-4.3419248871	-0.2069579162	 0.452539
N	-2.8192325562	-4.700615865	-0.3250310126	-0.560227
O	-0.6039445598	-4.8474379613	-0.8805363104	-0.383489
H	 0.753267705	 1.4770817605	-1.101062357	 0.15231
H	-1.0116296439	 1.3973166305	-1.1120735203	 0.149895
H	-0.1600960999	 1.9210624683	 0.3472521942	 0.146476
H	 0.7089538819	-3.2932201533	 0.1537474062	 0.174167
H	 0.4416102485	-2.7287842812	 1.8060634575	 0.127285
H	-2.0437977541	-2.7884314099	 1.0037628678	 0.24146
H	-3.3978546109	-4.6212725775	 0.4980402097	 0.247386
H	-2.9395163071	-5.5682046651	-0.8256498794	 0.261059
