23
gdb 123101	6.36132	0.467	0.4422	3.4172	84.98	-0.2442	-0.0091	0.2352	2508.2767	0.201544	-425.449267	-425.437498	-425.436553	-425.48907	39.516	
C	-0.0020128095	 1.5100740549	 0.0421659018	-0.384204
C	 0.011911582	-0.0089715178	 0.0157635407	-0.027074
O	 0.691506368	-0.4743988119	 1.1624353224	-0.24176
C	 0.7636049357	-1.8796210453	 1.2388918164	-0.054891
C	 1.5132178605	-2.2596711395	 2.508452549	-0.189224
C	 1.6398832942	-3.7724023201	 2.6748231229	-0.304046
C	 2.3863808442	-4.1904541845	 3.9371742187	 0.376937
C	 2.5437035545	-5.6859602874	 4.1565804582	-0.47271
O	 2.8280247147	-3.3806648311	 4.7189423413	-0.285824
H	 1.0187579023	 1.9027581888	 0.0455070835	 0.126986
H	-0.5232401566	 1.902916523	-0.8359774305	 0.112719
H	-0.5103683694	 1.8731817905	 0.9398924695	 0.126988
H	-1.0183097995	-0.4051137067	-0.0036260115	 0.082301
H	 0.5111100583	-0.3755489987	-0.8980634114	 0.0823
H	-0.2514255024	-2.3168550979	 1.2439316469	 0.07843
H	 1.2782213562	-2.2870283904	 0.3496910374	 0.078434
H	 2.50748267	-1.8031337842	 2.4911932235	 0.120886
H	 0.9976260182	-1.8324757406	 3.3738786161	 0.120874
H	 0.6512810394	-4.2540716346	 2.6945121179	 0.118075
H	 2.1551605044	-4.2248814546	 1.8148864401	 0.118073
H	 3.0814363526	-6.1412912299	 3.3172842696	 0.136843
H	 3.0884948011	-5.8691016768	 5.0833715412	 0.143086
H	 1.562270601	-6.171134055	 4.2042692765	 0.136801
