17
gdb 90519	3.10542	1.1388	1.04643	5.8872	72.05	-0.2531	0.0313	0.2844	1180.3823	0.13638	-417.963235	-417.954917	-417.953973	-417.99677	30.924	
O	 0.3500065511	 1.3359276445	 0.1400583882	-0.420177
C	 0.1119465687	-0.055337473	 0.0709195006	 0.093786
C	 0.3117150939	-0.8121830773	 1.3986470469	-0.189971
N	-1.0625136681	-1.4285752026	 1.3239380976	-0.134549
C	-2.0463587792	-0.3366930706	 1.3394891023	 0.011585
C	-1.9444962889	 0.937448582	 2.1737316248	-0.404299
C	-2.0904421556	 0.6777613475	 3.6065594511	 0.273115
N	-2.2026637398	 0.4699034587	 4.7375902227	-0.306964
C	-1.3278930247	-0.5813311064	 0.0705095923	-0.108499
H	 0.1879529454	 1.7227244495	-0.7267235866	 0.288872
H	 0.6901987106	-0.5101762244	-0.7422020714	 0.092904
H	 1.0667656931	-1.5975382217	 1.3523778609	 0.123891
H	 0.4932318331	-0.1972510245	 2.2837367151	 0.127043
H	-3.0480874166	-0.7609906743	 1.3615723138	 0.118085
H	-1.011350504	 1.471676292	 1.9891003621	 0.182986
H	-2.7499042665	 1.6133212644	 1.862723213	 0.153488
H	-1.8321705226	-0.9985855739	-0.7963416835	 0.098706
