19
gdb 55119	2.49541	1.45667	1.16156	3.8911	75.73	-0.2369	-0.0178	0.2191	1140.5842	0.15635	-423.002838	-422.993586	-422.992642	-423.037186	33.869	
C	 0.281216045	 1.4954307988	-0.0434449408	-0.488174
C	-0.1065125398	 0.0311099481	 0.0718948621	 0.372679
O	-0.4387017779	-0.4766592008	 1.1164001235	-0.298245
C	-0.0909765916	-0.744324482	-1.236954539	-0.01593
O	-0.1195767316	-2.1774512135	-1.1038513765	-0.284785
C	-1.3055661955	-2.2462355456	-1.9025457914	 0.068725
C	-2.4377187848	-1.5338458524	-1.2333900964	-0.351595
C	-1.4156575108	-0.7446845817	-2.0380664607	 0.240052
C	-1.7376142368	 0.1571840127	-3.1913960146	-0.500066
H	 1.3614557837	 1.5770167462	-0.2136936517	 0.146566
H	-0.212270243	 1.9715472209	-0.8981265375	 0.137157
H	 0.0230919636	 2.0194731713	 0.8773682809	 0.146808
H	 0.7583750598	-0.4338568461	-1.8614631936	 0.087198
H	-1.3861651577	-3.056147187	-2.6182714261	 0.105207
H	-3.4022309745	-1.6253713101	-1.7246172696	 0.112837
H	-2.4639377012	-1.4815445712	-0.1495066083	 0.145422
H	-2.0147633101	 1.1634156194	-2.8537905223	 0.125774
H	-0.886982806	 0.2544061861	-3.8755360599	 0.122505
H	-2.5839859809	-0.234448703	-3.764441688	 0.127866
