15
gdb 18899	3.22757	2.61432	1.83376	2.6739	63.72	-0.205	0.062	0.267	748.6464	0.117635	-362.535145	-362.528368	-362.527424	-362.565602	26.679	
C	-0.0559299741	 1.4769791622	 0.0198033944	-0.524472
C	-0.0689905994	-0.0101154693	-0.0721192518	 0.257717
C	 0.7858517374	-0.9956805744	-0.7940040973	-0.104176
C	-0.2997983158	-2.0924467073	-0.7075720654	-0.215831
C	-0.2237562364	-1.9475877855	 0.8036622225	-0.06106
N	 0.8745916552	-0.892439211	 0.7107303375	-0.212117
C	-1.1974717127	-1.0983834925	 0.0508474972	 0.32815
O	-2.5552751535	-1.0394125673	 0.1871660454	-0.444878
H	 0.9764230062	 1.8407570159	 0.0164002741	 0.136591
H	-0.5838251942	 1.93497531	-0.8240751181	 0.118742
H	-0.5319144977	 1.8170326313	 0.9458283107	 0.134036
H	 1.6496886046	-0.8581035626	-1.435754755	 0.092078
H	-0.569983279	-2.9396559414	-1.3217288251	 0.097155
H	-0.3374051336	-2.6588027254	 1.6118257852	 0.104991
H	-2.9499316171	-0.8888129826	-0.6797710944	 0.293073
