18
gdb 41656	3.24993	1.99532	1.65343	1.2107	73.43	-0.2263	0.091	0.3173	858.9885	0.151317	-401.876093	-401.870035	-401.869091	-401.906153	25.961	
C	-0.0060451883	 1.5728379449	-0.0200002601	-0.107404
O	 1.2583428041	 2.2060174238	-0.0767265163	-0.241274
C	 2.046310916	 1.6875426068	-1.1317627826	-0.107404
C	 2.1700376252	 0.1748050077	-1.0685253414	 0.015367
C	 2.4627826767	-0.538945255	 0.2435225003	-0.090942
C	 1.1091283688	-0.6146023442	 0.976794776	-0.090942
C	 1.4435204516	-1.5744235652	-0.1249272808	-0.037364
N	 0.8416205918	-0.5755895115	-1.1330039107	-0.202885
C	 0.1100839809	 0.0596756832	 0.0473490732	 0.015367
H	-0.508719307	 1.9599502263	 0.8722784922	 0.109412
H	-0.6152813905	 1.8417030214	-0.900389033	 0.095315
H	 1.6180161771	 1.9665160461	-2.1101692235	 0.095315
H	 3.0312398982	 2.1577992182	-1.0453226548	 0.109412
H	 2.8036208804	-0.1886288831	-1.8840192163	 0.079088
H	 3.3970904735	-0.6674550561	 0.7755560493	 0.089959
H	 1.0578670276	-0.7981952255	 2.0427082011	 0.089959
H	 1.4481661497	-2.6496573783	-0.2272889833	 0.099934
H	-0.883749832	-0.3947145101	 0.1134252242	 0.079088
