21
gdb 107415	3.38681	1.14926	0.98518	1.8591	78.91	-0.2347	0.0895	0.3242	1287.7175	0.181324	-424.206105	-424.197009	-424.196065	-424.239857	34.575	
C	 0.0963776586	 1.2907754001	 0.3875361606	-0.252733
O	-0.0134906138	-0.0040809446	-0.1752918024	-0.287685
C	-1.3039041799	-0.5175242395	-0.142579665	 0.40769
C	-1.8554497207	-1.0766970244	 1.155527066	-0.363977
C	-1.5133211443	-1.9900183774	-0.0054290001	 0.018581
O	-2.5815626996	-2.390722721	-0.8174030835	-0.2794
C	-2.7793779018	-1.387405183	-1.8331084743	 0.160955
C	-4.2243363016	-1.4381600614	-2.2933760041	-0.401594
C	-2.3216309068	-0.0561030174	-1.1923438233	-0.326726
H	 1.1515541068	 1.5694953214	 0.3413062617	 0.126967
H	-0.490824695	 2.0322110605	-0.1732546198	 0.108874
H	-0.2357921833	 1.3055387235	 1.435057744	 0.110468
H	-1.1758583873	-1.0972006743	 2.0016471808	 0.11438
H	-2.9036424929	-0.9302694912	 1.3944811698	 0.113107
H	-0.6875244151	-2.6899992002	 0.0729807649	 0.105438
H	-2.1127372941	-1.6177672702	-2.6794364372	 0.074365
H	-4.8991139651	-1.20951188	-1.4624383976	 0.119171
H	-4.3961202888	-0.7111189737	-3.0933997854	 0.115123
H	-4.4724655925	-2.432956593	-2.6737181517	 0.127424
H	-3.1687904259	 0.4807952524	-0.7509536733	 0.09872
H	-1.8425652369	 0.6003772733	-1.9232628101	 0.110851
