16
gdb 20812	5.68945	1.22736	1.09891	2.4802	67.29	-0.2149	0.0289	0.2438	1086.7345	0.131865	-379.953786	-379.94592	-379.944976	-379.986632	28.835	
C	-0.2108800072	 1.5169343327	 0.0086239161	-0.36566
C	 0.0197224819	-0.0055140082	 0.0023596407	-0.300847
C	 0.8491795031	-0.4846498042	 1.1529977493	 0.406249
C	 2.2081251264	-0.7156999704	 1.27060395	-0.406117
C	 2.3813773178	-1.1078682327	 2.6155588166	 0.434233
O	 3.5566557725	-1.4400630581	 3.1906717834	-0.430621
N	 1.2451572644	-1.1281348919	 3.2953852519	-0.340714
N	 0.3211355738	-0.7385669174	 2.375947862	-0.265231
H	 0.7410506047	 2.0535774226	-0.0366668798	 0.130674
H	-0.8180156021	 1.8205257288	-0.8496795506	 0.116523
H	-0.7277040131	 1.8342335113	 0.9195875407	 0.118554
H	-0.9481206409	-0.5227916459	 0.0079851064	 0.10695
H	 0.5169533908	-0.296902432	-0.9279637784	 0.122515
H	 2.9606452416	-0.6210339672	 0.5059039573	 0.104999
H	 3.3644284904	-1.6670770632	 4.1091441615	 0.301038
H	-0.6442821242	-0.6888995043	 2.6507108127	 0.267456
