17
gdb 46846	2.80947	1.82692	1.49302	4.4254	71.88	-0.2421	-0.012	0.2301	919.4566	0.139244	-421.871393	-421.864666	-421.863722	-421.902451	27.041	
O	 0.0125791582	 0.001280103	 0.3620012024	-0.330468
C	 0.0126232231	 1.1474397286	 0.0085729863	 0.425287
O	-1.1678463078	 1.739959559	-0.3231556279	-0.242539
C	-1.2736293101	 3.0732772086	-0.8707941095	-0.059053
C	 0.0336799795	 3.8759253565	-0.8307493292	-0.080969
C	 1.154265501	 2.931289146	-1.3090160771	-0.240684
C	 1.2556764496	 2.0344382244	-0.0592232353	-0.172408
C	 1.1320068504	 3.0682192912	 1.0603381592	-0.082491
C	 0.4454127428	 4.119524608	 0.61575698	-0.071317
H	-1.6167924875	 2.9597306716	-1.9060937174	 0.117403
H	-2.0669499469	 3.5677350407	-0.3003063988	 0.119668
H	-0.0870844318	 4.7821084769	-1.4307458309	 0.07947
H	 0.9010774866	 2.3832713108	-2.2223175076	 0.108781
H	 2.0911438605	 3.4717724327	-1.4667739734	 0.110231
H	 2.1344878218	 1.3928127986	-0.0031498924	 0.096664
H	 1.4892810325	 2.8939856658	 2.0671562144	 0.116327
H	 0.1350181078	 4.9819923876	 1.1928221174	 0.106096
