19
gdb 70481	3.26722	1.02617	0.90387	4.8007	79.49	-0.2316	0.0275	0.2591	1349.1424	0.158576	-419.158772	-419.149781	-419.148837	-419.193467	32.903	
C	-0.0864107244	 1.4917909009	-0.0040722983	-0.515584
C	 0.0923221289	 0.0057462943	 0.0252168925	 0.306143
N	-0.7703494227	-0.8742034435	 0.8522130829	-0.352536
C	 0.7000250215	-0.9284596528	 1.0253601695	-0.10783
C	 1.1831800581	-1.8892188481	-0.0647645356	-0.262542
C	 0.6302239888	-0.8613368848	-1.1130322583	 0.109951
O	-0.3325263409	-1.2993137944	-2.0534910766	-0.186893
C	 0.089968703	-1.5535433776	-3.3059448237	 0.125507
N	-0.7078296549	-2.0219467629	-4.1645209958	-0.442622
H	 0.7844394473	 1.9880047866	-0.4461854398	 0.122986
H	-0.9664621188	 1.7681190896	-0.5958453219	 0.143039
H	-0.2227311838	 1.8915478751	 1.0066559384	 0.120337
H	-1.1439701268	-0.2844099258	 1.5965417756	 0.225949
H	 1.1665273308	-0.7048918633	 1.9764410863	 0.097548
H	 2.2652127197	-2.0207019486	-0.127249781	 0.102072
H	 0.6788249776	-2.8571930863	-0.0638439123	 0.126702
H	 1.4530808731	-0.3495225761	-1.6278115478	 0.082413
H	 1.1488118774	-1.3037460075	-3.4700191878	 0.078874
H	-0.2286182339	-2.1337916048	-5.0555214964	 0.226484
