18
gdb 87334	2.12946	1.23338	0.89662	3.4255	80.11	-0.2396	-0.0217	0.2179	1330.5125	0.144027	-401.899731	-401.889798	-401.888853	-401.935258	35.453	
C	-0.0372807168	 1.5126211349	-0.1388441441	-0.405269
C	-0.0070845213	 0.0172070925	 0.0592329529	-0.035986
N	 1.2787173187	-0.6710871756	-0.0933154733	-0.364437
C	 0.617722858	-0.6739887541	 1.2410259701	 0.073892
C	 1.3642625079	 0.0779639458	 2.3343204508	-0.341869
C	 2.5481234712	-0.7148462256	 2.8597464216	 0.169932
O	 2.8666903472	-0.7714751086	 4.0184180008	-0.242864
C	-0.0005146482	-1.9032287988	 1.6744648543	 0.299725
C	-0.4914545928	-2.9351169035	 2.050951128	-0.436486
H	 0.8821235813	 1.9880800108	 0.2078081145	 0.131376
H	-0.1436181906	 1.7426902752	-1.2042599517	 0.129524
H	-0.8866491918	 1.9587732936	 0.3886160325	 0.127352
H	-0.8819499562	-0.5003376942	-0.3304915392	 0.099176
H	 1.1539367985	-1.5759723131	-0.5397302061	 0.242621
H	 1.7668815221	 1.0077235494	 1.916809349	 0.13242
H	 0.7076666398	 0.3311460965	 3.1708463037	 0.127508
H	 3.1315373094	-1.2372606739	 2.0696482117	 0.089666
H	-0.9283636864	-3.8440877313	 2.3841468145	 0.203719
