17
gdb 110165	2.43415	1.23944	0.87496	1.5298	76.56	-0.2324	-0.0334	0.199	1305.4113	0.132448	-421.782622	-421.773222	-421.772278	-421.81734	33.681	
C	-0.3471663291	 1.3521986965	-0.0395573661	-0.250758
O	 0.2086066965	 0.0608460191	 0.1635092596	-0.242194
C	 0.6921986439	-0.5215228298	-1.001802	 0.042648
C	 1.3396663748	-1.9355985264	-0.8162825813	-0.221253
C	 0.5695135887	-2.4487150971	-2.0844652349	-0.361678
C	-0.3060711024	-1.1903610068	-1.9815389034	 0.35841
O	-1.3950182727	-0.8938612006	-2.3784675721	-0.292516
C	 2.7833367493	-2.0249378508	-0.8081338883	 0.302978
C	 3.9838379569	-2.089476373	-0.8227733417	-0.436432
H	 0.4042706641	 2.0469656633	-0.4443692666	 0.110154
H	-1.2042468935	 1.3168641596	-0.7216172313	 0.141628
H	-0.6742538823	 1.711510907	 0.9381710682	 0.133296
H	 1.3739422438	 0.1482168354	-1.5538315629	 0.098818
H	 0.9125002099	-2.3821673297	 0.086720938	 0.128333
H	 1.1925816951	-2.4439824055	-2.9834044246	 0.145498
H	 0.0576362493	-3.4092769286	-2.0077235976	 0.143551
H	 5.0439746077	-2.1497821727	-0.826827985	 0.199517
