27
gdb 112617	3.35514	0.8064	0.7675	0.0279	96.51	-0.2717	0.0809	0.3526	1713.4421	0.250903	-353.566211	-353.555283	-353.554338	-353.602064	41.523	
C	-0.2874149391	 1.43457608	-0.0651995959	-0.378018
C	 0.0887432539	-0.0506285575	-0.0821101116	-0.19501
C	 0.7967043544	-0.5067481831	 1.1876779151	 0.068046
C	-0.0162824253	-0.5813082705	 2.51201358	-0.285664
C	 0.6721084551	-1.9447831623	 2.8436586187	 0.369611
C	 1.8554550454	-1.7562926932	 3.7977271418	-0.446338
C	-0.2767742609	-3.0543013028	 3.3116002411	-0.235973
C	 0.3435066613	-4.455152611	 3.3707862008	-0.388122
C	 1.1290704691	-2.0156620971	 1.3491155455	-0.29068
H	 0.6025981711	 2.0659073029	 0.0354438067	 0.111826
H	-0.8012448148	 1.7279764049	-0.9860253633	 0.109422
H	-0.9520663327	 1.665839592	 0.7743914925	 0.118055
H	-0.8157900075	-0.6578474508	-0.2248026712	 0.087293
H	 0.7326826288	-0.2568196647	-0.9478978996	 0.091559
H	 1.6995323013	 0.0981646396	 1.33217772	 0.064228
H	 0.1145813571	 0.2275804855	 3.2368818931	 0.088286
H	-1.088700076	-0.7031634314	 2.3214153046	 0.086721
H	 1.507561937	-1.5316484324	 4.8130980007	 0.107873
H	 2.4830857408	-2.6520428234	 3.847518025	 0.112831
H	 2.495497968	-0.9274686951	 3.4770753961	 0.110281
H	-0.6766655487	-2.7881017192	 4.3002183036	 0.08848
H	-1.1392856524	-3.0774748564	 2.6329224994	 0.085321
H	 0.7767960045	-4.7375423024	 2.40480734	 0.116996
H	 1.1363847469	-4.5211758871	 4.1219517563	 0.116738
H	-0.4118955318	-5.2049948865	 3.6258430543	 0.110262
H	 0.4594347762	-2.641671269	 0.7486658359	 0.087729
H	 2.1591438383	-2.328490429	 1.1543979105	 0.088246
