16
gdb 87035	2.32974	1.50614	1.06631	13.9586	75.61	-0.1807	-0.0196	0.1611	1122.0167	0.122469	-437.799858	-437.790819	-437.789875	-437.833744	33.206	
N	 0.0829246094	 1.0482902918	 0.1211263439	-0.4208
H	 0.8062962989	 0.3764205477	 0.4787424777	 0.300783
H	 0.5751737076	 1.8321502096	-0.3109318508	 0.327148
H	-0.4941710016	 0.5956256354	-0.5898626452	 0.319796
C	-0.6928552719	 1.507224969	 1.3151683823	-0.084077
C	-1.459943572	 0.4806695092	 2.0726126696	-0.318688
C	-0.1570353732	 1.0193799558	 2.6508987168	-0.004438
C	 0.9927026563	 0.1840662214	 2.539320066	 0.248786
C	 1.9582781547	-0.4952057037	 2.268790206	-0.448571
C	-0.3060750495	 2.1340651279	 3.8242301085	 0.333097
O	 0.5419526544	 2.0580105385	 4.7038745514	-0.441476
O	-1.2759215684	 2.8727526004	 3.5887312375	-0.473177
H	-1.0303345356	 2.5344928323	 1.2641293951	 0.170199
H	-2.3590285324	 0.8467463476	 2.5544125985	 0.173292
H	-1.4798882518	-0.5392526813	 1.6990219618	 0.114554
H	 2.836570825	-1.0894535416	 2.1948837809	 0.203574
