18
gdb 114583	2.11572	1.61226	1.09856	1.7025	80.04	-0.2384	0.0143	0.2527	1149.1337	0.145874	-401.855221	-401.846347	-401.845402	-401.888893	33.08	
C	 0.3394402816	 1.0197969787	-0.3660503309	-0.246953
O	-0.3571263044	 0.1598300399	 0.5157153211	-0.23731
C	 0.4862450774	-0.5697662313	 1.3590878752	 0.041998
C	-0.24105894	-1.5818805518	 2.2630820751	-0.198988
N	 0.5689532025	-2.7410773278	 1.7445363682	-0.163956
C	 0.2861452246	-2.7979190712	 0.3080845511	-0.272467
C	 1.2570086148	-1.7677880294	 0.7590703546	 0.143806
C	 2.6481327642	-1.7886372222	 0.4602209781	 0.190673
C	 3.8228800288	-1.7552073172	 0.199408816	-0.390084
H	 1.0009385311	 0.4602269783	-1.0419634398	 0.122771
H	-0.4093534494	 1.5501738643	-0.9582041564	 0.130303
H	 0.9470148387	 1.7531970418	 0.1853516122	 0.110886
H	 1.1641370598	 0.0952928577	 1.9116007892	 0.082104
H	-0.0582293803	-1.4387157859	 3.3286853257	 0.118028
H	-1.3151201386	-1.6764851357	 2.0787580309	 0.118386
H	 0.7029532441	-3.6756245786	-0.1744681317	 0.133774
H	-0.6859312937	-2.476146333	-0.0599547375	 0.126489
H	 4.8603965087	-1.7398578765	-0.0260901511	 0.190538
