19
gdb 34019	3.10864	1.31345	1.13547	1.1673	82.14	-0.2402	0.0482	0.2883	1136.3842	0.1603	-385.850268	-385.84219	-385.841245	-385.882613	32.062	
C	-0.0060274943	-1.1924447385	-0.0080123233	-0.418805
C	 0.0177335289	 0.0107908615	-0.0269873321	 0.222533
C	 0.0082182952	 1.4452083505	-0.0205719235	 0.138071
C	 0.4443266345	 2.1898827022	-1.2682872777	-0.313371
C	 1.3429115554	 2.1977746793	-0.0618613626	-0.065127
C	 1.5065093268	 3.4757796172	 0.7576527718	-0.237902
C	 0.3029125854	 3.7291881612	 1.6726295119	-0.075498
O	-0.9224877262	 3.457933819	 1.0090430862	-0.244196
C	-1.1064788392	 2.0704041445	 0.8214540097	-0.170584
H	-0.0193962654	-2.2539472962	-0.0004363604	 0.188322
H	 0.73378869	 1.5999787903	-2.1296348992	 0.120133
H	-0.0955688423	 3.1052849353	-1.4884649096	 0.12667
H	 2.2206317463	 1.5643425742	-0.1258982068	 0.099497
H	 2.411049246	 3.4127499063	 1.372051686	 0.103895
H	 1.6420401337	 4.3286912786	 0.0827438665	 0.110414
H	 0.3753427948	 3.1034340408	 2.5770562072	 0.0923
H	 0.2615220686	 4.7752442131	 1.9883403346	 0.107881
H	-2.0737372601	 1.9469821256	 0.3249750875	 0.117474
H	-1.1510257182	 1.5555729749	 1.7948134938	 0.098292
