19
gdb 52661	3.48188	0.81883	0.68718	2.4645	87.43	-0.2486	0.0309	0.2795	1645.9811	0.154621	-385.830036	-385.818756	-385.817812	-385.867718	39.194	
C	-0.0890630499	 1.4920727595	 0.0159543012	-0.501372
C	-0.0154271165	 0.038135329	 0.0101215579	 0.08667
C	 0.0506391871	-1.1650038062	 0.0267626386	 0.034078
C	 0.0685203136	-2.6303906211	 0.0078459226	-0.039974
O	-1.2392697581	-3.1675010466	 0.1446571541	-0.412144
C	 0.7854701037	-3.172574666	-1.2692950448	-0.180938
C	 2.2382241227	-2.6694631533	-1.3682148045	-0.396638
C	 0.7349547719	-4.6318856242	-1.2967766655	 0.344369
C	 0.7377399898	-5.8335722209	-1.3170084014	-0.470663
H	 0.7247096198	 1.9256610098	 0.6073696979	 0.153896
H	-0.0185844028	 1.901241563	-0.9976946634	 0.149999
H	-1.0337654218	 1.8373715391	 0.4498889008	 0.153886
H	 0.6190212463	-3.0058592575	 0.8788553825	 0.121718
H	-1.8056207679	-2.7178298279	-0.4923513365	 0.281692
H	 0.2235855962	-2.7852672426	-2.131076738	 0.100289
H	 2.2632935512	-1.5774370314	-1.3862534969	 0.128194
H	 2.8247258792	-3.0187784671	-0.512741041	 0.126697
H	 2.710668769	-3.0498666665	-2.2768829052	 0.127699
H	 0.7198433564	-6.8949644092	-1.3360465384	 0.192542
