18
gdb 128323	3.23871	1.2179	0.89817	2.3417	77.04	-0.1749	0.0424	0.2173	1283.0814	0.149335	-431.447801	-431.43788	-431.436935	-431.482451	35.503	
C	-0.1308751144	 1.4716061976	-0.0125448568	-0.309897
N	-0.0030213745	 0.0344802285	 0.1750881881	-0.386729
C	-1.1595520229	-0.7299928801	 0.0786999666	 0.389977
N	-2.3805750554	-0.2037043309	 0.0840045521	-0.322812
N	-3.2095707757	-1.2799881862	 0.0457403743	-0.278026
C	-2.5323367147	-2.469562559	-0.0047964071	 0.249205
N	-3.1165757122	-3.7522511166	-0.0651633781	-0.611123
C	-1.192154291	-2.1496464133	 0.0247402345	 0.07909
N	-0.0733887445	-3.0052186168	-0.051451237	-0.632333
H	 0.8556642447	 1.9313286473	 0.0873039013	 0.109592
H	-0.5614336913	 1.7505118505	-0.9860773792	 0.11198
H	-0.7858146903	 1.8791345857	 0.7617392248	 0.142102
H	 0.7506034013	-0.3782376656	-0.3599588446	 0.236597
H	-4.1982240231	-1.1311132476	-0.0488213388	 0.254845
H	-3.7190412668	-3.9441752963	 0.7286263096	 0.242659
H	-3.655336549	-3.901894712	-0.9123788676	 0.242689
H	-0.3845305541	-3.9704186581	-0.0983681816	 0.242895
H	 0.523764494	-2.9081989071	 0.7649491092	 0.239289
