11
gdb 130735	2.63783	1.88177	1.26	3.2642	61.59	-0.2798	-0.1175	0.1623	908.7223	0.06593	-484.83838	-484.83138	-484.830436	-484.870238	25.025	
O	-0.0115664925	 0.0609616913	-0.7091970734	-0.290571
C	 0.0480287058	 1.1730981776	-0.2732610281	 0.357832
N	-1.1381937106	 1.9217135583	-0.0374778002	-0.261498
N	-1.3763553866	 3.0719274519	 0.6692937076	-0.042766
N	-0.598415892	 4.0545855953	 0.6103246153	-0.139227
C	 0.56894569	 4.0676442783	-0.1753551383	 0.094355
N	 1.4582167471	 3.1698595643	-0.3223810489	-0.206458
C	 1.3310113346	 1.8872959597	 0.1916446138	 0.301561
O	 2.1417560415	 1.3183157213	 0.8675907277	-0.269017
H	-1.9632270034	 1.3308726113	-0.0229754545	 0.290839
H	 0.7243550961	 5.0429527406	-0.6352067109	 0.16495
