25
gdb 63978	2.80319	1.29419	1.16567	0.0759	91.73	-0.2687	0.0771	0.3458	1239.3707	0.230678	-352.37101	-352.36205	-352.361106	-352.404492	36.29	
C	 0.3558584737	 1.4135366462	-0.270605739	-0.447938
C	 0.0203927287	-0.0622410397	-0.0587262122	 0.349953
C	-1.4950779819	-0.2641361123	-0.0911837743	-0.440658
C	 0.8051585744	-1.0270604665	-1.0119705382	-0.297895
C	 1.556728013	-1.640461204	 0.1994284305	 0.021863
C	 3.01624685	-1.2142039589	 0.4517337616	-0.223423
C	 3.0258153926	-0.7866582116	 1.9310894832	-0.188404
C	 1.6869154852	-0.0354596439	 2.1130573303	-0.241054
C	 0.7021374467	-0.7746027667	 1.1787261304	-0.032253
H	 1.4343007454	 1.5967150062	-0.3017928379	 0.112194
H	-0.0581811719	 1.7586661122	-1.225530579	 0.108308
H	-0.0676932113	 2.042926147	 0.5209505583	 0.109826
H	-1.9190126506	 0.0634990124	-1.0479152099	 0.107128
H	-1.7582192348	-1.318678898	 0.0453991488	 0.107052
H	-1.9863651913	 0.3077789019	 0.7053446891	 0.108191
H	 0.1580096897	-1.7340111247	-1.5388823641	 0.08968
H	 1.4418713666	-0.5345668655	-1.7540460336	 0.08763
H	 1.4424429931	-2.7223802331	 0.306532921	 0.059095
H	 3.7393477441	-2.0047451119	 0.2293430296	 0.091295
H	 3.2765832149	-0.3563068204	-0.1811676263	 0.0926
H	 3.0419042671	-1.6775146446	 2.5714828114	 0.094615
H	 3.8971098368	-0.1812713009	 2.2001400012	 0.089675
H	 1.3526006989	-0.0303303731	 3.1546205878	 0.090469
H	 1.8069100985	 1.0118272745	 1.8189510696	 0.097073
H	-0.0327155977	-1.3440696947	 1.7538208418	 0.054977
