13
gdb 49380	2.4223	1.40082	0.96644	4.3077	66.03	-0.2793	-0.0587	0.2206	1139.6726	0.088382	-452.788567	-452.780438	-452.779494	-452.822145	27.98	
O	-0.1521200756	-0.009757408	 0.0130302056	-0.250422
C	-0.043596057	 1.1838439329	-0.0226449268	 0.15967
N	 1.1715093336	 1.8631923117	-0.0231426225	-0.127662
C	 1.4568862828	 3.3139522724	-0.0185623628	-0.1339
C	 2.9797174236	 2.9576100045	-0.0149600076	-0.396217
C	 2.538415963	 1.482627769	 0.0146095235	 0.450132
O	 3.0739331251	 0.4232932292	 0.0614441402	-0.29062
C	 0.9642889843	 4.0448985926	-1.183463398	 0.292117
N	 0.5693416758	 4.631175692	-2.0971315681	-0.30029
H	-0.8963490517	 1.8895436412	-0.0614869631	 0.107943
H	 1.1185176206	 3.8130913476	 0.8938092826	 0.15351
H	 3.5173511025	 3.2429099744	-0.9195882663	 0.172841
H	 3.5272723531	 3.2894815305	 0.8674724532	 0.162897
