21
gdb 106226	2.46418	1.36944	1.16675	1.5308	83.42	-0.2285	0.0169	0.2455	1178.5029	0.18261	-387.085207	-387.076141	-387.075197	-387.118938	34.669	
C	-0.1796479141	 1.4920495164	 0.1105452171	-0.42261
C	 0.0309757837	-0.0035263619	 0.1684623729	-0.0298
C	 1.3373696926	-0.6923066321	-0.152372686	-0.123472
C	 2.6415673959	 0.1079687175	-0.1181230663	-0.284298
C	 2.7565016688	 0.5465969994	 1.3264556841	-0.074885
C	 1.7522485209	 0.0767894213	 2.0700893105	-0.15138
C	 0.7824281633	-0.7367576813	 1.2733540236	 0.288051
C	 0.1672812735	-1.9733725808	 1.8853433986	-0.168807
O	-0.8762376605	-1.6897856507	 2.812268884	-0.417003
H	 0.6566493944	 2.0438656381	 0.5457626615	 0.121443
H	-0.3010048116	 1.8254270844	-0.9264559011	 0.113282
H	-1.085373871	 1.7747921376	 0.6577815324	 0.118648
H	-0.8354101103	-0.5651893455	-0.1766497839	 0.085751
H	 1.2979933389	-1.5760205085	-0.7804480158	 0.080582
H	 3.4982871752	-0.5077633952	-0.4220447654	 0.107969
H	 2.6260095294	 0.9661346325	-0.8038699206	 0.111051
H	 3.5531647865	 1.1917032549	 1.6807171863	 0.093219
H	 1.6265075078	 0.2694772011	 3.1312534506	 0.081173
H	-0.2992331032	-2.5787928696	 1.1010624969	 0.104233
H	 0.9497890502	-2.5917286989	 2.3536374229	 0.085461
H	-0.4926110805	-1.2031636788	 3.5482882577	 0.281393
