17
gdb 126787	4.54158	1.0659	0.93861	3.0297	84.93	-0.2164	-0.0416	0.1748	1267.5127	0.137451	-414.171341	-414.163135	-414.16219	-414.205041	30.118	
C	-0.0673121119	 1.5916918415	 0.027368099	-0.379962
C	-0.0296648786	 0.06427332	-0.0044634127	-0.122934
N	-1.3654550504	-0.5302187228	 0.0035059209	 0.110259
N	-1.9430422892	-0.7115295304	 1.2011494954	-0.206191
C	-3.1617800248	-1.153949003	 1.2198708905	 0.028867
C	-3.9431563729	-1.4533706603	 0.0272181412	 0.205062
N	-5.1454786406	-1.9064647094	 0.11762095	-0.540582
C	-3.1774341842	-1.1638851529	-1.1792581849	-0.043246
N	-1.9571065855	-0.7206487829	-1.1788307083	-0.195121
H	 0.9512418764	 1.9912247725	 0.0237041539	 0.125686
H	-0.5943852442	 1.9835404875	-0.8471781947	 0.136443
H	-0.5733564686	 1.9460826494	 0.9297369991	 0.139073
H	 0.4652494386	-0.2974707109	-0.9077383946	 0.135902
H	 0.493292742	-0.3321844171	 0.8681901809	 0.136447
H	-3.6092320701	-1.3048936731	 2.1973027059	 0.138872
H	-5.5396505618	-2.0566652435	-0.8143584586	 0.207779
H	-3.6231192041	-1.3172451946	-2.1593800131	 0.123647
