25
gdb 101628	2.50322	0.81371	0.73695	0.5232	94.95	-0.2587	0.0554	0.3141	1741.926	0.225647	-352.33927	-352.327551	-352.326607	-352.376877	42.73	
C	-0.1571828368	 1.566117208	-0.1101225404	-0.392324
C	-0.0153171975	 0.0441003979	-0.005470801	-0.166549
C	 0.5626474055	-0.4647947452	 1.3300026806	 0.03736
C	-0.3583606949	-0.1393594776	 2.5152218109	-0.395994
C	 0.8516735651	-1.9732193735	 1.2247842891	-0.179435
C	 1.6074421266	-2.6093252286	 2.4163235664	-0.157682
C	 1.7835623469	-4.1273766547	 2.2071978153	-0.39048
C	 2.9025074577	-1.966465173	 2.6395150652	 0.353298
C	 3.9770131268	-1.4525828436	 2.8076099451	-0.501349
H	 0.8019676721	 2.0647996049	 0.0698285571	 0.114365
H	-0.4996690867	 1.8574219699	-1.1081861354	 0.110506
H	-0.8781701348	 1.9640747034	 0.6102175731	 0.117171
H	-0.993216677	-0.427933212	-0.1769223286	 0.088836
H	 0.6339916517	-0.3046007054	-0.8187847496	 0.091114
H	 1.5222964042	 0.044386915	 1.4941558253	 0.085426
H	-0.5529662821	 0.9339984361	 2.5900634962	 0.115083
H	-1.3258847755	-0.6464217971	 2.4100546236	 0.106912
H	 0.0804914493	-0.4494959905	 3.4681183278	 0.117022
H	-0.095858033	-2.5162243155	 1.1036468447	 0.088834
H	 1.4371119544	-2.1621372632	 0.3162185167	 0.09664
H	 1.0039307636	-2.4691524299	 3.3226744731	 0.105956
H	 2.2959523648	-4.5836385926	 3.0581180059	 0.123507
H	 0.8075169001	-4.6089090426	 2.0907295587	 0.112702
H	 2.3752337993	-4.3273614981	 1.3086605013	 0.125059
H	 4.9222374201	-0.9956496121	 2.9661279189	 0.194023
