14
gdb 132276	2.02394	1.7855	0.95427	6.7247	67.8	-0.2446	-0.0515	0.1931	1131.7406	0.101335	-478.056676	-478.049057	-478.048113	-478.089177	28.08	
C	-0.0163578538	 1.5219925695	 0.0378487127	-0.495343
C	-0.0009407411	 0.0275880209	-0.0638761763	 0.427494
C	-0.0679262967	-0.6699958763	-1.2354254339	-0.381996
C	-0.0386932903	-2.0833266316	-1.1085409522	 0.36998
F	-0.1034697159	-2.7651792016	-2.244852391	-0.060002
N	 0.043003735	-2.7707182304	-0.0240559791	-0.383736
C	 0.1126296756	-2.0987970453	 1.1827917034	 0.445639
O	 0.1919985824	-2.6166101505	 2.271766732	-0.37614
N	 0.0856203433	-0.6788414375	 1.0908522223	-0.402308
H	 0.8956033513	 1.8862985581	 0.523493143	 0.156284
H	-0.0875287741	 1.9761639627	-0.9510411108	 0.153957
H	-0.8679365096	 1.8602343151	 0.6384034272	 0.15632
H	-0.1385399961	-0.1876961447	-2.1983382033	 0.123469
H	 0.13736156	-0.2049163284	 1.9819914159	 0.266384
