11
gdb 21511	5.39734	1.75935	1.32685	3.8447	52.63	-0.298	-0.0585	0.2395	818.0904	0.073674	-426.91621	-426.90969	-426.908746	-426.947254	23.02	
N	-0.0850251061	 1.3314331847	 0.0087000216	-0.56135
C	 0.1017825556	-0.0007479391	 0.0014382664	 0.527771
O	 1.142208156	-0.6079573212	-0.0095366456	-0.354209
N	-1.1480802273	-0.7227004918	 0.0103769144	-0.058733
C	-1.3432132902	-2.0591061097	 0.0080854321	 0.100259
N	-2.631378377	-2.2991246601	 0.0178430495	-0.227624
N	-3.2369072515	-1.0722983833	 0.0275944609	-0.077347
N	-2.3676146168	-0.1268789776	 0.0233487004	-0.131354
H	 0.7274943284	 1.9232026293	 0.0030363815	 0.28683
H	-1.0132394325	 1.7228513749	 0.0174935989	 0.298377
H	-0.5400512586	-2.7757623361	-0.00131131	 0.19738
