16
gdb 55014	2.66962	1.18029	1.09843	4.5646	66.7	-0.2371	-0.0027	0.2344	1163.1836	0.124833	-471.243313	-471.234375	-471.233431	-471.277536	32.912	
N	 1.0865360442	 0.1381567586	 0.5699286693	-0.522138
C	 0.0531059884	 0.1000079964	-0.3057757491	 0.391383
O	 0.0134048474	 0.7053961296	-1.3629690737	-0.376452
C	-1.1013349292	-0.80967621	 0.0652874897	-0.111132
N	-0.9348231274	-1.8250681299	 1.097474051	-0.312558
C	-1.8855197997	-0.7542435443	 1.3586000048	-0.148011
C	-1.5498072457	 0.1841452217	 2.4937404913	 0.43855
N	-2.6001263151	 0.9526910164	 2.8984383367	-0.524945
O	-0.4532163315	 0.2456227248	 3.0193078904	-0.365614
H	 1.7918781293	 0.837324314	 0.3992057141	 0.254952
H	 0.9379261404	-0.1782913803	 1.5204943277	 0.288721
H	-1.6983531431	-1.0373973275	-0.8145931345	 0.111147
H	-1.4054690483	-2.6915900681	 0.8548626543	 0.24801
H	-2.9480894823	-0.9672714996	 1.2480516021	 0.094431
H	-3.4583530351	 0.9966803864	 2.376737856	 0.264904
H	-2.4197915425	 1.6717582817	 3.58035628	 0.268753
