18
gdb 127075	2.5729	1.3549	1.08782	3.5895	75.56	-0.235	-0.0312	0.2038	1184.3535	0.145503	-435.240327	-435.230899	-435.229955	-435.2752	33.367	
C	 0.2639402098	 1.0403092159	-0.5420638931	-0.330838
N	 0.0101918354	-0.1130705806	 0.3231085282	-0.177398
C	 0.4162372491	 0.124645388	 1.7093990089	-0.330823
C	-1.2792609015	-0.6423381693	 0.1950889051	 0.181934
C	-1.6571352339	-1.8671389066	-0.2785623235	 0.355744
C	-0.8604826534	-3.0060893891	-0.7970590467	-0.4921
O	-2.98115554	-1.9555329526	-0.2244710519	-0.225498
N	-3.4533755436	-0.6887606073	 0.3232287017	-0.025935
N	-2.4479455879	 0.0184980538	 0.5443825106	-0.148361
H	 1.3307249913	 1.2834814812	-0.5109462456	 0.120091
H	-0.0029492813	 0.7902852127	-1.5718763845	 0.125533
H	-0.3053310767	 1.9347276878	-0.2424383401	 0.121089
H	-0.1410497414	 0.9477954406	 2.1844492448	 0.121118
H	 0.2586335759	-0.783149891	 2.2970412572	 0.125548
H	 1.4825496206	 0.3707099381	 1.7330107377	 0.120085
H	-1.0271517312	-3.907018062	-0.1980849652	 0.153071
H	-1.1365431726	-3.2406405108	-1.8300252922	 0.153064
H	 0.1979405313	-2.7414549988	-0.7600159416	 0.153676
