20
gdb 99596	1.8863	1.5132	1.03478	3.371	80.86	-0.244	0.0464	0.2904	1233.6827	0.169353	-403.086607	-403.076888	-403.075944	-403.121019	36.763	
C	-0.2252058013	 1.3682442954	-0.8327245593	-0.473739
C	-0.0396132357	 0.0440724205	-0.1225053853	 0.326888
C	 1.0967388241	-0.8256896857	-0.5158649909	-0.282947
N	 1.1347371192	-0.1033423143	 0.7726392466	-0.361875
C	-1.3049927221	-0.6146653429	 0.4615374036	-0.262707
C	-1.6962894741	 0.0194222912	 1.8256599747	-0.053493
O	-0.7963713933	-0.3454798034	 2.8423881071	-0.428737
C	-2.4182814595	-0.5927119861	-0.4808545346	 0.313271
C	-3.3569041278	-0.5614993367	-1.2319166107	-0.449618
H	 0.7356176243	 1.7501301083	-1.1925687562	 0.109892
H	-0.8945084718	 1.2590869852	-1.6898121572	 0.146612
H	-0.659972085	 2.1204284435	-0.1655957317	 0.131563
H	 1.0129202289	-1.9053947502	-0.4321666717	 0.128029
H	 1.7561843293	-0.4828147076	-1.3081227986	 0.118371
H	 1.7335430054	 0.7147412038	 0.6972285628	 0.235806
H	-1.0619831549	-1.6603325657	 0.6899837649	 0.115476
H	-1.7726050784	 1.1134648514	 1.7071790109	 0.084725
H	-2.6881271605	-0.342198285	 2.1143901328	 0.111306
H	 0.0928259788	-0.2998835528	 2.4538449374	 0.295316
H	-4.1851554956	-0.5468768689	-1.8963626544	 0.195862
