17
gdb 102926	2.42786	1.15472	0.86258	3.5072	70.43	-0.2447	-0.0266	0.2181	1322.2239	0.13165	-458.909198	-458.8991	-458.898156	-458.945617	34.986	
O	 0.4738013012	 0.7604782141	-0.0306670334	-0.422805
C	-0.3235100775	-0.2816040665	-0.5528300907	-0.072885
C	-1.6702921524	-0.3730427676	 0.176751198	-0.004026
O	-1.3637307165	-0.5531692756	 1.5537976944	-0.25798
C	-2.3301006995	-1.2669777126	 2.3087597464	-0.221309
C	-3.6260338132	-0.5952833678	 2.4167115428	 0.291001
C	-4.6918616618	-0.0446665617	 2.4900381887	-0.4371
C	-2.4739744913	 0.9094112179	-0.0565384706	 0.166103
O	-3.0344942386	 1.142269829	-1.0944935534	-0.254539
H	 0.5625407116	 0.5896400076	 0.9141254537	 0.295257
H	-0.5051281016	-0.057229921	-1.6076030454	 0.134232
H	 0.1801686907	-1.2575660052	-0.4827455748	 0.096147
H	-2.2423341713	-1.2210236055	-0.2257983231	 0.100208
H	-2.4765798646	-2.2720612965	 1.8831080695	 0.130833
H	-1.8902221865	-1.3945554338	 3.3031621208	 0.147029
H	-5.6336069149	 0.4430780555	 2.5556310958	 0.214458
H	-2.4659216238	 1.6182896498	 0.7968923713	 0.095377
