17
gdb 2348	5.28659	1.8222	1.57619	2.635	64.78	-0.2389	-0.0093	0.2295	836.4733	0.147702	-309.732528	-309.724906	-309.723961	-309.765172	27.004	
C	-0.2803079247	 1.5743791367	-0.1679267063	-0.480689
C	 0.0931773117	 0.128156842	 0.1059703556	 0.370419
O	 1.2326500558	-0.2035601694	 0.3477764467	-0.303524
C	-1.031822354	-0.8828815436	 0.0167435484	-0.062595
C	-1.256139412	-1.5157994179	-1.4043788362	-0.223367
C	-1.4413992056	-2.8933937147	-0.7149243705	-0.208499
C	-0.7792120195	-2.3105928746	 0.5613611976	-0.229108
H	 0.6173178997	 2.1900427681	-0.2366790156	 0.140066
H	-0.8646816861	 1.6561455321	-1.0912545828	 0.136658
H	-0.9169523951	 1.949015146	 0.6426317143	 0.140358
H	-1.9654849722	-0.4472240448	 0.3863693781	 0.073406
H	-2.0828364449	-1.1232768693	-2.0005614542	 0.101245
H	-0.3397046457	-1.4779519226	-1.9999905269	 0.116103
H	-2.4983631602	-3.1272363355	-0.5592465532	 0.10216
H	-0.9620686148	-3.7549824633	-1.1850114617	 0.10202
H	 0.2951071718	-2.5037052497	 0.6020920261	 0.128061
H	-1.2245303642	-2.5622398497	 1.5262338305	 0.097286
