13
gdb 23904	4.55804	0.87321	0.84996	3.3213	55.53	-0.289	0.0132	0.3022	1340.073	0.09051	-492.943469	-492.935081	-492.934137	-492.978068	28.378	
C	-0.0418176378	 1.5591165385	 0.0501188684	-0.370758
C	 0.0102209307	 0.0211957851	-0.0115410493	-0.328898
C	 0.6870267553	-0.477031521	-1.2013835869	 0.154284
C	 1.2488010332	-0.869970139	-2.1884527395	-0.188109
C	 1.928687201	-1.3502863385	-3.3839958963	 0.262755
F	 1.9646846093	-2.6907755993	-3.424802687	-0.072683
F	 1.3142918168	-0.9326955624	-4.5013786145	-0.073392
F	 3.1965946638	-0.9143594196	-3.4383502971	-0.073478
H	 0.9656475146	 1.9826778649	 0.0568820892	 0.13751
H	-0.5756609585	 1.9653003437	-0.8126985268	 0.137508
H	-0.5582243914	 1.8789805473	 0.9590450181	 0.124727
H	 0.5207417554	-0.3717647019	 0.8763081217	 0.145274
H	-1.0069035925	-0.3888279878	 0.01455015	 0.145259
