17
gdb 33756	2.39473	1.68388	1.2783	3.0547	78.16	-0.2582	0.0124	0.2707	1026.4491	0.137594	-380.802769	-380.795351	-380.794407	-380.834597	29.193	
N	-0.0114004633	-1.0971086684	-0.0880529596	-0.351469
C	 0.0045957608	 0.0582199836	-0.0296669718	 0.151684
C	-0.0045932083	 1.4965624734	 0.007074212	 0.129404
C	-0.6675349641	 2.4322147484	 1.0766022794	-0.257437
C	-0.0430277077	 3.3956614757	 0.0183421607	-0.144266
C	 1.216224285	 2.4739269666	 0.025724295	-0.252999
C	-0.616912051	 2.449669071	-1.0516926128	 0.418016
C	-0.6762666896	 2.4005904235	-2.515140502	-0.352268
N	-1.9125188929	 2.4577004798	-1.6712637531	-0.403439
H	-1.7563984379	 2.4025728929	 1.1338983375	 0.123115
H	-0.199871947	 2.4219904264	 2.0634059634	 0.110285
H	-0.0652780019	 4.4829594982	 0.0238440934	 0.098059
H	 1.8044042883	 2.4675434778	 0.9453467749	 0.112254
H	 1.8439392054	 2.4773020349	-0.8670071023	 0.11557
H	-0.4983526937	 3.290216449	-3.1126744563	 0.1293
H	-0.4363317861	 1.4622942997	-3.0092095366	 0.130638
H	-2.3533203761	 1.5409660676	-1.6316383018	 0.243553
