20
gdb 98283	2.64662	1.06915	0.89331	3.6259	76.15	-0.2523	-0.0251	0.2272	1369.4401	0.16844	-440.265643	-440.255762	-440.254818	-440.301114	35.697	
C	 0.6672185835	 1.3311690116	 0.8084373599	-0.397248
C	 0.1885302521	-0.0626275304	 0.371297687	-0.055617
N	-1.1396934471	 0.0256896329	-0.2255891181	-0.06827
C	-2.0061199672	-1.1436656051	-0.0824477011	-0.228759
C	-2.2622537921	 0.0932694096	 0.7036864758	-0.222482
C	 1.1938001119	-0.6324741138	-0.6262887887	 0.352051
O	 2.2462246538	-1.1072774202	-0.2517192546	-0.336082
C	 0.8992195203	-0.5568934694	-2.1157897861	-0.129211
O	 1.9823672159	-1.0242915978	-2.8642134199	-0.426606
H	 1.6745456511	 1.2683414709	 1.2260822529	 0.141782
H	 0.6741782968	 2.0206669916	-0.0406213061	 0.133449
H	-0.0046569634	 1.7360620281	 1.5703270734	 0.124593
H	 0.2098001858	-0.7303885799	 1.2505262071	 0.085178
H	-2.6177129357	-1.3857968106	-0.9464059435	 0.125153
H	-1.6168675458	-2.0045830302	 0.4588181595	 0.120506
H	-2.0439866129	 0.0553411349	 1.7698779829	 0.116264
H	-3.0657194029	 0.7693556236	 0.4271779799	 0.1247
H	-0.0142953526	-1.1389769315	-2.315125873	 0.123482
H	 0.6461429694	 0.4842088098	-2.3698636675	 0.125504
H	 2.6368461993	-1.311324464	-2.2070635499	 0.291611
