20
gdb 107644	3.35333	1.29481	1.0853	1.9045	79.91	-0.2304	0.0199	0.2503	1178.9504	0.171994	-403.154937	-403.146498	-403.145554	-403.187961	32.283	
C	 0.0844868356	 1.4948693076	 0.2782386163	-0.373965
C	 0.0384023524	-0.000948719	-0.0489223822	-0.246266
C	-1.3751198579	-0.5413531383	-0.1465802033	 0.358514
C	-2.1171199222	-0.9106278733	 1.1284657742	-0.3243
C	-1.670836382	-1.9872116182	 0.1725784848	-0.11133
C	-2.6626699854	-2.6856280326	-0.7262474863	-0.098821
O	-3.5879293695	-1.7871007233	-1.3631961158	-0.231361
C	-3.1360991606	-0.5458615219	-1.6685783314	 0.106208
N	-2.1516093674	 0.0833053863	-1.1853007554	-0.305248
H	 1.1155340428	 1.8609692403	 0.2974768499	 0.104345
H	-0.4719618951	 2.0641203062	-0.4703939224	 0.139647
H	-0.3643337463	 1.6986091398	 1.2563858502	 0.109865
H	 0.5501056217	-0.1857766865	-1.0018412271	 0.098765
H	 0.5818257955	-0.5718764166	 0.7141667948	 0.08672
H	-1.5852683377	-0.8160132351	 2.0694854141	 0.114263
H	-3.1735432917	-0.6683413504	 1.1793605532	 0.124712
H	-0.8416645766	-2.6189666646	 0.4804295583	 0.090798
H	-2.1246125702	-3.22928849	-1.5144019381	 0.114405
H	-3.2848884447	-3.4038204395	-0.1830533387	 0.119612
H	-3.7761282608	-0.089274551	-2.4211019951	 0.123436
