19
gdb 69051	3.45315	0.97475	0.89143	2.3889	77.2	-0.2322	-0.0263	0.2059	1349.8869	0.156571	-422.997522	-422.988344	-422.9874	-423.032306	33.403	
C	-0.0001661783	 1.5033621944	-0.0246496988	-0.485682
C	-0.0061236873	 0.0137211448	 0.0756782718	 0.413241
C	 1.0749518347	-0.9291837639	-0.3616510552	-0.381281
C	 0.5492018553	-0.9955877445	 1.0676284996	 0.200085
C	 1.4051567486	-0.8595349581	 2.2986237051	-0.394481
C	 2.1062794285	-2.1619708507	 2.6432564006	 0.167497
O	 2.0652045279	-2.6996865674	 3.7188748892	-0.236088
C	-0.8486758414	-1.6069979966	 1.0176728921	-0.127856
O	-1.2758061679	-0.6514800983	 0.0115941095	-0.320729
H	 1.0081850057	 1.8971110981	 0.1326679243	 0.12306
H	-0.331817574	 1.8187710074	-1.0203300463	 0.138166
H	-0.6724676777	 1.9493544273	 0.7145413825	 0.131286
H	 0.8479150949	-1.7170194389	-1.075313894	 0.116404
H	 2.0657146591	-0.4941440411	-0.4581934843	 0.112769
H	 2.1862567638	-0.1075728664	 2.115769368	 0.121595
H	 0.8253251209	-0.5383941373	 3.169978844	 0.123642
H	 2.6761666227	-2.6083346873	 1.7959668242	 0.078899
H	-0.9444355492	-2.6448853006	 0.6767087099	 0.107548
H	-1.4172853464	-1.4700386708	 1.9453496377	 0.111927
