19
gdb 71961	2.81485	1.88384	1.62374	2.4591	72.72	-0.2467	0.0762	0.323	906.62	0.162266	-423.033886	-423.027141	-423.026197	-423.064494	28.841	
O	-0.0622253723	 1.4241776668	 0.0304861726	-0.494306
C	 0.016674964	 0.0252092862	-0.0180234519	 0.399589
C	 0.2816470902	-0.6842600359	-1.370373513	-0.305032
C	-0.6960704927	-1.7931157862	-0.9041616322	-0.070468
C	-0.0381962553	-2.769849798	 0.0980314127	-0.217654
C	-0.0443891308	-1.9051487702	 1.378215267	 0.06254
C	 0.8115209523	-0.6421203901	 1.1343638328	-0.293871
O	-1.3762445604	-1.3686954401	 1.3790260885	-0.253731
C	-1.3301244787	-0.76356528	 0.1038477891	 0.066274
H	 0.8322774255	 1.7812549209	 0.018467528	 0.276117
H	-0.1338114355	-0.1000702956	-2.1963598335	 0.104372
H	 1.3100918099	-0.9744415266	-1.6083822741	 0.086276
H	-1.3247658675	-2.2732657318	-1.6524952305	 0.072234
H	-0.6591723342	-3.6564942118	 0.2505208741	 0.106322
H	 0.9621948598	-3.0908507109	-0.2064514379	 0.095406
H	 0.1412548122	-2.4316982476	 2.3143842968	 0.077025
H	 1.8531817627	-0.8585836407	 0.8792458966	 0.091375
H	 0.7781817053	 0.0042471749	 2.0157207588	 0.110453
H	-2.2580483645	-0.2534330633	-0.143300434	 0.087078
