20
gdb 82593	2.20331	2.11824	1.59078	0.4547	77.71	-0.207	0.0706	0.2777	959.6913	0.171606	-403.077162	-403.069365	-403.068421	-403.109072	31.063	
C	-0.1638030978	 1.5509947084	 0.6837120817	-0.426502
C	-0.0902428552	 0.0435468223	 0.5309283224	 0.066875
C	 0.047593794	-0.6076264907	-0.8533110643	 0.064662
O	 1.1831106779	-0.0726363149	-1.5807752467	-0.309566
C	 2.1063171779	-0.9344880244	-0.8668333098	 0.064667
C	 2.4567821238	-0.3608307663	 0.5141869121	 0.066878
C	 2.9955746513	 1.0493872688	 0.6629558742	-0.426498
N	 1.090663532	-0.7641877314	 1.0599609261	-0.216541
C	 0.9391420942	-1.6673271049	-0.1769706253	-0.039612
H	 0.4772188041	 2.063759021	-0.0342619496	 0.135115
H	-1.1929559378	 1.8851496707	 0.5141566927	 0.115141
H	 0.1226848925	 1.8557096988	 1.6950640996	 0.12586
H	-0.9579588265	-0.4099481199	 1.029655427	 0.085342
H	-0.8193942785	-0.765639099	-1.4999164237	 0.075138
H	 2.8733747929	-1.3519375298	-1.5241719238	 0.075137
H	 3.1477003591	-1.0617923466	 1.0026568329	 0.085341
H	 2.5355763818	 1.7370082145	-0.0476055879	 0.135111
H	 2.8307753955	 1.4256889906	 1.6773514612	 0.125858
H	 4.075311928	 1.0487246044	 0.4792899494	 0.115142
H	 0.7703544106	-2.7352508917	-0.0605547284	 0.082452
