13
gdb 43330	2.61246	1.8645	1.2379	5.0024	65.11	-0.2495	-0.1077	0.1418	946.4943	0.089192	-456.568915	-456.561915	-456.560971	-456.600743	26.114	
O	-0.013083088	 0.0517971153	-0.4445836291	-0.289273
C	-0.0394185366	 1.2030609025	-0.0769059572	 0.293501
C	-1.292274708	 1.9629917728	 0.1207234176	-0.175843
C	-1.310980808	 3.1659096236	 0.7098186621	-0.045144
C	-0.0914816298	 3.7799000465	 1.2960314034	-0.020576
O	 0.5957247239	 2.9788583137	 2.2661873839	-0.231281
C	 1.2393578964	 3.1920855821	 1.0076926963	-0.081605
C	 1.2884994872	 1.9920210484	 0.1090298178	 0.314945
O	 2.2830178895	 1.6717296514	-0.4893834696	-0.274736
H	-2.1977855934	 1.4804532312	-0.2327894366	 0.134841
H	-2.2434628409	 3.7105411631	 0.8260376817	 0.128499
H	-0.1358706137	 4.8378265897	 1.5441663637	 0.121619
H	 2.1375527414	 3.8059011497	 1.026791016	 0.125053
