16
gdb 60701	3.45383	0.64725	0.61792	3.4616	78.02	-0.2576	-0.0454	0.2122	1804.6961	0.120973	-437.898047	-437.8875	-437.886556	-437.936411	35.001	
C	 0.1931168134	 1.4051571783	 0.1686794478	-0.398944
C	-0.0875562112	-0.1064156148	-0.0238297032	-0.228682
C	-1.607674726	-0.3135709971	-0.0971845	 0.171285
O	-2.2601017785	-0.7697127431	 0.8004626919	-0.236079
C	 0.5350079296	-0.6193984213	-1.2364076349	 0.053658
C	 1.0041222443	-1.0329829854	-2.2677140258	 0.032473
C	 1.5292451826	-1.4859454649	-3.5498596448	 0.266032
N	 2.532272256	-2.4048061566	-3.4413001912	-0.520175
O	 1.1119367306	-1.0678144246	-4.6120772425	-0.330931
H	 1.269750409	 1.5856784054	 0.2039660571	 0.142516
H	-0.2221044481	 1.985380852	-0.6601121235	 0.142425
H	-0.2555282616	 1.7503866498	 1.1037968086	 0.139123
H	 0.264092715	-0.6579733752	 0.8547353715	 0.129084
H	-2.0643441377	 0.0255048732	-1.0522852845	 0.102487
H	 2.7959446512	-2.7929275927	-2.5526402424	 0.267562
H	 2.9011552215	-2.8068554131	-4.2876814442	 0.268165
