19
gdb 55357	3.18436	1.23253	1.14624	2.9688	74.72	-0.234	-0.016	0.218	1152.4066	0.159052	-423.032376	-423.023888	-423.022943	-423.066139	31.737	
C	 0.2286319399	 1.1269306581	 0.7108280654	-0.479694
C	 0.0581512488	-0.0408688885	-0.240318406	 0.394621
O	 0.9566252116	-0.4205666824	-0.9577920478	-0.308962
C	-1.2997025575	-0.7436052842	-0.2144573406	-0.136003
C	-1.6594589152	-1.4201152223	-1.5617914666	-0.114775
O	-2.3403883227	-2.6363781676	-1.2598332917	-0.25542
C	-1.9494507265	-3.0531110446	 0.0164089331	 0.119337
C	-0.4850851108	-3.1384281692	 0.3577292775	-0.329549
C	-1.3012286603	-1.9223345312	 0.7667348965	-0.09013
H	 1.2634401004	 1.4707866853	 0.7034828821	 0.143296
H	-0.4325709376	 1.9481553182	 0.4089077807	 0.142116
H	-0.0658089934	 0.842873598	 1.7272145677	 0.140154
H	-2.0747255987	-0.0361576851	 0.0991551637	 0.080887
H	-2.3237988848	-0.8111487873	-2.1806506282	 0.11141
H	-0.7377466352	-1.6136467009	-2.1211896174	 0.128539
H	-2.6657119406	-3.7348384023	 0.4597911414	 0.103226
H	-0.2017507182	-3.8260999252	 1.1472961201	 0.11462
H	 0.2554448657	-3.0219606572	-0.4255050946	 0.14326
H	-1.5009531148	-1.7283751117	 1.8137508547	 0.093068
