17
gdb 25653	5.27379	0.77659	0.68267	0.1097	94.65	-0.1969	-0.0075	0.1894	1656.8505	0.134681	-384.713828	-384.70452	-384.703575	-384.750044	32.461	
C	-0.1731844752	 1.4132326242	 0.0474232042	-0.511038
C	-0.0477189134	-0.034650498	 0.0335171667	 0.235982
C	 0.0543904776	-1.2377387586	 0.0219106001	-0.110189
C	 0.1870801478	-2.6356580452	 0.0090904331	 0.200307
C	 1.273678307	-3.4664828675	 0.0492953567	-0.296737
C	 0.7694097397	-4.7997209072	 0.0071357334	-0.238556
C	-0.5894080342	-4.701387036	-0.0560028828	 0.339129
C	-1.6830842479	-5.7053546044	-0.1216282002	-0.503487
O	-0.9597567758	-3.3931971366	-0.0556917818	-0.207237
H	 0.3411742275	 1.8691254562	-0.8063865029	 0.150864
H	-1.2258152952	 1.7127596391	-0.0018152463	 0.154643
H	 0.2514832995	 1.8444477106	 0.9612686266	 0.150852
H	 2.303422776	-3.1511273603	 0.102475568	 0.110546
H	 1.3394605003	-5.7156694079	 0.0216651315	 0.108094
H	-2.365181749	-5.6115216142	 0.7310667231	 0.140836
H	-2.2815178627	-5.5873961672	-1.032184588	 0.140836
H	-1.262621302	-6.713273377	-0.1154687813	 0.135156
