20
gdb 124577	4.03991	0.95281	0.88909	4.4531	80.74	-0.2539	0.0028	0.2567	1388.1241	0.171632	-399.339655	-399.330614	-399.329669	-399.37438	33.001	
C	 0.0352981834	 1.5143046649	-0.0461364647	-0.392084
C	 0.0598823428	-0.0120808991	 0.1025232133	 0.032515
C	 0.6771866483	-0.4353621912	 1.4401190922	-0.394894
C	-1.3654769223	-0.5637891114	-0.0793941226	-0.158144
N	-1.4255683058	-2.0184655314	-0.1101894445	 0.082393
C	-1.7953559197	-2.88865818	 0.8596059092	-0.103814
C	-1.6174155682	-4.1267462929	 0.2901502421	-0.071376
N	-1.1551846863	-3.9580423693	-0.9780793211	-0.189034
N	-1.0391815194	-2.6814532954	-1.2184246138	-0.153031
H	 1.0448115526	 1.9273497775	 0.0373367763	 0.121638
H	-0.3725739452	 1.8184929412	-1.0156423163	 0.119327
H	-0.576950803	 1.978010448	 0.7368251924	 0.114075
H	 0.6640088926	-0.4337398338	-0.7098383748	 0.109722
H	 0.7102071918	-1.5234261565	 1.5454014164	 0.131588
H	 1.7021329063	-0.0619993142	 1.5265463536	 0.121307
H	 0.1054468538	-0.0288889377	 2.2838384033	 0.108085
H	-2.017438047	-0.2245776418	 0.732331309	 0.117939
H	-1.786917492	-0.2063393182	-1.0226571462	 0.137604
H	-2.1433627224	-2.5633169883	 1.825350212	 0.142168
H	-1.7962059102	-5.1052137604	 0.7053204542	 0.124015
