18
gdb 15177	8.2044	0.64916	0.62895	1.5421	79.09	-0.2299	0.0553	0.2852	1770.4159	0.152657	-347.759925	-347.750664	-347.74972	-347.796036	32.08	
O	-0.0797114474	 1.3886232994	 0.1373718549	-0.415934
C	-0.0646145511	-0.0229154842	 0.2713435993	-0.061716
C	-1.3256696567	-0.5532256062	-0.4197298325	-0.324296
C	-1.4376340331	-2.0044496278	-0.3526366439	 0.022694
C	-1.5085042756	-3.2062201518	-0.28312832	 0.098443
C	-1.598807168	-4.636192885	-0.2128591075	-0.154895
C	-1.5063421506	-5.347029643	 1.1287808358	-0.251982
C	-2.8196952412	-5.2992700098	 0.4062442688	-0.251022
H	 0.7081984094	 1.7404225797	 0.5611455482	 0.288092
H	 0.8241743315	-0.4681139985	-0.2001592973	 0.096778
H	-0.0697475734	-0.3323427291	 1.327266257	 0.095249
H	-2.198716345	-0.0780199307	 0.0447741698	 0.133931
H	-1.3136505478	-0.2171535481	-1.4640512436	 0.134908
H	-1.1561401065	-5.1650680625	-1.0523357977	 0.107026
H	-0.9628271025	-6.2847381356	 1.1577719409	 0.116389
H	-1.3845410976	-4.7245248506	 2.0070686496	 0.123929
H	-3.5912133031	-4.6442869436	 0.7927679513	 0.125557
H	-3.1864369712	-6.2038806724	-0.0656756529	 0.11685
