22
gdb 100094	2.50687	1.1321	0.96124	4.1578	78.78	-0.2331	0.0378	0.2709	1341.9902	0.191189	-441.521952	-441.510877	-441.509933	-441.558472	40.371	
C	-0.5659359683	 1.1182137185	 0.2322945238	-0.250347
O	-0.2363679537	-0.2065402469	-0.132450957	-0.280855
C	 0.7754340934	-0.399425511	-1.1475643055	 0.332908
C	 0.2658356404	 0.1152951459	-2.5022555254	-0.415171
C	 2.0972123308	 0.2821236784	-0.7652042959	-0.424301
C	 0.94671418	-1.9328230537	-1.2300398979	-0.30023
C	 1.6116656151	-2.6110364158	-0.0281152436	 0.354528
N	 0.9600822794	-2.4360916317	 1.1578939528	-0.504965
O	 2.6161595049	-3.2883213094	-0.1421317624	-0.364306
H	 0.2750915321	 1.6507375974	 0.6954817898	 0.114119
H	-0.9285745132	 1.7093463732	-0.6183559806	 0.114949
H	-1.3737166013	 1.0439921681	 0.9649714594	 0.129368
H	 0.1371751077	 1.201406923	-2.5022306196	 0.114985
H	 0.9820409297	-0.127555193	-3.2924717103	 0.124124
H	-0.6936023511	-0.3476292669	-2.7504883018	 0.122651
H	 2.4097937647	-0.0099975821	 0.2408517997	 0.130415
H	 2.8844773421	-0.0164545177	-1.4631007594	 0.132338
H	 2.0178073685	 1.3721689854	-0.8029027277	 0.112906
H	-0.0465162341	-2.3710828773	-1.3800395164	 0.121251
H	 1.5632800757	-2.181955676	-2.0950381908	 0.121693
H	 0.2604773333	-1.7121919892	 1.2246859286	 0.263346
H	 1.410163724	-2.7808775794	 1.9904490203	 0.250595
