21
gdb 116176	3.01594	1.04797	0.82414	1.2429	75.5	-0.239	0.0669	0.3058	1415.9181	0.182418	-461.352467	-461.34308	-461.342136	-461.386782	34.885	
C	 0.0397118022	 1.3627657075	 0.1032749046	-0.240242
O	-0.0752582277	-0.0327957949	-0.0675068195	-0.242978
C	 0.615783787	-0.5517030861	-1.1895417153	 0.104928
C	 2.116283593	-0.7358031984	-0.9000897554	-0.094916
O	 2.7775391301	-1.3554108505	-1.990098707	-0.243823
C	 2.2670327345	-2.6496711919	-2.2539979978	-0.099554
C	 0.7824005671	-2.6000193025	-2.6402102242	 0.09193
O	 0.2452754301	-3.9052179198	-2.7983740795	-0.429045
C	-0.0103109716	-1.9022453275	-1.5374960779	-0.225791
H	 1.0680512622	 1.6824275047	 0.3255983403	 0.10841
H	-0.3050758285	 1.9093485768	-0.7881432459	 0.10668
H	-0.5958424884	 1.6347339849	 0.9496696766	 0.129357
H	 0.5114307847	 0.1348180828	-2.0464747394	 0.068497
H	 2.6168249932	 0.2238179889	-0.7465881831	 0.103736
H	 2.2246564268	-1.3339878848	 0.0199800253	 0.094883
H	 2.8719880178	-3.0596303421	-3.0702288938	 0.094375
H	 2.3802191566	-3.3084165286	-1.3767142193	 0.094984
H	 0.6891080193	-2.0222282601	-3.5740391037	 0.071448
H	 0.6635882356	-4.3119136795	-3.5640583304	 0.283979
H	-0.0014548075	-2.5366736621	-0.642484092	 0.114982
H	-1.0547356764	-1.7739141867	-1.8357339725	 0.108161
