15
gdb 52373	5.45185	0.62405	0.59883	2.4799	68.88	-0.2599	-0.0991	0.1608	1745.8034	0.109472	-453.95014	-453.940405	-453.93946	-453.986821	32.065	
O	 0.0129786762	-0.0309448722	-0.3189293937	-0.228838
C	 0.2360847077	 1.1136295267	-0.0293711945	 0.150847
C	 1.3187915401	 1.9627138038	-0.680622543	-0.238472
N	 0.9685470749	 3.3777669419	-0.6076450785	-0.289784
C	 2.0448133489	 4.2998403648	-0.8668031243	-0.274329
C	 2.4812313264	 4.3901660343	-2.3292727606	 0.283751
O	 1.9195590314	 3.8343087182	-3.2378622727	-0.260315
C	 3.6538804481	 5.2573804823	-2.5723177592	 0.226058
N	 4.5757958212	 5.9412536215	-2.7133120045	-0.284346
H	-0.3313412776	 1.6497963403	 0.7645227137	 0.089348
H	 2.2294739005	 1.8051870023	-0.0835375886	 0.137432
H	 1.5198410381	 1.576532379	-1.6888172768	 0.139922
H	 0.1965069213	 3.573770019	-1.2369351167	 0.24026
H	 1.7614543747	 5.3189999039	-0.5624054539	 0.156131
H	 2.9216848981	 4.0462840742	-0.2569999969	 0.152334
