12
gdb 19352	4.59667	1.82514	1.54337	2.7901	55.41	-0.2637	-0.0512	0.2125	781.6903	0.081404	-418.379152	-418.372851	-418.371907	-418.409735	23.478	
O	-0.1587736777	 0.0314852942	 0.0711639252	-0.261919
C	-0.0136771866	 1.2305607658	 0.056154995	 0.056409
C	 1.3020871906	 1.8765122262	-0.0353640131	 0.309339
O	 1.4597549254	 3.2503739324	 0.3342891819	-0.236112
C	 1.7660804481	 2.912443311	-0.9972550215	-0.084988
C	 3.1831112711	 2.209869988	-1.0434649606	-0.007228
O	 3.6901426169	 2.1664589864	 0.2850939881	-0.204986
C	 2.7222089974	 1.1956580541	-0.097810377	-0.066663
H	-0.8651825852	 1.9423907618	 0.0947215038	 0.095843
H	 1.234633659	 3.4050157743	-1.8029147112	 0.133352
H	 3.871890017	 2.1690968177	-1.8769214474	 0.12729
H	 2.939792874	 0.1422380781	 0.0102702867	 0.139663
