17
gdb 110783	2.61997	1.54481	1.29565	4.1429	67.96	-0.2536	0.0148	0.2684	1033.8701	0.135977	-458.976302	-458.968344	-458.9674	-459.009195	29.562	
C	 0.0695932443	 1.0953903491	 0.347770602	-0.239663
O	-0.2276398355	 0.0590065375	-0.578853533	-0.235922
C	-1.4016377552	-0.6121379648	-0.2872358795	 0.081922
C	-1.4699644732	-2.067475539	-0.6794121492	-0.153941
C	-0.1452617885	-2.7420224358	-0.9584913775	-0.367604
C	 0.6454852446	-2.6138473677	 0.3461331655	 0.43195
O	 1.7707219356	-2.9405398331	 0.5699154038	-0.327084
O	-0.1470490136	-2.0332979605	 1.3075182558	-0.214092
C	-1.4057950773	-1.6789222022	 0.7852613413	 0.03111
H	 1.0031150303	 1.5549244466	 0.0176699827	 0.136539
H	-0.7226155279	 1.857525299	 0.3578156043	 0.109507
H	 0.1968738103	 0.6948564638	 1.3603926077	 0.134339
H	-2.3165119347	-0.0256249321	-0.3902202441	 0.094384
H	-2.3765523369	-2.4527198993	-1.1282991661	 0.106692
H	-0.2656076342	-3.8025422874	-1.197762652	 0.139587
H	 0.433993235	-2.2783505059	-1.7597216069	 0.157585
H	-2.2098486032	-1.800798048	 1.4999630155	 0.114693
