11
gdb 130804	8.62812	0.66787	0.61989	0.7141	77.75	-0.2865	-0.1139	0.1726	1612.8881	0.064601	-451.492232	-451.484605	-451.483661	-451.525922	25.47	
O	-0.1162881253	-0.0081561156	-0.0009857105	-0.213593
C	-0.0283333161	 1.1971055343	 0.0076147213	 0.005768
C	 1.227838892	 1.9086450422	-0.0010219029	 0.173511
C	 2.2693918885	 2.5232190626	-0.0080228141	-0.00952
C	 3.4886330738	 3.211752985	-0.0163548877	 0.291913
C	 4.7888024977	 2.7885210424	-0.0337826697	-0.223648
N	 5.5728035679	 3.9107913795	-0.0345153587	-0.101164
N	 4.8573654585	 4.9492962854	-0.0179195145	-0.001667
O	 3.4976553303	 4.556994436	-0.0048970581	-0.204859
H	-0.9199893806	 1.8532120451	 0.0230242832	 0.11908
H	 5.1959170132	 1.7925755231	-0.0460680085	 0.164178
