19
gdb 38123	2.40728	2.23323	1.57678	2.4094	78.3	-0.2459	-0.0035	0.2424	910.0061	0.162809	-385.862323	-385.855821	-385.854877	-385.892665	28.2	
C	 0.0151010643	 1.5916016131	-0.0081014642	-0.211036
C	 1.5274046601	 2.0386842707	-0.0796935435	-0.30436
C	 2.126016628	 0.7189963378	 0.370297456	 0.40649
C	 1.4196016393	-0.3136949988	-0.5001099768	-0.265005
C	 0.0116200288	 0.002811594	 0.045915335	-0.05284
C	 0.0041064072	-0.6392516573	 1.4358825772	-0.050595
C	 1.0883699506	-0.5683560077	 2.2249877215	-0.147111
C	 2.0732812606	 0.4708450367	 1.8085750335	-0.012833
O	 3.3183969988	 0.3615146306	 1.0507296369	-0.334317
H	-0.4755551928	 2.0145817095	 0.8714513713	 0.109254
H	-0.5384678473	 1.9320259158	-0.8870888016	 0.104364
H	 1.8136179488	 2.3197874143	-1.0983159588	 0.09848
H	 1.7486806322	 2.8733789247	 0.5880327479	 0.10563
H	 1.53078514	-0.0743829933	-1.5641519713	 0.088721
H	 1.7406288863	-1.338000892	-0.3192213137	 0.109564
H	-0.8125743504	-0.3955816948	-0.5490838564	 0.065814
H	-0.8553143301	-1.2417321917	 1.7195725252	 0.095999
H	 1.1575174362	-1.085040251	 3.1769317951	 0.094929
H	 2.1102512294	 1.3390902594	 2.4688100668	 0.098852
