14
gdb 42596	3.34096	2.03446	1.82329	2.778	62.34	-0.2387	-0.035	0.2038	771.7977	0.103629	-436.640422	-436.63494	-436.633996	-436.670203	22.947	
O	 0.0358891624	 0.0113171126	-0.069131154	-0.316836
C	-0.0136263213	 1.2020703232	 0.0072174971	 0.502585
C	-1.1795441785	 2.1936154597	 0.036195365	-0.177722
C	-0.5941414253	 3.3430112264	 0.9318325338	 0.063699
O	 0.7150501011	 2.9040126341	 1.3061024082	-0.25543
C	 1.0904106326	 2.2852029907	 0.0585239453	-0.096621
C	 0.5781099033	 3.2501038296	-1.0237448628	-0.059866
C	-0.40746669	 4.1383333504	-0.3736562232	-0.050085
N	-0.9230124005	 3.0181848555	-1.2169130944	-0.158913
H	-2.1954033376	 1.8298174592	 0.1451350072	 0.106003
H	-1.137321924	 3.7383477703	 1.7852855505	 0.104506
H	 2.1318395685	 1.9808761909	 0.053885588	 0.107476
H	 1.1329237055	 3.5150216105	-1.9121541801	 0.120501
H	-0.5788259662	 5.183580757	-0.5988943607	 0.110704
