18
gdb 121780	2.45504	0.82765	0.66431	18.1581	87.11	-0.139	-0.0395	0.0995	1675.784	0.148296	-398.069532	-398.059279	-398.058335	-398.106841	34.631	
C	-0.0073340047	 1.4956242164	-0.2540822177	-0.351853
N	-0.0607407348	 0.0518539504	 0.1201901979	-0.253037
H	 0.7151087945	-0.4546555662	-0.310849822	 0.316716
H	 0.0602216876	-0.0575038601	 1.1306516218	 0.316876
C	-1.372770331	-0.676455215	-0.2422638444	-0.176932
C	-1.4112296071	-2.0939142439	 0.325855587	-0.331887
C	-2.8213867711	-2.6056242627	 0.1862166805	-0.113736
C	-3.0994714588	-3.6176487372	-0.7343537186	 0.149016
N	-3.2728518202	-4.4647514957	-1.5200973106	-0.418447
C	-3.7871532663	-1.9182991298	 0.9233764779	 0.172834
N	-4.4891607618	-1.2456255852	 1.5754296371	-0.442879
H	 0.9466380469	 1.9251495552	 0.0563926145	 0.176321
H	-0.1232613699	 1.5758369479	-1.3350914615	 0.193238
H	-0.8319289155	 2.0070853986	 0.2426610488	 0.202939
H	-2.1705293727	-0.0723713046	 0.1969830123	 0.185909
H	-1.446331536	-0.6568577427	-1.3308316323	 0.165265
H	-0.7172739075	-2.7433279285	-0.2184266326	 0.11887
H	-1.0723156316	-2.0570045467	 1.379687852	 0.090788
