20
gdb 103239	2.75125	1.46553	1.16585	1.9889	78.52	-0.206	0.0647	0.2707	1125.3954	0.169683	-403.047115	-403.038446	-403.037502	-403.080292	34.259	
C	 0.0807508203	 1.501969819	-0.2815287717	-0.390906
C	 0.0532989616	 0.0767153131	 0.2875577233	-0.257485
C	-1.286875525	-0.6066239291	 0.0807567392	 0.398403
O	-2.3031544732	-0.008599167	 0.8718579672	-0.474653
C	-1.9161179027	-1.1509268268	-1.197713032	-0.134837
C	-1.0499783708	-2.0830880203	-2.0875470529	-0.06983
N	 0.3381177076	-2.1630413965	-1.5633561023	-0.339762
C	-0.7540830505	-2.9568004266	-0.9356255539	-0.07228
C	-1.6201093776	-2.0712967085	 0.0006578707	-0.112944
H	 1.0569031465	 1.9665200904	-0.1137004879	 0.114376
H	-0.1071632048	 1.4967299262	-1.3604743742	 0.119446
H	-0.664869503	 2.1544100829	 0.1890611425	 0.097368
H	 0.8417059892	-0.5156627731	-0.1686729716	 0.141002
H	 0.2269303644	 0.1075657858	 1.3705232492	 0.093624
H	-2.4219336593	 0.8922090494	 0.5523820587	 0.28206
H	-2.8885621234	-0.7922830161	-1.5108269626	 0.08816
H	-1.2688784016	-2.3287048707	-3.1190064773	 0.094457
H	 0.8419545253	-2.8054563679	-2.1755195088	 0.228942
H	-0.687291002	-4.0350548368	-0.8687846443	 0.095793
H	-2.339586761	-2.4918040674	 0.6913237187	 0.099066
