15
gdb 53888	4.50043	0.82242	0.71878	4.1657	65.19	-0.2512	-0.0812	0.17	1488.575	0.110514	-491.116731	-491.107258	-491.106314	-491.152319	32.539	
N	-0.3656060246	 1.0872233935	-0.3667552254	-0.516522
C	-0.0165936094	-0.1483776009	 0.0450876228	 0.335937
O	 1.105950027	-0.5377658826	 0.3083094964	-0.348869
C	-1.2279524732	-1.0975418781	 0.1571984038	 0.274295
O	-2.3443788857	-0.7381395755	-0.1266317827	-0.288528
C	-0.8851313425	-2.5054870411	 0.6203402683	-0.192671
O	-2.0254177497	-3.267357878	 0.934568917	-0.167514
C	-2.7657517978	-3.7194358411	-0.1054882859	 0.145541
N	-3.8244818609	-4.362832103	 0.1190508023	-0.43857
H	 0.3354834426	 1.8007112643	-0.4748396269	 0.275426
H	-1.3361040848	 1.2849741519	-0.5514731085	 0.284241
H	-0.2588160946	-2.9791796129	-0.1507569897	 0.147934
H	-0.268326144	-2.4485383885	 1.5201836953	 0.170955
H	-2.3329980311	-3.4841782187	-1.0867789696	 0.086391
H	-4.2516655913	-4.6490790692	-0.759096887	 0.231955
