20
gdb 110726	2.54692	1.45082	1.18044	1.7212	78.45	-0.2369	0.0179	0.2547	1155.3026	0.170974	-403.156712	-403.147914	-403.14697	-403.190396	33.092	
C	 0.2645880846	 1.4005514158	 0.2585039795	-0.37414
C	-0.2355041742	 0.0183271232	-0.176536509	-0.208654
C	 0.5954804595	-0.5713211212	-1.2960317157	-0.085535
C	 1.9701719794	-1.2067310645	-1.0997995978	-0.08718
N	 2.3065720295	-1.6680346576	 0.2277539057	-0.250868
C	 1.44506991	-2.5618256022	 0.5044477781	 0.077626
O	 0.5143864505	-2.8916110267	-0.4273300522	-0.238728
C	 0.7757344647	-2.0439125947	-1.5543133184	 0.362929
C	 0.5351051859	-2.7265853992	-2.867384444	-0.477133
H	 1.2873122878	 1.3367068102	 0.6423671211	 0.134844
H	 0.2638031455	 2.1068908218	-0.5790267793	 0.109978
H	-0.3691573929	 1.8180978104	 1.0470675194	 0.110282
H	-0.2434360837	-0.6537639535	 0.6861544768	 0.112263
H	-1.2774652538	 0.0845665972	-0.5144484159	 0.098567
H	 0.5498822221	-0.001979413	-2.2228383569	 0.089526
H	 2.7993347394	-0.9117537294	-1.7326506141	 0.097102
H	 1.3721345223	-3.1132830936	 1.4341785947	 0.140411
H	-0.5225708078	-2.9822143798	-2.9920314018	 0.132415
H	 0.8208972477	-2.0655109376	-3.6902393723	 0.125776
H	 1.1219570235	-3.6472897755	-2.9436846279	 0.130519
