14
gdb 7929	3.612	1.86797	1.30228	2.4849	58.87	-0.2631	-0.0085	0.2546	889.0851	0.108464	-415.955247	-415.947884	-415.94694	-415.987085	26.807	
C	-0.069984905	 1.6005807057	 0.0338876476	-0.391085
C	 0.0529582424	 0.0781583976	-0.0266315521	-0.099038
N	 0.9061079388	-0.422273131	-1.0917009197	-0.348898
C	 1.882666572	-1.2802878299	-0.6547174797	 0.461043
O	 2.6781799024	-1.9114339988	-1.3042197116	-0.387326
N	 1.7793492977	-1.2730065318	 0.7520167778	-0.388621
C	 0.7479629688	-0.4927698954	 1.224060905	 0.439344
O	 0.4482145637	-0.28743636	 2.3731369573	-0.358185
H	 0.9188219498	 2.0663497562	 0.0646619361	 0.133496
H	-0.6073356848	 1.9826575246	-0.8387074748	 0.121826
H	-0.6200053886	 1.8816290193	 0.93538407	 0.151134
H	-0.950284255	-0.3690363847	-0.0750107697	 0.12292
H	 0.6699163351	-0.3951086155	-2.0689796255	 0.26483
H	 2.4235078628	-1.7804997363	 1.3376594593	 0.278561
