19
gdb 65741	3.38306	1.05223	0.98114	3.376	76.39	-0.2415	-0.0172	0.2243	1260.5633	0.157678	-423.046267	-423.037304	-423.03636	-423.080795	33.416	
O	 0.091935192	 1.3466372698	-0.0017423618	-0.474438
C	 0.0381725628	-0.0821381836	 0.0318950413	 0.359951
C	 0.8520731849	-0.5482218368	-1.1820026773	-0.315022
C	 2.300967566	-0.1114818559	-1.1144910319	 0.15731
O	 3.2374638532	-0.8699306785	-1.1556498636	-0.250473
C	 0.5698374896	-0.5997643713	 1.4005184318	-0.296933
C	-0.6855961647	-0.7052335451	 2.2333408513	-0.080537
C	-1.7831847232	-0.6777506159	 1.4756908203	-0.077018
C	-1.4451856913	-0.5493100555	 0.0092014799	-0.297958
H	-0.3845818063	 1.6711592588	 0.7710812011	 0.283117
H	 0.8198597757	-1.6362441975	-1.277046982	 0.11579
H	 0.4049643094	-0.0985386931	-2.0788512614	 0.12434
H	 2.4489064201	 0.9843601606	-1.0187488161	 0.09648
H	 1.0589056675	-1.5782866096	 1.3006591485	 0.122341
H	 1.3210119678	 0.0876200489	 1.8047383646	 0.113601
H	-0.6687137201	-0.8235961155	 3.310858567	 0.098973
H	-2.8003355555	-0.7698626307	 1.8395370272	 0.098052
H	-2.0590410467	 0.1770979544	-0.5339703307	 0.111981
H	-1.5593771311	-1.5141645435	-0.503804098	 0.110443
