14
gdb 28361	3.20067	1.4486	1.00346	3.8403	70.49	-0.2309	-0.0622	0.1687	1108.1186	0.100873	-473.886452	-473.87875	-473.877805	-473.918758	28.676	
C	 0.0370890042	 1.5051407871	-0.0067425657	-0.471366
C	-0.0932823356	 0.0228841528	 0.070849338	 0.367223
C	-1.1538234154	-0.7259567586	-0.2862036779	-0.154007
N	-1.1608586531	-2.1015990783	-0.1687404838	-0.332879
C	-0.1071656364	-2.6678361492	 0.3006280543	 0.281938
O	-0.0322343292	-3.9959447156	 0.4456499139	-0.377174
C	 1.1190175206	-1.9490944347	 0.7261509101	 0.374604
O	 2.1186683534	-2.438313758	 1.1672457231	-0.316058
O	 1.0254061828	-0.5842633976	 0.5693907566	-0.24298
H	 0.8776413729	 1.7887434871	-0.6495157852	 0.150244
H	-0.8770730188	 1.9455962705	-0.4090584002	 0.140557
H	 0.2273600166	 1.9313764042	 0.9843297364	 0.150247
H	-2.0493616616	-0.2659039489	-0.6830721729	 0.121983
H	-0.8789348103	-4.3532996209	 0.1393802234	 0.307669
