19
gdb 97816	4.94826	0.69704	0.66377	1.6389	85.88	-0.2361	0.0488	0.2849	1756.4607	0.158055	-385.825251	-385.816089	-385.815145	-385.861169	33.001	
C	-0.1645470892	 1.5688672998	 0.0400564305	-0.363583
C	 0.0164766463	 0.0398700747	 0.0382356509	-0.31362
C	 0.7198306605	-0.453674068	-1.1411142536	 0.077243
C	 1.3027439746	-0.84280465	-2.121561345	 0.079599
C	 2.0062241603	-1.3258245021	-3.2924975632	-0.207737
C	 3.5909315945	-1.3872983515	-3.279353145	-0.263895
C	 3.4857125176	-2.8853367612	-3.5844987561	 0.032864
O	 2.7459036582	-3.4795414614	-2.511130234	-0.234107
C	 2.0160437675	-2.8520417879	-3.5610569112	 0.026674
H	 0.8044755125	 2.0747763223	 0.0139465644	 0.126675
H	-0.7371136397	 1.8935108695	-0.8331163615	 0.12596
H	-0.6969120455	 1.8897239617	 0.9405498176	 0.112859
H	 0.5611934494	-0.2655558496	 0.9409431878	 0.129482
H	-0.966548932	-0.4444436514	 0.1041183609	 0.127643
H	 1.6737955152	-0.7947392219	-4.1911014038	 0.102452
H	 4.0314038465	-0.7948827936	-4.0839158853	 0.108713
H	 4.0687072558	-1.1453041313	-2.3288226162	 0.120831
H	 4.1694688468	-3.5248967915	-4.1296959519	 0.106728
H	 1.2689612909	-3.4437640667	-4.0774888454	 0.105218
