14
gdb 129705	2.38415	1.91836	1.06418	3.1806	72.47	-0.2073	-0.0498	0.1575	1034.9483	0.101849	-469.996226	-469.988558	-469.987614	-470.028132	29.566	
N	 0.0105117567	 1.403947635	 0.1070744385	-0.597691
C	-0.0050859468	 0.0205709105	-0.0090873364	 0.159614
C	-1.1305184565	-0.7318768167	 0.0868438089	 0.274349
O	-2.3576565205	-0.2043612164	 0.2388794018	-0.438319
C	-1.0516875823	-2.1734670255	 0.0233627097	 0.351668
N	-2.1319906095	-2.8491876177	 0.1119206692	-0.591769
O	 0.1779719218	-2.749123226	-0.1408963326	-0.279637
N	 1.3529275877	-1.9968491827	-0.2422573576	-0.099317
C	 1.2194954157	-0.7166242056	-0.1709020471	 0.014653
H	 0.7199163463	 1.8742334898	-0.4367990766	 0.256071
H	-0.8989855501	 1.8300566495	-0.0059886566	 0.270188
H	-2.9538637604	-0.9794463925	 0.2672825686	 0.312152
H	-1.9784760766	-3.8525246715	 0.0466092826	 0.234161
H	 2.1630064246	-0.1804781802	-0.2447448025	 0.133877
