20
gdb 120061	4.37339	0.91393	0.87727	1.6626	77.62	-0.2411	0.0726	0.3137	1374.0799	0.172261	-403.079758	-403.071543	-403.070599	-403.113248	31.294	
O	-0.0082949064	 1.4598841124	 0.091020935	-0.42002
C	 0.0239645111	 0.0489808664	-0.0576947501	-0.068092
C	-1.4039619318	-0.4689035507	 0.0700434375	-0.222515
C	-1.4934319813	-1.9861049512	-0.0425447554	 0.027453
C	-2.8299505257	-2.7085751399	-0.0620238803	-0.077516
C	-3.3027761593	-2.8362990803	-1.4757990357	-0.035842
C	-2.2811339781	-2.2027738036	-2.400723171	-0.24081
C	-1.2621702218	-2.7407006792	-1.378172537	-0.030187
N	-2.3031994809	-3.8203627418	-0.9272832809	-0.166616
H	 0.8895709793	 1.7930529208	 0.0046327886	 0.285524
H	 0.4405656347	-0.238040425	-1.0374614201	 0.086621
H	 0.6579862767	-0.4200878909	 0.7129256696	 0.085274
H	-1.8001659485	-0.151906529	 1.0426731845	 0.107971
H	-2.0247478617	 0.0189733192	-0.6885999572	 0.108973
H	-0.865204878	-2.4596687201	 0.7220473033	 0.083311
H	-3.4838991486	-2.9182450622	 0.7778197241	 0.090729
H	-4.3158693478	-3.1438619202	-1.7102064804	 0.094284
H	-2.2165146497	-2.7606141749	-3.3385120583	 0.112551
H	-2.3181275824	-1.1297824688	-2.6131339722	 0.099734
H	-0.2664853198	-3.0563904011	-1.6842918242	 0.079172
