19
gdb 72210	3.33074	1.70363	1.37421	1.6051	81.05	-0.2173	-0.0022	0.2151	967.7975	0.160541	-385.840122	-385.833009	-385.832065	-385.870966	30.1	
O	 0.1054775802	 1.3535507831	 0.1253299775	-0.478029
C	 0.0128079203	-0.0385888185	 0.030317021	 0.408086
C	 0.2524661158	-0.6715440751	-1.3988454004	-0.309993
C	-1.196725489	-1.3096995314	-1.4147246211	-0.016133
C	-1.2649873485	-2.8469380693	-1.2207521564	-0.253145
C	-0.6021428528	-2.9895327434	 0.1484229145	-0.153178
C	-0.6555401051	-1.8255008982	 0.8025247069	 0.166708
C	 0.4308689183	-0.8939857047	 1.2991723995	-0.358903
C	-1.3697757974	-0.7368328417	 0.0062054502	-0.114927
H	 1.0356818478	 1.5986762761	 0.0643114913	 0.277472
H	 0.3453077194	 0.1329578563	-2.1318391408	 0.105804
H	 1.0939814578	-1.3594103155	-1.5139539128	 0.094118
H	-1.8360775538	-0.927224484	-2.2145079448	 0.06072
H	-2.2995760719	-3.2146820061	-1.2788195237	 0.102726
H	-0.6956325951	-3.3954070443	-1.9815196526	 0.100596
H	 0.053920448	-3.8181243116	 0.3936180349	 0.088863
H	 1.4421655731	-1.3009630654	 1.3879476297	 0.096605
H	 0.1818623773	-0.3021695766	 2.1868842253	 0.111239
H	-2.2820585041	-0.2845967199	 0.3970170616	 0.071372
