18
gdb 50639	3.09252	1.16636	0.92285	0.644	74.23	-0.2374	-0.0371	0.2003	1241.2056	0.148178	-439.115428	-439.107063	-439.106119	-439.148856	31.123	
O	 0.0399720171	-0.0651743762	 0.1476772037	-0.247859
C	 0.0544256029	 1.1192018145	-0.070227855	 0.155347
C	 1.3245819149	 1.9436054007	-0.1385880168	-0.071205
C	 1.3543518164	 2.8422747995	 1.1512497235	-0.318
C	 2.7062914582	 3.5331230985	 1.2756674895	 0.379516
O	 2.8141841888	 4.7290252177	 1.4125112943	-0.301643
C	 3.8864648382	 2.5882268068	 1.1607699844	-0.296058
C	 3.754656008	 1.7540291897	-0.1431881112	-0.177106
N	 2.4739206945	 1.0878722414	-0.298102634	-0.275352
H	-0.8851905149	 1.7024738453	-0.1825842284	 0.092047
H	 1.2463251173	 2.6210274614	-1.0026036667	 0.107071
H	 0.5636425643	 3.5966226663	 1.1428277831	 0.123615
H	 1.2142181553	 2.1924567802	 2.0253951858	 0.125322
H	 4.8144399912	 3.1651080123	 1.1795543881	 0.120924
H	 3.8794510409	 1.905219118	 2.0202666035	 0.114735
H	 3.9043571267	 2.4248361678	-0.9998646822	 0.118652
H	 4.5484659026	 1.0033852558	-0.1898347017	 0.117403
H	 2.3754757678	 0.2602367402	 0.2790203702	 0.232592
