21
gdb 120564	3.7314	0.72963	0.69018	1.5371	86.82	-0.2377	0.0559	0.2936	1694.0192	0.179507	-387.042263	-387.031648	-387.030703	-387.078137	38.768	
C	 0.0298872786	 1.5307955513	-0.1518074755	-0.459476
C	-0.0008555791	 0.0173579698	 0.0148306732	 0.118363
C	 1.3093552743	-0.7613120927	-0.0362770714	-0.317302
C	 0.5671372441	-0.6511413761	 1.2682598625	-0.030041
C	 1.1171152512	 0.1325215604	 2.4400066208	-0.212488
C	 2.043263774	-0.7164456662	 3.3067146981	-0.065681
O	 2.5058753672	 0.0998433986	 4.3715836795	-0.421396
C	-1.157603786	-0.6136227547	-0.567715798	 0.278698
C	-2.1329680637	-1.1221831522	-1.0559593696	-0.463536
H	 0.9450225136	 1.9618632224	 0.2599988622	 0.118006
H	-0.0181237709	 1.7938686333	-1.2128383423	 0.128034
H	-0.8242072989	 1.9980840513	 0.3482842326	 0.128234
H	 1.3187884145	-1.7097888815	-0.5600037427	 0.121142
H	 2.2119557357	-0.1691374302	-0.1544948877	 0.113023
H	 0.0211638701	-1.5453598603	 1.5580066904	 0.095499
H	 1.6800934067	 1.0083777472	 2.1027051552	 0.107309
H	 0.3002360709	 0.5057465581	 3.0694834042	 0.111869
H	 1.4957641163	-1.5952967938	 3.685019566	 0.085387
H	 2.8791486705	-1.0925271419	 2.6953077734	 0.089133
H	 3.0854925973	-0.4293100468	 4.9270018205	 0.285849
H	-2.9915197065	-1.5751266563	-1.4856137212	 0.189374
