16
gdb 17002	3.56641	2.34603	2.20995	1.1528	62.72	-0.2262	0.0714	0.2977	715.5661	0.131599	-383.677625	-383.671424	-383.67048	-383.707592	25.012	
C	 0.0091690336	 1.4792378937	-0.0011853362	-0.36819
C	 1.3261696195	 0.7456877342	-0.0381113712	 0.301376
C	 1.7553589694	 0.1182753614	 1.301476461	-0.289475
C	 0.4065836768	-0.6936027254	 1.3099726005	-0.289476
C	 0.0406519134	-0.028119395	-0.030018234	 0.301377
O	-0.0595437216	-0.6629849935	-1.2736877164	-0.287492
C	 1.2667928536	-0.6289673267	-1.8106324772	 0.001286
O	 1.9225752148	 0.5301373697	-1.2861689942	-0.287492
H	-0.3019448131	 2.0054861044	 0.8979199052	 0.114323
H	-0.2752886232	 1.9420135085	-0.9377148867	 0.133235
H	 2.6295759861	-0.5263125827	 1.1926081435	 0.117819
H	 1.9320200834	 0.816627973	 2.1245116208	 0.106387
H	 0.5660077937	-1.7684494626	 1.2056216271	 0.117819
H	-0.285600251	-0.5182233092	 2.1384748903	 0.106387
H	 1.816811432	-1.5396930913	-1.5222262562	 0.096233
H	 1.2092529327	-0.5447624687	-2.8989288761	 0.125883
