14
gdb 24847	2.54339	1.80025	1.12945	2.4499	75.68	-0.2516	-0.1021	0.1495	1016.6001	0.103884	-429.05768	-429.050375	-429.04943	-429.089976	27.239	
N	 0.021730345	 1.046312416	-0.8657839699	-0.504023
C	 0.00364216	 0.0273234441	-0.0917236471	 0.341775
N	-1.2094543932	-0.5045609446	 0.2939878856	-0.328665
C	-1.4656042562	-1.5462461601	 1.1958385181	 0.375076
N	-2.4686037876	-1.4368017219	 1.9704181272	-0.502383
N	-0.7163519783	-2.7260117449	 1.0645483769	-0.24414
C	 0.5402362085	-2.7635095533	 0.8694785563	 0.076554
N	 1.495502041	-1.7406348906	 0.8871334444	-0.21991
C	 1.250091594	-0.5580451486	 0.4839796049	-0.016417
H	 0.9763539888	 1.3626572944	-1.0280031491	 0.229873
H	-2.0000408436	 0.1059762132	 0.1293023686	 0.274596
H	-2.6176643518	-2.3237322816	 2.4507886833	 0.233673
H	 0.9960526392	-3.7453928258	 0.7418294234	 0.1412
H	 2.0718445441	 0.1608768536	 0.5363750373	 0.142792
