21
gdb 93827	2.46644	1.36153	1.05509	1.8539	74.26	-0.2533	0.0702	0.3235	1212.002	0.183337	-461.375923	-461.367066	-461.366122	-461.408957	34.955	
C	 0.0775309261	 1.5223938338	 0.0712564344	-0.399528
C	 0.0588406409	 0.0034204585	 0.0035388833	 0.124687
C	 0.6668476334	-0.5549483951	-1.2896476705	-0.229522
C	 0.7838582229	-2.0891116806	-1.2535891767	 0.111984
O	 1.5165198787	-2.5847922501	-2.3563041862	-0.443761
C	 1.4322206234	-2.5399972876	 0.067033802	 0.097861
O	 2.8171604334	-2.1888560856	 0.0568146592	-0.454954
C	 0.7239439162	-1.8922762001	 1.2535181648	-0.125002
O	 0.7875395465	-0.4788861765	 1.1392865094	-0.270912
H	 1.1047277548	 1.895113734	 0.0075208042	 0.121595
H	-0.496333	 1.9490133353	-0.7565655194	 0.119478
H	-0.355712594	 1.8694870213	 1.0129523651	 0.125155
H	-0.983034097	-0.3521784064	 0.0922468314	 0.068671
H	 0.0725984067	-0.2513172773	-2.1573423442	 0.106414
H	 1.6687370731	-0.1271631774	-1.4244393785	 0.093219
H	-0.2184301329	-2.53226888	-1.3200197414	 0.080375
H	 2.4454787423	-2.4752051426	-2.1102302678	 0.283986
H	 1.3929566863	-3.6319835003	 0.1400690554	 0.088655
H	 2.8623879261	-1.2705551254	 0.3533655671	 0.289929
H	-0.3225666586	-2.233597643	 1.3098054776	 0.09465
H	 1.2262482118	-2.1535918748	 2.1893608107	 0.117022
