14
gdb 123968	3.85163	1.62211	1.15144	3.5888	68.57	-0.2136	-0.0169	0.1967	969.0418	0.104493	-432.864631	-432.858081	-432.857137	-432.895732	25.155	
C	 0.0035011415	 1.4895336492	-0.0822257713	-0.27623
N	 1.3328646557	 2.0608380176	 0.1809998882	-0.252972
C	 2.3596553552	 1.3189429898	 0.2994204756	 0.082229
N	 2.4302023907	-0.0647005491	 0.1883020527	-0.440622
C	 1.1982376243	-0.7159763412	 0.1235785429	 0.178953
C	 0.0530889064	-0.0002866892	-0.0116033255	 0.360765
O	-0.9990488178	-0.8299626347	-0.0674926032	-0.218103
N	-0.5435860584	-2.1449480867	 0.0364258348	-0.139393
C	 0.7647031706	-2.064253165	 0.1448240006	-0.075448
H	-0.7095293061	 1.9030218107	 0.6438043601	 0.135173
H	-0.3437193046	 1.8363750274	-1.0669957269	 0.133135
H	 3.324176221	 1.7878856542	 0.4915823653	 0.121572
H	 3.2345859576	-0.536702749	 0.5676164675	 0.258067
H	 1.341341444	-2.9734163539	 0.2377468291	 0.132875
