19
gdb 86270	1.78119	1.64961	1.14655	5.0192	76.03	-0.2549	0.0176	0.2725	1164.0517	0.158394	-419.202768	-419.193058	-419.192113	-419.236822	36.216	
C	-0.8324861119	 1.2187281928	-0.0322785989	-0.409098
C	 0.0712004374	 0.000115415	-0.1235587811	 0.013911
C	 1.4298680097	 0.0880584388	-0.8728515204	-0.311355
C	 2.0391207635	-0.8653216845	 0.1845842434	 0.131155
O	 3.3449135205	-0.683270802	 0.6411072282	-0.419776
C	 0.8444456536	-0.4866461475	 1.1579941896	 0.060542
N	 1.122038335	 0.5895431685	 2.101392748	-0.547043
C	 0.246231148	-1.6093731374	 1.8772688168	 0.269741
N	-0.2115323114	-2.5304455165	 2.4055439342	-0.342336
H	-0.3068325118	 2.0978068607	 0.3526165173	 0.11254
H	-1.2181373761	 1.4736862104	-1.0248861604	 0.124571
H	-1.6862234513	 1.0294889887	 0.6249192729	 0.140019
H	-0.4998569969	-0.8492505297	-0.5086595411	 0.104442
H	 1.4632817646	-0.2279310358	-1.9168511566	 0.116212
H	 1.8652471666	 1.0922939903	-0.8041773297	 0.09257
H	 1.9629653381	-1.9104462385	-0.1234838382	 0.115652
H	 3.4466814617	 0.2387352248	 0.90258885	 0.27149
H	 1.8473115913	 0.3065669975	 2.7540734834	 0.246541
H	 1.4358800994	 1.4277882246	 1.6240919226	 0.230224
