17
gdb 28038	3.88313	0.95213	0.86374	1.3568	82.12	-0.1765	0.0318	0.2083	1359.6941	0.136007	-380.854668	-380.845731	-380.844786	-380.88918	33.322	
N	-0.0204432234	 1.4267071448	 0.0798066828	-0.603955
C	 0.0074586696	 0.0192893169	 0.0248603185	 0.238691
C	-1.0729815463	-0.8361378037	-0.0090374752	-0.177244
N	-0.5929032916	-2.1332908831	 0.056695927	 0.038745
C	-1.4069221014	-3.3278153751	-0.0557761231	-0.335832
C	-1.8019348448	-3.658043768	-1.4273039516	 0.331224
C	-2.1313981395	-3.9327353408	-2.5491698695	-0.455291
C	 0.7732717488	-2.1030396615	 0.1079043987	-0.077644
C	 1.1803829437	-0.7888399396	 0.0991207751	-0.238919
H	 0.7689760949	 1.8394022153	-0.4012682901	 0.238742
H	-0.8712862991	 1.81094627	-0.311504919	 0.236347
H	-2.1313700945	-0.6404942766	-0.0711514848	 0.105498
H	-0.8437523713	-4.1611006083	 0.3781652758	 0.147001
H	-2.303063423	-3.2023806875	 0.5641088862	 0.146408
H	-2.4172479252	-4.1719315836	-3.5436304827	 0.203726
H	 1.3429020411	-3.0182356487	 0.1455905804	 0.115576
H	 2.1989412121	-0.4369943905	 0.1650809316	 0.086927
