23
gdb 56881	3.12898	0.91024	0.75512	0.713	92.36	-0.2548	0.0573	0.3121	1587.5714	0.203853	-351.123397	-351.113158	-351.112214	-351.158638	38.644	
C	-0.1296807795	 1.5205230246	-0.0106499915	-0.393123
C	 0.0492968858	-0.0077161235	-0.1070399522	-0.182235
C	 0.8155048998	-0.3748857014	-1.297905652	 0.33466
C	 1.4674701328	-0.6693463866	-2.2646842824	-0.476987
C	 0.704132015	-0.5819892364	 1.1585352009	 0.067493
C	-0.0838612112	-0.5211401176	 2.4969988016	-0.261172
C	 0.4648907953	-1.9357117431	 2.8396980735	 0.052353
C	-0.4495991125	-2.9367069192	 3.5279039722	-0.406413
C	 0.7930435138	-2.12135736	 1.3308720072	-0.251782
H	 0.8413858068	 2.016562876	 0.0810682971	 0.124241
H	-0.6275234087	 1.9136546038	-0.9007920167	 0.123586
H	-0.7326628303	 1.7774652065	 0.865520157	 0.118547
H	-0.9489882135	-0.4616535942	-0.1953315285	 0.095853
H	 2.0329601951	-0.9346324395	-3.1231941932	 0.191633
H	 1.6951820391	-0.130466158	 1.2793906693	 0.07544
H	 0.1320015739	 0.2976648267	 3.187969706	 0.094677
H	-1.1661964562	-0.5517977867	 2.320985738	 0.092202
H	 1.3978045384	-1.8359024375	 3.4065827859	 0.070748
H	-1.3897756671	-3.0532792511	 2.9764566808	 0.108997
H	 0.020324797	-3.9244709806	 3.5957521394	 0.113923
H	-0.6982843299	-2.6165926906	 4.5462039417	 0.112477
H	-0.0275841579	-2.6250751663	 0.8067267337	 0.095134
H	 1.7295489439	-2.6140134555	 1.0607371721	 0.099747
