18
gdb 88416	1.91675	1.37125	0.92189	2.0983	75.15	-0.2404	-0.0586	0.1818	1284.9954	0.143975	-439.05605	-439.046213	-439.045269	-439.092399	33.75	
C	-0.5285958715	 1.3399321703	 0.048319252	-0.325128
N	 0.0009784132	-0.0175885149	 0.0852801176	-0.07945
C	 1.3953481192	-0.224956002	-0.2834233695	-0.256564
C	 0.9387750414	-0.423283294	 1.1239433447	-0.015447
C	 1.4178112943	 0.5210994098	 2.2339457201	-0.197264
C	 0.4189736863	 0.4823171058	 3.3835232653	 0.158438
O	-0.1997120914	 1.4353971128	 3.7747882193	-0.238083
C	 2.790388053	 0.0369592031	 2.6870112522	 0.158643
O	 3.8019153092	 0.6731149782	 2.5599630219	-0.236985
H	 0.2215844545	 2.1272425493	 0.2160253036	 0.111843
H	-0.9723618185	 1.5054797556	-0.9377545283	 0.132063
H	-1.3145944734	 1.446499894	 0.8011876313	 0.141904
H	 1.6057065538	-1.0762232357	-0.9253746826	 0.125115
H	 2.0087273326	 0.6552594241	-0.4756408145	 0.122647
H	 0.7743211694	-1.4425799253	 1.4744560546	 0.102848
H	 1.5193500965	 1.549420175	 1.8864664615	 0.121146
H	 0.2825654055	-0.5244089664	 3.8416735448	 0.086836
H	 2.8007871758	-0.9835428899	 3.132371776	 0.087437
