23
gdb 99701	2.06838	1.00542	0.77332	1.4315	91.59	-0.2472	0.0452	0.2924	1628.1715	0.20178	-388.266429	-388.254507	-388.253563	-388.304777	41.17	
C	-1.2536176694	 0.5174343642	 0.2836069597	-0.232858
O	 0.091435953	 0.1975096723	 0.0063539758	-0.232594
C	 0.7614595612	-0.4704725742	 1.0676835042	-0.080551
C	 0.2065848367	-1.8078858209	 1.3217638328	 0.086945
C	-0.2480678115	-2.9031154176	 1.5358193688	 0.078166
C	-0.7944035207	-4.2277407607	 1.7947483419	-0.501458
C	 2.26677483	-0.5128614958	 0.7158762344	 0.026538
C	 2.5248109439	-1.2744240229	-0.589798208	-0.385537
C	 2.8431252953	 0.9079696305	 0.6673315378	-0.399839
H	-1.3394983891	 1.1738228757	 1.1642526016	 0.100295
H	-1.6431024024	 1.0455408695	-0.590086303	 0.124114
H	-1.8591937976	-0.3817817102	 0.4610571626	 0.1157
H	 0.6459310542	 0.1262707493	 1.9904978365	 0.079696
H	-0.0236456089	-4.9044118191	 2.1799351163	 0.150279
H	-1.6028767848	-4.1912188518	 2.5332121138	 0.147787
H	-1.1988332475	-4.6750593844	 0.8801439196	 0.15105
H	 2.7472416993	-1.0575557433	 1.5386125579	 0.078626
H	 2.1333196145	-2.2940781067	-0.5352694872	 0.119142
H	 2.0417000309	-0.7704350229	-1.4313277253	 0.129361
H	 3.5986598339	-1.3307695771	-0.794061913	 0.103587
H	 2.7013937677	 1.4297262427	 1.6203639968	 0.10391
H	 3.9167397981	 0.8817779994	 0.4564379003	 0.106637
H	 2.3543192933	 1.495251784	-0.1147050341	 0.131001
