20
gdb 126597	5.35445	0.68505	0.66812	4.6551	81.6	-0.2539	0.0042	0.2581	1751.1743	0.172152	-399.338438	-399.329348	-399.328404	-399.373875	32.362	
C	-0.2461373329	 1.536407277	 0.0721412034	-0.381902
C	 0.0814838896	 0.0441636316	-0.0267900359	-0.165849
C	 0.6354570465	-0.5295500998	 1.281442838	-0.170402
C	 0.9633641831	-2.0220061193	 1.1675005001	-0.167994
N	 1.5176986273	-2.5739927093	 2.3948384502	 0.082281
C	 0.8782807995	-3.0327106244	 3.496983711	-0.103061
C	 1.8920460632	-3.3630808116	 4.3638015699	-0.067088
N	 3.0822976249	-3.0931456653	 3.7624564681	-0.190525
N	 2.8541098972	-2.6133211895	 2.572184103	-0.152003
H	 0.6452645111	 2.1201522997	 0.3254224618	 0.121849
H	-0.6386856921	 1.9198761217	-0.8743320134	 0.117044
H	-0.9971734995	 1.7263155514	 0.8466786668	 0.116992
H	-0.8205053278	-0.5115274315	-0.3162718015	 0.097497
H	 0.8103866133	-0.1194341521	-0.8311949524	 0.104822
H	 1.5471394853	 0.0050391322	 1.5726106899	 0.125624
H	-0.0893537776	-0.3786070759	 2.0915838699	 0.102623
H	 0.0699964177	-2.5993154104	 0.9082563656	 0.121858
H	 1.7124553126	-2.1926245374	 0.390508816	 0.144702
H	-0.1953698226	-3.0876854735	 3.5627560138	 0.139928
H	 1.8375333515	-3.7765356439	 5.3577449257	 0.123605
