18
gdb 34999	2.32429	1.63398	1.55956	1.1136	82.15	-0.2225	0.0308	0.2533	992.8185	0.148288	-364.757643	-364.749706	-364.748762	-364.790102	31.001	
C	 0.171905644	-1.2645516908	 0.1575553215	-0.48069
C	 0.1127793286	-0.0628839869	 0.1285564078	 0.367212
C	 0.0157792334	 1.3663868569	 0.0513899697	-0.209681
C	 0.4423006199	 2.233410633	 1.2053243888	-0.026905
C	 0.9754629665	 1.6250244344	 2.4919307404	-0.288976
C	 2.3600674874	 1.0559988418	 2.36681572	-0.060362
C	 3.0472202391	 1.0453793496	 1.2302843225	-0.031804
C	 2.5360919211	 1.6055084122	-0.0657129572	-0.207215
N	 1.2107621924	 2.2305388934	-0.03778364	-0.118491
H	 0.2276100123	-2.3244386545	 0.1917861583	 0.199451
H	-0.8050021284	 1.7196958227	-0.5702707559	 0.110768
H	-0.1318858376	 3.1478550931	 1.3440473848	 0.095813
H	 0.9718608365	 2.3976264991	 3.2716814604	 0.112105
H	 0.2862080052	 0.8456408739	 2.8460429365	 0.124689
H	 2.7933511166	 0.6400671487	 3.2723746741	 0.088024
H	 4.0508403085	 0.6284880061	 1.1976914534	 0.085857
H	 3.23792344	 2.371926903	-0.4233197685	 0.116782
H	 2.5320931044	 0.8208518845	-0.8339936466	 0.123422
