16
gdb 12864	2.95545	2.39665	1.73676	1.0093	59.45	-0.2527	0.0587	0.3114	785.0191	0.131343	-420.848851	-420.841982	-420.841038	-420.879828	26.324	
O	 0.1442641599	 1.3838795134	-0.1466363834	-0.475113
C	 0.063631044	-0.0061633652	-0.0211840068	 0.34268
C	 0.2493519001	-0.7852522747	-1.3291345908	-0.118143
O	-0.8817744312	-1.6282022094	-1.0105276422	-0.294505
C	-1.3079022644	-0.7327971486	 0.0467838669	 0.040896
C	-1.380644855	-1.3651926711	 1.4402361547	-0.103631
O	-0.2720356975	-0.8240723678	 2.1638439756	-0.25504
C	 0.7651424499	-0.5969010932	 1.2186983563	-0.162921
H	-0.0118748542	 1.7759702486	 0.7199466707	 0.287677
H	 0.0624829773	-0.1642517502	-2.2133128511	 0.112055
H	 1.1729908799	-1.3585049504	-1.4624513135	 0.107144
H	-2.1885376779	-0.1510578735	-0.2443143647	 0.085763
H	-2.2879085974	-1.1125507278	 1.9949694491	 0.111291
H	-1.3035284504	-2.4584871106	 1.3479896877	 0.108209
H	 1.2781483448	-1.5381443334	 0.9663271896	 0.100844
H	 1.4897669622	 0.0934497339	 1.6587934719	 0.112795
