20
gdb 122248	2.15682	1.30681	1.03476	1.5257	81.91	-0.245	0.0329	0.2779	1264.4208	0.168657	-403.071208	-403.061199	-403.060255	-403.107482	36.411	
C	 0.2587843382	 0.8973879091	-1.1710305479	-0.394268
C	 0.0136940244	-0.1286447674	-0.0680714632	-0.054422
O	-0.0997274562	-1.4762372617	-0.5178508402	-0.237014
C	 1.1065611839	-2.1363832222	-0.8407366636	-0.175532
C	 1.4925437126	-2.0244986322	-2.3348074494	 0.09624
C	 1.0623318127	-3.1354791946	-3.2452219302	-0.267077
N	 0.3758430516	-1.847232084	-3.2923095631	-0.328368
C	 2.7026936427	-1.2972242758	-2.6247022417	 0.313612
C	 3.7343602363	-0.7098277376	-2.8196931229	-0.445341
H	 1.2371123628	 0.7694558559	-1.6413197788	 0.144325
H	-0.5072024035	 0.8231021653	-1.9481783578	 0.12934
H	 0.2181142799	 1.9054442939	-0.7438248259	 0.111421
H	 0.805513222	-0.0662230759	 0.6943416019	 0.094604
H	-0.9388471408	 0.0783110092	 0.4309538955	 0.109148
H	 1.934505385	-1.7661629954	-0.2238471836	 0.109709
H	 0.9426006571	-3.190037438	-0.5911570053	 0.11148
H	 1.6618501744	-3.3682147987	-4.12020154	 0.127428
H	 0.5687608656	-3.9880564935	-2.7838255555	 0.115361
H	-0.4829376477	-1.8779472635	-2.7438582061	 0.243936
H	 4.638757679	-0.1875908328	-3.0117510724	 0.195415
