15
gdb 129659	3.37822	1.22735	0.90568	6.577	73.01	-0.2102	-0.0392	0.171	1204.1082	0.11406	-450.140804	-450.132212	-450.131267	-450.173883	31.453	
N	-0.0709489305	 1.4233007637	 0.0094610018	-0.614669
C	-0.0883519361	 0.0191680144	-0.0148950394	 0.258065
C	-1.1840498774	-0.8253218738	-0.0062345771	 0.123601
N	-2.517513922	-0.4237272542	-0.0463887543	-0.616992
C	-0.6329087286	-2.140487514	-0.0288613151	 0.199351
C	-1.3689997507	-3.4044469375	-0.0418480104	 0.093523
O	-0.8845177313	-4.5126433087	-0.0371801339	-0.273754
N	 0.7139568647	-2.1006046139	-0.0420260909	-0.267115
N	 1.0097596337	-0.8103576196	-0.0483074233	-0.230027
H	 0.5090825918	 1.8115568419	 0.7443775441	 0.247867
H	 0.1888955352	 1.8467180746	-0.8750059591	 0.252162
H	-2.6128787483	 0.5575855935	 0.1872225901	 0.251775
H	-3.1386661345	-0.9853210032	 0.51929153	 0.251399
H	-2.4758048891	-3.2687346108	-0.0643469103	 0.053516
H	 1.9778777631	-0.5294016822	-0.0620080123	 0.271297
