14
gdb 30453	3.99763	1.22499	0.94312	2.5536	70.78	-0.244	-0.058	0.186	1174.4361	0.101819	-470.046089	-470.0383	-470.037356	-470.078996	27.833	
C	-0.04929049	 1.368569395	-0.1205043607	-0.329995
N	 0.0886632399	-0.0714474804	-0.018592082	-0.294342
C	 0.6275842419	-0.5651602141	 0.9992147626	 0.450512
O	 0.697450647	-2.0045259097	 0.9649142424	-0.203199
C	 1.2463484769	-2.6158722499	 1.9882937887	 0.527015
O	 1.2435988683	-3.9265054712	 1.8243409992	-0.361577
N	 1.7459295632	-2.0681176832	 3.0532318278	-0.414385
C	 1.6571402568	-0.6963357771	 3.0416095716	 0.075447
N	 1.1495341301	 0.0492259799	 2.1169720521	-0.305072
H	 0.4604908226	 1.7080099324	-1.0292368826	 0.129691
H	-1.110243035	 1.613012506	-0.2450049526	 0.129685
H	 0.3478283347	 1.9153431142	 0.7410306813	 0.134101
H	 1.6611327829	-4.3024208425	 2.6135890138	 0.326381
H	 2.0668809107	-0.2027499295	 3.9204949983	 0.135737
