15
gdb 80780	1.99235	1.85455	1.16158	4.3208	72.63	-0.2726	-0.0263	0.2463	1056.3552	0.112529	-416.763873	-416.755933	-416.754988	-416.796404	29.424	
C	-0.095476064	 1.5598310899	 0.0051983805	-0.441162
C	-0.0139995933	 0.0434213219	-0.004104847	 0.011435
C	 1.2443635943	-0.6432135958	-0.6295101166	-0.172177
N	 2.019306	-0.158111517	 0.5957957303	-0.327713
C	 0.7105080052	-0.6730849431	 1.1904296394	 0.081878
C	 0.407769004	-0.6159854801	 2.5904777113	 0.166732
N	 0.1422657099	-0.5966405764	 3.715845442	-0.337981
C	 0.905619885	-1.8878081594	 0.2112754575	 0.420863
O	 0.9566688267	-3.0718412711	 0.2106313089	-0.298215
H	 0.8586387594	 2.0105138224	 0.2794776796	 0.154582
H	-0.3852510877	 1.9228469734	-0.9858697604	 0.128674
H	-0.8582518413	 1.8912920702	 0.7162923446	 0.139059
H	-0.9633156898	-0.4215638356	-0.2797403641	 0.107741
H	 1.6455146107	-0.5489037273	-1.6351446018	 0.120056
H	 2.7965533408	-0.7848094519	 0.8228891259	 0.246228
