16
gdb 109192	4.38395	0.96322	0.86506	4.2189	72.18	-0.2343	0.0042	0.2386	1330.1626	0.125171	-434.094926	-434.086035	-434.085091	-434.129856	30.708	
C	 0.1133153792	 1.3211381409	-0.156744111	-0.320827
N	 0.1098013163	-0.1164814237	 0.0443722697	-0.372994
C	 0.6030777941	-0.6526789143	 1.1829556904	 0.520254
N	 1.2684266616	-0.065985795	 2.099045641	-0.353334
C	 1.6421042648	-1.0844180063	 3.0685429	-0.198466
C	 0.9785379415	-2.4046623485	 2.5285031137	-0.049067
O	 0.3476914604	-2.000328878	 1.303537898	-0.265197
C	 1.9354481972	-3.4823709807	 2.2630073344	 0.273802
N	 2.7031567718	-4.3280792731	 2.0893844598	-0.313832
H	 1.0973043606	 1.7124515696	 0.1075347785	 0.165202
H	-0.0829472602	 1.5321977682	-1.2099559154	 0.130797
H	-0.6352122208	 1.8367856668	 0.4586887769	 0.129628
H	-0.5779978046	-0.671876068	-0.4369064729	 0.260392
H	 2.7297033919	-1.188649117	 3.141862023	 0.133996
H	 1.2646737352	-0.8430024357	 4.067817633	 0.12153
H	 0.2051743712	-2.7849124452	 3.2029644209	 0.138116
