15
gdb 33703	3.13494	1.81248	1.31704	5.4841	73.89	-0.2535	-0.0278	0.2258	926.6809	0.114595	-379.600907	-379.594427	-379.593482	-379.631619	26.324	
N	 0.0139608476	-1.1520470217	 0.0094209143	-0.336365
C	 0.0149604996	 0.0037142579	 0.0106191135	 0.189163
C	-0.0198640568	 1.4476471617	 0.0525945536	 0.223684
C	-0.910410323	 2.161199259	 1.0620396306	-0.172023
C	-0.700468768	 3.457649266	 0.8266699664	-0.109042
C	 0.30302101	 3.4703379793	-0.3093582037	-0.107571
C	 1.312904112	 2.2866408536	-0.0734925702	-0.057873
N	 1.3848199585	 1.9401044432	-1.5367756571	-0.32708
C	-0.0577821048	 2.2887878994	-1.2842396081	-0.057868
H	-1.5477398725	 1.670960003	 1.7826914572	 0.130673
H	-1.1338809541	 4.3165010636	 1.3188627686	 0.122235
H	 0.6755277988	 4.4043254738	-0.7294142249	 0.082849
H	 2.1776909045	 2.2407375603	 0.5923677417	 0.101694
H	 1.8353247156	 2.7059727507	-2.0454336322	 0.215828
H	-0.8253781073	 2.2454413003	-2.0602876895	 0.101696
