20
gdb 55197	3.76746	0.95533	0.86835	3.2349	82.02	-0.2264	0.0313	0.2577	1402.3783	0.170969	-403.209177	-403.19954	-403.198596	-403.244834	34.959	
C	 0.0473773579	 1.491163725	 0.1303646454	-0.491963
C	 0.0304050625	 0.0022839168	-0.0103237518	 0.334724
C	-0.1326556004	-0.7061741494	-1.1286206673	-0.165496
C	-0.1564751734	-2.193459329	-0.8829069558	-0.264415
C	 0.3416681466	-2.3163134475	 0.5936108413	-0.084841
C	 0.1469556786	-0.9045294187	 1.1969938046	-0.314014
C	-0.4212678983	-3.3977881261	 1.3526238328	 0.396797
N	 0.2162292969	-4.601879652	 1.443124944	-0.52596
O	-1.529781509	-3.2164359772	 1.8213539576	-0.368601
H	 0.9864345043	 1.8371616984	 0.581357586	 0.12168
H	-0.0714123401	 1.9912022165	-0.8347332438	 0.121391
H	-0.7578555801	 1.8337066308	 0.7930438347	 0.128417
H	-0.2883625872	-0.279601369	-2.1142632888	 0.082309
H	-1.1748418881	-2.592116214	-0.9882673159	 0.12313
H	 0.4754059081	-2.7603233669	-1.5764825446	 0.096425
H	 1.4100059876	-2.5571809442	 0.5769408631	 0.065533
H	 0.9705706732	-0.6215656555	 1.8636064056	 0.094379
H	-0.7731275444	-0.8783475302	 1.7947574725	 0.135363
H	 1.1141153081	-4.7687409512	 1.0254674377	 0.256717
H	-0.273632973	-5.3719235767	 1.8684896026	 0.258426
