22
gdb 78505	2.38161	1.6031	1.31481	1.4693	86.6	-0.2247	0.0931	0.3178	1127.9162	0.19343	-367.169544	-367.160436	-367.159491	-367.202611	35.426	
C	-0.0625119604	 1.5701440393	-0.0185505953	-0.423347
C	 0.0867752661	 0.0625342702	-0.1213380984	 0.096429
C	 0.7764463596	-0.6341226779	-1.3130601776	-0.146655
C	 2.1977585385	-0.0183728639	-1.3298494395	-0.29948
C	 2.3796838809	-0.6616730766	 0.0459259218	 0.298037
C	 3.6324519112	-0.7654703976	 0.8573485207	-0.498734
N	 1.0655102757	-0.6000691224	 0.8079551243	-0.238146
C	 1.3072529048	-1.6560003315	-0.2241499868	 0.316949
C	 1.151791177	-3.1229890263	-0.0089190085	-0.532753
H	 0.8840343373	 2.0956741144	-0.1664225313	 0.119104
H	-0.7779944792	 1.9380703923	-0.7626096289	 0.112825
H	-0.4388536623	 1.8388428008	 0.9739864826	 0.125132
H	-0.8822327624	-0.4122127098	 0.073384306	 0.073391
H	 0.25241726	-0.8605420843	-2.2412151549	 0.063804
H	 2.8368675942	-0.5182398949	-2.0638340885	 0.099114
H	 2.299965749	 1.0658556541	-1.4433925208	 0.089641
H	 3.9574890476	 0.2229206563	 1.2022687245	 0.122272
H	 3.4709226993	-1.387830781	 1.7416271052	 0.129794
H	 4.4473303705	-1.2011116392	 0.2685799155	 0.113865
H	 0.0955945744	-3.4089773818	 0.0543245104	 0.124955
H	 1.6056101169	-3.6950636539	-0.8259494583	 0.120868
H	 1.6347418712	-3.4209353062	 0.9269727477	 0.132935
