20
gdb 12635	3.35458	1.81433	1.34797	1.3887	76.33	-0.2354	0.0272	0.2626	983.6139	0.176843	-349.01897	-349.01048	-349.009535	-349.051391	32.624	
C	-0.1378808762	 1.612001183	-0.0462952962	-0.425633
C	 0.0609757926	 0.0931272534	-0.0294426596	-0.027861
C	 0.8487113898	-0.4590610127	-1.1983262526	-0.072589
C	 1.6740260025	-1.4330743465	-0.8248082842	-0.069963
C	 1.5910310311	-1.7126807679	 0.6614730169	-0.024812
C	 2.927026924	-2.028593576	 1.3409273538	-0.393363
C	 0.8595396308	-0.4508902359	 1.1980296593	 0.079948
O	 1.8511727803	 0.4653067694	 1.6444992573	-0.424868
H	 0.823543335	 2.1327041755	-0.0648171061	 0.128977
H	-0.7020190276	 1.9167723922	-0.9334150422	 0.116301
H	-0.7030772758	 1.9543744506	 0.8292059536	 0.103619
H	-0.9351880649	-0.377310188	-0.0169126785	 0.075984
H	 0.7094075553	-0.101905683	-2.2135304483	 0.08564
H	 2.3173113824	-2.004934106	-1.4855124797	 0.086452
H	 0.921589903	-2.5734227189	 0.8169818596	 0.077286
H	 3.6323893458	-1.2043868968	 1.2209571828	 0.135413
H	 2.7937306021	-2.2033364201	 2.4130709598	 0.10986
H	 3.3677888301	-2.931573659	 0.9052743789	 0.102475
H	 0.1863737254	-0.7033243006	 2.0301926716	 0.05306
H	 1.4033621145	 1.2268965675	 2.023774014	 0.284075
