21
gdb 60371	3.30054	0.75444	0.64239	2.7185	76.73	-0.2591	-0.0354	0.2237	1757.1423	0.178389	-461.368288	-461.35742	-461.356476	-461.405803	38.156	
C	-0.0398521717	 1.2099814397	 0.1615162683	-0.394348
C	 0.0567727859	-0.3175932748	 0.1543112289	 0.160412
C	 0.7676073026	-0.8557248295	 1.3904403099	-0.389666
O	-1.2334262625	-0.9301259988	 0.1351389848	-0.267771
C	-1.9257330983	-0.8509355178	-1.0885058541	-0.099261
C	-3.1886383418	-1.720001293	-0.9641669295	 0.036139
O	-4.0133084473	-1.535761716	-2.0791935705	-0.436722
C	-2.822733646	-3.1821614705	-0.8072396775	 0.13758
O	-3.2546901866	-4.0206822864	-1.5635212248	-0.26648
H	 0.9604516717	 1.6525639686	 0.1982066949	 0.11834
H	-0.5367776388	 1.5918748759	-0.7347087192	 0.121108
H	-0.6009021037	 1.5493756426	 1.0382075982	 0.124167
H	 0.6077142969	-0.6367763928	-0.7464871306	 0.068945
H	 1.7846322322	-0.4582367886	 1.4536519506	 0.116553
H	 0.2260379254	-0.565513552	 2.2963631548	 0.124866
H	 0.8211099977	-1.9471403679	 1.3577284479	 0.119694
H	-2.2464886426	 0.1719187231	-1.32948935	 0.113404
H	-1.3050160578	-1.2107312684	-1.9256626301	 0.09684
H	-3.6974701391	-1.4159239506	-0.0322852932	 0.10426
H	-4.1536594276	-2.4241887449	-2.444740002	 0.295651
H	-2.1398945587	-3.4314767877	 0.0251612932	 0.116289
