15
gdb 15510	3.05456	1.94683	1.30051	3.9067	61.92	-0.2484	-0.0269	0.2215	907.7267	0.119944	-399.856998	-399.849588	-399.848644	-399.889402	26.342	
O	-0.5438405822	 0.7362938156	-0.6781155059	-0.24081
C	 0.199672129	 0.9550635453	 0.24303911	 0.152335
C	 1.3899311472	 1.8944398652	 0.1734789532	-0.212838
C	 1.5324572251	 2.6803517184	-1.1346196222	-0.233711
C	 1.9547924428	 4.104686071	-0.6995491792	-0.172369
N	 1.5260911193	 4.1665275271	 0.6879908294	-0.303667
C	 1.2807400279	 2.9650634285	 1.2831884787	 0.402587
O	 1.0198817262	 2.7668881139	 2.4491857117	-0.379149
H	 0.0577408566	 0.485237464	 1.2371478081	 0.112282
H	 2.277658965	 1.2957353705	 0.4209853287	 0.125624
H	 2.2526798984	 2.2379798536	-1.8242354131	 0.117602
H	 0.5631260285	 2.6979647549	-1.6385471728	 0.14187
H	 3.0402779196	 4.2493071111	-0.7872353187	 0.111636
H	 1.4670905928	 4.8800274411	-1.298191228	 0.121819
H	 1.5957270439	 4.9985317599	 1.2528417802	 0.256788
