23
gdb 6558	3.60625	1.23514	1.19412	1.015	82.39	-0.2301	0.0791	0.3093	1179.504	0.210183	-330.305632	-330.296063	-330.295119	-330.339322	36.404	
C	-0.010182309	 1.5438708494	 0.1267363127	-0.395917
C	 0.0123659552	 0.0098166548	 0.0076477156	 0.257752
C	 0.7831705509	-0.5911119491	 1.1964690474	-0.401485
C	-1.42829949	-0.5311482937	 0.0072819699	-0.40705
C	 0.6690971766	-0.3960721228	-1.330169338	-0.141219
N	 2.0529561316	 0.0558404861	-1.4515327515	-0.067278
C	 3.1015530292	-0.9286997724	-1.205228146	-0.217181
C	 2.8010012063	-0.4686052851	-2.5876270597	-0.221216
H	 1.0010776162	 1.950951762	 0.0521210249	 0.128706
H	-0.6121342818	 1.9906465916	-0.6728337538	 0.101597
H	-0.4431084612	 1.855106116	 1.0837207008	 0.100945
H	 0.2861570282	-0.3440803281	 2.140975036	 0.105964
H	 0.8362440091	-1.6839175997	 1.1268953866	 0.100247
H	 1.8045516251	-0.2039128247	 1.2449047561	 0.123593
H	-2.0036570568	-0.1309391453	-0.8352718354	 0.107097
H	-1.4454289456	-1.6247085477	-0.0641130802	 0.105832
H	-1.949324464	-0.2498009649	 0.9286158538	 0.109405
H	 0.5877456108	-1.4918168983	-1.461263905	 0.070286
H	 0.102946765	 0.0641387018	-2.1502585009	 0.095036
H	 3.9806693402	-0.5671066831	-0.6791011641	 0.11504
H	 2.7979453684	-1.9410877917	-0.9427789678	 0.109216
H	 2.2981874789	-1.1759653006	-3.2460615084	 0.106158
H	 3.4543372767	 0.2373010555	-3.092988603	 0.114472
