19
gdb 8913	3.48431	1.23995	0.9818	3.4102	72.	-0.2979	0.0123	0.3101	1206.5033	0.163438	-365.081029	-365.071291	-365.070347	-365.115648	34.589	
C	-0.1232874423	 1.5599811925	 0.0583102093	-0.397188
C	 0.0234775641	 0.0364194289	 0.0020346827	-0.176808
C	 0.7784809395	-0.4776476527	-1.2377250432	 0.012158
C	 2.2631890737	-0.0909230128	-1.2310188401	-0.416936
C	 0.6074708486	-2.0145214253	-1.3441831778	-0.01506
O	-0.7454751235	-2.4364856978	-1.3555854517	-0.410138
C	 1.3135012041	-2.5549080444	-2.5258786332	 0.259927
N	 1.8311554868	-2.9629856644	-3.4753227785	-0.326019
H	 0.8435520472	 2.067758746	 0.1257101176	 0.121234
H	-0.637746826	 1.9409980134	-0.8311511262	 0.115885
H	-0.710504894	 1.8576646607	 0.9321850977	 0.119731
H	 0.543010153	-0.3186315038	 0.90299795	 0.096128
H	-0.9683541506	-0.4249503927	 0.0188453123	 0.115196
H	 0.3095233456	-0.0458966428	-2.1350677011	 0.078123
H	 2.3811648555	 0.9946308095	-1.1957907447	 0.127209
H	 2.7708105327	-0.5090079942	-0.3535693554	 0.119933
H	 2.7797075539	-0.4516326245	-2.1244661343	 0.145084
H	 1.0448547898	-2.4798829294	-0.452491921	 0.137635
H	-1.1563972679	-2.1054480462	-2.1629225224	 0.293907
