23
gdb 114544	2.52418	1.38854	1.087	1.3465	85.23	-0.2614	0.0791	0.3405	1217.2523	0.207118	-388.283498	-388.274674	-388.27373	-388.316556	35.155	
C	-0.0181103009	 1.5137918795	 0.0774380697	-0.505119
C	 0.0263405638	 0.0014513537	 0.0726164949	 0.332536
C	 0.8409413842	-0.7906221571	-0.999953221	-0.259617
C	 0.7472166343	-1.9338157302	 0.0480896159	-0.01742
C	 0.8544757953	-0.8152230226	 1.1197552857	-0.262606
C	-0.7621556151	-2.2399012194	 0.0531784729	-0.222274
C	-1.3180354265	-0.7767400851	 0.0316222808	 0.021447
C	-2.3006740242	-0.4611560119	 1.1491476807	-0.117037
O	-3.4281150062	-1.3131961839	 0.9809633131	-0.421829
H	 0.9912319614	 1.9374953709	 0.042826847	 0.110983
H	-0.5696737227	 1.896294575	-0.7898881491	 0.11436
H	-0.5073815685	 1.9039969691	 0.9771067848	 0.114585
H	 0.3815939972	-0.9473391606	-1.9817961079	 0.083363
H	 1.8561941724	-0.4018303922	-1.1167784737	 0.088061
H	 1.4316138848	-2.7826723563	 0.0347651365	 0.054146
H	 1.8706319166	-0.4257913188	 1.2248922513	 0.089615
H	 0.4247083324	-1.0000128492	 2.1090097121	 0.083533
H	-1.0783808449	-2.8208738848	-0.8173678323	 0.094913
H	-1.0799863204	-2.7843300313	 0.9473388431	 0.098434
H	-1.8331689209	-0.5722913277	-0.9146351871	 0.070594
H	-1.830634552	-0.6224709356	 2.1323823964	 0.081929
H	-2.6010734099	 0.5976046782	 1.0991278464	 0.082912
H	-4.0447103202	-1.1392674397	 1.6979217399	 0.284492
