21
gdb 89796	3.17024	1.35725	1.13046	2.0363	82.16	-0.2293	0.0762	0.3055	1158.1588	0.184578	-383.229008	-383.220976	-383.220032	-383.261205	32.456	
C	 0.0000942561	 1.5861662128	-0.0102373912	-0.397352
C	 0.0560626294	 0.0642494362	 0.0045060584	 0.07282
C	 0.6973167726	-0.5850653173	-1.2472756933	-0.363172
C	 1.2671766639	-1.8926498677	-0.7044510441	 0.384516
C	 0.8087110182	-3.2167318573	-1.195017534	-0.301259
N	 2.1826514011	-2.7475628797	-1.4681054885	-0.371776
C	 1.5409700805	-1.6397169081	 0.754848536	-0.0758
C	 2.2446943683	-0.3769369611	 1.095925278	-0.263103
N	 0.7789688016	-0.4563545568	 1.1950957776	-0.105829
H	 1.0014009854	 2.0195616656	-0.10763751	 0.114482
H	-0.6037108032	 1.9428704058	-0.8508400575	 0.113728
H	-0.4436751107	 1.9619558739	 0.9159255818	 0.12785
H	-0.9654750211	-0.3233243041	 0.1055642458	 0.083987
H	-0.0255814057	-0.7373413831	-2.0529700498	 0.103352
H	 1.5003201481	 0.0467683584	-1.6473304387	 0.104155
H	 0.7453060206	-4.0609652005	-0.5128379365	 0.11862
H	 0.0893596644	-3.2389905858	-2.0101780981	 0.109017
H	 2.2493736005	-2.4133831821	-2.4268923412	 0.229208
H	 1.5775142204	-2.4910158718	 1.4283969972	 0.089756
H	 2.7529838128	-0.2857516376	 2.0511021051	 0.116637
H	 2.7004082369	 0.1943850004	 0.2914641029	 0.110163
