19
gdb 75801	3.03597	1.30157	1.08238	4.2275	75.2	-0.2663	0.014	0.2802	1167.6577	0.159029	-423.054485	-423.046029	-423.045085	-423.087743	31.927	
C	-0.3008965978	 1.4766591007	-0.0447448613	-0.412667
C	-0.039436228	-0.0237775417	-0.0694089057	-0.276511
C	 1.2114963344	-0.481524616	-0.822055235	 0.444815
O	 1.6649277025	-0.3860145543	-1.9175764843	-0.330955
O	 1.7645761009	-1.1068868473	 0.2653374513	-0.282436
C	 0.6445947831	-0.7266753527	 1.1312447713	 0.456922
C	 0.9638383741	-0.0001002279	 2.4510795288	-0.288453
C	-0.1327202247	-0.8667731745	 3.1334586729	-0.215291
C	-0.0628856899	-1.8406335931	 1.9227398461	-0.290397
H	 0.5825272288	 2.0340764294	 0.2792231098	 0.132306
H	-0.5644048399	 1.8239502892	-1.0477275362	 0.143055
H	-1.1283432439	 1.7226130815	 0.6279883503	 0.124433
H	-0.9265991537	-0.5652241457	-0.4131107936	 0.111248
H	 1.9674616048	-0.2675227115	 2.7920502854	 0.12498
H	 0.8591041396	 1.0864054607	 2.4778106717	 0.10751
H	 0.1006188795	-1.2788709864	 4.1160696455	 0.111005
H	-1.0922965742	-0.3471234812	 3.1910288152	 0.110132
H	-0.9966266935	-2.2354345033	 1.5146895347	 0.105177
H	 0.6242275882	-2.670857576	 2.1064632731	 0.125128
