18
gdb 104104	2.60261	1.32364	1.14766	4.3857	67.7	-0.264	0.0488	0.3128	1134.1622	0.147989	-476.278963	-476.27022	-476.269276	-476.312314	32.842	
C	-0.1195007952	 1.627363148	-0.0616870514	-0.439766
C	 0.0100296642	 0.1128542664	-0.0795945701	 0.351345
C	-1.3569186875	-0.5890614577	-0.01785232	-0.083378
O	-2.0469497523	-0.2887007133	 1.1733269151	-0.419806
C	 0.8716507647	-0.4365445975	-1.2424652077	-0.23685
N	 1.6339660795	-1.458873561	-0.5572842865	-0.363657
C	 1.6663394174	-1.2568469433	 0.8032694271	 0.464569
O	 2.3547948824	-1.8012810672	 1.6194266062	-0.388649
O	 0.7333941039	-0.3011564714	 1.1126684497	-0.288439
H	 0.8601785762	 2.0959800989	 0.0612730078	 0.127376
H	-0.55898734	 1.9766016438	-1.0019505919	 0.121432
H	-0.7708364684	 1.9374499548	 0.7578312158	 0.148061
H	-1.9840744237	-0.2432396034	-0.8469326646	 0.11147
H	-1.2034799727	-1.6732409618	-0.1390776186	 0.099566
H	-1.4575075979	-0.5292878101	 1.8986914807	 0.296965
H	 0.2478529469	-0.854097903	-2.0405828292	 0.121751
H	 1.5074629202	 0.3472190456	-1.675732729	 0.113315
H	 2.4138492423	-1.9350248179	-0.9792290934	 0.264693
