17
gdb 67928	2.08295	1.48801	1.03019	3.713	75.46	-0.2515	-0.0386	0.2128	1177.7838	0.133883	-421.829899	-421.82139	-421.820445	-421.863262	31.597	
C	-0.0207925996	 1.5322975387	 0.0477291153	-0.492778
C	-0.012350565	 0.0314799837	 0.0293283849	 0.316526
C	-1.2837925861	-0.8380529985	-0.0465540961	-0.423135
C	-0.6188319691	-1.7721838277	 0.9995193794	 0.420267
O	-1.0314092908	-2.6782253391	 1.6644162651	-0.309882
C	 0.6353161491	-0.9449231013	 1.040189914	-0.240912
C	 1.2013235253	-0.7580746152	-0.380071949	-0.157803
C	 1.2292627732	-1.859817381	-1.3824181831	 0.149517
O	 2.1102543053	-1.9850187808	-2.1958653822	-0.257568
H	 0.9606863724	 1.933099087	 0.3176461579	 0.131873
H	-0.2855641388	 1.9322227606	-0.9373368915	 0.138557
H	-0.7542630635	 1.9087803408	 0.7688782724	 0.131755
H	-2.1491848314	-0.3457812575	 0.4091644796	 0.137204
H	-1.5820712177	-1.249367631	-1.0136519264	 0.127891
H	 1.2752631865	-0.7709559796	 1.8971227664	 0.120224
H	 2.1190756865	-0.1752458941	-0.3912431737	 0.118565
H	 0.3882770038	-2.584107605	-1.3325361232	 0.0897
