16
gdb 43684	3.36342	1.18741	0.90003	4.9561	79.81	-0.2224	-0.0329	0.1895	1225.9807	0.124784	-400.747804	-400.739715	-400.738771	-400.780487	30.916	
O	-0.0245817186	-0.0945701791	 0.1020494645	-0.350748
C	-0.0034129588	 1.1217773035	 0.0496976624	 0.347525
C	-1.3105771712	 1.9284187362	-0.0196044037	-0.30603
C	-1.1620666892	 3.3209640564	 0.6203282309	-0.166122
N	-0.0009732593	 3.9924967269	 0.0257463491	-0.291142
C	 1.1519188673	 3.2747724311	-0.0940396578	 0.026752
C	 1.2105601322	 1.9203367725	-0.039350565	-0.22324
C	-2.3587891366	 4.1428012134	 0.4765006623	 0.291162
C	-3.3467184651	 4.8169883047	 0.3656848263	-0.407649
H	-1.580838429	 2.0449202138	-1.0764771178	 0.136102
H	-2.1075233813	 1.3671144037	 0.4703898574	 0.136237
H	-0.9682980735	 3.1692763759	 1.6971556474	 0.117508
H	 0.0753595023	 4.9813958259	 0.2025214371	 0.256266
H	 2.0444701819	 3.8720297908	-0.2571222038	 0.12575
H	 2.1584571972	 1.4073283886	-0.1351049069	 0.102942
H	-4.2243588982	 5.4076167456	 0.2675909574	 0.204689
