19
gdb 26413	4.22775	0.94061	0.84542	1.1432	77.97	-0.2052	0.0254	0.2306	1407.8516	0.158488	-423.049536	-423.040662	-423.039717	-423.083435	33.258	
C	-0.1191055931	 1.5640012943	 0.1232497456	-0.392775
C	 0.007565536	 0.0515191513	-0.0013032011	 0.137431
C	 0.7564948875	-0.5756389573	 1.1745934662	-0.395551
O	-1.3345736762	-0.4548650574	-0.0792085912	-0.282466
C	-1.5070889956	-1.6785060643	-0.6241221482	 0.3197
C	-0.6122591201	-2.5601667796	-1.163250935	-0.15324
O	-1.2788222841	-3.6691216626	-1.6153983808	-0.150831
C	-2.5928214185	-3.4786855158	-1.3555717499	 0.020883
C	-2.8024587898	-2.2832588216	-0.7488776387	-0.305115
H	 0.8704943953	 2.0276124813	 0.1708544461	 0.116517
H	-0.658229361	 1.9772184675	-0.7329660882	 0.12592
H	-0.6672519691	 1.8244733221	 1.0340548944	 0.12705
H	 0.5197898013	-0.192455254	-0.9434248706	 0.082639
H	 0.7739674095	-1.6654146357	 1.0981217103	 0.129498
H	 1.7901799639	-0.2167230076	 1.2016687884	 0.116361
H	 0.2716194316	-0.304987284	 2.1177352385	 0.12529
H	 0.4546336801	-2.5686879337	-1.2928475409	 0.129182
H	-3.2516293153	-4.2755843376	-1.659428626	 0.134898
H	-3.7402587823	-1.860579295	-0.426843749	 0.114609
