16
gdb 83096	2.40338	2.04361	1.9309	1.7761	67.02	-0.2468	-0.0139	0.2329	834.3111	0.127404	-437.888443	-437.881832	-437.880887	-437.918987	27.069	
O	 0.2061843961	 1.3627614292	-0.137355914	-0.446656
C	 0.0417983573	-0.0186472589	 0.0179764406	 0.121708
C	 0.4915357684	-0.6036863521	 1.3769613015	 0.034166
O	-0.1926236681	 0.1455667635	 2.4343199327	-0.23567
C	-1.4760329889	 0.4649973412	 2.1594571061	 0.10621
N	-2.1478980755	 0.2270165833	 1.1036272038	-0.281702
C	-1.4184770548	-0.5338419119	 0.0611734777	-0.07935
C	-1.1969611096	-1.9527783152	 0.5553529557	-0.060445
C	-0.0917609182	-1.9943563646	 1.3092154755	-0.085397
H	-0.517378463	 1.8041561681	 0.3237189459	 0.294251
H	 0.5995483746	-0.5077535823	-0.7844339184	 0.101076
H	 1.5512424416	-0.5105785194	 1.6089704237	 0.093663
H	-1.9239803483	 0.9964172578	 2.9979402744	 0.130367
H	-1.9597128868	-0.4472090859	-0.8817358885	 0.081727
H	-1.8824825601	-2.7695514947	 0.3646556142	 0.114755
H	 0.2953867655	-2.8459622181	 1.854217979	 0.111296
