16
gdb 43114	2.56656	2.15961	1.63146	3.9188	66.73	-0.2375	-0.0219	0.2156	854.8798	0.127059	-437.863469	-437.857011	-437.856067	-437.894463	25.437	
O	-0.0400538806	 0.0063420528	 0.3282081978	-0.303204
C	-0.0658332908	 1.1738337806	 0.0851259876	 0.354588
C	-1.1709596751	 2.2922848871	 0.0085560957	-0.038616
O	-1.8253831259	 2.5061254945	 1.2338539124	-0.247399
C	-0.8693133706	 2.9774005017	 2.1954156758	-0.09772
C	 0.3461446805	 3.5599645606	 1.4242861608	-0.077742
C	 1.5511155376	 2.5823988672	 1.2646840572	-0.198
N	 1.01120394	 2.1139619766	-0.0642532718	-0.164687
C	 0.0255032309	 3.259890876	-0.0617315434	-0.007844
H	-1.9115596692	 2.2442454773	-0.7908286266	 0.109998
H	-1.3747849584	 3.727443493	 2.8097012776	 0.119353
H	-0.56005106	 2.1506541153	 2.8492771385	 0.115666
H	 0.5802504987	 4.5843442218	 1.7138393549	 0.08966
H	 2.509367491	 3.0869954551	 1.1251186427	 0.12492
H	 1.6615109755	 1.7835432616	 2.0039001819	 0.130757
H	 0.1142883963	 4.0210389387	-0.8337886912	 0.09027
