16
gdb 13350	5.64932	1.16067	1.02298	3.7102	61.93	-0.251	-0.0216	0.2294	1114.5898	0.129513	-420.882252	-420.874234	-420.873289	-420.91654	27.064	
O	-0.6675553591	 0.5893324965	 0.540422911	-0.237589
C	 0.0059358855	 1.0017225066	-0.3661894482	 0.17234
C	 1.266968992	 1.8215459211	-0.1931544893	-0.30589
C	 1.3544383936	 2.9614794736	-1.1939242118	 0.217596
O	 0.2934656613	 3.8772176881	-0.98567624	-0.265779
C	 0.7975991377	 5.192551643	-1.212235547	-0.088294
C	 2.2842179875	 4.9659849719	-1.5535544283	-0.114031
O	 2.5490719686	 3.6785473355	-1.0152451339	-0.247396
H	-0.25746078	 0.7741494037	-1.4254959881	 0.075076
H	 1.3224306542	 2.2060974259	 0.8272437837	 0.136509
H	 2.1246576885	 1.1572198072	-0.3671706961	 0.136367
H	 1.3004896308	 2.5766798588	-2.2319052012	 0.064282
H	 0.2516969421	 5.6767217777	-2.0297642059	 0.110548
H	 0.665355558	 5.7844115495	-0.2998176477	 0.11693
H	 2.4489672272	 4.9745979586	-2.6410831818	 0.104126
H	 2.960504292	 5.6833575523	-1.0851370256	 0.125204
