29
gdb 121910	3.22492	0.61716	0.54692	0.061	100.54	-0.2916	0.0839	0.3755	2211.6773	0.272935	-354.778797	-354.766376	-354.765431	-354.817441	45.242	
C	 0.1301294494	 1.5833320446	 0.1141227859	-0.379971
C	 0.0512715511	 0.0663378468	-0.0777394139	-0.161701
C	-1.3776809362	-0.4811374415	 0.0179419418	-0.167714
C	-1.4524859651	-2.0034652472	-0.1578899678	-0.187798
C	-2.87081946	-2.6049427112	-0.0422925486	 0.050233
C	-3.7028435821	-2.2374710964	-1.282541688	-0.408578
C	-2.823163886	-4.1386606366	 0.205021728	 0.045904
C	-2.2433472594	-4.4819356865	 1.5875717301	-0.393699
C	-4.1974941296	-4.813669072	 0.0645236457	-0.399246
H	 1.1611669145	 1.9438652312	 0.0421173498	 0.109448
H	-0.4599915993	 2.1097839725	-0.6445230308	 0.112346
H	-0.2579695618	 1.8786045652	 1.0954666792	 0.112308
H	 0.476916801	-0.2023574509	-1.0537814433	 0.093044
H	 0.6804274767	-0.4312074926	 0.6724381466	 0.092583
H	-1.8026684605	-0.2103077121	 0.9948968247	 0.089842
H	-2.0000605977	 0.0237648904	-0.7318102857	 0.094134
H	-1.0333038152	-2.2784603943	-1.1368599019	 0.086991
H	-0.7911536528	-2.458393548	 0.5875373568	 0.090069
H	-3.3588130903	-2.1532557767	 0.835948339	 0.061016
H	-3.3259197104	-2.7569911777	-2.172396753	 0.109239
H	-4.7571952493	-2.4986459517	-1.1646671564	 0.113827
H	-3.6577006363	-1.1639411197	-1.4859248626	 0.111171
H	-2.1601973223	-4.571751947	-0.5596691906	 0.06591
H	-2.8861409788	-4.0867457372	 2.3838569451	 0.109986
H	-2.183513181	-5.5669410215	 1.7225897654	 0.108306
H	-1.2391222889	-4.0795499561	 1.7422362893	 0.113606
H	-4.9282461435	-4.3639301649	 0.7483229689	 0.109067
H	-4.5984158392	-4.7403467542	-0.9491550803	 0.113501
H	-4.1275223272	-5.8775800946	 0.3142671565	 0.106177
