18
gdb 8113	3.07633	1.88626	1.46599	1.9597	67.73	-0.2357	0.0647	0.3004	916.0931	0.152422	-384.901452	-384.893111	-384.892167	-384.933476	31.874	
C	-0.2519637641	 1.5632153354	 0.0279528159	-0.411876
C	 0.0433775305	 0.0675927267	 0.0157141718	 0.053857
C	 1.1541104153	-0.5014377282	-0.9324347514	-0.31983
C	 1.7841391355	-1.2149603309	 0.2717516674	 0.318877
O	 2.2108769831	-2.5345078734	 0.2627846868	-0.456435
C	 2.1998724576	-0.2327883156	 1.3242999174	 0.026687
O	 2.652457055	 1.0700882291	 1.0660545792	-0.412876
C	 0.7441199773	-0.5884031659	 1.2191458545	-0.164429
H	 0.6567050614	 2.1437721496	 0.1942129011	 0.141029
H	-0.6995636315	 1.8755926191	-0.9226833527	 0.103875
H	-0.9642049327	 1.8106524285	 0.8233798826	 0.108275
H	-0.884374349	-0.4814832551	-0.17636497	 0.077273
H	 0.7645472035	-1.2018015459	-1.6735469089	 0.104986
H	 1.7893533874	 0.2387260434	-1.4289189912	 0.087147
H	 3.122807254	-2.5604784895	-0.048124367	 0.281608
H	 2.6806150622	-0.7163735591	 2.1768080414	 0.089346
H	 3.5431413048	 1.0118862222	 0.7044359001	 0.283179
H	 0.2295600199	-1.0291042804	 2.065751243	 0.089308
