19
gdb 79865	2.88215	1.60156	1.3664	1.6232	74.66	-0.2304	0.0786	0.309	1007.4485	0.159757	-422.983391	-422.975569	-422.974625	-423.015246	31.06	
C	 0.0324759438	 1.5009249453	-0.0370742806	-0.533198
C	 0.033589047	-0.0019756256	-0.0246685486	 0.290858
C	 0.5945846494	-0.9645239624	-1.0847644598	 0.072924
O	 1.9899123871	-0.8690093375	-1.2628781403	-0.441034
C	 0.0380358897	-1.915903238	-0.0005804713	-0.150704
C	 0.6046906071	-0.9556978997	 1.1001808315	-0.095411
C	-0.4166414279	-0.9421046754	 2.2278917208	-0.115017
O	-1.6458457046	-0.9428880588	 1.4800481377	-0.28377
C	-1.1828553531	-0.9658923689	 0.1413108299	 0.098547
H	 1.0542279784	 1.893001292	-0.0704919034	 0.131293
H	-0.5040151298	 1.886578635	-0.9111449951	 0.119253
H	-0.4586936113	 1.8998553414	 0.8568532582	 0.126564
H	 0.0711450645	-0.9758710136	-2.0519269787	 0.05909
H	 2.2746730439	-1.6038861213	-1.8146166796	 0.284363
H	 0.0326145549	-3.0064695911	 0.015633137	 0.068074
H	 1.667289202	-0.9497425298	 1.3290364199	 0.085992
H	-0.368021415	-1.8284158839	 2.8730931246	 0.100332
H	-0.360019115	-0.0457959629	 2.8585343193	 0.101254
H	-2.0205899411	-0.9748569648	-0.5554276216	 0.08059
