15
gdb 84630	2.36208	1.86799	1.51197	1.9822	65.53	-0.247	-0.0339	0.2131	912.8798	0.112875	-457.746813	-457.739605	-457.738661	-457.778437	28.02	
O	 0.1082189567	 1.3771730761	-0.1803415867	-0.428234
C	 0.0262567875	-0.0336115002	-0.03721696	 0.075543
C	 0.713257515	-0.5218125875	 1.2268326295	-0.114441
C	 0.0231307694	-1.208564691	 2.1415598843	-0.060667
C	-1.4155888049	-1.5367587156	 1.7964088503	-0.080129
O	-1.4878672533	-1.9052201881	 0.3865509348	-0.289235
C	-1.4450699975	-0.5032079269	 0.0033262329	-0.068014
C	-2.060487869	-0.1923811356	 1.3857282203	 0.413718
O	-2.767281088	 0.635189609	 1.8683678836	-0.303915
H	-0.2682780243	 1.7823956974	 0.610325725	 0.293407
H	 0.5169902883	-0.4357637494	-0.9309409512	 0.109959
H	 1.7574988522	-0.2562891016	 1.3602626641	 0.116437
H	 0.4405861732	-1.5198435527	 3.0928444495	 0.11577
H	-1.919185842	-2.2419451292	 2.4576820045	 0.107933
H	-2.0006096134	-0.2746585848	-0.9082455911	 0.111869
