16
gdb 54240	2.38933	1.48192	1.33082	2.6261	67.09	-0.2408	0.0157	0.2565	1034.1904	0.124053	-471.224174	-471.215153	-471.214209	-471.257999	33.349	
N	-0.1159504883	 1.4047467033	-0.1435881124	-0.535346
C	 0.0852784012	 0.0853129089	 0.07929797	 0.367898
O	 1.1660547656	-0.4269187676	 0.300119413	-0.372644
C	-1.2050991714	-0.7520671057	 0.0510871927	 0.239433
O	-2.3042682561	-0.0391642369	-0.4674895056	-0.493563
C	-0.9619749815	-2.1991238382	-0.4976528534	-0.199062
N	-1.1077747893	-2.6672294076	 0.8934550385	-0.325982
C	-1.5325690169	-1.4557515731	 1.3791415946	 0.332746
N	-2.1137525502	-0.9705269481	 2.3932789982	-0.559983
H	 0.679114247	 2.0202682689	-0.1704284102	 0.262935
H	-1.0290750227	 1.7261448407	-0.4158943173	 0.269771
H	-2.9336068741	 0.0494545224	 0.2617313078	 0.299285
H	-1.7643924163	-2.5181626321	-1.1694251875	 0.114922
H	 0.0245438902	-2.3812215941	-0.9250471234	 0.136447
H	-1.3264749757	-3.5922515668	 1.2318700716	 0.246597
H	-2.3405320714	-1.674956484	 3.0958294434	 0.216546
