16
gdb 126111	6.79999	0.66309	0.60872	0.8677	84.48	-0.2336	-0.0167	0.217	1787.8666	0.126009	-396.916359	-396.907839	-396.906895	-396.951322	29.842	
C	 0.0229633613	 1.5578501244	 0.0099835934	-0.365438
C	-0.0259552899	 0.0188030531	 0.0026610784	-0.329575
C	-1.3853161724	-0.5069265987	 0.0120824797	 0.21927
C	-2.5200535394	-0.9156232993	 0.0201799653	-0.077474
C	-3.8352683433	-1.4336723217	 0.0299395326	 0.205321
N	-4.9343571039	-0.6578639367	 0.0412910623	-0.276717
N	-5.9212548506	-1.5387023844	 0.047032645	-0.09981
N	-5.5870402993	-2.8230556573	 0.0406936125	-0.17222
C	-4.2580251956	-2.7833476963	 0.0295646352	-0.176859
H	 1.0607219073	 1.9034582479	 0.0024490889	 0.116643
H	-0.4844650766	 1.9666591385	-0.8676580618	 0.133152
H	-0.4686562865	 1.9577509885	 0.9006329177	 0.133142
H	 0.5034714617	-0.3626837867	-0.880192524	 0.133581
H	 0.5190476437	-0.3715418047	 0.8720578981	 0.133582
H	-6.8849479869	-1.2452821758	 0.0558887317	 0.294498
H	-3.6671449295	-3.6844345808	 0.0219468651	 0.128905
