23
gdb 104203	2.34675	1.32993	1.25458	1.9113	81.57	-0.2398	0.0751	0.315	1206.6611	0.201836	-425.410329	-425.39958	-425.398636	-425.445749	39.734	
C	-0.1839249289	 1.3517606903	 0.0206644575	-0.253713
O	-0.3226600431	-0.0034947322	-0.347348914	-0.283407
C	 0.637148909	-0.5037978674	-1.2558174449	 0.314243
C	 0.5272857228	 0.1596488225	-2.6248139718	-0.456952
C	 2.0890292933	-0.6365432931	-0.7303518106	-0.125825
O	 2.1030154485	-2.0453130236	-1.0140099317	-0.3246
C	 0.6610780111	-2.0754777752	-1.2446401977	 0.360324
C	-0.0541819808	-2.6980882079	-0.0483841439	-0.410227
C	 0.3362362546	-2.8266927116	-2.5277056627	-0.437672
H	 0.8322570025	 1.5815296339	 0.3740406398	 0.108039
H	-0.4300058497	 2.0417768972	-0.7982184746	 0.111205
H	-0.883810101	 1.5277169139	 0.8413122569	 0.129767
H	 0.7339784953	 1.2321698934	-2.5547290709	 0.116352
H	 1.252602875	-0.2623113118	-3.3239325942	 0.130098
H	-0.4768114139	 0.0312454088	-3.0399727988	 0.123422
H	 2.87199485	-0.0994601297	-1.2783100752	 0.095534
H	 2.1879858396	-0.4262257497	 0.3434732409	 0.094321
H	 0.1936752574	-2.1791298813	 0.8783367045	 0.12042
H	-1.1397292952	-2.6553170884	-0.1765587684	 0.117571
H	 0.2475477521	-3.7462644701	 0.0424156091	 0.112202
H	 0.5877277037	-3.8848559659	-2.4032807182	 0.12368
H	-0.7320132465	-2.7595430971	-2.7586757194	 0.118472
H	 0.904956424	-2.446952375	-3.3783074718	 0.116745
