17
gdb 36258	5.32981	0.98623	0.95494	5.5029	77.17	-0.2466	0.0339	0.2805	1239.0649	0.137034	-380.782416	-380.775117	-380.774172	-380.814757	28.04	
N	 0.0183479039	-1.2359804111	 0.2500260973	-0.304914
C	-0.0171638013	-0.087330307	 0.131859819	 0.271144
C	-0.0554912487	 1.3644666427	-0.0378931911	-0.375429
C	 1.3388475051	 1.9935649241	-0.0240595771	 0.051204
C	 1.4976858175	 3.5048234977	 0.1182636281	-0.094759
C	 1.2601180925	 3.3903241837	 1.6566155398	-0.012301
C	 2.5614410024	 4.1056375347	 2.0259294551	-0.256208
C	 2.8799942269	 3.254475953	 0.7961077793	 0.00142
N	 2.0278559795	 2.070067518	 1.3351473925	-0.157268
H	-0.5446867671	 1.5872325869	-0.9940203915	 0.154305
H	-0.6854171209	 1.794591384	 0.7477379984	 0.151011
H	 1.9766670859	 1.5087912411	-0.7720051957	 0.093323
H	 1.210718602	 4.3203430329	-0.5544786129	 0.072032
H	 0.3124991956	 3.3689163871	 2.1959206077	 0.090094
H	 2.5829934274	 5.1901833657	 1.8968593952	 0.105378
H	 3.0321585353	 3.7945588619	 2.9616266128	 0.118467
H	 3.831073884	 3.0577710545	 0.298869683	 0.092502
