21
gdb 101928	1.95997	1.35118	0.97539	1.7972	79.57	-0.2303	-0.0148	0.2155	1324.3971	0.179167	-424.219684	-424.209106	-424.208162	-424.256374	37.041	
C	-0.9211697229	 0.680920206	 0.207412174	-0.244268
O	-0.2891504059	-0.5647302709	-0.002096755	-0.242532
C	 0.727712211	-0.5261800573	-0.9869282118	 0.011353
C	 1.5933240753	-1.7561120252	-0.8165498498	-0.004682
C	 2.9658836418	-1.7884680386	-1.4387587574	-0.261541
C	 2.819698527	-1.6975636	 0.0582804749	-0.275256
C	 0.1636544292	-0.4874173286	-2.4220889767	 0.360904
C	-1.0825844843	-1.3053535836	-2.6977118901	-0.474884
O	 0.733759708	 0.1449563696	-3.2811229202	-0.303777
H	-0.2034167684	 1.4452164456	 0.5410309929	 0.113198
H	-1.4222014668	 1.0566470285	-0.6978050452	 0.109459
H	-1.6718993918	 0.5341662265	 0.987372986	 0.130976
H	 1.3506089781	 0.3746869678	-0.8754553323	 0.08094
H	 1.0309505817	-2.6851221764	-0.805733057	 0.093144
H	 3.307047661	-2.7221040314	-1.8711726817	 0.115033
H	 3.2891447827	-0.9050920576	-1.9783047323	 0.131849
H	 3.0517152782	-0.7523350976	 0.5373803209	 0.115985
H	 3.0589457144	-2.5700067157	 0.6558266462	 0.115885
H	-0.9426690683	-2.3412243475	-2.3708736429	 0.142355
H	-1.9304274758	-0.9151434229	-2.126367441	 0.148127
H	-1.3087675043	-1.2763426508	-3.7641020313	 0.137731
