17
gdb 14533	4.49307	1.5921	1.43505	1.9876	75.01	-0.2303	0.0441	0.2745	922.0375	0.141188	-326.642416	-326.634699	-326.633755	-326.673893	29.927	
C	-0.06795794	 1.5466372936	 0.0238026798	-0.483049
C	 0.0339499615	 0.0318254459	-0.0559419398	 0.115308
C	-1.0457051079	-0.6392768937	 0.6338765907	 0.275323
C	-1.9720886838	-1.1599112844	 1.1956448333	-0.402987
C	 0.592909517	-0.7151873357	-1.2210924202	-0.050398
C	 1.7188202914	 0.0348084669	-1.9266453733	-0.270379
C	 2.4092146908	 0.0962152286	-0.5403727837	-0.1592
N	 1.319995955	-0.7197961439	 0.110551344	-0.165226
H	 0.6481972489	 2.0585391774	-0.6198742969	 0.124013
H	-1.0718449346	 1.8569784108	-0.2784641477	 0.136279
H	 0.0895785947	 1.8817728697	 1.0537811978	 0.136697
H	-2.7791108558	-1.6311083177	 1.6996505595	 0.19032
H	 0.0940957392	-1.6023200275	-1.59865676	 0.101943
H	 2.2585477307	-0.5962019353	-2.6348601188	 0.116671
H	 1.458108622	 0.9723416322	-2.4261066309	 0.107786
H	 3.3426861855	-0.4673045125	-0.4928756111	 0.118036
H	 2.5713321553	 1.0789577555	-0.0896059625	 0.108865
