16
gdb 55059	3.74049	0.88598	0.85408	1.9246	71.33	-0.2543	0.0061	0.2604	1369.7927	0.122123	-437.862258	-437.853061	-437.852117	-437.896958	33.44	
N	 0.5981207005	-0.6262215838	 0.2547068933	-0.517475
C	-0.1025736321	 0.4751458037	-0.1326550647	 0.354576
O	 0.3939086501	 1.513647664	-0.5203414576	-0.35671
C	-1.6041263004	 0.3201730755	-0.0402908985	-0.054671
O	-2.1251367896	-0.9436039003	 0.3901549408	-0.255858
C	-2.327143627	 0.1871053117	 1.239409469	 0.083537
C	-1.6462988097	 0.1957010071	 2.597047418	-0.395689
C	-2.3635943587	-0.6146476504	 3.5755563289	 0.293852
C	-2.9719251474	-1.2817016194	 4.3680172825	-0.432588
H	 1.5955641592	-0.6313624364	 0.1171928983	 0.266657
H	 0.1081373782	-1.492513587	 0.4094497611	 0.27622
H	-2.1245493747	 0.7882531542	-0.8739128698	 0.125311
H	-3.3597408522	 0.5364131924	 1.256858695	 0.116248
H	-0.6143093006	-0.1537697717	 2.4949094988	 0.147392
H	-1.5936267	 1.2363536216	 2.9439417901	 0.148072
H	-3.5012199058	-1.8733290512	 5.0732149651	 0.201126
