15
gdb 14038	5.11582	1.63686	1.52924	0.2397	60.49	-0.2568	0.0148	0.2716	837.8065	0.120165	-399.786514	-399.779873	-399.778929	-399.818009	24.215	
C	 0.1134924168	 1.5920871088	-0.0125328753	-0.120741
O	 1.4714724806	 1.4686848027	 0.4541064965	-0.268778
C	 1.4230835582	 0.0308562486	 0.3680859586	-0.120745
C	-0.0665031029	 0.0612530948	-0.0272386508	 0.325
C	-1.1333468464	-0.6162117771	 0.864674456	-0.256806
N	-1.906086805	-1.4843754014	-0.0369157669	-0.255775
C	-1.3872109389	-1.3276211653	-1.1802310616	 0.10715
O	-0.3351669934	-0.4830328419	-1.3354552038	-0.247932
H	-0.5200066666	 2.1432951499	 0.693705197	 0.106615
H	 0.0486608424	 2.0517927554	-1.0059807207	 0.11561
H	 2.0778939206	-0.3673627386	-0.4162068463	 0.11561
H	 1.6559025468	-0.4507143168	 1.3261096144	 0.106617
H	-0.6822147438	-1.2139569772	 1.6643178057	 0.124792
H	-1.7967039342	 0.1145058434	 1.3403430475	 0.124794
H	-1.7052080842	-1.8172607351	-2.0937071302	 0.14459
