17
gdb 36172	3.72469	1.25216	1.14099	5.1086	76.72	-0.2449	0.0316	0.2764	1094.2359	0.13679	-380.785895	-380.778512	-380.777568	-380.818204	28.474	
N	-0.0025974029	-1.1537919996	 0.077439999	-0.307017
C	 0.0258822768	 0.0005889315	 0.1050626194	 0.275262
C	 0.0656361409	 1.462557765	 0.1170709573	-0.48054
C	 1.4702662785	 2.005174821	-0.0438043992	 0.376823
C	 2.5189366978	 1.6786023778	-1.1115213627	-0.303069
C	 3.2077957735	 2.5985628295	-0.1014945354	-0.003578
C	 1.9483568275	 3.4832389886	 0.1411469029	-0.116496
C	 2.0928953561	 3.2393462721	 1.638253985	-0.195756
N	 2.525236935	 1.8791925828	 1.0961144187	-0.171584
H	-0.566293738	 1.8351282963	-0.6981875229	 0.159051
H	-0.3761756222	 1.8236269926	 1.05297337	 0.157668
H	 2.8667905395	 0.643220947	-1.1391095648	 0.130016
H	 2.3464576696	 2.0816354705	-2.1125598401	 0.104045
H	 4.2517809031	 2.903715481	-0.0282752208	 0.093497
H	 1.6256085106	 4.3678241255	-0.4186745101	 0.070943
H	 2.8936118403	 3.7644353363	 2.1679163115	 0.108967
H	 1.1913434738	 3.2050229121	 2.2585837622	 0.101769
