19
gdb 93248	2.81491	1.30212	0.93506	3.9795	71.73	-0.2649	-0.0019	0.263	1246.2897	0.159752	-460.210502	-460.201843	-460.200898	-460.243778	32.792	
C	-0.1217159471	 1.5346741056	 0.0037027303	-0.408936
C	 0.024162209	 0.0104552854	 0.0371496783	-0.014501
C	 0.7869674082	-0.4712001193	-1.1953275644	-0.063037
O	 1.1000332938	-1.8814835918	-1.2098222886	-0.229943
C	 1.3765801065	-2.544191114	-0.0744955954	 0.389607
O	 1.9992913155	-3.5761604375	-0.1050927944	-0.343908
C	 0.7990060947	-2.0191077691	 1.2430389636	 0.013272
O	 1.5250535837	-2.5444759057	 2.3208481391	-0.439341
C	 0.7463243531	-0.4951038331	 1.2898052499	-0.228188
H	 0.8570824543	 2.0259684669	 0.0380788603	 0.124086
H	-0.634164453	 1.8689516657	-0.904455446	 0.120779
H	-0.7007941439	 1.885282823	 0.8628630484	 0.127117
H	-0.9793031358	-0.4366987545	 0.0121523989	 0.08956
H	 0.216974255	-0.3006231536	-2.1118411525	 0.12663
H	 1.7377553051	 0.0712445867	-1.2825785747	 0.118324
H	-0.2433928011	-2.3934525581	 1.2554915766	 0.097741
H	 1.9512228898	-3.3448817531	 1.9787875102	 0.295593
H	 1.7685194986	-0.0973964938	 1.3319503518	 0.110944
H	 0.2374049335	-0.1734044298	 2.2037763986	 0.114201
