16
gdb 24717	3.98578	1.60686	1.38119	3.0983	73.93	-0.2221	0.0184	0.2405	929.3356	0.128707	-396.896257	-396.889903	-396.888959	-396.927151	25.18	
C	 0.1414278856	 1.5322691781	-0.1064605499	-0.177372
N	 1.543115054	 1.4628507829	 0.3771888771	-0.3063
C	 1.5109848951	-0.0227218003	 0.4632850659	-0.146923
C	-0.0226697601	 0.0007257979	 0.0794299686	-0.024891
N	 0.3353199741	-0.791685351	-1.1146552908	 0.020709
C	 0.1840738474	-1.0480826472	-2.4600761262	-0.178057
C	 1.4809469435	-1.2366324701	-2.9006743259	-0.078255
N	 2.4219918174	-1.0127667249	-1.9056436995	-0.355764
C	 1.6721084749	-0.7560289948	-0.8604267844	 0.325151
H	-0.4907172387	 2.1284981585	 0.5595750792	 0.118774
H	-0.005598675	 1.8708617374	-1.1372183241	 0.118508
H	 2.2414798682	 1.8192743073	-0.2662103102	 0.236489
H	 1.9340603391	-0.4428456637	 1.3756047416	 0.101426
H	-0.8400725163	-0.3900453383	 0.6823576849	 0.105604
H	-0.766256118	-1.1633940201	-2.9533888316	 0.130586
H	 1.7891142988	-1.5499080716	-3.8878725048	 0.110316
