19
gdb 53533	3.7058	0.77694	0.72909	1.9808	80.8	-0.2401	0.0535	0.2936	1622.9189	0.155703	-422.980649	-422.970144	-422.9692	-423.017319	37.485	
C	 0.0032311097	 1.4211260639	-0.292042099	-0.498032
C	 0.0012469287	-0.0178274668	-0.0652182724	 0.092024
C	 0.0344588477	-1.2083428171	 0.1188950139	 0.019823
C	 0.0039330932	-2.6512642057	 0.3515366007	-0.403086
C	-1.3967615886	-3.2107871159	 0.1329876044	 0.404046
O	-2.3739263335	-2.6466817627	 0.9575911413	-0.47126
C	-1.8156530904	-3.6596714362	-1.2562706227	-0.379528
C	-1.5818867976	-4.6636827896	-0.1394447382	 0.038091
O	-0.4349989392	-5.4634438497	-0.1486441995	-0.420215
H	 0.9917913551	 1.7685331545	-0.6121717282	 0.150304
H	-0.713437257	 1.7048377045	-1.0707275043	 0.146625
H	-0.2609509952	 1.9710391984	 0.6180155767	 0.147598
H	 0.7137648746	-3.171205602	-0.298230483	 0.136075
H	 0.3079071405	-2.8673998543	 1.3836849135	 0.135899
H	-2.3604273307	-1.6952852005	 0.7898683573	 0.283563
H	-2.8400184079	-3.4712574723	-1.557094034	 0.113921
H	-1.074396545	-3.6128988897	-2.0474012737	 0.112612
H	-2.4658415645	-5.1157680794	 0.3093280308	 0.101411
H	-0.5346158201	-6.1161893292	-0.8493961338	 0.290128
