17
gdb 76587	3.35178	0.81064	0.77601	1.1318	93.65	-0.2302	-0.0161	0.2141	1526.0771	0.132716	-384.62258	-384.612656	-384.611712	-384.65781	35.699	
C	-0.1731581201	 1.5270884091	-0.1492907905	-0.405911
C	 0.0073113708	 0.0321996297	-0.0396274433	-0.041988
C	 1.3514424186	-0.6014246094	-0.2209678785	 0.099974
O	 2.4292525132	 0.238494335	-0.4684396046	-0.412371
C	 0.7107277131	-0.6009914788	 1.1739974516	-0.321944
C	 1.2980883088	 0.1962376283	 2.1976313752	 0.40061
C	 1.8254800153	 0.8468953676	 3.0753827435	-0.240117
C	 2.4092757044	 1.5819233102	 4.0585413119	 0.296027
C	 2.9306589704	 2.2329992342	 4.9327400371	-0.564836
H	 0.728090271	 2.056373723	 0.1624753179	 0.144413
H	-0.3858267956	 1.8063714973	-1.1863675712	 0.122309
H	-1.007800496	 1.8661645977	 0.4719036337	 0.121926
H	-0.8311488336	-0.5595303892	-0.3968385755	 0.097073
H	 1.4033616524	-1.569780573	-0.7181544262	 0.097547
H	 3.0885717163	 0.1066605375	 0.222200496	 0.297593
H	 0.3092904732	-1.5527741995	 1.5112926834	 0.119627
H	 3.3857851177	 2.8072657401	 5.7008123694	 0.190066
