16
gdb 98726	2.86591	1.08371	0.90841	5.6939	71.18	-0.2785	-0.0478	0.2307	1282.7158	0.122925	-437.898999	-437.890079	-437.889135	-437.933472	31.774	
O	 0.0986639647	 1.3586764006	-0.1883951315	-0.41657
C	-0.0454339166	-0.0237998352	-0.2645518786	-0.134527
C	-1.4580746999	-0.4597829615	 0.0842965416	 0.361737
O	-2.2941249836	 0.3731332424	 0.3684467591	-0.330096
C	-1.7549281135	-1.921156463	 0.0561287794	-0.126347
C	-2.9302036154	-2.4224403002	 0.8565425928	-0.283293
C	-3.0377232389	-2.4087883164	-0.6427636865	-0.16601
C	-3.9147196001	-1.493622487	-1.3210394353	 0.310488
N	-4.6364050001	-0.8035845887	-1.9036898811	-0.329181
H	-0.7827674296	 1.6983347226	 0.0347583032	 0.299755
H	 0.1850528741	-0.4050839913	-1.2752360813	 0.122646
H	 0.6506258233	-0.5380117479	 0.4206158597	 0.118973
H	-0.8991872776	-2.5759551582	-0.0682174099	 0.113841
H	-2.8465554882	-3.3859246672	 1.3439417781	 0.140925
H	-3.4844313299	-1.659122071	 1.3895827332	 0.169389
H	-2.9365758087	-3.361990878	-1.1512440129	 0.14827
