20
gdb 65379	2.91115	1.02646	0.92497	2.3867	82.3	-0.2499	-0.0319	0.218	1361.505	0.169502	-403.126561	-403.117101	-403.116157	-403.161396	34.575	
C	 0.1946866151	 1.6731774739	-0.2039337583	-0.474038
C	-0.0455981815	 0.2003577344	 0.0369075417	 0.209418
N	 1.0869847127	-0.7296579906	-0.1184389441	-0.370428
C	 0.5377409633	-0.5547267643	 1.2183269444	-0.038647
C	 1.3885736001	 0.0908137001	 2.2591396705	 0.019991
C	 0.7979292271	 0.4139508073	 3.6114494407	-0.268767
C	 1.791643118	-0.7087301196	 3.4781761669	-0.272244
C	-1.3680637625	-0.3328831167	-0.401783366	 0.101497
O	-1.5819314588	-1.5056685787	-0.6113488184	-0.278716
H	 1.1332375582	 2.0001476841	 0.2443982305	 0.135725
H	 0.2456550664	 1.8889583543	-1.2764867977	 0.12945
H	-0.6152831345	 2.2733595588	 0.2252580283	 0.122019
H	 0.7190518399	-1.5914739055	-0.5238234805	 0.244897
H	-0.1018534669	-1.3543314742	 1.59262488	 0.097511
H	 2.1357976974	 0.7737431787	 1.8712534022	 0.096312
H	 1.1107714006	 1.329845477	 4.0999066212	 0.116212
H	-0.2413916309	 0.1528306362	 3.7830946692	 0.114387
H	 1.4235337983	-1.7262835276	 3.5583891055	 0.117052
H	 2.7925614149	-0.566450779	 3.8693762265	 0.117994
H	-2.169093807	 0.4275104715	-0.5278669127	 0.080375
