13
gdb 8616	2.15056	2.07704	1.44474	2.9997	65.1	-0.2794	-0.0612	0.2182	905.4039	0.091771	-361.441413	-361.432746	-361.431802	-361.474678	29.997	
C	-0.0035784604	 1.600896546	-0.0434905874	-0.408523
C	-0.0076431747	 0.0578678054	-0.0545601745	-0.178213
C	 0.735468663	-0.5074643366	 1.2051257052	 0.163301
O	 1.1667641667	 0.1921129278	 2.0721055074	-0.217057
C	-1.3618943036	-0.4975802457	-0.0015722766	 0.322624
C	-2.4640794225	-0.9599424914	 0.1139870083	-0.437921
C	 0.7077213492	-0.4625310642	-1.232705418	 0.28156
N	 1.3083507341	-0.8726409176	-2.1305073651	-0.322015
H	 1.0234678073	 1.9700628471	-0.0511172857	 0.151348
H	-0.5346157207	 1.9825793301	-0.9165950006	 0.146532
H	-0.4953024195	 1.9529179037	 0.8641604328	 0.152418
H	 0.8001112656	-1.6126023315	 1.2217466189	 0.126239
H	-3.4444102343	-1.3631724531	 0.1913944553	 0.219708
