14
gdb 18568	3.8863	2.10033	1.70142	4.0288	56.36	-0.2586	-0.0062	0.2524	762.5758	0.109189	-419.703392	-419.697294	-419.696349	-419.733798	23.084	
O	-0.0195543216	 0.3168712426	 0.7396625269	-0.313024
C	 0.0418191506	 1.3781224062	 0.2134094656	 0.414565
O	-1.0038967734	 2.178040798	-0.1935139706	-0.259161
C	-0.1052516446	 3.2319814889	-0.6817016545	 0.090056
C	-0.0468726296	 4.4427538047	 0.2388281315	-0.244014
C	 0.8857362429	 3.9608111785	 1.3681006046	-0.101863
O	 1.8214423557	 3.0805627145	 0.7334273516	-0.245395
C	 1.1246658222	 2.3882032328	-0.2649654448	-0.069909
H	-0.296482025	 3.4341835357	-1.7344309058	 0.105829
H	 0.4044858977	 5.2808746666	-0.3013610518	 0.121838
H	-1.0340448307	 4.7452196746	 0.594423526	 0.130671
H	 1.4561517876	 4.758563135	 1.8463833117	 0.124672
H	 0.3189114768	 3.4222075695	 2.1403084395	 0.123168
H	 1.8242671114	 2.0107094725	-1.0109154099	 0.122565
