18
gdb 9559	2.87206	1.65332	1.49903	1.5943	63.69	-0.2482	0.0611	0.3093	942.2113	0.152297	-422.056064	-422.047304	-422.046359	-422.088876	32.821	
O	-0.095317146	 1.4331378831	-0.0479109586	-0.441233
C	 0.0144864917	 0.0117389531	 0.0552344314	-0.136038
C	-1.4146443932	-0.5209411615	 0.0160806698	 0.411612
O	-2.1721812128	 0.0877266191	 1.0331073868	-0.494264
C	-2.0262681774	-0.5463014053	-1.4224906503	-0.284156
C	-1.6270256912	-2.0437034469	-1.5257649357	-0.273324
C	-1.4894553363	-2.0616058175	 0.022296956	 0.086864
O	-0.3862369847	-2.7050391379	 0.6191646291	-0.437256
H	 0.7367658704	 1.8230584958	 0.232615014	 0.293907
H	 0.6150330895	-0.4018048705	-0.7656960241	 0.094959
H	 0.4779426474	-0.2844865215	 1.0039178637	 0.112296
H	-1.8893138344	 1.0118764006	 1.0516000017	 0.281691
H	-3.1079207223	-0.4053062828	-1.3708979836	 0.107826
H	-1.6056249571	 0.1467144399	-2.1529573109	 0.107026
H	-2.3441881445	-2.7327326111	-1.9766123504	 0.095353
H	-0.6521716404	-2.1833958165	-2.0008351402	 0.10611
H	-2.4353751058	-2.3555636693	 0.4966904183	 0.082486
H	-0.5558472529	-3.6515462507	 0.6364767831	 0.28614
