15
gdb 18094	3.98252	2.37716	1.7539	1.6762	64.85	-0.2477	0.005	0.2526	743.1796	0.122393	-362.691228	-362.685403	-362.684458	-362.721236	22.867	
C	 0.0162266222	 1.5776735636	 0.1624252529	-0.266635
C	 1.4326044184	 2.0038718606	-0.1290779719	-0.054182
C	 2.2169463648	 0.9989688148	-0.5160707716	-0.092497
C	 1.4725492685	-0.306035998	-0.5473876615	 0.045309
O	 2.0135222319	-1.2665797834	 0.4128652338	-0.23211
C	 1.1049826173	-1.3060015752	 1.4132630647	 0.115166
N	 0.0183297288	-0.6583865343	 1.3235828213	-0.272254
C	 0.0592561856	 0.0345331929	 0.0220921944	-0.009224
H	-0.3144728085	 1.8688258379	 1.164705597	 0.127987
H	-0.6887100448	 2.0294644903	-0.546880157	 0.110158
H	 1.7525613151	 3.0366287539	-0.038685028	 0.103014
H	 3.265156912	 1.0727154596	-0.7799287884	 0.10445
H	 1.4883756273	-0.8051178092	-1.5196514583	 0.094593
H	 1.3914222798	-1.9306174796	 2.252754805	 0.138478
H	-0.7635970685	-0.3322975538	-0.5975673125	 0.087745
