21
gdb 84366	2.24046	1.54874	1.22979	2.3769	79.17	-0.251	0.0043	0.2552	1125.1977	0.180946	-424.236249	-424.226582	-424.225638	-424.269866	37.53	
C	-0.8171982926	 1.1192505962	-0.0722477343	-0.412559
C	 0.0240635204	-0.1527132195	-0.0842997278	-0.031565
C	 1.0828723695	-0.2264671145	-1.2204904417	 0.074603
O	 1.6446278928	 1.0346875999	-1.5987628919	-0.432878
C	 2.1273453632	-1.1516482337	-0.6398875053	-0.128775
C	 1.9873309536	-1.2795169255	 0.6778027101	-0.107311
C	 0.7943560106	-0.5090957634	 1.220837792	 0.338695
C	 1.2421266051	 0.6899036411	 2.0677758946	-0.437704
O	-0.0755457053	-1.3395388801	 1.9985404192	-0.475387
H	-0.1986514654	 2.0172070581	-0.0025356091	 0.115725
H	-1.3977872336	 1.2005148723	-0.9966544133	 0.114468
H	-1.5213271133	 1.1097234454	 0.7654299461	 0.11796
H	-0.641055611	-1.010796919	-0.232599934	 0.095358
H	 0.6367859581	-0.605227626	-2.1460471843	 0.085249
H	 2.2876819427	 1.2790911189	-0.9248165817	 0.276601
H	 2.9174995359	-1.5852106824	-1.2433372588	 0.100077
H	 2.6385151764	-1.8500189781	 1.3340810439	 0.09109
H	 1.8404301927	 1.398384978	 1.4870054004	 0.109138
H	 0.3737259069	 1.2185495002	 2.4703176401	 0.130738
H	 1.8607411506	 0.3543108139	 2.9095442671	 0.103509
H	 0.3410307727	-1.4915802916	 2.8538164586	 0.272969
