18
gdb 68793	2.72589	1.3107	1.12294	2.9261	76.88	-0.2633	0.0264	0.2897	1153.1353	0.145653	-401.945591	-401.936567	-401.935623	-401.979112	33.486	
C	-0.1940592889	 1.5334206982	 0.0699494309	-0.502266
C	 0.1586872719	 0.0841195155	 0.0128659186	 0.35252
C	 0.721508466	-0.7083085098	-1.1777344031	-0.304218
C	 1.3380968468	-1.7354171829	-0.1513973001	-0.216392
C	 2.7873692349	-1.8179709914	-0.1841591906	 0.269132
N	 3.9431917	-1.8627383637	-0.1875873817	-0.334298
C	 0.7510844455	-0.8502115191	 0.993420282	 0.347784
C	 1.2589445489	-0.7212981388	 2.3904215452	-0.511461
O	-0.6577191313	-0.8479275833	 0.7534580825	-0.320402
H	 0.6295908714	 2.1474502282	-0.3074650968	 0.132993
H	-1.0782854341	 1.7397241886	-0.543427972	 0.1377
H	-0.4169383526	 1.8351412869	 1.0965273896	 0.138047
H	-0.0202777429	-1.1183033819	-1.8660603897	 0.121524
H	 1.4929118328	-0.1722246767	-1.7335454513	 0.131767
H	 0.9042926872	-2.7381658732	-0.1784417135	 0.130615
H	 2.3391204498	-0.5492894728	 2.3936998824	 0.150052
H	 0.7644577602	 0.1091852269	 2.9006069763	 0.137586
H	 1.0586315943	-1.6365883807	 2.9584393111	 0.139316
