19
gdb 86090	2.6369	1.50014	1.08393	1.6096	77.78	-0.2045	0.0589	0.2635	1153.0134	0.159984	-419.226856	-419.218271	-419.217327	-419.260332	33.359	
C	-0.3318239208	 1.4937315672	 0.0540775539	-0.398274
C	 0.0920023098	 0.0380424918	-0.0449178706	 0.034511
O	 1.1162788792	-0.0886474335	-1.0685928262	-0.269475
C	 2.1586517166	-0.7300058491	-0.4752350171	 0.447949
N	 3.2414946115	-0.9034415897	-1.2959703578	-0.580175
N	 2.0714738185	-1.0580812818	 0.7545536062	-0.387957
C	 0.7814155681	-0.5790840399	 1.1927889694	 0.345392
C	 0.6496987171	-0.0295220254	 2.590460294	-0.320351
C	 0.0275675886	-1.3616599649	 2.2311982344	-0.315583
H	 0.4982662771	 2.1166008016	 0.3985352248	 0.130915
H	-0.666364511	 1.8593449792	-0.9208434186	 0.124447
H	-1.1626594685	 1.6011538665	 0.7584286769	 0.120429
H	-0.75541353	-0.5780357329	-0.3707874491	 0.088349
H	 3.0243345862	-0.9806738297	-2.2777867842	 0.260668
H	 3.9022094048	-1.5852196095	-0.9567557971	 0.266843
H	 1.5487308808	-0.0369309876	 3.1957555704	 0.122271
H	-0.0089196803	 0.8142363187	 2.7658613146	 0.107021
H	-1.05442491	-1.4125993868	 2.1474731709	 0.103535
H	 0.4993310224	-2.263606054	 2.6038305553	 0.119486
