23
gdb 104163	3.07659	0.99277	0.95702	2.5064	81.01	-0.2557	0.0631	0.3188	1384.7705	0.205507	-425.445612	-425.435826	-425.434882	-425.480192	37.869	
C	-0.0210471633	 1.5348418005	 0.0454381479	-0.407035
C	 0.0837309189	 0.016891419	-0.0816726285	 0.049666
C	 1.1350710573	-0.4821535614	-1.0914254414	-0.209091
C	 1.2763902119	-1.9705180232	-0.7486263157	-0.280753
C	 1.1870239663	-2.0352319053	 0.797914729	 0.382433
O	 0.5009973364	-3.2094206488	 1.2555809341	-0.497601
C	 2.5722113262	-2.1652286582	 1.4441369457	-0.070569
O	 3.2018249002	-3.3787048352	 1.0953499693	-0.429701
C	 0.4872416604	-0.7105297395	 1.2199811555	-0.280094
H	 0.9348624406	 1.9670003131	 0.3643409435	 0.112831
H	-0.2936448979	 1.9972157096	-0.9094286137	 0.11162
H	-0.7776199154	 1.8239842611	 0.7827088426	 0.113471
H	-0.8930986458	-0.3715227385	-0.4052741898	 0.063182
H	 0.8502831179	-0.3042936019	-2.1328558209	 0.094472
H	 2.0859784509	 0.0417060781	-0.9235814496	 0.098012
H	 0.4312204475	-2.5242324581	-1.1808797456	 0.079361
H	 2.1900581062	-2.4421666056	-1.1171379509	 0.11848
H	-0.2674986053	-3.3511286334	 0.6947744606	 0.277052
H	 3.2195577935	-1.3506904204	 1.1022179887	 0.101786
H	 2.4571371567	-2.0684276436	 2.536296343	 0.08915
H	 2.5276699982	-4.056815147	 1.2310104171	 0.286382
H	 1.1869152212	-0.0850643491	 1.7905956944	 0.094608
H	-0.3566473927	-0.9216875121	 1.8818915446	 0.102338
