21
gdb 96512	2.11638	1.59263	1.20112	3.1148	79.16	-0.2111	-0.012	0.1991	1139.218	0.184817	-420.410433	-420.401583	-420.400639	-420.44414	34.155	
C	 1.4279083279	 0.8447823088	-0.1856939435	-0.415728
C	 0.0238059025	 0.3074576473	 0.1191872744	-0.04173
N	-0.5314170937	-0.4840721131	-0.9828760067	-0.299295
C	 0.2323092829	-1.593133028	-1.5405381685	-0.135454
C	 0.5451153757	-2.7615124389	-0.595127882	-0.165259
N	 1.3556289638	-2.3288976895	 0.5418978323	-0.287634
C	 0.6049780598	-1.7948670924	 1.6673967647	-0.266302
C	-0.0266042227	-0.4056814609	 1.4808680658	 0.363508
O	-0.6076613604	 0.0910471094	 2.4200485013	-0.312501
H	 2.1745871206	 0.0487217338	-0.1848481394	 0.141467
H	 1.4268189466	 1.3346299598	-1.1643117464	 0.124372
H	 1.7096670972	 1.5837436314	 0.5698845524	 0.124875
H	-0.6464792416	 1.1643889917	 0.249129441	 0.096999
H	-1.4767903366	-0.774795762	-0.7590392239	 0.21929
H	-0.3317222215	-1.9755401617	-2.4001849264	 0.097954
H	 1.177459545	-1.2018566779	-1.9307938408	 0.114697
H	-0.4008553221	-3.2379761884	-0.2720582415	 0.074438
H	 1.1092966929	-3.5184708363	-1.1526323261	 0.09659
H	 1.9283827671	-3.0969050055	 0.8674195256	 0.226603
H	-0.2216052183	-2.4540817489	 1.9947544533	 0.110675
H	 1.2758955248	-1.6996240086	 2.5276334046	 0.132435
