17
gdb 93386	3.25146	1.38468	1.08686	3.4492	68.65	-0.2366	0.0189	0.2555	1085.8281	0.138559	-455.154334	-455.146529	-455.145584	-455.186524	30.276	
O	-0.1577982649	 1.4643972515	 0.1821726134	-0.43021
C	-0.0074756279	 0.0614690267	 0.0367022476	 0.118265
C	 0.7957098579	-0.5345534887	 1.2063826	-0.201816
N	 0.7787440445	-1.9884966337	 1.1615613207	-0.337622
C	-0.3104390808	-2.7535674411	 0.8481903444	 0.455893
O	-0.3013562174	-3.9699083272	 0.8944851108	-0.386167
C	-1.5183544027	-1.9803551558	 0.3883539958	-0.159007
N	-1.9781727628	-0.889990889	 1.2816996209	-0.328134
C	-1.385421447	-0.5539390173	-0.0139317978	-0.037411
H	 0.7077909527	 1.8740002513	 0.084382492	 0.287346
H	 0.501760088	-0.1830282282	-0.9094471987	 0.079044
H	 1.8366307726	-0.2009285665	 1.1394813999	 0.097898
H	 0.3682894397	-0.1453365979	 2.136848031	 0.141187
H	 1.5609551405	-2.5037729234	 1.5357397905	 0.249093
H	-2.2600389009	-2.6067645739	-0.0949732735	 0.109754
H	-2.9911818505	-0.8220005851	 1.241060471	 0.243461
H	-2.0315662811	-0.1825046416	-0.8049787881	 0.098425
