15
gdb 47184	2.4076	1.75736	1.06234	2.8561	71.61	-0.2609	-0.0561	0.2048	1065.6931	0.115132	-453.990041	-453.982576	-453.981631	-454.022527	27.916	
N	-0.0523779223	 1.1307122987	 0.825902977	-0.499692
C	-0.0222370513	 0.0988288864	 0.0697439419	 0.338893
N	 1.1613382121	-0.3634700231	-0.5457165287	-0.436196
C	 1.5901656252	-1.6570489475	-0.8821023204	 0.440602
O	 2.7424303806	-1.9752253718	-0.7567613619	-0.355804
O	 0.6798228125	-2.5177486891	-1.3673681258	-0.217435
C	-0.4843216583	-2.0294872595	-2.0547786202	-0.14723
C	-1.536584973	-1.4893071509	-1.1320571154	-0.108524
C	-1.2998376277	-0.5761745643	-0.1911284199	-0.018007
H	 0.8712429863	 1.5520185262	 0.9433205816	 0.21413
H	 1.9748319958	 0.1770423584	-0.2796224457	 0.258111
H	-0.1770922505	-1.2748284766	-2.7897896854	 0.140129
H	-0.8557077132	-2.8980968036	-2.600469275	 0.140529
H	-2.5443468489	-1.8733622678	-1.2568100984	 0.119767
H	-2.0972801174	-0.2116121254	 0.4454447463	 0.130728
