20
gdb 70727	2.70265	1.56984	1.15048	2.4923	81.81	-0.2384	0.0117	0.2502	1120.3851	0.172272	-403.120186	-403.111996	-403.111052	-403.152825	32.166	
C	 0.1217418372	 1.5293670362	-0.2019950385	-0.469538
C	-0.0776837078	 0.0527297519	 0.1019279557	 0.280436
N	-0.5710911395	-0.2944342546	 1.4663414055	-0.351991
C	 0.8277468602	-0.5592762113	 1.1157564006	-0.075576
C	 1.3049456632	-1.9987744865	 1.1397026127	-0.107162
O	 0.3803806062	-2.9475463771	 0.6761189085	-0.21906
C	 0.2681344148	-3.049116921	-0.7269830901	-0.14166
C	-0.5228113009	-1.9635132375	-1.4082343919	-0.08072
C	-0.6736864769	-0.6906831745	-1.0457607217	-0.069163
H	 0.7741039171	 1.6713904475	-1.0705318929	 0.127277
H	-0.8368850519	 2.0115834585	-0.4273860775	 0.123883
H	 0.5735125514	 2.0517264519	 0.647204708	 0.111267
H	-0.6417705733	 0.5512120684	 2.0293331542	 0.222874
H	 1.5844731291	 0.1159339631	 1.5216248919	 0.073856
H	 2.2546660618	-2.0692949142	 0.5800575419	 0.083926
H	 1.5157485076	-2.271513551	 2.1810263026	 0.110648
H	 1.2731386671	-3.1230886397	-1.1839856221	 0.095238
H	-0.2272977554	-4.009162767	-0.9116944513	 0.115134
H	-1.0347260069	-2.2924405078	-2.3114276315	 0.089146
H	-1.3080172131	-0.0704323353	-1.6779845939	 0.081185
