17
gdb 6456	4.76775	1.28762	1.20642	2.5352	66.71	-0.2221	-0.0441	0.1781	1038.8192	0.140084	-400.976933	-400.968672	-400.967728	-401.009696	30.193	
C	-0.0470240935	 1.5576869416	 0.1407232657	-0.323692
N	-0.009746317	 0.1153792825	 0.1042455859	-0.058679
C	-1.2293104639	-0.6349306599	 0.4388682422	-0.218991
C	-0.3625819837	-1.6799670443	 1.2164880673	 0.327339
O	-0.1019586003	-2.8549435117	 0.5170260539	-0.482728
C	 0.7671390473	-0.6007936969	 1.1268953786	-0.219097
C	-0.8370793781	-1.9947800051	 2.6118271352	 0.105029
O	-0.951333065	-3.1303398298	 3.0069329642	-0.271421
H	 0.9510817406	 1.9602352008	-0.0608617073	 0.12624
H	-0.7207520137	 1.9315834188	-0.6372197092	 0.126244
H	-0.3894545748	 1.9629103056	 1.1138173699	 0.085902
H	-1.9285252299	-0.0842085975	 1.0915135013	 0.082851
H	-1.7746475736	-1.0490172073	-0.4145818546	 0.124238
H	-0.2991656611	-3.5768488422	 1.1355111405	 0.292401
H	 1.7346507151	-0.9892277844	 0.7947998642	 0.124223
H	 0.8989189622	-0.0358436854	 2.0658250275	 0.082852
H	-1.0754644706	-1.1249543146	 3.2570644948	 0.097287
