19
gdb 36794	8.19716	0.5059	0.49537	1.2212	79.68	-0.2574	0.0321	0.2895	2159.0903	0.15593	-422.949747	-422.939702	-422.938758	-422.98635	34.816	
C	-0.0328645463	-1.1423780988	-0.0001910396	-0.414143
C	 0.0337894103	 0.0537297325	-0.0811535408	 0.27977
C	 0.0796704643	 1.5061485736	-0.1875573046	-0.207199
O	 1.3852237481	 1.9718515486	 0.0901748041	-0.246742
C	 1.4851727614	 3.3790258293	 0.0034371667	-0.034889
C	 2.9307211512	 3.7707651288	 0.2886323179	-0.240863
C	 3.1235812967	 5.2662259992	 0.2591867892	 0.092988
C	 4.3330234949	 5.8920637087	-0.2872170442	-0.179085
O	 3.1144323754	 5.8865109906	-1.0321255186	-0.235956
H	-0.0850053588	-2.2005363158	 0.0722616264	 0.200356
H	-0.2332916353	 1.8139846357	-1.2001930157	 0.120435
H	-0.6469834514	 1.9518428183	 0.5139188886	 0.117553
H	 1.1915872041	 3.7304909328	-0.9988163987	 0.108154
H	 0.8042329562	 3.8576565879	 0.7293853114	 0.085313
H	 3.2174900933	 3.3819120839	 1.2730793908	 0.114436
H	 3.5818628612	 3.298981334	-0.4540925346	 0.116522
H	 2.5665183642	 5.8264820009	 1.0134138845	 0.092087
H	 4.6539318781	 6.866121191	 0.079458446	 0.115514
H	 5.1271836123	 5.2617125788	-0.6854702189	 0.11575
