21
gdb 106548	1.97769	1.58023	1.25521	2.027	78.51	-0.2548	0.0611	0.3159	1142.1566	0.182163	-424.170398	-424.161208	-424.160264	-424.203929	35.506	
C	-0.4021782053	 1.410551084	-0.0137238337	-0.452152
C	 0.0340092319	-0.0439393378	 0.093699494	 0.010368
C	 1.2164928204	-0.6239138148	-0.7540146898	-0.119575
C	 2.1965936089	 0.1060324404	 0.2147340014	-0.298364
C	 1.1087768315	-0.5137005233	 1.1404129725	 0.279121
C	 0.9782131835	-0.525838324	 2.6391020907	-0.201458
O	-0.1130939045	-1.3455845331	 3.0381111434	-0.428722
C	 1.2838581819	-1.7987411042	 0.2647373977	 0.128792
O	 0.3291324704	-2.8344853423	 0.315841191	-0.453214
H	 0.4284694101	 2.1202405244	-0.0214699253	 0.119485
H	-0.9771816704	 1.5679463109	-0.9329451348	 0.118856
H	-1.0543855198	 1.6723528469	 0.8265526437	 0.127838
H	-0.8719336218	-0.6619072559	 0.0895692584	 0.04333
H	 1.2893171335	-0.6806520958	-1.8414223095	 0.072136
H	 3.2029269266	-0.3150227639	 0.2968583797	 0.094691
H	 2.23667927	 1.1918244017	 0.1501930539	 0.103717
H	 1.9258143872	-0.8652171811	 3.0911632728	 0.086253
H	 0.7738029837	 0.4768377954	 3.0328701404	 0.1059
H	-0.0322303055	-2.1766638763	 2.5537068107	 0.289145
H	 2.2557443384	-2.2918907573	 0.3517298031	 0.083035
H	-0.5268757607	-2.4933796337	 0.0365667996	 0.290818
