15
gdb 15540	3.3121	2.01334	1.40637	1.3694	66.87	-0.2543	0.0135	0.2678	872.563	0.118412	-362.640482	-362.632871	-362.631927	-362.673167	27.789	
C	 0.0688328757	 1.532734783	-0.1816935521	-0.387818
C	 0.0145056204	 0.0245049999	 0.0421841829	 0.010395
N	 0.4992689072	-0.7043762829	-1.1443193235	-0.264092
C	 1.4324112391	-1.4607829252	-0.7508576063	 0.120743
O	 1.7851177687	-1.4917580056	 0.5570061955	-0.222531
C	 0.9071404895	-0.5340721549	 1.2209133012	-0.094208
C	 1.7039759792	 0.4379200718	 1.9523695167	 0.35324
C	 2.3425592932	 1.2416767679	 2.5765757592	-0.468299
H	 1.0943406433	 1.8643105288	-0.3634259936	 0.130508
H	-0.5379519384	 1.7888751012	-1.053721394	 0.129262
H	-0.317554074	 2.0725612275	 0.687201218	 0.120332
H	-1.0258290281	-0.2690449083	 0.2206719466	 0.096538
H	 2.0140387651	-2.1261803884	-1.3796031112	 0.144888
H	 0.2983089508	-1.1071863468	 1.9273097172	 0.123473
H	 2.9115761283	 1.951462362	 3.1251409635	 0.207568
