20
gdb 73217	2.11605	1.88893	1.43973	2.9214	79.15	-0.2531	0.0283	0.2813	1026.0852	0.172596	-403.168019	-403.159852	-403.158908	-403.200615	31.822	
C	-0.0421545225	 1.5239522113	-0.0187401499	-0.46982
C	-0.003519386	 0.003731113	 0.0280046497	 0.240005
C	-1.3142172313	-0.7481993692	 0.4125607229	-0.257328
C	-0.4850405268	-1.6950082924	 1.3232280473	-0.238461
C	 0.7419610948	-0.7485050082	 1.1740844344	-0.062274
C	 1.9895988968	-1.325820087	 0.5199752246	-0.11319
O	 1.6913773362	-1.4001323748	-0.887167058	-0.248971
C	 0.6421757482	-0.5862926929	-1.2155109972	 0.367518
N	 0.2553719772	-0.3664222314	-2.3976181171	-0.544665
H	 0.9635008849	 1.9495960487	-0.1070949049	 0.115441
H	-0.6189104668	 1.8546220708	-0.8873355353	 0.147169
H	-0.5055824081	 1.9285155968	 0.8869422617	 0.108221
H	-1.9849788888	-0.1010291959	 0.9844980553	 0.101458
H	-1.8742090272	-1.1948752587	-0.4108386199	 0.119204
H	-0.8565771902	-1.842773462	 2.3389864315	 0.102176
H	-0.310627479	-2.6772363487	 0.8746986497	 0.111199
H	 0.9628574651	-0.1579677918	 2.064492734	 0.076338
H	 2.8679645358	-0.6827804283	 0.6587803216	 0.109707
H	 2.2393109356	-2.3355225241	 0.8595526852	 0.117006
H	 0.844713092	-0.8601196549	-3.0699109158	 0.219268
