15
gdb 131506	4.5572	1.21651	0.99278	4.5287	67.9	-0.2499	-0.0386	0.2113	1112.2844	0.113043	-453.92173	-453.914235	-453.913291	-453.953923	28.059	
O	 0.3355173892	 1.0983710428	-0.6079566044	-0.419726
C	-0.0198652972	-0.082397429	 0.0769466479	 0.125238
C	 0.5326675778	-0.1525376414	 1.5526026429	-0.391516
C	-0.6293563384	-0.770183246	 2.2540584481	 0.383041
C	-1.7602926527	-0.7821427631	 1.5003131188	 0.224298
C	-1.5808150124	-0.1735567913	 0.1488674072	-0.356856
N	-2.7436804927	-1.3365009536	 2.269908358	-0.183757
N	-2.326566479	-1.6624597175	 3.395048074	-0.040519
O	-0.8330273464	-1.2793644903	 3.4382339004	-0.257898
H	 1.2726770704	 1.0603208029	-0.8235107205	 0.290221
H	 0.3493707259	-0.9678360156	-0.4595332141	 0.090205
H	 1.4608111063	-0.725465245	 1.6340735707	 0.128761
H	 0.7265393658	 0.8615431871	 1.9226474958	 0.14311
H	-2.0013053203	 0.8363556396	 0.0795591294	 0.137515
H	-1.9875224463	-0.7604044994	-0.6782678542	 0.127882
