21
gdb 71388	3.09501	1.36664	1.29977	1.3753	81.83	-0.2292	0.0774	0.3065	1101.9922	0.181594	-387.04173	-387.033227	-387.032283	-387.073885	34.821	
C	-0.0403860928	 1.4585127016	-0.0082871509	-0.435985
C	 0.0025203717	-0.0725233688	 0.0051167866	 0.335558
C	-1.4012584507	-0.6379144681	 0.2189698785	-0.460616
C	 0.8457206316	-0.625691848	-1.1512593001	-0.126471
C	 2.1305203116	-0.5162640214	-0.3505886257	-0.174972
C	 1.1810446216	-0.5783117611	 0.9143637826	-0.097276
C	 1.1817534578	-2.1301629394	 0.7932763243	-0.31818
C	 1.5634603464	-1.8856538484	-0.6633140821	 0.377737
O	 1.9716943179	-2.8099540162	-1.6027157405	-0.465255
H	 0.9581604758	 1.8860520199	-0.1403730989	 0.114142
H	-0.6751732932	 1.8289881747	-0.821234726	 0.108474
H	-0.4524687901	 1.8418100603	 0.9326089777	 0.106476
H	-2.0882003775	-0.2431929116	-0.5386936583	 0.111275
H	-1.429382224	-1.7271269892	 0.1464945389	 0.118036
H	-1.7978005163	-0.3502843082	 1.2001274373	 0.108714
H	 0.7229142929	-0.4643976835	-2.2160445104	 0.082045
H	 3.0783522135	-0.0432513319	-0.5602387064	 0.089426
H	 1.3740398106	-0.1022695141	 1.8746493616	 0.064701
H	 2.0241576912	-2.5598060586	 1.3469993371	 0.086187
H	 0.2683326266	-2.6815813791	 1.0381486075	 0.092089
H	 2.7776678856	-3.2291237889	-1.2811575828	 0.283895
