12
gdb 43433	3.44645	1.30289	0.94547	2.4085	77.39	-0.2745	-0.1056	0.1689	1127.8961	0.077191	-435.510995	-435.503625	-435.502681	-435.543047	27.341	
N	-0.0237503287	 1.2954832929	 0.0107756736	-0.517445
C	-0.0266320951	 0.033815722	 0.0034937949	 0.439558
O	 1.1101554926	-0.7608626758	-0.006608831	-0.229017
C	 0.7307757851	-2.0949702157	-0.0125298333	 0.380227
O	 1.5167126609	-2.9884831015	-0.0214129922	-0.299811
C	-0.7724508897	-2.1232838702	-0.0053421482	 0.03656
C	-1.1957571983	-0.8449034014	 0.0040806235	-0.309999
C	-1.5021213617	-3.3256591053	-0.0087070437	 0.250095
C	-2.1093447902	-4.3648772045	-0.0117738889	-0.368619
H	 0.930461096	 1.6602714361	 0.0082609962	 0.246689
H	-2.2077128524	-0.4699092324	 0.0111703187	 0.159305
H	-2.6420922287	-5.2841740342	-0.0146450497	 0.212456
