17
gdb 45162	2.96276	1.77812	1.54395	3.0919	70.73	-0.236	-0.0126	0.2234	903.93	0.138952	-421.854835	-421.84845	-421.847506	-421.88556	26.54	
O	 0.0273601021	 0.041739875	 0.5053823044	-0.33662
C	-0.0028165327	 1.1840328367	 0.1074696019	 0.422155
C	-1.3109932557	 1.9415264053	-0.1403592612	-0.324974
C	-1.0112594427	 3.337718042	-0.6936251916	 0.0453
C	-0.1438288442	 3.2240313285	-1.9664650744	-0.241562
C	 1.221128062	 2.9678030115	-1.3495009805	-0.117195
C	 1.1182139477	 3.506009618	 0.0339866172	 0.096041
O	-0.1683446291	 4.0175476464	 0.2566393385	-0.259202
C	 1.2201326897	 1.9896600743	-0.1546480522	-0.198874
H	-1.9397398984	 1.3593254563	-0.8225507359	 0.127453
H	-1.8444431334	 2.0128751864	 0.8135397085	 0.138385
H	-1.9127703917	 3.9389482847	-0.8189303567	 0.091785
H	-0.4940772021	 2.4292436756	-2.6307557869	 0.11405
H	-0.1302274812	 4.164844455	-2.5252947033	 0.114793
H	 2.1221595234	 3.0397867987	-1.9450635374	 0.10528
H	 1.8904752798	 4.0475762603	 0.5645020159	 0.117645
H	 2.1595311864	 1.5085565353	 0.0907574139	 0.105538
