19
gdb 124552	3.6785	0.96158	0.91508	3.5099	79.3	-0.2134	0.0193	0.2327	1375.6625	0.15891	-419.218889	-419.209562	-419.208617	-419.253198	34.71	
C	-0.0474921369	 1.5888811947	 0.1844394738	-0.388717
C	-0.0381780698	 0.0597173106	 0.0157813801	-0.076307
C	 0.8788083525	-0.613951222	 1.0511931853	-0.388849
C	-1.4330168174	-0.5011175462	 0.0788180008	 0.422701
N	-1.9260032517	-1.1136009136	-0.9717918324	-0.237698
O	-3.2314437878	-1.511680575	-0.5892270413	-0.218494
C	-3.4496163034	-1.1152049053	 0.6693876054	 0.489118
N	-4.7029756234	-1.3715411393	 1.1723681117	-0.594297
C	-2.3533158339	-0.4673547052	 1.1653603901	-0.444942
H	 0.9665082444	 1.9902343064	 0.0879300943	 0.113248
H	-0.6777536671	 2.0655918633	-0.5716072469	 0.126725
H	-0.4283273434	 1.8764855883	 1.17048414	 0.113756
H	 0.3392557427	-0.1754754403	-0.9854833568	 0.09905
H	 0.5386940359	-0.4121505713	 2.0728609311	 0.113024
H	 0.9023445922	-1.6985549193	 0.9120562712	 0.124761
H	 1.9017824893	-0.234897838	 0.9594349729	 0.113794
H	-5.1825033345	-2.133073381	 0.7132013009	 0.266364
H	-4.7507644266	-1.4304418881	 2.1781920296	 0.264108
H	-2.227315851	-0.0318062388	 2.1418671501	 0.102655
