20
gdb 101506	5.44781	0.54233	0.51953	5.5353	94.72	-0.2813	-0.0362	0.2452	2108.3084	0.169217	-366.017406	-366.006914	-366.005969	-366.053778	37.02	
C	-0.108719147	 1.5413962192	 0.1295496499	-0.399879
C	-0.0030360266	 0.0207532526	-0.0202056232	-0.166239
C	 0.7815812837	-0.4447313478	-1.2602041622	 0.04042
C	 2.2526286097	-0.0140570041	-1.2306691917	-0.394815
C	 0.6568671054	-1.9872279531	-1.3887849847	-0.387067
C	 1.2276095588	-2.5256069577	-2.6109612563	 0.04821
C	 1.6983814388	-2.9565760741	-3.6378426866	 0.091241
C	 2.2308179823	-3.4478678699	-4.7945184205	 0.201071
N	 2.68494011	-3.8652922767	-5.7793040474	-0.340052
H	 0.8685739156	 2.0074043583	 0.2850520727	 0.124013
H	-0.5578555304	 1.9960368865	-0.7604535481	 0.119063
H	-0.7361215646	 1.802094015	 0.9871727227	 0.119191
H	 0.4643538391	-0.4062939094	 0.8781145454	 0.097817
H	-1.0151619677	-0.401661003	-0.0666218774	 0.096145
H	 0.3081694957	-0.0063910433	-2.1489250144	 0.090909
H	 2.7905331981	-0.3843171597	-2.1079416395	 0.132113
H	 2.3486116083	 1.0743731487	-1.2187695072	 0.124676
H	 2.7557358209	-0.4049474833	-0.3378212325	 0.115316
H	 1.1443642197	-2.4647433823	-0.5273988333	 0.144133
H	-0.4012687197	-2.275430366	-1.3414963358	 0.143734
