19
gdb 100640	2.15284	1.2747	0.97659	3.0546	71.9	-0.2471	0.0109	0.258	1263.465	0.156901	-456.340189	-456.329503	-456.328559	-456.375369	38.758	
C	-0.0206331176	 1.5374758582	 0.0110300454	-0.397407
C	 0.0290339084	 0.0048339627	 0.010947332	 0.185564
O	 0.7381065676	-0.3712284734	 1.1939681819	-0.450831
C	-1.3519464566	-0.5282394271	 0.0785597822	 0.257793
N	-2.4202677844	-0.9643153214	 0.147850352	-0.346054
C	 0.7447214569	-0.5402640331	-1.2586815368	 0.035842
N	 2.1019645828	-0.0039206494	-1.282541626	-0.526694
C	 0.6930090123	-2.0730413594	-1.3570189904	-0.119745
O	 1.3971913489	-2.4187890411	-2.5402767023	-0.421292
H	 0.9976147013	 1.9183707984	-0.0651618641	 0.156728
H	-0.5984971851	 1.8997734322	-0.8423064357	 0.132522
H	-0.4843800208	 1.8900471899	 0.9341321008	 0.136421
H	 0.5953274487	-1.3092487565	 1.3610067784	 0.29531
H	 0.2092447668	-0.1478744076	-2.1326923561	 0.104195
H	 2.5713653383	-0.2751238738	-0.4217270499	 0.230541
H	 2.60152234	-0.4494520516	-2.0463431906	 0.245386
H	 1.1745454147	-2.5212297635	-0.4706487284	 0.071261
H	-0.3481496378	-2.4229267023	-1.3947786816	 0.1163
H	 1.3763099156	-3.3744614811	-2.6413956208	 0.294161
