20
gdb 8210	2.69402	2.36638	1.55676	1.7564	74.37	-0.2459	0.0874	0.3333	910.1	0.176735	-349.024781	-349.01662	-349.015676	-349.056604	31.699	
C	-0.1132099349	 1.506456806	-0.0169704895	-0.486326
C	 0.1358290645	 0.0229853156	-0.0171255453	 0.362822
C	 0.3527753888	-0.7020981093	-1.3384083093	-0.27285
C	 0.7500523259	-2.1378865962	-0.9282572549	-0.214169
C	 1.4302585823	-1.9892816395	 0.4511548258	-0.27285
C	 0.7846893639	-0.7521574131	 1.0605484411	 0.362821
C	 1.3150927056	-0.1998314165	 2.3552751362	-0.486326
O	-0.6507389186	-0.7620248487	 0.9047665287	-0.343012
H	 0.7030395389	 2.0371037065	-0.5192144704	 0.118182
H	-1.0396947016	 1.736772806	-0.5548838312	 0.126379
H	-0.211563577	 1.8965298741	 0.9982856512	 0.126714
H	-0.536758716	-0.6764983891	-1.9768899707	 0.101644
H	 1.1615410981	-0.2026168438	-1.8874124241	 0.096311
H	-0.1497061679	-2.7477339472	-0.8251654495	 0.118045
H	 1.3951030715	-2.6224824828	-1.665194506	 0.093383
H	 1.3045887729	-2.8762093347	 1.0813542926	 0.101644
H	 2.5089056657	-1.8122056133	 0.350389938	 0.096311
H	 2.3827498334	 0.0304629671	 2.2705918157	 0.118181
H	 0.7840684133	 0.7071499362	 2.6518779478	 0.126714
H	 1.1965959812	-0.9347764574	 3.1593799938	 0.12638
