17
gdb 49244	2.95833	1.46307	1.08056	4.8195	75.92	-0.2454	-0.0597	0.1856	1102.5011	0.136866	-421.829523	-421.821955	-421.821011	-421.862109	28.171	
O	 0.0216248293	-0.0260755424	 0.2321139151	-0.261329
C	 0.1011139719	 1.1773863912	 0.3285645825	 0.069556
C	 1.3280794315	 1.9449357399	 0.0864750662	 0.23997
C	 1.4028929386	 3.2847537705	 0.0865418056	-0.144761
C	 2.7720790531	 3.8066887078	-0.2659534181	-0.285646
C	 3.6277468845	 2.5284052995	-0.375732347	-0.0868
C	 4.2571400204	 1.9814783942	 0.9248917034	-0.077795
O	 3.369857345	 0.8437012371	 0.9485971911	-0.285482
C	 2.665586128	 1.3179546482	-0.2262833573	 0.017084
H	-0.7853493764	 1.7941854433	 0.6008168965	 0.067674
H	 0.5645879142	 3.9430532637	 0.2976172937	 0.114132
H	 2.7392527405	 4.3696295237	-1.2080830503	 0.123912
H	 3.1506206549	 4.5076740969	 0.489488732	 0.121691
H	 4.2947564007	 2.5248240586	-1.2371372321	 0.087377
H	 5.3065008565	 1.6725248636	 0.8547341236	 0.107036
H	 4.1335729831	 2.6232421586	 1.8078748822	 0.098301
H	 2.6182817039	 0.5428224357	-0.9963104473	 0.095079
