18
gdb 70563	2.6373	1.55513	1.16793	3.0452	71.9	-0.2217	-0.0102	0.2115	1069.4716	0.147946	-439.081733	-439.073713	-439.072769	-439.114119	31.835	
O	 0.1074763753	 1.2145585177	 0.465318364	-0.468545
C	 0.020394496	-0.0657127484	-0.0943531875	 0.396432
C	-0.7821164172	-0.2414131575	-1.3625074602	-0.36291
C	-1.3397451931	-0.6910970211	-0.0221068818	-0.049077
N	-1.2815544941	-2.0906715394	 0.3005393439	-0.308929
C	-0.6027571835	-2.3323900667	 1.5700634243	-0.264395
C	 0.8344262692	-1.7971743831	 1.5173403012	 0.406479
O	 1.6155998834	-1.9877744699	 2.4158140178	-0.30868
C	 1.1701206508	-1.009557002	 0.2526302786	-0.367121
H	 0.7715392721	 1.7099917371	-0.0270724912	 0.284075
H	-1.2083057971	 0.6584659311	-1.7916737543	 0.114212
H	-0.4895212998	-1.0139462223	-2.0646285792	 0.115932
H	-2.123972596	-0.0750361698	 0.4207767098	 0.090025
H	-2.1883038153	-2.5376645494	 0.2591987628	 0.228472
H	-1.0890058179	-1.8691077861	 2.4476261975	 0.116355
H	-0.5516843369	-3.4084878893	 1.765982113	 0.130716
H	 1.3257134336	-1.7335825339	-0.5546833651	 0.131936
H	 2.1035657608	-0.4648044768	 0.4108688766	 0.115023
