20
gdb 82630	2.40055	1.72333	1.34158	2.8066	79.23	-0.2284	0.0717	0.3001	1055.6623	0.170142	-403.095162	-403.086342	-403.085398	-403.127926	34.054	
C	-0.1106358931	 1.4716177155	-0.0158382291	-0.509176
C	-0.0139535834	-0.0186934307	-0.1003991299	 0.272438
C	 0.8677713264	-0.8447194271	-1.0216564594	 0.09627
O	 2.2562926318	-0.7444576577	-0.802949146	-0.441982
C	 0.0863555697	-2.091612312	-0.5141770292	-0.200768
C	 0.442461595	-2.1071832252	 0.9758266925	-0.150158
N	-0.2996493519	-0.8141854475	 1.1530422966	-0.227122
C	-1.0600581111	-1.0826946859	-0.1063292225	 0.310289
C	-2.5438161281	-1.0751176145	-0.2488892105	-0.532215
H	 0.8140439036	 1.8942457763	 0.3910026262	 0.135817
H	-0.2776350985	 1.9120151204	-1.0050189068	 0.112976
H	-0.93219146	 1.7689534287	 0.6411115881	 0.129194
H	 0.6077500529	-0.6272423003	-2.0676084424	 0.067506
H	 2.7108929599	-1.262964921	-1.4744647802	 0.282598
H	 0.0045649283	-2.9900640491	-1.1252649083	 0.063401
H	-0.0766451163	-2.8843705101	 1.5426463326	 0.099897
H	 1.5025925465	-2.0778619864	 1.2451784452	 0.107687
H	-2.9653296893	-0.1931855406	 0.2431671096	 0.134906
H	-2.8417684668	-1.0535033056	-1.3031163688	 0.121533
H	-2.9947608257	-1.9624569872	 0.2093533421	 0.126907
