17
gdb 64739	3.14857	1.09662	1.04202	0.6655	74.96	-0.255	-0.0367	0.2183	1211.7492	0.131942	-421.791982	-421.782571	-421.781627	-421.826506	34.029	
C	-0.1302315433	 1.634637049	 0.200444559	-0.431463
C	 0.0086192844	 0.1263253633	 0.060128216	 0.266947
C	-1.3097777473	-0.5841931383	-0.3105692858	-0.385342
C	-1.9093368216	-0.0890205794	-1.5420867739	 0.309557
C	-2.3969335016	 0.3273492189	-2.5583406861	-0.437846
O	 1.0954574071	-0.2435047891	-0.838197618	-0.317445
C	 1.8652425662	-0.9044006138	 0.1841412092	-0.19549
C	 0.7694001833	-0.5773046221	 1.2021802064	 0.311637
O	 0.5672629365	-0.7806290464	 2.3597880507	-0.28332
H	 0.8286609822	 2.0875131956	 0.4647338345	 0.125098
H	-0.472874133	 2.0630268936	-0.7450426864	 0.150471
H	-0.8583743174	 1.8775859849	 0.9804141303	 0.133393
H	-1.1159597624	-1.6594473231	-0.4009178797	 0.136318
H	-2.0064676399	-0.4591678934	 0.5281083842	 0.147145
H	-2.8319510013	 0.6856533265	-3.4583318152	 0.199981
H	 2.0199314312	-1.9731560239	-0.0115294453	 0.135038
H	 2.8362480369	-0.4280098922	 0.3701967101	 0.13532
