18
gdb 86530	3.04736	1.09476	0.85468	3.2157	75.71	-0.2429	-0.07	0.1729	1348.3105	0.146195	-439.107325	-439.097979	-439.097035	-439.14254	32.497	
C	 0.0968944907	 1.3882291597	 0.2428934039	-0.404126
C	-0.1052329763	-0.0952384129	-0.0248746186	 0.000917
C	 0.9501729316	-0.7891582248	-0.9424529211	-0.185135
N	 1.2806361906	-1.6785613214	 0.1693261845	-0.071067
C	 0.3273852861	-1.0736399889	 1.1109681573	-0.17733
C	 2.1919182459	-2.6671069937	 0.2018925869	 0.275944
O	 2.9000564811	-2.9838408755	-0.7436281511	-0.36806
C	 2.3269928688	-3.4266932758	 1.5207548072	 0.094605
O	 1.6948405495	-3.2057315929	 2.5213716074	-0.246606
H	 1.1182336352	 1.5923675794	 0.5830882273	 0.123389
H	-0.0793238377	 1.9791820398	-0.6619984903	 0.124415
H	-0.5915117763	 1.7468224091	 1.0153526037	 0.124415
H	-1.1270811179	-0.2850401316	-0.3612294362	 0.089137
H	 0.5634352049	-1.3149064234	-1.8211735349	 0.126442
H	 1.7897198078	-0.1575205249	-1.2547015436	 0.123776
H	 0.8039357323	-0.6012125395	 1.975602653	 0.125382
H	-0.437491693	-1.7654563395	 1.4726642274	 0.128477
H	 3.0957915867	-4.2232223733	 1.4474817772	 0.115427
