15
gdb 24239	4.01823	1.59969	1.2436	4.4221	70.08	-0.2141	0.0225	0.2366	951.3959	0.11644	-416.820683	-416.814464	-416.81352	-416.851171	25.13	
C	-0.0672173176	 1.5363487417	-0.0102536957	-0.393263
C	 1.4429260766	 1.8737893139	-0.0223790328	 0.063663
O	 2.1715967574	 1.4344295674	 1.1192591504	-0.253963
C	 2.2538328656	 0.6347056505	-0.0903114922	-0.121687
C	 1.2668105365	-0.4704891588	-0.1028435891	 0.299164
C	 0.0007796922	 0.0389077926	-0.0351539754	 0.294362
N	-0.8234738303	-1.0495885482	 0.0706548881	-0.371601
C	-0.0034861977	-2.1572746265	 0.0289667846	-0.014209
N	 1.2707280894	-1.8400993201	-0.0684812117	-0.346546
H	-0.548764545	 1.9446092683	 0.8858694631	 0.130868
H	-0.5693142965	 1.9712648964	-0.8836331232	 0.115842
H	 1.7656275506	 2.8202908112	-0.4487007056	 0.097202
H	 3.2370238252	 0.5792424215	-0.5448312261	 0.103255
H	-1.8280022153	-1.0609283995	 0.1292099536	 0.267021
H	-0.4049404012	-3.1590596406	 0.0638482119	 0.129894
