19
gdb 95110	2.41816	1.54729	1.16492	1.9471	82.06	-0.2351	0.0529	0.288	1115.7868	0.159118	-385.857084	-385.848495	-385.847551	-385.889892	33.754	
O	-0.0814661126	 1.4507797656	 0.0479877164	-0.4374
C	-0.0119066192	 0.0346169236	-0.001160845	 0.061186
C	 0.6896057523	-0.5952982084	 1.2263941732	-0.277344
C	 0.0078933997	-1.9615211889	 1.4432548604	-0.224963
C	-1.4110084366	-1.7688380444	 0.9256471234	-0.080736
C	-2.1477971289	-0.5269123198	 1.3330726091	-0.325954
C	-1.421152489	-0.5559044233	-0.0045025442	 0.201408
C	-2.1711045761	-0.5285252715	-1.2234090563	 0.172025
C	-2.7875894457	-0.506131673	-2.2565993856	-0.392167
H	 0.8041971744	 1.7980348577	-0.0965056	 0.282534
H	 0.4847408308	-0.2883150255	-0.9284170113	 0.073444
H	 1.7705927268	-0.6821880213	 1.0850036742	 0.095731
H	 0.529721626	 0.0673274637	 2.0824784799	 0.114938
H	 0.5045346358	-2.7397186751	 0.8524617293	 0.105665
H	 0.0403095734	-2.2826277204	 2.4901989165	 0.104111
H	-1.9952181327	-2.6424672595	 0.6606988374	 0.097047
H	-3.2294827292	-0.5529508707	 1.2822729489	 0.125845
H	-1.7495739715	 0.1101090896	 2.1147849748	 0.123828
H	-3.3369342578	-0.4797560084	-3.1643688912	 0.180803
