21
gdb 15433	3.26032	1.24891	1.04043	1.9909	76.62	-0.2175	0.0795	0.2969	1236.9569	0.187219	-366.218324	-366.208793	-366.207849	-366.252979	33.756	
C	 0.2955227008	 1.6564897264	-0.0308489353	-0.370537
C	-0.22703082	 0.226818602	-0.1487507248	-0.126349
N	 0.4857964174	-0.4788694867	-1.2141729828	-0.086426
C	 1.7146797524	-1.1884058924	-0.8644610635	-0.24704
C	 0.4869278805	-1.9391687838	-1.2480804472	-0.018353
C	-0.2539062897	-2.8208220564	-0.2616226001	-0.094648
O	 0.1995636314	-2.6322022822	 1.0621399455	-0.219598
C	-0.4790866578	-3.445358533	 1.9908583459	-0.229105
H	 1.3516827461	 1.6623646697	 0.2586520591	 0.1159
H	 0.2056036782	 2.180499456	-0.9867236495	 0.121888
H	-0.264944732	 2.2122136366	 0.727555877	 0.106306
H	-0.1509720816	-0.2864106386	 0.8200025867	 0.106239
H	-1.2893272056	 0.2454300189	-0.4240592319	 0.09287
H	 2.5427136545	-1.0865979281	-1.5616147664	 0.105975
H	 1.9938517702	-1.2347442146	 0.185464069	 0.124954
H	 0.4186215474	-2.3370716831	-2.2605674211	 0.088831
H	-1.3397609621	-2.6265508773	-0.3213837324	 0.092565
H	-0.1050799014	-3.8719330676	-0.5641696214	 0.093212
H	-0.3467190446	-4.5151219	 1.7649071662	 0.106967
H	-0.057728992	-3.2370180932	 2.9769772389	 0.129332
H	-1.5590013821	-3.2305054727	 2.0110692781	 0.107015
