18
gdb 24219	3.8329	1.54281	1.20494	1.7867	82.14	-0.1855	0.0474	0.2328	1027.6398	0.151927	-364.8406	-364.833892	-364.832948	-364.871356	28.13	
C	-0.0246663306	 1.4728959337	 0.0916997757	-0.278632
C	 1.3016769344	 0.7550995739	 0.0374053486	-0.019301
C	 2.0353978554	 0.4207489752	 1.3524845021	-0.374899
C	 1.0429514336	-0.4961458744	 2.0056292597	 0.27511
C	-0.0644723522	-0.7808415975	 1.2451255219	 0.318723
C	-0.9065072446	-1.6348877095	 2.0081438833	-0.340331
C	-0.2691941884	-1.8351902608	 3.2162886135	-0.07481
N	 0.9158704709	-1.1251401592	 3.2131430306	-0.365198
C	-0.006946173	-0.0370394054	-0.0413638795	-0.186124
H	-0.3615663932	 1.8880866071	 1.0365396117	 0.109352
H	-0.2958865855	 2.0593332364	-0.7811398385	 0.103105
H	 1.90672939	 0.8966043114	-0.8504159505	 0.081732
H	 2.9994022863	-0.0664485165	 1.1501235006	 0.104358
H	 2.2554740033	 1.3225286627	 1.9388409025	 0.107545
H	-1.859037129	-2.0572098974	 1.726231813	 0.089711
H	-0.5530393572	-2.4262533121	 4.0725243736	 0.11199
H	 1.5822695711	-1.1166387655	 3.9650696599	 0.256253
H	-0.3374117612	-0.4888762221	-0.970218068	 0.081417
