13
gdb 16517	3.93369	2.52388	1.81323	3.0297	58.43	-0.2244	-0.0542	0.1702	694.2352	0.093778	-398.448017	-398.441833	-398.440889	-398.477799	24.793	
O	 0.0765920154	 1.3525227782	 0.0568057751	-0.452314
C	-0.0013729048	-0.0151052458	-0.0772465227	 0.336844
C	 0.8472703788	-0.7709190353	-1.1374963524	-0.229486
N	 0.4738864274	-2.1951500704	-0.8789565808	-0.21918
C	-0.5819209517	-2.0560935652	-0.1926128143	 0.268157
O	-0.6274557282	-2.3413678763	 1.177497925	-0.261965
C	-0.6708115069	-0.8415782602	 1.2104843457	-0.008261
C	-1.3217692156	-0.6811292842	-0.087352828	-0.237567
H	 0.9655835441	 1.5821956484	 0.3511171977	 0.297991
H	 0.6352561896	-0.3845695491	-2.1456927671	 0.119939
H	 1.928063034	-0.7086930187	-0.9672975462	 0.126078
H	-0.8344285768	-0.3972809989	 2.1850224947	 0.134973
H	-2.3123683652	-0.3880598724	-0.4109908066	 0.12479
