19
gdb 26499	3.59339	1.22327	0.99403	2.4127	82.34	-0.1974	0.0492	0.2466	1212.8703	0.161204	-382.082336	-382.074088	-382.073143	-382.115308	32.29	
C	-0.3001386025	 1.286059311	-0.8245255841	-0.480108
C	-0.0272548345	 0.0150995862	-0.0440624029	 0.198981
C	 1.1432669801	-0.8136897605	-0.46549669	-0.269063
N	 1.1969927385	-0.0451414067	 0.7878202201	-0.343836
C	-1.2151261518	-0.6456528038	 0.5592828216	 0.293771
C	-2.5337202738	-0.483403504	 0.1868956689	-0.205236
N	-3.3028140916	-1.2922415156	 0.9861759103	-0.244111
C	-2.5001525664	-1.9680560563	 1.8698855508	-0.07104
C	-1.2022027915	-1.5891246588	 1.6310134274	-0.264106
H	 0.6270317862	 1.7000135692	-1.2342504057	 0.104672
H	-0.9758131151	 1.0976131377	-1.6661350693	 0.121846
H	-0.7650710431	 2.0450938787	-0.1862219161	 0.124635
H	 1.1072765536	-1.8918488146	-0.3371791058	 0.115685
H	 1.7313858024	-0.476009272	-1.3162212938	 0.10273
H	 1.7453336123	 0.8007386089	 0.6510575388	 0.223428
H	-2.9863510584	 0.1318801877	-0.573426867	 0.110448
H	-4.3031397391	-1.3667450154	 0.9373356171	 0.258079
H	-2.9197008335	-2.648584753	 2.5933122396	 0.115552
H	-0.3253164716	-1.9142341486	 2.1674919001	 0.107674
