16
gdb 95615	2.35617	1.7314	1.04184	3.9191	67.72	-0.2685	-0.0729	0.1956	1089.7724	0.124655	-475.043366	-475.035348	-475.034404	-475.076357	29.964	
O	-0.0045352217	 1.4129059457	 0.0698213722	-0.442958
C	-0.0553608381	 0.0206889227	 0.0059734892	 0.060649
C	-1.4833728976	-0.5198179401	-0.1150677979	-0.257996
C	-1.4234161906	-2.0387860186	-0.1265263413	-0.086932
O	-0.6101154327	-2.5670353432	-1.1900358023	-0.256767
C	 0.5459052116	-1.956913871	-1.5698913049	 0.308737
N	 1.4171181827	-2.5300811765	-2.2850042698	-0.466359
C	 0.7484762562	-0.5004307112	-1.174821643	 0.299029
O	 1.4871441706	 0.2339245442	-1.7851876753	-0.29946
H	 0.6829212536	 1.6790100246	-0.5618167976	 0.298137
H	 0.3982010023	-0.4305482539	 0.9113277421	 0.100007
H	-2.0863470974	-0.1778030756	 0.7314692736	 0.129596
H	-1.9484273363	-0.1401874318	-1.0315751318	 0.127612
H	-1.0292825008	-2.4136427246	 0.8279155085	 0.120255
H	-2.4094492775	-2.4810226036	-0.2808522595	 0.132961
H	 1.1364745257	-3.4956663571	-2.4742017921	 0.233488
