18
gdb 87354	2.12184	1.22854	0.88737	3.2075	74.72	-0.2504	-0.0506	0.1998	1325.8294	0.144568	-439.082725	-439.072991	-439.072046	-439.118429	33.915	
C	-0.0066456107	 1.3833272792	-0.1851671025	-0.407643
C	 0.0855118427	-0.0991046888	 0.072509023	-0.020807
N	 1.3922689206	-0.7337408843	 0.0016666225	-0.358566
C	 0.7182015811	-0.6973083373	 1.3137849648	 0.186374
C	 1.3519912822	 0.1340589604	 2.4146502022	-0.370117
C	 2.6603959973	-0.4705546532	 2.8949344035	 0.159639
O	 2.9309412669	-0.6754830063	 4.0498130249	-0.237198
C	 0.08586273	-1.9846128966	 1.741876154	 0.103038
O	-0.1324092715	-2.8984936817	 0.9810726672	-0.270223
H	 0.896327934	 1.9075311375	 0.1339842152	 0.133367
H	-0.1246240038	 1.5603823282	-1.2594698574	 0.135829
H	-0.8721625618	 1.8194207801	 0.3238635079	 0.127625
H	-0.7518038031	-0.6829394023	-0.3068204235	 0.111767
H	 1.2905811909	-1.6816848291	-0.3638358687	 0.250492
H	 1.5781415065	 1.1360148329	 2.0345894202	 0.132812
H	 0.6789868941	 0.2404753559	 3.2713560007	 0.125029
H	 3.3716454898	-0.7161458758	 2.0767058315	 0.100813
H	-0.1784437154	-2.053415329	 2.8181513347	 0.097769
