20
gdb 93969	2.90558	1.18776	0.88125	5.4578	87.02	-0.2098	-0.0278	0.1819	1326.5476	0.171211	-403.193638	-403.184367	-403.183423	-403.22744	34.973	
C	-0.1048136915	 1.5655595867	 0.0003200992	-0.419374
C	 0.0386517439	 0.0401636928	 0.0274876175	-0.043046
C	 0.79865604	-0.5479578799	-1.1841420176	-0.22472
C	 1.4742114105	-1.8335161953	-0.660688713	-0.308797
C	 1.6230987358	-1.559166831	 0.8202470374	 0.140002
C	 2.4848250119	-2.3318847441	 1.6769681041	 0.04765
O	 3.1672721775	-3.2760908728	 1.3185367156	-0.303346
C	 0.8215306145	-0.522392339	 1.2038270097	 0.278316
N	 0.5870797584	-0.0406044276	 2.4570323972	-0.592226
H	 0.874822463	 2.0553711672	 0.0186024792	 0.124314
H	-0.6180864938	 1.8795829887	-0.9136226353	 0.128852
H	-0.6970523074	 1.9466837196	 0.8406894922	 0.109605
H	-0.9712546281	-0.3961516834	 0.0764952094	 0.098783
H	 0.142255536	-0.7174763988	-2.0418161842	 0.098039
H	 1.5672731971	 0.1687814967	-1.4967143472	 0.10222
H	 0.8464848438	-2.717692443	-0.8370508974	 0.105691
H	 2.4343166042	-2.0382813134	-1.1422987107	 0.116916
H	 2.5164691165	-2.0048171944	 2.7465630762	 0.018916
H	 1.1874940972	-0.3311935998	 3.2117839822	 0.26363
H	 0.2233867006	 0.8939182409	 2.5432680555	 0.258576
