18
gdb 95138	2.23945	1.91143	1.50053	2.0775	70.94	-0.2461	-0.0219	0.2242	960.9094	0.148982	-439.07214	-439.064458	-439.063513	-439.104189	29.877	
C	-0.1990223097	 1.5637415746	 0.0601388199	-0.405236
C	 0.0523322891	 0.0587368124	-0.0009944018	 0.102525
O	 0.7951523718	-0.3295293806	-1.1623456308	-0.268701
C	 2.2096681187	-0.3604212927	-1.0334246487	-0.108324
C	 2.6055404806	-0.901020665	 0.3693833856	-0.142665
N	 1.5103588202	-1.7585425388	 0.9185884648	-0.317453
C	 0.7590296056	-0.5113710762	 1.2652894899	-0.150965
C	 2.1342630699	 0.1574320456	 1.3682740942	 0.466928
O	 2.6162086745	 1.0811524248	 1.9512494153	-0.321338
H	 0.7329580812	 2.1267633615	 0.1602187786	 0.138489
H	-0.7119209186	 1.8933669421	-0.846948849	 0.1284
H	-0.8294531405	 1.8085089936	 0.9216589358	 0.124343
H	-0.9084634338	-0.4594580758	-0.1130293564	 0.094045
H	 2.5661732447	-1.0312663828	-1.821997211	 0.120355
H	 2.6624485098	 0.6288240734	-1.1991418023	 0.114445
H	 3.6224572973	-1.2973472938	 0.4056977494	 0.099659
H	 1.0418242479	-2.2912380186	 0.1867996278	 0.227265
H	 0.0948122012	-0.5535629938	 2.1314782989	 0.098226
