14
gdb 125136	3.21747	1.17554	0.87745	3.1469	67.05	-0.2548	-0.0336	0.2212	1236.8405	0.099454	-473.83593	-473.827598	-473.826654	-473.870116	28.459	
C	 0.0417428715	 1.503039034	-0.0142182286	-0.516006
C	-0.0467303375	 0.0109595897	 0.0039445673	 0.002308
C	-0.226192975	-0.8426620927	-1.0392697695	 0.478202
O	-0.4249780603	-0.5729963228	-2.3464216094	-0.226728
C	 0.1102331229	-1.422602736	-3.2967761798	 0.161535
O	-0.0981803406	-1.2467095585	-4.4509328063	-0.235179
O	-0.2566065441	-2.1239762999	-0.6486244205	-0.222014
N	-0.0750065243	-2.1567102455	 0.7438942885	-0.144433
C	 0.0374014358	-0.8998861794	 1.0965021497	-0.00772
H	 0.9923714829	 1.8539602006	 0.4007178565	 0.140803
H	-0.03793095	 1.8774644065	-1.03744086	 0.147536
H	-0.7613121875	 1.9603078874	 0.5733116092	 0.143211
H	 0.7165480901	-2.2237031162	-2.8509197733	 0.137002
H	 0.183719496	-0.6701230672	 2.1436276462	 0.141484
