21
gdb 120047	4.35978	0.93705	0.90068	1.6368	81.42	-0.2293	0.0755	0.3047	1401.7925	0.182592	-387.025243	-387.016887	-387.015943	-387.058809	32.252	
C	-0.0669068671	 1.5690256915	 0.0014031321	-0.379538
C	-0.0441519962	 0.0396646835	 0.0661920455	-0.163347
C	 0.7661457124	-0.5000039741	 1.251556529	-0.200331
C	 0.8057698536	-2.0209950806	 1.3106347787	 0.020286
C	 1.5018698808	-2.7433921671	 2.469422263	-0.152533
C	 0.4149605649	-2.8797399464	 3.5523620136	 0.095307
O	-0.7637439106	-2.2221871443	 3.0871832736	-0.290573
C	-0.4620145811	-2.8005790583	 1.7838199478	 0.052519
C	 0.4771614927	-3.8748140367	 2.4476913558	-0.152248
H	 0.9460380076	 1.9753017045	-0.0975677296	 0.111558
H	-0.6534896056	 1.9260323661	-0.8510797721	 0.108587
H	-0.5052861828	 1.9958319952	 0.9101506061	 0.116947
H	-1.0735648719	-0.3367993734	 0.1296162552	 0.097859
H	 0.3682735475	-0.3609682976	-0.8699142638	 0.089579
H	 1.7952865174	-0.1189105016	 1.1926421811	 0.086006
H	 0.3454602902	-0.1242277713	 2.1907815659	 0.110672
H	 1.1471508206	-2.4503751977	 0.3612274462	 0.071238
H	 2.5594904767	-2.802285498	 2.6946463638	 0.087367
H	 0.5971129294	-2.9476897585	 4.6164344853	 0.108508
H	-1.343650527	-2.9522446185	 1.1648149937	 0.083358
H	 0.5605156782	-4.9511171269	 2.400747719	 0.098779
