20
gdb 39603	3.20414	1.48955	1.08419	2.0193	78.12	-0.246	0.0184	0.2644	1117.5255	0.175483	-403.180398	-403.173345	-403.172401	-403.211627	29.01	
C	-0.0255922611	 1.5105352732	-0.0307008204	-0.194887
C	 1.3856399336	 2.1427954016	 0.0217107499	-0.190985
C	 2.2818643583	 1.5898382393	 1.1575358794	-0.243153
C	 2.2602207907	 0.0764107002	 1.0219193036	 0.076807
N	 3.013968714	-0.8060369268	 1.9419537732	-0.305373
C	 2.2727331254	-1.8350020675	 2.0359974481	 0.090678
O	 1.0385149204	-1.839351299	 1.4500403596	-0.257653
C	 0.8314105394	-0.432236109	 1.1620223265	 0.163173
C	-0.0235996043	-0.0410126948	-0.0210170286	-0.255617
H	-0.6048081634	 1.8589158584	 0.8345288182	 0.10383
H	-0.5541155385	 1.8719874749	-0.9186516599	 0.101794
H	 1.8917088472	 1.9601138314	-0.9355610552	 0.101663
H	 1.2886166227	 3.2295550447	 0.1148400112	 0.099152
H	 3.2978151592	 1.9875291962	 1.0727681605	 0.106901
H	 1.8953923753	 1.8891536185	 2.139758148	 0.099395
H	 2.6266852253	-0.1636861015	 0.0088074284	 0.081346
H	 2.5298906944	-2.7547130838	 2.5500319843	 0.133948
H	 0.3891271612	-0.0039542472	 2.0766445779	 0.07859
H	-1.0464246052	-0.422317501	 0.0611271465	 0.105153
H	 0.4065008252	-0.437319458	-0.9483181812	 0.105237
