12
gdb 8652	2.58526	1.84263	1.41147	3.8758	55.3	-0.3201	-0.0362	0.2839	881.9431	0.082176	-414.656544	-414.648417	-414.647473	-414.689083	28.498	
O	 0.0429290578	 1.338234726	 0.282136948	-0.418256
C	 0.0583595687	-0.0473426512	 0.0287423141	-0.105775
C	-1.4137501186	-0.5735814351	 0.0474838566	 0.067636
O	-2.0501133163	-0.1447247701	 1.2223501064	-0.41995
C	-2.1057744239	-0.0327043553	-1.1547546913	 0.262319
N	-2.5878100902	 0.4736533819	-2.0743135374	-0.31634
C	-1.414936845	-2.0456645552	 0.0059931344	 0.312694
N	-1.3528996714	-3.1970716662	-0.0395600772	-0.306402
H	-0.1944706734	 1.8023967831	-0.5301122561	 0.314331
H	 0.5472374175	-0.3110484214	-0.9150250991	 0.143434
H	 0.585882742	-0.5229503548	 0.8588365165	 0.157278
H	-1.7048252072	 0.7478903983	 1.385959215	 0.30903
