17
gdb 42478	4.3705	0.73047	0.64643	2.6061	78.45	-0.2555	-0.0283	0.2272	1673.948	0.13508	-417.966154	-417.956761	-417.955817	-418.001983	33.25	
O	-0.0388146927	 0.0607336531	 0.7599299748	-0.358709
C	 0.0090623412	 1.1068059737	 0.1386220047	 0.293762
N	 1.1452324513	 1.6146905225	-0.422685646	-0.323097
C	 2.4399011315	 0.9652701323	-0.293817624	-0.192265
C	 3.5126858293	 1.9404321046	 0.1267420381	 0.021873
C	 4.9197019481	 1.7223691177	-0.2799993457	-0.24225
N	 4.14397975	 2.8299997105	-0.8684779266	-0.320285
C	-1.164544671	 1.9451665134	-0.0769240329	 0.213289
C	-2.1501544758	 2.6138661661	-0.2403446563	-0.399832
H	 1.0860639293	 2.4990761458	-0.9026203336	 0.26004
H	 2.3118088962	 0.171035667	 0.446484047	 0.158073
H	 2.7282180291	 0.4867157002	-1.2419495268	 0.102797
H	 3.3204490754	 2.4339979228	 1.0771071874	 0.105621
H	 5.7278160197	 2.0256956497	 0.3784680491	 0.127565
H	 5.1420144584	 0.8568874891	-0.8993474361	 0.116037
H	 3.8464903034	 2.5655091867	-1.8061665382	 0.226256
H	-3.0292742733	 3.1955502049	-0.3760864048	 0.211123
