18
gdb 6902	2.9654	1.53702	1.37661	0.8356	64.8	-0.2222	0.0658	0.2879	1004.3263	0.15021	-422.036312	-422.026834	-422.02589	-422.070104	34.159	
C	-0.4099017806	 1.2061527629	 0.2443598993	-0.24481
O	 0.251137012	-0.0042666154	-0.0974850844	-0.25852
C	 0.8925540366	-0.5904386058	 0.9980000901	 0.034146
C	 0.1388605974	-1.7275382417	 1.6699029028	 0.024054
O	-1.1284635383	-2.043188923	 1.1800347878	-0.432233
C	 1.3837342227	-2.0032195907	 0.8351297839	 0.260747
C	 1.2938111577	-2.7227133553	-0.4877406267	-0.437187
O	 2.5702609669	-2.2184361624	 1.5603264518	-0.459284
H	 0.3072870217	 1.9601196029	 0.5975331507	 0.120011
H	-0.8939606187	 1.5724093039	-0.6636304849	 0.132617
H	-1.1670557622	 1.0508789515	 1.0248302179	 0.121923
H	 1.5057749693	 0.0817185015	 1.5961082842	 0.100297
H	 0.2189744555	-1.8503264828	 2.7462972421	 0.101734
H	-1.2816323323	-1.456891709	 0.4267730237	 0.292827
H	 0.3655746949	-2.4898499047	-1.0109350134	 0.125005
H	 2.1342933642	-2.4411148511	-1.1288994694	 0.127158
H	 1.327421822	-3.8073598536	-0.331171685	 0.109927
H	 2.5467120814	-3.1232694571	 1.8931930996	 0.28159
