17
gdb 43706	4.6223	1.13998	1.02674	2.4526	72.8	-0.2407	-0.0267	0.2141	1144.0653	0.13454	-421.756549	-421.749143	-421.748199	-421.789136	29.1	
O	 0.039412723	 0.0910570387	-0.6854486258	-0.286224
C	 0.000961736	 1.166660399	-0.1646891567	 0.401472
C	-1.1535027044	 2.0767474424	 0.3039539896	-0.462506
C	-0.0753338186	 3.0931115029	 0.7681227829	 0.41041
C	 1.0724115093	 2.1705190129	 0.2935818432	-0.434912
C	-0.0805853475	 4.6180034147	 0.5108024152	-0.02232
C	-1.1437100964	 4.8002615975	 1.6197719147	-0.230968
C	-0.0402663446	 3.8393790473	 2.1221490496	-0.022325
O	 0.9768995071	 4.7522336885	 1.54350062	-0.314982
H	-1.8125661228	 2.4062619301	-0.5057684375	 0.135761
H	-1.772669308	 1.6345788247	 1.0911710054	 0.135758
H	 1.7358497685	 1.7893107437	 1.0758853605	 0.139142
H	 1.6960190086	 2.5591868259	-0.5172922826	 0.139144
H	 0.0559780248	 5.162778669	-0.4244376857	 0.097735
H	-1.1453185811	 5.7818367593	 2.0941224434	 0.112919
H	-2.1467284087	 4.4012918726	 1.4520826787	 0.104161
H	 0.1447597048	 3.4483150907	 3.1236167951	 0.097735
