15
gdb 10019	2.93863	1.44536	0.97467	1.85	70.2	-0.2568	-0.0316	0.2253	1149.9477	0.118174	-396.005858	-395.997382	-395.996438	-396.039192	28.979	
C	-0.1292355555	 1.3368639634	 0.3577655208	-0.315431
N	 0.0194218907	-0.0673805485	 0.0340958115	-0.226056
C	 0.399647802	-0.8404244997	 0.9561095927	 0.120994
N	 0.5744988431	-2.223789264	 0.74185963	-0.146051
C	 0.9989153331	-3.0514373627	 1.7926314346	 0.098505
N	 1.2345766986	-2.5880523109	 2.9490849838	-0.459553
C	 0.3306003218	-2.7989156356	-0.5142652139	 0.170437
O	 0.4660469157	-3.9750137398	-0.7451458729	-0.305772
H	 0.5165874751	 1.9307126033	-0.2985008571	 0.135622
H	-1.1601190048	 1.6484133086	 0.1561636876	 0.135621
H	 0.113770607	 1.5781433598	 1.4037226999	 0.109355
H	 0.6306435499	-0.554890973	 1.9850674291	 0.147534
H	 1.0835655936	-4.0869467979	 1.4619213229	 0.150241
H	 1.529949602	-3.3349479316	 3.5743800091	 0.240582
H	 0.0060221277	-2.0455403613	-1.2431084181	 0.143969
