18
gdb 36037	4.05453	1.03705	0.92343	1.912	76.79	-0.2485	0.0452	0.2937	1280.1958	0.146044	-401.860426	-401.851486	-401.850542	-401.894432	33.262	
C	-0.1548438283	-1.2102053513	 0.0193752547	-0.435767
C	-0.0612807619	-0.0127028491	 0.0474713348	 0.30346
C	 0.0433818225	 1.4387920094	 0.0919024794	-0.43332
C	 1.4713599154	 1.9899989314	 0.0509958878	 0.359121
C	 2.6178886213	 1.175848943	 0.4764243611	-0.217107
O	 2.3389052534	 1.3988501904	-0.9155337556	-0.263921
C	 1.531956366	 3.4922058469	 0.1136910622	-0.052735
C	 2.7008063582	 4.2266668935	-0.4185330542	-0.249524
N	 1.412359227	 4.2673996164	-1.1369343213	-0.327621
H	-0.2413933452	-2.2680174332	-0.0145739444	 0.199267
H	-0.5118378161	 1.8764758792	-0.7481824903	 0.149098
H	-0.442172387	 1.8172494116	 1.0012225461	 0.140231
H	 3.5085771056	 1.6736908148	 0.8543889321	 0.114596
H	 2.4554273108	 0.1548740523	 0.8129227719	 0.133588
H	 0.9771135715	 3.9260368591	 0.9437224768	 0.091907
H	 3.0009459541	 5.1640534446	 0.0403881698	 0.117965
H	 3.5032565739	 3.6394559201	-0.8539717907	 0.12867
H	 1.4724772187	 3.620088111	-1.9219599202	 0.242093
