17
gdb 36553	9.22906	0.47611	0.4671	1.6931	86.75	-0.2512	0.0187	0.2699	2258.395	0.133063	-384.601688	-384.591884	-384.59094	-384.639226	33.854	
C	 0.159793789	-1.2394466752	-0.3528706456	-0.437083
C	 0.1290314752	-0.0381872622	-0.3762696776	 0.293277
C	 0.1222590131	 1.4184268882	-0.375011452	-0.339269
C	 1.1586036854	 2.0072809336	 0.6202251056	-0.352683
C	 1.1558484882	 3.4637329077	 0.6282411692	 0.060511
C	 1.135595845	 4.6683442024	 0.6067289276	 0.128663
C	 1.0881967583	 6.1049925796	 0.6023879221	-0.118544
C	 2.3158369697	 6.9253691579	 0.6350856152	-0.158776
O	 1.5743989789	 6.784791363	-0.5686757481	-0.214936
H	 0.1739810864	-2.3011015518	-0.3454426805	 0.197809
H	 0.3384308897	 1.7974651879	-1.3802079498	 0.147036
H	-0.874819949	 1.7904388257	-0.1134717522	 0.14326
H	 0.9425169782	 1.6268572495	 1.6253374041	 0.144995
H	 2.1553419827	 1.6337931366	 0.3588799326	 0.145786
H	 0.1806169097	 6.5452230271	 1.014391277	 0.116385
H	 2.2828298609	 7.909718019	 1.1007712763	 0.119354
H	 3.2816513684	 6.424215241	 0.6546071361	 0.124215
