18
gdb 52256	4.47831	0.82094	0.79041	5.2577	73.09	-0.2423	0.0138	0.256	1451.5699	0.14772	-439.054495	-439.046062	-439.045118	-439.088998	30.517	
O	 0.0980130064	 0.2312091757	-0.6539515622	-0.279471
C	 0.1739171223	 1.4141480249	-0.5059777493	 0.170238
O	 1.0038054608	 1.9858310875	 0.3839708684	-0.179985
C	 1.0256015543	 3.4195614848	 0.4732963137	-0.103632
C	 2.4119908643	 3.9348722338	 0.1365769622	 0.010222
C	 2.9101043039	 3.8443411343	-1.3545824756	-0.242618
C	 3.0541663275	 5.369026308	-1.3531497495	-0.032859
N	 1.7024054608	 5.9088842677	-1.0696705932	-0.334023
C	 2.5697789886	 5.4622713887	 0.0503753546	-0.078525
H	-0.4223114143	 2.1557619185	-1.0735017005	 0.079141
H	 0.2856672513	 3.8578501919	-0.2048413304	 0.132637
H	 0.7520645659	 3.6798012621	 1.501752282	 0.115478
H	 3.1469824083	 3.4942064255	 0.8146026374	 0.092807
H	 3.8586267152	 3.3120021583	-1.4399281344	 0.114282
H	 2.2017013387	 3.4475130269	-2.0863435828	 0.109191
H	 3.7898564482	 5.9695788738	-1.8731029429	 0.098961
H	 1.768401904	 6.9255562504	-1.1083899674	 0.23205
H	 2.844325994	 6.1445781372	 0.8455134098	 0.096106
