22
gdb 53283	2.43486	0.91142	0.76315	1.154	92.58	-0.2316	0.0445	0.2761	1633.4921	0.191897	-367.173449	-367.162507	-367.161563	-367.210973	38.76	
C	 0.1821896474	 1.4359862568	-0.8972962569	-0.500161
C	 0.0983670323	 0.0272520572	-0.5408643146	 0.084792
C	 0.0328774039	-1.1355752242	-0.2318128098	 0.137711
C	-0.0329371421	-2.535045142	 0.090722996	-0.268916
N	-0.1991943192	-2.9152128677	 1.5195365876	-0.334229
C	-1.2829473507	-3.2038706591	 0.5768359426	 0.008301
C	-2.5879959828	-2.4611708015	 0.7755630284	 0.034656
C	-3.393107791	-2.4311430724	-0.530414391	-0.394215
C	-3.3858683208	-3.0847437351	 1.9285628513	-0.392378
H	 1.1460716146	 1.6718426118	-1.3619327038	 0.148065
H	-0.6050830214	 1.7189070641	-1.6050166189	 0.14679
H	 0.0771363387	 2.0735720711	-0.0124966302	 0.151334
H	 0.6320425886	-3.1607773266	-0.5022324766	 0.101527
H	 0.348403424	-3.7509528971	 1.7083033457	 0.231374
H	-1.4018256408	-4.2409114356	 0.2568410337	 0.077251
H	-2.3306523466	-1.4321477341	 1.0507875736	 0.090687
H	-4.3313707546	-1.8827245557	-0.3984643521	 0.110328
H	-2.8265275541	-1.9465569439	-1.3314036613	 0.122402
H	-3.648263395	-3.445206299	-0.8620512544	 0.106167
H	-2.7951606405	-3.0888489128	 2.8492621851	 0.125983
H	-4.3081766787	-2.5251316831	 2.1154329268	 0.108597
H	-3.6679580612	-4.1201340611	 1.7003094889	 0.103933
