17
gdb 46075	3.80884	1.07483	0.9262	4.7857	68.72	-0.2493	0.0571	0.3064	1242.8312	0.138145	-455.167232	-455.159299	-455.158355	-455.200436	29.538	
O	-0.5652751114	-0.0534665711	-0.1562880877	-0.403528
C	-0.2742717773	 1.1160870809	-0.0640648495	 0.426381
N	-1.1513922156	 2.1978558593	-0.0976183175	-0.341277
C	-0.4792260062	 3.4278547497	 0.289915682	-0.185275
C	 0.9937738249	 3.1006858232	-0.0645665806	-0.019203
N	 0.9991468374	 1.6527807274	 0.095531825	-0.33287
C	 1.3641735456	 3.5265362058	-1.4707458298	 0.086708
C	 2.1790547419	 4.7197467363	-1.7268714085	-0.185167
O	 2.7522402979	 3.4124493287	-1.7941286593	-0.238527
H	-2.1013965079	 2.0163320581	 0.1848470569	 0.254156
H	-0.8497950533	 4.2921476962	-0.2699703206	 0.117723
H	-0.5751413251	 3.6427537242	 1.363031991	 0.113442
H	 1.6890322411	 3.5733552781	 0.6364648828	 0.093372
H	 1.7791619301	 1.110419854	-0.2429225949	 0.262194
H	 0.6896780749	 3.1749350283	-2.2531186443	 0.111991
H	 2.088328562	 5.2412025986	-2.6781272119	 0.123233
H	 2.5146709111	 5.3334169823	-0.891473523	 0.116647
