21
gdb 102598	2.85511	0.95033	0.76166	3.5748	74.42	-0.2478	0.0548	0.3026	1489.9634	0.181972	-461.324726	-461.314886	-461.313942	-461.360172	35.399	
O	 0.0733027468	 1.4164320884	 0.2836874996	-0.432398
C	 0.0051134818	 0.0237045036	 0.072831915	-0.053186
C	-1.4330673573	-0.5150462861	-0.0508645645	-0.044463
C	-2.0880515613	-0.070844939	-1.360572091	-0.091256
O	-2.1323584045	 1.3573210211	-1.3970569441	-0.423904
C	-1.456293998	-2.0388349658	 0.0524113971	-0.029749
C	-1.1298806751	-2.680630881	 1.4213044961	-0.095115
O	-2.3672885608	-3.4206309765	 1.4209141614	-0.271138
C	-2.8185869216	-2.7525339884	 0.2279627832	-0.094215
H	-0.5309234905	 1.8161280083	-0.356130776	 0.288785
H	 0.5749547241	-0.2827599481	-0.8245446212	 0.07328
H	 0.4993018895	-0.4437851952	 0.9328270399	 0.103901
H	-2.0158461829	-0.0934916061	 0.7798132476	 0.093072
H	-1.5047670241	-0.4614081196	-2.2096834387	 0.093785
H	-3.1052633928	-0.4829456762	-1.4376553989	 0.099178
H	-2.4204990624	 1.6364739098	-2.2708693809	 0.295333
H	-0.8643585407	-2.4796084264	-0.7567467179	 0.079614
H	-0.2565968834	-3.3412049701	 1.4651632749	 0.105329
H	-1.0793690577	-1.967236642	 2.2557313096	 0.10384
H	-3.6620782595	-2.0769294053	 0.4317427556	 0.097063
H	-3.1142283396	-3.4618210953	-0.5540521167	 0.102243
