16
gdb 29529	3.17106	1.52519	1.04491	2.3818	71.76	-0.1975	0.0252	0.2227	1087.6281	0.126505	-437.888291	-437.880663	-437.879719	-437.920512	28.719	
N	-0.0015558045	 1.4449943341	-0.1502176259	-0.605483
C	 0.0290318147	 0.0485626608	-0.034508514	 0.029149
C	-1.025844714	-0.8268463281	-0.0331457287	-0.09934
O	-0.5857899241	-2.1404198225	-0.0027711189	-0.202923
C	 0.7515716975	-2.053720892	 0.0285466558	 0.282999
C	 1.198716281	-0.7825093551	 0.0089437157	 0.176498
C	 2.692497868	-0.8092535996	 0.0215860964	-0.187301
O	 3.0181060828	-2.2170779206	 0.0776605184	-0.282943
C	 1.8526917957	-3.0544302241	 0.0593069037	-0.176461
H	 0.6940935094	 1.9008983687	 0.4263271539	 0.246896
H	-0.9114896422	 1.8377903539	 0.0538930151	 0.244983
H	-2.0938774883	-0.6930592472	-0.0624229626	 0.123185
H	 3.1473113605	-0.3725583052	-0.8793037789	 0.113705
H	 3.1427595866	-0.3125573147	 0.8934917063	 0.10537
H	 1.8460430502	-3.6966862981	 0.9523177163	 0.115791
H	 1.8764721765	-3.7105924703	-0.8238225626	 0.115873
