20
gdb 105923	3.60446	1.42564	1.32698	1.7404	80.96	-0.2236	0.0817	0.3053	1060.2742	0.172441	-365.936644	-365.929242	-365.928297	-365.968544	29.867	
C	 0.4054116054	 1.354270296	 0.3883375367	-0.380415
C	-0.224852982	 0.1084116128	-0.2467840685	-0.317253
C	 0.5002679938	-0.3647635367	-1.4697733736	 0.382894
C	 0.6186617079	-1.7768317884	-1.9345681422	-0.105674
C	 0.9664779656	-1.5877174477	-3.4240697509	-0.076064
C	 0.1107883656	-0.3977298126	-3.9287997446	-0.251485
C	 0.8040580963	 0.3914704591	-2.7888205601	-0.13044
C	 2.0193063131	-0.5878580753	-2.8422498346	 0.02771
N	 1.834686303	-1.0652416022	-1.3981246678	-0.223545
H	 1.448955671	 1.1608937061	 0.6531792828	 0.135388
H	 0.3844771346	 2.2070720803	-0.2983902258	 0.11386
H	-0.1316754678	 1.6460334801	 1.2957373916	 0.110636
H	-0.2361656889	-0.7103885248	 0.4831427583	 0.107219
H	-1.2736919608	 0.3064506634	-0.5072750321	 0.099711
H	 0.1874863179	-2.6316358743	-1.4266749234	 0.090204
H	 1.2040131886	-2.4580828457	-4.0321119642	 0.073614
H	 0.4373842359	-0.0540715934	-4.9158126591	 0.099556
H	-0.9793073473	-0.493969275	-3.9093304457	 0.094653
H	 0.8809154099	 1.4767344579	-2.7741694632	 0.072066
H	 3.0113989182	-0.3790274697	-3.2365995639	 0.077366
