17
gdb 19520	3.62534	1.79602	1.6575	1.2807	68.57	-0.2168	0.0096	0.2264	851.2321	0.143747	-363.828063	-363.821	-363.820056	-363.859248	27.382	
O	 0.3560351848	 0.9655133337	 1.0534937925	-0.413302
C	 0.1094968242	 0.0686323226	-0.0270409738	-0.097367
C	-1.2769880475	-0.5311226141	 0.0237998088	-0.031709
C	-1.584385175	-1.9824484825	-0.2125994429	-0.092459
C	-0.4676846806	-2.9617195776	-0.1050511182	-0.07538
C	 0.0342432498	-2.9526909172	 1.1306809625	-0.085496
C	-0.7155508642	-1.9672247619	 1.9988634532	-0.212809
N	-1.7623280786	-1.373805229	 1.1286699604	-0.115445
H	-0.3582510259	 1.6110393517	 1.0710338695	 0.284534
H	 0.236190985	 0.5753053064	-0.9970150306	 0.090247
H	 0.8822310292	-0.697884516	 0.0462442269	 0.118595
H	-2.0514108649	 0.1703326857	-0.2936348593	 0.08521
H	-2.4797793415	-2.2508078681	-0.7693391675	 0.091601
H	-0.136201949	-3.5777251815	-0.9317157884	 0.101234
H	 0.8736046424	-3.5396850866	 1.4856007664	 0.101975
H	-1.2028674507	-2.4609839325	 2.8499086159	 0.110528
H	-0.0731211078	-1.1778777929	 2.4055896544	 0.140041
