19
gdb 34581	3.43382	1.14236	0.8886	1.1394	99.96	-0.2057	-0.0443	0.1614	1306.2808	0.160229	-348.745589	-348.737126	-348.736182	-348.778939	32.723	
C	 0.0835728871	-1.2403723474	 0.0253951417	-0.436874
C	-0.0200828758	-0.0381543549	 0.0221703247	 0.247425
C	-0.0824598311	 1.3817256467	 0.0115531429	 0.087346
C	-1.2880414493	 1.9930141256	 0.0944135783	-0.133199
C	-1.6129342834	 3.4090816902	 0.0590680284	-0.062148
C	-0.8254198819	 4.4973024072	 0.1123935416	-0.067908
C	 0.6613784446	 4.5944160113	 0.2860152156	-0.251996
C	 1.3867106495	 3.3447688482	 0.7913178799	-0.208658
C	 1.2470986977	 2.1044120158	-0.1067718266	-0.294431
H	 0.1563011391	-2.2994265901	 0.0282041613	 0.19285
H	-2.151326471	 1.3364104768	 0.1607146551	 0.091078
H	-2.6798580188	 3.6003561961	-0.0372053058	 0.084918
H	-1.3274391647	 5.459838426	 0.0292731575	 0.090382
H	 1.1055989757	 4.9199833642	-0.6675887447	 0.113508
H	 0.866406201	 5.4212899521	 0.9806503755	 0.107859
H	 2.4512393248	 3.5873811343	 0.8848360344	 0.097352
H	 1.0342604055	 3.0978450114	 1.7990780339	 0.110954
H	 2.0412909111	 1.392942426	 0.1359236246	 0.113737
H	 1.4091161099	 2.3886808206	-1.1559570082	 0.117805
