9
gdb 788	9.52134	3.75318	2.69202	1.6519	40.1	-0.2581	-0.0063	0.2518	438.1162	0.062841	-321.219665	-321.215152	-321.214207	-321.247368	16.549	
O	 0.1133333023	 1.3466378156	 0.1352681765	-0.41346
C	 0.0730365673	 0.0077864133	 0.069924129	 0.465649
N	 0.1080919694	-0.6340859532	-1.0736023969	-0.249248
O	 0.0472489069	-1.9871896484	-0.7281347091	-0.166394
C	-0.0212596061	-2.08883687	 0.6060711737	 0.101684
C	-0.0102115645	-0.8659682574	 1.1906788665	-0.338657
H	 0.168516981	 1.6827648791	-0.7695428993	 0.31416
H	-0.0729888951	-3.0935701039	 0.9970183221	 0.154847
H	-0.0529957212	-0.6098034052	 2.2348425375	 0.131418
