21
gdb 63934	2.32667	1.59037	1.40104	0.8289	77.76	-0.242	0.0595	0.3014	1068.9728	0.18081	-424.195421	-424.186324	-424.18538	-424.228824	35.622	
C	-0.4932178677	 1.5158713824	 0.0934900909	-0.458993
C	-0.0447568232	 0.0580066199	 0.0155283432	 0.283407
C	-1.2223646782	-0.8410481481	-0.3756357226	-0.428259
C	 1.2188408435	-0.2351208424	-0.8733003255	-0.284258
C	 1.9434914743	-0.8680907789	 0.3328303002	 0.034901
O	 2.7711156748	 0.0855932746	 1.0346538553	-0.287713
C	 1.7207286727	 0.4096532431	 1.9679239171	-0.145688
C	 0.7212237603	-0.5234733502	 1.2532825827	 0.310602
O	-0.041753953	-1.3870944879	 2.0344485107	-0.471393
H	 0.3420181609	 2.1966602064	 0.2820994877	 0.117785
H	-0.9549454319	 1.8224513616	-0.851772252	 0.115233
H	-1.2365068093	 1.6597924955	 0.8860441224	 0.117504
H	-1.5970039926	-0.5477016866	-1.3626910527	 0.105739
H	-0.9313076577	-1.8939497093	-0.4204580993	 0.116597
H	-2.0421884553	-0.7574802295	 0.3436791939	 0.121717
H	 1.0183480875	-0.925047152	-1.6974265218	 0.098668
H	 1.7398566695	 0.6438384118	-1.2595755497	 0.106075
H	 2.421081334	-1.8453613069	 0.2256276505	 0.074497
H	 1.964434421	 0.0640331824	 2.9852574364	 0.084186
H	 1.5023703902	 1.4823388316	 2.0099511106	 0.106519
H	 0.5120029803	-1.7349089175	 2.741844032	 0.282877
