15
gdb 27699	2.98368	1.28934	0.90603	3.946	78.98	-0.2058	-0.015	0.1908	1222.6901	0.114177	-413.060045	-413.051323	-413.050379	-413.09428	31.337	
C	-0.0157612526	 1.4583898675	 0.0302688835	-0.501296
C	 0.0076295908	-0.0317475824	-0.0206426869	 0.353941
N	 0.0393203293	-0.7561454092	-1.129922007	-0.336869
C	 0.0736705021	-2.061466235	-0.7330041422	 0.237185
N	 0.1704913479	-3.0783758762	-1.6509147274	-0.598116
C	 0.0564853464	-2.1469439554	 0.6555976223	 0.149506
N	 0.0159113611	-0.8134215542	 1.0815396442	-0.366365
C	 0.0600459205	-3.251248082	 1.5149655128	 0.175777
N	 0.0583993227	-4.1821849471	 2.2112929774	-0.365067
H	 0.9502779837	 1.862977016	 0.3534827052	 0.147824
H	-0.2291594292	 1.8419825794	-0.9677953548	 0.163551
H	-0.7800447083	 1.8273188952	 0.7218579285	 0.13728
H	-0.1454208817	-2.8226629134	-2.5745249985	 0.262105
H	-0.1509686937	-3.9848466956	-1.3466695017	 0.2648
H	-0.0071117689	-0.5108285776	 2.0409626444	 0.275744
