16
gdb 131505	3.80829	1.34081	1.13792	3.7422	70.17	-0.2451	-0.0055	0.2396	1051.5323	0.1275	-434.0647	-434.057638	-434.056694	-434.096328	27.589	
O	 0.0812069664	 1.3888735185	 0.0811275701	-0.427032
C	 0.0217515231	-0.0229315651	-0.0158675613	 0.13465
C	-1.4734817416	-0.5153121751	-0.094452526	-0.371966
C	-1.6210131656	-0.6858998008	-1.5700462212	 0.337091
C	-0.4287664587	-0.6975863262	-2.243637506	 0.28059
C	 0.7365084232	-0.5384070866	-1.3135237709	-0.365136
N	-0.6530512057	-0.8894429071	-3.5685443713	-0.2898
N	-1.9419709455	-0.9955781167	-3.7516882972	-0.124156
N	-2.5434813495	-0.87944239	-2.5325064932	-0.332721
H	-0.2569410647	 1.7562264046	-0.7442660294	 0.284843
H	 0.507714765	-0.3890991917	 0.891173156	 0.094433
H	-1.6150274372	-1.4624140456	 0.4413100409	 0.124606
H	-2.1288607297	 0.2293279415	 0.3658119918	 0.1266
H	 1.4931753188	 0.1841131849	-1.6307327957	 0.128255
H	 1.2483559181	-1.4921205004	-1.13607247	 0.121096
H	-3.5480651464	-0.9312131241	-2.4839692966	 0.278647
