13
gdb 25012	5.19329	1.35208	1.0801	2.7119	64.58	-0.2304	-0.0317	0.1987	1006.4737	0.092258	-452.803931	-452.797638	-452.796694	-452.834854	23.961	
O	 0.0017742315	 0.0308365388	 0.0036481954	-0.292949
C	-0.0448212783	 1.2168739754	 0.0101362065	 0.400732
C	-1.2934670808	 2.126844375	 0.0329920485	-0.32868
N	-0.6831496871	 3.4324781174	 0.0315588348	-0.063096
C	-0.963951832	 4.7765397807	 0.0429126709	-0.00243
N	 0.1421615906	 5.480060683	 0.0311532785	-0.261638
C	 1.2013057156	 4.5851888926	 0.0113919292	-0.209694
C	 0.6809252167	 3.3277182364	 0.0117591111	 0.370637
O	 1.0837420634	 2.0185624922	-0.0010873848	-0.231743
H	-1.9094901161	 1.9294650509	-0.8494568805	 0.172974
H	-1.8842019517	 1.9196008939	 0.930344984	 0.17301
H	-1.9699875684	 5.1647988306	 0.0592398436	 0.142874
H	 2.2285272165	 4.9066266129	-0.0012616872	 0.130004
