16
gdb 77619	2.20151	1.60798	1.28348	2.4193	71.18	-0.2575	0.0071	0.2646	1040.9776	0.122706	-437.854961	-437.846322	-437.845378	-437.888015	31.875	
C	 0.0194030751	 1.5250488532	-0.0286916362	-0.488116
C	 0.0311104312	 0.0386175955	 0.0561522286	 0.3908
O	 0.5063935348	-0.7152915436	-1.056135639	-0.312514
C	 1.197472027	-1.6548559302	-0.1927148848	-0.14064
C	 0.6509471268	-0.9712659185	 1.0547391666	 0.029272
C	 1.2788515977	-0.8005945443	 2.3135161959	 0.18827
N	 1.7676854208	-0.6728948166	 3.3564286423	-0.358726
C	-0.873874041	-0.809743869	 0.8844821498	-0.012999
O	-1.5235037768	-0.1320964884	 1.9026105432	-0.407514
H	 1.0243266487	 1.9184144764	-0.2023657772	 0.138828
H	-0.6212513275	 1.8351116606	-0.861737605	 0.144594
H	-0.38422237	 1.9455026598	 0.8940064407	 0.158759
H	 0.8870741252	-2.6906032115	-0.3689138931	 0.120549
H	 2.2820154346	-1.5606179777	-0.3034276281	 0.134826
H	-1.4217406735	-1.6256053836	 0.4075820807	 0.106668
H	-1.4589687129	-0.6434293821	 2.7179775956	 0.307942
