21
gdb 41135	3.13686	1.61838	1.31081	0.0701	87.72	-0.2231	0.022	0.2452	1045.9425	0.185402	-349.945003	-349.937766	-349.936821	-349.97645	30.139	
C	 0.0196999091	 1.591012443	 0.1775026899	-0.22683
C	 1.5612466134	 1.5570649697	-0.0507178306	-0.307018
C	 1.5195157512	 0.0153024776	-0.0330411868	 0.388414
C	 2.3849882085	-0.8841589361	-0.8403193635	-0.20478
C	 2.7920713655	-1.9520261896	-0.1490915209	-0.063514
C	 2.2902534052	-1.9625005797	 1.28011348	-0.293493
C	 1.4178726956	-0.6883936832	 1.3683786567	-0.054746
C	-0.1227094683	-0.8372098773	 1.1767682531	-0.243408
C	-0.0623452726	 0.05561252	-0.0813920547	-0.064851
H	-0.2785759784	 1.8775889466	 1.1904866872	 0.09627
H	-0.5386733925	 2.2118176897	-0.5264819232	 0.098266
H	 1.8345816125	 1.9443595696	-1.0377665301	 0.096491
H	 2.1983508156	 2.0429916403	 0.6954720373	 0.091193
H	 2.6291896286	-0.6879840515	-1.8798602998	 0.085376
H	 3.4154129177	-2.7470300304	-0.5462328239	 0.089547
H	 1.7103996544	-2.8692782191	 1.5011160096	 0.102175
H	 3.1234802522	-1.9569631347	 1.9954445403	 0.10156
H	 1.6947642852	-0.0581441759	 2.2171156242	 0.062995
H	-0.4077774627	-1.8682858769	 0.9431024735	 0.095964
H	-0.7579212827	-0.4842821675	 1.9956733766	 0.091398
H	-0.6353760474	-0.2488695244	-0.9592273747	 0.058992
