16
gdb 48614	2.68887	1.6692	1.24125	3.3017	70.24	-0.258	-0.0368	0.2213	998.7945	0.125058	-437.882508	-437.875133	-437.874189	-437.914819	28.108	
N	 0.0226602594	 1.2332628406	-0.1963520681	-0.576828
C	-0.0016109025	-0.0206447195	-0.101722352	 0.431
O	 1.0573650173	-0.8985723564	-0.1755703166	-0.264693
C	 0.3895238172	-2.1836479817	 0.03139717	 0.086679
C	-0.8392434767	-2.0735811532	-0.8959358549	-0.268862
C	-1.1893808276	-0.9323160537	 0.1179060082	 0.106672
C	-0.544931603	-1.8763550305	 1.2204984743	-0.275523
C	-2.5535494678	-0.339750434	 0.2758585917	 0.060623
O	-3.5472629701	-0.8397026359	-0.1893394358	-0.251825
H	 0.9745146325	 1.5740237509	-0.3424452551	 0.230676
H	 1.1281843922	-2.9806611275	 0.0091364264	 0.103627
H	-0.6614415569	-1.7935762919	-1.935366739	 0.125619
H	-1.5316657651	-2.9117492744	-0.8206802037	 0.131342
H	-1.2074949248	-2.7005654166	 1.4867715763	 0.129935
H	-0.104563631	-1.4079693319	 2.1023080326	 0.127002
H	-2.5922501631	 0.5926392758	 0.8757921455	 0.104557
