20
gdb 121455	3.37468	0.83682	0.71392	4.1907	79.76	-0.2444	0.0189	0.2633	1613.9722	0.170299	-440.280154	-440.270467	-440.269523	-440.316044	34.453	
C	-0.0923829233	 1.5634719386	 0.1209985855	-0.403694
C	 0.0099236309	 0.0449275375	 0.0511814692	-0.147725
C	 0.7795371949	-0.5969148268	-1.1279778322	-0.089318
O	 1.7270097855	-1.2031677907	-0.1946050599	-0.266384
C	 1.0946866599	-0.6124187715	 0.883827531	 0.478401
N	 1.3870257573	-0.6361533816	 2.0993374188	-0.367726
C	 2.5703533066	-1.3649140211	 2.5539064492	-0.170457
C	 3.1336725051	-0.6343354161	 3.7740119031	-0.044524
O	 2.1479805396	-0.4744330073	 4.7718262991	-0.424036
H	 0.8785917174	 2.033410233	-0.0643787812	 0.126502
H	-0.8041980874	 1.9424063102	-0.6189426592	 0.122877
H	-0.4320782781	 1.8749543441	 1.112524457	 0.141805
H	-0.9674028647	-0.4172983752	 0.2181064284	 0.110814
H	 0.2556309266	-1.3625014971	-1.7046792781	 0.122787
H	 1.2876147888	 0.1034613388	-1.7968420822	 0.121009
H	 2.2612178011	-2.3732640948	 2.8584480332	 0.115671
H	 3.3333660098	-1.4672616662	 1.7710974517	 0.106375
H	 3.9544599375	-1.2122164369	 4.212716836	 0.099603
H	 3.5435553001	 0.3383320291	 3.4532653128	 0.079614
H	 1.3611859126	-0.1734495759	 4.2975881978	 0.288406
