16
gdb 105283	2.46274	1.13178	0.91036	3.0955	71.77	-0.2812	-0.0686	0.2126	1294.2892	0.12105	-437.882147	-437.872774	-437.871829	-437.917031	32.605	
C	-0.1192277388	 1.4515888417	-0.7571671503	-0.394973
C	-0.016397609	 0.09953697	-0.0415761746	-0.268506
C	-1.3762839446	-0.5478131677	 0.1594556098	 0.2274
O	-2.0012249125	-1.1417399864	-0.9741554455	-0.254216
C	-1.6300933862	-2.0194955972	 0.0901464009	-0.093391
C	-0.5245830377	-2.9931382769	-0.1955641502	 0.134692
O	-0.3500911179	-3.9817628021	 0.4661592345	-0.227807
C	-2.2860720226	 0.2073320057	 1.0133880575	 0.280593
N	-2.9780899948	 0.8218092625	 1.7053733258	-0.324319
H	 0.87526425	 1.8845579972	-0.8910296069	 0.129695
H	-0.5770520175	 1.3343679616	-1.743533093	 0.140364
H	-0.7222584494	 2.1607964727	-0.1826804407	 0.148588
H	 0.6128341771	-0.5827504621	-0.618069191	 0.119272
H	 0.4529821572	 0.2198655477	 0.9413393135	 0.133732
H	-2.4485899258	-2.4232548396	 0.6837523313	 0.143149
H	 0.1025727626	-2.741422417	-1.0760322212	 0.105726
