21
gdb 116111	2.52793	1.15675	0.84625	4.2856	79.02	-0.2308	-0.007	0.2238	1376.4998	0.183274	-424.263332	-424.254228	-424.253284	-424.297423	34.252	
O	-0.0445845046	 1.4368204602	 0.0713356083	-0.421448
C	 0.0300403725	 0.0218096442	 0.0007463182	-0.093793
C	-1.3904246234	-0.5374360796	 0.0092338952	 0.0264
C	-1.3959617895	-2.0630798299	-0.1654673457	-0.204815
C	-2.8243112382	-2.6226803539	-0.1796891393	-0.219149
C	-3.5976064451	-2.2389548318	 1.0968057252	-0.28534
C	-3.5407891797	-0.7385636153	 1.3559264052	 0.377133
O	-4.5280549409	-0.082798202	 1.5954627616	-0.306316
C	-2.1466567849	-0.1301641107	 1.2926482412	-0.290867
H	 0.8499546478	 1.7871811078	 0.1047287526	 0.289226
H	 0.5438294295	-0.3037995151	-0.9183685792	 0.085595
H	 0.5916531847	-0.3921118556	 0.855693883	 0.082535
H	-1.9140122258	-0.0896179084	-0.8473098854	 0.09183
H	-0.8797025121	-2.3357608623	-1.093374708	 0.096671
H	-0.8292410804	-2.5263924833	 0.6553049539	 0.09327
H	-3.3580055642	-2.2302020223	-1.0548796047	 0.109056
H	-2.8073489313	-3.7121528971	-0.2884934947	 0.10127
H	-4.644864706	-2.5469582526	 1.0535469607	 0.116448
H	-3.1357058049	-2.7417542592	 1.9589502257	 0.112418
H	-1.5823458146	-0.5021431579	 2.1620277141	 0.104604
H	-2.2218954289	 0.9538641047	 1.3824163522	 0.135271
