21
gdb 115365	3.21202	1.07174	0.95014	1.865	81.05	-0.2424	0.008	0.2504	1337.6863	0.182792	-424.234471	-424.225366	-424.224422	-424.268408	34.659	
C	-0.1108027722	 1.5209822838	 0.0368089613	-0.385143
C	 0.0046752384	-0.004706785	 0.0285161425	-0.186161
C	 0.7525797848	-0.5572986731	 1.2459592922	 0.08918
O	 0.0327837419	-0.1563827877	 2.4060906725	-0.27401
C	 0.5215469476	-0.7737691314	 3.5880565905	-0.111841
C	 0.2133568033	-2.27047274	 3.5558121014	 0.092308
O	-1.1722150027	-2.5241676354	 3.7833261488	-0.435358
C	 0.6639544511	-2.8424992941	 2.2321124941	-0.119519
C	 0.9167469706	-2.0552692187	 1.1880187569	-0.060116
H	 0.8789263733	 1.9911269253	 0.0216529661	 0.111512
H	-0.6627932504	 1.87587095	-0.8385276275	 0.110754
H	-0.6305961564	 1.8636996596	 0.9344335598	 0.137153
H	-0.991800797	-0.4619188968	 0.0035633203	 0.102836
H	 0.5296280871	-0.3404941615	-0.8740211383	 0.096342
H	 1.7582497178	-0.0913089824	 1.2739494265	 0.073204
H	 1.605037202	-0.602916086	 3.6976801454	 0.088188
H	 0.0023590921	-0.3019962756	 4.4264260347	 0.112593
H	 0.7334462914	-2.7675732726	 4.383048976	 0.086694
H	-1.6432227538	-2.0586230908	 3.0815238394	 0.279239
H	 0.7434903863	-3.9229597995	 2.1538784331	 0.097043
H	 1.2519532349	-2.4681483182	 0.2393016844	 0.095101
