21
gdb 95633	2.25158	1.54787	1.06381	4.3962	78.25	-0.2545	0.0153	0.2698	1195.6437	0.183281	-424.279657	-424.270593	-424.269649	-424.313395	34.304	
C	-0.0162092701	 1.5867322115	-0.0847267144	-0.419778
C	 0.0571137064	 0.0570602221	-0.0741254259	 0.014349
C	 0.7526639835	-0.5154807327	-1.3117412897	-0.224453
C	 0.6307146011	-2.0299034032	-1.3037672354	-0.069573
O	 1.0648546006	-2.6442512579	-0.0792196982	-0.229392
C	 0.9667692513	-2.0336057887	 1.1271818256	 0.400098
O	 1.1496551958	-2.6886260645	 2.1186044132	-0.333316
C	 0.7272100561	-0.5212119567	 1.1924190758	-0.116219
C	 2.0707215474	 0.1389422591	 1.574519982	-0.403972
H	 0.9749988774	 2.0408145076	-0.1809870927	 0.122727
H	-0.6220661447	 1.9344122923	-0.9277013021	 0.115325
H	-0.4727801953	 1.9698292863	 0.8342113602	 0.118336
H	-0.9764420249	-0.3197447423	-0.085067035	 0.078703
H	 0.2946268787	-0.13385847	-2.2313603169	 0.105398
H	 1.8080540091	-0.2185386846	-1.3335958958	 0.110975
H	-0.4137539534	-2.3251993397	-1.4709406727	 0.113304
H	 1.2372890237	-2.4930496285	-2.086454818	 0.121086
H	 0.0528652012	-0.3866521264	 2.0447615385	 0.106387
H	 2.8069139903	 0.0725546859	 0.7671086157	 0.121265
H	 1.9295449588	 1.1942824151	 1.8191895182	 0.121486
H	 2.4846969067	-0.3645843048	 2.4505354675	 0.147262
