13
gdb 24915	5.01051	1.36802	1.08182	1.0998	64.99	-0.2245	-0.008	0.2165	1012.3376	0.091444	-452.764306	-452.757906	-452.756962	-452.795282	24.588	
N	-0.016512465	 1.2109246493	 0.0071724271	-0.501595
C	-0.0305810696	-0.0391625247	 0.0006033658	 0.399156
C	-1.2776820404	-0.9539850729	 0.0028906561	-0.43839
C	-0.6144023102	-2.2952975468	-0.0080421371	 0.153685
C	 0.7064887228	-2.0910768173	-0.0145103847	 0.425457
O	 1.3879273058	-3.2405520171	-0.0244941113	-0.201768
C	 0.3489215665	-4.170138135	-0.0237921399	 0.028336
N	-0.8427394633	-3.6641227039	-0.0139847592	-0.324743
O	 1.1687531161	-0.8233555946	-0.010387701	-0.264063
H	 0.9332789218	 1.5835461634	 0.0037301985	 0.243887
H	-1.884374779	-0.7403172194	 0.8889820127	 0.16049
H	-1.8944879343	-0.7309504539	-0.8738616703	 0.160488
H	 0.6530910487	-5.2030154172	-0.0311401165	 0.159061
