14
gdb 8028	3.47625	2.00758	1.55816	4.0112	57.72	-0.2391	-0.0391	0.2001	807.8638	0.105516	-419.642521	-419.635389	-419.634445	-419.673957	26.482	
O	 0.1278832377	 1.4495327588	-0.2253686179	-0.470608
C	 0.025758722	 0.080854141	-0.0032870454	 0.341138
C	 0.3264041404	-0.9060818626	-1.1478733276	-0.124429
O	-0.9153402201	-1.6140055185	-0.9048513415	-0.285027
C	-1.369458454	-0.6242596452	 0.0505326484	-0.057448
C	-1.0265629626	-1.1269420945	 1.4692595402	 0.431737
O	-1.6051087884	-1.7683587442	 2.293216359	-0.284192
C	 0.3714478088	-0.4653374038	 1.4156315169	-0.43461
H	 1.0295233143	 1.7299744585	-0.0345574385	 0.289325
H	 0.3229558826	-0.4259299041	-2.1338683499	 0.113811
H	 1.2026883977	-1.5568010233	-1.0490637029	 0.106462
H	-2.3389956362	-0.183741285	-0.1911302742	 0.102663
H	 1.2354088972	-1.1269772183	 1.5194252851	 0.131204
H	 0.4411725505	 0.3410692312	 2.1538046785	 0.139974
