19
gdb 121702	5.41834	0.63346	0.6095	1.1684	76.29	-0.2333	-0.0249	0.2084	1862.5185	0.157549	-456.367748	-456.35744	-456.356496	-456.404665	35.166	
C	-0.4116998257	 1.2277326592	-0.3180862822	-0.387797
C	-0.1434112253	-0.2299417895	-0.6771209622	-0.112087
N	 1.2814499389	-0.5415214965	-0.5310406795	-0.268399
C	 1.631456055	-1.8968475899	-0.8828518298	-0.296017
C	 1.6037014895	-2.2021832429	-2.3764148224	 0.449833
O	 1.5133909487	-1.3893714558	-3.2556272465	-0.340315
O	 1.7369054563	-3.5530763805	-2.5829771008	-0.202098
C	 1.7853630223	-4.0115155445	-3.8779595077	 0.117765
N	 1.9056820154	-5.2496348202	-4.058681454	-0.41623
H	-0.0665488341	 1.4460312315	 0.6965460421	 0.126902
H	 0.1086417824	 1.903350205	-1.0065810636	 0.117447
H	-1.4806215358	 1.4511863961	-0.3810034116	 0.117129
H	-0.6949986509	-0.8870841739	 0.0079107495	 0.102445
H	-0.5218363215	-0.436073995	-1.692139853	 0.095684
H	 1.8198783978	 0.0990569331	-1.107148774	 0.224463
H	 2.6474341184	-2.1333387062	-0.5374131015	 0.142503
H	 0.971641923	-2.6064553958	-0.3719468571	 0.144088
H	 1.7096828753	-3.2106493341	-4.6136395046	 0.143731
H	 1.9282702903	-5.45167834	-5.0573829811	 0.240951
