18
gdb 74833	2.42242	1.69069	1.08695	3.3364	79.56	-0.2065	0.0046	0.2111	1119.4878	0.149553	-401.999348	-401.991458	-401.990514	-402.031579	30.949	
C	 0.0187680384	 1.5238155293	 0.0074175514	-0.48818
C	-0.0489034714	 0.0258023857	-0.0084894241	 0.363533
C	-1.1679011018	-0.6911462878	 0.1598762578	-0.187116
C	-1.1649661755	-2.1665535171	 0.0620863861	-0.084577
C	-0.7795096555	-2.8146952794	-1.2448204033	-0.290541
C	 0.2036436707	-2.8328777585	-0.0932363586	-0.15273
C	 1.4207801669	-1.9737782892	-0.1246535752	 0.412707
O	 2.5532710846	-2.4130524692	-0.0639501106	-0.376667
N	 1.1848438962	-0.6123520003	-0.2138131504	-0.400775
H	 0.7019695439	 1.8818134433	 0.7880037121	 0.132428
H	 0.3869036231	 1.9144099877	-0.9493310511	 0.13506
H	-0.9672912446	 1.9522870177	 0.1937553604	 0.138355
H	-2.1051943584	-0.1792478385	 0.3403585578	 0.090856
H	-1.8968268794	-2.6938403694	 0.6659291513	 0.095426
H	-1.2336688881	-3.7647389328	-1.5015096885	 0.123919
H	-0.5719656043	-2.1636820607	-2.0864898321	 0.127528
H	 0.386812729	-3.7889518093	 0.3814988514	 0.113309
H	 2.0261167164	-0.0536601615	-0.2108632946	 0.247464
