16
gdb 79661	2.90211	1.52212	1.23727	1.3393	76.71	-0.2261	0.0105	0.2366	1033.5367	0.121259	-400.601626	-400.593464	-400.59252	-400.634126	31.363	
C	-0.1876231811	 1.544907799	-0.0281939266	-0.303349
N	 0.1768051136	 0.1277790262	 0.0623434242	-0.112264
C	 1.3941267482	-0.5170944615	-0.3004902476	-0.164647
C	 2.6986623313	 0.1902563868	 0.2316525692	-0.001151
O	 2.3273114988	 1.4026058879	 0.900436272	-0.229511
C	 2.1965285538	 0.1657821421	 1.5968091454	-0.064108
C	 0.856623692	-0.5563087532	 1.1274347532	 0.121196
C	 0.2538502595	-1.6008540933	 1.883282021	 0.215173
C	-0.2148946642	-2.4720676052	 2.56856234	-0.376271
H	 0.4750548926	 2.0832283602	-0.7087181514	 0.130307
H	-1.2140684041	 1.6106415119	-0.406376442	 0.114018
H	-0.1402063932	 2.033521202	 0.9468726593	 0.13226
H	 1.3996428389	-1.3091469603	-1.0420634708	 0.113455
H	 3.7029440439	 0.1063387789	-0.163295988	 0.11833
H	 2.6922996413	 0.0421875649	 2.5513790427	 0.116704
H	-0.6426208313	-3.2446816963	 3.1580521095	 0.18986
