17
gdb 55318	1.97811	1.61578	1.15455	5.3889	72.59	-0.2528	-0.0285	0.2243	1112.3969	0.135235	-418.007692	-417.998605	-417.997661	-418.042449	32.03	
C	 0.7248497633	 0.365756369	-0.5078979904	-0.488635
C	-0.3757039627	 0.3233191905	 0.5344441003	 0.39209
O	-0.4399806397	 1.1269820622	 1.4348212621	-0.300674
C	-1.447667749	-0.7609163478	 0.4260534507	-0.120889
C	-1.8752105115	-1.2184723398	-0.9986705134	-0.192959
N	-0.9949738187	-2.401674505	-0.8716989673	-0.296676
C	-0.9411169996	-2.24228952	 0.5936389955	-0.137771
C	 0.3642765438	-2.4965344535	 1.2068085009	 0.306036
N	 1.3905488061	-2.7031689065	 1.6962354475	-0.320947
H	 0.9982283074	-0.6286557177	-0.8669349124	 0.159887
H	 0.3673411585	 0.9393244579	-1.3723623159	 0.143977
H	 1.591306631	 0.8820544799	-0.0934703629	 0.152474
H	-2.2495769843	-0.4917515596	 1.1110010555	 0.111662
H	-2.9483405167	-1.4449812121	-1.041148782	 0.110993
H	-1.6202467175	-0.5622805284	-1.8355752713	 0.12128
H	-1.3611516813	-3.286895892	-1.2036109923	 0.235071
H	-1.6905332791	-2.8253081969	 1.1469731953	 0.125081
