16
gdb 17806	4.51185	1.67017	1.49682	2.3579	65.	-0.243	0.0276	0.2706	866.6455	0.132234	-379.869309	-379.862283	-379.861339	-379.900831	26.804	
N	 0.3305961882	 0.6070083638	 0.5846725796	-0.511474
C	-0.3373553302	 0.640102703	-0.6002109218	 0.327036
O	-0.0446257805	 1.3602597607	-1.5348684378	-0.364035
C	-1.5514818635	-0.2754352655	-0.6308558234	-0.023415
C	-1.7196347827	-1.3712896356	-1.706299117	-0.05733
C	-0.6045143821	-2.111976554	-0.9388755196	-0.176914
N	-1.4780126829	-1.5661389754	 0.2157110363	-0.17689
C	-2.6569257539	-2.0254147178	-0.6659042099	-0.172652
H	 1.1397788463	 1.1924220785	 0.7110098292	 0.260735
H	 0.0686713826	-0.0573512942	 1.2952098633	 0.274532
H	-2.4441682792	 0.3193922985	-0.4058335538	 0.101493
H	-1.8554145858	-1.2493181201	-2.7837795979	 0.083858
H	-0.5899006202	-3.2039413741	-0.9834318554	 0.103465
H	 0.4073879914	-1.7034358077	-0.9606301787	 0.119925
H	-3.5999102763	-1.5258563711	-0.4276948606	 0.105788
H	-2.7746110212	-3.111547949	-0.6934667626	 0.105878
