19
gdb 95363	2.86011	1.5335	1.10008	0.2675	77.19	-0.2347	0.0032	0.2379	1107.9079	0.16102	-423.030992	-423.023144	-423.0222	-423.063542	30.516	
O	 0.0258254172	 1.3613228606	-0.2597384144	-0.424512
C	 0.0636334963	-0.0384838123	-0.0239890066	 0.032448
C	 0.6638906214	-0.4544121727	 1.3687105509	-0.249929
C	-0.5107129299	-1.0066898503	 2.2188223919	-0.25008
C	-1.3943641324	-1.6694177093	 1.1457331679	 0.08196
O	-2.7807765085	-1.8064658599	 1.4186583743	-0.284899
C	-3.5253361902	-1.1770059801	 0.3686386277	-0.111073
C	-2.5149335735	-0.3639458253	-0.4083633329	-0.265044
C	-1.2978656652	-0.6738599861	 0.0223706452	 0.267385
H	-0.6637920494	 1.7282422651	 0.3047848226	 0.274959
H	 0.6873737371	-0.4334517128	-0.8327252727	 0.101843
H	 1.41419799	-1.2382857142	 1.2183236777	 0.106445
H	 1.1741905017	 0.3956401986	 1.8273785154	 0.112016
H	-0.1836459997	-1.6837728751	 3.0116805092	 0.101961
H	-1.0826444896	-0.1939755659	 2.6803839559	 0.102098
H	-0.9711855185	-2.6538937883	 0.8789131985	 0.076439
H	-4.0285050161	-1.9376732646	-0.251718738	 0.10495
H	-4.3121328512	-0.5503055591	 0.8114977567	 0.110277
H	-2.7866522795	 0.3838550416	-1.1427552994	 0.112755
