19
gdb 110046	2.38943	1.4512	1.05129	4.8867	71.1	-0.2462	-0.0249	0.2214	1168.9692	0.159199	-460.191301	-460.182459	-460.181515	-460.224931	33.435	
O	-0.1195863778	 1.507781214	-0.2164830813	-0.430812
C	 0.0374938104	 0.1039758092	-0.1898214974	-0.08117
C	-1.3069304578	-0.597091546	 0.0519871793	-0.114051
C	-1.34265351	-2.1288741955	 0.0030541668	 0.076885
O	-0.1944706155	-2.5889728591	 0.7110730716	-0.43401
C	-2.6439609434	-2.4835400683	 0.7581179869	-0.249291
C	-2.6780176602	-1.4899820535	 1.9321007298	-0.307309
C	-1.9061783612	-0.2714237686	 1.4228688819	 0.421014
O	-1.7707633743	 0.7768112319	 2.0111121259	-0.341787
H	-0.5252115799	 1.7435245049	 0.6296923571	 0.294102
H	 0.4426320768	-0.1929589537	-1.1630593004	 0.102988
H	 0.7561485364	-0.2169177604	 0.5759951648	 0.108201
H	-2.0220489539	-0.2143693463	-0.6914154218	 0.11216
H	-1.3423320982	-2.5113318392	-1.0262517278	 0.071704
H	-0.2144238597	-3.5510230901	 0.725791656	 0.287301
H	-3.5032010379	-2.3328746408	 0.0947842372	 0.109538
H	-2.6567374205	-3.5310101973	 1.0739897377	 0.097539
H	-3.677782676	-1.2077998183	 2.2704415709	 0.131437
H	-2.1381849974	-1.8764999827	 2.8031921028	 0.145559
