18
gdb 112363	2.25691	1.36041	0.8942	2.724	73.29	-0.2455	-0.0376	0.2079	1287.7037	0.147013	-439.157814	-439.148844	-439.1479	-439.192413	32.629	
C	-0.1227316077	 1.5826991124	 0.0597447965	-0.399896
C	-0.0598930686	 0.0547541642	 0.0018011528	-0.165263
C	 0.7178173363	-0.4786633308	-1.2105339601	-0.088214
N	 2.1418298667	-0.1968625279	-1.1989432268	-0.31716
C	 2.9919237224	-1.2696971088	-1.288128279	 0.408236
O	 4.1999097221	-1.2117265148	-1.3123782408	-0.368933
C	 2.1232830839	-2.5249842609	-1.3548778614	-0.461155
C	 0.6918625987	-2.019558875	-1.2695315498	 0.397978
O	-0.3143253221	-2.6759190555	-1.2343719651	-0.305854
H	 0.8743235945	 2.0263755047	 0.1575144208	 0.115717
H	-0.5877780209	 1.9957665824	-0.8422274357	 0.121834
H	-0.7102952942	 1.9152282879	 0.9201852138	 0.127905
H	 0.4001298086	-0.3384576613	 0.9163170425	 0.105519
H	-1.0686385828	-0.3672805871	-0.0561411915	 0.129168
H	 0.2432523843	-0.0977840699	-2.1287992824	 0.110758
H	 2.5227499518	 0.7364824081	-1.1897839284	 0.256372
H	 2.2956144597	-3.064429773	-2.2917875069	 0.166595
H	 2.3553583872	-3.2187110946	-0.5416270885	 0.166391
