25
gdb 92904	2.28631	1.4212	1.0745	0.231	93.68	-0.2344	0.03	0.2644	1284.3768	0.229606	-352.385662	-352.375956	-352.375011	-352.419278	38.376	
C	-0.0651242181	 1.5585639359	-0.0395426727	-0.418622
C	 0.0626700575	 0.0325136955	 0.0032975382	 0.029647
C	 0.6574108656	-0.526739744	-1.3016524942	-0.249305
C	 0.9712021238	-1.9954641738	-1.2025099043	-0.079221
C	 0.9671993721	-2.6657476382	-0.0509843098	-0.033277
C	 0.6679539324	-2.0367542522	 1.2928508434	-0.024213
C	 1.4693847682	-2.7129114895	 2.4159269017	-0.417238
C	 0.8382951828	-0.4962552747	 1.2354330944	 0.01655
C	 2.3110967299	-0.0548785726	 1.2593739387	-0.404241
H	 0.9044854581	 2.047549365	-0.1809605924	 0.115353
H	-0.7092287747	 1.8707063014	-0.8689855622	 0.108958
H	-0.5035468257	 1.9470996524	 0.8862315552	 0.107794
H	-0.9546811893	-0.3757462726	 0.0891887827	 0.069959
H	-0.0423634044	-0.3512074698	-2.1299281059	 0.098457
H	 1.5670620872	 0.0299293888	-1.5753831243	 0.102642
H	 1.2082167348	-2.5143104916	-2.1289485179	 0.079804
H	 1.1875933887	-3.7319135861	-0.0490357821	 0.076147
H	-0.394803194	-2.2246521811	 1.5156693652	 0.078599
H	 2.5474743267	-2.6577623872	 2.2380138373	 0.120294
H	 1.2609195152	-2.2471680999	 3.3852524502	 0.108464
H	 1.2030781184	-3.7726513597	 2.4911222519	 0.109688
H	 0.35533938	-0.0796632475	 2.1306676366	 0.058746
H	 2.8880246394	-0.5238335824	 0.4563737837	 0.122107
H	 2.4019897715	 1.0296386857	 1.1512184287	 0.110022
H	 2.7871194641	-0.3227626619	 2.2065072978	 0.112886
