16
gdb 14083	3.76815	1.69071	1.41791	3.4547	67.67	-0.2456	0.0148	0.2603	915.4962	0.130289	-379.879379	-379.871879	-379.870934	-379.911091	27.827	
C	-0.1388028501	 1.4172652145	-0.0915788425	-0.320258
N	 0.0762671642	-0.0219520535	-0.0150063554	-0.110704
C	 1.4455353474	-0.4991906295	-0.1608941895	-0.303459
C	 0.758376328	-0.5264269731	 1.1563601101	 0.207402
C	 1.127735621	 0.1656800983	 2.4723883973	-0.155578
O	 0.7017794223	-1.0344490961	 3.1888632289	-0.266353
C	 0.3317767684	-1.6786302583	 2.0153407846	 0.393221
N	-0.1533928627	-2.8152736793	 1.8202157369	-0.549579
H	 0.6930916516	 2.0135986217	 0.3189379194	 0.101444
H	-0.2733591242	 1.6959001193	-1.1405705128	 0.135749
H	-1.0532255358	 1.6767888377	 0.4502585184	 0.133865
H	 1.5704737431	-1.4210048338	-0.721387598	 0.141703
H	 2.2402386703	 0.2377339246	-0.2811305746	 0.11236
H	 2.1865814908	 0.3722010378	 2.6467537765	 0.124844
H	 0.517243438	 1.0283576169	 2.7535145026	 0.124452
H	-0.2957179224	-3.3198112573	 2.6962631981	 0.230893
