18
gdb 10161	3.69925	1.12189	0.92421	5.4651	72.38	-0.2405	-0.0173	0.2232	1275.2738	0.152693	-381.142712	-381.133448	-381.132504	-381.177559	31.74	
C	-0.0665393483	 1.506248425	-0.0085977697	-0.381446
C	-0.0090901857	-0.0230739807	-0.0129079797	-0.165983
C	 0.7279905778	-0.5735081422	-1.2388749253	-0.193119
N	 0.789571879	-2.0373107096	-1.2781445855	-0.053063
C	-0.3368053588	-2.7108985558	-1.7668971005	 0.089716
N	-0.4900578485	-3.9685050907	-1.759492156	-0.415012
C	 1.943927948	-2.6604485687	-0.8057678798	 0.162604
O	 2.1551678777	-3.8398041931	-0.7328947974	-0.272521
H	 0.9381202901	 1.943050061	 0.0014013007	 0.121419
H	-0.5848414633	 1.8882622692	-0.8951127595	 0.119641
H	-0.5981061228	 1.8767278533	 0.8721390037	 0.125567
H	 0.4915093514	-0.3875684071	 0.8921711465	 0.113654
H	-1.0243437551	-0.4378579834	 0.0106606701	 0.109263
H	 0.2493873745	-0.2195268229	-2.1591370765	 0.119904
H	 1.7536594398	-0.1921323283	-1.2597998038	 0.123636
H	-1.0662760865	-1.9932011951	-2.1639651017	 0.092637
H	-1.3845179253	-4.2013114858	-2.1895494374	 0.229054
H	 2.687156306	-1.8959808752	-0.4982013081	 0.074047
