15
gdb 28178	5.25704	1.27572	1.03134	4.2315	74.9	-0.1724	0.0398	0.2122	1085.6966	0.116585	-413.021913	-413.014563	-413.013619	-413.05337	28.657	
N	 0.1575596729	 1.3775480104	 0.0821728758	-0.605838
C	 0.0090549321	-0.0185857174	-0.0154453313	 0.304176
C	-1.0975777759	-0.8315918096	-0.0286944291	-0.369549
C	-0.5987172714	-2.1785910139	 0.0287238137	 0.29225
C	 0.7779513307	-2.0975211056	 0.078059231	 0.344151
N	 1.2592954534	-3.3771365731	-0.0391696473	-0.394807
C	 0.1240276565	-4.1775135677	-0.0826369212	-0.016294
N	-0.9984773843	-3.4975136866	-0.0654384055	-0.34624
N	 1.1887947361	-0.7874095816	-0.0118716082	-0.428912
H	 0.4684845127	 1.7982502477	-0.7892796576	 0.244007
H	-0.7168685317	 1.8132998899	 0.3466600221	 0.249244
H	-2.1210874782	-0.4978435958	-0.0995956616	 0.090511
H	 2.205369749	-3.7028878252	 0.0557842364	 0.261545
H	 0.2100551267	-5.2538043938	-0.104268129	 0.12117
H	 2.0370445415	-0.4052286478	 0.3738734619	 0.254587
