20
gdb 79178	2.50714	1.89683	1.48759	1.0589	76.73	-0.2261	0.0624	0.2885	969.1618	0.172623	-403.107556	-403.099798	-403.098854	-403.139322	31.413	
C	-0.3358457028	 1.5504668997	 0.0699706636	-0.389796
C	 0.0094665154	 0.0657715503	 0.006528143	 0.000762
C	 0.6838802562	-0.4320876681	-1.3262876715	 0.100906
O	 0.7688249764	 0.5266506736	-2.36908565	-0.427045
C	 2.0930812159	-0.8092200642	-0.8698537158	-0.061485
C	 2.8231596986	 0.4557220582	-0.3217105206	-0.246824
C	 2.3127503693	 0.0786740263	 1.0765322124	-0.046728
C	 1.9054496069	-1.2820845674	 0.6003609195	-0.075372
N	 0.9051205448	-0.3567457612	 1.1064140777	-0.09592
H	 0.5416743279	 2.1855669142	-0.0660348707	 0.130928
H	-1.063744018	 1.817075854	-0.7031763131	 0.099216
H	-0.7805442947	 1.7808396519	 1.0423497869	 0.124194
H	-0.9157440022	-0.5031740334	 0.1605363227	 0.075167
H	 0.1540595822	-1.3276609003	-1.6861258325	 0.061719
H	-0.1209736895	 0.7107970265	-2.6843227705	 0.284524
H	 2.6463305462	-1.4325610619	-1.5706128086	 0.072799
H	 3.9084973105	 0.3345403158	-0.3693583121	 0.10226
H	 2.5512273043	 1.4207161926	-0.7535235228	 0.113629
H	 2.744925566	 0.3814002807	 2.0241285174	 0.088695
H	 2.0273351864	-2.2716173073	 1.0246155648	 0.088371
