19
gdb 46908	3.16436	1.37097	1.04482	3.067	75.69	-0.234	-0.0185	0.2155	1145.9041	0.160345	-423.029422	-423.021558	-423.020614	-423.062093	30.745	
O	 0.048233087	 0.0331920326	-0.4402134539	-0.2954
C	-0.005837343	 1.1885735203	-0.0838498429	 0.369585
C	-1.3524580954	 1.8826696964	 0.1056802893	-0.29184
C	-1.4812411092	 2.8225546553	 1.3211774611	-0.23822
C	-0.7334844354	 4.1267012867	 1.127654201	-0.037694
C	 0.1379040828	 4.6889721512	 2.2334407979	-0.337157
C	 0.7709582958	 4.0557665046	 1.0355217365	 0.117589
O	 1.3697910035	 2.8111902192	 1.236886694	-0.240462
C	 1.3118116348	 1.9606547415	 0.1045388737	-0.172546
H	-1.5439260124	 2.4594052036	-0.8116854134	 0.119658
H	-2.0999077673	 1.0849995165	 0.1359149354	 0.12211
H	-2.5433713742	 3.0321599082	 1.4880870401	 0.107662
H	-1.1235315619	 2.3100884785	 2.2193180403	 0.115547
H	-1.2238987047	 4.8453845614	 0.4757750616	 0.087523
H	 0.2156620354	 5.7643063768	 2.3463114921	 0.116975
H	 0.1886153766	 4.1287802279	 3.1608336008	 0.128362
H	 1.2904764372	 4.6874943989	 0.3137895694	 0.086359
H	 2.1006644368	 1.2138838616	 0.217786519	 0.133809
H	 1.5110808536	 2.5269079789	-0.821157152	 0.108142
