14
gdb 31906	3.83195	1.12128	0.87225	3.1645	78.14	-0.2106	-0.0277	0.1829	1252.6733	0.0997	-436.669695	-436.661387	-436.660443	-436.703428	29.536	
C	 0.0775121337	 1.4571420853	-0.1566955606	-0.251852
O	 0.0329327238	 0.0305012698	-0.0537878973	-0.268898
C	 0.5914864879	-0.6709070061	-1.0319791808	 0.414218
C	 0.7109043467	-2.0156007782	-1.2268014099	-0.24227
N	 1.384588511	-2.2239575809	-2.4123657589	-0.298023
C	 1.6424722281	-1.0406744527	-2.8829268425	 0.205674
O	 1.1742627698	-0.0232082886	-2.0670548465	-0.216305
C	 2.3090132685	-0.6696257042	-4.063122416	 0.27007
C	 2.8790564308	-0.3451621385	-5.0725375967	-0.377667
H	 1.1109802898	 1.8156347304	-0.1784949847	 0.144515
H	-0.4430514272	 1.8008816805	-1.0555606009	 0.144421
H	-0.4285228577	 1.8294338931	 0.7336446434	 0.14699
H	 0.3622643534	-2.8198642518	-0.6021459597	 0.128729
H	 3.3828915313	-0.0675328581	-5.9651241589	 0.200398
