15
gdb 23617	4.21264	1.45884	1.26893	1.53	71.7	-0.2377	-0.0047	0.233	963.5813	0.114053	-416.696131	-416.689719	-416.688775	-416.726822	26.248	
O	-0.1374997593	 1.3314477518	 0.1169956	-0.391861
N	 0.0118640033	-0.0664376441	 0.0672408009	-0.276819
C	-1.1138636776	-0.6511913812	-0.0083395498	 0.498442
C	-1.3095355696	-2.1163023269	-0.0886129097	-0.182919
C	-2.6343276476	-2.4737040943	 0.5931338647	-0.117202
C	-2.5649662262	-2.3550503724	-0.8976704533	-0.017227
N	-3.3536651496	-1.0513662721	-0.9008337421	-0.160536
C	-3.4071985681	-1.1394115607	 0.5853285902	-0.042404
C	-2.503950876	-0.1377483835	-0.0563127579	-0.172302
H	 0.7769514611	 1.6310546544	 0.1548846748	 0.308596
H	-0.4895431907	-2.8191377709	-0.1052935533	 0.112253
H	-2.7784100537	-3.3278596844	 1.2381889724	 0.104946
H	-2.6820630384	-3.063933479	-1.7054042263	 0.10972
H	-4.3032664747	-0.8976475104	 1.1444331108	 0.104726
H	-2.7384702031	 0.9151416137	-0.1106527212	 0.122587
