19
gdb 85290	2.45645	1.58858	1.17791	4.7297	75.37	-0.2574	0.0135	0.2709	1105.925	0.159179	-423.075155	-423.066685	-423.065741	-423.107896	32.53	
C	 0.0600712726	 1.528314143	-0.090944495	-0.403059
C	 0.0055520217	 0.0165041882	 0.0590434896	 0.071225
O	 0.5953521766	-0.6022145668	-1.1045831433	-0.248077
C	 1.3323960032	-1.7083797582	-0.7714938623	 0.445869
O	 1.7055137212	-2.4961756379	-1.5913654116	-0.347373
C	 1.5571286035	-1.7097534558	 0.7051234634	-0.243152
C	 2.2287724128	-0.4458107305	 1.2226077261	-0.334691
C	 0.7363160919	-0.5721198281	 1.2688590851	 0.321236
C	-0.0060268415	-0.6452359569	 2.5800897046	-0.490797
H	 1.0929838372	 1.8844654715	-0.1263207876	 0.127591
H	-0.4439813413	 1.8375211584	-1.0101365048	 0.136381
H	-0.4440253291	 2.0074146652	 0.7542713126	 0.122363
H	-1.0442507122	-0.3070862813	 0.095409524	 0.089551
H	 1.7209290961	-2.6580277799	 1.1989850832	 0.115425
H	 2.7629391143	-0.545572965	 2.1611674879	 0.123823
H	 2.7010320387	 0.2165335655	 0.5045417635	 0.1321
H	-0.2280388467	 0.35610636	 2.9662514217	 0.12821
H	-0.9557928392	-1.1800775681	 2.4694678061	 0.126983
H	 0.5862384801	-1.165360843	 3.3384627267	 0.126393
