18
gdb 94667	3.72646	0.90846	0.79078	5.6882	70.69	-0.2457	0.0337	0.2793	1431.2525	0.146163	-476.183961	-476.174465	-476.17352	-476.219847	32.869	
O	 0.231546142	 1.2760110335	-0.0431375558	-0.423259
C	-0.030220022	-0.100720363	 0.0878356675	 0.042993
C	-0.546165396	-0.6093418976	 1.4540431951	-0.099901
O	-1.7862748164	-1.0537255975	 0.8617335275	-0.29149
C	-1.4301253925	-0.5013644461	-0.4297092067	 0.106015
C	-2.3437718537	 0.6394338234	-0.8490126867	-0.098173
O	-3.6265896228	 0.1497971309	-1.2285417583	-0.189027
C	-4.5208746595	-0.0560395522	-0.2364617743	 0.133921
N	-5.6476342734	-0.5554831914	-0.5073529556	-0.44483
H	 1.132459791	 1.4507975957	 0.2445946751	 0.294706
H	 0.7804952605	-0.7064269421	-0.3330090799	 0.088421
H	 0.003586395	-1.4361916143	 1.9179726514	 0.106641
H	-0.6952304795	 0.1939803899	 2.1866917356	 0.105415
H	-1.4459475889	-1.2787471565	-1.2023528188	 0.098677
H	-2.4275256521	 1.3789453902	-0.0450400635	 0.118181
H	-1.934121778	 1.1394284509	-1.7301874131	 0.131034
H	-4.1574555072	 0.2528842447	 0.7504026855	 0.094562
H	-6.2039053366	-0.6253283286	 0.3422278651	 0.226112
