16
gdb 56525	2.66933	1.24598	1.06619	3.6891	71.13	-0.278	0.0009	0.2789	1154.8545	0.119783	-437.849246	-437.83903	-437.838086	-437.883972	36.875	
C	-0.049019142	 1.5775300354	 0.1122557564	-0.42705
C	-0.0359966741	 0.0484286346	 0.0199604454	 0.135172
O	 0.7111053405	-0.4200832347	 1.1378855382	-0.43742
C	-1.3955691823	-0.5005631774	 0.0275843922	 0.29655
C	-2.4898583575	-0.9958679752	 0.0599546591	-0.442117
C	 0.6837119884	-0.4442217067	-1.2874628468	-0.02785
O	 0.0407842768	-0.0425268179	-2.4748962898	-0.407875
C	 2.1018354687	-0.0352530077	-1.2757555871	 0.26485
N	 3.1989192131	 0.3244219594	-1.3201576079	-0.322958
H	 0.9770098802	 1.9543393508	 0.1300131656	 0.153725
H	-0.5892950588	 2.0137445697	-0.7315461173	 0.125158
H	-0.5499529532	 1.8790196543	 1.0335305607	 0.147596
H	 0.4803054108	-1.3428742594	 1.2927991792	 0.293159
H	-3.4637269329	-1.4202567267	 0.0847715014	 0.20832
H	 0.6453338207	-1.5387376444	-1.2819461895	 0.138875
H	 0.2251880117	 0.8911812959	-2.6266022199	 0.301866
