19
gdb 107925	3.80704	1.17299	1.0881	1.0757	75.09	-0.2384	0.0803	0.3187	1170.8474	0.158613	-422.954231	-422.94597	-422.945025	-422.986934	32.104	
C	 0.1979423038	 1.2387161109	 0.1608018262	-0.260272
O	-0.0992079122	-0.1048774908	-0.1870843192	-0.283747
C	 0.584483996	-0.5489757254	-1.2903976592	 0.449101
C	 0.3075160416	-0.2171644056	-2.7579909555	-0.312885
C	 1.1908567992	-1.4599663119	-3.0614529797	-0.109264
C	 0.9187797197	-1.9769254936	-1.5852810293	-0.19413
C	 2.0496164374	-1.0269847377	-1.1874642175	-0.186871
C	 2.6206211537	-1.0441268672	-2.6027364388	 0.161283
O	 3.6183408402	-2.0167790281	-2.8208347742	-0.445245
H	 1.266697846	 1.3684597644	 0.379346173	 0.113107
H	-0.0831693432	 1.9355338111	-0.6406780059	 0.115642
H	-0.384954453	 1.4720829001	 1.0541059239	 0.129148
H	-0.7440972501	-0.3894143436	-3.0047438324	 0.106008
H	 0.6359103928	 0.7451585533	-3.1678612498	 0.090794
H	 1.062368814	-2.0348364924	-3.9759700612	 0.078958
H	 0.5530424263	-2.8984873743	-1.1574915062	 0.100372
H	 2.5760438638	-0.9829383399	-0.2416824368	 0.090755
H	 3.0206491397	-0.114462306	-3.022063542	 0.078779
H	 3.3433258044	-2.8196514333	-2.3614916755	 0.278465
