19
gdb 79318	3.42961	1.21966	1.14972	3.4009	82.29	-0.241	-0.0147	0.2264	1150.9845	0.159532	-385.859243	-385.851265	-385.850321	-385.891856	30.786	
C	 0.0275665241	 1.6367107198	-0.0279850881	-0.427113
C	 0.0947185244	 0.1152463422	 0.0013572113	 0.036242
C	 0.8084311073	-0.6575722401	-1.1164041247	-0.13355
C	 2.2606894809	-0.8139551044	-0.7361158059	-0.119417
C	 2.474781822	-0.1476918992	 0.6250709261	-0.237287
C	 1.0457827394	-0.6378133786	 0.9863308914	-0.148146
C	 1.2093554435	-1.7487139052	-0.1122792858	 0.313086
C	 1.070660874	-3.1899930048	-0.1959271246	-0.005188
O	 0.7437238092	-3.9201262731	 0.7132384317	-0.281797
H	 1.0070943429	 2.0930871341	-0.1936599739	 0.120248
H	-0.6331816625	 1.9763824518	-0.8330414858	 0.1185
H	-0.3730432912	 2.0264682538	 0.9144098744	 0.119878
H	-0.9120213367	-0.3001314846	 0.1174783814	 0.085265
H	 0.4727052751	-0.8241791114	-2.1328453269	 0.098585
H	 3.0071678988	-1.0966956003	-1.4677170618	 0.101622
H	 3.2322157229	-0.6824096587	 1.2028899682	 0.11371
H	 2.6798246199	 0.9270250301	 0.6580276406	 0.097243
H	 0.7551362066	-0.807942422	 2.0194865767	 0.089188
H	 1.2995658192	-3.5949631094	-1.2106547944	 0.058931
