15
gdb 46284	3.31815	1.39648	1.27285	2.3113	66.55	-0.2633	0.0001	0.2634	1003.5407	0.114029	-453.948211	-453.940967	-453.940023	-453.980427	26.846	
N	 0.1533056013	 1.2453594917	-0.1347126192	-0.537047
C	 0.0871676121	 0.0106306501	 0.0499735091	 0.387919
O	 1.0328736391	-0.9151010132	 0.4376759752	-0.25537
C	 0.069344552	-2.0130753498	 0.3582409737	-0.130821
C	-1.0407563957	-1.0107859626	-0.0249319252	 0.2543
C	-2.2968808187	-0.813801248	 0.8613754583	-0.259249
N	-3.4362354794	-1.0104328625	-0.0459354147	-0.251304
C	-2.9337794696	-1.1978224691	-1.1898253852	 0.115324
O	-1.5793769036	-1.2078643519	-1.3384411942	-0.248319
H	 1.0952492698	 1.6082493921	 0.0190951943	 0.236676
H	 0.3340169921	-2.7200058433	-0.4305195925	 0.136213
H	-0.036640723	-2.5145789833	 1.3233018449	 0.125584
H	-2.3387584563	-1.5288333461	 1.6890828885	 0.125639
H	-2.3290526814	 0.1950071968	 1.284088569	 0.149958
H	-3.4815442088	-1.3613979509	-2.1102923519	 0.150499
