23
gdb 120032	2.78296	0.95539	0.87128	2.5147	82.27	-0.2458	0.0597	0.3055	1488.2493	0.204848	-425.416562	-425.406439	-425.405495	-425.451963	38.016	
C	 0.3152809278	 1.501263199	-0.2782212599	-0.379274
C	 0.109827791	 0.0152627909	 0.0280784555	-0.166301
C	-1.3258521303	-0.4554450345	-0.2371555907	-0.185272
C	-1.5362368208	-1.937894743	 0.0326072571	-0.016499
C	-1.4280743442	-2.5020366693	 1.4774184571	 0.085492
O	-1.899641118	-1.5024848732	 2.3835649198	-0.436202
C	-2.5412861951	-3.5197049907	 1.1130581743	-0.282338
C	-2.973297222	-2.5562430005	-0.0323395284	 0.1221
O	-4.0084852464	-1.6688239877	 0.3295672241	-0.438552
H	 1.3450036887	 1.8136214037	-0.0769456214	 0.107363
H	 0.0992451445	 1.7231794447	-1.3293975218	 0.111898
H	-0.3473091712	 2.1246325798	 0.3323796664	 0.115426
H	 0.8091213782	-0.582446259	-0.5723357944	 0.086743
H	 0.3607793494	-0.1793217889	 1.0780247575	 0.1044
H	-2.0183789267	 0.1321769334	 0.3735193794	 0.101798
H	-1.5947098459	-0.2507341551	-1.2823505053	 0.092174
H	-0.8752586559	-2.5351217416	-0.6074525616	 0.072044
H	-0.4573954682	-2.8924841034	 1.8065286023	 0.064302
H	-2.0289207243	-1.9184971314	 3.2424716072	 0.287619
H	-2.1309254718	-4.4612543955	 0.7365615023	 0.10153
H	-3.2928530428	-3.7306696983	 1.8794211784	 0.092373
H	-3.2751761856	-3.0072271429	-0.9808035065	 0.076798
H	-3.7477831905	-1.2736940965	 1.1721637788	 0.282378
