14
gdb 4524	3.82074	1.68896	1.18168	1.6445	60.4	-0.1689	0.0582	0.227	947.8956	0.107158	-415.872429	-415.864136	-415.863191	-415.905043	30.216	
N	 0.1745591883	 1.4219633115	 0.0484361855	-0.610317
C	-0.016120585	 0.0202859223	 0.0106386127	 0.250486
C	-1.121319351	-0.8011574733	-0.0163066615	-0.323388
C	-0.6459622062	-2.1482706752	-0.0494296146	 0.153281
O	-1.3494004302	-3.3380338023	-0.0206028132	-0.46434
C	 0.7265510259	-2.1012831767	-0.036112873	 0.31265
O	 1.6565063879	-3.0894601665	-0.0409371362	-0.445903
N	 1.1068139819	-0.7921299919	 0.0057369134	-0.306141
H	-0.2066352146	 1.8791209968	-0.7734725559	 0.240203
H	-0.2704443814	 1.840833734	 0.8582549193	 0.241878
H	-2.1524118101	-0.4814305122	-0.0093478899	 0.085159
H	-1.915793782	-3.3808085397	-0.7980937603	 0.293984
H	 1.164905794	-3.9196755027	-0.0338504794	 0.307552
H	 2.0518818524	-0.4502722441	 0.0365688031	 0.264896
