20
gdb 7460	3.04192	1.35588	1.18788	1.6233	67.29	-0.2436	0.0623	0.3058	1121.7297	0.174084	-423.277382	-423.267318	-423.266374	-423.311685	37.011	
C	 0.0414855326	 1.5997203594	 0.086054668	-0.409581
C	 0.0236469328	 0.0750485904	 0.0828825079	 0.106785
O	 0.6641097386	-0.4644046865	 1.2399507857	-0.431912
C	-1.4087059764	-0.4897766577	-0.0431314982	 0.124127
O	-2.0973276303	 0.0735487617	-1.1481106961	-0.443915
C	-1.4066246942	-2.0236730387	-0.1516690221	 0.113195
C	-2.7965458865	-2.623381594	 0.0396248626	-0.41949
O	-0.9048665027	-2.2855226208	-1.4708927313	-0.456718
H	 1.0686361085	 1.9696874606	 0.1458114832	 0.117337
H	-0.4340407917	 1.9910370884	-0.8154511938	 0.136423
H	-0.5153234745	 1.9897099837	 0.9491028829	 0.0991
H	 0.6096816907	-0.3019553823	-0.7629427943	 0.099389
H	 0.291556201	-0.020045074	 2.0098346014	 0.27607
H	-1.9685732738	-0.2008739752	 0.8579147088	 0.064264
H	-1.8204457955	-0.4538109488	-1.9101702535	 0.289647
H	-0.7104385751	-2.418643246	 0.5988071648	 0.09152
H	-3.5086453357	-2.1580672613	-0.6474264978	 0.134017
H	-2.785631516	-3.7047252895	-0.1414686056	 0.102169
H	-3.1481433111	-2.4661880338	 1.0644500389	 0.118993
H	-1.0279206506	-3.2189354657	-1.6646950116	 0.288579
