16
gdb 15133	5.97228	0.92421	0.84299	1.8316	73.09	-0.2408	-0.0225	0.2183	1330.2545	0.130523	-379.932151	-379.924122	-379.923178	-379.965451	28.563	
O	-0.8044581991	 0.8588515701	-0.7707866374	-0.297126
C	-0.1775309267	 1.5886079471	-0.0398735218	 0.159996
N	 1.1566530309	 1.4444577567	 0.2597695207	-0.303971
C	 1.9653262487	 0.433906476	-0.2473053956	 0.115165
N	 3.1847285198	 0.3721532285	 0.0865124375	-0.258
C	 4.0058289341	-0.676464629	-0.4434250355	 0.055434
C	 4.2555902003	-1.9194232717	 0.3677368991	-0.248033
C	 3.4991808367	-2.0102681568	-0.9416098016	-0.28729
H	-0.617101446	 2.4639032372	 0.4744010424	 0.091191
H	 1.6013534073	 2.1016904158	 0.8854325385	 0.264772
H	 1.4356031332	-0.2386932416	-0.9235423601	 0.141802
H	 4.8794676315	-0.274688367	-0.9502555084	 0.099546
H	 5.265923737	-2.3090307944	 0.4237048037	 0.114366
H	 3.6768686337	-2.0318137088	 1.2782489574	 0.118026
H	 2.4386619516	-2.2269632957	-0.8845860704	 0.118677
H	 3.9922852769	-2.4543780265	-1.7993282384	 0.115444
