19
gdb 56632	2.15576	1.32539	1.15567	1.2283	77.46	-0.2456	0.0497	0.2953	1190.6141	0.155483	-422.970693	-422.960654	-422.95971	-423.005133	37.919	
C	 0.2765886953	 1.3131123765	 0.3722573001	-0.392577
C	-0.1093334547	-0.1377941802	 0.0230914131	-0.20441
C	-1.5582801187	-0.2710667185	-0.1505638122	 0.299713
C	-2.7408491398	-0.3564348471	-0.35552016	-0.464485
C	 0.5829066882	-0.6088560255	-1.2582624374	 0.410551
O	 0.1601308514	 0.0424916637	-2.4216417519	-0.472863
C	 2.048159768	-0.9457001693	-1.243356131	-0.381029
C	 1.0102175862	-2.0448528532	-1.3949630919	 0.025113
O	 0.7584246278	-2.906538435	-0.3234915509	-0.418717
H	 1.3502676023	 1.3791032554	 0.5701068857	 0.115694
H	 0.0385929876	 1.9757327585	-0.463122627	 0.136034
H	-0.264300231	 1.6568735899	 1.2573164053	 0.120534
H	 0.2026108089	-0.8088465211	 0.8303517804	 0.12105
H	-3.7892954074	-0.447777102	-0.4978739509	 0.197079
H	-0.7959293191	-0.0879325396	-2.4828475206	 0.284682
H	 2.6308369972	-0.6637386389	-2.1128519836	 0.124457
H	 2.5666640057	-0.8871657513	-0.2918087109	 0.114369
H	 0.8922265418	-2.4780259136	-2.3876526907	 0.094371
H	 1.5232867203	-3.481960929	-0.2168165754	 0.290433
