15
gdb 31298	2.37118	1.51038	0.93034	3.1205	78.65	-0.2023	-0.0177	0.1846	1191.6686	0.114929	-413.042144	-413.033692	-413.032748	-413.075731	30.026	
C	-0.0609233378	 1.471891407	 0.0832713565	-0.323924
N	-0.0354726881	 0.0417502512	-0.1730315909	-0.396641
C	-1.1713544991	-0.7067840732	-0.0699924915	 0.30479
C	-1.2773570631	-2.0988352703	-0.0025970307	 0.126462
N	-2.6540913613	-2.3409745225	 0.0325515553	-0.327496
C	-3.2679018092	-1.1438816578	-0.0066450609	 0.030235
N	-2.4148072414	-0.1375310217	-0.0657283161	-0.317537
C	-0.2964269626	-3.0952045443	 0.0323828901	 0.183586
N	 0.5418040687	-3.9003900598	 0.063992355	-0.370289
H	 0.8970333132	 1.898678014	-0.2218041591	 0.126173
H	-0.8549871011	 1.93175763	-0.5072325549	 0.159093
H	-0.2391000444	 1.717591733	 1.1397639354	 0.121517
H	 0.8201208792	-0.4401454196	 0.0538829209	 0.255738
H	-3.0864604986	-3.2481808355	 0.0827724382	 0.281768
H	-4.3430537643	-1.0454605505	 0.0116044327	 0.146524
