19
gdb 61815	2.69623	1.08992	0.89711	3.5504	72.99	-0.2728	0.0047	0.2775	1328.7773	0.156014	-460.169965	-460.160099	-460.159155	-460.205505	35.686	
C	-0.3724006517	 1.4506552018	 1.1932434439	-0.407796
C	-0.0896366629	 0.2879023639	 0.2463942342	 0.048101
O	 0.7617284819	-0.656178069	 0.9218561151	-0.189399
C	 2.0411350415	-0.7758127872	 0.5188884607	 0.171545
O	 2.8155640371	-1.5193314005	 1.0409773244	-0.275625
C	-1.3549618358	-0.4301464981	-0.211266739	 0.393248
O	-2.1888727263	 0.4145860815	-0.9624895909	-0.467813
C	-1.3140751784	-1.8528835291	-0.6736440573	-0.306166
C	-1.9916643893	-1.4967996577	 0.6377011791	-0.323083
H	 0.5575786079	 1.950286406	 1.4776416522	 0.128283
H	-1.0159804732	 2.1875356773	 0.7048254508	 0.12306
H	-0.8638503068	 1.0932283157	 2.1029031409	 0.135437
H	 0.4260982784	 0.6593650453	-0.6500860723	 0.097366
H	 2.2834877475	-0.117606271	-0.3381558555	 0.081237
H	-2.7343026451	 0.9206917451	-0.351034809	 0.287065
H	-1.9498214561	-2.0918184793	-1.5178336913	 0.125843
H	-0.3772002351	-2.394151299	-0.6264774748	 0.129501
H	-1.4937735742	-1.7860717511	 1.5557131932	 0.135306
H	-3.0755292895	-1.5229755745	 0.6653880557	 0.11389
