17
gdb 26993	3.02243	1.20084	0.88833	2.536	80.	-0.2104	0.0261	0.2365	1271.6322	0.136753	-380.930456	-380.921614	-380.92067	-380.965239	31.742	
C	-0.511962932	 1.555175037	 0.2785405319	-0.508759
C	-0.1591998742	 0.1067769113	 0.1146246242	 0.187915
C	 0.2082364707	-0.5360748368	-1.0512234596	 0.238205
C	 0.3349209688	-0.0065322071	-2.4528921922	-0.456214
C	 1.3275485251	-0.739887519	-3.2418466415	 0.261909
N	 2.0910463	-1.3638763049	-3.8446738326	-0.31384
N	 0.4097658596	-1.8652080878	-0.7610350622	-0.295217
C	 0.1937926349	-2.0841619789	 0.5733336154	-0.084644
C	-0.1662351315	-0.8858374365	 1.1400948519	-0.225251
H	-0.097268648	 2.173173354	-0.5248208517	 0.114427
H	-1.5968581087	 1.7191426868	 0.2831729864	 0.129276
H	-0.1246703488	 1.948767521	 1.2237389054	 0.130448
H	-0.6183310812	-0.0501660916	-2.9996257831	 0.164104
H	 0.6207250921	 1.0503789025	-2.4251565167	 0.167703
H	 0.7609160783	-2.5438900799	-1.416250685	 0.272711
H	 0.3267047374	-3.0635086121	 1.0036061566	 0.12286
H	-0.4086925824	-0.7234976181	 2.1796791426	 0.094366
