20
gdb 31227	2.08356	1.35329	0.89672	2.0007	83.85	-0.1946	0.0448	0.2394	1344.26	0.171304	-403.1844	-403.174744	-403.1738	-403.220651	35.048	
C	 0.1798900394	 1.4475456668	-0.3360102399	-0.363585
C	-0.0919760874	-0.0133720054	 0.069229249	-0.303118
C	 0.6049205092	-0.4360710309	 1.3253561952	 0.206022
C	 0.1565506263	-0.5863721113	 2.6253884711	 0.226189
C	-1.2334944592	-0.3820421036	 3.1293315636	-0.21356
O	-1.7380018096	-1.6218520726	 3.6310663138	-0.417086
C	 1.2738294474	-0.9873701525	 3.4199701283	-0.218966
C	 2.3644923475	-1.0657591513	 2.5938296015	-0.092463
N	 1.9503963622	-0.725059052	 1.3283109054	-0.292165
H	 1.2489340033	 1.6233886403	-0.4953618639	 0.110033
H	-0.3443282679	 1.7018069791	-1.2629898525	 0.111094
H	-0.152818392	 2.1355995955	 0.4468820441	 0.123345
H	-1.1685789393	-0.1595260785	 0.1995415537	 0.118585
H	 0.2016691225	-0.6770771554	-0.7555978333	 0.100159
H	-1.2354515298	 0.3760190697	 3.9296053702	 0.086369
H	-1.875317677	 0.0065018054	 2.3231310301	 0.079027
H	-2.5764237305	-1.4380230559	 4.0669555487	 0.279463
H	 1.2562299936	-1.2060675226	 4.4766202104	 0.093729
H	 3.3894148433	-1.3376869043	 2.7888895425	 0.112902
H	 2.5393826079	-0.7049218804	 0.514089092	 0.254025
