16
gdb 128079	4.41555	1.13187	0.90609	1.7038	74.39	-0.2516	-0.0182	0.2334	1244.2892	0.126388	-434.129628	-434.121408	-434.120464	-434.163226	29.234	
C	 0.0833106202	 1.4020958754	 0.0553347089	-0.333153
N	-0.0776325553	-0.0361876893	 0.0716908909	-0.359374
C	-1.2797252323	-0.6244695663	-0.0865928031	 0.541997
O	-2.3509179524	-0.0826180044	-0.2571389017	-0.39466
N	-1.1969330489	-2.0531269824	-0.0350556158	-0.060175
C	-2.2476294727	-2.9108924169	-0.1639262889	 0.011955
C	-1.7335777904	-4.1790865034	-0.054190196	-0.255559
C	-0.3437928109	-3.9868460565	 0.1423377531	 0.011148
N	-0.0196947696	-2.7030404989	 0.1538977034	-0.274353
H	 0.7490198451	 1.7161230736	-0.7559063977	 0.132259
H	-0.9002821067	 1.8465878316	-0.1003941575	 0.170771
H	 0.4923232445	 1.7649295246	 1.0045272702	 0.132259
H	 0.7103925507	-0.6539094491	 0.203247689	 0.272988
H	-3.241967788	-2.528158538	-0.3189245868	 0.164873
H	-2.2746384231	-5.1095309195	-0.1070344741	 0.115333
H	 0.4258623995	-4.7336732306	 0.274776816	 0.12369
