13
gdb 3957	7.38588	1.94221	1.59714	1.2726	55.45	-0.2399	0.025	0.2649	735.4575	0.103848	-340.646592	-340.640167	-340.639223	-340.677445	22.914	
O	 0.0576176981	 1.3029465371	 0.5102630352	-0.418341
C	-0.0243301986	 0.0084084377	-0.0742261944	-0.184234
C	-1.4451904424	-0.4536419527	 0.0028267249	 0.352301
N	-1.7308442761	-1.7290522698	 0.2558553579	-0.295288
N	-3.0759509267	-1.7850908839	 0.212424152	-0.181188
C	-3.6501402515	-0.5849842452	-0.0470105265	-0.021384
C	-2.6172151784	 0.3136309049	-0.1939568609	-0.259601
H	 0.9423307184	 1.6426829717	 0.3469861064	 0.287863
H	 0.3002072952	 0.0397330111	-1.1275086186	 0.096963
H	 0.6129641654	-0.7232243165	 0.4424017833	 0.107639
H	-3.5319096735	-2.6638555921	 0.3876135075	 0.273665
H	-4.7212141606	-0.4688782182	-0.1002204937	 0.130371
H	-2.6845584493	 1.368956936	-0.3968503929	 0.111236
