19
gdb 114882	4.16975	1.08725	0.93909	1.6188	79.53	-0.229	0.0049	0.2339	1279.553	0.158995	-422.980334	-422.971983	-422.971039	-423.013718	31.084	
C	-0.2084039106	 1.1989601259	-0.0453301841	-0.239403
O	 0.4748682328	-0.0350513045	-0.1093255271	-0.237366
C	 0.8678628799	-0.5150152695	 1.1393584992	 0.065698
C	-0.1825940248	-1.255265196	 2.0746144656	-0.303312
C	 0.9372249519	-2.3151842002	 2.3827671677	 0.094167
O	 0.7534787846	-3.7092981807	 2.2329847473	-0.280345
C	 1.5084528327	-4.1312023618	 1.0793740969	-0.106965
C	 1.8356378059	-2.8570049174	 0.3158813139	-0.22528
C	 1.5892798409	-1.8350143501	 1.1246753676	 0.174268
H	 0.4078883092	 1.9793641569	 0.4275665609	 0.107353
H	-0.4312821241	 1.4976955716	-1.0719683772	 0.13089
H	-1.1520999579	 1.1174276587	 0.5137611246	 0.112283
H	 1.3941988727	 0.2669109992	 1.7104167499	 0.075953
H	-0.5941186241	-0.6936244531	 2.9165044938	 0.099039
H	-0.9758399846	-1.6933094504	 1.4660344781	 0.123082
H	 1.4439918818	-2.0976235859	 3.3324375351	 0.078705
H	 2.3958496728	-4.6986476519	 1.4027455936	 0.104851
H	 0.8878622412	-4.8082053446	 0.4775067777	 0.113154
H	 2.0568406497	-2.838667916	-0.7429260435	 0.113229
