19
gdb 69977	2.48855	1.85576	1.36678	3.1624	74.3	-0.2391	0.0562	0.2953	1006.4218	0.157713	-422.963344	-422.955137	-422.954192	-422.995506	32.169	
C	-0.0999448531	 1.5460028325	 0.1249785274	-0.511504
C	 0.1343676515	 0.0736155988	 0.0181828858	 0.357389
O	-0.7801116939	-0.8019585492	 0.6823808396	-0.266333
C	 0.6121910305	-0.9450266113	 0.9841223382	-0.076892
C	 1.2514588456	-1.7761382559	-0.1626949314	 0.045853
O	 0.4310231634	-2.8085613552	-0.7258319351	-0.285704
C	-0.1163589081	-1.8951112146	-1.7121863282	-0.12211
C	 0.7513389987	-0.7231958091	-1.1827209092	 0.210161
C	 1.6651464701	 0.0251939604	-2.1244764014	-0.501202
H	 0.7867830382	 2.1119083417	-0.1759425136	 0.126832
H	-0.9310984691	 1.8549044227	-0.5195355696	 0.132332
H	-0.3534184953	 1.8124164835	 1.1544644389	 0.137812
H	 0.8973230728	-0.8714028674	 2.0288393566	 0.101638
H	 2.3018097817	-2.0541540056	-0.0356692244	 0.075301
H	 0.1404927715	-2.216506806	-2.7293513248	 0.093374
H	-1.1996334664	-1.786369553	-1.6116748328	 0.112781
H	 1.1001311502	 0.7084397334	-2.7696444196	 0.123438
H	 2.4019317543	 0.623110091	-1.5763319014	 0.120054
H	 2.2140258474	-0.6671604064	-2.7707367649	 0.126781
