21
gdb 110023	2.05441	1.55836	1.00193	1.9914	78.71	-0.2364	-0.0236	0.2128	1250.5905	0.181444	-424.258316	-424.248813	-424.247869	-424.292788	35.148	
C	 0.0205567077	 1.6527606238	 0.073905239	-0.391714
C	 0.0410523594	 0.122017983	 0.1188588212	-0.188648
C	-1.3606424396	-0.5147813149	-0.0282554143	-0.126778
C	-1.3833005445	-2.0599865008	-0.0270552436	 0.11709
C	-0.2360238901	-2.7992930635	-0.6895627072	-0.414137
O	-1.4088071467	-2.4226325627	 1.3639542509	-0.262683
C	-2.2635011826	-1.5154633637	 2.0245957599	-0.177853
C	-2.2100278269	-0.2167517524	 1.2131083501	 0.367482
O	-2.7393082929	 0.8219688788	 1.5125388502	-0.310698
H	 1.0311116705	 2.0536398552	 0.1986626626	 0.111602
H	-0.3642959858	 2.009719178	-0.887726202	 0.114932
H	-0.6157083209	 2.0716382778	 0.8570390359	 0.145987
H	 0.6762776525	-0.2547616442	-0.6901184083	 0.105634
H	 0.4992492043	-0.2239896104	 1.0534850676	 0.110723
H	-1.8535432268	-0.0977096328	-0.9121759134	 0.095353
H	-2.3309189081	-2.3844396028	-0.4921093186	 0.069828
H	 0.7187346764	-2.5502090015	-0.2208799206	 0.131057
H	-0.3899631835	-3.8775692044	-0.5945643159	 0.129144
H	-0.1820394372	-2.5525013723	-1.7542955673	 0.119321
H	-3.3081324605	-1.8699294918	 2.0549749056	 0.117712
H	-1.9260672946	-1.3655113283	 3.0545461881	 0.136648
