16
gdb 50516	4.2182	0.93739	0.7743	3.1188	82.36	-0.2343	-0.0638	0.1705	1381.3078	0.124721	-437.940303	-437.931906	-437.930962	-437.974699	29.215	
O	-0.0798903628	-0.0406573976	 0.0006324085	-0.307883
C	-0.0195534354	 1.1673644592	 0.0098886006	 0.151296
N	 1.1521450249	 1.8862799849	 0.0023442715	-0.067049
C	 1.2483865794	 3.3648648734	 0.0135084617	-0.185596
C	 2.7780623633	 3.64333596	-0.0019031765	-0.333518
C	 3.3876235782	 2.2555614108	-0.0203223621	 0.124549
C	 4.8109354357	 1.9858768312	-0.0389092261	 0.076469
O	 5.6653649072	 2.8504157024	-0.0416430777	-0.289605
C	 2.4135801561	 1.3244172878	-0.0167924967	-0.04711
H	-0.9065856459	 1.8273409452	 0.0255888967	 0.090727
H	 0.7406304655	 3.7777932921	-0.8624047075	 0.135919
H	 0.7611586671	 3.7630819014	 0.907704242	 0.135919
H	 3.081125407	 4.2250533967	-0.8772139445	 0.138277
H	 3.1013983827	 4.2107154783	 0.8755599142	 0.13828
H	 5.0813273242	 0.9066842867	-0.0509235015	 0.066359
H	 2.4906780628	 0.2461951773	-0.0265708425	 0.172966
