19
gdb 62733	2.45578	1.53067	1.26774	2.6857	76.33	-0.2215	0.0088	0.2303	1084.6616	0.158553	-419.201768	-419.192531	-419.191587	-419.234958	35.286	
C	 0.0655853126	 1.5228397161	 0.0398822398	-0.463028
C	 0.0684294056	 0.0058243016	 0.0400252903	 0.271317
C	-1.1947422353	-0.6037984003	-0.544899404	-0.446323
C	 1.3200646701	-0.802086614	-0.1824392589	-0.099273
N	 2.5182382574	-0.1818058746	 0.3869786235	-0.341256
C	 1.9492816292	-0.1025135138	 1.6752456265	 0.339529
O	 2.3641048005	 0.3520989263	 2.7050203577	-0.348757
C	 0.6769189651	-0.8146530948	 1.2088138527	 0.107921
N	-0.0623848852	-1.8334478711	 1.8632131296	-0.597099
H	 0.9842330346	 1.9485883992	 0.4491572549	 0.126249
H	-0.0593520588	 1.9036416001	-0.9803163853	 0.11768
H	-0.769098932	 1.9040046411	 0.6380886351	 0.124479
H	-1.3390270126	-0.2465460471	-1.5706765874	 0.116116
H	-1.1543341306	-1.6941519047	-0.5526721096	 0.137723
H	-2.0761646364	-0.3105057906	 0.0357350588	 0.118676
H	 1.4051444128	-1.6246804499	-0.8813019184	 0.110102
H	 3.003739479	 0.5994165601	-0.0395057114	 0.23996
H	 0.55638743	-2.4854504285	 2.3348664652	 0.242811
H	-0.6757379859	-1.4385740152	 2.5693591408	 0.243169
