17
gdb 32265	2.55048	1.64401	1.01223	2.2894	78.33	-0.2472	-0.0202	0.227	1148.3095	0.137344	-418.073622	-418.065284	-418.064339	-418.1067	30.159	
C	 0.0150981627	 1.4008780566	 0.0378766781	-0.236105
O	 0.0357824164	-0.0283877758	-0.0153672237	-0.258138
C	 0.6246478755	-0.5965919709	-1.0776732043	 0.406438
N	 1.1564102376	 0.1643128064	-2.0228470516	-0.35594
C	 1.7249563099	-0.4793433065	-3.0495215132	 0.061631
N	 1.8118045049	-1.789984051	-3.2197824312	-0.270558
C	 1.2621083575	-2.5311958405	-2.242163805	-0.039613
C	 0.6412138537	-2.006161535	-1.1229286258	 0.142346
C	 0.0310914121	-2.8448910376	-0.0381152731	-0.493399
H	 1.0300273526	 1.8065386617	 0.0445662598	 0.140765
H	-0.520570029	 1.8162789771	-0.819560679	 0.140752
H	-0.5008170094	 1.6476247826	 0.9663895925	 0.131479
H	 2.160329184	 0.1486816922	-3.8234416004	 0.116088
H	 1.3239917562	-3.6113122767	-2.3649824247	 0.109597
H	 0.4961514592	-2.6392749082	 0.931885772	 0.14005
H	-1.0371174229	-2.6315685454	 0.075539681	 0.140044
H	 0.1490284789	-3.9090397789	-0.2589607214	 0.124561
