16
gdb 3599	5.28739	2.04975	1.79377	1.7917	60.44	-0.2444	0.0943	0.3387	752.3138	0.137137	-325.72908	-325.722099	-325.721154	-325.759978	25.618	
C	 0.2716448715	 1.4997778504	-0.1323680294	-0.435908
C	 0.043750472	 0.0333490728	 0.1307606569	 0.086354
O	 1.1894959891	-0.838817467	 0.1504184468	-0.263651
C	 0.446295276	-0.6694264157	 1.3618228491	 0.022881
C	 1.1754598612	-0.0115383241	 2.4970619869	-0.029849
C	 2.4429393158	-0.6096326113	 2.9876143653	-0.23855
N	 2.4536296492	 0.6658833618	 2.2492505259	-0.31567
H	 1.0449375102	 1.919502368	 0.5128737038	 0.152641
H	 0.5613119295	 1.6562488643	-1.176860158	 0.129922
H	-0.6581198648	 2.0530598741	 0.0396579934	 0.124349
H	-0.7963227776	-0.3982279281	-0.4170965279	 0.092952
H	-0.1409101543	-1.5443695083	 1.650106923	 0.094876
H	 0.5289137827	 0.4923344135	 3.2135992181	 0.097423
H	 2.707891724	-0.5391175046	 4.0385203538	 0.118503
H	 2.8091716117	-1.4973933509	 2.4785774583	 0.121879
H	 2.7178949237	 0.4651338052	 1.2853882341	 0.241848
