16
gdb 51709	4.12222	0.89027	0.75721	4.4976	66.03	-0.261	-0.0351	0.2259	1411.732	0.124335	-475.081219	-475.072766	-475.071822	-475.11579	29.595	
O	-0.7442803134	 0.8070972582	 0.7583845874	-0.23227
C	 0.0315245959	 0.9542544336	-0.149882045	 0.15037
C	 1.2985558376	 1.7865359665	-0.0520160821	-0.300362
C	 1.4379303233	 2.7893579055	-1.1924528529	 0.11746
C	 2.7055012082	 3.6685319467	-1.132359619	-0.205346
N	 3.0005490988	 3.7755628701	-2.5471770025	-0.364791
C	 2.4613731589	 2.7213506475	-3.2546158978	 0.474922
O	 2.697313149	 2.3797916795	-4.3772338074	-0.380918
O	 1.550878753	 2.0898396429	-2.4436898336	-0.255385
H	-0.1315034873	 0.4739644989	-1.137733754	 0.109527
H	 1.3024597053	 2.3009717331	 0.9137691647	 0.129629
H	 2.1578766563	 1.103157668	-0.0886770713	 0.134871
H	 0.5471888172	 3.4283619155	-1.2486073889	 0.111112
H	 2.5048783105	 4.6399764541	-0.6729171194	 0.130407
H	 3.5093991089	 3.1739160482	-0.5678311071	 0.114218
H	 3.8663311878	 4.1607940316	-2.8878482211	 0.266557
