19
gdb 68533	2.61782	1.98718	1.69056	1.4249	77.45	-0.2324	0.0103	0.2427	912.484	0.160774	-385.864766	-385.857822	-385.856878	-385.895432	29.816	
C	-0.0131851683	 1.4910448884	-0.0496125074	-0.504174
C	 0.0231864671	-0.0150230853	 0.0546115403	 0.360046
O	 0.6547908642	-0.612928967	-1.103791966	-0.276174
C	 0.5492229853	-1.9700261942	-0.6415255282	-0.003451
C	 1.1871689791	-1.859712147	 0.740672924	-0.089843
C	 0.8533938969	-0.6455291726	 1.1767941343	-0.124907
C	-1.0036963126	-2.1106375423	-0.4897721103	-0.045327
C	-1.6713664651	-1.9463598635	 0.8526782868	-0.307441
C	-1.3737157265	-0.7358796717	 0.0046911499	-0.066969
H	 0.9995582116	 1.8957279752	-0.1266128645	 0.129396
H	-0.5762530103	 1.7991954054	-0.9355079305	 0.126742
H	-0.4950497333	 1.9237716756	 0.8324408656	 0.12079
H	 1.0024645491	-2.657518177	-1.3540005732	 0.073933
H	 1.6958820473	-2.6547408574	 1.2687754004	 0.105735
H	 1.0249209729	-0.2013585693	 2.148338289	 0.10342
H	-1.536563509	-2.5861973605	-1.3039072301	 0.091791
H	-2.7132151239	-2.249116566	 0.9122549753	 0.106113
H	-1.1038758863	-2.1201530866	 1.7591212172	 0.113018
H	-2.1882639883	-0.1729862244	-0.4363354922	 0.087299
