13
gdb 131134	3.95345	1.09985	0.97586	3.1047	59.64	-0.2836	-0.0566	0.227	1149.7746	0.088517	-489.877455	-489.869809	-489.868865	-489.91075	26.776	
O	 0.2482722488	 1.5821753774	 0.0057134198	-0.406686
C	 0.0743402923	 0.209693714	 0.1177229019	-0.043569
C	 0.5634953528	-0.5076818194	-1.1456063895	 0.130454
O	 1.0071598219	 0.1208010064	-2.0717368297	-0.244464
C	 0.7773701636	-0.383962074	 1.312007505	 0.331303
N	 1.6640735404	 0.2541354857	 2.0271977276	-0.158656
O	 2.0316856808	-0.6954868353	 2.9930609231	-0.145165
C	 1.321908881	-1.7901537578	 2.7323356001	 0.110677
N	 0.5270699744	-1.681100139	 1.7157937188	-0.312773
H	 0.6917061534	 1.7240175647	-0.8465587829	 0.302706
H	-0.9937261225	-0.0532357014	 0.2226489428	 0.131151
H	 0.4822471796	-1.6099498931	-1.1492291133	 0.130708
H	 1.4704226836	-2.6425775283	 3.3790193562	 0.174313
