18
gdb 71815	3.91114	1.55778	1.37065	1.1767	74.24	-0.2242	0.0787	0.3029	957.5256	0.149637	-401.889904	-401.883152	-401.882208	-401.920504	28.639	
O	-0.2191556787	 1.3950709319	-0.0559675347	-0.464756
C	-0.0323296094	 0.026020266	-0.0482110762	 0.378636
C	 0.7384510222	-0.7630109546	-1.109981036	-0.293822
C	-0.1714374105	-1.9835314785	-0.7639974462	-0.015711
C	-1.1260115116	-1.015896598	 0.0063531456	-0.163471
C	-0.2591079267	-0.7959872979	 1.2222908095	-0.119814
C	 0.553435343	-2.0438330211	 1.4572705584	-0.056883
C	-0.2049406013	-3.322365242	 1.3343496154	-0.247452
N	 0.5755947716	-2.8148156694	 0.2005574463	-0.084321
H	 0.5381376562	 1.8078406923	 0.3740144775	 0.285359
H	 0.520219223	-0.3621051144	-2.1032767685	 0.107163
H	 1.8160705994	-0.9158899334	-0.9921120058	 0.095054
H	-0.5660493303	-2.5734469196	-1.5905647284	 0.077727
H	-2.2022768557	-0.9269321934	-0.0358201832	 0.093714
H	-0.677034494	-0.2387592074	 2.0537422647	 0.092063
H	 1.479851122	-1.998004275	 2.022358414	 0.088603
H	 0.1876619412	-4.2344161959	 1.7733677532	 0.115184
H	-1.2901127905	-3.2575069196	 1.2958774541	 0.112728
