20
gdb 110674	3.48863	1.28969	1.11666	1.7296	77.64	-0.2341	0.0739	0.308	1140.0407	0.173157	-403.105286	-403.097547	-403.096603	-403.137564	30.567	
O	-0.1065882399	 1.405636319	 0.2136022014	-0.424174
C	-0.0194052755	 0.0132960016	-0.0591687031	-0.104906
C	-1.4249445771	-0.5565330345	-0.0275218345	-0.000956
C	-1.4348945986	-2.0942575708	-0.0311041404	-0.056234
C	-1.7329438995	-2.1367594619	 1.4335534133	-0.064831
C	-2.0449533692	-0.6113985625	 1.4091257772	-0.043595
C	-3.5714867881	-0.5535793017	 1.3223443619	-0.231027
C	-3.8826325651	-1.7756703313	 0.4186907813	-0.159524
N	-2.6946191373	-2.6610078336	 0.474510659	-0.104993
H	 0.7834153338	 1.7696709155	 0.2070978779	 0.286746
H	 0.4337399333	-0.1708350702	-1.0471834651	 0.08441
H	 0.6054209164	-0.5024686542	 0.6884987054	 0.085877
H	-2.0308314257	-0.0506058463	-0.7892504484	 0.06987
H	-0.8121203184	-2.7385668886	-0.6446001715	 0.084424
H	-1.3527061598	-2.7543446965	 2.2384912321	 0.086274
H	-1.5830497198	 0.0466044637	 2.1435773699	 0.079023
H	-4.0243941909	-0.6707533307	 2.3131537217	 0.097173
H	-3.9302651125	 0.3886911259	 0.8969532666	 0.104329
H	-4.7482895286	-2.3425785151	 0.7722077285	 0.10531
H	-4.0789038777	-1.4895154278	-0.6191524532	 0.106804
