21
gdb 41859	2.44678	2.02342	1.58235	0.3487	85.31	-0.2239	0.0234	0.2472	959.173	0.187332	-349.971741	-349.964832	-349.963888	-350.00287	29.254	
C	-0.0674205576	 1.4885423575	-0.176106748	-0.226977
C	 1.3736035617	 1.9904204092	 0.09119404	-0.198655
C	 2.1116263802	 0.8781547411	 0.8946727138	-0.022658
C	 2.156192692	 1.1616594512	 2.410879508	-0.265561
C	 0.810721108	 1.0000888157	 3.0767503406	-0.065254
C	-0.127711714	 0.1855430305	 2.5917808205	-0.061284
C	 0.0847046853	-0.6254032369	 1.3688354029	-0.066245
C	 0.0043038791	-0.0299142051	-0.0355705243	-0.048867
C	 1.3404606836	-0.4113108018	 0.5602911768	-0.087877
H	-0.7759256271	 1.9236238136	 0.536171078	 0.102541
H	-0.4076810251	 1.7675847394	-1.1775549666	 0.091741
H	 1.8876426458	 2.1301468242	-0.8658660028	 0.094647
H	 1.3940778611	 2.9559293112	 0.6070630019	 0.089425
H	 3.1426205055	 0.7908344884	 0.5375531784	 0.065893
H	 2.8803522431	 0.4877785376	 2.8935161661	 0.104186
H	 2.5408701211	 2.1742047243	 2.581835129	 0.097408
H	 0.6285467111	 1.5600896256	 3.990367692	 0.08259
H	-1.0849322929	 0.0866628083	 3.0983308888	 0.079628
H	-0.2753021992	-1.6493034165	 1.4344745109	 0.081913
H	-0.4546419453	-0.6473240561	-0.8001601278	 0.077953
H	 1.8931070137	-1.2752770215	 0.2087385416	 0.075452
