16
gdb 62324	4.07335	1.29059	1.1399	2.9602	74.19	-0.2422	0.0112	0.2534	1058.5547	0.12496	-396.831324	-396.82364	-396.822696	-396.863215	29.989	
N	 0.1343660021	 1.546822665	 0.0309317937	-0.568035
C	-0.0267288249	 0.1140397237	-0.0208902689	 0.110721
C	 1.081562433	-0.6283539296	 0.5697610263	 0.237715
N	 1.994601128	-1.1572606843	 1.0458327453	-0.337446
C	-1.3282138062	-0.648780858	 0.1707585672	-0.101911
C	-2.5414532732	-0.0931196697	-0.596957159	-0.059637
C	-2.31911191	 1.0910921161	-1.4531401517	-0.248208
N	-1.840054476	-0.2335288751	-1.9231630785	-0.156494
C	-0.6262854791	-0.7074842787	-1.1679341621	-0.02337
H	 0.1976370001	 1.8561351309	 0.9965759877	 0.247836
H	 0.9961751453	 1.8175849362	-0.4337654703	 0.249008
H	-1.4181171107	-1.4035028661	 0.9405406763	 0.120419
H	-3.5200311338	-0.5394523307	-0.4525391996	 0.112016
H	-3.1806721805	 1.4040289744	-2.0373347206	 0.123193
H	-1.6195932714	 1.8634057869	-1.1757125089	 0.164615
H	-0.0394233027	-1.4892426312	-1.632971867	 0.129578
