18
gdb 90741	3.2226	1.36737	1.14417	5.1121	71.31	-0.2349	0.0091	0.2439	1101.1738	0.149439	-439.104272	-439.096368	-439.095424	-439.137363	29.761	
C	 0.0767469808	 1.5719229245	-0.1283280753	-0.402628
C	 0.0841450925	 0.0615375791	 0.0273373336	 0.058654
N	 1.0540727508	-0.6637856057	-0.8329878111	-0.323996
C	 1.3826266644	-1.6018222706	 0.2684364701	-0.140407
C	 0.7247867996	-0.6316305373	 1.2700542032	-0.095864
C	 1.934186464	 0.0394824611	 1.9518434233	-0.088575
O	 3.1287867581	-0.6104103855	 1.4819953664	-0.22309
C	 2.8743285515	-1.59351787	 0.5777088695	 0.465381
O	 3.7345529527	-2.2890112546	 0.1217420959	-0.345785
H	 1.0876682784	 1.9838220207	-0.0691282288	 0.131577
H	-0.3332658074	 1.8481378833	-1.1056184995	 0.122655
H	-0.5466337898	 2.0425925056	 0.6400112029	 0.115674
H	-0.9423019629	-0.3188747133	-0.0852727112	 0.071777
H	 0.6871989226	-1.0878434963	-1.6768930439	 0.227094
H	 0.9893013609	-2.6181918361	 0.1832542973	 0.094524
H	 0.0211827714	-1.0358844015	 1.9960066272	 0.090078
H	 2.019819598	 1.1055892442	 1.7260335451	 0.122968
H	 1.9047492245	-0.0790591876	 3.0386896553	 0.119963
