14
gdb 25679	6.21315	0.86327	0.76155	2.0424	83.61	-0.2667	-0.0677	0.1991	1439.791	0.102195	-395.755357	-395.747311	-395.746367	-395.790261	27.411	
C	-0.0148767043	 1.4534295626	 0.0100802883	-0.512571
C	 0.0052201852	 0.0017331442	 0.002435878	 0.330864
C	 0.0199721425	-1.2035674871	-0.0040534319	-0.092185
C	 0.0383683965	-2.629354417	-0.011613477	 0.155597
N	 1.237034591	-3.2393069854	-0.0216006632	-0.271946
C	 1.1802759192	-4.5671844169	-0.0283154228	 0.074098
N	 0.0733405233	-5.3132771224	-0.0260637385	-0.240297
C	-1.0526318626	-4.5963463515	-0.0159741467	 0.074112
N	-1.1439873832	-3.2703750221	-0.0084296132	-0.271969
H	 0.9991041087	 1.8658718742	 0.0026028877	 0.161571
H	-0.5461258743	 1.8394926452	-0.8667274765	 0.163332
H	-0.5292693152	 1.8303566265	 0.9008114836	 0.163342
H	 2.1308652402	-5.0966110948	-0.0364553777	 0.133029
H	-1.9891056469	-5.1504127155	-0.0136506202	 0.133023
