21
gdb 40571	4.04527	1.15702	1.08375	0.2089	85.85	-0.2424	0.098	0.3404	1207.2481	0.184549	-349.887017	-349.879571	-349.878627	-349.919215	30.502	
C	-0.0936127862	 1.4586296317	-0.0855789203	-0.273294
C	 1.3163541321	 0.9478841196	 0.0649188173	-0.270016
C	 0.1668000963	-0.0281199518	-0.0202073326	 0.003216
C	-0.2502199819	-0.8059327986	 1.2004002609	 0.030955
C	-1.5915025562	-1.5417668195	 1.2606827854	-0.085325
C	-1.3787348129	-2.9623895136	 0.7074823103	-0.061598
C	 0.09000452	-3.0950206418	 0.3120416585	-0.232727
C	 0.3895306022	-2.192259848	 1.5402938755	-0.085275
C	-1.0136576667	-2.6280815553	 2.1337687041	-0.090557
H	-0.5572244462	 1.9281446574	 0.7763011003	 0.107946
H	-0.3877447702	 1.8905125575	-1.0358512759	 0.108361
H	 1.989678284	 1.0307581349	-0.7810907091	 0.108161
H	 1.8000175495	 1.0743402135	 1.0285190438	 0.107604
H	 0.0649018561	-0.55712112	-0.9628201089	 0.080722
H	-0.1637328342	-0.1626484261	 2.0854090256	 0.060652
H	-2.5850269239	-1.1131611413	 1.309158899	 0.078905
H	-2.2207433343	-3.5489017868	 0.3620154024	 0.080237
H	 0.4470678925	-4.115091548	 0.480537965	 0.09534
H	 0.4211749303	-2.7550257352	-0.6756489424	 0.086789
H	 1.3518984884	-2.2436090266	 2.0460029515	 0.063907
H	-1.3280210086	-3.0371298721	 3.0825237993	 0.085996
