15
gdb 50739	2.42889	1.56354	1.03212	2.3534	61.55	-0.2674	-0.0425	0.2249	1093.5698	0.112508	-494.936157	-494.928255	-494.927311	-494.969587	28.069	
O	-0.5702221854	 0.9040734438	-0.810131509	-0.240324
C	 0.0608624171	 1.1278445819	 0.190215738	 0.147615
C	 1.3579550055	 1.9289377722	 0.1808431446	-0.260578
C	 1.6264936414	 2.6042193661	-1.1671973438	-0.114217
O	 2.6240984549	 3.6037125156	-0.9971425506	-0.216667
C	 2.1695702338	 4.5921590141	-0.1492875241	 0.016067
O	 1.888188224	 4.119981324	 1.1849529983	-0.229397
C	 1.3954753107	 2.8816258914	 1.3820156527	 0.416969
O	 1.0445957465	 2.5348622342	 2.4767566589	-0.323879
H	-0.2500829004	 0.765642764	 1.1880839952	 0.129437
H	 2.158009654	 1.206211133	 0.4007232606	 0.155492
H	 2.0020934136	 1.8941686492	-1.9041705746	 0.139574
H	 0.7022265627	 3.0473163539	-1.5629438638	 0.125993
H	 2.9581810794	 5.3364680937	-0.0346606578	 0.142271
H	 1.2474240821	 5.0592600829	-0.5288233746	 0.111644
