17
gdb 97695	2.97321	0.79939	0.69508	5.4874	84.46	-0.2548	-0.0024	0.2524	1661.3736	0.134807	-380.828871	-380.819208	-380.818264	-380.865707	33.675	
C	 0.3092010046	 1.3883693469	 0.2897824339	-0.36766
C	-0.3206313822	 0.1250126245	-0.3252912987	-0.32234
C	 0.4612165782	-0.4334764461	-1.4222254079	 0.143495
C	 1.1217204844	-0.8729955868	-2.3292443211	-0.030473
C	 1.8851139005	-1.4175336937	-3.420745526	 0.031686
C	 3.3528279085	-1.6956913564	-3.2186700806	-0.25251
N	 2.417945562	-2.8068370649	-3.3254668688	-0.32575
C	 1.4309164602	-1.046675316	-4.749036556	 0.251801
N	 1.0804937571	-0.7260737402	-5.8022469361	-0.335074
H	 1.3022668311	 1.1723331953	 0.6927421649	 0.128579
H	 0.4122631674	 2.1757995331	-0.4612123885	 0.136139
H	-0.3181270881	 1.7656303865	 1.1023035593	 0.121914
H	-0.4486810472	-0.6411171922	 0.4499566565	 0.136447
H	-1.3293677478	 0.3539218223	-0.6911492325	 0.143688
H	 4.02339278	-1.5769345617	-4.0639744325	 0.150402
H	 3.7593673944	-1.4230382491	-2.2495425693	 0.137381
H	 2.182065437	-3.1675308913	-2.4036253266	 0.252277
