19
gdb 38694	2.52972	2.1656	2.06595	1.9282	71.91	-0.2486	0.0818	0.3304	831.9373	0.164925	-423.060364	-423.054613	-423.053669	-423.090067	25.771	
C	-0.0154467602	 1.5593875362	-0.0105795048	-0.218433
C	 1.500821847	 1.8499448018	 0.0041972452	-0.032625
C	 1.9492823356	 0.9644986025	-1.1784214821	-0.218433
C	 1.3334712515	-0.3769224719	-0.7486100377	 0.064477
O	 2.1658646965	-0.923536804	 0.2809514544	-0.257313
C	 1.7185372665	-0.2211031311	 1.4254433824	 0.183296
C	 2.1037130159	 1.2710357563	 1.3133684274	-0.242738
O	 0.310763906	-0.361844127	 1.3836270809	-0.257313
C	 0.0125265481	 0.0230365546	 0.0365641736	 0.064477
H	-0.5648417943	 1.9608379157	 0.8441662728	 0.104569
H	-0.4752320461	 1.9350957193	-0.9314995825	 0.09218
H	 1.750931581	 2.907290854	-0.113634976	 0.06359
H	 1.5256843133	 1.3292520159	-2.1208508599	 0.09218
H	 3.0317446002	 0.8718521251	-1.2936579019	 0.104569
H	 1.2101175904	-1.1255689639	-1.5312824994	 0.081272
H	 2.102555974	-0.7124071937	 2.3217686526	 0.088416
H	 3.1952829107	 1.3620391839	 1.3117908651	 0.103279
H	 1.721293319	 1.8083410795	 2.1879351652	 0.103279
H	-0.8977476651	-0.4873410432	-0.2783629054	 0.081272
