23
gdb 103966	2.42158	1.44091	1.12498	1.4417	85.39	-0.2305	0.0806	0.3111	1224.2552	0.204243	-388.259997	-388.250344	-388.2494	-388.293907	37.425	
C	-0.3201497199	 1.626083176	 0.2988414763	-0.387039
C	 0.1954805466	 0.2032457711	 0.0466801919	-0.233559
C	 0.7097065198	-0.4987205216	 1.3055215735	 0.420898
C	 1.9958713142	 0.133577256	 1.8356913261	-0.423961
O	-0.2802782494	-0.5262363626	 2.3979594585	-0.333657
C	-0.0520005488	-1.9254222713	 2.5892203196	 0.069815
C	-0.5513721805	-2.7289881772	 1.4328129423	-0.028807
C	-1.8285108979	-2.4241917394	 0.6786410676	-0.425076
C	 0.8028181375	-2.0316058209	 1.3439115715	-0.206507
H	 0.475259359	 2.3025040661	 0.6255089032	 0.115228
H	-0.7523089278	 2.0450848332	-0.6148657262	 0.109497
H	-1.0945027706	 1.6203919943	 1.0711751645	 0.136952
H	-0.601108373	-0.3920297109	-0.4027472611	 0.103782
H	 1.0144923766	 0.2222790033	-0.683888	 0.093424
H	 1.8357619428	 1.1829666036	 2.0957343648	 0.12528
H	 2.3377139181	-0.3910590144	 2.7316061054	 0.118506
H	 2.7887570703	 0.0814756765	 1.0809744312	 0.110029
H	 0.0816465952	-2.2756784069	 3.6070903007	 0.095383
H	-0.3838140515	-3.7937049184	 1.5957244744	 0.087305
H	-2.1260878265	-1.3834674501	 0.8177796111	 0.13815
H	-1.7320726785	-2.6220873707	-0.3942215787	 0.114729
H	-2.6404315866	-3.0537995883	 1.0587618848	 0.111005
H	 1.7192362409	-2.5845913678	 1.1784644485	 0.088622
