19
gdb 40375	4.05391	1.24112	1.14231	1.9259	78.2	-0.2263	0.0668	0.2931	1134.3032	0.15903	-385.796985	-385.789364	-385.78842	-385.829356	30.608	
C	-0.1470594013	 1.4906421846	-0.1076311446	-0.26075
C	 1.2606432357	 0.9590905992	-0.0669508421	-0.261898
C	 0.0852963748	 0.0134357839	 0.0675312922	-0.126609
C	-0.1853296472	-0.6370602032	 1.364653562	 0.431766
O	-1.5270161735	-0.654520699	 1.8975682873	-0.289482
C	-0.4614640137	-0.1468930888	 2.7137890145	-0.0738
C	 0.3174790773	-1.3396137251	 3.352849794	-0.088188
C	-0.2490137279	-2.6628042433	 2.9128655663	-0.28642
C	 0.5933784833	-1.8682336045	 1.9514483782	-0.133542
H	-0.5068388144	 2.0476182391	 0.7499956212	 0.11904
H	-0.546338683	 1.8285501651	-1.0568707921	 0.116186
H	 1.8327171919	 0.9310616504	-0.9874573013	 0.114184
H	 1.8502891824	 1.1568929974	 0.8214086052	 0.11569
H	-0.120518825	-0.6164267494	-0.7947438921	 0.09289
H	-0.575367896	 0.8526780164	 3.1182764438	 0.102167
H	 1.010329965	-1.2289927344	 4.17609739	 0.091246
H	 0.2465670815	-3.5300732558	 3.3377896568	 0.109393
H	-1.3128954272	-2.7714573689	 2.7455526411	 0.135571
H	 1.5311254072	-2.2209646538	 1.5432597298	 0.092556
