22
gdb 60021	1.9345	1.26514	0.89155	4.8103	80.03	-0.2443	0.0151	0.2594	1404.6937	0.192975	-441.526787	-441.516371	-441.515427	-441.561968	38.464	
C	-0.2010019808	 1.3345321856	-0.197551929	-0.381597
C	-0.172827932	-0.175232418	 0.0216380064	 0.125021
O	 0.396335956	-0.766892608	-1.1324686387	-0.449098
C	 0.6256262207	-0.5391872206	 1.2886351033	-0.178074
C	 0.8560062948	-2.0466120343	 1.4849370344	 0.021254
C	 1.7486140626	-2.3406364756	 2.6921995817	-0.412565
N	-0.3983138395	-2.7980139292	 1.6247134011	-0.263649
C	-1.0576585825	-3.3791744462	 0.6009272913	 0.159914
O	-0.7464527371	-3.3100710428	-0.5781081792	-0.343308
H	 0.8135194689	 1.7085035316	-0.3708019269	 0.119292
H	-0.8045706505	 1.5758007499	-1.0762845696	 0.120302
H	-0.6196863604	 1.855171818	 0.6697384981	 0.101877
H	-1.2094262979	-0.5254598155	 0.1526105378	 0.063224
H	 0.0943818453	-1.6898354076	-1.1591828421	 0.306063
H	 1.6112327496	-0.0609744866	 1.2252022672	 0.101268
H	 0.1221177186	-0.1248673457	 2.173105734	 0.080011
H	 1.3338264737	-2.4319460424	 0.5799027896	 0.121619
H	 1.9387201904	-3.4134375735	 2.7904487114	 0.123799
H	 2.7093223798	-1.8299470506	 2.5872359853	 0.133217
H	 1.2876037385	-1.9854731064	 3.6223043381	 0.113905
H	-0.7771983044	-2.9201988269	 2.5516724384	 0.248127
H	-1.9401089238	-3.9535285553	 0.9394755376	 0.089398
