14
gdb 56497	2.33721	1.25616	1.01651	3.1926	73.2	-0.2847	-0.003	0.2817	1181.5087	0.09717	-399.474276	-399.464772	-399.463828	-399.508818	33.914	
O	 0.0068766893	 1.4766604285	-0.0581516899	-0.397043
C	 0.0338395707	 0.0789128711	-0.0039692885	-0.029156
C	 0.6491585338	-0.5122223011	-1.2137505714	 0.269019
N	 1.130937012	-0.9710639206	-2.1580589014	-0.310327
C	 0.7643733482	-0.4627322449	 1.2786899614	-0.375063
C	 2.1142596152	 0.1039590751	 1.3408515557	 0.306165
C	 3.2023680114	 0.612800806	 1.338773145	-0.419441
C	-0.0190829757	-0.1551625265	 2.4756869916	 0.320782
C	-0.6838531872	 0.0820572217	 3.4461348874	-0.409232
H	 0.919164472	 1.7919118085	 0.0074754277	 0.301005
H	-1.008138617	-0.2501194181	 0.0451522519	 0.15625
H	 0.8388493977	-1.5535582167	 1.1710811526	 0.160851
H	 4.1776144113	 1.0348374522	 1.3562607064	 0.216992
H	-1.2641834318	 0.2972807849	 4.3095728616	 0.209199
