17
gdb 48836	2.91367	1.46629	1.15947	1.8734	75.3	-0.2461	-0.0221	0.224	1068.6889	0.135949	-421.820625	-421.812871	-421.811927	-421.852997	29.582	
O	-0.1928841787	 0.0736376162	 0.3394391502	-0.261659
C	-0.0125835591	 1.2014600838	-0.0477250284	 0.109298
C	 1.2950867673	 1.9047987387	-0.0346309503	 0.152915
C	 1.2098572529	 3.4293227804	 0.1802321148	-0.341161
C	 1.5616539539	 2.8978317441	-1.163291931	 0.065277
O	 2.8794444785	 3.05448417	-1.5842393028	-0.257163
C	 3.6788673714	 1.8740370397	-1.5937809644	-0.130076
C	 3.5766952841	 1.0864796821	-0.3133247357	-0.082077
C	 2.4724929604	 1.1274044681	 0.4271766988	-0.139146
H	-0.8548543562	 1.8166517075	-0.4444427197	 0.064803
H	 0.2244787374	 3.8568808354	 0.3358883932	 0.123695
H	 2.0143741603	 3.8694854073	 0.7562706216	 0.140997
H	 0.8271399017	 2.9665041044	-1.964924803	 0.101092
H	 3.416515775	 1.236256416	-2.4549073988	 0.111505
H	 4.7023739972	 2.2254857593	-1.7550549729	 0.123744
H	 4.432219351	 0.4832802655	-0.0256399292	 0.10459
H	 2.3721604529	 0.5615031414	 1.3469069777	 0.113364
