20
gdb 59496	2.27092	1.18294	1.06695	1.4153	80.97	-0.2302	0.0407	0.2709	1272.873	0.167998	-403.073742	-403.063647	-403.062703	-403.108739	37.386	
C	-0.2559084994	-2.815787733	 2.0511044848	-0.403901
C	-0.4622957182	-1.310559029	 1.8795347606	 0.104589
O	 0.7284251665	-0.6735915654	 1.4025552387	-0.43218
C	-1.628773321	-1.0119639051	 0.9576348801	-0.000804
C	-2.9991625935	-0.7337466715	 1.4775938518	-0.261825
N	-2.2207391161	 0.3182606631	 0.8369175921	-0.102087
C	-1.6851434095	 1.4522576501	 1.6136623183	-0.288521
C	-1.8426402023	 1.4214086407	 3.0696342408	 0.307492
C	-2.0037947832	 1.4087272596	 4.2620596407	-0.468762
H	 0.6188813146	-3.0059645471	 2.6783554602	 0.125806
H	-1.1305210427	-3.2832273438	 2.5142171574	 0.12192
H	-0.0924895532	-3.3001104286	 1.0801517903	 0.106501
H	-0.6387675123	-0.8540851089	 2.8568622497	 0.108605
H	 0.9167181031	-1.0256159351	 0.5249149167	 0.276605
H	-1.5442482639	-1.5180898102	-0.0078682609	 0.07728
H	-3.8791071984	-1.067811012	 0.9335997382	 0.112206
H	-3.1168011094	-0.6918641766	 2.5586748692	 0.123819
H	-0.6226607952	 1.5424018614	 1.3653100865	 0.157887
H	-2.1845095642	 2.3538912359	 1.2383383314	 0.135405
H	-2.1304407416	 1.4057920756	 5.3166015735	 0.199965
