18
gdb 39712	3.44309	1.68425	1.48463	1.7261	79.4	-0.2104	0.0021	0.2125	939.0242	0.149716	-364.749649	-364.743027	-364.742083	-364.780303	27.909	
C	-0.1136628994	 1.5093568536	 0.0087098365	-0.336671
C	 1.21316328	 0.7747222682	 0.004752191	-0.334241
C	-0.0765558194	 0.0136027143	 0.0038828941	 0.439356
C	-0.4671940932	-0.9963949631	 1.0426891882	-0.158911
C	-1.7428098181	-1.736925097	 0.7062174111	-0.073984
C	-2.6799658148	-1.1611077708	-0.297447054	-0.081334
C	-1.9775985645	-0.8020410663	-1.3731402771	-0.077548
C	-0.514596588	-1.0172334581	-1.0651176526	-0.176225
N	-0.482333327	-2.1080389853	 0.0225382779	-0.128866
H	-0.4183611117	 2.0129250499	 0.9205353702	 0.113319
H	-0.4166088385	 2.0181558436	-0.9007666986	 0.112331
H	 1.8001015724	 0.7857840334	-0.9086158234	 0.114083
H	 1.8071574593	 0.7813042122	 0.9134137663	 0.115589
H	 0.0093551431	-1.1117328135	 2.0127111921	 0.092862
H	-2.0927372568	-2.4538815878	 1.44350929	 0.091446
H	-3.7438084564	-1.0496221965	-0.1349774643	 0.104739
H	-2.3447128294	-0.2973535052	-2.2574244402	 0.104714
H	 0.1604251924	-1.1993322617	-1.9014742171	 0.079341
