19
gdb 95334	3.44273	1.32557	1.08099	1.8294	78.25	-0.2406	0.007	0.2476	1147.2395	0.160148	-422.997883	-422.990013	-422.989069	-423.030152	30.699	
C	-0.119312335	 1.540856786	-0.0012653363	-0.392092
C	 0.0153925512	 0.0117682079	-0.0085861618	 0.105216
O	 0.6105885531	-0.4292913839	-1.238958326	-0.274624
C	 2.0290919669	-0.573334011	-1.2621980784	-0.130236
C	 2.3424048927	-1.6969442184	-0.2805347138	 0.086246
O	 3.6579642021	-1.7822141579	 0.33648458	-0.306922
C	 3.072622757	-1.722831086	 1.6720646121	-0.156612
C	 1.7615886461	-1.3187040595	 1.0478232146	 0.220313
C	 0.7570343388	-0.4759038293	 1.2181007827	-0.24072
H	 0.8630280476	 2.0229658837	 0.0149705092	 0.122331
H	-0.654940277	 1.8688634227	-0.8954826113	 0.127206
H	-0.6752762427	 1.8752724541	 0.880915276	 0.114571
H	-0.9933757463	-0.4214162392	-0.0373218733	 0.100169
H	 2.2847775651	-0.8002825207	-2.3003227892	 0.11001
H	 2.556655555	 0.3406170733	-0.9553699937	 0.099132
H	 2.0416607815	-2.6690859563	-0.6926034135	 0.088647
H	 3.0934081811	-2.7077955319	 2.1588176977	 0.109716
H	 3.5692707639	-0.9899532851	 2.3179841367	 0.11951
H	 0.5029223387	-0.0302294188	 2.1756099982	 0.098141
