17
gdb 95132	2.52423	1.5183	1.13988	2.0124	68.86	-0.2503	-0.029	0.2213	1076.0262	0.135225	-458.953486	-458.945259	-458.944315	-458.986324	30.855	
O	 0.3490541196	 1.4288683914	 0.112197427	-0.426896
C	 0.0822757612	 0.044087735	 0.0131847019	 0.010117
C	 0.6420068434	-0.7686604676	 1.2141981947	-0.121339
O	-0.2036206012	-1.9006182504	 1.3904682172	-0.247132
C	-1.4680633166	-1.5869189755	 0.8935306446	 0.100113
C	-2.1428758351	-0.3267695209	 1.2995979302	-0.38156
C	-1.3810621641	-0.3594268261	-0.0268350656	 0.185729
C	-2.1482097474	-0.3510006663	-1.2893807689	 0.05975
O	-3.3476796803	-0.4875256671	-1.3609923129	-0.275204
H	-0.2077761131	 1.7905780016	 0.8109922289	 0.283412
H	 0.5635737599	-0.2683089315	-0.9205825037	 0.104941
H	 1.6608785405	-1.1301029561	 1.059630503	 0.126862
H	 0.6416233466	-0.1250568513	 2.1062981606	 0.099192
H	-2.0438350816	-2.4624085889	 0.6181804852	 0.130165
H	-3.2207244578	-0.2910111618	 1.1864430812	 0.154297
H	-1.7372648514	 0.2531472537	 2.1220150555	 0.11918
H	-1.5272428124	-0.2330032683	-2.2052566391	 0.078374
