19
gdb 102017	2.45975	1.03632	0.80619	2.0112	73.54	-0.252	-0.0468	0.2052	1455.1664	0.154999	-460.187131	-460.176372	-460.175428	-460.22403	36.646	
C	-0.2670845661	 1.3895575869	-0.0160473653	-0.382765
C	 0.0672740877	-0.0987850896	 0.0335774268	-0.286847
C	 0.8667618929	-0.5037213543	 1.2550009043	 0.355067
O	 1.3453230736	 0.2877721232	 2.0340667875	-0.302698
C	 1.0412609054	-2.0196717501	 1.4711623694	-0.163268
C	 2.2223081697	-2.333096853	 2.3784600805	-0.10396
O	 2.3092870536	-3.7489833517	 2.449846291	-0.426769
C	-0.2579546367	-2.5767271402	 2.0606332521	 0.164542
O	-1.2779454855	-2.7153357631	 1.438002788	-0.247184
H	 0.6410346818	 1.9958260066	 0.025820671	 0.13287
H	-0.8060667485	 1.631355682	-0.9359398321	 0.114917
H	-0.8920791963	 1.6789129468	 0.8332439026	 0.13036
H	-0.8286148629	-0.7315536569	-0.0023726241	 0.15395
H	 0.6588097698	-0.4009067676	-0.843507782	 0.126008
H	 1.1670098777	-2.5014884542	 0.4951326024	 0.12309
H	 3.1386628227	-1.8838760457	 1.9719071777	 0.10573
H	 2.0503596826	-1.8810318048	 3.3653998708	 0.11248
H	 2.9928276724	-3.9803144245	 3.0856456008	 0.293689
H	-0.1998443439	-2.8239989198	 3.1416761585	 0.100789
