21
gdb 120697	2.706	1.0357	0.82177	3.1807	80.52	-0.243	0.0423	0.2853	1467.5063	0.182197	-420.429247	-420.419274	-420.41833	-420.464599	36.589	
C	-0.0254740073	 1.3326219354	-0.4077656676	-0.38356
C	-0.0800371816	-0.1873707733	-0.2378841538	-0.167925
C	-1.5057898019	-0.7029265588	 0.0021118023	-0.189381
C	-1.5724851367	-2.2007142947	 0.2126972568	 0.010665
C	-2.8540652693	-2.9564819313	 0.0186728978	-0.278749
N	-1.7266666855	-3.1430972114	-0.8839691691	-0.117025
C	-1.7370898791	-2.7974722248	-2.2392598382	 0.40787
N	-2.7671805632	-3.3921720198	-2.9395711758	-0.531622
O	-0.9085452794	-2.0806936598	-2.7642843088	-0.374972
H	 1.0012242425	 1.6773711135	-0.5650132124	 0.111405
H	-0.6178097772	 1.6532135517	-1.2718488881	 0.118216
H	-0.4189961141	 1.8506689456	 0.4748513526	 0.105435
H	 0.3173319747	-0.6812788104	-1.1287154165	 0.14166
H	 0.5555152647	-0.4853493841	 0.6070128975	 0.084995
H	-1.9260830682	-0.2207619815	 0.8960873261	 0.094022
H	-2.1490826199	-0.4195598922	-0.8389979867	 0.106678
H	-0.8999386843	-2.5713777324	 0.9864421484	 0.096234
H	-3.104160577	-3.8009846546	 0.6563813285	 0.117796
H	-3.7067429313	-2.3938189382	-0.3560587285	 0.127981
H	-3.1975155184	-4.2135553814	-2.5451725075	 0.258174
H	-2.6362381275	-3.4018907574	-3.9389814072	 0.262102
