21
gdb 114812	2.55823	1.24044	1.09764	0.7834	78.18	-0.2419	0.0619	0.3038	1238.4502	0.181616	-424.193464	-424.184374	-424.18343	-424.227513	34.577	
C	-0.1999703292	 1.71702966	 0.1657239983	-0.381127
C	-0.0968468309	 0.2042926954	 0.3900190847	-0.208885
C	-1.3481253424	-0.5424286213	-0.0569188549	 0.010595
C	-1.6520949216	-0.6870334242	-1.5879527603	-0.260098
C	-1.8040903777	-2.2146846581	-1.4148453016	 0.032867
O	-0.5685183941	-2.9180344709	-1.6710316325	-0.288232
C	-0.1901818781	-2.9027428975	-0.2787174688	-0.142206
C	-1.4379794409	-2.0820375965	 0.1056691199	 0.316096
O	-2.1875412992	-2.468803751	 1.212517083	-0.472672
H	 0.7133984034	 2.2289753346	 0.4837393362	 0.112458
H	-0.3607276373	 1.9507735445	-0.8923091729	 0.1198
H	-1.0367227376	 2.1437436589	 0.729690814	 0.115677
H	 0.7774817773	-0.1799454268	-0.1507396258	 0.09874
H	 0.0814785301	 0.0015076821	 1.4541030885	 0.102177
H	-2.2214881121	-0.1248853598	 0.4557659302	 0.084905
H	-2.5544552334	-0.1680773901	-1.9192829471	 0.102506
H	-0.8254107081	-0.4286465082	-2.2546987094	 0.108557
H	-2.6772615226	-2.7237559206	-1.8308741464	 0.074712
H	-0.1954747262	-3.9162926979	 0.1524274189	 0.085357
H	 0.7972624801	-2.4579214947	-0.1103152643	 0.107285
H	-2.2345619197	-3.4311566978	 1.2359563404	 0.281486
