21
gdb 39235	2.84009	1.63401	1.20736	1.2639	81.77	-0.2359	0.0822	0.3181	1082.8343	0.185005	-387.063813	-387.056328	-387.055384	-387.095329	31.199	
C	-0.0514085765	 1.4810932852	 0.0344044732	-0.338545
C	 1.3159825814	 0.8231555009	 0.035234038	-0.019878
C	 2.155385581	 0.7886969782	 1.2982448924	-0.234093
C	 2.8695141729	-0.5631185803	 1.4651565705	-0.219644
C	 1.9718759118	-1.7812764268	 1.6657334443	-0.01899
C	 1.0403993235	-1.9502431415	 2.8512272201	-0.31647
C	 0.4698558902	-1.8155629151	 1.4719725294	 0.098621
O	-0.2646798605	-0.6467688346	 1.2311880555	-0.251623
C	 0.0633147436	-0.0121042393	 0.0282214408	 0.122988
H	-0.3856932018	 1.9363708277	 0.9605110947	 0.121696
H	-0.3976034938	 1.9745878886	-0.8668218113	 0.110432
H	 1.8799435674	 0.8646373375	-0.8934925747	 0.080281
H	 2.9042766121	 1.5890462575	 1.2721167681	 0.093348
H	 1.5205987432	 0.9885482915	 2.166817448	 0.106564
H	 3.4777283129	-0.7374591396	 0.567701243	 0.095166
H	 3.5796407001	-0.5026838622	 2.3004706818	 0.094992
H	 2.4563303959	-2.7064405036	 1.3606950143	 0.083365
H	 0.9988224627	-2.9068454686	 3.3604558032	 0.108259
H	 0.8902863058	-1.0884653154	 3.49351751	 0.121014
H	 0.050625807	-2.6979667042	 0.9874730257	 0.083374
H	-0.214450699	-0.5630214259	-0.8701438772	 0.079143
