22
gdb 97393	3.20783	0.83231	0.76892	2.6493	87.71	-0.2401	0.0258	0.2659	1628.4464	0.191379	-404.332969	-404.322176	-404.321232	-404.369547	38.002	
C	-0.4294603847	 1.176849887	 0.2121299094	-0.314415
N	 0.3171024795	-0.0373487913	-0.0399822968	-0.208381
C	 0.5685206242	-0.7758093111	 0.9454256866	 0.136821
O	 1.2681071483	-1.9219287724	 0.783385748	-0.206721
C	 1.513218305	-2.6599158834	 1.9581470206	 0.077315
C	 0.4931066671	-3.6820794009	 2.4136156243	-0.052462
C	-0.8461287046	-3.8251673614	 1.7230464781	-0.414239
C	 1.7992513613	-4.1217495082	 1.7660568659	-0.063553
C	 1.8649938635	-4.7355002177	 0.3833128921	-0.404395
H	 0.156401699	 2.0435583544	-0.1150148944	 0.127533
H	-1.3497560899	 1.1737926396	-0.3832580655	 0.126887
H	-0.7035567372	 1.3252564226	 1.2698621412	 0.094558
H	 0.2658515488	-0.5741992327	 1.9844954839	 0.075558
H	 2.0797276465	-2.103350122	 2.7017128021	 0.096924
H	 0.4483137376	-3.8220863288	 3.4912083654	 0.085091
H	-0.7908240392	-3.5756311434	 0.6618323934	 0.140649
H	-1.2220212691	-4.8501622705	 1.8093661848	 0.119896
H	-1.5896390001	-3.161618935	 2.1783208251	 0.116528
H	 2.5344255927	-4.5259066868	 2.4573904569	 0.08809
H	 1.2105175243	-4.224208546	-0.3237080212	 0.140432
H	 2.8837358891	-4.6716643271	-0.0127830134	 0.122516
H	 1.5836024279	-5.7934287147	 0.4131486635	 0.115367
