19
gdb 36655	4.32446	0.80396	0.77806	3.5965	79.48	-0.2412	0.0334	0.2747	1491.9699	0.160458	-382.037425	-382.02896	-382.028015	-382.071443	31.415	
N	 0.331753335	-1.2229016893	-1.1181981635	-0.303693
C	 0.3745475352	-0.0680732635	-1.1179523573	 0.254943
C	 0.450992031	 1.3903705514	-1.0979324807	-0.330248
C	 1.5026137126	 1.9137378853	-0.0934337777	-0.236863
C	 1.5327794842	 3.4255204923	-0.083157696	 0.01265
C	 2.7005321943	 4.2767638462	 0.2178005333	-0.051074
C	 4.0170247286	 3.6912066859	-0.2882133038	-0.252159
C	 3.3385965936	 3.6141916985	-1.6775823472	-0.15762
N	 2.0729387793	 4.2685725581	-1.1768983574	-0.156293
H	 0.6841829211	 1.746723718	-2.1072254523	 0.164897
H	-0.539095121	 1.7896181598	-0.8494217185	 0.154922
H	 1.2472388202	 1.5588570294	 0.9110324229	 0.127345
H	 2.4768566448	 1.4826790294	-0.3334198733	 0.126928
H	 0.5891289126	 3.8561702744	 0.2521035978	 0.098863
H	 2.6185894038	 5.1414575576	 0.8696750393	 0.098024
H	 4.8353341217	 4.4123059162	-0.2629791695	 0.118046
H	 4.3583103611	 2.7630367817	 0.1797456457	 0.108519
H	 3.7991062086	 4.2625122171	-2.4246608832	 0.119269
H	 3.1955031533	 2.6239929715	-2.1216041086	 0.103543
