14
gdb 27723	3.02641	1.27075	0.89497	1.5274	77.53	-0.1771	0.0157	0.1928	1200.8192	0.09956	-436.688041	-436.679251	-436.678307	-436.721041	32.885	
O	 0.0339001618	 1.3402830234	 0.2163377766	-0.433068
C	 0.0570151933	 0.0058423219	 0.0064069126	 0.398336
C	 0.095711622	-0.7523614869	-1.1492937331	-0.380042
C	 0.1033834134	-2.1033011866	-0.7221144517	 0.265431
O	 0.1384837506	-3.1630066108	-1.5620470351	-0.441792
C	 0.069379538	-2.1432990248	 0.6657369983	 0.066081
N	 0.0412553957	-0.8040179354	 1.0889224782	-0.382897
C	 0.063069822	-3.2512596782	 1.5168988915	 0.197655
C	 0.0589816813	-4.2370881256	 2.2177482674	-0.463803
H	 0.0493947134	 1.7850547709	-0.6367145745	 0.312065
H	 0.1159621342	-0.3934520854	-2.1653483225	 0.103675
H	 0.1359030748	-3.9661499193	-1.026099454	 0.300185
H	 0.0137150189	-0.4926625958	 2.0437400741	 0.273247
H	 0.0552832305	-5.0979652473	 2.8383252423	 0.184926
