22
gdb 76658	2.68247	0.94926	0.9186	2.9232	83.36	-0.2232	-0.0061	0.2171	1449.6986	0.190597	-404.341108	-404.330241	-404.329297	-404.378227	38.493	
C	-0.2743296324	 1.4510853715	 0.5532315767	-0.415014
C	 0.3925464083	 0.0936851551	 0.497208111	 0.002337
C	 0.6121332139	-0.6702713774	-0.7720707436	-0.002639
C	 0.1786125881	-0.1723367181	-2.1339982991	-0.419878
N	 1.7484708599	-0.1099224985	-0.0246095689	-0.118083
C	 2.5117836353	 1.0043309231	-0.5608699661	-0.250461
C	 3.8429897412	 0.5565804807	-1.1788349191	 0.375589
C	 4.5031502653	-0.67424713	-0.5950924823	-0.459297
O	 4.3390854054	 1.2005845384	-2.0742461613	-0.297608
H	 0.1143518241	 2.0351658964	 1.3948823066	 0.125383
H	-0.1324186131	 2.0421662391	-0.3531543194	 0.123313
H	-1.3517163664	 1.3308892207	 0.7090230547	 0.124271
H	 0.206682479	-0.4982034184	 1.39428646	 0.087388
H	 0.573729252	-1.7573725923	-0.6961696886	 0.087221
H	 0.0809329773	 0.9126990527	-2.1946475354	 0.125748
H	 0.8873105497	-0.4864035156	-2.9085259255	 0.131904
H	-0.7956560177	-0.6040934145	-2.3860518026	 0.125343
H	 2.0094585569	 1.6270103124	-1.3114225073	 0.111434
H	 2.7751638221	 1.6679045434	 0.2759967002	 0.125832
H	 4.553097632	-0.6044888906	 0.4961324252	 0.138436
H	 3.8963028123	-1.5590515946	-0.8112916416	 0.148264
H	 5.500444777	-0.7896808636	-1.0213346137	 0.130514
