15
gdb 22023	2.5532	1.60115	0.9849	3.3343	79.18	-0.1706	-0.0168	0.1538	1115.1923	0.114613	-450.08668	-450.078628	-450.077684	-450.118874	31.125	
N	 0.0842052073	 1.3814144542	 0.012645821	-0.589459
C	 0.0247154445	 0.0020817861	 0.0182193121	 0.237785
C	-1.120465916	-0.7270760854	 0.0936049839	-0.083575
N	-1.0712322323	-2.1030386344	 0.1563638444	-0.230835
N	 0.0485912809	-2.8238248325	 0.1454796484	-0.195923
C	 1.171700465	-2.1651162841	 0.0626191821	-0.075828
C	 1.2866860329	-0.7228492049	-0.0132619015	 0.306316
N	 2.3744849407	-0.0204838376	-0.1143817843	-0.299091
O	 3.5132227529	-0.8570978834	-0.1628082642	-0.407477
H	 0.9708949914	 1.7284542254	-0.3283512686	 0.264577
H	-0.7207012294	 1.8697212715	-0.3483447093	 0.244713
H	-2.1102731694	-0.2891170041	 0.1165765907	 0.114534
H	-1.916231716	-2.6437673472	 0.2211232885	 0.273221
H	 2.0704775723	-2.7656705767	 0.0494386156	 0.140077
H	 4.229337725	-0.2162230869	-0.2006993488	 0.300967
