17
gdb 112492	2.76168	1.04986	0.88103	5.3993	74.96	-0.2689	-0.0511	0.2178	1352.0026	0.134836	-418.012828	-418.003713	-418.002769	-418.047617	32.367	
C	 0.0409179793	 1.4341064155	-0.3094123632	-0.391526
C	 0.0270670395	-0.0741609449	-0.04838034	-0.171529
C	-1.3850336233	-0.6167030778	 0.1475174247	-0.086027
N	-2.252588123	-0.6160112503	-1.0680844097	-0.319805
C	-2.6700340807	-2.0275115494	-0.8950711875	-0.253103
C	-2.5580456663	-2.8751476759	-2.0750686677	 0.314508
N	-2.4560308655	-3.5612784037	-2.9994121006	-0.315064
C	-1.5602953359	-2.1394313027	 0.2085420559	 0.389863
O	-1.062589087	-3.0383036559	 0.8028296691	-0.26134
H	 1.0622607457	 1.793463538	-0.462801019	 0.12596
H	-0.5375895088	 1.677151246	-1.2060941364	 0.132116
H	-0.3865356003	 1.9894539811	 0.5331121922	 0.114553
H	 0.4895624592	-0.603818445	-0.8882836197	 0.117861
H	 0.6100874269	-0.3172970906	 0.847666852	 0.117992
H	-1.8541302119	-0.1472761922	 1.0272140864	 0.10434
H	-3.0211211073	 0.0430469922	-1.052918974	 0.238224
H	-3.6596797206	-2.1748104844	-0.4384135625	 0.142977
