19
gdb 96374	2.3804	1.74109	1.14851	0.3147	70.86	-0.2522	0.0771	0.3293	1084.3067	0.159735	-460.141329	-460.133275	-460.132331	-460.173694	31.307	
C	-0.0555468705	 1.5301090144	-0.1111401228	-0.428578
C	 0.0916073162	 0.0254870111	 0.0184757719	 0.04792
O	 0.7463119778	-0.4633409735	-1.1558646062	-0.245894
C	 0.888833736	-1.857668986	-1.1413423053	 0.019493
O	 1.689724364	-2.3101592078	-0.0806944604	-0.229719
C	 1.1144903453	-1.9621769191	 1.170868715	-0.174038
C	 0.8687866938	-0.4640775209	 1.2386779682	 0.402414
C	 1.7478090082	 0.3977800342	 2.0342884819	-0.230234
O	 0.4454534717	 0.0201753742	 2.5120795639	-0.283619
H	 0.9126769687	 1.9952172785	-0.314967875	 0.129725
H	-0.7276786103	 1.7693660882	-0.9386776521	 0.126261
H	-0.4691674866	 1.9458146377	 0.811166377	 0.137693
H	-0.9121048906	-0.4335681578	 0.0803672836	 0.074638
H	-0.1084095851	-2.3365811202	-1.0867492519	 0.076199
H	 1.3953991747	-2.1382629741	-2.0665087807	 0.120535
H	 0.1551844406	-2.4892574735	 1.3119225749	 0.098526
H	 1.8034307316	-2.2892780158	 1.9526471498	 0.118603
H	 2.5851374183	-0.0462379481	 2.5704824133	 0.118672
H	 1.8614741163	 1.4503350286	 1.7879623451	 0.121403
