25
gdb 89579	3.75235	0.98637	0.95049	0.0816	92.38	-0.2751	0.0785	0.3536	1418.1173	0.230758	-352.372276	-352.363098	-352.362154	-352.406656	35.918	
C	-1.0017408154	 0.9034940852	-0.3921850289	-0.407458
C	 0.1253468457	-0.0654593287	-0.0698783787	 0.063153
C	 1.5114577221	 0.1500862432	-0.7389183976	-0.281971
C	 2.1967832651	-0.2036631424	 0.6212691643	 0.389938
C	 0.8276737314	 0.0334187518	 1.3139194924	-0.312119
C	 2.7361272988	-1.6425927484	 0.6667880664	-0.257653
C	 4.1397595999	-1.5209702961	 0.0495713961	-0.202809
C	 4.6651793552	-0.1388273777	 0.5275735436	-0.199844
C	 3.4167952973	 0.6227863907	 1.0555075019	-0.28236
H	-0.6860111959	 1.9406589626	-0.2289052995	 0.108141
H	-1.3195653589	 0.8138205721	-1.4373786137	 0.11111
H	-1.8792315839	 0.7201994996	 0.2385355623	 0.111401
H	-0.2145569287	-1.0929679609	-0.2402972475	 0.068182
H	 1.7575415239	-0.4688242085	-1.6075138425	 0.088838
H	 1.6657571234	 1.2007096096	-1.0090595815	 0.08731
H	 0.7541540561	 1.0462298413	 1.7266293147	 0.088568
H	 0.5298994648	-0.6782480231	 2.0904763468	 0.087393
H	 2.807636338	-1.9687260307	 1.7133564297	 0.088736
H	 2.0971485333	-2.3630474685	 0.1458309242	 0.088611
H	 4.7995262335	-2.346688662	 0.3302610455	 0.090858
H	 4.062567967	-1.5357831157	-1.0432726225	 0.097938
H	 5.4145741137	-0.249966065	 1.3167254597	 0.096696
H	 5.1536110375	 0.400031195	-0.2891575433	 0.096483
H	 3.3635478096	 1.6551494262	 0.6961461755	 0.087583
H	 3.4408551965	 0.6728779705	 2.1512088126	 0.093275
