23
gdb 115350	2.06623	1.44521	1.17812	1.9087	81.91	-0.2368	0.0744	0.3112	1228.5188	0.204856	-425.428519	-425.418474	-425.41753	-425.463468	37.014	
C	 0.4029168583	 0.8928949211	-0.6254518988	-0.236129
O	 0.1074402679	-0.4210115934	-0.213601382	-0.240806
C	-1.2581441349	-0.6416113478	 0.1011999415	 0.094619
C	-2.130783808	-0.8803528529	-1.1374829182	-0.089207
O	-2.0468239677	-2.2657164714	-1.4426093059	-0.277804
C	-1.4543434234	-2.9955410842	-0.3553228477	 0.135498
C	-0.1171875145	-3.5777223433	-0.8094152218	-0.3964
C	-1.3964660397	-1.9923765274	 0.8232737506	-0.029707
C	-0.3648519538	-2.2651379584	 1.9146802239	-0.417177
H	 1.4822594115	 0.9458394427	-0.7871640547	 0.129281
H	-0.1040340694	 1.165949702	-1.5627654247	 0.108011
H	 0.1213172544	 1.629160999	 0.1439091559	 0.104973
H	-1.6343524304	 0.1947941734	 0.7096604249	 0.060162
H	-3.173838365	-0.5962797765	-0.9258622157	 0.086659
H	-1.7951819291	-0.3021788292	-2.005876903	 0.102063
H	-2.135016985	-3.8213057317	-0.1076003053	 0.068861
H	 0.5969983864	-2.7806730137	-1.027499656	 0.134205
H	 0.3078251224	-4.2361521165	-0.0446042186	 0.104681
H	-0.2719709025	-4.1679280064	-1.7171603173	 0.116837
H	-2.3949789358	-1.9825152181	 1.2786301228	 0.079426
H	 0.6522619643	-2.1961975495	 1.526305646	 0.139386
H	-0.4626359705	-1.5374702571	 2.7269493182	 0.110196
H	-0.5070681256	-3.2617202808	 2.3452132859	 0.112372
