21
gdb 107332	2.45483	1.59139	1.19035	1.0437	83.3	-0.226	0.019	0.245	1131.2156	0.181936	-387.076249	-387.067332	-387.066387	-387.109529	34.442	
C	-0.3550405636	 1.2697838879	-0.0893420248	-0.252939
O	 0.262630625	 0.0073220727	 0.0782432338	-0.29193
C	 0.7909704902	-0.5447624724	-1.086354646	 0.433249
C	-0.1588313573	-1.1818949548	-2.0708478927	-0.343751
C	 0.7712793529	-2.0472439263	-1.2236197386	-0.157448
C	 2.0771520912	-2.4037950817	-1.8473563902	-0.088204
C	 2.825976623	-1.320383379	-2.0648794848	-0.081629
C	 2.1579063915	-0.0414711671	-1.5914001145	-0.097844
C	 2.1195767824	 1.0548257071	-2.6685488602	-0.402612
H	 0.373680092	 2.0624645194	-0.3083531572	 0.110301
H	-1.1027470982	 1.2509517589	-0.8946051575	 0.107387
H	-0.852236802	 1.5076708125	 0.8544051777	 0.124093
H	-1.2046403494	-1.1802897746	-1.7813038667	 0.113432
H	 0.0270310221	-1.1150276218	-3.1377712258	 0.11021
H	 0.3257530098	-2.6687552734	-0.4552884422	 0.09633
H	 2.3515023338	-3.4212866427	-2.1023193448	 0.095445
H	 3.79880794	-1.3125938724	-2.5451031714	 0.09076
H	 2.6982869816	 0.3567982228	-0.719343579	 0.088289
H	 1.5471816954	 0.7308022812	-3.5431762479	 0.118323
H	 1.6667041095	 1.9757779501	-2.2900115748	 0.115595
H	 3.1322602701	 1.2992366235	-3.0067336721	 0.112942
