16
gdb 15694	3.03891	2.02505	1.42034	3.3479	60.99	-0.2484	0.001	0.2494	894.4915	0.130927	-420.908243	-420.90056	-420.899616	-420.940621	27.316	
C	 0.0829289291	 1.2020395268	 0.3033365511	-0.246782
O	-0.0690149144	-0.1601364747	-0.0676880254	-0.258191
C	-1.4157378841	-0.5807157056	-0.1920007572	-0.00451
C	-1.4315015538	-2.006754923	-0.7251631492	-0.264439
C	-1.3008777597	-2.8348624252	 0.5620065655	-0.074772
O	-1.9275762721	-2.0461236388	 1.5920467291	-0.219072
C	-2.0265404243	-0.7463088754	 1.2160174167	 0.429539
O	-2.4785907058	 0.1040514353	 1.9290434149	-0.343081
H	 1.1569501188	 1.3975089558	 0.3316398243	 0.12963
H	-0.3848894113	 1.8664688866	-0.4383580389	 0.110136
H	-0.3548792636	 1.4125871736	 1.285498781	 0.143722
H	-1.9998706592	 0.1354568003	-0.7832957053	 0.091423
H	-2.388510552	-2.2103751428	-1.2139856144	 0.121129
H	-0.6232381571	-2.18602224	-1.4355546575	 0.127795
H	-1.814667042	-3.7970699742	 0.5233099147	 0.125797
H	-0.2547433484	-2.9967401886	 0.8396251908	 0.131677
