17
gdb 87815	2.85038	1.55051	1.28751	2.6301	67.96	-0.2327	0.041	0.2737	1010.0093	0.134285	-458.878645	-458.870532	-458.869588	-458.911212	31.627	
O	-0.0799888665	 1.2804385225	-0.3298032034	-0.438009
C	 0.0140229117	-0.090658121	-0.0791064646	 0.06683
C	-0.4704674953	-0.6975470645	 1.2328871356	-0.417777
C	-1.2585145855	-0.8692134215	-0.0297007537	 0.407517
O	-2.47148133	-0.0972413743	-0.1958681701	-0.342172
C	-3.0756264652	-1.2047424161	-0.8954147375	 0.025788
C	-2.3018041234	-1.5151744778	-2.1337384092	 0.127641
O	-1.6456560807	-0.5591752164	-2.8952179511	-0.430451
C	-1.8009710516	-2.045784801	-0.797913557	-0.299226
H	-1.0151580035	 1.5166767757	-0.2604174471	 0.296583
H	 0.8926941121	-0.5217841124	-0.547143225	 0.117779
H	 0.0683716845	-1.552271808	 1.6298465667	 0.123728
H	-0.8943348745	-0.0308295356	 1.9776426904	 0.130267
H	-4.1215176658	-1.3997845389	-0.6888086911	 0.112314
H	-2.7459289261	-2.2784117278	-2.7661980703	 0.116308
H	-1.4873289418	 0.2127000047	-2.3366693626	 0.295089
H	-1.6468531284	-3.0901867677	-0.56241395	 0.10779
