14
gdb 5473	3.47368	1.90933	1.24155	0.9426	68.26	-0.2425	-0.052	0.1906	915.5033	0.108494	-378.787424	-378.78018	-378.779235	-378.81931	25.73	
C	 0.0245825574	 1.5189989364	 0.1085557011	-0.493298
C	 0.0479915909	 0.030027776	 0.0012627602	 0.227323
C	-0.0373568248	-0.7637978951	-1.1363431857	 0.154241
N	 0.0334141821	-2.0657563743	-0.6727495471	-0.287138
C	 0.1533937982	-2.0060390416	 0.6676626932	 0.030127
N	 0.166031585	-0.7600627078	 1.1123499552	-0.312091
C	-0.1710694826	-0.4978480476	-2.5492981476	 0.066534
O	-0.2280054957	-1.3752869825	-3.392566765	-0.316316
H	 0.9424554458	 1.8831353454	 0.5814533259	 0.146959
H	-0.0726149056	 1.996576609	-0.8689316776	 0.126981
H	-0.8109498532	 1.8444700492	 0.7368149054	 0.146938
H	-0.0033869053	-2.8719414259	-1.2769678836	 0.284841
H	 0.2288850415	-2.8889457595	 1.2854121312	 0.144978
H	-0.2197468737	 0.5746947782	-2.8258401656	 0.079922
