22
gdb 113267	4.49812	0.72904	0.69156	2.5245	84.15	-0.2448	-0.0265	0.2183	1700.5153	0.191302	-404.342185	-404.331532	-404.330587	-404.378706	37.996	
C	-0.284591594	 1.5477628871	-0.5136109383	-0.373849
C	 0.000013913	 0.1996943877	 0.159338391	-0.19459
C	-1.2647471388	-0.6057270641	 0.359076983	-0.038408
N	-1.7900043776	-1.345057238	-0.8063260555	-0.369175
C	-1.3537553947	-2.0942930376	 0.3937313881	 0.291896
C	-0.1348390203	-2.9769515995	 0.2026039397	-0.447107
C	-2.4276569195	-2.7102393824	 1.2849500708	-0.349229
C	-3.0380020458	-3.9630670655	 0.6845014685	 0.164186
O	-3.2041179368	-4.9980056765	 1.2760208962	-0.239437
H	 0.636083355	 2.1210540661	-0.6570957606	 0.113023
H	-0.7476860136	 1.3958510297	-1.4934173812	 0.130394
H	-0.9661991999	 2.157655281	 0.0900174196	 0.110366
H	 0.7083382323	-0.3682143878	-0.4503474088	 0.105655
H	 0.4766631341	 0.3612241271	 1.1350148082	 0.09736
H	-2.0045018468	-0.0929092023	 0.9767207586	 0.074482
H	-2.8041389873	-1.2770706982	-0.8468876489	 0.223763
H	 0.5614940073	-2.5419769168	-0.5147814042	 0.133896
H	 0.3879239601	-3.1297824736	 1.1532191915	 0.121041
H	-0.4257104311	-3.963177292	-0.1764841335	 0.126876
H	-2.0363703405	-2.961771857	 2.2761499097	 0.124572
H	-3.2453172895	-1.9875333592	 1.4217549047	 0.114073
H	-3.3449960856	-3.8584294482	-0.3823063388	 0.080212
