19
gdb 53617	4.87424	0.74654	0.67543	1.3315	86.88	-0.2262	0.0135	0.2398	1690.7099	0.157827	-385.869204	-385.859573	-385.858629	-385.906183	33.419	
C	 0.0314609854	 1.4901972228	 0.0045036873	-0.49705
C	 0.0352850945	 0.0359041558	-0.06335724	 0.094501
C	 0.0381202196	-1.1661526082	-0.1273309683	 0.049256
C	 0.0236668718	-2.6221299509	-0.1876308719	-0.359862
C	-1.3539990393	-3.2358249172	 0.155912777	 0.09619
O	-2.3277677444	-2.8508029847	-0.8149286398	-0.268664
C	-2.9192301418	-3.9990190564	-1.4153862911	-0.112191
C	-2.2380074665	-5.1734705203	-0.7720003509	-0.096787
C	-1.3601840355	-4.741826207	 0.1251202551	-0.098889
H	 0.5184478062	 1.8512409075	 0.917407483	 0.142724
H	 0.5608337267	 1.9303865318	-0.8480457639	 0.144878
H	-0.9906527562	 1.8850506749	-0.0031974281	 0.147884
H	 0.3103987446	-2.969764246	-1.1878026741	 0.125762
H	 0.7642606547	-3.0318768854	 0.5130542436	 0.117377
H	-1.6595135001	-2.8474728023	 1.140685157	 0.089641
H	-4.0064078106	-3.997686084	-1.2357654494	 0.105892
H	-2.7740168854	-3.9709926181	-2.506731819	 0.106659
H	-2.4639246247	-6.2021110759	-1.0230815576	 0.107398
H	-0.7211411189	-5.3452744862	 0.7573928612	 0.105282
