20
gdb 38835	2.58121	1.99564	1.70486	0.7411	76.67	-0.2201	0.0854	0.3055	909.2923	0.175525	-403.130737	-403.124145	-403.123201	-403.161292	28.211	
C	 0.0737445451	 1.493215745	-0.1884456094	-0.251665
C	 1.3172968348	 0.6877725053	-0.0579990456	-0.004882
C	 2.1810318864	 0.7691781853	 1.2011124912	-0.243699
C	 1.4781440897	 0.1268358765	 2.4080544104	 0.117106
C	 0.7903339237	-1.1709119528	 1.964313108	-0.240945
C	-0.4373392519	-0.543892052	 1.285579812	 0.006391
C	-0.8324299816	 0.4530524002	 2.3758757677	-0.090677
O	 0.4055615563	 0.9696104595	 2.8725653344	-0.282556
N	-0.0090376795	 0.0445733789	-0.0016988449	-0.103702
H	-0.15623214	 2.1553244696	 0.6418248982	 0.12669
H	-0.2601696849	 1.8528280428	-1.1589208421	 0.107303
H	 1.8647617501	 0.4495400247	-0.9678941258	 0.085992
H	 3.1190817146	 0.2294222607	 1.0257171669	 0.098953
H	 2.4469500391	 1.804964178	 1.4375796189	 0.112186
H	 2.1795484821	-0.0010738669	 3.2373500507	 0.075411
H	 1.3950764507	-1.7701363929	 1.2805017213	 0.109474
H	 0.4974444243	-1.7874504047	 2.8185175913	 0.10351
H	-1.2416718352	-1.2562303807	 1.0802611785	 0.076713
H	-1.4530058977	 1.2797218347	 2.0176266555	 0.106155
H	-1.3834866461	-0.0614784312	 3.1770303629	 0.092241
