17
gdb 71473	4.20042	1.21106	1.09906	1.3186	80.39	-0.2317	0.0423	0.2739	1114.1894	0.134542	-384.605809	-384.597823	-384.596879	-384.637889	31.846	
O	-0.1474671609	 1.4184290447	 0.0286344432	-0.476614
C	-0.053489904	 0.0383396699	 0.0087123774	 0.366342
C	 0.4410733782	-0.7450303875	-1.2459020764	-0.302399
C	-0.5069829469	-1.8457299968	-0.7782026666	-0.106777
C	-1.3333622498	-0.8875218608	 0.0307221548	-0.171609
C	-0.4439187554	-1.8788624731	 0.7741753044	 0.239645
C	 0.5212859301	-0.7673000019	 1.2071469295	-0.361679
C	-0.8335374173	-3.0253279771	 1.5165479032	 0.118687
C	-1.1489764063	-3.9941376648	 2.1581292241	-0.379213
H	 0.743128574	 1.787204046	 0.0443120825	 0.28367
H	 0.0715021003	-0.2748749275	-2.1612533436	 0.109425
H	 1.5124991747	-0.9598100074	-1.331392902	 0.089323
H	-0.8458964808	-2.7205782198	-1.3159237423	 0.100857
H	-2.3938142194	-0.6990697364	 0.1020165831	 0.107841
H	 1.596298684	-0.9810815446	 1.2193878213	 0.090405
H	 0.2061049606	-0.3328079917	 2.1588116136	 0.113453
H	-1.430783721	-4.8473618313	 2.7229823637	 0.178643
