19
gdb 126594	5.42639	0.65275	0.62762	3.9548	77.75	-0.2961	-0.0403	0.2557	1806.2445	0.158985	-419.181611	-419.172558	-419.171614	-419.217148	31.944	
C	-0.3186335881	 1.5123215126	 0.0834052296	-0.384322
C	 0.0927064639	 0.0431575431	-0.0423614888	-0.163606
C	 0.6464568085	-0.5355013452	 1.263526504	-0.164677
C	 1.060851922	-2.0131997328	 1.1304788439	-0.322027
C	 1.5973917769	-2.5846135425	 2.4042552709	 0.336347
N	 2.8620427603	-2.8730457119	 2.5715398362	-0.146831
O	 2.9808701986	-3.3468758808	 3.8493741123	-0.148789
N	 1.7752379417	-3.3561702649	 4.4893521701	-0.060167
C	 0.919969855	-2.8931665827	 3.6223196707	-0.106553
H	 0.5321652612	 2.1380972349	 0.3740712735	 0.119254
H	-0.7076070207	 1.8983444076	-0.8636239547	 0.116736
H	-1.0987109191	 1.6424377231	 0.8416458253	 0.115935
H	-0.769518418	-0.5545697609	-0.3666249881	 0.097385
H	 0.8483829553	-0.0613622113	-0.8317737392	 0.102422
H	 1.514907494	 0.0496072662	 1.5903895722	 0.114183
H	-0.1061134756	-0.4353936546	 2.0570235327	 0.098782
H	 0.19653251	-2.6063250863	 0.8068404375	 0.118224
H	 1.8284114777	-2.1176096722	 0.357816581	 0.133012
H	-0.1252496334	-2.7964224514	 3.8729051209	 0.144691
