14
gdb 25306	2.7496	1.32776	0.89539	2.9433	77.13	-0.251	-0.0812	0.1698	1190.1383	0.101935	-436.754499	-436.74687	-436.745926	-436.787051	27.553	
O	 0.1148358755	-0.077921331	-0.0022991605	-0.307573
C	 0.0285181374	 1.1359109571	 0.0094496838	 0.081492
C	 1.1940908179	 2.0026378588	 0.0033640999	 0.145374
C	 1.367586008	 3.3947242187	 0.0135189444	 0.110159
C	 0.3176056866	 4.4135277878	 0.0347712758	 0.075703
O	 0.532396306	 5.6055581561	 0.0427419401	-0.275347
C	 2.7645991198	 3.6408632674	-0.0005523498	-0.238892
C	 3.3960845172	 2.4149785346	-0.0189883346	-0.048546
N	 2.440672122	 1.4429211852	-0.016242888	-0.278568
H	-0.9529442908	 1.6471246484	 0.025435003	 0.093443
H	-0.7238280579	 4.0251114385	 0.0435249032	 0.069933
H	 3.2310868014	 4.6126211345	 0.0026258778	 0.13946
H	 4.4449865343	 2.1640327193	-0.0335865157	 0.147254
H	 2.5734429627	 0.4428112545	-0.0266199694	 0.286108
