16
gdb 35116	3.21387	1.42382	1.10861	5.362	73.84	-0.2709	-0.0039	0.267	1072.7022	0.125847	-400.75469	-400.747273	-400.746329	-400.786925	28.158	
N	 0.2810028972	-1.1468788834	 0.407864349	-0.318528
C	 0.1392125644	-0.0173965776	 0.2112594136	 0.274354
C	-0.0565756251	 1.4169328232	-0.0517726276	-0.22656
C	-0.9429069348	 2.0484512747	 1.0031692492	-0.047218
C	-0.7116097065	 3.2388720091	 1.5465738329	-0.060137
C	 0.4591821553	 4.1205683189	 1.2182184997	-0.301653
C	 1.5219967959	 3.4332195875	 0.394039047	 0.049413
O	 2.0871413374	 2.2423217189	 0.9529978255	-0.240813
C	 1.2889057443	 2.1169643752	-0.2159810251	 0.040791
H	-0.5681402195	 1.4799030212	-1.0251653099	 0.140629
H	-1.8141655701	 1.4698429318	 1.292263307	 0.116975
H	-1.4139048221	 3.6248475932	 2.2805938001	 0.105479
H	 0.1137614375	 5.0115424434	 0.6739981189	 0.123513
H	 0.9132275738	 4.5003860557	 2.1433148699	 0.132256
H	 2.2541038304	 4.0904533922	-0.0753663391	 0.101205
H	 1.8378330318	 1.8357691361	-1.114252331	 0.110297
