18
gdb 116128	2.58817	1.26367	0.89171	4.8261	69.42	-0.2337	0.0307	0.2644	1267.6929	0.14878	-476.248064	-476.239415	-476.23847	-476.281719	31.91	
O	-0.1118556371	 1.4247373115	 0.0901780344	-0.423418
C	 0.0152484581	 0.0170872084	-0.0483321519	-0.090797
C	-1.3952520542	-0.561661257	 0.0020970494	 0.037432
C	-1.4062544074	-2.0839941831	-0.1179814544	-0.098146
O	-2.708824792	-2.5790528807	 0.107618815	-0.243593
C	-3.1236678776	-2.3651052228	 1.444508308	-0.192323
C	-2.8916610865	-0.9513424969	 1.9806773043	 0.376416
O	-3.4243718887	-0.5752398251	 3.0074939601	-0.374444
N	-2.0269193596	-0.186723048	 1.2586847744	-0.319466
H	 0.7624665535	 1.8028241014	 0.219390381	 0.2972
H	 0.4880289901	-0.2527585523	-1.0052584591	 0.097436
H	 0.6152279557	-0.4125939429	 0.7677584559	 0.099289
H	-1.9606917519	-0.1407812788	-0.8426187436	 0.102352
H	-1.1191710278	-2.3889370881	-1.1277163964	 0.118859
H	-0.6915385005	-2.5261026431	 0.59744831	 0.092964
H	-4.1948034756	-2.5707270793	 1.4906958464	 0.144617
H	-2.6173122734	-3.0628477264	 2.1320838111	 0.119293
H	-1.893790645	 0.7650319831	 1.5722011651	 0.256328
