13
gdb 20635	4.06706	1.87377	1.29301	2.8592	66.38	-0.2569	-0.0927	0.1642	885.6472	0.094338	-394.745667	-394.738527	-394.737583	-394.777141	25.928	
C	 0.0100177446	 1.4958549757	 0.0125510428	-0.462326
C	-0.0628926421	 0.0043795152	-0.0271638443	 0.340322
C	-1.1487733639	-0.7466193959	 0.2027022281	-0.211069
C	-1.0754109913	-2.1936166534	 0.1299364376	 0.427227
N	-2.0800120068	-2.9406525403	 0.3407382351	-0.525251
O	 0.163080171	-2.7058235415	-0.1845414263	-0.293849
N	 1.3156819207	-1.8342137277	-0.425670423	 0.049331
N	 1.1671754821	-0.6229401465	-0.3440218984	-0.147243
H	 0.7455626022	 1.8224959001	 0.7554455515	 0.155301
H	 0.3404600138	 1.8878454972	-0.9552977458	 0.155297
H	-0.9604219641	 1.9301627349	 0.259002966	 0.139254
H	-2.112936533	-0.3192171844	 0.4485955685	 0.141608
H	-1.8274742332	-3.9253551933	 0.2430301482	 0.231397
