22
gdb 92883	2.65594	1.31271	1.11364	2.0875	83.53	-0.2431	0.0314	0.2745	1228.8316	0.193858	-404.383599	-404.374256	-404.373312	-404.417066	36.237	
C	 0.077267695	 1.572838123	 0.0946570411	-0.403518
C	 0.0062862235	 0.0589154514	-0.0163146489	 0.131534
C	 0.6860715808	-0.5057974485	-1.2594934144	-0.241804
C	 0.7223884811	-2.0490043132	-1.2255378925	 0.268015
C	-0.6477170357	-2.6565832974	-1.5772024756	-0.40108
C	 1.7749571843	-2.5677741406	-2.2175116594	-0.403429
N	 1.1135125197	-2.5399985583	 0.1052103277	-0.28798
C	 1.0554740888	-1.7597188836	 1.0975224785	 0.114671
O	 0.6282071136	-0.4768362869	 1.1711432401	-0.239974
H	 1.117550792	 1.9119044038	 0.0746736212	 0.12586
H	-0.4564955079	 2.0382323279	-0.7394566231	 0.119039
H	-0.3772358404	 1.9108839093	 1.0298776024	 0.12792
H	-1.0452096905	-0.2585553296	 0.0068546116	 0.088132
H	 0.1685511385	-0.145360714	-2.1554725668	 0.098477
H	 1.7119960062	-0.1191580225	-1.2995206034	 0.100638
H	-0.9181128147	-2.4243972285	-2.6130183068	 0.107671
H	-0.6133975805	-3.7432593817	-1.4618911478	 0.127662
H	-1.4389579982	-2.2802232941	-0.921987646	 0.1108
H	 2.7687631429	-2.1926508089	-1.955363116	 0.112999
H	 1.8102970022	-3.660343899	-2.1925010543	 0.121628
H	 1.5417573422	-2.2465914507	-3.238498641	 0.103334
H	 1.386188797	-2.0902256979	 2.0815146235	 0.119408
