16
gdb 124075	4.54507	1.15291	1.05929	2.1475	69.31	-0.2591	0.0025	0.2616	1125.513	0.127894	-434.065586	-434.058412	-434.057468	-434.098098	26.265	
C	-0.0914572261	 1.352108161	-0.2805709576	-0.094847
O	 0.9137680203	 1.6496559372	 0.7154315178	-0.278237
C	 1.3847174216	 0.283461947	 0.6629432561	-0.094842
C	 0.0715445891	-0.1703982721	-0.028305239	-0.145518
C	-0.9366984768	-0.7374546452	 0.9068716413	 0.384705
N	-1.6396576194	-1.8466374624	 0.750331221	-0.334262
C	-2.3967569401	-1.8919695748	 1.8837487377	 0.019022
N	-2.2124991921	-0.8919299899	 2.728092511	-0.208357
N	-1.271189948	-0.1596251464	 2.0844971171	-0.237929
H	-1.059873461	 1.8029571466	-0.0450447358	 0.119443
H	 0.2273770094	 1.663415208	-1.2837931112	 0.111904
H	 2.2704063883	 0.1844081852	 0.0220332738	 0.111904
H	 1.6004655519	-0.1229416358	 1.6553423139	 0.119446
H	 0.1576161468	-0.8194474956	-0.8980963885	 0.113827
H	-3.1013691294	-2.6837052738	 2.0895118761	 0.127245
H	-0.9136586646	 0.6918450908	 2.4893782664	 0.286494
