19
gdb 97557	2.81272	0.60823	0.52108	1.5053	90.33	-0.2401	0.0304	0.2706	2130.4312	0.155318	-385.828368	-385.816741	-385.815797	-385.869185	38.397	
C	 0.078250121	 1.4814035182	 0.0953897533	-0.496936
C	 0.057199698	 0.0270679022	 0.0294616762	 0.039147
C	 0.049727196	-1.1748170866	-0.0291044026	 0.113978
C	 0.0107585815	-2.6413322545	-0.0866276222	-0.327029
C	-1.4380239714	-3.1722324941	 0.0546223287	-0.375037
C	 0.6488651004	-3.1505782936	-1.3068514141	 0.117699
C	 1.1601251055	-3.5935864754	-2.3015954536	 0.072915
C	 1.7753509235	-4.1011189072	-3.5211449429	-0.215565
O	 2.5673371549	-5.2446305505	-3.219209778	-0.409527
H	 0.6608997608	 1.8331040037	 0.9539820009	 0.147713
H	 0.525607703	 1.9122928078	-0.8071295897	 0.149281
H	-0.933351661	 1.891087681	 0.191365112	 0.147023
H	 0.5864427035	-3.0279206997	 0.7675537007	 0.134869
H	-2.0535969243	-2.8176688945	-0.7752124555	 0.132573
H	-1.4380090409	-4.2651462499	 0.0494192596	 0.125744
H	-1.8756633474	-2.8173885907	 0.9912000317	 0.122982
H	 0.9845248091	-4.3467072987	-4.2489487574	 0.114534
H	 2.3857804453	-3.3023087093	-3.9734065339	 0.116895
H	 2.9603624025	-5.5455568281	-4.0448448034	 0.28874
