15
gdb 133589	3.10631	1.32559	1.21482	2.4037	57.17	-0.2489	0.0704	0.3193	1018.9334	0.110022	-548.266737	-548.259253	-548.258309	-548.299359	28.186	
F	 0.0523876028	 0.1127842433	-0.337747047	-0.080937
C	 0.0223775097	 1.4274176454	-0.0463638086	 0.274414
F	 1.2868108666	 1.8595644872	-0.0148855369	-0.064997
F	-0.5988904786	 2.0374487906	-1.0706842764	-0.076482
C	-0.702767559	 1.742938171	 1.2490070627	-0.092213
C	-2.0470159594	 1.0395866378	 1.5646414113	-0.288907
C	-1.38578334	 0.6037913941	 2.8734446058	-0.00991
C	-0.1647879622	-0.1763463645	 2.6202545478	-0.244838
N	-0.0682408704	 1.3013308872	 2.5392668002	-0.152283
H	-0.7897218061	 2.8314189942	 1.2786493376	 0.120017
H	-2.8690931244	 1.7450553697	 1.6862716764	 0.123673
H	-2.3631113189	 0.2338085476	 0.8976315662	 0.123711
H	-1.8311176161	 0.6962991237	 3.8577534185	 0.104257
H	 0.3710092421	-0.5551534223	 3.4846445911	 0.12903
H	-0.069250356	-0.7798732449	 1.7254239815	 0.135467
