19
gdb 55524	4.37843	0.85154	0.7585	5.0742	80.32	-0.2431	-0.0119	0.2312	1534.5302	0.159323	-419.244557	-419.235162	-419.234217	-419.279489	34.089	
C	-0.2098246572	 1.551763755	 0.0242107702	-0.467556
C	-0.0127417708	 0.0658759421	 0.1941616534	 0.377566
N	 0.0759779405	-0.4601189731	 1.3438733882	-0.488856
N	 0.0552524516	-0.615485636	-1.0465908839	-0.400813
C	 0.2293805225	-1.9706337682	-1.2454020545	 0.462407
O	 0.3496718162	-2.7704837129	-0.332322631	-0.377703
C	 0.2597132431	-2.3874931954	-2.6791638674	-0.139573
C	 1.1602504715	-3.5583909077	-3.0343552467	-0.247069
C	-0.3184186216	-3.7532709408	-3.0088805195	-0.24709
H	 0.6143107198	 1.9974616878	-0.5454510701	 0.130245
H	-1.1397768714	 1.7682140669	-0.5149459729	 0.130251
H	-0.2531771002	 2.014407929	 1.0090737583	 0.15868
H	 0.2069427185	-1.4694708627	 1.2638533194	 0.250027
H	-0.0331262576	-0.0462727569	-1.8737452796	 0.249862
H	 0.1440194719	-1.6063775718	-3.4234465735	 0.081331
H	 1.6696856793	-3.5168348024	-3.9899974619	 0.119296
H	 1.7318506076	-3.9752323239	-2.2136679387	 0.144831
H	-0.7342075848	-4.3000857794	-2.1709368731	 0.144865
H	-0.853555159	-3.8496462596	-3.9463352465	 0.1193
