14
gdb 124048	3.78167	1.69363	1.18601	1.7226	70.96	-0.2143	-0.0301	0.1842	954.8324	0.10486	-432.872345	-432.865848	-432.864904	-432.903347	24.974	
C	 0.0402217341	 1.4892186239	 0.123104403	-0.135187
O	 1.3271165184	 2.1175326249	-0.0697067918	-0.270608
C	 2.1478199092	 1.4520586998	-0.8956712573	 0.373121
N	 3.2196526021	 1.970953698	-1.4683370466	-0.305816
N	 3.724031492	 0.9039990782	-2.1145771922	-0.09916
N	 3.0630052846	-0.2423780536	-2.0031919771	-0.297791
C	 2.038783712	 0.0828677399	-1.2136670203	 0.220374
C	 0.9651973398	-0.7017412392	-0.6514034285	-0.152768
C	 0.0307882493	-0.0200729529	 0.023589047	-0.112139
H	-0.288311336	 1.8144032197	 1.1142864586	 0.133525
H	-0.6651399044	 1.9177484716	-0.6085315829	 0.123829
H	 4.5517731301	 0.9841242189	-2.6799131432	 0.294285
H	 0.9485326492	-1.7804441294	-0.7521098863	 0.116868
H	-0.8085599303	-0.5198881798	 0.4959702277	 0.111465
