20
gdb 12926	3.31887	1.67979	1.39112	1.0143	75.77	-0.235	0.0901	0.3251	1000.8202	0.176329	-348.969186	-348.960697	-348.959753	-349.001841	31.69	
C	 0.1527996511	 1.0728901679	-0.3910856415	-0.234017
O	-0.0697324107	 0.0015365541	 0.5027819874	-0.240533
C	-1.3085189381	-0.610481745	 0.3130940946	 0.095288
C	-1.5524643682	-1.6398665054	-0.7580474949	-0.160443
C	-0.2852706978	-2.4705261138	-0.9889917547	-0.220047
C	-0.2544322496	-2.8367204364	 0.5263344852	-0.269669
C	-1.533989011	-2.0143043584	 0.7547671225	 0.284297
C	-2.6407624879	-2.4176995789	 1.6873552161	-0.496472
H	 1.150615504	 1.4668190147	-0.1833463225	 0.124671
H	 0.1041561124	 0.7453139341	-1.4394272201	 0.110514
H	-0.5835253298	 1.878956341	-0.2477733707	 0.103348
H	-2.1559208278	 0.0579119071	 0.4872796387	 0.074837
H	-2.3936022871	-1.5669028815	-1.4393744651	 0.076878
H	-0.4618595824	-3.3415328096	-1.6233773399	 0.098391
H	 0.58075398	-1.9252891973	-1.3751484562	 0.099018
H	-0.4170172401	-3.9038858502	 0.6974355382	 0.095021
H	 0.6226971819	-2.5137818063	 1.0924111754	 0.106411
H	-2.3167130722	-2.3517568941	 2.7335608823	 0.122574
H	-3.5184836013	-1.7729459851	 1.5728571968	 0.114974
H	-2.9586999753	-3.4507230269	 1.5047885884	 0.114959
