19
gdb 106332	2.99772	1.17629	1.04139	2.2822	71.38	-0.2406	0.0544	0.2951	1202.4132	0.158755	-460.119285	-460.110341	-460.109396	-460.152724	34.348	
O	 0.1608580504	 1.3673460419	-0.0570107403	-0.413162
C	 0.0666980095	-0.0374923816	 0.1420238201	-0.174492
C	-1.3524420214	-0.5171837657	 0.1125163659	 0.272977
C	-2.4187359029	-0.1728465751	 1.1595193086	-0.328957
C	-2.9361873227	-1.6466837732	 1.076135757	 0.098656
O	-4.2760998755	-1.8737369013	 0.6403364667	-0.437018
C	-1.9162018849	-1.9654274454	-0.007014711	-0.197001
C	-2.0489570994	-0.9903927916	-1.1375725314	 0.074507
O	-3.2651829098	-0.4753104445	-1.5873014425	-0.441046
H	-0.30867308	 1.572423133	-0.8729085158	 0.286885
H	 0.6614334342	-0.5938189819	-0.6017542144	 0.084848
H	 0.5216284641	-0.2221084454	 1.1223860145	 0.105333
H	-2.0078493754	 0.077948208	 2.1397325426	 0.106151
H	-3.135501532	 0.5943979525	 0.855068619	 0.106789
H	-2.7429123732	-2.1958370273	 2.004787728	 0.08499
H	-4.8776174821	-1.540766719	 1.3149865442	 0.29054
H	-1.3974854038	-2.9116111987	-0.1102006616	 0.088315
H	-1.3689943135	-1.1917129022	-1.9645299788	 0.095458
H	-3.9642163618	-0.9129172925	-1.0809039107	 0.296229
