15
gdb 5554	3.39816	1.79164	1.21856	3.1567	65.06	-0.1831	0.0306	0.2136	947.5001	0.120767	-396.007909	-396.000032	-395.999088	-396.040627	28.503	
N	 0.0782637537	 1.4305575712	-0.0406820306	-0.59864
C	-0.014614715	 0.0336170144	-0.0120566312	 0.190926
C	-1.134908693	-0.7595116841	 0.1072511853	 0.274353
C	-2.5858305303	-0.4802883713	 0.2359434983	-0.214407
O	-3.2989121307	-1.4060045363	-0.5897625634	-0.425826
N	-0.6362350056	-2.0541273459	 0.1770533522	-0.286962
C	 0.7110469623	-1.9783963082	 0.0779990972	 0.008479
N	 1.1253743403	-0.7317110509	-0.0251526268	-0.311516
H	 0.9945766522	 1.706342977	-0.3719532186	 0.247704
H	-0.6364442637	 1.8674419283	-0.6091960699	 0.23835
H	-2.9227604756	-0.5827340094	 1.2820089435	 0.099294
H	-2.7804251358	 0.5625602551	-0.0579122062	 0.096645
H	-4.2339145081	-1.3350491859	-0.3722092875	 0.287284
H	-1.2084291453	-2.8813491686	 0.148552377	 0.268089
H	 1.3448454446	-2.8523269352	 0.0769586508	 0.126229
