17
gdb 98382	2.65611	1.26554	0.86179	1.64	75.85	-0.2526	-0.0225	0.2301	1302.7539	0.136524	-451.374362	-451.364814	-451.36387	-451.410538	32.882	
C	 0.1374863337	 1.2522963728	-0.2510626555	-0.331064
N	 0.1461215897	-0.1838687834	-0.0540157309	-0.365148
C	 0.6496350367	-0.7230419208	 1.0680815703	 0.529727
O	 1.1134264423	-0.103370247	 2.0079552725	-0.410442
N	 0.6057430479	-2.1732213649	 1.1179690378	-0.194897
C	 0.1237881873	-3.0287716863	 0.133304753	 0.136856
N	-0.3624977055	-2.6389154842	-0.9794636114	-0.498782
C	 1.1179364904	-2.7536090736	 2.2965034002	 0.112352
N	 1.1409032715	-4.0101734011	 2.4698748291	-0.482315
H	 0.9876985527	 1.5859405025	-0.8586908303	 0.130111
H	-0.7867577361	 1.547769116	-0.7548934051	 0.129376
H	 0.1943183502	 1.744069417	 0.7205247741	 0.162588
H	-0.1897816482	-0.8256786333	-0.7727600773	 0.284243
H	 0.2233312345	-4.067045538	 0.4497352635	 0.160778
H	-0.648819769	-3.4363615548	-1.5410137842	 0.239735
H	 1.4653691105	-1.9838363902	 2.9823192954	 0.15985
H	 1.5456728913	-4.2284916607	 3.3775251088	 0.237031
