16
gdb 45636	3.3987	1.05868	0.85387	3.4339	77.06	-0.2167	-0.0028	0.2139	1310.7798	0.123436	-400.764756	-400.756266	-400.755321	-400.798468	31.64	
O	 0.1321361827	 0.0733282119	 0.3830721915	-0.364743
C	-0.0034559337	 1.2546999044	 0.1720208737	 0.405784
C	-1.2635236954	 2.0168252348	-0.2780815452	-0.382357
C	-0.8203068426	 3.455816226	-0.2912532349	-0.238398
C	 0.4724900206	 3.5115315243	 0.0496463564	 0.389177
C	 1.3928074927	 4.6974570706	 0.1324627871	-0.458543
C	 2.1960109418	 4.7195625338	 1.3539183958	 0.288719
C	 2.8643702499	 4.7021551326	 2.3521868779	-0.442021
N	 0.9796840258	 2.2243384883	 0.2954288303	-0.367448
H	-1.5807124505	 1.6437788039	-1.2594400363	 0.144973
H	-2.0850860211	 1.8058637994	 0.4159290047	 0.145751
H	-1.4390784544	 4.3015565157	-0.550524746	 0.103808
H	 2.0691878472	 4.6949766747	-0.7347881963	 0.15246
H	 0.7930223626	 5.610249225	 0.0533979062	 0.1521
H	 3.4493538364	 4.70504514	 3.2387437953	 0.206727
H	 1.880023658	 2.0374951545	 0.7074912998	 0.264012
