19
gdb 73505	2.84575	1.77018	1.41844	2.0469	73.29	-0.2402	0.0676	0.3078	966.0231	0.161421	-423.023406	-423.016062	-423.015118	-423.05497	29.765	
O	-0.0683785532	 1.3506741395	 0.0383603309	-0.475165
C	 0.0520121076	-0.0376360978	-0.0241106929	 0.375939
C	 1.0428235781	-0.6218143654	-1.0229922074	-0.149846
O	 0.458849124	-1.8118426638	-1.5381453077	-0.27685
C	-0.7295813993	-2.1508146445	-0.8009804903	 0.089527
C	-0.3736225805	-3.1329020459	 0.3271962548	-0.201416
C	 0.2638477568	-2.2408216408	 1.4233681884	-0.244928
C	-0.3490171391	-0.8570301974	 1.190101252	-0.120356
C	-1.1834813009	-0.8773426063	-0.0824689641	-0.143137
H	 0.6032565339	 1.6829124547	 0.6433486492	 0.284913
H	 1.1930045484	 0.1007273485	-1.8350035052	 0.1074
H	 2.0242474132	-0.8480460311	-0.5790568896	 0.087946
H	-1.4542368348	-2.5526413756	-1.5134256249	 0.079846
H	-1.2941654234	-3.5900658199	 0.7091617751	 0.095452
H	 0.2817613501	-3.9320727024	-0.0284918045	 0.103955
H	 0.0328121072	-2.6031941189	 2.4286903616	 0.100247
H	 1.3563726771	-2.2257778078	 1.3386730231	 0.104902
H	-0.6963261928	-0.2748433828	 2.0371376095	 0.084806
H	-2.1775616524	-0.4601694723	-0.1720331681	 0.096765
