19
gdb 39759	4.73127	1.33266	1.21003	2.5586	80.15	-0.2297	0.0855	0.3151	1065.3557	0.162086	-381.973957	-381.967188	-381.966244	-382.004815	28.284	
C	 0.0114871937	 1.5348340144	-0.0035949761	-0.350091
N	 1.2563264802	 0.7147156786	 0.0715962674	-0.394163
C	-0.0265822715	 0.067535835	 0.0076945211	 0.484872
C	-0.6029849475	-1.0166336423	 0.9076329057	-0.135917
C	-1.8694409404	-1.0803681803	-0.0098999609	 0.002608
C	-2.3350645076	-2.5300273013	-0.0428402105	-0.268398
C	-0.9323447511	-3.1974962105	-0.0668616942	-0.160465
N	 0.0129968683	-2.0544367956	-0.0455235935	-0.128348
C	-0.6130782084	-0.9734797794	-0.9375365503	-0.156437
H	-0.2028541114	 2.1099566785	 0.8932617314	 0.120774
H	-0.2188579526	 2.0487467446	-0.9342751111	 0.111465
H	 1.7276270651	 0.6889978378	-0.8293095276	 0.233583
H	-0.5379345726	-1.1289831103	 1.9909958661	 0.083529
H	-2.6124676236	-0.2803633215	 0.0119594397	 0.06885
H	-2.9252476077	-2.7983329922	 0.83884144	 0.101818
H	-2.936171308	-2.7559775252	-0.9290964049	 0.100258
H	-0.7436794969	-3.8343245521	 0.8021273865	 0.10657
H	-0.7548825565	-3.7941180631	-0.9664512956	 0.104127
H	-0.5649031817	-1.0340431252	-2.027623863	 0.075363
