20
gdb 57759	2.78372	0.71745	0.65141	4.0783	89.09	-0.2646	0.0203	0.2849	1831.5332	0.168513	-366.011346	-366.000462	-365.999518	-366.049089	37.997	
C	-0.0119891153	 1.5727709991	 0.0467600222	-0.375293
C	-0.0029301348	 0.0309922863	 0.0266346054	-0.12793
C	 0.8062553736	-0.5433311467	 1.2066261659	-0.375456
C	-1.366865898	-0.4998410049	 0.0177918339	 0.112404
C	-2.4946206978	-0.9206694919	 0.0319721398	 0.057102
C	-3.8555521837	-1.4618562928	 0.0348825038	-0.301774
C	-3.8718003001	-3.010655232	 0.0611142698	-0.379311
C	-4.6337052048	-0.9228082633	 1.1650633283	 0.290047
N	-5.2592248805	-0.5181309857	 2.0478382317	-0.323591
H	 1.0125135519	 1.9558408938	 0.0081310802	 0.115273
H	-0.56451678	 1.9753738232	-0.8060675356	 0.124998
H	-0.4835044745	 1.9427073795	 0.9621251028	 0.131065
H	 0.4845817426	-0.2906587836	-0.9042988001	 0.107686
H	 0.3609197178	-0.2443832762	 2.1603037285	 0.130302
H	 0.8334292932	-1.6355261644	 1.1720771975	 0.123428
H	 1.8345502716	-0.1699216348	 1.1751073963	 0.11551
H	-4.3695307713	-1.1325096563	-0.8789622953	 0.154009
H	-3.3321146953	-3.3908075367	-0.8087830476	 0.136425
H	-3.384591903	-3.380269845	 0.9655284359	 0.147597
H	-4.8999197915	-3.3797497475	 0.0361779469	 0.137509
