17
gdb 67131	2.45504	1.90957	1.6453	2.7373	72.96	-0.2244	-0.0337	0.1907	905.9119	0.137329	-417.904363	-417.897317	-417.896372	-417.935284	29.08	
O	-0.1604049556	 1.4102659983	-0.2184491037	-0.456871
C	-0.0064244184	 0.0528562875	-0.0453578838	 0.28178
C	-1.0540628641	-0.9548901752	-0.3430463227	-0.059842
C	-0.8723377512	-1.7666526086	-1.6426936092	-0.231576
C	 0.4194160111	-1.2589503247	-2.3664343402	-0.182421
N	 1.4543114203	-1.5307230532	-1.3598991739	-0.145182
C	 1.2161379715	-0.8856930956	-0.3025306209	 0.072078
N	 1.1086421898	-1.573695188	 0.9994225434	-0.33904
C	-0.2692760407	-0.949426693	 1.0333648762	-0.1214
H	 0.4864910961	 1.869118476	 0.3298458005	 0.290106
H	-2.0696101043	-0.6079649527	-0.1568192445	 0.100204
H	-0.7732816191	-2.8396874176	-1.4545103325	 0.128982
H	-1.7506851577	-1.6220710753	-2.2817614753	 0.103644
H	 0.6302893528	-1.8235601598	-3.276454006	 0.107395
H	 0.3022449502	-0.1988405561	-2.6257805327	 0.121142
H	 1.6399476439	-1.0840372333	 1.7238229577	 0.22222
H	-0.8181833348	-0.9001846786	 1.9668402975	 0.108781
