21
gdb 94277	2.78965	1.60066	1.20776	1.3517	82.43	-0.2486	0.0713	0.3198	1088.5203	0.184055	-387.024108	-387.016317	-387.015373	-387.056125	31.921	
O	 0.5321524804	 0.8537299591	-0.6857354306	-0.42422
C	 0.1551847396	-0.2580542309	 0.0934335571	 0.048029
C	 0.0152450172	-0.1066395998	 1.6304105817	-0.259373
C	-1.1993800413	-1.0730526872	 1.5805720143	-0.33306
C	-1.2953914037	-0.8157987336	 0.0549462524	 0.394433
C	-2.4820405899	-0.029768184	-0.5891687018	-0.119374
C	-1.9730931193	-0.5452027445	-1.9701134385	-0.231192
C	-1.9006932502	-1.7702682975	-1.009628189	-0.123377
C	-3.3042543766	-1.3473251422	-0.4842849381	-0.226665
H	-0.0861758736	 1.568046181	-0.4978158125	 0.279407
H	 0.875709603	-1.0442334776	-0.157844592	 0.09061
H	 0.8727481878	-0.3799935968	 2.2488246934	 0.1003
H	-0.2935767336	 0.9116624616	 1.8910155077	 0.092379
H	-0.9171639558	-2.1054401964	 1.8090146385	 0.103933
H	-2.0643109056	-0.8095085495	 2.1932117115	 0.102315
H	-2.8258832068	 0.9777748451	-0.3415206351	 0.060577
H	-2.7231478667	-0.60495595	-2.7639620437	 0.083749
H	-1.0290025325	-0.1352710534	-2.328191759	 0.116834
H	-1.5616331852	-2.779940778	-1.2500941676	 0.064441
H	-3.5852662567	-1.6841267341	 0.516087084	 0.092341
H	-4.1357375704	-1.4505014215	-1.1873684724	 0.087912
