20
gdb 117392	5.27899	0.64894	0.61325	2.0957	76.98	-0.2408	0.0311	0.2719	1836.7085	0.169594	-440.294958	-440.284652	-440.283707	-440.332413	35.964	
O	-0.1766164805	 1.3765775829	 0.0292173023	-0.426321
C	-0.2076446404	 0.0107406832	 0.4191120501	-0.066116
C	-1.2820425347	-0.672426589	-0.4161345086	-0.311178
C	-1.3396531813	-2.1730318193	-0.1490950284	 0.409878
O	-0.3908673431	-2.8055220582	 0.2776496304	-0.372141
N	-2.5461652817	-2.7568411552	-0.4331503306	-0.331994
C	-2.7322605203	-4.1767620294	-0.3964694448	 0.065656
C	-2.9315267302	-4.8530914153	 0.9324199923	-0.236154
C	-4.0928858753	-4.6965074067	-0.0175398223	-0.297985
H	 0.5325257084	 1.8070980675	 0.5150760742	 0.286687
H	 0.752138139	-0.4917680129	 0.2464434156	 0.114589
H	-0.4437368428	-0.0974525531	 1.4887980455	 0.093379
H	-2.2548741744	-0.2026578839	-0.233364562	 0.111029
H	-1.0523803445	-0.5144499154	-1.4778780079	 0.134531
H	-3.2451663389	-2.2013950324	-0.9011109583	 0.244656
H	-2.1729524779	-4.7317118695	-1.1457815053	 0.103369
H	-2.4943690992	-5.8353090573	 1.0672283171	 0.121029
H	-2.9114913067	-4.2213301395	 1.8118381127	 0.124095
H	-4.8537108474	-3.9663738564	 0.2376919043	 0.113581
H	-4.4661629483	-5.56930323	-0.5407282863	 0.119409
