22
gdb 76920	2.29468	1.25016	1.0458	0.5567	84.08	-0.2277	0.0841	0.3118	1291.9092	0.191668	-404.301784	-404.291621	-404.290677	-404.336582	38.018	
C	-0.0979498854	 1.4886776874	 0.5732885374	-0.414982
C	 0.0779940372	 0.0134044717	 0.2854580552	-0.10955
C	 0.4648082275	-0.4963181958	-1.0978388799	-0.010985
N	 0.7535097694	 0.4629481835	-2.1258953958	-0.063115
C	 1.1343461733	-0.0730638091	-3.4297634333	-0.223088
C	-0.2035282109	 0.5478960387	-3.2253824853	-0.221647
C	 1.4274628634	-0.641323426	 0.0492089467	 0.347481
C	 2.7193358392	 0.1397085414	 0.0960489982	-0.4525
O	 1.5493202811	-1.9775055717	 0.4826329519	-0.466258
H	 0.5237328187	 2.1004545368	-0.0825815272	 0.135645
H	-1.1389298321	 1.7905209483	 0.412525634	 0.114071
H	 0.1566831351	 1.7257556027	 1.6124546702	 0.109104
H	-0.6216615607	-0.638858674	 0.8025537329	 0.082831
H	-0.0100141732	-1.4281728893	-1.4167872849	 0.077628
H	 1.9197717622	 0.4662726177	-3.9516554067	 0.115451
H	 1.1711078318	-1.1550265867	-3.5422787038	 0.116122
H	-1.0643127955	-0.1180564009	-3.2012295801	 0.111895
H	-0.411389335	 1.5476071667	-3.5963138993	 0.115217
H	 2.6194471041	 1.1088456123	-0.3943945192	 0.137352
H	 3.0395015076	 0.3060276862	 1.1323673667	 0.101253
H	 3.5084361089	-0.4233917211	-0.4124788765	 0.121827
H	 1.6988828531	-1.9624096987	 1.4347777089	 0.276249
