19
gdb 72995	2.43887	1.56287	1.25567	2.2046	77.03	-0.2445	-0.0276	0.2169	1079.3178	0.157162	-423.01027	-423.001294	-423.00035	-423.043259	34.268	
C	 0.1267718534	 1.5522481154	 0.2051767093	-0.51064
C	 0.0572852275	 0.0542773473	 0.1193418398	 0.30281
C	-1.2558121527	-0.7371769028	-0.0304740122	-0.272301
C	-0.6897276028	-1.8395334352	 0.9178723331	-0.243038
C	 0.616119941	-1.049718551	 1.0181768721	-0.154472
C	 1.1921966628	-0.83647711	-0.3751771412	 0.227541
O	 0.946598641	-1.7192674385	-1.43568238	-0.467016
C	 2.5576939174	-0.2399212899	-0.4167116873	 0.092406
O	 3.0528323704	 0.4523595619	 0.4418545405	-0.270529
H	 1.1275935012	 1.8965020611	 0.4711970867	 0.15513
H	-0.1568981451	 2.0102054354	-0.7499042863	 0.121366
H	-0.5711354186	 1.9183286654	 0.9664112835	 0.117703
H	-2.0999823067	-0.2006104927	 0.4086899519	 0.104571
H	-1.5118852891	-1.0475104837	-1.0448883317	 0.115336
H	-1.2207934393	-1.8828020801	 1.8708876461	 0.109963
H	-0.6172685102	-2.8519086686	 0.5103705512	 0.092497
H	 1.2757653797	-0.963386179	 1.8743407619	 0.105585
H	 1.328683066	-2.5760804143	-1.2164507978	 0.289739
H	 3.1098347842	-0.5093326108	-1.3446598596	 0.083347
