19
gdb 44774	2.35313	2.11242	1.55731	2.8684	79.99	-0.2318	-0.0068	0.2249	934.638	0.161251	-385.829245	-385.822385	-385.821441	-385.860105	28.999	
O	 0.078354429	 0.1090283864	 0.1258847658	-0.350183
C	 0.0133156176	 1.3082074633	 0.0658783796	 0.412654
C	-1.2323181278	 2.2113574328	 0.1296326696	-0.322987
C	-0.5028851855	 3.5427596678	-0.0549506742	-0.090549
C	 0.7161426528	 3.3738287889	 0.9669753018	-0.330544
C	 1.1662976602	 2.3022832557	-0.1133560779	 0.182045
C	 2.1966132185	 1.7996057569	-1.1589316781	-0.318966
C	 1.1204729974	 2.2607377306	-2.2468781856	-0.29531
C	 0.6062904808	 3.2565451952	-1.1458934646	 0.026388
H	-1.9352356452	 1.9607609872	-0.6709488284	 0.124206
H	-1.7551898947	 2.1222079143	 1.0864956441	 0.122946
H	-1.0983356831	 4.455542812	-0.0632662533	 0.074625
H	 1.374983804	 4.2428202036	 0.9876911674	 0.116126
H	 0.4784436362	 3.0473469274	 1.9843514669	 0.105688
H	 3.1048899859	 2.4030429158	-1.2173440035	 0.108021
H	 2.4480666181	 0.7378434973	-1.1196580252	 0.123047
H	 1.4943010277	 2.69878206	-3.1747868399	 0.100655
H	 0.4335221402	 1.4447879176	-2.4828788412	 0.129321
H	 1.2458706178	 4.1438082272	-1.1983131434	 0.082817
