18
gdb 35103	2.16543	1.77049	1.15351	4.1266	80.67	-0.2629	0.0008	0.2637	1090.7889	0.148759	-364.82537	-364.817394	-364.81645	-364.858648	30.561	
N	 0.0303406345	-1.2319655449	 0.5665206134	-0.339521
C	 0.0349588789	-0.1039643871	 0.3126651883	 0.279079
C	 0.0453183548	 1.3267802594	-0.02131294	-0.277302
C	-0.7418907788	 2.1472882168	 0.9870774309	-0.067554
C	 0.0284603169	 3.0160953938	 1.6344709231	-0.060462
C	 1.4716872667	 2.9539835862	 1.2106783747	-0.337425
C	 1.4576913815	 1.9685381347	 0.0322011303	 0.351262
C	 2.6863200167	 1.2018246358	-0.3716254284	-0.311749
C	 2.1626463967	 2.3016817438	-1.2593451379	-0.307031
H	-0.3859205623	 1.4160407681	-1.0273737372	 0.127561
H	-1.8027256224	 1.9910584142	 1.1376959474	 0.116499
H	-0.3221319488	 3.6970194643	 2.4019536951	 0.107609
H	 1.8597400498	 3.9376954442	 0.9182837108	 0.113489
H	 2.106747939	 2.6040096948	 2.0364021686	 0.120939
H	 3.5960262833	 1.3847959947	 0.1909081373	 0.117467
H	 2.56343853	 0.173605499	-0.6948234819	 0.135443
H	 1.6837706511	 2.0198904085	-2.1919933885	 0.116536
H	 2.7150834724	 3.2347787937	-1.3066584361	 0.11516
