16
gdb 16806	3.67558	1.88106	1.44518	2.4173	65.48	-0.2438	-0.005	0.2388	883.3257	0.130466	-383.72558	-383.718316	-383.717372	-383.756886	27.77	
C	-0.0332013567	 1.5083377183	 0.0720463996	-0.500837
C	-0.0442465344	 0.0165846015	-0.0219918829	 0.329105
C	-0.0942004797	-0.7519056184	-1.1150122421	-0.231377
C	-0.0391234819	-2.2415103117	-0.8037256176	 0.088366
O	 1.0639497994	-2.8969599334	-1.4085154886	-0.43451
C	 0.036408042	-2.2560655802	 0.7284824402	-0.000613
O	 1.2626631433	-1.678530167	 1.2003147806	-0.268407
C	 0.054913481	-0.8688325277	 1.1912700839	-0.060726
H	 0.8871625443	 1.8654758523	 0.5507340563	 0.137889
H	-0.109083352	 1.9722732398	-0.9145262389	 0.130444
H	-0.8669221963	 1.8741340906	 0.6844584139	 0.12962
H	-0.0878739065	-0.3930570514	-2.1386112462	 0.102013
H	-0.930276939	-2.7705370739	-1.160620302	 0.091385
H	 1.8470230315	-2.5329187584	-0.9746186778	 0.287457
H	-0.3432909682	-3.092875459	 1.3070048774	 0.101509
H	-0.2875153466	-0.5510973516	 2.1718826642	 0.098684
