19
gdb 11745	5.09381	1.27055	1.19259	2.9338	72.46	-0.2235	0.0641	0.2876	1077.3216	0.165223	-365.013466	-365.00511	-365.004166	-365.046159	31.331	
C	-0.0654635803	 1.5731072249	 0.1170844188	-0.403395
C	 0.0392750933	 0.0576700587	 0.0316266714	 0.041608
C	 1.062349951	-0.5757980183	-0.9866281326	-0.289826
C	 1.7306087235	-1.3024304562	 0.1888375728	 0.386702
C	 2.3468125083	-2.6602271968	 0.1940937622	-0.216045
O	 3.6177696463	-2.5910291136	-0.4411557563	-0.413975
N	 2.1977774896	-0.2273252218	 1.0990846316	-0.359433
C	 0.7869958126	-0.6780495296	 1.1586843704	-0.135737
H	 0.9173733217	 2.0088550275	 0.314721488	 0.138643
H	-0.4484503492	 1.9941513202	-0.8189644489	 0.108586
H	-0.7444392125	 1.8785485113	 0.9214358941	 0.105925
H	-0.9487505403	-0.390697731	-0.1135775604	 0.068888
H	 0.5845903044	-1.2503983125	-1.7011848556	 0.095497
H	 1.7106226399	 0.1238070367	-1.5188411682	 0.10857
H	 2.4379928511	-3.0116512198	 1.2366756256	 0.078658
H	 1.6809067103	-3.3641094311	-0.3306144794	 0.089802
H	 3.9488104939	-3.4883158081	-0.5447956278	 0.287584
H	 2.6945285702	-0.6772438406	 1.8682033064	 0.224896
H	 0.3747376861	-1.0740226797	 2.080566168	 0.083052
