14
gdb 19778	3.30481	2.57137	1.76086	3.187	60.34	-0.2417	-0.0379	0.2039	735.1011	0.108402	-382.523327	-382.5174	-382.516456	-382.553254	23.527	
O	 0.0155046151	 0.0060817587	-0.0397928254	-0.317483
C	-0.0149817202	 1.2102111869	 0.0043347972	 0.416893
C	-1.254183952	 2.0693406856	-0.0009101849	-0.161331
C	-1.4339575668	 3.1778985616	 1.0266180013	-0.287
C	-0.8187558827	 3.4955678208	-0.3023996542	-0.070382
C	 0.7058112136	 3.485772415	-0.3403608754	 0.034791
O	 1.3088127544	 3.1139332693	 0.8996791143	-0.241846
C	 1.2045810851	 2.1153032018	-0.1338369516	-0.094461
H	-2.1425449209	 1.6191674435	-0.4261548186	 0.114575
H	-2.4595511265	 3.4899419363	 1.1889559941	 0.123946
H	-0.7979444952	 3.1924740774	 1.901178965	 0.151878
H	-1.3445373317	 4.1083875384	-1.0237409363	 0.101526
H	 1.2448194581	 4.2268688688	-0.9226172075	 0.110943
H	 2.1387329398	 1.7069425758	-0.5072382379	 0.117952
