23
gdb 60405	3.29634	0.77362	0.68983	1.5998	83.12	-0.2403	0.0753	0.3157	1726.0749	0.202953	-425.404809	-425.394027	-425.393083	-425.441431	39.291	
C	-0.0295301111	 0.7835179183	-0.6444313653	-0.397932
C	 0.0907302607	-0.2025420946	 0.5134074654	 0.107111
O	 0.5359481772	 0.4223411632	 1.7124447825	-0.429861
C	-1.2164099497	-0.9508677773	 0.785741979	-0.071307
O	-1.5748791654	-1.6821369621	-0.3738966415	-0.250826
C	-2.7698612335	-2.3881076731	-0.2374845045	 0.137467
C	-2.9998014169	-3.5015689231	-1.208684981	-0.32859
C	-2.7549447775	-3.8190257625	 0.2563049214	-0.022299
C	-1.4630741548	-4.4859437361	 0.6732060223	-0.405515
H	 0.927923817	 1.2787139581	-0.8268684975	 0.120871
H	-0.3481574663	 0.2683054165	-1.5537659125	 0.138408
H	-0.7784306843	 1.5540679105	-0.4168597182	 0.099832
H	 0.8606870402	-0.9462491075	 0.2775888563	 0.098606
H	-0.0364006479	 1.1799049296	 1.8769608313	 0.277575
H	-1.0815615675	-1.6151190391	 1.650225862	 0.102835
H	-2.0115031675	-0.2268734906	 1.0414731853	 0.072676
H	-3.618626389	-1.7620548014	 0.0430241693	 0.079349
H	-3.9902343986	-3.6340162899	-1.6295838043	 0.110328
H	-2.1842271611	-3.707862729	-1.8941945076	 0.121384
H	-3.6304790631	-4.1206367222	 0.8260917876	 0.081635
H	-0.6143102008	-4.0543677111	 0.1359863066	 0.127985
H	-1.2777746156	-4.3642576923	 1.746194587	 0.115071
H	-1.4873750845	-5.5602665443	 0.4607157665	 0.115195
