15
gdb 127717	3.37867	1.31332	0.9571	7.2215	75.44	-0.2671	-0.0268	0.2402	1165.2036	0.113042	-413.014536	-413.005985	-413.005041	-413.048076	29.754	
C	 0.008519727	 1.4499778415	-0.0147136479	-0.338407
N	 0.0047591682	 0.0027127047	 0.069235112	 0.002155
N	-0.0328769901	-0.7394843745	-1.0692473473	-0.13645
N	-0.0288739084	-1.9865966449	-0.7309326562	-0.256611
C	 0.0132246203	-2.0667252072	 0.6356915687	 0.14932
C	 0.0297128616	-3.2899542618	 1.3510914462	 0.236182
N	 0.044291161	-4.2646346855	 1.9757761366	-0.344437
C	 0.0345382788	-0.7862840015	 1.1662004207	 0.238091
C	 0.079091974	-0.293118072	 2.5692066004	-0.517203
H	 0.9161597951	 1.8601802346	 0.4364489617	 0.154687
H	-0.0225126274	 1.7090123354	-1.0725043616	 0.18117
H	-0.8663985238	 1.8679841137	 0.4906703814	 0.154698
H	 0.9716679315	 0.3147605852	 2.7537880699	 0.151709
H	-0.7961452181	 0.3211921708	 2.8076908125	 0.151747
H	 0.0969523205	-1.1408389487	 3.2565664529	 0.173349
