20
gdb 115774	2.97522	0.98985	0.81634	4.2486	78.4	-0.2442	0.0346	0.2788	1442.96	0.170439	-440.290697	-440.281146	-440.280202	-440.326094	34.097	
C	-0.0017214172	 1.3151440155	-0.1325930566	-0.238296
O	-0.0672746422	-0.0282621977	 0.2936565866	-0.261649
C	-1.3435734109	-0.6164204282	 0.1367351541	 0.108022
C	-1.5975172979	-1.1596581172	-1.2984971842	-0.254927
C	-1.0169754811	-2.5286156319	-0.8467241717	-0.239696
C	-1.2583355773	-2.0874372206	 0.6265259812	 0.042477
N	-0.2783017066	-2.3663608966	 1.6389986389	-0.281219
C	-0.5073008623	-3.187749926	 2.6974673364	 0.149474
O	-1.5170065284	-3.8366265141	 2.8767128292	-0.327804
H	 1.016078642	 1.6654931138	 0.0542152324	 0.129908
H	-0.2204260483	 1.4203137203	-1.20472605	 0.112609
H	-0.7068546761	 1.9474281014	 0.4278837944	 0.112051
H	-2.1130195802	 0.0272634228	 0.5857195239	 0.066285
H	-2.6649041122	-1.2087003664	-1.5297276066	 0.109714
H	-1.0843413817	-0.6395684494	-2.1097507384	 0.106651
H	-1.5199106267	-3.4374638368	-1.1818916686	 0.109377
H	 0.050335549	-2.6078648784	-1.0660460949	 0.108905
H	-2.2221132205	-2.4451761464	 0.9915131608	 0.120862
H	 0.560913704	-1.8070478013	 1.6191954219	 0.255844
H	 0.3545527446	-3.2078863528	 3.3940941414	 0.071413
