21
gdb 108496	2.55575	1.47078	1.17768	1.5662	82.9	-0.2361	0.0173	0.2535	1138.5503	0.183819	-387.088167	-387.079717	-387.078773	-387.121272	32.993	
O	 0.1030434894	 1.4241014125	 0.2762761388	-0.422851
C	 0.0292407811	 0.0222230145	 0.0497333597	-0.147364
C	-1.4039416075	-0.4993795996	-0.0064522025	 0.309989
C	-2.2057578801	-0.4494954604	 1.3314326996	-0.2631
C	-2.6374619451	-1.9247948089	 1.1048130318	-0.226071
C	-1.6254135039	-2.053811227	-0.0727287227	-0.056643
C	-2.2114611364	-2.3832623202	-1.4596337037	-0.283559
C	-2.6041096094	-1.0208357781	-1.9874290317	-0.061287
C	-2.1767805947	-0.0228994749	-1.2127617793	-0.156181
H	-0.22653982	 1.865813289	-0.5122931824	 0.283661
H	 0.5675103594	-0.2642133084	-0.8682027897	 0.084025
H	 0.5541047481	-0.4380431417	 0.8945828065	 0.102154
H	-1.5497585405	-0.3187372106	 2.1968406234	 0.100485
H	-3.0060556633	 0.2916709445	 1.3943347772	 0.096142
H	-2.4837921759	-2.6053075238	 1.9455346967	 0.097252
H	-3.6745897184	-2.0226868267	 0.7722292555	 0.100365
H	-0.7479396844	-2.6541714279	 0.1791847032	 0.061524
H	-1.4853197527	-2.8722248337	-2.1237552207	 0.102706
H	-3.0682923178	-3.0665237976	-1.3898124412	 0.103274
H	-3.1692253919	-0.8938131766	-2.9053608112	 0.091323
H	-2.3641810761	 1.0296670258	-1.4062435674	 0.084157
