15
gdb 128152	2.40025	1.49719	0.93003	3.4247	80.96	-0.2012	-0.0261	0.175	1199.4831	0.112953	-412.951768	-412.943142	-412.942198	-412.985308	31.199	
C	-0.0914058803	 1.4723400696	 0.0891897849	-0.324686
N	-0.0309351074	 0.0455613799	-0.1903189793	-0.410337
C	-1.1643722515	-0.7146378936	-0.0724129781	 0.250797
C	-1.2781130742	-2.1044439044	-0.0055221965	 0.182892
N	-2.6375306082	-2.288406163	 0.0428312412	-0.281992
N	-3.2990897631	-1.1381297379	 0.0149849271	-0.109156
N	-2.4126796201	-0.1735937221	-0.051321128	-0.257123
C	-0.3212123142	-3.1256681354	 0.0153077392	 0.267056
C	 0.5218364863	-3.9884350317	 0.0389405866	-0.450199
H	 0.8769550283	 1.9159692545	-0.1524885215	 0.12215
H	-0.854763014	 1.9331603453	-0.5406068666	 0.159578
H	-0.3377826809	 1.6993194382	 1.1362809621	 0.121485
H	 0.8121836747	-0.4226062056	 0.1045054513	 0.24703
H	-3.1419178084	-3.1591301912	 0.0987934722	 0.284495
H	 1.2616898031	-4.7499851324	 0.0495397353	 0.198008
