20
gdb 41438	2.73526	2.14782	1.66747	1.6877	82.55	-0.2116	0.0697	0.2814	901.0297	0.17353	-365.884026	-365.877433	-365.876489	-365.914368	28.853	
C	-0.0039305456	 1.5721254524	 0.2104612505	-0.324313
C	 1.527124313	 1.5892592822	-0.2412391171	-0.337269
C	 1.1968613001	 0.2300592434	-0.9017682826	 0.290338
C	 0.2998199196	 0.122280152	-2.1552923871	-0.267098
C	-0.1324610379	-0.9743559304	-1.1906487363	-0.083815
N	 1.3814308984	-1.3152563055	-0.9698769415	-0.1964
C	 1.4687969249	-1.7781485946	 0.4333852179	-0.164242
C	 0.5128366735	-0.8328337624	 1.2131827376	-0.291539
C	 0.0228955398	 0.0082214185	 0.0390160934	 0.25559
H	-0.2161487981	 1.929982068	 1.219989075	 0.107544
H	-0.6452202051	 2.1084748167	-0.4896677468	 0.117874
H	 1.8664529082	 2.4015011437	-0.8892875655	 0.107334
H	 2.1968525967	 1.5123795308	 0.6186209691	 0.118105
H	-0.404789209	 0.9329578378	-2.3400214173	 0.096098
H	 0.7974965832	-0.2112689652	-3.0663922167	 0.104853
H	-0.8310348899	-1.8038419996	-1.3482970067	 0.069996
H	 1.168462897	-2.8294433407	 0.4743142544	 0.102997
H	 2.5058663659	-1.7128665987	 0.775262891	 0.103174
H	-0.3009232665	-1.3643407596	 1.7172039459	 0.097604
H	 1.0326255417	-0.2390247087	 1.9725898628	 0.093168
