16
gdb 14506	4.00717	1.8421	1.47115	2.9103	65.19	-0.2349	-0.0279	0.207	858.6237	0.128987	-383.673563	-383.666217	-383.665273	-383.705173	27.649	
C	-0.1397776896	 1.6235841675	 0.0686034978	-0.487016
C	-0.0169864478	 0.1076806664	 0.0908151735	 0.224892
C	-1.3782267179	-0.550412977	-0.0338436449	 0.104241
O	-2.4046391853	 0.0784340059	-0.13560583	-0.26145
C	 1.1238382075	-0.6480184597	-0.6922833315	 0.009356
C	 2.1879100916	-0.1283283431	 0.3015879399	-0.232354
C	 0.9552686876	-0.6355791159	 1.0847921968	 0.009294
O	 0.9307006035	-1.8179920059	 0.1938323105	-0.305503
H	 0.8182325481	 2.1363037397	 0.1565265746	 0.114867
H	-0.6202643542	 1.944522552	-0.8596761922	 0.138774
H	-0.7867966437	 1.9566566588	 0.8846876079	 0.138794
H	-1.3728619612	-1.6544752654	-0.0256425807	 0.10829
H	 1.2003763526	-0.8364741283	-1.7638128463	 0.105633
H	 3.0629702144	-0.7726568652	 0.3890777438	 0.117089
H	 2.4404387988	 0.9308694437	 0.3182334586	 0.109415
H	 0.8286711755	-0.8096640232	 2.153990252	 0.105678
