21
gdb 35773	3.54261	1.12746	0.9522	0.8107	87.84	-0.2519	0.0603	0.3122	1282.2575	0.184259	-349.927632	-349.919303	-349.918359	-349.960349	33.427	
C	 0.0640427221	-1.2358687824	 0.0177208348	-0.438663
C	 0.0125393976	-0.0343279389	 0.0129330139	 0.295328
C	-0.0311009602	 1.4238803613	 0.03141562	-0.15715
C	-0.7928062699	 1.9638135996	 1.2620133733	-0.206315
C	-1.0184563945	 3.4768474381	 1.1319986389	-0.235191
C	 0.2422894203	 4.2513239804	 0.7888756518	 0.001992
C	 1.5085589393	 4.0928496523	 1.5873447538	-0.286702
C	 1.4339001453	 3.5338542121	 0.183729768	-0.042056
C	 1.3979717864	 2.0214846988	-0.0320501791	-0.219482
H	 0.1019004733	-2.2968476818	 0.0117275842	 0.188864
H	-0.5778130836	 1.7609590697	-0.8616161616	 0.099642
H	-1.7552283138	 1.4524124664	 1.3561790251	 0.10688
H	-0.223733561	 1.7233882977	 2.1682997819	 0.106047
H	-1.7570698771	 3.6462495947	 0.3368461036	 0.097404
H	-1.4647096177	 3.8688246133	 2.0544236722	 0.096385
H	 0.0530735153	 5.2527116047	 0.4120390712	 0.079656
H	 2.1180814472	 4.9720789068	 1.7660001798	 0.105877
H	 1.5157038744	 3.3782232855	 2.4052461873	 0.108329
H	 1.9863112611	 4.0842866799	-0.5712231125	 0.081358
H	 2.014951243	 1.5129842464	 0.717756446	 0.109954
H	 1.8362444126	 1.7750334354	-1.0036126824	 0.107843
