16
gdb 25593	6.40014	0.77084	0.69096	2.0767	73.61	-0.2264	0.0208	0.2472	1544.8654	0.12571	-434.095943	-434.087435	-434.086491	-434.131916	29.286	
N	-0.0349958468	 1.2860276475	 0.0083279119	-0.443068
C	-0.0242386133	 0.0236251377	 0.0027531885	 0.140588
O	-1.1831825594	-0.6587326462	 0.0085566968	-0.185494
C	-1.0770695081	-2.0833962543	 0.0005481751	-0.186374
C	-2.4587982745	-2.6468307899	 0.0101821365	 0.258165
C	-3.651799621	-1.9749507129	 0.0214310678	-0.162859
N	-4.614431187	-2.9615389973	 0.0265282691	-0.235327
C	-3.9687294867	-4.1603926633	 0.0179760009	 0.012027
N	-2.6645677531	-4.0077571674	 0.0081419418	-0.315538
H	 0.9195834969	 1.6394538713	 0.0026614553	 0.228425
H	 0.8661908834	-0.6208746725	-0.0068826318	 0.086567
H	-0.530905398	-2.4195613217	-0.8920664496	 0.124559
H	-0.5150828474	-2.4286110157	 0.8797645845	 0.124585
H	-3.8903455533	-0.926147006	 0.0263163291	 0.152437
H	-5.6099887059	-2.8173399313	 0.0350938782	 0.269484
H	-4.4970338959	-5.102003738	 0.0196242459	 0.131823
