25
gdb 59656	2.43694	1.11326	1.09908	1.7101	88.18	-0.2372	0.0769	0.3141	1356.0104	0.226627	-389.48734	-389.476588	-389.475644	-389.522822	40.561	
C	 0.7767429691	-0.9658577719	-2.011491207	-0.401936
C	 0.19257507	-0.246138513	-0.7830753667	 0.023457
C	 0.3809032182	 1.2720956234	-0.9375018237	-0.396538
C	-1.2838137484	-0.5767828233	-0.4753796468	-0.083657
C	-2.2071264546	-1.034146274	-1.6280372308	-0.088996
O	-2.321259068	-2.3616159582	-1.0826598409	-0.325398
C	-1.6633259142	-1.9594472911	 0.1560769475	 0.411111
C	-0.5711123902	-2.9447593079	 0.5461125889	-0.44433
C	-2.6974095415	-1.8310190722	 1.2755403346	-0.418769
H	 1.8671987775	-0.8702589105	-2.0234674931	 0.110399
H	 0.5304653297	-2.0301205927	-2.0372756932	 0.129728
H	 0.4044716434	-0.5217890736	-2.9411465473	 0.114703
H	 0.773693728	-0.5585806649	 0.095464637	 0.077387
H	-0.2211639853	 1.6591661815	-1.7684916852	 0.114188
H	 0.0811274483	 1.8081827905	-0.0310634165	 0.110507
H	 1.426949997	 1.5206020033	-1.1456042075	 0.110003
H	-1.7012591307	 0.2499738973	 0.1070312489	 0.065092
H	-3.1773489151	-0.5205772186	-1.6667172104	 0.090046
H	-1.7813145311	-1.0466713502	-2.6361779602	 0.100163
H	 0.1808597873	-3.0641628152	-0.2345863843	 0.12262
H	-0.069592706	-2.6275412733	 1.4666067242	 0.114213
H	-1.0213152913	-3.9257650918	 0.731357403	 0.122689
H	-3.1340049372	-2.8085638841	 1.503862031	 0.119075
H	-2.2374307455	-1.437603983	 2.1890399792	 0.109771
H	-3.5078834995	-1.1568470364	 0.9830361593	 0.114472
