17
gdb 25806	3.94975	1.06592	0.8527	4.7583	81.14	-0.2109	-0.0149	0.196	1322.5255	0.137434	-418.090558	-418.081889	-418.080945	-418.124172	32.209	
C	 0.094706107	 1.4774502479	 0.099223151	-0.505202
C	 0.0043213281	-0.0067607715	-0.0352411687	 0.310223
C	-0.160199436	-0.805072236	-1.1536601691	-0.224591
C	-0.138584421	-2.1552568361	-0.7331552194	-0.190075
C	 0.0258367775	-2.1630177188	 0.6378311455	 0.22481
N	 0.0932285663	-0.8413812582	 1.0472623192	-0.377008
C	 0.0944818828	-3.3061741135	 1.5525051892	 0.288735
N	-0.0725193509	-2.9916861695	 2.9020297257	-0.560625
O	 0.3197542873	-4.442666276	 1.1803054952	-0.352539
H	 1.0584350981	 1.7953020172	 0.5162615984	 0.132711
H	-0.0106658944	 1.9466121771	-0.8812090025	 0.143192
H	-0.691737711	 1.8811826904	 0.7484385769	 0.131301
H	-0.2841659308	-0.4417673571	-2.1627278912	 0.097978
H	-0.2499604814	-3.0398681783	-1.3398412622	 0.12083
H	 0.3691446297	-0.5531681895	 1.9712692195	 0.258703
H	-0.7471026037	-2.2732700885	 3.1233466004	 0.245823
H	-0.1525513875	-3.8148155294	 3.4835819122	 0.255735
