22
gdb 5983	3.89894	0.98321	0.96226	0.0065	74.37	-0.2604	0.0689	0.3294	1317.9866	0.197173	-387.334938	-387.324212	-387.323268	-387.370367	38.446	
C	-0.0616317443	 1.5831594895	 0.1042350875	-0.410897
C	 0.0303680119	 0.0455021207	 0.0655685601	 0.246383
C	 0.7082747393	-0.4754349959	 1.3475276217	-0.410893
C	-1.3944586245	-0.5346899432	-0.012752368	-0.082733
O	-2.1364663376	-0.1238563248	 1.1274303033	-0.42786
C	 0.7696399961	-0.4430465358	-1.2011453246	-0.185807
C	 2.2190948541	 0.0050756775	-1.3572612048	-0.09649
O	 2.6954874572	-0.553292973	-2.5762658004	-0.42054
H	 0.9197119828	 2.0440918363	 0.2512361838	 0.106056
H	-0.4799929658	 1.9752371173	-0.8301119715	 0.103682
H	-0.7107340178	 1.9023818409	 0.9229117741	 0.131855
H	 0.0928579251	-0.2458285954	 2.2204607952	 0.131869
H	 0.8429507213	-1.5626076393	 1.3066418465	 0.103694
H	 1.6922553054	-0.0214769032	 1.4985390616	 0.106056
H	-1.87655376	-0.1845496178	-0.9397275251	 0.081443
H	-1.334518974	-1.6337850864	-0.0647653066	 0.081443
H	-3.0206288637	-0.494108061	 1.0603568412	 0.287576
H	 0.7610200088	-1.5403189582	-1.2277306002	 0.09833
H	 0.2249147087	-0.1077489412	-2.0931306319	 0.098312
H	 2.2822382582	 1.1033606954	-1.3792910086	 0.087313
H	 2.8232595849	-0.3421988025	-0.505734608	 0.087315
H	 3.610040124	-0.2800264098	-2.6920005052	 0.283894
