11
gdb 3690	6.30421	2.81737	1.97085	3.0693	53.18	-0.2533	-0.092	0.1613	607.568	0.078692	-335.598739	-335.592751	-335.591807	-335.629295	20.236	
C	-0.0066299325	 1.4880865445	 0.0175896163	-0.464223
C	-0.01169393	-0.0071856422	-0.0169463319	 0.408049
N	 0.1449158427	-0.6229290639	-1.1923971501	-0.251333
C	 0.1237639239	-1.9441785239	-1.1022747893	 0.113209
N	-0.0347623584	-2.6503703839	 0.0227096245	-0.17063
N	-0.1840696904	-1.9752322966	 1.148235088	-0.048357
N	-0.1754975944	-0.6556576602	 1.1501443276	-0.206835
H	 0.9379185619	 1.8658254752	-0.3860761478	 0.157478
H	-0.8051108213	 1.8770236904	-0.6219530808	 0.157501
H	-0.1425684343	 1.8452258021	 1.0379791073	 0.155858
H	 0.2447315428	-2.5217862315	-2.0153676038	 0.149283
