23
gdb 112729	2.39739	1.12957	0.95989	1.1992	81.89	-0.2488	0.0742	0.323	1375.8662	0.203116	-425.423318	-425.41268	-425.411736	-425.458368	40.113	
C	-0.0300795253	 1.5844272668	-0.0817338413	-0.381227
C	 0.0289735902	 0.0606304543	 0.0730707872	-0.204849
C	-1.3466523735	-0.5908050492	 0.0181348199	 0.029928
C	-2.1362588809	-0.6313991161	-1.3227648903	-0.305414
C	-2.6778748393	-2.0208401059	-0.8962286925	 0.08675
O	-2.7589819886	-3.0648674333	-1.8403555585	-0.439893
C	-1.502583659	-2.1378630516	 0.1156324744	 0.341827
C	-0.3290459647	-2.9539922009	-0.4167738959	-0.443508
O	-1.8436380193	-2.5390196665	 1.4310294581	-0.482567
H	 0.9694485786	 2.0279480001	-0.0358058066	 0.110096
H	-0.4767098068	 1.8691228291	-1.0405948028	 0.116634
H	-0.633790315	 2.0388320445	 0.7117331314	 0.114555
H	 0.6704491342	-0.3591814126	-0.7115945855	 0.091459
H	 0.5057218651	-0.1909083957	 1.0293467611	 0.102734
H	-1.9831280484	-0.162569646	 0.8010159565	 0.080713
H	-2.8609705649	 0.1617260134	-1.518753172	 0.093479
H	-1.4676239382	-0.7270206243	-2.184450235	 0.101333
H	-3.6129928365	-1.9157820387	-0.3287540761	 0.070922
H	-3.4992053135	-2.8860819437	-2.4284744574	 0.28374
H	-0.0274904223	-2.6393146282	-1.4187605757	 0.124135
H	 0.5282242567	-2.8623170151	 0.2559254307	 0.118137
H	-0.6104293616	-4.0102770992	-0.4888623593	 0.116475
H	-1.8779258069	-3.5017593711	 1.4510746796	 0.274541
