18
gdb 82006	2.58008	1.42802	1.2952	1.7236	77.97	-0.2346	0.0235	0.258	1078.0719	0.145276	-401.862408	-401.853398	-401.852453	-401.895555	34.521	
C	-0.2229814072	 1.5301609676	 0.0454174753	-0.410969
C	 0.045426258	 0.0419996105	-0.057423058	-0.000997
N	 0.7198645595	-0.4675439521	-1.3066695129	-0.140594
C	 2.0955239895	 0.0618901702	-1.3114184982	-0.257902
C	 1.7986408514	-1.0855448849	-0.4358145497	-0.047101
C	 1.1553185227	-0.6084470192	 0.8670562293	 0.186292
O	 2.0012614307	 0.2741393922	 1.5870026333	-0.466587
C	 0.6440087693	-1.6685262008	 1.7245801422	 0.254685
C	 0.2089862959	-2.5122932403	 2.4628950305	-0.438913
H	 0.6954236669	 2.1188689693	 0.0923262043	 0.130676
H	-0.809477094	 1.8611135632	-0.8177398277	 0.130082
H	-0.8014847131	 1.7471699661	 0.9496913069	 0.11833
H	-0.8876292584	-0.5169309655	 0.0426643612	 0.097008
H	 2.6163415365	-0.1531658771	-2.2392925545	 0.12269
H	 2.3192673718	 1.0302145858	-0.877532306	 0.132844
H	 2.1744868892	-2.0884372397	-0.6023357994	 0.103852
H	 1.63246021	 0.3846271306	 2.4702079704	 0.285422
H	-0.1703660087	-3.2668549559	 3.107231683	 0.201181
