21
gdb 61588	3.17315	0.99966	0.85279	2.325	79.35	-0.2402	0.0826	0.3229	1423.1974	0.180415	-424.175516	-424.165993	-424.165049	-424.21086	35.032	
C	 0.4851085681	 1.3452824006	-0.3134890029	-0.403976
C	 0.0522334333	-0.1036945121	-0.0676241231	 0.097773
O	 0.4300814138	-0.9761619654	-1.1232595328	-0.260602
C	-0.3206397722	-0.8570236377	-2.2914794594	 0.152026
C	 0.1884710633	-0.0208598322	-3.4401678238	-0.283337
C	 0.2354430556	-1.5350619162	-3.5007202569	-0.298814
C	 0.6625080202	-0.6298408388	 1.2179549582	 0.079456
C	 1.2163540049	-1.979592722	 1.3544287536	-0.174056
O	 2.0728352366	-0.8377096784	 1.2283825842	-0.238769
H	 1.5724785184	 1.3901481292	-0.4178858077	 0.139904
H	 0.0226411134	 1.7470109083	-1.2173951289	 0.124575
H	 0.1902453603	 1.9776462179	 0.5304519256	 0.113064
H	-1.044544236	-0.1386387851	 0.0555407273	 0.066916
H	-1.399131921	-0.8960148853	-2.1303016444	 0.082232
H	-0.5282379833	 0.5081288519	-4.0594355813	 0.110727
H	 1.1317185395	 0.4913811772	-3.2915872006	 0.12419
H	 1.2069668462	-2.0013458492	-3.3831756314	 0.12857
H	-0.4456495402	-2.0588516324	-4.1616499615	 0.114122
H	 0.277613712	-0.1337256846	 2.1115956839	 0.088893
H	 1.2234158237	-2.4610015588	 2.3316536286	 0.107051
H	 1.2024399434	-2.640038447	 0.4926307032	 0.130051
