21
gdb 39960	4.57759	0.97277	0.94414	1.8675	82.79	-0.2421	0.0725	0.3146	1327.1249	0.182529	-387.040169	-387.031746	-387.030802	-387.07416	32.374	
C	 0.6557937345	 1.4868344294	-0.0358027455	-0.331512
C	 1.4098295005	 0.1748217681	-0.071465502	-0.316931
C	-0.0897553804	 0.1892394621	-0.0003564965	 0.391597
C	-0.9382561385	-0.3999971149	 1.1346028741	-0.378095
C	-1.6973120741	-1.2450105577	 0.0759756252	 0.317654
C	-1.5683384427	-2.7828784314	 0.069971096	-0.122157
O	-2.9981826693	-2.9525442927	 0.1377970157	-0.275247
C	-3.2077202643	-1.525818587	 0.1476207012	-0.139739
C	-1.0418424524	-0.4001526894	-1.049848336	-0.378096
H	 0.7007261288	 2.0769559267	 0.8744077267	 0.11104
H	 0.6143901962	 2.0768262234	-0.9462646268	 0.11104
H	 1.8762543652	-0.1204026747	-1.006366116	 0.111186
H	 1.962630118	-0.1202728885	 0.8151456894	 0.111186
H	-0.4113032693	-0.9604954619	 1.9133702703	 0.100855
H	-1.5863336683	 0.3407435684	 1.6168928698	 0.099507
H	-1.1455878816	-3.2194656899	-0.8450889564	 0.096883
H	-1.060879558	-3.2193364969	 0.9409768354	 0.096883
H	-3.7075663542	-1.1890214998	 1.0662378831	 0.096793
H	-3.7922500196	-1.1891621266	-0.719629855	 0.096792
H	-1.7326545943	 0.34052378	-1.4687538957	 0.099507
H	-0.5909427163	-0.9607651967	-1.8749055671	 0.100855
