21
gdb 80868	2.13517	1.72696	1.45709	1.5282	77.42	-0.241	0.0825	0.3235	1052.1089	0.182651	-424.217169	-424.208576	-424.207632	-424.249586	34.413	
C	-0.0664675907	 1.4854247577	-0.0670007613	-0.420014
C	 0.0673683307	-0.0217446934	 0.0693955591	 0.109409
O	 0.9157340634	-0.5712723096	-0.9863032577	-0.318007
C	 1.9184939349	-1.2835544046	-0.2305749298	 0.040665
C	 2.28053588	-0.3265172106	 0.9197694813	-0.291797
C	 0.7892627543	-0.5825369285	 1.3110234488	 0.238077
C	 0.2095260082	-0.2956478283	 2.6744504837	-0.512823
C	 1.0513074331	-2.0547499296	 0.7865376114	 0.138962
O	 0.0027056297	-2.8433925641	 0.3107770731	-0.453108
H	 0.8857472862	 2.001063092	 0.0820190884	 0.119679
H	-0.4323593617	 1.7354073142	-1.0672125621	 0.12849
H	-0.7882956919	 1.8700846374	 0.6612674351	 0.117483
H	-0.9291086782	-0.4764925159	-0.015958857	 0.070017
H	 2.6333208033	-1.7411204567	-0.9128459293	 0.079799
H	 2.9814940658	-0.7610455077	 1.6357207646	 0.102774
H	 2.587742728	 0.6840347112	 0.6489638162	 0.105738
H	 0.1700786126	 0.7793468027	 2.8824541602	 0.119774
H	-0.810473269	-0.6893802062	 2.751684535	 0.127544
H	 0.8076377813	-0.764373442	 3.4625308786	 0.118198
H	 1.624424521	-2.6397590426	 1.5095464764	 0.084925
H	-0.2211267509	-2.497889715	-0.5633784948	 0.294213
