21
gdb 111242	3.30623	1.23809	1.13745	0.499	78.25	-0.2247	0.0904	0.3151	1182.9793	0.184007	-424.19867	-424.190422	-424.189478	-424.231403	32.015	
C	-0.0397270718	 1.3104523147	 0.2153434345	-0.244092
O	-0.0833046714	-0.0142835837	-0.2705553052	-0.258204
C	-1.3470259432	-0.6174213192	-0.1348409641	 0.151671
C	-1.2911806616	-2.0877096798	-0.6203182536	-0.055338
C	-0.8220451694	-2.4662971008	 0.8182433369	-0.267646
C	-1.6400209076	-1.2269857708	 1.2748033102	 0.085504
O	-3.0341987261	-1.4847871137	 1.3790598397	-0.275107
C	-3.4877950654	-2.5289902299	 0.5177962999	-0.063741
C	-2.7370773257	-2.5686163189	-0.8315584702	-0.240655
H	 0.9717265586	 1.6852226037	 0.0411130139	 0.126728
H	-0.7557945626	 1.9568166016	-0.3151898337	 0.107665
H	-0.2580351913	 1.3690659813	 1.2914246864	 0.110017
H	-2.1422038981	 0.0246293497	-0.5436490901	 0.056052
H	-0.6387407594	-2.3012044063	-1.4694275549	 0.070928
H	-1.0800637695	-3.445787688	 1.2261682635	 0.095649
H	 0.2445081127	-2.2810281361	 0.9467640344	 0.117352
H	-1.3459084876	-0.6802442705	 2.1732184162	 0.074301
H	-3.3710735432	-3.4957698012	 1.027381464	 0.097318
H	-4.5600493018	-2.3653914256	 0.3790079201	 0.107438
H	-3.2296687489	-1.9317581923	-1.5755937396	 0.10415
H	-2.7562735765	-3.5938336842	-1.2184201984	 0.10001
