25
gdb 112569	3.47893	0.90289	0.8735	0.141	95.19	-0.235	0.027	0.262	1538.1851	0.228233	-352.384482	-352.374305	-352.373361	-352.419318	39.231	
C	-0.0581840555	 1.5812465365	 0.1693824916	-0.387126
C	-0.021749031	 0.0564033851	 0.0309851269	-0.177111
C	 0.6560892172	-0.4425802132	-1.2565110849	-0.010747
C	 0.801917617	-1.9869670689	-1.3149009107	-0.275591
C	 0.5887661453	-2.4102093473	-2.799709844	 0.270365
C	 1.9347181096	-2.5922895472	-3.5331953277	-0.416682
C	-0.2399018543	-3.6988040178	-2.9231356927	-0.427822
C	-0.1422340772	-1.198972046	-3.3520412085	-0.095273
C	-0.0959063442	-0.147452008	-2.5381298282	-0.085629
H	 0.9528137427	 2.0038748047	 0.1518538334	 0.113031
H	-0.625216366	 2.0488604663	-0.6422378267	 0.1168
H	-0.526775361	 1.8812804505	 1.1119542937	 0.111252
H	 0.510600478	-0.3701939574	 0.8912307115	 0.092885
H	-1.042559512	-0.3458934388	 0.0720945949	 0.093308
H	 1.6485805907	 0.0337632645	-1.3071202522	 0.071221
H	 1.7601640594	-2.3347695373	-0.9167476971	 0.088956
H	 0.0156690041	-2.4367497229	-0.6968893064	 0.091099
H	 2.4798523098	-3.4575280553	-3.1384703722	 0.107689
H	 1.7810158745	-2.756109795	-4.6056865855	 0.107657
H	 2.5697432202	-1.7080381746	-3.4194846701	 0.113221
H	-1.2185967833	-3.5856165238	-2.4458331209	 0.111046
H	-0.4062538029	-3.9641785788	-3.97353605	 0.106909
H	 0.2735578531	-4.5419904549	-2.4468689557	 0.109362
H	-0.602156466	-1.2121621287	-4.3360485588	 0.083014
H	-0.512858138	 0.8291511583	-2.7609462998	 0.088164
