14
gdb 130014	5.24657	1.36013	1.08792	6.463	70.4	-0.2204	-0.0271	0.1934	1025.0197	0.105135	-429.083757	-429.076952	-429.076008	-429.11493	25.901	
N	 0.0299824527	 1.2597568493	-0.0872275878	-0.564109
C	-0.0187782785	-0.0902237958	-0.0320954535	 0.383424
N	-1.1189392881	-0.7791626181	-0.022491299	-0.377875
C	-0.7049346712	-2.1102236964	-0.022444977	 0.45584
N	-1.2728103511	-3.2975188305	-0.003093044	-0.377504
C	-0.173245212	-4.1198747562	 0.0006794338	 0.021638
N	 1.0182237123	-3.5299922218	-0.0143042509	-0.280559
N	 0.6419408721	-2.2264293124	-0.0329432572	 0.032974
C	 1.2720074863	-0.9350756803	-0.0381754463	-0.28233
H	 0.8766035249	 1.7441837799	 0.1560166778	 0.271123
H	-0.837275623	 1.7564828653	 0.0451021575	 0.280614
H	-0.2576096024	-5.1964637497	 0.0146520412	 0.122257
H	 1.8753034742	-0.7534094392	-0.9338728112	 0.160667
H	 1.8906346139	-0.756785324	 0.8485103966	 0.153841
