18
gdb 9826	3.51386	1.50026	1.1814	1.6392	68.27	-0.245	-0.0213	0.2237	1065.1469	0.150606	-384.947563	-384.93844	-384.937496	-384.981717	32.369	
C	 0.3321949759	 1.5623918448	 0.0789204836	-0.380823
C	 0.6590925123	 0.0729667677	 0.0111975015	-0.283585
C	 0.2638709865	-0.5608768097	-1.3117279877	 0.315528
O	-0.3589567942	 0.0350698388	-2.1628765529	-0.312095
C	 0.6461378135	-2.0110243216	-1.5412027185	 0.315771
C	-0.2630134945	-2.7918264284	-2.4594415099	-0.461575
C	 2.0741516189	-2.3792054511	-1.4133639619	-0.217579
O	 1.1474703806	-2.7037729131	-0.3863051435	-0.259394
H	 0.8797355603	 2.120664132	-0.6854751432	 0.126485
H	-0.7324278116	 1.7358074643	-0.0953011216	 0.133951
H	 0.5961243325	 1.969606027	 1.0587667752	 0.110492
H	 1.7226263878	-0.1155292721	 0.2011478035	 0.124018
H	 0.1420646384	-0.4898782648	 0.7999205443	 0.140135
H	-0.3454451635	-2.2829477799	-3.4221637712	 0.148201
H	 0.1228390357	-3.8025563014	-2.6098848791	 0.122787
H	-1.2686193975	-2.8627657726	-2.0337243897	 0.133366
H	 2.4429983588	-3.2183600193	-2.0018193398	 0.125141
H	 2.8200815203	-1.6276828006	-1.1589688791	 0.119177
