19
gdb 119744	3.57989	0.99366	0.88991	0.9191	71.24	-0.2462	0.0529	0.2991	1335.5372	0.158318	-460.108624	-460.099786	-460.098842	-460.142833	32.226	
O	-0.0230861653	 1.4432989532	-0.0333267256	-0.419874
C	 0.0160640661	 0.0282959002	 0.0649858336	-0.076737
C	-1.4181710525	-0.4789336701	-0.06622788	-0.283317
C	-1.4984982777	-1.980032545	 0.0209459465	 0.39811
C	-1.0352204519	-2.8833189166	-1.1424554183	-0.12191
O	-2.220408202	-3.7110472288	-1.0167445865	-0.292865
C	-2.7496470483	-2.890249435	 0.0369658087	-0.001983
C	-2.2705968672	-3.3149959879	 1.4307856043	-0.100024
O	-1.0720360768	-2.5063526863	 1.3032110644	-0.335482
H	 0.8639797363	 1.7797301159	 0.1232314331	 0.287099
H	 0.6430528322	-0.4084801218	-0.7303037349	 0.086628
H	 0.4288466247	-0.3015981678	 1.0288407322	 0.112852
H	-2.021771786	-0.0302447852	 0.7300437157	 0.114091
H	-1.8328053771	-0.1422394426	-1.0233852348	 0.112666
H	-0.9950770038	-2.3987348693	-2.1265422854	 0.101877
H	-0.1090431976	-3.4376555705	-0.9578596958	 0.111905
H	-3.7899676386	-2.6003640073	-0.1224256428	 0.088784
H	-2.8945651758	-2.9688342654	 2.2646547504	 0.104442
H	-2.0541996588	-4.3827139998	 1.5405567451	 0.113739
