16
gdb 31460	6.14374	0.89424	0.79178	4.5309	83.58	-0.1886	0.0142	0.2029	1407.0283	0.124718	-396.932875	-396.924076	-396.923132	-396.966515	32.382	
C	 0.0627804477	 1.2881452484	 0.3312344115	-0.342796
N	-0.0377158241	-0.0357975473	-0.2602142814	-0.387652
C	-1.1970689679	-0.7693558581	-0.1129509032	 0.437743
N	-1.2610542241	-2.0787244409	-0.0952369692	-0.39793
C	-2.6189537501	-2.376278004	-0.0078222824	 0.158051
C	-3.3588635868	-1.222126854	 0.0366041628	-0.203684
N	-2.4357733162	-0.1922833944	-0.0255428639	-0.293586
C	-3.1077761539	-3.7036052119	 0.0349292439	 0.2257
C	-3.5300196606	-4.8307336246	 0.0725871035	-0.420243
H	 1.0805698862	 1.6575715762	 0.1920079692	 0.140805
H	-0.6014887217	 1.9913158736	-0.1854560931	 0.12515
H	-0.1749932714	 1.3143344287	 1.4056840064	 0.123045
H	 0.7681859813	-0.6276022574	-0.1180943561	 0.256924
H	-4.4166126507	-1.042516372	 0.1188568303	 0.132331
H	-2.6477158015	 0.7897769275	-0.0526526055	 0.26523
H	-3.8977702962	-5.82579583	 0.1037439271	 0.180911
