19
gdb 82078	2.50782	1.5102	1.15148	4.0401	74.95	-0.2395	-0.0134	0.2261	1124.151	0.156678	-423.004724	-422.995549	-422.994605	-423.039721	33.402	
C	-0.231463372	 1.5335232773	 0.0091986552	-0.414625
C	-0.0006007412	 0.0290067496	 0.0331189971	-0.033324
C	 0.6481889965	-0.5796680956	-1.2223798579	 0.023583
O	 1.9558451528	-0.013359417	-1.3340421914	-0.238629
C	 1.7777151594	-1.1316386286	-0.4606490359	 0.031378
C	 1.2169326543	-0.6016805284	 0.8605131175	-0.172973
C	 2.1580293413	 0.236875149	 1.7127473579	 0.383781
C	 1.5645986458	 0.9215344209	 2.9319912486	-0.48445
O	 3.3357172731	 0.3137259427	 1.4496955577	-0.291148
H	 0.6926002281	 2.0631302593	-0.2370652267	 0.144682
H	-0.978574825	 1.7863388399	-0.7514984616	 0.119217
H	-0.6064255283	 1.9050062764	 0.9676804134	 0.116552
H	-0.9232226298	-0.4995741647	 0.2914959569	 0.080732
H	 0.1702173989	-0.9200608348	-2.133879834	 0.104579
H	 2.3962035104	-2.0029664136	-0.6354501306	 0.110819
H	 0.8248955596	-1.4099520228	 1.4897373662	 0.098688
H	 2.3679366264	 1.3026765099	 3.5640092092	 0.143636
H	 0.9302088164	 1.757862035	 2.6197521805	 0.148373
H	 0.9301719134	 0.2346539057	 3.5023933178	 0.129129
