27
gdb 120841	3.17351	0.59903	0.53898	0.0967	97.85	-0.2599	0.091	0.3508	2231.4543	0.251004	-353.560315	-353.548911	-353.547967	-353.597941	41.447	
C	 0.1239733176	 1.5363264975	-0.287212438	-0.381314
C	 0.2885826701	 0.0186712287	-0.1744736597	-0.15517
C	 0.4102747706	-0.4677311667	 1.2765900667	-0.189984
C	 0.5633957354	-1.9718724687	 1.381044105	-0.011921
C	 1.9210196516	-2.6310550355	 1.2867391918	-0.292244
C	 1.1513304965	-2.6689324593	 2.5877775678	-0.011922
C	 1.6481668831	-1.9353798546	 3.8173520106	-0.189982
C	 2.6374553617	-2.7662751126	 4.6467516229	-0.155171
C	 3.1362649654	-2.0351553968	 5.8956459253	-0.381314
H	 0.9812739612	 2.0614727321	 0.1491224893	 0.11175
H	 0.0370172342	 1.8534559525	-1.3312534254	 0.109675
H	-0.7736309608	 1.8784257528	 0.2402407904	 0.112231
H	-0.5661102927	-0.4797874328	-0.6508771943	 0.092019
H	 1.1758856342	-0.3013019755	-0.735361876	 0.097846
H	 1.263753177	 0.0334866491	 1.7489647139	 0.091246
H	-0.4783888794	-0.1464636913	 1.8387137661	 0.090748
H	-0.2465449032	-2.5157551428	 0.8980951315	 0.075401
H	 2.0310741815	-3.5413885582	 0.7072716828	 0.104232
H	 2.7861676725	-1.9744742693	 1.2444994806	 0.102955
H	 0.6908260418	-3.6271094926	 2.8220513684	 0.0754
H	 2.1303830078	-0.9939534815	 3.5275816097	 0.091246
H	 0.7944956195	-1.6555414829	 4.4512721049	 0.090748
H	 2.1578788231	-3.7095104842	 4.940409255	 0.092019
H	 3.4898716845	-3.0449515159	 4.0142874287	 0.097847
H	 3.6520745746	-1.1051010748	 5.6309377009	 0.11175
H	 2.3053235122	-1.7720282611	 6.5598994024	 0.112232
H	 3.8367117799	-2.6516591355	 6.4678796185	 0.109675
