19
gdb 39949	3.03669	1.38772	1.05502	2.0424	85.	-0.2353	0.0007	0.236	1164.22	0.160727	-385.878288	-385.870481	-385.869537	-385.910787	30.838	
C	 0.6674850254	 1.423085319	-0.0136467757	-0.213126
O	 1.386863967	 0.2066546799	-0.0389466139	-0.280488
C	-0.0707731878	 0.1301396639	-0.0109722676	 0.332649
C	-0.591510666	-0.33019184	 1.3007580024	-0.103792
C	-1.8142177427	-0.7690436705	 1.5947374727	-0.083117
C	-2.974914591	-0.924931244	 0.6454481575	-0.269071
C	-2.6639854676	-1.7308102786	-0.6266810364	-0.258246
C	-1.6693133813	-1.1116517815	-1.5722022122	-0.081331
C	-0.6189179408	-0.3333603786	-1.3090963892	-0.079123
H	 0.7309492807	 1.9961095066	 0.9113398183	 0.113294
H	 0.6961643068	 2.014886135	-0.9289358447	 0.112125
H	 0.1475198893	-0.2505237887	 2.0941793729	 0.098527
H	-2.0085916663	-1.0263144729	 2.6333012087	 0.091789
H	-3.800252878	-1.4156993063	 1.1713472015	 0.100768
H	-3.3494401577	 0.0650069493	 0.3508297507	 0.115806
H	-2.3161425002	-2.7338462951	-0.3409739472	 0.120039
H	-3.6015187197	-1.8899923356	-1.1730442264	 0.101763
H	-1.8381031618	-1.3471311016	-2.6214226373	 0.090352
H	-0.0165845381	 0.0063611997	-2.1486609739	 0.091181
