19
gdb 15349	3.32792	1.28565	1.01427	1.1783	77.8	-0.2268	0.0509	0.2776	1196.534	0.163374	-327.861867	-327.852816	-327.851872	-327.895942	33.078	
C	 0.5627903518	 1.7132388889	 0.1054555676	-0.372474
C	-0.054583307	 0.3235796761	-0.0306443731	-0.120418
N	 0.541446117	-0.3800981099	-1.1630692431	-0.068351
C	 1.690199193	-1.2437967638	-0.9107486453	-0.268765
C	 0.3756504856	-1.8207666103	-1.3127614584	 0.026023
C	-0.42150127	-2.6816080031	-0.3363850091	-0.38548
C	-1.8616460581	-2.6181089866	-0.5685195624	 0.312275
C	-3.0433641377	-2.5576703502	-0.7794056073	-0.451954
H	 1.6370663569	 1.6453635068	 0.306883082	 0.116137
H	 0.4285855387	 2.2844409747	-0.8171877844	 0.127183
H	 0.0978544932	 2.2632427976	 0.9295500052	 0.110187
H	 0.0640599933	-0.2201370786	 0.9219907947	 0.078481
H	-1.1307955956	 0.403726558	-0.2199504303	 0.116895
H	 2.5146642779	-1.176828181	-1.6159478354	 0.114376
H	 1.9935411472	-1.3934364109	 0.1265622405	 0.10235
H	 0.2384385747	-2.1261616377	-2.3489425308	 0.099458
H	-0.0819882095	-3.720373135	-0.4433119553	 0.135619
H	-0.2003938148	-2.3995988661	 0.6984982384	 0.131475
H	-4.0887140966	-2.5071796889	-0.9580904735	 0.196984
