15
gdb 34171	3.88135	1.60186	1.40578	4.3424	72.46	-0.2467	0.0064	0.253	906.0016	0.114948	-379.587884	-379.581713	-379.580769	-379.618354	25.42	
N	-0.0319201439	-1.091752538	 0.0133751683	-0.338849
C	-0.0389893635	 0.0648184862	 0.0162917069	 0.134356
C	-0.0657086855	 1.5035776294	-0.0083673528	 0.255289
N	-0.9746760155	 2.2415076964	 0.9333065868	-0.35258
C	-0.8410445691	 3.354567222	-0.0640982401	-0.04768
C	 0.6588682544	 3.7256775499	-0.0676373211	-0.060507
C	 0.9535844979	 2.9881919546	-1.3563028542	-0.107932
C	 1.2554128619	 2.3206364159	-0.0362815196	-0.097545
C	-0.4807798479	 2.3927598685	-1.252994155	-0.115583
H	-1.9092023206	 1.8393225272	 0.8361712913	 0.22535
H	-1.6044795568	 4.1293781481	-0.0767822662	 0.086396
H	 1.1545669305	 4.5775467419	 0.3754200843	 0.105826
H	 1.5950191986	 3.2290222575	-2.1902889435	 0.105114
H	 2.1990315481	 2.0750192063	 0.4280258209	 0.113485
H	-1.1510787986	 2.0662319943	-2.043940476	 0.094861
