18
gdb 79640	2.22855	1.94948	1.58485	1.7664	70.12	-0.2207	0.0479	0.2687	939.3577	0.147959	-439.018474	-439.010589	-439.009645	-439.050598	30.707	
C	-0.3641470541	 1.4634577646	 0.3429512273	-0.331894
N	 0.0217641016	 0.1180395802	-0.0588700463	-0.078247
C	 0.4934978422	-0.3433021467	-1.342794025	-0.075231
C	 1.2584404672	 0.5565233903	-2.3080764469	 0.028713
O	 1.5142975405	 1.8972922721	-1.8559446811	-0.257684
C	 2.554104678	 0.9186110761	-1.719052868	-0.025217
C	 2.6399056268	 0.3440400927	-0.3015390154	 0.104902
O	 2.9165587195	 1.3227279688	 0.6829605046	-0.435531
C	 1.3384081325	-0.4694319968	-0.097467642	-0.086717
H	-1.4083761638	 1.6155894469	 0.0505770232	 0.123845
H	-0.3174685047	 1.510946992	 1.4354929411	 0.127002
H	 0.224785961	 2.2765820332	-0.0875905977	 0.127036
H	-0.0518911381	-1.1722235039	-1.7896144356	 0.090443
H	 1.0981517352	 0.4537503946	-3.3777695075	 0.102826
H	 3.4572157718	 1.1270183993	-2.2875227848	 0.10616
H	 3.4766378646	-0.3631757222	-0.2587578309	 0.092792
H	 2.314418708	 2.0583022708	 0.5244333869	 0.293596
H	 1.4424414417	-1.3994501219	 0.4587731381	 0.093207
