17
gdb 14832	2.74995	1.81981	1.16581	2.3169	67.44	-0.2566	0.0201	0.2767	1027.6703	0.142051	-400.98842	-400.980016	-400.979072	-401.02183	29.477	
C	-0.0010193199	 1.223545275	-0.1204421442	-0.343495
N	 0.2327058244	-0.2145358711	-0.0748106063	-0.34408
C	 0.6146431557	-0.7487287307	 0.9929944664	 0.481035
O	 0.8548885993	-0.2207466569	 2.2472398675	-0.26533
C	 1.056453768	-1.562941542	 2.8010076047	-0.111069
C	 0.851633583	-2.1835486781	 1.4007942544	-0.180081
C	-0.355930297	-3.0815816202	 1.1216796457	-0.068441
O	-0.5780918682	-3.1826545142	-0.2661483566	-0.420597
H	 0.6869584484	 1.6772184396	-0.8420901197	 0.132825
H	-1.0167895729	 1.4091737303	-0.4847130815	 0.130563
H	 0.1247650052	 1.7227662084	 0.8468499272	 0.130233
H	 2.0509804329	-1.6593054693	 3.2409897126	 0.126083
H	 0.2859568308	-1.7912243333	 3.5425057732	 0.124495
H	 1.7532642791	-2.6181270782	 0.9628814029	 0.115806
H	-0.1818061418	-4.0961336421	 1.4962118332	 0.109201
H	-1.2360073438	-2.6797036656	 1.6528095588	 0.086074
H	-0.5819693931	-2.2783595817	-0.6159131084	 0.296776
