18
gdb 41987	2.52772	2.16362	1.67486	1.4846	69.51	-0.2236	0.0825	0.3061	874.8837	0.151505	-439.056073	-439.04954	-439.048595	-439.086825	26.74	
C	-0.0661769991	 1.4879113848	-0.2003868219	-0.113177
O	 1.1189181435	 2.0348332511	 0.3787742867	-0.265302
C	 1.8972464649	 1.0321065752	 1.0159602862	 0.177506
O	 1.8442593703	 1.1786314951	 2.4184444093	-0.244347
C	 0.5009854431	 1.1838374683	 2.8887372147	-0.102075
C	-0.2365520422	-0.1139116824	 2.509947672	-0.160961
N	 0.0988816945	-0.7022287253	 1.2087900085	-0.105159
C	 0.0299402465	-0.0221084063	-0.0814111019	-0.055249
C	 1.343221743	-0.3145686916	 0.5577219494	-0.084791
H	-0.9499386857	 1.9090521265	 0.2985902007	 0.105159
H	-0.1096401494	 1.7729916377	-1.2590135748	 0.11275
H	 2.9480769572	 1.1783807988	 0.7528179988	 0.09355
H	 0.5592226693	 1.2721601305	 3.9765651484	 0.108873
H	-0.0160317464	 2.0706487074	 2.5048242075	 0.111353
H	 0.0108977493	-0.887849916	 3.2451762073	 0.117883
H	-1.3198151324	 0.0410018976	 2.5585927935	 0.108762
H	-0.3842852128	-0.6226644071	-0.8862461612	 0.101086
H	 2.0287973767	-1.1019518142	 0.2582111069	 0.09414
