19
gdb 55277	2.46294	1.37348	1.11059	1.3045	71.67	-0.2397	-0.0205	0.2191	1166.8581	0.155397	-460.163784	-460.15387	-460.152926	-460.19899	35.802	
C	 0.6889710989	 0.2621651246	 0.7835355636	-0.477308
C	-0.3321670527	 0.6370784467	-0.2636917911	 0.341027
O	-1.1734794333	 1.4959410403	-0.1057124677	-0.315322
C	-0.2921658653	-0.110694615	-1.5829167372	-0.006581
O	 0.5517365807	-1.2764906518	-1.6142365994	-0.294212
C	-0.474724092	-2.0500454851	-2.2763743401	-0.095913
C	-1.5369367766	-0.9610619094	-2.0163166809	 0.329052
C	-2.5391328623	-1.2750455066	-0.9152945458	-0.462595
O	-2.1684110995	-0.5561316682	-3.2047356092	-0.463376
H	 0.6032525272	-0.8017120278	 1.0258069633	 0.150179
H	 1.7002825338	 0.397186965	 0.383410406	 0.150995
H	 0.5496446628	 0.8741016851	 1.6752447274	 0.136931
H	-0.0327499246	 0.6044745583	-2.3770722548	 0.106851
H	-0.2678024095	-2.1794834889	-3.3449188965	 0.114867
H	-0.6260207789	-3.0246308838	-1.8007962772	 0.107208
H	-2.0411587181	-1.6774409659	-0.0276019614	 0.124926
H	-3.0768945259	-0.3715614981	-0.6107146582	 0.139968
H	-3.2589900534	-2.0164348938	-1.2747094664	 0.126022
H	-2.8291147313	 0.1095266844	-2.9830786943	 0.287282
