18
gdb 74011	2.20192	1.7787	1.00873	4.0504	82.	-0.1971	0.0041	0.2012	1167.8608	0.148037	-401.972694	-401.964287	-401.963343	-402.007399	30.867	
C	-0.0078401176	 1.5181232743	 0.2080879038	-0.491724
C	-0.0056842735	 0.0386136159	 0.0164992381	 0.051465
C	-1.0073574783	-0.8068034136	-0.240499876	 0.352167
C	-2.4624191223	-1.1795730649	-0.506931042	-0.390284
C	-1.9476832926	-2.665221043	-0.6285785835	-0.172772
N	-0.599672362	-2.1381811286	-0.3538102534	-0.096814
C	 0.7536411179	-2.3108090282	-0.181870001	 0.380252
O	 1.4062741545	-3.3268093125	-0.2232392449	-0.37396
C	 1.2366508068	-0.8488328944	 0.0830563618	-0.439939
H	 0.6288452353	 2.0255378537	-0.5286616962	 0.124624
H	-1.0176958485	 1.9278417077	 0.1122618839	 0.120551
H	 0.3740831545	 1.8016824209	 1.1977222858	 0.124667
H	-3.1510987087	-1.0017147199	 0.3214050093	 0.133987
H	-2.891790815	-0.7682835404	-1.4226192519	 0.133995
H	-2.3169027144	-3.3557769663	 0.1339882814	 0.132395
H	-2.0519330344	-3.1199176941	-1.6170999636	 0.132484
H	 1.993684512	-0.5859157241	-0.6658025473	 0.139429
H	 1.7384637261	-0.8141975426	 1.0577729057	 0.139477
