19
gdb 110465	3.8932	1.41756	1.27326	1.0161	77.51	-0.218	0.0814	0.2994	1046.0508	0.160514	-385.829	-385.821778	-385.820834	-385.860804	29.002	
C	 0.0742347481	 1.258541887	-0.2097357038	-0.233169
O	-0.0336071877	-0.0845112693	 0.1970787518	-0.249909
C	-1.3512569995	-0.5959086956	 0.1399634919	 0.152841
C	-1.8506902374	-0.9317972254	-1.259101159	-0.117766
C	-1.3958447669	-2.3220615264	-1.6588694405	-0.072972
C	-2.821913836	-2.0916631453	-1.2054142569	-0.095098
C	-2.5060357366	-2.8003861458	 0.1420670181	-0.097025
C	-1.0809342227	-3.0281709075	-0.3160145464	-0.070644
C	-1.3840754898	-1.9837678282	 0.7414348581	-0.116736
H	 1.1118973263	 1.5630698842	-0.0509334257	 0.124347
H	-0.1709172181	 1.3972256358	-1.273702733	 0.102764
H	-0.5818462542	 1.9182035623	 0.3811036356	 0.100074
H	-2.0401444775	 0.0933676653	 0.6564408417	 0.05987
H	-1.9787553873	-0.1719803273	-2.0202374285	 0.083858
H	-1.0138917089	-2.5832998481	-2.6356294261	 0.085097
H	-3.7458495251	-2.1449561316	-1.7644431626	 0.084947
H	-3.1669805151	-3.4425970279	 0.7072750993	 0.085638
H	-0.4299550239	-3.8772569076	-0.1634857717	 0.085166
H	-1.0760835479	-2.1509042187	 1.7659013577	 0.088718
