15
gdb 124666	3.68821	1.05218	0.92814	2.6219	67.17	-0.2595	-0.0499	0.2096	1229.1543	0.110691	-453.931441	-453.923079	-453.922135	-453.965778	29.204	
C	-0.4669870563	 1.4752290557	-0.1121168867	-0.40671
C	 0.0880309287	 0.0521429878	-0.0477011895	-0.185305
C	-0.9794431622	-0.9600146372	 0.3887475035	 0.147975
O	-2.0878742403	-0.6569600532	 0.7400502976	-0.229872
C	 0.7103113212	-0.4138492819	-1.3295516776	 0.237959
C	 0.6211313657	 0.0427934403	-2.60771056	-0.043253
O	 1.3508371661	-0.7362063673	-3.4022276428	-0.159064
N	 1.9215293714	-1.7398824904	-2.5638164952	 0.000471
N	 1.5333747674	-1.5230628639	-1.3884895437	-0.175787
H	 0.3227100985	 2.1898572287	-0.3577033637	 0.123472
H	-1.2598164348	 1.5538110587	-0.8618179455	 0.132099
H	-0.9069621037	 1.7498362975	 0.847968172	 0.144182
H	 0.8692145561	-0.012491649	 0.72510769	 0.130333
H	-0.6418178951	-2.0180753076	 0.3590288819	 0.107628
H	 0.1099681073	 0.8720722118	-3.0670437703	 0.175872
