17
gdb 45491	2.90066	1.82985	1.65076	4.9905	70.03	-0.2457	0.025	0.2708	883.855	0.140319	-418.037421	-418.031016	-418.030072	-418.068111	26.369	
O	-0.0155567673	 0.0205280255	 0.3129779789	-0.362361
C	-0.0197135695	 1.1956296138	 0.0556285944	 0.393719
N	-1.1258839208	 1.9893856072	-0.1942329639	-0.306544
C	-0.8090378554	 3.4054849288	-0.0064210793	-0.043281
C	-0.8977126597	 3.8123510408	 1.4794640263	-0.204782
C	 0.3424517104	 3.1392976565	 2.1283285825	-0.248416
C	 1.358234946	 3.0331816978	 0.9895528448	-0.026574
C	 0.7069646976	 3.3946338349	-0.2944957188	-0.049412
N	 1.1589487383	 2.015644223	-0.0876827296	-0.157453
H	-2.0214123011	 1.6175553134	 0.0873327526	 0.249681
H	-1.3908568569	 4.0382410661	-0.6791532754	 0.089727
H	-0.8154254586	 4.9026394519	 1.5576739354	 0.108237
H	-1.8449531678	 3.517443342	 1.9426730894	 0.101173
H	 0.749507142	 3.7392457889	 2.946100378	 0.109888
H	 0.1049276718	 2.1554307989	 2.5464088888	 0.134802
H	 2.4050278801	 3.2337059141	 1.1904165961	 0.108115
H	 1.151479151	 3.9679768965	-1.0996892802	 0.103482
