14
gdb 21077	3.8273	1.95502	1.30477	1.7857	74.06	-0.2303	-0.0187	0.2116	886.0384	0.107775	-341.577478	-341.570001	-341.569057	-341.609949	26.826	
C	 0.01715228	 1.3993390782	 0.0110709698	-0.32695
N	-0.0000133642	-0.0488496234	 0.0314757082	-0.043502
N	 0.0436523646	-0.7343338028	-1.1193905097	-0.249657
C	 0.0694357757	-2.0190330986	-0.7610738217	-0.005316
C	 0.0473630347	-2.1712815128	 0.6325669608	-0.33197
C	 0.0045541688	-0.872468891	 1.1269404193	 0.261684
C	-0.0354540604	-0.3886572533	 2.4507215435	 0.266576
C	-0.0698412816	 0.0274490408	 3.5808567913	-0.455764
H	 1.0353833481	 1.7761765517	-0.1294618103	 0.145822
H	-0.6070974087	 1.7439233107	-0.8142115393	 0.156606
H	-0.3752343717	 1.7725120683	 0.9575626818	 0.153458
H	 0.0971625107	-2.78506134	-1.521676834	 0.116022
H	 0.0520561904	-3.0771854675	 1.2153039541	 0.115031
H	-0.0997445362	 0.3859802596	 4.5799920764	 0.197959
