15
gdb 43944	3.62138	1.52927	1.49363	4.1497	69.65	-0.2508	-0.028	0.2228	910.1082	0.113062	-420.52582	-420.519495	-420.518551	-420.55634	26.218	
O	-0.2459588792	-0.0122920446	-0.5885455438	-0.290568
C	-0.0717106153	 1.0701132793	-0.1515476238	 0.379462
O	-1.0755598051	 1.9957737444	 0.2574442536	-0.314683
C	-0.024910622	 2.7511349271	 0.9628092979	 0.338452
C	 0.8704880787	 4.0653730991	 0.9957123399	-0.301287
C	 1.9829723527	 2.8938935277	 1.1507862098	-0.143883
C	 1.5590924695	 2.268535008	 2.4800135216	-0.059277
C	 0.2333396977	 2.1957769301	 2.3659040054	-0.148558
C	 1.0369130684	 2.1423109346	 0.1068191874	-0.156806
H	 0.9358704559	 4.6164538719	 0.0557051716	 0.122938
H	 0.7504364361	 4.7295161063	 1.853246636	 0.1185
H	 3.0330079029	 3.0923341269	 0.9460595529	 0.092801
H	 2.214288416	 1.9954514493	 3.2943243506	 0.118522
H	-0.5318636576	 1.8342229905	 3.0365830033	 0.121041
H	 1.0966468914	 2.6699807094	-0.8521143225	 0.123347
