14
gdb 123634	4.18765	1.63151	1.41876	3.762	66.92	-0.2622	-0.0371	0.2251	877.5576	0.104549	-432.763971	-432.758282	-432.757338	-432.793946	23.413	
C	-0.0410229842	 1.5740118186	-0.0728584306	-0.208559
C	 1.5110086219	 1.3550004072	-0.0053022421	-0.141625
N	 1.1684160004	 0.1993389416	 0.9108817382	-0.295881
C	-0.0277782428	 0.0070327813	 0.0028894643	-0.141625
C	 0.6497422602	-0.3066454459	-1.3170801811	 0.373856
N	 0.6965792313	-1.0447810598	-2.371404113	-0.246139
O	 1.8189202302	-0.5674174526	-3.0663744151	-0.178439
N	 2.4439681713	 0.4860251635	-2.3807484286	-0.246138
C	 1.7248174677	 0.6351442347	-1.3228152099	 0.373857
H	-0.4210761627	 2.0134737925	 0.8494503722	 0.134748
H	-0.4600269035	 2.0469333996	-0.9609786736	 0.128085
H	 2.2108548144	 2.1066332266	 0.3486979891	 0.108629
H	 1.8403021706	-0.5679672373	 0.8603334311	 0.230603
H	-0.8628317448	-0.58589952	 0.3650628491	 0.108628
