15
gdb 45033	2.68622	1.71167	1.11727	3.3373	66.93	-0.2645	-0.0255	0.2389	1023.7815	0.11497	-453.998546	-453.991392	-453.990448	-454.030489	27.21	
O	-0.1085972207	-0.0075099153	-0.5458602547	-0.333446
C	-0.076189628	 1.1499783066	-0.2059642001	 0.414961
C	-1.2670971083	 1.8980834875	 0.3911350445	-0.368186
C	-1.2139209913	 3.387818637	 0.1042863889	-0.020611
C	-0.7603331496	 4.3813008147	 1.1320955012	-0.249881
N	 0.1083982154	 3.9939099038	 0.0306626191	-0.111635
C	 1.2557150363	 3.216177005	 0.2050299064	 0.413586
O	 2.3090318769	 3.6352031746	 0.6138540497	-0.345396
N	 1.096211137	 1.8965780198	-0.2469727228	-0.365002
H	-2.1774895679	 1.4421051328	 0.0009566202	 0.150127
H	-1.2443499122	 1.6985481087	 1.4693908288	 0.14652
H	-1.889930851	 3.738794341	-0.6716675301	 0.119228
H	-1.1255335702	 5.4033691598	 1.1017351661	 0.139546
H	-0.5114200139	 4.0093196116	 2.1230783266	 0.138601
H	 1.9507926376	 1.3751348625	-0.3938577438	 0.271589
