19
gdb 106004	3.3251	1.61109	1.39613	1.7805	76.92	-0.2402	0.0847	0.3249	995.1246	0.159818	-385.811765	-385.804455	-385.80351	-385.843624	29.414	
C	 0.0809767243	 1.5318034427	 0.0320309276	-0.375533
C	 0.0325225923	-0.0009818406	-0.0139648292	-0.345018
C	-1.3612022201	-0.5601877486	 0.0017204643	 0.367562
C	-1.809686273	-2.0597292887	-0.0345429366	-0.193582
C	-3.0580407175	-1.6087833959	-0.7557352851	-0.090182
C	-3.021503749	-1.6566368379	 0.7722315844	-0.090185
C	-2.5063010418	-0.2143806304	 1.0224468774	 0.014912
O	-3.1650668127	 0.6635661753	 0.0830971982	-0.295431
C	-2.5531610937	-0.1529519773	-0.9396302358	 0.014899
H	 1.1160241956	 1.8858493945	 0.0187602544	 0.110249
H	-0.4376001593	 1.9722031643	-0.8247550881	 0.12532
H	-0.3965144184	 1.9180624629	 0.9374353274	 0.125357
H	 0.5492252861	-0.3609816143	-0.9142255602	 0.102284
H	 0.5905145368	-0.4148464629	 0.8371604801	 0.102287
H	-1.2599997739	-2.9889679216	-0.0768002947	 0.091249
H	-3.7606220049	-2.1798685143	-1.3466140511	 0.091767
H	-3.6959134322	-2.2646079603	 1.3591203094	 0.091767
H	-2.4056727136	 0.1928586055	 2.0279179349	 0.076137
H	-2.500026345	 0.3164775878	-1.9213387973	 0.07614
