13
gdb 133273	2.64467	1.59879	1.00256	2.4278	67.7	-0.2628	-0.0632	0.1996	1084.176	0.088123	-493.997457	-493.989804	-493.98886	-494.030298	27.156	
C	-0.1360706896	 1.4123523884	 0.0092436517	-0.339479
N	-0.1095400456	-0.0345795547	-0.0819278726	-0.289718
C	 0.5972210692	-0.5961330826	-0.9754078286	 0.263064
N	 1.3996725081	 0.0418342556	-1.9382986064	-0.325892
C	 2.034602053	-0.7002905979	-2.7504189561	 0.16868
O	 2.0480790636	-2.0443378419	-2.8211725466	-0.216605
N	 1.2762479728	-2.7755884238	-1.8998342267	-0.149826
C	 0.6205090734	-2.0651819582	-1.0633634152	 0.324111
F	-0.1014595424	-2.7384627635	-0.2010022945	-0.011905
H	 0.48241527	 1.9254209061	-0.733092772	 0.138445
H	-1.1762097461	 1.7441522421	-0.0880872849	 0.13845
H	 0.1868081408	 1.6995391816	 1.0165899464	 0.138461
H	 2.6780853229	-0.2923686811	-3.5267524044	 0.162213
