17
gdb 86098	2.61952	1.40475	1.0551	2.0782	75.37	-0.2295	0.0412	0.2707	1156.9962	0.135695	-418.000065	-417.991221	-417.990276	-418.033625	33.355	
C	-0.4861402236	 1.5091015923	-0.0278420713	-0.40751
C	 0.1015450398	 0.1159372386	-0.1128159414	 0.101594
O	 1.235485266	 0.1180559262	-1.0163362961	-0.258991
C	 2.1598668423	-0.6918934773	-0.4391013956	 0.474627
N	 3.2739901897	-0.8922194162	-1.2020065583	-0.577429
N	 1.9556530012	-1.1491497939	 0.736769638	-0.342987
C	 0.7039856333	-0.5168538946	 1.193366591	-0.198186
C	 0.9496014223	 0.4386288331	 2.2763648155	 0.384494
C	 1.1455398623	 1.2166292811	 3.1715381238	-0.496069
H	 0.2458715791	 2.2141980003	 0.3714322277	 0.142109
H	-0.8059036086	 1.8464877492	-1.0176374456	 0.12297
H	-1.3570139121	 1.5079302581	 0.6341888698	 0.127291
H	-0.6335884704	-0.5828386168	-0.5307327065	 0.090968
H	 3.1360661513	-0.8566159996	-2.1997134573	 0.263062
H	 3.8733665297	-1.6325463682	-0.8733792485	 0.270055
H	 0.0208238176	-1.2865777648	 1.571172451	 0.106921
H	 1.32899244	 1.8973055724	 3.9657300637	 0.197082
