17
gdb 84737	2.04069	1.81479	1.17602	4.1998	74.38	-0.2356	-0.0759	0.1597	1083.338	0.135015	-421.864883	-421.856307	-421.855363	-421.899119	31.234	
C	-0.0688664155	 1.5620358461	 0.0088270059	-0.395371
C	 0.0313281871	 0.0154705067	-0.0073251338	-0.150256
C	 0.7023535141	-0.4845691126	-1.2610002202	-0.067687
C	 1.9077139881	-1.0480465085	-1.3139921191	-0.070735
C	 2.7926735457	-1.2849657375	-0.1198732504	-0.376992
C	 2.2801747737	-0.6457131331	 1.1608727923	 0.313473
O	 2.9969510853	-0.3166127937	 2.0713401984	-0.280548
C	 0.7456985811	-0.4409476772	 1.2590051853	 0.306035
O	 0.1794834913	-0.6166486503	 2.3083117263	-0.290825
H	 0.9248750232	 2.0207824367	 0.0129704514	 0.131332
H	-0.597557655	 1.9133596677	-0.8819972848	 0.126994
H	-0.6136352355	 1.8980369232	 0.8949080521	 0.142582
H	-0.9902519276	-0.3801436425	 0.0549312028	 0.113034
H	 0.1369700764	-0.349527266	-2.1804205737	 0.100467
H	 2.3055750342	-1.3702499822	-2.2727954523	 0.103144
H	 2.8812183341	-2.3661703047	 0.0747439084	 0.15171
H	 3.8185109892	-0.9377664919	-0.2897132386	 0.143644
