23
gdb 119568	2.90889	0.98436	0.84971	1.8143	85.81	-0.2265	0.0756	0.3021	1490.0382	0.204329	-388.260956	-388.251145	-388.250201	-388.295897	36.834	
C	-0.0365992177	 1.6320322196	-0.1283200303	-0.381779
C	-0.0346770665	 0.1034500552	-0.2057142936	-0.15653
C	-1.3889540262	-0.5179405903	 0.1732919911	-0.309948
C	-1.4086135945	-2.018174226	 0.0835648218	 0.277133
C	-1.6517765393	-2.7871753074	-1.2070376485	-0.352419
C	-2.5364256694	-3.0175581392	-0.0218449183	 0.039448
O	-1.929436488	-3.9352318636	 0.889475721	-0.311027
C	-0.8492014211	-2.9850371779	 1.1410696523	 0.111549
C	 0.5313417534	-3.5958599074	 1.0163766289	-0.40954
H	 0.9385689981	 2.0473545698	-0.4008259049	 0.112263
H	-0.7826490318	 2.0611434406	-0.8066824882	 0.113962
H	-0.2748614021	 1.9780542925	 0.8837399089	 0.114239
H	 0.2335581412	-0.2180772921	-1.2197368742	 0.100758
H	 0.745416336	-0.295980132	 0.4552017595	 0.09799
H	-1.6579688329	-0.2077406092	 1.1930450826	 0.095056
H	-2.1679495487	-0.1079197814	-0.4832734083	 0.095087
H	-2.0813278624	-2.1842750506	-2.0023741978	 0.109539
H	-0.9894811747	-3.5804759305	-1.5413551929	 0.111834
H	-3.6156713522	-2.9143604937	 0.000151082	 0.10049
H	-0.9863138992	-2.5592347708	 2.1454549769	 0.074986
H	 0.7174068083	-3.9680564967	 0.0055648262	 0.121081
H	 1.2985721236	-2.8536756641	 1.262030041	 0.11796
H	 0.6354476363	-4.4337343248	 1.7133674146	 0.127869
