21
gdb 110561	3.67961	1.09714	0.99635	1.8826	82.58	-0.225	0.0817	0.3067	1299.3137	0.181062	-387.009911	-387.001224	-387.00028	-387.043174	33.687	
C	 0.0478946509	 1.5813425306	 0.1646089484	-0.376167
C	-0.1816939281	 0.0814711398	-0.0533538605	-0.205383
C	 0.5826007509	-0.4678493843	-1.252658008	-0.014519
C	 2.1058187228	-0.7218543084	-1.1286811448	-0.142742
C	 1.8970799821	-2.102410761	-0.4332195709	 0.081126
O	 2.7627793261	-2.8358811194	-1.345008475	-0.364976
C	 2.0652821445	-1.8685418969	-2.1977952351	 0.470711
C	 2.3612697337	-1.8462116893	-3.662364565	-0.527212
C	 0.7033668846	-1.9993306163	-1.4321517684	-0.158978
H	 1.1056511542	 1.7986283236	 0.3480654926	 0.11748
H	-0.2597537247	 2.1591427683	-0.7141630318	 0.114063
H	-0.5220668822	 1.9517841776	 1.0222199835	 0.112642
H	 0.1037538787	-0.4695280206	 0.8520066245	 0.093555
H	-1.2540501102	-0.1056975831	-0.1972955994	 0.095676
H	 0.2946968869	 0.0682196412	-2.1664103977	 0.062508
H	 2.9281486283	-0.0250212128	-0.9600815822	 0.075708
H	 1.9133380927	-2.3715442623	 0.6216055844	 0.092647
H	 2.1259294147	-2.8139928803	-4.1158773812	 0.135111
H	 1.7643353338	-1.0755488734	-4.1600903944	 0.128941
H	 3.420062357	-1.6314168188	-3.8366799221	 0.134991
H	-0.0700801468	-2.7493753343	-1.6050874969	 0.074817
