23
gdb 63083	2.76063	1.36048	1.24496	0.1347	90.43	-0.2331	0.036	0.2692	1171.5368	0.206824	-351.168319	-351.159393	-351.158449	-351.201203	35.466	
C	 0.1183029388	 1.5573831854	 0.0925608462	-0.466749
C	 0.0573750351	 0.0422169195	 0.0326827896	 0.333178
C	-1.283872621	-0.4792861347	-0.4542707631	-0.447679
C	 1.2789403729	-0.7660177942	-0.3619261224	-0.081125
C	 2.6233516476	-0.1301323446	-0.682452565	-0.285962
C	 3.3476544538	 0.454934367	 0.4992742716	-0.046449
C	 2.9044501926	 0.4231689941	 1.7540266058	-0.046449
C	 1.6082442051	-0.2028857393	 2.1914068539	-0.285962
C	 0.7732294084	-0.8022626603	 1.0697890989	-0.081123
H	 1.0820921303	 1.9312010895	 0.4424556055	 0.128913
H	-0.0684498377	 1.9897991001	-0.898003976	 0.109384
H	-0.6557142336	 1.9477101925	 0.7645884515	 0.109384
H	-1.5089341448	-0.1110678921	-1.4628175736	 0.109494
H	-1.3020906841	-1.573386108	-0.4884287325	 0.108707
H	-2.0979595309	-0.1533249353	 0.2048318386	 0.109494
H	 1.0640004339	-1.6463229188	-0.9616251421	 0.072583
H	 3.271065791	-0.8918773552	-1.1388138076	 0.107865
H	 2.5121005064	 0.6425861845	-1.4581997914	 0.105355
H	 4.3039820117	 0.9260707478	 0.2826339186	 0.080667
H	 3.5052603014	 0.868824862	 2.5438892032	 0.080667
H	 1.8379798922	-0.9945860141	 2.918377677	 0.107865
H	 1.0224264349	 0.5358219093	 2.7591947769	 0.105355
H	 0.2434908861	-1.7051295851	 1.3613087466	 0.072583
