14
gdb 25376	6.55792	0.85477	0.75621	2.4817	82.08	-0.25	-0.0844	0.1655	1378.6633	0.101331	-436.751288	-436.743548	-436.742604	-436.78394	27.804	
O	-0.1817606752	 0.0597974322	-0.0005571641	-0.263119
C	-0.0082368089	 1.257744514	 0.0081057477	 0.076195
C	 1.2971990465	 1.9012937178	-0.0008965907	 0.22295
C	 2.5812222569	 1.3507233804	-0.0201098852	-0.1908
C	 3.4946010943	 2.4090478818	-0.0212032229	-0.190799
C	 2.762200799	 3.598775452	-0.0024906251	 0.222949
N	 1.4341897723	 3.2639970239	 0.0096564521	-0.365085
C	 3.2079435828	 4.9842956065	 0.0046065527	 0.076195
O	 4.3676292276	 5.3311243128	-0.0054938901	-0.263118
H	-0.8692392311	 1.9670629296	 0.0239670504	 0.060949
H	 2.7891390553	 0.2924471143	-0.0317211	 0.139026
H	 4.5718933905	 2.358109619	-0.0338368245	 0.139026
H	 0.6709704566	 3.9227019156	 0.0241154922	 0.274681
H	 2.3803621135	 5.73233664	 0.0205174376	 0.06095
