18
gdb 39990	4.13867	1.42795	1.32601	0.7782	75.81	-0.2325	0.0756	0.3081	998.9488	0.149707	-401.859816	-401.853254	-401.85231	-401.890649	27.21	
C	 0.0180654804	 1.4908659459	-0.0237781315	-0.262531
O	 1.186940034	 0.6580035254	-0.0067549974	-0.288307
C	-0.0961891565	 0.0341919132	 0.013618865	 0.474433
C	-0.524117111	-0.830525241	 1.2024175149	-0.345524
C	-1.0369181262	-2.0254673859	 0.4091438586	 0.022047
C	-0.1323661315	-2.3253829964	-0.8185981636	-0.073682
C	-1.4253196521	-2.6919561598	-1.5545233156	-0.177207
N	-1.8683938167	-1.4512102382	-0.7725353759	-0.168258
C	-0.48750808	-0.8481591711	-1.1434108627	-0.072145
H	-0.1571467614	 2.066211975	 0.8845273965	 0.115638
H	-0.1589019162	 2.029626035	-0.9540297983	 0.115009
H	 0.3234478998	-1.074388927	 1.8492821087	 0.120257
H	-1.3119441241	-0.3712565084	 1.8062207975	 0.117506
H	-1.5173666991	-2.846572669	 0.9438554507	 0.076388
H	 0.8507433054	-2.8084196372	-0.8423901335	 0.071063
H	-1.4601441197	-2.5592745535	-2.6395931849	 0.100902
H	-1.9511588228	-3.6038653113	-1.2558565203	 0.099669
H	-0.3970982023	-0.4563281257	-2.1573007381	 0.074742
