19
gdb 107042	3.99095	1.15094	1.01756	1.4015	76.89	-0.2321	0.0059	0.238	1210.6581	0.158358	-422.997488	-422.98875	-422.987805	-423.030726	33.244	
C	 0.096340532	 1.2789237586	 0.3537004339	-0.253555
O	-0.0233567142	 0.0103251139	-0.2628464806	-0.289299
C	-1.2994437368	-0.5342893257	-0.1832571682	 0.412212
C	-1.805808043	-1.1095157051	 1.1239864392	-0.328313
C	-1.4824797874	-2.0211037459	-0.0455284968	-0.123776
C	-2.635510525	-2.4390800637	-0.9506589081	 0.054414
O	-3.6438450293	-3.0920937243	-0.1772207968	-0.430727
C	-3.104731837	-1.1190070529	-1.5505905438	-0.110841
C	-2.367113584	-0.0886791057	-1.140364483	-0.153506
H	 1.1431996832	 1.5780653743	 0.2641862514	 0.126511
H	-0.5292285114	 2.0380932499	-0.1376800859	 0.107421
H	-0.178979391	 1.2389230487	 1.4167853022	 0.110846
H	-1.0971076988	-1.141318764	 1.9452827295	 0.112803
H	-2.8425258179	-0.964728433	 1.403909048	 0.124463
H	-0.6178391643	-2.6655925224	 0.0452836373	 0.097024
H	-2.2772162026	-3.1227973297	-1.736939829	 0.071786
H	-4.3692729726	-3.3160722981	-0.7692281357	 0.281058
H	-3.9769977554	-1.0585653258	-2.1936586777	 0.091549
H	-2.5135410748	 0.9499101908	-1.4154493159	 0.099928
