17
gdb 9788	2.92783	1.83991	1.3414	3.5384	67.86	-0.2939	0.0135	0.3074	946.6177	0.140957	-363.860817	-363.852274	-363.851329	-363.893586	31.553	
C	-0.1768917106	 1.4970444851	 0.3030785525	-0.461162
C	 0.026156674	 0.0259648253	-0.0090058116	 0.316663
C	 1.4110439508	-0.4506943806	-0.3930350889	-0.313234
C	 0.8316556183	-0.807495763	 0.9549520153	-0.30852
C	-1.1772556543	-0.5860902836	-0.7244548616	-0.073295
O	-1.4339006927	 0.0327432947	-1.9743608807	-0.404564
C	-1.0584118339	-2.0517856457	-0.8928237599	 0.265035
N	-0.9524549126	-3.1919149525	-1.0492294086	-0.333252
H	 0.7238319451	 1.9254636884	 0.7510244518	 0.118809
H	-0.4128512725	 2.0617074503	-0.603221488	 0.132973
H	-1.0020819405	 1.6386283319	 1.0110415658	 0.121204
H	 1.5057888621	-1.2546818374	-1.1159187691	 0.131007
H	 2.2016885707	 0.289887629	-0.4406992465	 0.118906
H	 1.2201935023	-0.3037144141	 1.8332549789	 0.116831
H	 0.5496511094	-1.8413903979	 1.1181172448	 0.140564
H	-2.0791333221	-0.4007360242	-0.1282057073	 0.138242
H	-0.6303429633	-0.0404416657	-2.5037576569	 0.293791
