13
gdb 123386	7.96292	0.79586	0.72683	3.6563	69.09	-0.2482	-0.0297	0.2185	1429.4479	0.086157	-452.669935	-452.661435	-452.660491	-452.704377	29.109	
C	 0.0210447424	-1.1693733172	-0.0046410941	-0.397928
C	 0.0218150357	 0.0305424368	 0.0023759821	 0.289776
C	-0.020292095	 1.4803452044	 0.0112848317	-0.246015
O	 1.340143521	 1.9795729816	-0.001733058	-0.258863
C	 1.4811338286	 3.2959184693	 0.0039359859	 0.525608
C	 2.6634867041	 4.0070692381	-0.0059367306	-0.250268
N	 2.3055176943	 5.3183446923	 0.0055236709	-0.053572
N	 1.0881403189	 5.5205606957	 0.0209408144	-0.032463
O	 0.4447757837	 4.0891438555	 0.0206208931	-0.263531
H	 0.0232297607	-2.2318846774	-0.0109330851	 0.21475
H	-0.551517205	 1.8675183964	-0.8650244992	 0.164105
H	-0.5308036104	 1.8572367425	 0.9042330385	 0.164098
H	 3.6822825209	 3.6665151421	-0.0197850696	 0.144301
