20
gdb 69578	3.47813	1.3037	1.18519	1.7573	85.6	-0.2214	0.0142	0.2356	1135.1083	0.172016	-365.986793	-365.978811	-365.977867	-366.018796	32.36	
C	-0.0351171132	 1.5433845378	 0.0285452077	-0.482935
C	 0.0440741409	 0.0353746398	 0.0058394368	 0.312769
C	-0.8038094802	-0.8023385006	 0.9451921256	-0.328734
C	 0.7044962962	-0.7962996571	 1.0944479966	-0.19523
C	 1.4795768213	-1.8942707241	 0.4045763957	 0.340247
C	 2.7892368133	-2.3768164849	 0.9245504297	-0.296436
N	 1.611221277	-3.2572217264	 0.9682064914	-0.363523
C	 1.166309325	-1.7467880288	-1.0476667562	-0.138127
C	 0.402551753	-0.6741194305	-1.2678655499	-0.159824
H	 0.9021413251	 1.9974215615	-0.3119907905	 0.120379
H	-0.8372475598	 1.9058361801	-0.6253252348	 0.118418
H	-0.2412241316	 1.9135395012	 1.0376689132	 0.114831
H	-1.3651898311	-0.2752847249	 1.7110193896	 0.10583
H	-1.2885245134	-1.6904606428	 0.5538605932	 0.117572
H	 1.1312378445	-0.3240627229	 1.9729520559	 0.082794
H	 3.5693312944	-2.6888201687	 0.2348284728	 0.115605
H	 3.154545579	-1.9367071541	 1.850191726	 0.108389
H	 1.2203576582	-3.2672565704	 1.9077885704	 0.231152
H	 1.5053593797	-2.4645363122	-1.7845979035	 0.103041
H	 0.0383588616	-0.3432234021	-2.2346160896	 0.093782
