20
gdb 63384	2.97885	1.16075	0.97773	3.5637	79.92	-0.2884	0.0166	0.3051	1270.3369	0.168724	-403.15999	-403.150346	-403.149402	-403.193882	36.783	
C	-0.2715689498	 1.5121820746	-0.0061249854	-0.447041
C	-0.0092965767	 0.0045530266	 0.0083578362	 0.342346
C	-1.2899128164	-0.7825270399	-0.249856863	-0.457576
C	 1.2143974468	-0.3989168868	-0.8788257383	-0.285675
C	 2.1064107253	-0.4714264016	 0.3894826829	 0.258843
O	 2.8826503606	 0.7092583604	 0.4734085508	-0.459275
C	 0.8109942342	-0.4487842727	 1.261195396	-0.312059
C	 2.9569892703	-1.6603992662	 0.538681043	 0.232826
N	 3.6231897764	-2.5944406326	 0.6827963133	-0.3405
H	 0.6480662897	 2.074489855	 0.1747243223	 0.132851
H	-0.6776147554	 1.8254438437	-0.9746605534	 0.114433
H	-0.9996854591	 1.7864111755	 0.7659444352	 0.111776
H	-1.7187205668	-0.523784765	-1.2247852648	 0.118507
H	-1.1069128975	-1.8622856861	-0.2401359493	 0.114207
H	-2.0459514771	-0.5632447096	 0.5127829346	 0.117417
H	 1.0927819262	-1.3750941897	-1.3524962665	 0.11888
H	 1.5671114753	 0.324446629	-1.616611094	 0.124748
H	 3.2994537965	 0.7380037289	 1.3428662002	 0.290759
H	 0.8491270808	 0.2361903919	 2.1125697634	 0.106699
H	 0.5328609968	-1.4453701954	 1.6124130466	 0.117832
