20
gdb 113968	3.16198	0.81435	0.69627	3.7065	80.54	-0.2546	0.017	0.2716	1666.7449	0.168962	-440.255313	-440.245256	-440.244312	-440.291544	35.607	
C	-0.0850523159	 1.0503203444	 0.1261604105	-0.315343
N	-0.4956583667	-0.2132896026	-0.4497921967	-0.203369
C	 0.3829148807	-0.899412905	-1.0269900558	 0.129389
O	 0.0618138516	-2.0958727038	-1.5787022424	-0.220047
C	 1.0923449833	-2.757851994	-2.2789603116	 0.097076
C	 2.1459424992	-3.5157184154	-1.5148858299	-0.334894
C	 1.0338587568	-4.2526597144	-2.2364410767	-0.058564
C	-0.0768324245	-4.9084494842	-1.4354661355	-0.071854
O	-1.3398432443	-4.7722060143	-2.059069472	-0.424434
H	 0.9835962915	 1.2815338943	-0.0131412896	 0.097576
H	-0.6737220237	 1.8623031544	-0.3152715009	 0.130833
H	-0.2998396749	 1.0502694177	 1.2007285188	 0.130628
H	 1.4423698915	-0.6261488138	-1.1380720215	 0.08377
H	 1.3661702432	-2.2660398506	-3.2089705495	 0.107226
H	 3.153283036	-3.5424721061	-1.9151049853	 0.121638
H	 2.0878934507	-3.4841450662	-0.4317048069	 0.128232
H	 1.2869037325	-4.7583531588	-3.1631668401	 0.100549
H	 0.1133426858	-5.9836735033	-1.3545850635	 0.110447
H	-0.0886483065	-4.5000217744	-0.4152255929	 0.095036
H	-1.5535344563	-3.8320751341	-2.0340490087	 0.296103
