19
gdb 51004	3.77031	0.96842	0.86112	2.6733	75.76	-0.2481	-0.0255	0.2227	1364.2331	0.156939	-422.998842	-422.989713	-422.988769	-423.033664	33.195	
O	-0.1540877964	-0.2644707766	-0.2781599114	-0.244893
C	 0.0383652541	 0.9166742348	-0.1378169306	 0.142454
C	 1.3901525358	 1.5815501154	-0.3002551403	-0.351049
C	 1.377829961	 2.8637285259	-1.1240604084	 0.36256
C	 0.3730608059	 3.0616377763	-2.180417053	-0.22431
O	 0.2452579116	 3.716546973	-0.9093689857	-0.265272
C	 2.7043517095	 3.5659250946	-1.2008794249	-0.064061
C	 2.7769539358	 5.0421166223	-1.4814309677	-0.276914
C	 3.1035822387	 4.5234052042	-0.1031322152	-0.264649
H	-0.7822312043	 1.6083555716	 0.1469116626	 0.101738
H	 1.7491482787	 1.8350024348	 0.7085924494	 0.13439
H	 2.0914311234	 0.855787736	-0.7235048498	 0.128174
H	 0.6008003306	 3.7195259586	-3.0165057754	 0.122047
H	-0.3710763679	 2.291605803	-2.3813609749	 0.12533
H	 3.4968377373	 2.9468983064	-1.6131859487	 0.091368
H	 3.5850219636	 5.4030690523	-2.1072790412	 0.112777
H	 1.8365002348	 5.5690726992	-1.5925194017	 0.130805
H	 2.3762384082	 4.7169500647	 0.6779777731	 0.124645
H	 4.1359429098	 4.5267794433	 0.2274197738	 0.114858
