14
gdb 19487	3.67402	2.0666	1.86618	1.6777	66.98	-0.2399	-0.009	0.2309	756.4484	0.107994	-341.5259	-341.519338	-341.518394	-341.556483	25.159	
C	-0.0262481643	-1.2084793966	-0.0765543944	-0.456918
C	-0.0016881357	-0.00805662	-0.0101957257	 0.37423
C	-0.012198497	 1.4228539364	 0.0614791405	-0.217724
C	 0.5155618	 2.1572536739	 1.2535453529	-0.048337
C	 1.4242327966	 1.4137580441	 2.2314851453	-0.194056
N	 2.6064845114	 1.0262541244	 1.4392811711	-0.186965
C	 2.4255677779	 1.462927005	 0.2615718553	 0.043819
N	 1.2540725924	 2.2391604252	-0.023907932	-0.146464
H	-0.0409220537	-2.2688202781	-0.137293592	 0.207541
H	-0.8221942858	 1.8960331647	-0.4874402514	 0.127678
H	-0.0013536176	 3.0571382351	 1.5708071696	 0.108686
H	 1.7299479443	 2.0610131261	 3.0602914259	 0.123583
H	 0.9677813819	 0.516326295	 2.6632929996	 0.132568
H	 3.1329938396	 1.3100013149	-0.5471328448	 0.13236
