22
gdb 99862	2.0118	1.36606	1.03394	4.739	82.18	-0.2817	0.0474	0.3291	1291.438	0.191264	-404.371912	-404.360762	-404.359818	-404.407582	40.647	
C	 0.0408257433	 1.5910583284	 0.1325103539	-0.407706
C	-0.0437857429	 0.0731320579	-0.053289145	-0.211469
C	 0.6603058973	-0.4808016847	-1.3244449917	 0.089003
C	-0.0075426989	 0.0355331408	-2.6192819467	-0.423776
C	 2.0656924051	-0.0321149066	-1.3080048743	 0.302036
N	 3.1557960915	 0.349452963	-1.2609258737	-0.36355
C	 0.6917496637	-2.040501945	-1.28732069	 0.117258
C	-0.6827799781	-2.7090004225	-1.2236412886	-0.425297
O	 1.3955321981	-2.4432982378	-2.4547241229	-0.43137
H	 1.0796955493	 1.9289303514	 0.1816831252	 0.148903
H	-0.4529209669	 2.1293198567	-0.6817617183	 0.122465
H	-0.4528997037	 1.8812198207	 1.0645272963	 0.118342
H	 0.3875916347	-0.4224589358	 0.8247865081	 0.109485
H	-1.0956560581	-0.2269463076	-0.1010325215	 0.106747
H	 0.1265584549	 1.1138639222	-2.7232741675	 0.133664
H	 0.4299853774	-0.453877828	-3.4901030516	 0.154792
H	-1.08089613	-0.1730725601	-2.5984127655	 0.117312
H	 1.262177537	-2.3218669909	-0.388471704	 0.083611
H	-0.5534605665	-3.7969826741	-1.2288583492	 0.112967
H	-1.2251433097	-2.4520451434	-0.3099856279	 0.125407
H	-1.2955298296	-2.4432970994	-2.08880101	 0.132352
H	 1.556549462	-3.390025375	-2.401407075	 0.288823
