18
gdb 37147	3.97914	1.87646	1.63538	1.5434	78.18	-0.215	0.0786	0.2936	860.4911	0.150403	-364.670567	-364.664789	-364.663845	-364.700188	25.969	
C	-0.0150487964	 1.524623011	-0.1215897977	-0.299039
C	 1.3069870864	 0.812672686	 0.021066517	 0.0074
C	-0.008907778	 0.0125432979	-0.0345020721	-0.214198
C	 0.3151615292	-0.7148699414	-1.321009219	 0.318282
C	 0.0632011987	-1.7140886313	-2.4819651263	-0.364198
C	 1.4903173317	-1.1302713338	-2.7768017579	-0.114433
C	 1.8410421745	-1.0622601734	-1.2756275831	 0.002237
N	 2.1192198008	 0.4362898462	-1.1808208416	-0.180237
C	 1.0705464745	 0.2647506763	-2.2563840102	-0.011921
H	-0.3585071544	 2.0645990279	 0.7560407119	 0.11148
H	-0.2850717249	 2.0057548582	-1.0545896526	 0.115677
H	 1.8749682529	 0.9193712812	 0.9371633684	 0.094028
H	-0.4004114177	-0.5028031646	 0.8334173236	 0.091922
H	 0.01122713	-2.7758536533	-2.2236916975	 0.102105
H	-0.7236992543	-1.454503277	-3.1961022729	 0.102791
H	 2.1512114556	-1.3549462314	-3.6125270599	 0.082047
H	 2.3374867449	-1.7986819776	-0.6415812771	 0.076773
H	 0.6642665864	 1.0933648489	-2.836599753	 0.079283
