15
gdb 29748	3.43928	1.27139	0.93373	6.5809	74.7	-0.2204	-0.049	0.1713	1168.6308	0.112447	-453.984778	-453.97624	-453.975296	-454.01823	30.181	
C	-0.0099782549	 1.4496062249	 0.0156968658	-0.357755
N	 0.0250497577	-0.0058112833	 0.0089945644	-0.098004
C	 0.0507462969	-0.7833270825	-1.1056285901	 0.350954
O	 0.0443991234	-0.1907983155	-2.3168450255	-0.430607
C	 0.0794618568	-2.1013733061	-0.681985163	-0.209829
N	 0.0717720339	-2.142440368	 0.6738110955	-0.261469
C	 0.0393283158	-0.8858360957	 1.0896101481	 0.225089
C	 0.0202485967	-0.4283818559	 2.473624779	 0.079001
O	 0.0308459644	-1.1481154809	 3.4463643478	-0.266138
H	 0.8702595353	 1.8566237603	 0.5196434789	 0.155949
H	-0.0171433056	 1.7971023366	-1.0172909799	 0.167825
H	-0.9100778036	 1.8134170013	 0.5174654491	 0.156033
H	 0.0628833233	-0.872087465	-2.9967458116	 0.320084
H	 0.1046177726	-2.9931271374	-1.2906711504	 0.113325
H	-0.0062794225	 0.6798131272	 2.5839019918	 0.055542
