11
gdb 130114	3.64673	1.78806	1.20205	4.0888	58.62	-0.245	-0.0834	0.1616	898.2361	0.067279	-480.963539	-480.957105	-480.956161	-480.994355	24.087	
N	 0.0460150936	 1.3907832609	 0.1751210695	-0.590776
C	 0.0280846934	 0.023471529	 0.0250749395	 0.424805
N	-1.0101580106	-0.7708693671	-0.0376948309	-0.274095
N	-0.5923196723	-2.1256738515	-0.0661050405	-0.342334
C	 0.6943666137	-2.0518245795	-0.0347624171	 0.547016
O	 1.773694339	-2.8521704679	-0.0503732641	-0.241088
N	 2.9052908818	-1.9594441674	 0.0081868921	 0.028088
N	 2.5163327328	-0.7698084281	 0.052960866	-0.050707
N	 1.1647342129	-0.7685660002	 0.0299717406	-0.053015
H	 0.7052650695	 1.8746986147	-0.4215369392	 0.271926
H	-0.8864370538	 1.7749838672	 0.0893109841	 0.280181
