18
gdb 3595	5.21055	1.8639	1.56141	1.2155	69.08	-0.2233	0.0902	0.3135	848.9338	0.159699	-289.795007	-289.7876	-289.786655	-289.826492	27.767	
C	-0.1212168512	 1.5369739916	-0.1977609864	-0.410367
C	 0.0023731205	 0.0455806586	 0.0241275648	 0.032249
C	 1.3036209857	-0.6621228072	-0.1591256896	-0.253826
N	 0.7086851316	-0.5387673193	 1.1685183786	-0.089067
C	 1.3589507533	 0.3098597606	 2.1269776464	 0.080937
C	 0.7033512239	 0.4446620908	 3.4751931802	-0.275233
C	 1.9663052221	-0.3704521879	 3.3249277898	-0.274511
H	 0.825559161	 2.0619726285	-0.0491018593	 0.119136
H	-0.4500837896	 1.7340359685	-1.2236590016	 0.120436
H	-0.8623460473	 1.976965539	 0.4785457789	 0.125387
H	-0.903902934	-0.506762189	-0.22291411	 0.087231
H	 1.3494541043	-1.6660540635	-0.5741263139	 0.109943
H	 2.1702967556	-0.0408489522	-0.3850662365	 0.103049
H	 1.8907066107	 1.1854584307	 1.7511331503	 0.07083
H	 0.7566216083	 1.4022055768	 3.9811221356	 0.107797
H	-0.2232721911	-0.0984802928	 3.6195848431	 0.118876
H	 1.8695885388	-1.4488764053	 3.3680654421	 0.119917
H	 2.8924450973	 0.024752902	 3.7272073376	 0.107215
