19
gdb 78254	3.07854	1.26253	1.09975	2.8956	76.09	-0.2472	-0.0401	0.2071	1164.791	0.158161	-423.000836	-422.992046	-422.991102	-423.034538	32.937	
C	-0.1504688091	 1.4049778988	-0.0990686233	-0.42049
C	 0.1767297552	-0.0728725977	-0.0322028943	-0.02686
C	 1.5489583931	-0.682580136	-0.1483586445	-0.110386
C	 0.7522843966	-0.8026813588	 1.1510707464	-0.055376
C	 1.784756493	 0.0595776713	 1.9172533923	-0.165697
C	 2.5006050172	-0.7069950663	 2.9903144833	 0.146281
O	 3.0838112585	-1.7530716508	 2.8005274166	-0.27794
C	 2.6207633227	 0.1647044198	 0.5532603263	 0.134742
O	 3.9028058534	-0.3816935342	 0.5689556297	-0.429758
H	 0.588643295	 2.0278127522	 0.4109784833	 0.122944
H	-0.1976559201	 1.7413836245	-1.1402218718	 0.123688
H	-1.1241501923	 1.6067883884	 0.3602178352	 0.120148
H	-0.5668878497	-0.6889428119	-0.5361169912	 0.094231
H	 1.7908699626	-1.4434898507	-0.8813235674	 0.093456
H	 0.2756760912	-1.6756098016	 1.5810572712	 0.09502
H	 1.407328151	 1.0008795638	 2.3277998325	 0.074835
H	 2.4737438933	-0.2655565526	 4.0095260206	 0.091693
H	 2.7321302019	 1.191171961	 0.1906937164	 0.092545
H	 3.8544486864	-1.2306286991	 1.0352027189	 0.296923
