17
gdb 85202	2.69367	1.18706	0.91228	3.8313	74.94	-0.2394	-0.0219	0.2176	1270.3284	0.132725	-421.791725	-421.782391	-421.781447	-421.826577	33.972	
O	 0.0020264426	 1.4198933202	-0.139247106	-0.42388
C	 0.046130402	 0.0204598085	 0.0503263516	 0.066732
C	 0.218676946	-0.393459457	 1.5450114166	-0.369373
C	-1.313999621	-0.5460357729	 1.6032583219	 0.394489
O	-2.1144508376	-0.5577984284	 2.4892035153	-0.28234
C	-1.4146804504	-0.5277705334	 0.0647351273	-0.099835
C	-2.526376866	 0.2790837789	-0.6188756742	-0.37045
C	-3.8180836853	-0.3935332434	-0.5701698759	 0.297867
C	-4.872883269	-0.968214591	-0.5417092827	-0.434607
H	 0.8810347995	 1.7772791103	 0.0208341	 0.291295
H	 0.7245156105	-0.4619472137	-0.6626731208	 0.074495
H	 0.7271390927	-1.3543239356	 1.6762490396	 0.130027
H	 0.6629452369	 0.346720083	 2.2151035869	 0.125872
H	-1.4222704707	-1.5629594048	-0.2958342428	 0.116422
H	-2.5935419859	 1.2667489591	-0.1522773448	 0.150328
H	-2.2410474764	 0.4561043755	-1.6633186511	 0.138351
H	-5.8115428879	-1.4626450153	-0.5038843609	 0.194609
