17
gdb 42314	3.43398	1.14344	0.9701	3.4927	75.29	-0.2475	-0.0583	0.1892	1223.9153	0.135136	-421.805991	-421.797263	-421.796318	-421.840663	31.273	
O	-0.3042297021	-0.0003303807	 0.3181269035	-0.281225
C	-0.1768317388	 1.1955298198	 0.1946142612	 0.212128
C	 1.1223154841	 1.8242187343	 0.0029964622	 0.260831
C	 2.1798005499	 2.3790177143	-0.1508834385	-0.41579
C	-1.3608651495	 2.170670988	 0.1868247583	 0.011354
C	-1.6821845136	 2.6186152698	-1.2783611917	-0.261273
C	-3.159604516	 2.2062620573	-1.4482939244	-0.207723
C	-3.3212055173	 1.116294685	-0.3851424105	-0.086017
O	-2.5224699861	 1.5667363243	 0.7060253523	-0.23366
H	 3.1237078291	 2.8492338818	-0.2862448871	 0.21625
H	-1.1044406032	 3.0245490425	 0.8246293129	 0.102307
H	-1.521342928	 3.6887451962	-1.4165201781	 0.118767
H	-1.0428559555	 2.0967237925	-1.9961702832	 0.120379
H	-3.8197250011	 3.0483563292	-1.2209864383	 0.112761
H	-3.3866798759	 1.8564213046	-2.4580990475	 0.107986
H	-4.3441044122	 0.998853095	-0.0192979768	 0.110894
H	-2.9607807237	 0.1440527362	-0.7483263644	 0.11203
