17
gdb 33803	3.55184	1.49249	1.33482	0.7913	82.41	-0.2282	-0.0096	0.2186	992.5411	0.136912	-347.507143	-347.500133	-347.499189	-347.53808	29.676	
C	 0.0172889597	-1.190144821	-0.0133825414	-0.327249
C	 0.0044191067	 0.0120810217	-0.0038833753	 0.028814
C	-0.0095019357	 1.4590846354	 0.0048901693	 0.184343
C	-0.6564206543	 2.1873013219	 1.2369138937	-0.221224
C	-0.3544061908	 3.5928313964	 0.6401088387	-0.144945
C	 1.1629137559	 3.4250107523	 0.4221288959	-0.090092
C	 1.3726065724	 2.1670134489	 0.0434606207	-0.110661
C	-1.0428310455	 3.410761481	-0.7276858595	-0.090096
C	-0.8397653807	 2.1527019674	-1.1097459208	-0.110659
H	 0.026674789	-2.2517515532	-0.0180273011	 0.178724
H	-1.7227019388	 1.971911656	 1.336845105	 0.103791
H	-0.1255774113	 1.9822295149	 2.1693756708	 0.10379
H	-0.6613898348	 4.4634756566	 1.2182240089	 0.065214
H	 1.8875905534	 4.2224693194	 0.5151169538	 0.104135
H	 2.2930135839	 1.678592352	-0.243238859	 0.110992
H	-1.5421081185	 4.2003135835	-1.27273073	 0.104135
H	-1.1268492605	 1.6564679367	-2.0258443397	 0.110989
