16
gdb 91528	2.69726	1.49317	1.1278	2.4209	65.14	-0.247	0.0008	0.2478	1071.7049	0.123688	-475.010481	-475.00207	-475.001125	-475.043916	31.433	
N	-0.0817635355	 1.2896815737	 0.1200857867	-0.541712
C	 0.0486240321	-0.0685604715	 0.0489769312	 0.282143
O	 1.1007229821	-0.6641049024	 0.1430129767	-0.35064
C	-1.2666979545	-0.7516566056	-0.1857305486	 0.332917
O	-1.7116411306	-1.675404558	 0.8296337602	-0.28905
C	-1.6024561018	-2.1469284919	-0.5180689669	-0.047507
C	-2.9012669432	-1.7345728356	-1.2184537883	-0.293351
C	-2.5535998112	-0.237250902	-0.8531843813	 0.040689
O	-3.4135941878	 0.5074888169	-0.0317976937	-0.437454
H	 0.7300594121	 1.8282297608	 0.3780506756	 0.265188
H	-0.9926593327	 1.706386098	 0.2347053604	 0.272531
H	-0.9338242708	-2.9788075047	-0.6989657312	 0.132186
H	-2.9082694674	-1.9109985737	-2.2961247594	 0.118096
H	-3.8126771868	-2.135727477	-0.7695528101	 0.116038
H	-2.3614487239	 0.3639191879	-1.7447762045	 0.107534
H	-3.5018886501	 0.0042695551	 0.7885545233	 0.292392
