15
gdb 9136	3.60873	0.95046	0.80684	4.1666	70.61	-0.2781	-0.0091	0.2691	1402.6422	0.11681	-362.639188	-362.629915	-362.62897	-362.675129	31.234	
C	 0.1398664278	 1.2619832596	 0.5937115432	-0.368326
C	-0.1860552997	 0.2392848854	-0.5101399445	-0.320019
C	-1.4554513022	-0.4465402876	-0.2994086905	 0.089781
C	-2.5098555222	-0.9971212888	-0.112886497	 0.064865
C	-3.7726655678	-1.6966925005	 0.1303844591	-0.180638
O	-3.610168004	-2.9787516938	 0.7107802943	-0.384599
C	-4.6768003844	-0.8514745751	 0.9526500493	 0.280495
N	-5.382189721	-0.2119596741	 1.6065297201	-0.319858
H	 1.0971409655	 1.7481381023	 0.3860742471	 0.122133
H	-0.6338691141	 2.0317284879	 0.651468049	 0.138107
H	 0.2051826731	 0.7742057286	 1.5697930928	 0.131787
H	-0.2110101297	 0.7404604066	-1.4858808694	 0.141124
H	 0.6155747849	-0.5071853235	-0.5752151871	 0.139633
H	-4.2832964591	-1.8809144949	-0.8230401374	 0.167133
H	-3.061831467	-2.876738752	 1.4978911109	 0.298382
