22
gdb 78228	2.29002	1.50859	1.23299	1.1596	82.25	-0.2229	0.0716	0.2945	1153.8703	0.191869	-404.293599	-404.283741	-404.282797	-404.327294	37.879	
C	 0.2926411518	 1.6968563278	-0.611692703	-0.316622
N	 0.4334771265	 0.2738056196	-0.3427858955	-0.083805
C	 1.6763121662	-0.4486268817	-0.3828635258	-0.110245
C	 0.8657093248	-0.3484185196	 0.8865836415	-0.079141
C	 2.0620733211	 0.3008568519	 1.643369671	 0.270483
C	 1.8451678429	 1.629633456	 2.3690705847	-0.459695
C	 2.6417990689	-0.7326970601	 2.6169801996	-0.410591
C	 2.8505567669	 0.3165471762	 0.2846748092	 0.053303
O	 4.0624617077	-0.4048325139	 0.3576716603	-0.427882
H	 1.1723228059	 2.3148309291	-0.3910840794	 0.109838
H	 0.0601311343	 1.8200668342	-1.6748812897	 0.120334
H	-0.553082188	 2.0855456502	-0.0365462132	 0.124761
H	 1.7995658206	-1.2805903232	-1.0712195855	 0.088435
H	 0.2033457592	-1.0829536211	 1.3375615924	 0.085821
H	 1.1299225311	 1.5049793397	 3.1901700004	 0.114136
H	 2.785794498	 1.9857899863	 2.8051853617	 0.116075
H	 1.4623467867	 2.4162465109	 1.7166959176	 0.112346
H	 2.7853384022	-1.7043213093	 2.1399956168	 0.123081
H	 3.6111005981	-0.4056082475	 3.0029375811	 0.120835
H	 1.9603025727	-0.8608262091	 3.4655085435	 0.102785
H	 3.0286840235	 1.3226833567	-0.1205411954	 0.061049
H	 4.4334369888	-0.445785343	-0.5294915423	 0.284698
