17
gdb 43831	3.0197	1.46905	1.15108	2.2119	72.34	-0.2439	-0.0172	0.2266	1061.0881	0.136287	-421.823944	-421.816595	-421.815651	-421.855872	29.041	
O	 0.0897541072	-0.0167352181	 0.1580931956	-0.32837
C	 0.024915775	 1.1752505549	-0.0045347887	 0.42105
C	-1.2627291076	 1.9762544788	-0.261880609	-0.450826
C	-0.7917123738	 3.2317237232	-0.9878316941	 0.469282
C	-1.3975504312	 3.7145477618	-2.2333966941	-0.256047
O	-1.6325816151	 4.3850556958	-0.9889191405	-0.283533
C	 0.6752525987	 3.4184383953	-0.6892328044	-0.119221
C	 1.0532024645	 3.3864571241	 0.7568868356	-0.296821
C	 1.1851608226	 2.1183652346	-0.0749451302	-0.150715
H	-1.9800938567	 1.3755669122	-0.8232941038	 0.137575
H	-1.733627519	 2.2363010289	 0.6937623249	 0.145123
H	-0.7933462144	 4.2659803555	-2.9534808789	 0.116146
H	-2.2556555919	 3.1916472711	-2.6543715853	 0.118034
H	 1.281331437	 3.9852202757	-1.3858504927	 0.101789
H	 1.9871315535	 3.8586469392	 1.0387351487	 0.131549
H	 0.2782435508	 3.445770182	 1.5131734042	 0.132728
H	 2.1698824005	 1.7115232951	-0.2654788272	 0.112257
