18
gdb 30263	4.54996	1.2925	1.04657	3.0398	78.85	-0.179	0.0535	0.2325	1143.5651	0.149926	-401.985588	-401.978014	-401.97707	-402.017676	29.556	
C	-0.6178188042	 1.4056603429	-0.0304282087	-0.407818
C	 0.1991960321	 0.1310283548	 0.0230055052	 0.118097
C	 1.1153151978	-0.1243668502	-1.2083123849	-0.217285
N	 2.2573148695	-0.7187391573	-0.5511389601	-0.032707
C	 3.4791515807	-1.2738217728	-0.8855777479	-0.15326
C	 4.1913016309	-1.3882045774	 0.2848923307	-0.127278
C	 3.4035138525	-0.8674215026	 1.3681689382	-0.343358
C	 2.2328042308	-0.4607829774	 0.7874952068	 0.420362
O	 1.095088671	 0.1810689937	 1.1624562635	-0.292152
H	 0.033478349	 2.2751347345	-0.1581904235	 0.132747
H	-1.3230447501	 1.3692155123	-0.866932293	 0.123115
H	-1.1883243986	 1.5321284253	 0.8931475382	 0.138209
H	-0.4555528757	-0.7397043747	 0.1634106872	 0.096268
H	 0.6453548502	-0.7972850991	-1.9307612964	 0.125475
H	 1.3812248941	 0.8107840997	-1.7203449679	 0.117028
H	 3.7093461638	-1.5668745486	-1.8961137045	 0.112402
H	 5.1751879401	-1.8234841781	 0.3760066903	 0.092027
H	 3.6702088761	-0.811294285	 2.4100057168	 0.098128
