22
gdb 107968	2.65884	1.37277	1.32266	1.8392	86.57	-0.2233	0.0909	0.3142	1150.7641	0.193565	-367.132463	-367.123609	-367.122664	-367.165666	34.579	
C	-0.0345686445	 1.5572533615	-0.0101056789	-0.378082
C	-0.0017208639	 0.0241832777	-0.0461854019	-0.322459
C	 0.6329748676	-0.5164878173	-1.298436617	 0.350495
C	 0.2488778146	-0.2710483984	-2.7672888743	-0.315905
C	 1.5494141471	-1.0714978441	-2.8040699877	-0.038988
N	 2.1421354802	-0.2632471064	-1.6241841803	-0.190177
C	 2.502278764	-1.5726276019	-0.9340486884	-0.236267
C	 1.176788793	-1.9694911644	-1.5806331727	 0.268224
C	 0.4320382527	-3.2795603773	-1.5539152457	-0.525953
H	 0.9760279249	 1.9637788575	-0.1063525916	 0.139108
H	-0.6359085675	 1.9599211088	-0.8315150275	 0.117228
H	-0.4655091959	 1.9181654104	 0.9284298335	 0.109255
H	 0.544318306	-0.3558152894	 0.8267849777	 0.100907
H	-1.0205447816	-0.3783391388	 0.0301051333	 0.10084
H	-0.6547163209	-0.7652666936	-3.1343148576	 0.093422
H	 0.3128522091	 0.7627070303	-3.1180469582	 0.104938
H	 2.1836573818	-1.3386722427	-3.6521642427	 0.074875
H	 3.4193716905	-2.0285851611	-1.3246796042	 0.092642
H	 2.5550071308	-1.5003449658	 0.1578224912	 0.09385
H	 0.1653111107	-3.5602470668	-0.52874187	 0.12109
H	-0.4937888725	-3.2249465095	-2.1374608084	 0.119297
H	 1.0428452138	-4.0878798887	-1.9714312587	 0.121659
