12
gdb 21850	3.81669	1.91206	1.27388	2.2514	64.98	-0.2168	0.0146	0.2314	866.2556	0.084672	-377.511131	-377.504186	-377.503242	-377.542109	26.097	
O	 0.1001043817	 1.3057082172	 0.1111097527	-0.421258
C	 0.0568681466	-0.0268187805	-0.0237171489	 0.349948
C	 0.0227766662	-0.8440435542	-1.149610207	 0.004114
C	-0.0146010642	-2.1571809915	-0.5977989942	-0.102218
N	-0.0053699817	-2.1527952696	 0.7229325884	-0.225018
N	 0.0390923921	-0.8292727439	 1.0545298438	-0.251336
C	 0.0278198258	-0.3823076548	-2.479862318	 0.183433
C	 0.0341775238	 0.0659466081	-3.5998530936	-0.452408
H	 0.1059546005	 1.6887607917	-0.7763199782	 0.318337
H	-0.0479753999	-3.091786106	-1.1374320846	 0.122548
H	 0.0547870906	-0.5508889749	 2.0209878387	 0.284111
H	 0.0392504784	 0.4384338585	-4.5939275992	 0.189747
