21
gdb 102722	1.95739	1.16257	0.8059	4.4355	83.55	-0.2336	0.0323	0.2658	1488.2051	0.181783	-383.259448	-383.249354	-383.24841	-383.295483	36.465	
C	 0.2554082522	 1.4985233988	 0.4492726419	-0.407143
C	 0.0991521538	 0.0378430648	 0.0159820649	-0.190066
C	 0.8278534978	-0.2914473866	-1.3040027926	-0.095112
N	 2.2798815701	-0.20826072	-1.1478571789	-0.308896
C	 3.0258003859	-0.3391272041	-2.3750123384	 0.060968
C	 3.0724924301	 0.7609858713	-3.4183820394	-0.274568
C	 4.282790135	 0.4510667809	-2.5615931138	-0.293764
C	 0.4657142855	-1.6522732266	-1.7424659654	 0.304796
N	 0.1602633896	-2.7104001152	-2.0916535422	-0.33438
H	 1.2877264876	 1.7492490315	 0.7150580335	 0.123016
H	-0.0679904917	 2.185619995	-0.3404615503	 0.123089
H	-0.3558125631	 1.6978146194	 1.3339595621	 0.13017
H	 0.4745383655	-0.636218607	 0.7924794993	 0.1289
H	-0.9624101786	-0.1897092103	-0.1222309965	 0.123395
H	 0.4523559993	 0.3915709785	-2.0892814045	 0.103879
H	 2.5117781711	 0.6632492367	-0.6863659208	 0.22368
H	 3.0284822773	-1.3589179763	-2.7489012617	 0.120082
H	 3.0934899134	 0.4879611041	-4.4677187112	 0.120041
H	 2.5375510003	 1.6813494699	-3.2052797127	 0.106625
H	 4.5486595081	 1.16794128	-1.7903156301	 0.111895
H	 5.1365336208	-0.0377739748	-3.0166456232	 0.123393
