19
gdb 77637	2.15445	1.44498	1.33039	4.8894	82.16	-0.2591	0.0127	0.2718	1118.9856	0.158456	-382.049155	-382.04012	-382.039175	-382.082489	33.911	
C	-0.0916011798	 1.4795520396	 0.0523224707	-0.331615
N	 0.1209370811	 0.0479851013	-0.1103967185	-0.143835
C	 0.6906098116	-0.5654998083	-1.28522727	 0.260494
C	-0.0577330422	-1.6590183402	-1.9854267565	-0.478838
C	 1.8200075956	 0.288208017	-1.9050932948	-0.287883
C	 2.5764690139	 0.2709884425	-0.5438595014	-0.296761
C	 1.4268744253	-0.5645381932	 0.0602125503	 0.147725
C	 1.5864974067	-1.6042314614	 1.0317013263	 0.226809
N	 1.7482994595	-2.448901013	 1.8061337767	-0.35413
H	 0.7012916253	 2.121701753	-0.3532091431	 0.112325
H	-1.0317098422	 1.7442784964	-0.4401980017	 0.133177
H	-0.1956612785	 1.6948513075	 1.1193102063	 0.139272
H	-0.761343298	-1.2361475079	-2.7124541185	 0.128397
H	 0.6262185568	-2.3196862702	-2.5272206476	 0.126852
H	-0.6281857888	-2.2502463613	-1.2655137222	 0.147613
H	 2.3606770817	-0.2504454276	-2.6854487418	 0.117727
H	 1.5190066392	 1.2623817574	-2.2995214579	 0.109225
H	 3.5077384869	-0.2949611881	-0.5910227743	 0.129423
H	 2.7723093759	 1.2300304668	-0.057274192	 0.114022
