19
gdb 39450	2.41162	1.9322	1.30522	1.4455	74.15	-0.2511	0.0725	0.3236	1007.3251	0.161225	-423.000588	-422.993351	-422.992407	-423.03207	29.188	
C	-0.0315381526	 1.5147443002	 0.0579015483	-0.170104
O	 1.4104132255	 1.4892916941	-0.0991124524	-0.299462
C	 1.3963561633	 0.0887463619	-0.510353556	 0.07484
C	 2.4704678374	-0.796089829	 0.1200487769	-0.231146
C	 2.075953792	-1.3372372637	 1.503983259	-0.207691
C	 0.6789703858	-1.9949749052	 1.4733102855	-0.23519
C	-0.3619721609	-0.9464258395	 1.1175637948	-0.034108
O	-0.9801587652	-0.9827281894	-0.1973155278	-0.297444
C	-0.0104602896	-0.0046555073	 0.0623967108	 0.357534
H	-0.3451802582	 2.032451118	 0.9702182577	 0.111885
H	-0.5310059371	 1.9605002911	-0.8133822002	 0.107483
H	 1.4271623161	 0.0273161199	-1.6073685087	 0.078095
H	 2.6516051746	-1.6413387873	-0.5559258804	 0.104228
H	 3.4053812831	-0.2271258197	 0.1696350207	 0.115846
H	 2.8263721622	-2.0580637012	 1.8441830442	 0.098412
H	 2.0703644218	-0.5190181729	 2.2347861971	 0.108938
H	 0.6531563717	-2.7938584915	 0.7231501406	 0.116358
H	 0.4459799116	-2.4515792343	 2.4398148719	 0.10233
H	-1.0477286413	-0.6260318142	 1.9003272182	 0.099195
