21
gdb 92549	3.05071	1.42583	1.12052	0.9731	84.82	-0.2381	0.0192	0.2573	1162.5318	0.183925	-387.091781	-387.083717	-387.082772	-387.124245	32.162	
C	-0.1372653498	 1.5160425692	-0.022867147	-0.397383
C	 0.0103068132	-0.0031221336	-0.0028652599	 0.094175
O	 0.7535100208	-0.3527391089	-1.1658768141	-0.282642
C	 1.0881861832	-1.7247876211	-1.2547139604	 0.116892
C	 2.3572170063	-1.8750562481	-2.1210468777	-0.236617
C	 3.214175544	-1.894957931	-0.8238766039	-0.235987
C	 1.9029355636	-2.1966207215	-0.0207043239	-0.042087
C	 1.5872614501	-1.4702676221	 1.2443644614	-0.100983
C	 0.6847068381	-0.4913443045	 1.2589053076	-0.068467
H	 0.8447106208	 1.9920528378	 0.0530339818	 0.125439
H	-0.6078628431	 1.8358811274	-0.9560545255	 0.122983
H	-0.7553468968	 1.8524247349	 0.8150032118	 0.111994
H	-0.9984977667	-0.452845472	-0.0696801275	 0.07102
H	 0.2024948536	-2.3182690775	-1.5252446197	 0.054034
H	 2.3764613088	-2.8335167617	-2.646619667	 0.09919
H	 2.5306577863	-1.0680231982	-2.8351628859	 0.108886
H	 4.015983473	-2.6336853562	-0.7615655975	 0.094953
H	 3.616376403	-0.9097650218	-0.5797740688	 0.110999
H	 1.7946875834	-3.2783651241	 0.1199671367	 0.076768
H	 2.0929253339	-1.7747382264	 2.1580140032	 0.088378
H	 0.4105338944	 0.0104031196	 2.1833344962	 0.088452
