18
gdb 99229	2.81231	1.01299	0.83845	4.0677	70.38	-0.2303	0.0273	0.2576	1396.6718	0.148008	-472.4795	-472.469365	-472.468421	-472.51554	35.515	
C	 1.1517313341	 0.4665456017	-0.3109913803	-0.332305
N	 0.6816328203	-0.7061562344	 0.3975275943	-0.296989
C	-0.0134221401	-0.6240495552	 1.5601077745	 0.372449
O	-0.351037887	 0.4174931068	 2.0990490863	-0.3791
C	-0.3639896892	-1.9958147634	 2.1708234948	-0.265047
N	 0.7832942459	-2.7505327878	 2.6576781075	-0.328375
C	 1.5704289828	-3.4714747993	 1.7976721385	 0.462318
N	 2.6603607835	-4.0827645218	 2.3901013786	-0.556561
O	 1.34593715	-3.5566756344	 0.5956076156	-0.406339
H	 0.7804893235	 1.3451033165	 0.2182292759	 0.163106
H	 2.2470829982	 0.504794666	-0.3426332019	 0.12234
H	 0.7761223186	 0.4827082199	-1.3400360825	 0.124265
H	 0.9357910207	-1.6333039037	 0.0742170491	 0.272342
H	-1.0401383149	-1.8085353418	 3.0057863643	 0.129774
H	-0.8736290157	-2.6147966573	 1.4277935603	 0.144039
H	 1.1812759446	-2.4615548942	 3.5372439682	 0.253625
H	 2.5772143771	-4.3785248989	 3.3506780451	 0.254296
H	 3.1144816576	-4.7488778786	 1.7844637815	 0.266161
