17
gdb 128544	1.98565	1.82994	0.99787	2.823	71.16	-0.205	0.0353	0.2403	1165.6204	0.135733	-455.129043	-455.119758	-455.118814	-455.164697	32.018	
C	-0.2453048192	 0.2083973642	-0.5847915991	-0.247557
O	 0.2042618573	 0.6029684994	 0.7105082029	-0.27281
C	 0.7321944976	-0.3587441452	 1.4858385382	 0.378275
C	 1.1700723937	-1.663402763	 1.2943574854	 0.101179
O	 1.1877767546	-2.3533183764	 0.1115210703	-0.281104
C	 0.3909736924	-3.5315648651	 0.1012176165	-0.249112
C	 1.6543196693	-2.0611607323	 2.5641658611	-0.084536
N	 1.5342392086	-1.0983316091	 3.4696653729	-0.234169
N	 0.9717680471	-0.0714578327	 2.7881287991	-0.270893
H	-1.0468434288	-0.5356962927	-0.5105605626	 0.125941
H	-0.6311294873	 1.1151127978	-1.0526209023	 0.134858
H	 0.5724578948	-0.2051722352	-1.1798113452	 0.150671
H	 0.7225403388	-4.2504890207	 0.8606537869	 0.122671
H	-0.6677566649	-3.2983855046	 0.2781219145	 0.110873
H	 0.5058556869	-3.9798016046	-0.888296793	 0.128854
H	 2.0881116455	-3.0113046294	 2.839954602	 0.111996
H	 0.7875723035	 0.8030994397	 3.2489069924	 0.274864
