15
gdb 14858	3.1751	1.61951	1.18679	3.1235	61.26	-0.2685	0.01	0.2785	977.1426	0.119021	-399.782989	-399.775144	-399.7742	-399.815959	27.533	
O	-0.0600488698	 1.4047665483	-0.2656759301	-0.416778
C	 0.0657748213	 0.0065343515	-0.1181116997	-0.077493
C	-1.2840075828	-0.5858414543	 0.2530397916	 0.111238
O	-2.260040196	-0.2903990541	-0.7778978239	-0.293336
C	-2.4083527149	-1.6797486997	-1.1225087929	-0.077573
C	-1.5062538592	-2.1180521141	 0.0639647373	-0.232749
C	-0.3574058214	-2.9546878497	-0.2346417448	 0.284563
N	 0.5533448762	-3.6226015391	-0.4818700389	-0.323268
H	-0.7599622544	 1.545763103	-0.9152512864	 0.295428
H	 0.4459464442	-0.4708600421	-1.0345613139	 0.104492
H	 0.7942366417	-0.1754398388	 0.6790451096	 0.124521
H	-1.615179709	-0.1960102073	 1.2214543242	 0.103858
H	-3.4495791796	-2.0110176364	-1.0649246707	 0.126531
H	-2.0017376209	-1.9131832516	-2.1122197088	 0.13008
H	-2.0712273753	-2.5625578456	 0.8852423474	 0.140484
