14
gdb 99467	2.45702	1.1974	0.87475	2.7253	68.93	-0.2841	-0.0988	0.1853	1258.9569	0.097465	-436.655392	-436.645798	-436.644854	-436.690949	32.912	
O	 0.1532367684	 1.424760241	-0.1240889879	-0.41694
C	 0.1510592241	 0.0183047333	-0.1007582967	-0.065917
C	-1.2822539199	-0.5389085567	 0.0870358707	-0.280188
C	-2.1633186241	-0.1290814925	-1.0016085892	 0.293611
C	-2.8440814327	 0.2142123041	-1.9308358562	-0.446079
C	-1.2727792438	-2.0629849146	 0.2259731479	 0.296169
O	-0.2730224297	-2.7307531389	 0.245670896	-0.261244
C	-2.6002381982	-2.6941865347	 0.3696055005	 0.253383
N	-3.6341581443	-3.1909120491	 0.5142577944	-0.294273
H	-0.3576597838	 1.7081228936	-0.8913256483	 0.292117
H	 0.5885355912	-0.4204794804	-1.0072550486	 0.117124
H	 0.7652824391	-0.2883870627	 0.7485279161	 0.135054
H	-1.6828344671	-0.140394891	 1.0319639299	 0.157239
H	-3.469457149	 0.5101675085	-2.7376389087	 0.219943
