22
gdb 87713	2.98242	1.13574	1.05829	1.9357	83.68	-0.222	0.0641	0.286	1289.6773	0.192529	-404.303534	-404.29378	-404.292836	-404.33781	36.964	
C	 0.0421483906	 1.6050898428	-0.0292646836	-0.426975
C	 0.0290704381	 0.086155837	 0.0284097033	 0.020304
C	 0.931975992	-0.7046700475	-0.9681250766	-0.331512
C	 1.2931004282	-1.6336800212	 0.2010521682	 0.397757
C	 1.1220236043	-3.1106376269	 0.2215759659	-0.324916
N	 2.4354634296	-2.4943528048	 0.3979171273	-0.12059
C	 3.3851548275	-2.615572167	-0.6980541528	-0.316271
C	 0.774276359	-0.6172096019	 1.2190495825	-0.000809
O	 1.8625740101	 0.1234431556	 1.7385250891	-0.424311
H	 1.060254713	 1.9866746891	 0.0932670391	 0.124976
H	-0.3399715698	 1.9644584543	-0.9906091487	 0.117288
H	-0.5842709278	 2.044723303	 0.7564072236	 0.106617
H	-0.9980191344	-0.2907300679	-0.0217751057	 0.070919
H	 0.4478057397	-1.1420866841	-1.844335944	 0.09775
H	 1.7876896764	-0.1060748189	-1.2977761492	 0.108357
H	 0.7160803388	-3.6189849164	 1.0933612261	 0.111219
H	 0.9018180185	-3.591344356	-0.7322540938	 0.100331
H	 2.919087121	-2.596824579	-1.6969915227	 0.098088
H	 4.1063482848	-1.7943815134	-0.6398625112	 0.128195
H	 3.9325700344	-3.5577062658	-0.59473619	 0.12095
H	 0.1404509013	-1.0073779825	 2.0273025113	 0.058159
H	 1.5041099745	 0.8335768415	 2.2808880218	 0.284475
