18
gdb 117869	4.25577	0.58599	0.52954	5.1155	88.37	-0.2749	-0.0383	0.2365	2010.9382	0.145525	-401.930859	-401.920516	-401.919572	-401.96723	35.285	
C	-0.0276219653	 1.3787351086	 0.0306261387	-0.23403
O	 0.0051193632	-0.0307656521	-0.0084384718	-0.231832
C	 0.6407669179	-0.5344107493	-1.1567812236	-0.050305
C	 0.5799758137	-2.0727234309	-1.0823828225	-0.198711
C	-0.8733547384	-2.5904675772	-1.080188931	-0.388709
C	 1.3544051388	-2.6553549299	-2.1687752143	 0.110909
C	 1.9877501368	-3.1304657981	-3.0822540152	 0.020533
C	 2.7028124383	-3.6692278832	-4.1126860749	 0.203463
N	 3.3113833331	-4.1266748484	-4.9904202668	-0.337993
H	 0.9857063073	 1.8085937328	 0.0317203501	 0.111992
H	-0.5788917784	 1.7961538009	-0.8258456888	 0.111702
H	-0.5356316854	 1.6656255977	 0.9538713445	 0.134545
H	 0.1387714076	-0.185394567	-2.0746689163	 0.101691
H	 1.6895222445	-0.2011038412	-1.2050668647	 0.104544
H	 1.0545876817	-2.3608738537	-0.1345284644	 0.134226
H	-0.9000401883	-3.6748734905	-0.9514209772	 0.131921
H	-1.418706617	-2.1179957356	-0.2616405496	 0.146177
H	-1.3707367004	-2.3440280328	-2.0229204822	 0.129876
