18
gdb 39737	3.78232	1.55396	1.35316	1.3623	83.29	-0.2137	-0.0408	0.1729	981.4734	0.148815	-364.677219	-364.670445	-364.669501	-364.70798	28.49	
C	-0.2484513386	 1.3792097623	-0.3217653927	-0.324332
N	 1.0931802688	 0.9106848049	 0.1251907056	-0.378457
C	 0.0277646898	-0.046757205	-0.0913708983	 0.348022
C	-0.3342425867	-1.0557764109	 1.0343708153	-0.113096
C	-1.2372103801	-2.3018056661	 0.6788353278	-0.058045
C	-2.1278576914	-2.3731943962	-0.5755028036	-0.264993
C	-1.3190067284	-1.4632296497	-1.4895532613	-0.074898
C	-0.0737693536	-1.2798121176	-0.9951075213	-0.090523
C	 0.169630908	-2.2115105714	 0.2107884353	-0.10571
H	-0.7892451007	 1.9699334621	 0.4129823907	 0.118644
H	-0.3651448653	 1.7169031172	-1.3491789352	 0.112595
H	 1.7479158538	 0.9035673958	-0.6523458571	 0.234652
H	-0.1055793734	-0.8632643322	 2.0789256355	 0.097742
H	-1.4908975908	-2.9002609955	 1.5522066405	 0.08143
H	-2.2567508742	-3.4187988022	-0.8893352646	 0.112559
H	-3.1322748665	-1.9493959675	-0.4550990001	 0.111614
H	-1.8232069865	-0.7013757814	-2.0778244652	 0.101236
H	 1.0090938558	-2.8707254465	 0.3846757487	 0.091561
