14
gdb 20469	6.32754	1.38792	1.23061	3.3962	63.63	-0.2362	0.0166	0.2528	941.6202	0.109512	-378.713043	-378.706465	-378.705521	-378.744535	24.066	
C	 0.214147127	 1.5350251634	 0.0262073419	-0.180771
O	 1.1728444695	 0.5063430064	-0.209026817	-0.232058
C	-0.1892470254	 0.116500401	 0.0135270403	-0.045933
C	-0.4670862866	-0.6411642878	 1.2474722357	 0.230998
C	-1.5195893801	-1.5011615093	 1.4954861824	-0.144623
N	-1.357542148	-1.9477065933	 2.7643516015	-0.178235
N	-0.2620273692	-1.4491216578	 3.3672173611	-0.220635
C	 0.2808557804	-0.6554223287	 2.4508708776	-0.087722
H	 0.3021274712	 2.049386987	 0.9820487984	 0.116881
H	-0.0135036312	 2.1704209758	-0.8293837941	 0.115588
H	-0.6984218812	-0.2443512041	-0.880778813	 0.089831
H	-2.3479062302	-1.8164821041	 0.8805777825	 0.136388
H	-1.9402907332	-2.5936479045	 3.2689576185	 0.276342
H	 1.2000954569	-0.130792564	 2.662939724	 0.123948
