13
gdb 42616	2.66127	2.19927	1.48748	6.2321	61.69	-0.2577	-0.0347	0.223	838.3188	0.090754	-452.750076	-452.74375	-452.742806	-452.780842	24.873	
O	 0.0354414302	 0.0984623811	 0.322238652	-0.29069
C	-0.0641792576	 1.2601064291	 0.1054131179	 0.425802
C	-1.1425698902	 2.2634299453	-0.083038267	-0.250737
C	-0.6726857712	 3.605295102	 0.6113174913	-0.010148
N	 0.3638912529	 3.5916817048	 1.5969442395	-0.332355
C	 1.3974867793	 2.7548830857	 1.1719422803	 0.399667
O	 2.3587581924	 2.4142580123	 1.7940256237	-0.32694
N	 1.0167634254	 2.2772890177	-0.1652166238	-0.246576
C	-0.0630128934	 3.1893900407	-0.6516323945	-0.037608
H	-2.1736544975	 2.1114017611	-0.3732976636	 0.127469
H	-1.4178978314	 4.3884855071	 0.6698169168	 0.138803
H	 0.1810752402	 3.6483796438	 2.587221084	 0.268527
H	 0.0050039509	 3.6824270493	-1.6106883168	 0.134789
