20
gdb 81871	2.87432	1.4184	1.09623	3.6048	80.2	-0.2257	0.0317	0.2574	1167.1737	0.171217	-403.189878	-403.181066	-403.180122	-403.223068	33.512	
C	-0.0882618707	 1.4165387897	-0.1049876016	-0.347463
N	-0.0318561625	-0.0160136226	 0.0800818028	-0.061407
C	-1.1950293315	-0.8533905527	 0.0493869119	-0.041193
C	-1.4034237757	-1.6762922931	-1.2039552216	-0.346694
C	-0.7206852454	-2.2852666804	 0.0081776356	 0.328627
C	-1.4143550547	-3.3823900849	 0.780209252	-0.478822
C	 0.8001676236	-2.2158974728	 0.0434420823	-0.421206
C	 1.1485363261	-0.7199340104	 0.0103355704	 0.39934
O	 2.2559946546	-0.2330030015	-0.0802637458	-0.389634
H	 0.938997655	 1.7850535427	-0.1146412889	 0.164311
H	-0.5755065053	 1.6782988228	-1.0529497255	 0.123231
H	-0.6387587818	 1.8983969762	 0.7112180266	 0.122389
H	-2.034793246	-0.5334676798	 0.6584357179	 0.096899
H	-2.408114364	-2.0234691266	-1.4231399557	 0.113866
H	-0.8105118257	-1.4189243231	-2.0765622648	 0.116697
H	-2.5002695476	-3.2442910421	 0.7814224889	 0.116136
H	-1.2070255221	-4.3650383752	 0.3411644629	 0.124124
H	-1.0782901245	-3.4062522325	 1.8231459274	 0.120836
H	 1.2030574613	-2.6538547251	 0.9635671463	 0.12735
H	 1.2936184169	-2.7189169586	-0.7933080812	 0.132614
