17
gdb 82897	2.52006	2.02996	1.50509	0.9123	66.44	-0.229	0.0711	0.3001	903.9265	0.136944	-458.912649	-458.90557	-458.904625	-458.943694	29.127	
O	 0.1761274891	 1.431485118	-0.0780804763	-0.453603
C	 0.0401050284	 0.0414005464	-0.041723123	 0.094031
C	 0.128148766	-0.6802660141	 1.3245762684	 0.004168
O	-0.8304715707	 0.0809543875	 2.0958960427	-0.287479
C	-2.0046441427	-0.3212138357	 1.3611464425	-0.001105
C	-2.0610135035	-1.8403823306	 1.6183774892	-0.249366
C	-0.7877753088	-1.8371945958	 0.7568874456	-0.108471
C	-1.3481633111	-0.6254234057	-0.0677763679	 0.331806
O	-2.1513067523	-0.8048791868	-1.1789283699	-0.482109
H	-0.1788638736	 1.7419427332	 0.7664978236	 0.287782
H	 0.6920270715	-0.4031971096	-0.7987826073	 0.095695
H	 1.0506458028	-0.8339169829	 1.8793419091	 0.086768
H	-2.8331235505	 0.365423023	 1.5283046004	 0.081819
H	-2.0171308585	-2.1687624106	 2.6591838087	 0.103033
H	-2.8843539676	-2.3197507688	 1.0847314177	 0.119614
H	-0.3161331325	-2.7131951046	 0.317836969	 0.085817
H	-2.4088246061	 0.0644807869	-1.5069075725	 0.291599
