23
gdb 60008	1.96261	1.14471	0.82058	1.3195	87.89	-0.2456	0.0571	0.3027	1515.1196	0.20109	-388.264391	-388.252971	-388.252027	-388.301547	41.456	
C	-0.1186529101	 1.51828708	 0.009850334	-0.381487
C	 0.0048177567	-0.0067080222	-0.0291296818	 0.145422
C	 0.8239479406	-0.4897892074	-1.2214917961	-0.386734
O	 0.6611513824	-0.4937449116	 1.141645449	-0.269039
C	-0.1577342315	-0.6875010247	 2.2830246085	 0.135598
C	-0.745141743	-2.1008897534	 2.2949089487	-0.398163
C	 0.7301584657	-0.4374899693	 3.5174530013	-0.361251
C	 1.1473593699	 0.9516258342	 3.6560176892	 0.309709
C	 1.4684547601	 2.1035484552	 3.7770234746	-0.446682
H	 0.8752018265	 1.9747337117	 0.0442180888	 0.125602
H	-0.6434095961	 1.8855860878	-0.8784556714	 0.106588
H	-0.6713405956	 1.853033437	 0.8922672434	 0.12054
H	-1.0031643276	-0.4473763308	-0.0915662058	 0.063993
H	 1.844551063	-0.0989203904	-1.1592141352	 0.125011
H	 0.8774319917	-1.5816727954	-1.2347366873	 0.116308
H	 0.3800474772	-0.1483117528	-2.1615209395	 0.110228
H	-0.9750177293	 0.0477692333	 2.2945417352	 0.078475
H	 0.0570610945	-2.8451319162	 2.3280228813	 0.123047
H	-1.3987452639	-2.25101223	 3.1605522217	 0.112021
H	-1.3366890546	-2.2804407545	 1.392378516	 0.118188
H	 0.1881205892	-0.7513269524	 4.4179508692	 0.124173
H	 1.6103104251	-1.0872136792	 3.4342795195	 0.136552
H	 1.7636868292	 3.1176642412	 3.8833382266	 0.191902
