16
gdb 74070	3.55521	1.20655	0.90642	7.792	78.26	-0.2257	-0.0153	0.2104	1223.9232	0.125521	-434.113015	-434.104557	-434.103612	-434.14626	31.156	
N	 0.1533596614	 1.3145438786	 0.1311214734	-0.581378
C	-0.0243795851	-0.0382295272	 0.0418915631	 0.356893
C	-1.1550560711	-0.7693685195	 0.023707851	-0.350928
C	-0.8364023824	-2.2038401371	-0.0045099458	 0.451615
O	-1.587560551	-3.1447484679	-0.0292809316	-0.355568
N	 0.593305674	-2.2760783828	-0.0029902785	-0.129343
C	 1.1786778531	-0.9484407004	 0.0333845981	-0.255815
C	 1.4036426811	-3.3976615738	-0.0303851171	 0.089075
N	 0.9851314587	-4.5958348108	-0.0654175972	-0.424874
H	 1.0265950459	 1.6955236491	-0.1979460373	 0.259819
H	-0.6452866423	 1.898045626	-0.0631399448	 0.266359
H	-2.1754525516	-0.4160719216	 0.0277785585	 0.110561
H	 1.8159522614	-0.7572165885	-0.8427438158	 0.125967
H	 1.7936892734	-0.7920560447	 0.9305277158	 0.137619
H	 2.463985649	-3.1055183868	-0.0175785412	 0.077784
H	 1.7818890855	-5.2305550426	-0.0789302706	 0.222214
