17
gdb 17477	3.57708	2.4967	1.96113	1.6296	71.61	-0.2249	0.0047	0.2295	750.067	0.143624	-326.682105	-326.675774	-326.67483	-326.711966	26.27	
C	-0.0341282673	 1.5507328478	 0.0306195992	-0.501925
C	-0.026113631	 0.0378429902	 0.053979047	 0.260032
C	 0.3115852046	-0.7533737732	-1.2678845822	-0.168256
N	-0.8112122877	-1.7077732695	-1.0638665963	-0.163201
C	-0.8645506289	-2.1093420517	 0.4255521891	-0.060875
C	 0.3294466316	-1.9104225141	 1.2825388779	-0.091775
C	 0.7817518999	-0.6599606636	 1.1251384219	-0.140134
C	-1.3533986779	-0.7888562353	-0.0179745499	-0.0853
H	 0.9821626713	 1.9470544691	-0.073694477	 0.119634
H	-0.6274910103	 1.9323030478	-0.807072156	 0.117612
H	-0.4556503578	 1.9588963898	 0.9556885551	 0.122916
H	 0.0728522868	-0.1631492545	-2.1570504571	 0.110359
H	 1.3104196671	-1.1923728419	-1.362313785	 0.09711
H	-1.5396593565	-2.945249633	 0.5603962872	 0.096197
H	 0.7775708887	-2.6948336014	 1.8787880349	 0.101026
H	 1.6952004017	-0.2451564163	 1.536306536	 0.097478
H	-2.3776810142	-0.4265598802	-0.0095602448	 0.089101
