16
gdb 7092	5.39871	0.82346	0.72421	4.4623	73.37	-0.2549	-0.0458	0.2091	1548.4183	0.126504	-383.714219	-383.704362	-383.703418	-383.751845	31.717	
C	 0.0396695269	 1.4006297486	-0.0933158518	-0.226007
O	 0.0023707527	-0.0045516795	 0.0015016384	-0.21211
C	 0.617200216	-0.6357391903	-1.076592166	-0.158152
C	 0.5439115871	-2.1507715822	-0.9164585923	 0.207146
O	 0.0195379043	-2.6969533009	 0.025061738	-0.262757
C	 1.1659410699	-2.8799517314	-2.0057459812	 0.015067
C	 1.6830988649	-3.4879246671	-2.9110950617	 0.080949
C	 2.3025975015	-4.2318596298	-3.9941406312	-0.502648
H	 1.0728181477	 1.7820518841	-0.1171339692	 0.105655
H	-0.4812903951	 1.7641778432	-0.9932484571	 0.105656
H	-0.4636182756	 1.7965115369	 0.7913732746	 0.135319
H	 0.1444772183	-0.3728752293	-2.041372232	 0.112293
H	 1.6827892361	-0.3557283851	-1.1741157814	 0.112299
H	 2.2103506355	-5.3114439885	-3.8379700184	 0.164181
H	 1.834752245	-3.9860500474	-4.9536108769	 0.161467
H	 3.3680474148	-3.9900146814	-4.0733158618	 0.161639
