23
gdb 81852	2.62759	1.40274	1.04973	0.267	92.21	-0.2143	0.0286	0.2429	1262.4367	0.2053	-351.171983	-351.162585	-351.161641	-351.205291	36.941	
C	-0.1709052338	 1.565343119	 0.002171506	-0.393427
C	 0.0295375492	 0.0419128201	-0.0077070197	-0.091137
C	 0.8471677724	-0.4799212089	-1.1924537107	-0.091732
C	 2.3030196395	-0.0861069122	-1.3093772314	-0.323094
C	 1.9270124619	-1.4079211936	-0.6633896218	 0.334171
C	 2.3096859428	-2.7211096341	-1.3043463652	-0.485149
C	 1.778579391	-1.3180757541	 0.8227512659	-0.26042
C	 0.7792362373	-0.5142602942	 1.2017805893	 0.319898
C	 0.3872840772	-0.1668321463	 2.6039105646	-0.492696
H	 0.7892435615	 2.0905269993	 0.0261163297	 0.115678
H	-0.7073391675	 1.8893934784	-0.8953417472	 0.113265
H	-0.7540339704	 1.8878480602	 0.8709227091	 0.110717
H	-0.9717237005	-0.4169344262	-0.0362012509	 0.073343
H	 0.3251613192	-0.7166283135	-2.1135060217	 0.075788
H	 2.7315236967	-0.1194000794	-2.3070087852	 0.101325
H	 2.7000452066	 0.699742345	-0.6752259457	 0.104982
H	 2.304671834	-2.643440335	-2.396234177	 0.112284
H	 3.3168509608	-3.0324234846	-1.0017498542	 0.114646
H	 1.6165780298	-3.5215992225	-1.02126444	 0.115611
H	 2.441410253	-1.8444563953	 1.5034845124	 0.079587
H	 0.9915046122	-0.7125981816	 3.3338810156	 0.120674
H	 0.5053784678	 0.9051569142	 2.806189799	 0.125822
H	-0.6686716306	-0.4025750646	 2.7922733092	 0.119861
