14
gdb 22581	4.39957	1.07484	0.91032	4.8482	61.86	-0.2772	-0.026	0.2512	1190.7688	0.100687	-510.951351	-510.943527	-510.942583	-510.984351	28.294	
O	-0.048806952	 1.3623906431	 0.0150762734	-0.389921
N	 0.0978595331	-0.0287250604	-0.0153663322	-0.18031
C	-1.0341488278	-0.6041353433	 0.0626332573	 0.340924
C	-2.3621757065	 0.0786769533	 0.216601092	-0.158877
O	-3.4392430499	-0.8676663988	 0.2584657041	-0.252303
C	-3.3073169292	-2.008152435	 0.9846937532	 0.465768
O	-4.2365182648	-2.5362818162	 1.50988985	-0.347347
O	-2.0564454268	-2.5225642454	 1.0474673634	-0.240552
C	-1.1183728664	-2.0962186641	 0.0441702363	-0.169359
H	 0.8619794878	 1.6734262496	-0.0312207495	 0.318307
H	-2.3733253741	 0.6960144228	 1.1231961231	 0.156348
H	-2.5702420205	 0.7377143569	-0.630487673	 0.161129
H	-1.4532771924	-2.4615099563	-0.9353836731	 0.140264
H	-0.1627916705	-2.558206106	 0.2893795449	 0.155929
