21
gdb 97883	4.50707	0.58118	0.52868	2.1616	89.16	-0.2377	-0.0094	0.2284	2161.4619	0.178578	-387.095411	-387.08392	-387.082976	-387.136408	38.613	
C	 0.1005248829	 0.7946833844	 0.9061005993	-0.362807
C	-0.3378717854	 0.6954581929	-0.5666936675	-0.315901
C	-1.5124022455	-0.1497844206	-0.7526956015	 0.137603
C	-2.4789106335	-0.856574111	-0.8735949878	 0.040695
C	-3.6409832138	-1.7158616626	-1.0184719593	-0.487573
C	-3.7264753305	-2.8675733141	 0.0020670258	 0.385507
O	-2.845739797	-3.10653589	 0.7887652877	-0.276082
C	-5.0117944261	-3.6848327517	-0.063272729	-0.276273
C	-5.0102518223	-4.8933779504	 0.8692687401	-0.379392
H	 0.9875816804	 1.4286612222	 0.9982612779	 0.110804
H	-0.6962396678	 1.2235440976	 1.5197740736	 0.126727
H	 0.336587648	-0.1946377256	 1.3063158131	 0.136552
H	-0.5445289647	 1.7004689993	-0.9570976142	 0.12513
H	 0.4914447866	 0.3037618232	-1.1697494733	 0.127576
H	-4.5731164354	-1.1370652398	-0.9523897437	 0.141685
H	-3.6657149496	-2.1739504652	-2.0185105365	 0.147359
H	-5.8446559953	-3.0070318524	 0.1724601021	 0.123864
H	-5.1776356371	-3.9843697263	-1.1070989719	 0.118337
H	-5.9590566349	-5.4331031031	 0.8041591317	 0.110134
H	-4.2017214571	-5.5831071928	 0.6133793027	 0.13071
H	-4.8556835219	-4.583354294	 1.9054364406	 0.135347
