14
gdb 24512	4.00017	1.72896	1.20719	2.7543	76.75	-0.2329	-0.0359	0.1971	941.5492	0.105616	-399.635732	-399.629972	-399.629028	-399.665726	23.596	
O	-0.0672017167	 1.3001857544	 0.0095860706	-0.194146
C	 1.2054330231	 1.8003847075	 0.0004054791	 0.016147
C	 2.1503705048	 0.8302921651	-0.0139184708	-0.338154
C	 1.4272481343	-0.4135650051	-0.0139873241	 0.24125
C	 0.0620597892	-0.0573449909	 0.0008004411	 0.393868
N	-0.9833227589	-0.8532512162	 0.0062194716	-0.341143
C	-0.6750255563	-2.1561833151	-0.0038911866	-0.035974
C	 0.6341861428	-2.6544245146	-0.0189492123	-0.104277
C	 1.7147463331	-1.7785296185	-0.024247404	-0.231001
H	 1.2703675691	 2.8766399135	 0.0057921006	 0.147144
H	 3.2186367609	 0.9793447599	-0.0231598011	 0.121997
H	-1.5169374488	-2.8427798773	 0.0002211053	 0.112755
H	 0.7930669872	-3.7266667574	-0.0263841823	 0.102096
H	 2.7358258061	-2.1447358653	-0.0358748072	 0.109439
