22
gdb 67039	2.08043	2.00164	1.52749	1.8042	84.63	-0.2166	0.0786	0.2952	1030.2724	0.195344	-367.195147	-367.186793	-367.185849	-367.227258	33.742	
C	-0.2041832124	 1.5022689213	 0.0186793347	-0.516957
C	 0.071248419	 0.0317566798	-0.020587368	 0.311292
C	 0.2293055136	-0.8404901471	-1.2008483897	-0.0611
C	 1.4071155953	-1.7962131849	-1.0555914067	-0.25187
C	 1.9134476559	-1.5361899289	 0.3865097735	-0.247342
C	 0.7142171512	-0.8730885519	 1.0852612648	 0.257809
C	 0.9861556154	-0.3108945592	 2.4652505428	-0.493485
C	-0.5356782179	-1.7713206422	 0.8924142512	-0.194481
N	-0.9759730643	-1.012454041	-0.3248218397	-0.19495
H	 0.7244125206	 2.0822252613	-0.0401379731	 0.117829
H	-0.8381596205	 1.7905127336	-0.8251841764	 0.130501
H	-0.721953989	 1.7922154626	 0.939811625	 0.120643
H	-0.0495988422	-0.4821478783	-2.1868768024	 0.088012
H	 1.1016924811	-2.8373771791	-1.2071112078	 0.106966
H	 2.1714704751	-1.5804278055	-1.8080371683	 0.101458
H	 2.2311557404	-2.4516451104	 0.8982998281	 0.092399
H	 2.7678060221	-0.8481160794	 0.3784244523	 0.093058
H	 1.7926507757	 0.4313679063	 2.4424030072	 0.114312
H	 0.0978328444	 0.1712145275	 2.8869055069	 0.116758
H	 1.2896557753	-1.1053093194	 3.1568272226	 0.117241
H	-0.3747821573	-2.8460208314	 0.7419604533	 0.090209
H	-1.2904646013	-1.6348587335	 1.6718944595	 0.101696
