17
gdb 36324	2.72032	1.10108	0.93443	4.0994	78.26	-0.2445	0.0179	0.2625	1274.9268	0.135712	-380.826845	-380.818037	-380.817093	-380.861034	32.358	
C	 1.0966810624	-0.7237399303	 0.5857227299	-0.477418
C	 0.4978320193	 0.2841174132	 0.3138111911	 0.335655
C	-0.1988783789	 1.5170413065	-0.0303711794	-0.130086
C	-0.7146476602	 2.3504827959	 1.1883008209	-0.274806
C	 0.4889304535	 3.2949247947	 0.936543304	 0.058236
C	 1.643580559	 3.0881866015	 1.9405538507	-0.360739
C	 2.8735089403	 3.7440782175	 1.5024567791	 0.255317
N	 3.8358593941	 4.2611695308	 1.1250484008	-0.304287
N	 0.6669002709	 2.6742950448	-0.392258763	-0.310244
H	 1.6203278092	-1.6185464231	 0.8174331272	 0.207176
H	-0.9532662427	 1.3058974616	-0.7962156548	 0.1106
H	-1.6781815189	 2.8207083868	 0.990903116	 0.123684
H	-0.7455642086	 1.8335320437	 2.1475253362	 0.119491
H	 0.2599813149	 4.3640119722	 0.8776977305	 0.097061
H	 1.3567763963	 3.4887783466	 2.920258491	 0.151547
H	 1.8410544267	 2.0180388866	 2.0674959548	 0.163883
H	 1.6185239927	 2.453118861	-0.6678524749	 0.23493
