17
gdb 27265	3.12536	1.56071	1.0639	0.7137	75.69	-0.1801	0.0489	0.229	1095.7219	0.139121	-418.02723	-418.019334	-418.01839	-418.059578	30.118	
N	 0.1461720102	 1.4218880603	 0.0364104737	-0.616082
C	-0.0198666112	 0.0193999648	 0.021058774	 0.076877
C	-1.0819021599	-0.8497406231	-0.0375820066	 0.317794
O	-2.4419146167	-0.7251790333	-0.0697059989	-0.303259
C	-2.9402875855	-2.0525222167	-0.3742042877	-0.09072
C	-1.8158335035	-3.0858805645	-0.0446561621	-0.379599
C	-0.6181452493	-2.1796557671	-0.0393404285	 0.190219
C	 0.7545928219	-2.1335662965	 0.0270911424	-0.24301
N	 1.1030263871	-0.8049734528	 0.0656630623	-0.255072
H	-0.3157908006	 1.8595346398	-0.7540530493	 0.243741
H	-0.2444028711	 1.8399241565	 0.8753792879	 0.242954
H	-3.8551436025	-2.2024426347	 0.2035549405	 0.111149
H	-3.1887139899	-2.0866881601	-1.4427021953	 0.10627
H	-1.9840084718	-3.5603944427	 0.9303739318	 0.113445
H	-1.7893726089	-3.8830565768	-0.7936959269	 0.111952
H	 1.5054371301	-2.9066353812	 0.0525333618	 0.116794
H	 2.0374810217	-0.4347260219	 0.0611178207	 0.256547
