14
gdb 44714	3.4229	1.38322	1.16073	5.5924	62.09	-0.2633	-0.0025	0.2609	1017.4028	0.102287	-473.882378	-473.875333	-473.874389	-473.914466	26.335	
O	-0.0781755486	-0.0223731747	-0.2358639064	-0.336994
C	-0.0430865184	 1.1672043312	-0.111709178	 0.416226
N	-1.0107899295	 2.1484625451	-0.1066440318	-0.33128
C	-0.1123187364	 3.2897552974	 0.0864562645	-0.001831
C	-0.0834915827	 3.9128168751	 1.4756052298	-0.37928
C	 0.9747847822	 3.1198310176	 2.2505457519	 0.42441
O	 1.2560546997	 3.2055455266	 3.4053684947	-0.311503
O	 1.628201749	 2.2604879867	 1.4039729569	-0.210423
C	 1.05997858	 2.2551499537	 0.1068292804	-0.062884
H	-2.014405635	 2.0962477572	-0.207357845	 0.260145
H	-0.1241646015	 4.0094299852	-0.7340142486	 0.105717
H	 0.2249040812	 4.9623986422	 1.4548604597	 0.150839
H	-1.0373186312	 3.8589943572	 2.0040600116	 0.151058
H	 1.8473076212	 2.3166638296	-0.6438551997	 0.125799
