17
gdb 54969	3.12723	1.01492	0.95229	2.9333	71.87	-0.2639	-0.0591	0.2048	1294.3511	0.13099	-458.973355	-458.963537	-458.962593	-459.008661	34.162	
C	 0.4837877543	 1.5518255624	-0.0010835593	-0.490251
C	-0.1970403387	 0.1985603186	-0.0206037036	 0.373304
O	-0.7688992781	-0.2690066666	 0.9343046143	-0.291518
C	-0.1123036935	-0.5332974175	-1.342808373	-0.104335
O	-0.4125661515	-1.9127532696	-1.3712990821	-0.253834
C	-1.3524870994	-1.0493007798	-2.0151337581	 0.269809
C	-2.7340146865	-0.9322764056	-1.430821789	-0.48228
C	-1.241827848	-1.1077498362	-3.5155092184	 0.129831
O	-2.1345762731	-0.8224296624	-4.2691723776	-0.244161
H	 1.566952467	 1.4278542499	-0.1176606161	 0.151019
H	 0.1424050866	 2.1699255013	-0.8394384577	 0.146451
H	 0.2752026185	 2.054995391	 0.9431040604	 0.153383
H	 0.7202413617	-0.2330556717	-1.9830701922	 0.103518
H	-2.6896334841	-0.8590331812	-0.3450920796	 0.165807
H	-3.241481655	-0.0590202446	-1.8488559062	 0.140928
H	-3.3196527318	-1.8144660651	-1.7057442814	 0.142216
H	-0.2434606284	-1.4503501628	-3.8683676906	 0.090115
