18
gdb 51859	4.58418	0.89977	0.78812	2.5944	77.73	-0.2505	0.0032	0.2537	1426.6715	0.148121	-439.078608	-439.070188	-439.069244	-439.112649	30.781	
N	-0.1088823142	 1.3057421021	 0.1339680677	-0.443164
C	-0.0750161033	 0.0460984991	 0.190413355	 0.128794
O	-0.896113582	-0.6883680569	-0.5862286925	-0.19221
C	-0.8979610713	-2.1088126281	-0.3913572124	 0.051417
C	-2.0577275227	-2.5017072934	 0.5332893019	-0.1045
O	-2.2248176501	-3.9046022095	 0.5374554746	-0.247061
C	-2.6305364605	-4.4161047773	-0.7196371987	-0.116706
C	-1.8805518576	-3.8181491698	-1.8765787865	-0.081656
C	-1.0756248201	-2.7697526338	-1.7294996975	-0.071421
H	 0.5864335757	 1.7001680385	 0.7638961765	 0.229557
H	 0.5879570791	-0.563321349	 0.8217401286	 0.085969
H	 0.058516017	-2.4093034131	 0.0618670913	 0.096454
H	-1.8597387259	-2.2045331511	 1.5670829304	 0.110286
H	-2.9649342372	-1.9808965065	 0.190267312	 0.110933
H	-2.468544	-5.499345378	-0.6734510988	 0.123395
H	-3.7153349183	-4.2622630036	-0.8664755091	 0.107983
H	-2.0353824112	-4.2777004469	-2.8489780735	 0.103917
H	-0.5333575973	-2.3362252927	-2.563930189	 0.108012
