23
gdb 115288	3.19929	1.08207	1.02223	1.5477	82.3	-0.2414	0.0817	0.3232	1329.2129	0.204132	-425.4336	-425.423531	-425.422587	-425.468675	37.537	
C	 0.2129365069	 0.7665036506	 0.6397262961	-0.240904
O	 0.0422852759	-0.4597883688	-0.0322327015	-0.241143
C	 0.5375796148	-0.4599089935	-1.3644825571	 0.091691
C	 2.079753516	-0.61295922	-1.4360048394	-0.092112
O	 2.3640961963	-1.909265012	-1.9410178621	-0.297332
C	 1.186129735	-2.7360854606	-1.8929717752	 0.386166
C	 1.3010731276	-3.7314779421	-3.0441514009	-0.426987
C	 1.1093741812	-3.4620283954	-0.5408140303	-0.423719
C	 0.0384189597	-1.7220698171	-2.0758439114	-0.268335
H	 1.2723823978	 1.0314474367	 0.7756224497	 0.107134
H	-0.2800875515	 1.5920391854	 0.101934514	 0.10483
H	-0.2468163941	 0.6621755794	 1.6254966557	 0.129148
H	 0.2004559877	 0.4582452304	-1.8666159643	 0.066928
H	 2.5417174567	 0.1205387665	-2.1074486024	 0.098745
H	 2.5112884363	-0.4769254871	-0.4341471359	 0.097651
H	 2.1753121457	-4.375005425	-2.9076662667	 0.120487
H	 0.4125039466	-4.368526244	-3.0956518964	 0.111452
H	 1.4106188827	-3.2041001352	-3.9959810985	 0.113308
H	 0.9904234109	-2.7495076225	 0.2784184982	 0.132481
H	 0.2565424393	-4.1489058012	-0.5168874187	 0.106367
H	 2.023138608	-4.0412900403	-0.3784164259	 0.113654
H	-0.914409409	-2.052488866	-1.6579288398	 0.112703
H	-0.1007404106	-1.5138357782	-3.1411202473	 0.097789
