17
gdb 48496	3.50726	1.56766	1.36622	3.4112	77.18	-0.2403	-0.015	0.2253	960.6003	0.137026	-384.62985	-384.623225	-384.622281	-384.660954	26.817	
O	-0.1074155326	 0.0923273249	 0.2278627235	-0.276292
C	 0.077134673	 1.2557568446	-0.0494355343	 0.021083
C	 1.3669931592	 1.9321316499	 0.0136550239	 0.310126
C	 1.5113330921	 3.4121221326	 0.4734630007	-0.12222
C	 1.8881096917	 3.0356626822	-0.9200829348	-0.162088
C	 3.3017923166	 2.6786419634	-0.3699228974	-0.051694
C	 2.9611139381	 3.355915393	 1.0141779911	-0.055759
C	 3.1500056286	 1.9982599038	 1.7326291014	-0.247777
C	 2.7639270836	 1.3883532281	 0.3643632503	-0.125528
H	-0.7603669314	 1.9072195555	-0.3967969997	 0.058706
H	 0.6599649674	 3.9776977067	 0.8298352437	 0.100713
H	 1.5041920492	 3.3469604739	-1.8825324388	 0.103084
H	 4.2548683764	 2.7538020846	-0.885452282	 0.079074
H	 3.4111327269	 4.2849244158	 1.3610700235	 0.07608
H	 4.2026984459	 1.8179612661	 1.9721143599	 0.102594
H	 2.5245431824	 1.7694483062	 2.6001960929	 0.104607
H	 3.0013076026	 0.3672756886	 0.0745832961	 0.085292
