23
gdb 119980	3.00783	0.82876	0.787	1.7642	83.14	-0.2268	0.0663	0.2931	1634.2288	0.203639	-425.39693	-425.386164	-425.38522	-425.433378	38.758	
C	-0.2646560659	 1.523013522	-0.0492374197	-0.381088
C	-0.3083115366	 0.0129061765	-0.2947117985	-0.156777
C	 0.9738507417	-0.5227582922	-0.9460787246	-0.188058
C	 0.9377698486	-2.0250451731	-1.1424342047	-0.122877
C	 0.1853556387	-2.6497160705	-2.3071024344	 0.091058
O	-0.3933718842	-1.8314980873	-3.2812548026	-0.432418
C	 1.6951095796	-2.7128187589	-2.254388538	 0.032003
O	 2.3611531872	-1.8846827176	-3.1678118074	-0.253618
C	 2.7394348495	-2.5783262638	-4.3479674044	-0.243962
H	 0.5619518731	 1.7944239364	 0.6174172623	 0.110242
H	-0.1240912521	 2.0719900991	-0.9872238121	 0.11292
H	-1.1921304747	 1.8808832323	 0.408789947	 0.109489
H	-0.4796396628	-0.5091974503	 0.6561223323	 0.087779
H	-1.1570903875	-0.236874439	-0.941662595	 0.114717
H	 1.1297637839	-0.0223798998	-1.9063842037	 0.098331
H	 1.8434026499	-0.2612569666	-0.3285086799	 0.093289
H	 0.8993165267	-2.5957955476	-0.2166429742	 0.085084
H	-0.4062469175	-3.544200332	-2.1397415642	 0.096953
H	 0.3339260134	-1.3506440467	-3.6981023047	 0.292286
H	 2.2087238603	-3.6526914195	-2.0515133477	 0.085019
H	 3.441152731	-3.3930900399	-4.1191676292	 0.115751
H	 1.8692899511	-3.0016679391	-4.8673941335	 0.122733
H	 3.2354353965	-1.8549254724	-4.9990822232	 0.131142
