21
gdb 107924	3.74066	1.1704	1.08315	0.9196	82.66	-0.2343	0.0961	0.3304	1226.4321	0.18203	-387.029846	-387.021276	-387.020332	-387.062826	33.357	
C	-0.25437686	 1.2786152383	 0.14732972	-0.258104
O	 0.2332059264	-0.0430288417	-0.0162698894	-0.28409
C	 0.8388044979	-0.5461425874	 1.1092192443	 0.438554
C	 2.2356398406	-0.2274080449	 1.6422048439	-0.317045
C	 2.0584567289	-1.5217530207	 2.4878190208	-0.068085
C	 0.9456825393	-1.9969993271	 1.4645640393	-0.164149
C	 0.0124766327	-1.1195031213	 2.2837553638	-0.135463
C	 0.9289481275	-1.1765047754	 3.5068639254	 0.021186
C	 0.6041167495	-2.3035420506	 4.4797334455	-0.405785
H	 0.5577388133	 1.9861879532	 0.365170872	 0.113064
H	-0.7281057739	 1.5629681954	-0.7947689265	 0.126117
H	-0.993972905	 1.3356793983	 0.9578741791	 0.110356
H	 2.9869702551	-0.3525857309	 0.8571703268	 0.101088
H	 2.4122894731	 0.7084854938	 2.1855843133	 0.085219
H	 2.9261324986	-2.1015524306	 2.7975076709	 0.069446
H	 0.7843102472	-2.8946662387	 0.8867092885	 0.094272
H	-1.0703058768	-1.1034584868	 2.2427115038	 0.08172
H	 1.0749409652	-0.235963447	 4.0556658516	 0.055695
H	 0.469549653	-3.2528305273	 3.9496061308	 0.11635
H	 1.4096844386	-2.4345318868	 5.2110357385	 0.108852
H	-0.3181563911	-2.0969351619	 5.0337330475	 0.110804
