14
gdb 133140	2.33028	1.85543	1.03962	3.5679	70.69	-0.2414	-0.0692	0.1722	1061.9018	0.099492	-477.953938	-477.946019	-477.945075	-477.986769	28.786	
C	-0.0202745554	 1.5252568453	-0.0115114715	-0.505958
C	-0.0291790891	 0.0257617938	-0.0575668004	 0.107882
C	-1.1165666216	-0.730055463	 0.176103252	 0.16857
F	-2.2895814942	-0.1985863006	 0.4698589801	-0.034854
C	-1.0791978701	-2.1859643427	 0.121830787	 0.326131
N	-2.0957675788	-2.9084932239	 0.3394258058	-0.519627
O	 0.1535697968	-2.7397503139	-0.1864522327	-0.291399
N	 1.3018977324	-1.988663241	-0.4351396818	-0.074477
C	 1.1768169585	-0.711625753	-0.3658253736	-0.00634
H	 0.6915793286	 1.8865768247	 0.7390031918	 0.148595
H	 0.2872973111	 1.941887266	-0.9769785034	 0.148536
H	-1.0082781246	 1.9154296635	 0.2343271726	 0.155068
H	-1.8599609645	-3.8980703774	 0.2528266558	 0.23599
H	 2.0984599209	-0.1717701779	-0.5674312817	 0.141882
