17
gdb 5897	3.00117	1.21694	1.07399	4.1778	77.39	-0.2648	0.02	0.2848	1202.3079	0.139216	-326.724569	-326.714714	-326.71377	-326.760404	33.856	
C	-0.0141024402	 1.4813660875	 0.006603174	-0.498876
C	 0.0098170018	 0.0260900295	-0.0030123461	 0.031755
C	 0.0378952142	-1.1767225703	 0.0006887183	 0.130817
C	 0.0494756659	-2.6447986319	-0.0265737773	-0.103533
C	-1.3922585648	-3.1972118921	 0.127917496	-0.394087
C	 0.6788434579	-3.1534177156	-1.3505192497	-0.394087
C	 0.865839431	-3.1421727136	 1.1023155139	 0.291304
N	 1.4982427115	-3.5568342778	 1.9759439234	-0.344772
H	 0.5755525413	 1.8768817445	 0.8404881301	 0.158805
H	 0.4017215561	 1.8913711312	-0.9199755348	 0.152894
H	-1.0361374435	 1.8609259696	 0.1112048593	 0.152902
H	-2.0034086859	-2.840292954	-0.7046685762	 0.131614
H	-1.3806409189	-4.2903943273	 0.1204165255	 0.133122
H	-1.8396443153	-2.8549777234	 1.0629410362	 0.143704
H	 1.698483611	-2.7801906046	-1.4626923608	 0.143704
H	 0.6985660588	-4.2464286335	-1.3638437614	 0.133121
H	 0.0799910591	-2.796210458	-2.1918717702	 0.131614
