17
gdb 26003	4.92014	0.96867	0.8134	2.5191	78.55	-0.1908	0.0247	0.2155	1372.3928	0.137068	-418.079728	-418.071005	-418.070061	-418.114371	31.88	
C	-0.1538679259	 1.5480074029	 0.034360111	-0.489838
C	 0.0948269856	 0.0479536296	 0.0835114889	 0.399034
O	 1.2119502531	-0.4183753411	 0.2242421011	-0.368384
N	-1.0263557235	-0.726529198	-0.0418245651	-0.436645
C	-1.0624477643	-2.1290506132	-0.0282369124	 0.343303
C	-0.0047946501	-3.0041977228	 0.1106095881	-0.155595
N	-0.5327402941	-4.273557139	 0.0631387961	-0.240241
C	-1.8887861452	-4.2226023842	-0.1011708639	-0.05715
C	-2.2550681759	-2.8982431109	-0.1623261784	-0.277874
H	 0.42772511	 1.9738241895	-0.7877490236	 0.152352
H	-1.2042361343	 1.8218710418	-0.0961112661	 0.108606
H	 0.2163451355	 1.996086214	 0.9604362486	 0.15235
H	-1.9113984663	-0.2611653109	-0.1545547171	 0.247618
H	 1.0438498002	-2.8127883351	 0.2347129886	 0.153634
H	 0.0093441216	-5.1154093629	 0.1393287847	 0.263138
H	-2.4815134129	-5.1205583424	-0.1612139836	 0.119537
H	-3.2580522636	-2.5188677674	-0.2882289767	 0.086157
