15
gdb 51764	2.60797	1.18546	0.91527	1.7713	67.12	-0.2748	-0.0147	0.2601	1231.5084	0.112631	-453.952278	-453.943769	-453.942824	-453.986812	29.46	
O	-0.0577707783	-0.1864931013	 0.1665498053	-0.307911
C	-0.0630453844	 1.0217055423	 0.1065111017	 0.155307
N	 1.0430658397	 1.7987814603	-0.1165584817	-0.292726
C	 2.3551037288	 1.2457299841	-0.2266225598	-0.009008
C	 3.2722907905	 1.6697142453	-1.39603973	-0.100436
O	 4.3620599448	 1.9432204927	-0.4807505289	-0.265622
C	 3.511095749	 1.8166232193	 0.6670431176	-0.049388
C	 3.1951245872	 3.1103984652	 1.2836211823	 0.286627
N	 2.8873198031	 4.1294922027	 1.734362982	-0.319881
H	-0.9771559521	 1.6343096959	 0.2163945633	 0.094672
H	 0.9374258127	 2.8024553143	-0.0827735949	 0.266285
H	 2.2589215373	 0.1664463681	-0.1186547367	 0.152514
H	 3.5362161117	 0.9000782099	-2.126393771	 0.132862
H	 2.9402994541	 2.576656942	-1.9168684366	 0.117472
H	 3.925767946	 1.1397447293	 1.4206581973	 0.139232
