19
gdb 84441	3.24213	1.46882	1.31281	2.3639	75.57	-0.2408	-0.0018	0.2391	1039.7257	0.159911	-423.016822	-423.009012	-423.008068	-423.048571	31.778	
C	 0.0093766971	 1.493887333	 0.1347544559	-0.48948
C	-0.0111782595	-0.0037745287	-0.0412598805	 0.374189
C	 0.7208871843	-0.683039155	-1.2342280156	-0.291322
C	 1.0584704885	-1.7237400318	-0.1528647776	 0.045546
O	 0.9175705568	-0.6975847485	 0.874194669	-0.34041
C	-0.0659282523	-2.7412203551	 0.0965976563	 0.115686
O	 0.1719376353	-3.432039987	 1.3169997755	-0.441343
C	-1.3890520179	-1.9973626722	 0.14829803	-0.13454
C	-1.3716012782	-0.6650514823	 0.1072168301	-0.078557
H	 1.0274979222	 1.8782363876	 0.0359344646	 0.125839
H	-0.6230624154	 1.9740337592	-0.6197133688	 0.122299
H	-0.3713135342	 1.7701924914	 1.1236623461	 0.131036
H	 0.1239602949	-0.9848503497	-2.0961185171	 0.10349
H	 1.6072686559	-0.1264142705	-1.547874234	 0.105994
H	 2.0435559675	-2.1964152836	-0.135601397	 0.082524
H	-0.0728328445	-3.5096140552	-0.6855771621	 0.088194
H	 0.2678560124	-2.7367378198	 1.9819686871	 0.284205
H	-2.2970682059	-2.5773583129	 0.2799913155	 0.102385
H	-2.2677627972	-0.0543096189	 0.1615416627	 0.094267
