20
gdb 103257	2.48261	1.36555	1.11767	2.553	80.13	-0.2391	-0.0233	0.2159	1188.0438	0.169344	-403.126845	-403.117748	-403.116804	-403.160756	34.477	
C	 0.4928284194	 0.2375545485	-1.4219318982	-0.38718
C	-0.0432633585	 0.089620542	 0.0093848699	-0.263456
C	-1.4323168886	-0.5359373016	 0.0713426924	 0.329477
C	-2.5125140587	 0.2745990933	-0.6279529416	-0.45176
C	-1.6561841168	-2.0222240318	 0.0200132984	-0.211393
N	-1.9798430084	-1.1863114562	 1.2738591057	-0.172007
C	-0.8643943046	-1.8745022095	 2.0134359745	-0.301131
C	-0.5987676499	-2.7642521892	 0.7838265957	 0.402179
O	 0.0226333053	-3.7691133486	 0.5890354422	-0.30876
H	 1.5087952992	 0.6425216513	-1.4064156393	 0.120462
H	 0.5263858949	-0.7318660165	-1.9294179455	 0.129759
H	-0.1214482671	 0.9128039913	-2.0238687968	 0.123261
H	 0.6774837131	-0.4968572918	 0.582705025	 0.113127
H	-0.0930736002	 1.0762643143	 0.4885842451	 0.105752
H	-2.347199138	 0.3157307598	-1.7080023166	 0.125898
H	-3.4953632725	-0.1626999449	-0.4402283715	 0.13392
H	-2.5189509295	 1.300329384	-0.243604434	 0.124517
H	-2.4151820286	-2.4686211485	-0.6144057744	 0.113844
H	-0.0758792749	-1.2305616762	 2.4076009625	 0.130943
H	-1.2832001059	-2.4706429197	 2.8297664665	 0.142546
