18
gdb 126170	4.17079	0.97335	0.81433	4.3155	73.52	-0.255	-0.0013	0.2536	1386.5986	0.148483	-435.268016	-435.259205	-435.258261	-435.302266	32.003	
C	 0.0415093271	 1.5834551542	-0.4191758677	-0.387342
C	-0.0662672981	 0.0665512739	-0.5866201031	-0.193072
C	-1.1404074449	-0.5551504035	 0.3131687183	-0.008027
O	-2.4393631152	-0.0042807425	 0.0815105555	-0.43198
C	-1.1918191909	-2.0542055561	 0.2009842262	 0.334922
C	-0.2968733202	-3.0493960878	-0.124939848	-0.172012
N	-0.9209497956	-4.2582928318	-0.0303440561	-0.189442
N	-2.15724737	-4.0717347368	 0.3334561819	-0.113828
N	-2.3241512169	-2.7451131658	 0.4796598729	-0.230974
H	 0.7827397499	 2.000555628	-1.1063009706	 0.118367
H	-0.9195177998	 2.0662317853	-0.6144474629	 0.129365
H	 0.3433732942	 1.8465286853	 0.6003305278	 0.121389
H	-0.2936793497	-0.1908792518	-1.6301730594	 0.101455
H	 0.8947682076	-0.4090634086	-0.3582719374	 0.114528
H	-0.9244597257	-0.2822954916	 1.3548898016	 0.116927
H	-2.6400439958	-0.1193421134	-0.8554109234	 0.285283
H	 0.7384808173	-2.9732257081	-0.4140013337	 0.121615
H	-3.2195657934	-2.361041029	 0.7391799481	 0.282825
