20
gdb 109441	2.1556	1.44773	1.07776	2.9532	76.7	-0.2288	0.0263	0.255	1220.6364	0.168303	-440.303643	-440.293525	-440.292581	-440.338551	36.673	
C	-0.0282406465	 1.3672913628	-0.3315642518	-0.248082
O	-0.0764003161	 0.1147088296	 0.3356932933	-0.24259
C	-1.2908892867	-0.5477777043	 0.1569625402	-0.076251
C	-1.5300785383	-1.2315304925	-1.2232592961	 0.423382
O	-1.5545335463	-0.8772270105	-2.3743681519	-0.378318
N	-1.6823581664	-2.4461304212	-0.6100312596	-0.36426
C	-1.3413041162	-1.9967314063	 0.7614408368	 0.291022
C	 0.0073814598	-2.5170679258	 1.2519829065	-0.415297
C	-2.4579321905	-2.2404771998	 1.7734979834	-0.433399
H	 0.959192721	 1.7909288052	-0.1365264534	 0.127454
H	-0.1743958767	 1.2511174903	-1.411322177	 0.147813
H	-0.7963223605	 2.0528277707	 0.0585137102	 0.106204
H	-2.142076455	 0.0778826459	 0.468056631	 0.08151
H	-1.7987546861	-3.3724386647	-0.9967402371	 0.244246
H	 0.7930871549	-2.3202625368	 0.5208312601	 0.133407
H	 0.2875510412	-2.0280385103	 2.1893535088	 0.128851
H	-0.046291808	-3.5961118707	 1.4339615948	 0.108216
H	-2.5729367766	-3.3105826109	 1.9786207276	 0.117113
H	-2.2308043313	-1.7434146222	 2.7219439381	 0.127746
H	-3.4143744958	-1.8611709683	 1.4022135461	 0.121231
