17
gdb 32374	4.13694	0.96223	0.81801	3.2686	87.9	-0.2134	-0.0134	0.2	1405.0953	0.136168	-380.889091	-380.880361	-380.879416	-380.922931	32.381	
C	 0.0756217252	 1.5205769756	-0.1750238084	-0.366703
C	 0.0191574932	 0.0034225064	 0.0636180836	-0.300564
C	-1.3759433591	-0.5398592041	 0.0169651685	 0.28044
C	-1.9197785144	-1.4394024739	-0.8723878467	-0.185508
N	-3.2278804014	-1.5967808569	-0.4920844597	-0.29041
C	-3.4342773211	-0.7972861975	 0.6026147053	 0.182648
N	-2.3268604431	-0.1492412339	 0.9265747133	-0.346007
C	-4.6878057229	-0.7260689403	 1.2514599727	 0.266914
C	-5.7678058628	-0.6873459578	 1.7820658314	-0.410423
H	 1.1009811503	 1.8926013132	-0.0855573878	 0.106486
H	-0.2940049213	 1.7747707937	-1.1737009757	 0.111738
H	-0.5473399969	 2.0422212781	 0.5562145654	 0.140765
H	 0.6329383026	-0.5184923916	-0.6792220014	 0.09536
H	 0.4547399267	-0.2207584594	 1.0450038509	 0.115495
H	-1.5029857296	-1.9661004717	-1.7150551005	 0.131646
H	-3.9176835603	-2.1880119369	-0.9247892559	 0.271626
H	-6.7136713352	-0.6413926931	 2.2625253148	 0.196495
