19
gdb 63734	2.64724	1.35245	1.22121	1.2419	77.82	-0.2429	-0.0255	0.2175	1144.3449	0.155895	-423.024192	-423.014817	-423.013873	-423.058143	34.855	
C	-0.4194725694	 1.5583977514	 0.0658351241	-0.426257
C	 0.008010818	 0.098322285	 0.036221121	 0.290166
C	-1.0972597958	-0.8518110979	-0.4009059335	-0.42625
O	 1.2245231202	-0.0876299342	-0.7704099279	-0.364522
C	 1.9891014882	-0.5201000288	 0.3528457007	 0.335374
C	 3.031727694	-1.601196127	 0.3021020825	-0.328597
C	 3.4335208636	-0.1721987726	 0.5788109971	-0.328592
C	 0.8172925587	-0.3677969409	 1.2681464865	 0.236944
O	 0.5963087411	-0.5310000316	 2.4324046001	-0.311209
H	 0.4104742315	 2.2045274958	 0.3636247668	 0.127881
H	-0.7593631283	 1.8697999455	-0.9270949299	 0.129127
H	-1.2412541584	 1.6977444902	 0.7748506055	 0.132892
H	-1.448445746	-0.5829543967	-1.402302443	 0.12914
H	-0.7395853877	-1.8844446601	-0.4275501348	 0.127874
H	-1.9423129841	-0.793552413	 0.2918639447	 0.13288
H	 3.0483417632	-2.3195034677	 1.1148737245	 0.13551
H	 3.2496654156	-2.001979271	-0.681756885	 0.136065
H	 3.9184110901	 0.3763999672	-0.2212025572	 0.136064
H	 3.7302604455	 0.1058627665	 1.5845278978	 0.135511
