16
gdb 31852	4.93745	1.02793	0.85544	1.6619	76.33	-0.2105	-0.0208	0.1897	1292.9706	0.125853	-437.945148	-437.937386	-437.936441	-437.97757	29.498	
C	 0.0448075777	 1.4043030642	 0.0236468168	-0.24589
O	-0.0040288788	-0.0095252628	 0.0408645983	-0.267612
C	-1.2309691771	-0.6002458048	 0.0145895935	 0.336432
C	-2.4508561728	 0.0669000481	-0.0324350845	-0.129618
N	-3.6304433092	-0.5753199134	-0.0566462313	-0.361654
C	-3.6303187987	-1.8958789161	-0.0349530869	 0.426513
O	-4.8266720632	-2.5301688607	-0.0598243252	-0.425214
C	-2.4602147464	-2.6670275091	 0.0122241861	-0.199941
C	-1.2522427978	-2.0027558924	 0.0370026952	-0.149175
H	 1.1018921881	 1.673189131	 0.0527980538	 0.136483
H	-0.4070525301	 1.8138473973	-0.889450912	 0.12568
H	-0.4624511181	 1.8373537228	 0.8958601997	 0.125697
H	-2.5046071405	 1.1497050533	-0.0519032437	 0.105855
H	-5.4939268429	-1.8311059065	-0.0910195199	 0.295175
H	-2.5216462665	-3.7481103899	 0.0281991219	 0.112297
H	-0.3106253134	-2.5392462711	 0.0736565384	 0.114972
