15
gdb 18360	3.51669	2.25109	1.69672	2.5997	60.85	-0.2571	0.0077	0.2648	771.5351	0.120459	-399.765417	-399.758933	-399.757989	-399.795896	25.197	
O	 0.1578364451	 1.4450434427	 0.0057199199	-0.432203
C	 0.0880754777	 0.0345615052	-0.0462223863	 0.085836
C	 0.5123775584	-0.6185830142	 1.3235966367	-0.197467
N	-0.708359501	-0.551605229	 2.1940082827	-0.314502
C	-1.6370457375	-0.5577361817	 1.3363917204	 0.412602
O	-2.9347686016	-0.133719046	 1.2995018914	-0.272668
C	-2.7127352044	 0.242475181	-0.1274169899	-0.132626
C	-1.3595684327	-0.5177987599	-0.1244838339	-0.156555
H	-0.1561714716	 1.7269847118	 0.8733421804	 0.29517
H	 0.7183530765	-0.271662995	-0.8844671273	 0.092605
H	 0.8571720798	-1.6522066577	 1.1920536071	 0.112518
H	 1.3228975824	-0.0501086469	 1.7880772759	 0.122041
H	-3.5051544882	-0.1609292687	-0.7579874182	 0.133161
H	-2.6386654507	 1.3279692187	-0.2131020182	 0.140808
H	-1.4094649619	-1.4780604203	-0.6422048707	 0.11128
