23
gdb 91736	2.83719	1.42853	1.32062	1.434	84.3	-0.2365	0.0827	0.3191	1128.5617	0.208092	-388.318776	-388.310502	-388.309558	-388.351076	33.683	
C	-0.1777292695	 1.5567440066	 0.0128575232	-0.408782
C	 0.0067287793	 0.0408826164	 0.004289542	 0.040708
C	 0.8495206161	-0.5136126321	-1.1983247589	-0.247892
C	 1.9873150886	-1.2960845266	-0.4988237652	-0.035443
C	 1.2428806802	-1.8955121582	 0.7143985871	-0.242109
C	 0.8127381346	-0.5089338971	 1.2066079322	 0.108151
O	 2.0566092159	 0.199944403	 1.3059975584	-0.297314
C	 2.886376261	-0.2599559208	 0.2111122925	 0.157485
C	 4.2147018869	-0.7773512694	 0.7477726442	-0.409291
H	 0.7882877812	 2.0639673413	 0.0861517905	 0.129842
H	-0.6784027825	 1.8962925425	-0.8998881017	 0.106962
H	-0.7862275068	 1.877615377	 0.8657006786	 0.108262
H	-0.9815326311	-0.4350598433	 0.0098969497	 0.066103
H	 0.2526662417	-1.1720643684	-1.8364659253	 0.091815
H	 1.2388086217	 0.2905939519	-1.8313437135	 0.094577
H	 2.5348707282	-1.9881478582	-1.1404758264	 0.061366
H	 0.4060813427	-2.5394851267	 0.4308906961	 0.094069
H	 1.8833486287	-2.4220083741	 1.425016197	 0.099956
H	 0.3098754079	-0.4414136229	 2.1730162155	 0.065777
H	 3.0809788589	 0.5932914402	-0.4539890655	 0.065602
H	 4.0831363512	-1.6807424155	 1.350533685	 0.116008
H	 4.8995521922	-1.0057262357	-0.0760864283	 0.108841
H	 4.6813328829	-0.0162726198	 1.3800882025	 0.125308
