16
gdb 26983	3.30799	1.26096	0.95	3.202	75.64	-0.1897	0.0353	0.2251	1178.8373	0.126015	-396.977771	-396.969121	-396.968177	-397.011716	31.547	
N	-0.0313909717	 1.3178915298	-0.3820689878	-0.612872
C	-0.0736995681	-0.0679303283	-0.1583831509	 0.228158
C	-1.1094361011	-0.9768470237	-0.0329329553	 0.219732
C	-2.591145677	-0.7252671096	-0.1492850047	-0.467539
C	-2.9422925766	 0.3358922298	-1.0973618212	 0.262727
N	-3.2003514463	 1.1958876946	-1.8259468783	-0.326305
C	-0.519227575	-2.2452774262	 0.267121942	-0.239673
C	 0.8386484168	-2.0786738078	 0.3058964761	-0.088519
N	 1.0980282707	-0.7492391318	 0.0483765761	-0.276989
H	 0.4601492008	 1.5522667522	-1.2399766416	 0.248303
H	-0.9619125827	 1.7103580968	-0.4558566434	 0.261628
H	-3.0947001636	-1.6430220463	-0.4746401855	 0.160027
H	-3.0459782417	-0.4614402542	 0.8166190722	 0.157896
H	-1.0504271419	-3.1732667448	 0.417429686	 0.092274
H	 1.6389313687	-2.7777287322	 0.48235254	 0.120364
H	 1.9994209585	-0.3062425082	 0.0899818965	 0.260788
