21
gdb 105410	2.15305	1.2863	0.96273	4.2026	79.29	-0.2681	0.0086	0.2767	1311.987	0.180925	-424.247428	-424.237813	-424.236868	-424.28204	35.342	
C	-0.4335234369	 1.7114918749	 0.5509593498	-0.391581
C	-0.1137340374	 0.2705007884	 0.1427637197	-0.223612
C	 0.8345670539	-0.4568884404	 1.0992611164	 0.411639
C	 0.221959641	-0.8185176253	 2.4735294785	-0.265307
C	-0.016237836	-2.2626139041	 1.9535261221	-0.222967
C	 0.9902849593	-1.9786689368	 0.8057683709	-0.277055
O	 2.0541228179	 0.3027820964	 1.2591676747	-0.238112
C	 2.9689620295	 0.2479547446	 0.2778889864	 0.152927
O	 3.9865436387	 0.8769233008	 0.3065843679	-0.283349
H	 0.4748111415	 2.316835025	 0.603994534	 0.141179
H	-1.1103256869	 2.1738781024	-0.1731137925	 0.116895
H	-0.9177627593	 1.7527799234	 1.5316461082	 0.121801
H	-1.038324916	-0.3156503007	 0.0729474635	 0.105795
H	 0.3279692502	 0.2578639136	-0.8625710814	 0.100498
H	 0.9904777389	-0.7818236247	 3.2483814178	 0.122922
H	-0.6437586173	-0.240315659	 2.8027714562	 0.105375
H	 0.2318179386	-3.0789853364	 2.6333445041	 0.110701
H	-1.0346474054	-2.4151073797	 1.5883592401	 0.110839
H	 0.7349064826	-2.3215886544	-0.2001238518	 0.103879
H	 1.9952318849	-2.327509057	 1.05692524	 0.117026
H	 2.6927722082	-0.4387715009	-0.5439037446	 0.080506
