18
gdb 45858	2.53992	1.79922	1.18875	2.8181	78.2	-0.215	-0.0024	0.2127	1045.1507	0.149917	-401.990779	-401.983085	-401.982141	-402.022972	30.385	
O	 0.0260813141	-0.0295457297	 0.1675849992	-0.380748
C	 0.0315328219	 1.1814646086	 0.0424602112	 0.375102
N	-1.1443996738	 1.9023347434	 0.0117791953	-0.358463
C	-1.2167648911	 3.2997573678	-0.0018062865	 0.023726
C	-0.1539326532	 4.0589580576	-0.2647980738	-0.120465
C	 1.1614015403	 3.4150862461	-0.6144807593	-0.361103
C	 1.2816876128	 2.0148638532	-0.0208465505	 0.214647
C	 2.2158233478	 1.7759974404	 1.1646615742	-0.284004
C	 2.5691464678	 1.2472409994	-0.1909482124	-0.295979
H	-1.9799315554	 1.3548832933	 0.1502234836	 0.253419
H	-2.1982551385	 3.7034391709	 0.2170959109	 0.113693
H	-0.2485576844	 5.1374646209	-0.2710608444	 0.095738
H	 1.2618547834	 3.361021445	-1.7106913655	 0.116696
H	 2.0014144382	 4.0299750324	-0.2722786401	 0.108053
H	 2.7464644253	 2.6420510391	 1.5459878245	 0.114111
H	 1.8940759406	 1.0631277242	 1.9147800309	 0.13333
H	 2.4701261225	 0.1807076366	-0.3532480339	 0.142203
H	 3.3595756017	 1.738577651	-0.7482688635	 0.110045
