22
gdb 103861	3.01488	0.97888	0.90495	0.5999	84.29	-0.2316	0.074	0.3055	1432.9535	0.192245	-404.300699	-404.29082	-404.289876	-404.335544	37.232	
C	 0.0677581283	 1.5030054643	-0.2987156099	-0.394142
C	-0.0160979006	 0.0723443173	 0.2458108784	-0.224357
C	-1.4068575498	-0.5193412328	 0.14339419	 0.382187
O	-2.3827006251	 0.1214002792	 0.9308251564	-0.475791
C	-1.8821594702	-1.1359891045	-1.1575509097	-0.377311
C	-1.6139748393	-2.0036049973	 0.0558324309	 0.00013
N	-0.4714580837	-2.8719029369	 0.0204502344	-0.06466
C	-0.2726976358	-3.7359697428	 1.1812617771	-0.223792
C	-0.7452548593	-4.3001400167	-0.113425283	-0.220728
H	 1.0830796089	 1.8997929181	-0.2067782894	 0.114771
H	-0.2133553087	 1.5434152929	-1.3569408043	 0.115088
H	-0.5947788889	 2.1795437114	 0.253077098	 0.106659
H	 0.6804097805	-0.5814739242	-0.2859446105	 0.115689
H	 0.2832518642	 0.0634033576	 1.3013349058	 0.099371
H	-2.5989200979	 0.9586968146	 0.5066068552	 0.281689
H	-2.9163080353	-0.982202756	-1.4449979148	 0.108123
H	-1.1726963485	-1.2071960981	-1.9749357247	 0.11638
H	-2.4972971166	-2.3674709073	 0.5873871624	 0.081219
H	 0.757216922	-3.8701866343	 1.4993655771	 0.116305
H	-0.9960393608	-3.6718646501	 1.9920271335	 0.115846
H	-1.7858292301	-4.6145657539	-0.1703011038	 0.111886
H	-0.066128133	-4.8531483804	-0.7561271792	 0.115439
