16
gdb 22140	4.90935	0.53846	0.51231	2.2249	83.88	-0.2341	-0.041	0.1931	2068.2348	0.119761	-437.827991	-437.817541	-437.816597	-437.867374	34.667	
C	-0.3558778466	 1.4444273089	-0.0307306599	-0.477196
C	 0.0936301697	 0.0070077922	 0.0710749184	 0.198585
N	 0.3965040748	-0.576653303	 1.1796161618	-0.154628
O	 0.2495094231	 0.2971358494	 2.2557519082	-0.390275
C	 0.196512194	-0.7789397868	-1.1113673196	-0.003581
C	 0.2719308307	-1.3820492462	-2.1539876992	 0.137079
C	 0.3193570776	-2.1696329894	-3.3743747488	-0.424378
C	-0.6283479237	-3.3745263062	-3.3262263823	 0.171014
O	-1.2613222128	-3.7551441715	-4.2717871981	-0.227059
H	 0.4149637823	 2.1082338179	 0.3730501077	 0.151722
H	-0.5627028196	 1.7161052521	-1.0655366524	 0.132383
H	-1.254915628	 1.6000104642	 0.5736647341	 0.152318
H	 0.5001078793	-0.2557395088	 3.0039245892	 0.313202
H	 0.0765262123	-1.5786289674	-4.2632134627	 0.15764
H	 1.3329363612	-2.573730608	-3.5234687587	 0.160883
H	-0.6714242143	-3.8826539174	-2.3393855778	 0.10229
