16
gdb 19872	4.14591	2.13612	1.85065	2.5497	62.32	-0.2401	0.0723	0.3124	748.9241	0.132728	-383.692673	-383.686673	-383.685729	-383.722736	23.847	
C	-0.0190181126	 1.5432253862	-0.0169084158	-0.09611
O	 1.3526713624	 1.9321749917	 0.0447596256	-0.255966
C	 2.0513572998	 1.0028851047	 0.8723322681	-0.096107
C	 1.3880176629	-0.3582962678	 0.6150582782	-0.06415
C	 0.6497732466	-1.0692310086	 1.772839401	 0.008651
O	-0.1897732266	-0.0949862248	 2.4036626994	-0.235498
C	-0.6637766032	-0.7265254617	 1.2085142187	 0.008662
C	-0.0139704399	 0.0076072939	 0.0128280451	-0.064144
H	-0.5771170083	 1.9450060783	 0.8399986512	 0.103913
H	-0.4311209924	 1.9634857792	-0.9381138761	 0.103782
H	 3.1041380012	 1.0408032668	 0.5803010291	 0.103782
H	 1.9641472737	 1.2817992225	 1.9314782174	 0.103906
H	 1.9785270266	-1.0332527992	-0.0057630111	 0.083472
H	 0.9678172224	-1.9123343502	 2.3749233772	 0.106172
H	-1.6177327664	-1.2377534503	 1.2641246228	 0.10617
H	-0.2217503861	-0.4589615206	-0.9509274211	 0.083464
