18
gdb 37739	3.33759	2.0281	1.52766	0.3739	74.55	-0.2088	0.0873	0.2962	882.4102	0.150293	-401.84134	-401.835162	-401.834218	-401.871464	26.584	
C	-0.1176251492	 1.5625894626	 0.0036131101	-0.347931
C	 1.4193590345	 1.2590039887	 0.0091318614	-0.091475
C	 1.2376593311	 0.0021777719	 0.897948787	-0.060604
N	 1.9753430419	-0.9302391875	-0.0271893906	-0.15314
C	 1.2531426355	-2.2325631572	-0.0066478713	-0.183286
C	-0.2218784344	-2.164047798	-0.4915093818	-0.099939
O	-0.9345719568	-0.9852684384	-0.0549686594	-0.30946
C	-0.0163044452	 0.0354776532	-0.0270476087	 0.435462
C	 1.2613943173	 0.0416454133	-0.939132057	-0.082099
H	-0.5250422247	 2.0148487385	 0.9121595055	 0.105639
H	-0.5144277961	 2.0552641454	-0.8886698689	 0.103684
H	 2.2504213968	 1.9589401921	 0.0319107827	 0.090995
H	 1.2837690597	-0.0818800671	 1.9851430314	 0.07769
H	 1.7783968395	-2.9494494649	-0.6480253145	 0.106773
H	 1.3091288852	-2.6168175007	 1.0188672102	 0.109259
H	-0.2370281915	-2.1757138993	-1.5899843167	 0.104818
H	-0.7898744555	-3.026936124	-0.1354718845	 0.113202
H	 1.3380413719	 0.0243929015	-2.0272334149	 0.080413
