17
gdb 74771	3.68751	1.10463	1.02151	3.0993	74.55	-0.2364	-0.0383	0.1982	1207.3985	0.13481	-421.787397	-421.7794	-421.778456	-421.820205	30.07	
C	-0.0220275914	 1.4651772464	 0.045207773	-0.518079
C	-0.0015946705	-0.0197752684	-0.0267230681	 0.361372
C	 0.0081959275	-0.8895013606	-1.0410306815	-0.20127
C	 0.0142949733	-2.2354265808	-0.2993723902	 0.001347
O	-0.9724282634	-2.0015765066	 0.7630145362	-0.282882
C	 0.0003692838	-0.9911280436	 1.1800441702	-0.058601
C	 1.1365821709	-1.9958168095	 0.7751048597	-0.081954
C	 1.3442927669	-3.1340073778	 1.7410173045	 0.141519
O	 2.4346428656	-3.5284712289	 2.0749758058	-0.258869
H	 0.8483477023	 1.850157482	 0.5914772291	 0.135401
H	-0.0207074655	 1.9129618978	-0.9520134111	 0.134635
H	-0.9105859442	 1.8239767454	 0.5795734929	 0.138815
H	 0.0042928856	-0.7322928747	-2.1093582972	 0.114993
H	-0.111047239	-3.1723736327	-0.8400765146	 0.093264
H	-0.1383385105	-0.6115311568	 2.1924889854	 0.089399
H	 2.0923438731	-1.5908763448	 0.4394234984	 0.093345
H	 0.4116151256	-3.5926633164	 2.1293646176	 0.097563
