21
gdb 31239	1.8559	1.58769	0.95753	1.2486	86.58	-0.1851	0.0533	0.2384	1308.1239	0.1835	-383.302977	-383.293202	-383.292258	-383.33836	35.833	
C	-0.201314277	 1.6968778382	 0.0389896384	-0.361046
C	-0.1394599441	 0.1818556427	-0.2213880686	-0.305054
C	-1.4649414943	-0.509316554	-0.077834875	 0.248614
C	-2.2060686185	-1.0902669103	-1.0919139575	 0.175
N	-1.9845729408	-1.2574125929	-2.4740720912	-0.391055
C	-2.4415712184	-0.156482402	-3.3311697882	-0.325894
N	-3.3633035596	-1.5890821516	-0.5366228276	-0.257988
C	-3.3774417031	-1.3455856924	 0.8125101865	-0.089266
C	-2.2143552387	-0.6849232369	 1.1264892381	-0.243956
H	 0.787054668	 2.1570257485	-0.0656111914	 0.103411
H	-0.8835170359	 2.1866049525	-0.6632477715	 0.114682
H	-0.565434976	 1.9059178256	 1.0498269817	 0.118085
H	 0.2539571908	 0.0086145227	-1.231156986	 0.079094
H	 0.5916897832	-0.2647635125	 0.46563687	 0.101163
H	-1.0085644659	-1.4579724784	-2.653627976	 0.230718
H	-3.5222859293	-0.0333599601	-3.2147856885	 0.124971
H	-1.9675360323	 0.8111291405	-3.1052797446	 0.110101
H	-2.2423853677	-0.4091892066	-4.3772362066	 0.115428
H	-4.0370932395	-2.1247159514	-1.0557933377	 0.256011
H	-4.2034732328	-1.6620907432	 1.4285841366	 0.111977
H	-1.925454158	-0.3535032785	 2.1131933288	 0.085002
