18
gdb 89831	3.31588	1.31614	1.03697	4.6492	73.61	-0.2435	0.0573	0.3008	1172.215	0.147903	-439.123455	-439.11501	-439.114066	-439.156906	31.109	
C	-0.0448401972	 1.3953355932	 0.0460289098	-0.337751
N	-0.0447553189	-0.0473026444	 0.0626011398	-0.134674
C	-1.2295265746	-0.8458900487	-0.1594633562	-0.263244
C	-0.6331204282	-2.2486075223	-0.1190565971	 0.434464
C	-1.1150822228	-3.3426034222	 0.7826356651	-0.322022
C	-1.2522230158	-3.45835468	-0.7290037908	-0.330574
O	 0.771813791	-2.0960404321	-0.2567651256	-0.272081
C	 1.1072485906	-0.7769118683	-0.101089269	 0.471578
O	 2.2402038462	-0.3773065484	-0.1124220517	-0.405818
H	 0.9906308779	 1.7274008518	 0.1341567146	 0.169651
H	-0.4681968097	 1.7880540321	-0.8889747834	 0.121204
H	-0.6260758151	 1.7967160447	 0.8838555134	 0.125819
H	-1.9823664186	-0.6910624333	 0.6225606568	 0.119032
H	-1.6964613933	-0.6156940975	-1.130699065	 0.109613
H	-0.3575207248	-3.9527310446	 1.2608956194	 0.137137
H	-2.0076934973	-3.1670880675	 1.374226031	 0.118712
H	-2.2377050057	-3.3616197814	-1.1731707308	 0.12075
H	-0.5869714837	-4.1453778611	-1.2392685203	 0.138205
