13
gdb 129056	2.87629	1.66557	1.05478	3.5922	71.08	-0.2536	-0.1063	0.1473	1028.8354	0.090613	-448.934689	-448.927471	-448.926527	-448.967122	26.071	
N	-0.0512714641	 1.2404046429	-0.428691459	-0.533921
C	 0.0322446684	 0.0152002457	-0.0753700659	 0.379271
C	 1.2516956895	-0.7004352145	 0.3259764182	-0.015711
N	 1.2949479646	-1.9347057413	 0.6749403007	-0.239505
C	 0.0775071502	-2.6068682033	 0.6582328335	 0.080262
N	-1.0691281468	-2.1208880411	 0.3327305906	-0.148129
N	-1.1111853014	-0.813991985	-0.0361080623	-0.131691
C	-2.3955758536	-0.3048066529	-0.3908791624	 0.178081
O	-3.3914163283	-0.9664584262	-0.3733110463	-0.251174
H	 0.8663802542	 1.6826726403	-0.3983245682	 0.231971
H	 2.1764587674	-0.121981885	 0.3198902633	 0.140109
H	 0.0966749009	-3.649917524	 0.9502112934	 0.152037
H	-2.3239259009	 0.7528999144	-0.6715152257	 0.158399
