17
gdb 20809	6.03533	1.21776	1.0954	2.936	71.77	-0.2468	0.0008	0.2476	1127.9045	0.141889	-363.880074	-363.871913	-363.870969	-363.913195	29.157	
C	 0.1219883559	 1.5390267253	-0.1739266196	-0.374578
C	-0.0612260538	 0.0295297538	 0.0612534601	-0.294907
C	 0.5728569485	-0.4461107401	 1.3251739466	 0.456121
C	 0.0887841725	-0.9864365988	 2.475120844	-0.428709
C	 1.2476966885	-1.1974539484	 3.2793219516	 0.395341
C	 1.3368122013	-1.7721978022	 4.6566947466	-0.493569
N	 2.3359008448	-0.8109578885	 2.6558162038	-0.203582
O	 1.9117907426	-0.3333924644	 1.4138610184	-0.219184
H	 1.1829158267	 1.7979282045	-0.2167053763	 0.141832
H	-0.3437677865	 1.8380715398	-1.1171613121	 0.11794
H	-0.3351800169	 2.1188916766	 0.6333117187	 0.125225
H	-1.1249957643	-0.2237897389	 0.0983652344	 0.1179
H	 0.3683047807	-0.525072363	-0.7820178352	 0.128421
H	-0.9380506569	-1.2057947151	 2.718007487	 0.110369
H	 0.9353012505	-2.7905510846	 4.6830173439	 0.136115
H	 2.3774414067	-1.7982435684	 4.9852764035	 0.149301
H	 0.7591457698	-1.1739923878	 5.3690446048	 0.135964
