14
gdb 42189	3.15676	1.35438	1.11454	4.6595	68.04	-0.2683	-0.1007	0.1676	1063.5866	0.099613	-436.622817	-436.615066	-436.614122	-436.656794	27.872	
O	-0.0025975019	-0.0455119721	-0.0901305724	-0.267816
C	-0.0910974608	 1.1537490687	-0.0136230616	 0.171569
C	 1.1098018969	 2.0096985456	 0.039632252	 0.24747
N	 2.0624052081	 2.6638219861	 0.0713335578	-0.306774
C	-1.3981273419	 1.8799601886	 0.000847516	 0.335165
C	-2.2683275837	 2.3033264406	-1.2238921971	-0.247725
C	-2.8371078791	 2.9262506984	 0.0729887793	 0.031935
C	-2.6893398505	 1.5653373918	 0.7973294307	-0.250386
O	-1.4466510474	 3.2692274628	 0.4839031096	-0.331896
H	-1.7841394319	 3.003766867	-1.9038984291	 0.131283
H	-2.8450543181	 1.5256829061	-1.7276295035	 0.121102
H	-3.5937050198	 3.6984853973	 0.1961569972	 0.118055
H	-3.3038194711	 0.7286766753	 0.4620891475	 0.120562
H	-2.5805524589	 1.6223387237	 1.8800760138	 0.127455
