21
gdb 82042	2.65004	1.5039	1.25846	1.3863	81.77	-0.2324	0.077	0.3094	1110.1907	0.182761	-387.046892	-387.038531	-387.037587	-387.079809	32.692	
C	-0.0660314313	 1.6434135838	-0.3010959491	-0.419489
C	 0.0670158356	 0.1372198147	-0.1197400198	-0.043637
C	 1.115946949	-0.6398754683	-0.9336881148	-0.064211
C	 2.5061479459	-0.3080833222	-0.471953908	-0.291892
C	 1.674946414	-1.2603532331	 0.3467151058	-0.119175
C	 0.6813099129	-0.4659845905	 1.1909225901	 0.448996
C	 1.0926241112	 0.3399752465	 2.4422464203	-0.356273
C	 0.1057843282	-0.5771865428	 3.1861469342	-0.077963
O	-0.2472635443	-1.2580861494	 1.9640596492	-0.326746
H	 0.8936792591	 2.1574323971	-0.1841477876	 0.113043
H	-0.4473252651	 1.881713515	-1.3000648412	 0.116526
H	-0.7645675043	 2.0689595005	 0.4280049827	 0.115174
H	-0.911424419	-0.3420408217	-0.2272994147	 0.09059
H	 0.9342123225	-1.1151008742	-1.8902416213	 0.083791
H	 3.3101999631	-0.7667508774	-1.038639768	 0.112703
H	 2.7505530539	 0.6802291347	-0.0890062993	 0.106082
H	 1.9744533457	-2.2811384854	 0.5505778668	 0.090948
H	 2.1423878907	 0.2432192802	 2.725691526	 0.110445
H	 0.8216242217	 1.397424159	 2.4242087383	 0.109393
H	 0.5501640928	-1.2600643216	 3.9205615032	 0.100677
H	-0.7604022621	-0.0828788448	 3.6418962571	 0.101019
