23
gdb 84433	2.42628	1.60255	1.20037	0.2392	90.83	-0.2207	0.0235	0.2442	1165.876	0.205039	-351.168824	-351.159403	-351.158459	-351.202024	37.158	
C	-0.1856394752	 1.5523184533	 0.0354868842	-0.394686
C	 0.0231426603	 0.0311353741	-0.0082656172	-0.090715
C	 0.8406123404	-0.4538100985	-1.1892435872	-0.090698
C	 1.8349513513	-1.260994112	-0.8184199824	-0.142295
C	 1.9058371417	-1.4271528544	 0.6679209568	 0.274784
C	 2.3286082434	-2.7583364039	 1.2441078373	-0.487702
C	 2.212829754	-0.1243369218	 1.3908962427	-0.369309
C	 0.7731544768	-0.5524681496	 1.2044331985	 0.302049
C	-0.0522892223	-0.9138159438	 2.4172353512	-0.486038
H	 0.7697901569	 2.0836207675	 0.0827163336	 0.117038
H	-0.7194916793	 1.900857206	-0.8550111657	 0.109724
H	-0.7770671432	 1.8412155282	 0.9107420084	 0.112881
H	-0.9762519046	-0.4315415378	-0.0505300679	 0.072563
H	 0.6255799237	-0.1444790043	-2.2067270759	 0.088055
H	 2.5447886795	-1.7379225956	-1.4869911693	 0.088165
H	 3.3573221832	-3.0011743656	 0.9519942058	 0.116489
H	 2.2945742842	-2.7545551742	 2.3374408496	 0.114743
H	 1.6842901646	-3.5715873464	 0.8909765851	 0.116717
H	 2.6062893023	-0.1992638419	 2.4012856862	 0.099479
H	 2.6164607247	 0.6999077118	 0.8120242718	 0.105222
H	-0.5260779478	-0.02371918	 2.8492857999	 0.116685
H	-0.8511878264	-1.6199482562	 2.1611188336	 0.114002
H	 0.5560011418	-1.3696142051	 3.203916911	 0.112846
