19
gdb 107371	3.19038	1.15675	0.96973	2.9214	74.99	-0.2426	-0.0194	0.2232	1235.2291	0.159138	-423.044231	-423.035761	-423.034816	-423.077595	32.486	
O	 0.1627168565	 1.3733632148	 0.3552460322	-0.414356
C	 0.1051753981	-0.016530444	 0.0674810833	-0.153559
C	-1.3028313678	-0.5092213934	-0.1481824096	 0.316714
C	-2.1188521658	-0.9623648156	 1.0455536966	-0.342346
C	-1.6708164326	-1.9778177355	 0.0226316049	-0.092213
C	-2.6746003449	-2.3696484857	-1.041790374	-0.334907
C	-3.1024398038	-1.0468255412	-1.701165144	 0.378598
O	-4.0646101416	-0.8990733898	-2.4068149513	-0.302462
C	-2.1004065852	 0.0506745864	-1.3132019346	-0.382046
H	-0.3908780621	 1.5299310847	 1.1278920518	 0.282315
H	 0.6982281734	-0.1462053374	-0.8455806707	 0.109125
H	 0.5885664669	-0.6125732563	 0.8589527337	 0.08326
H	-1.6256093856	-0.9824485692	 2.0124168834	 0.113503
H	-3.1725546263	-0.6998526762	 1.0937015366	 0.118922
H	-0.9116929833	-2.6943022546	 0.3165385351	 0.091173
H	-2.2154002253	-3.0005575938	-1.8140210281	 0.13175
H	-3.5533115944	-2.906372177	-0.6717502614	 0.132356
H	-2.6245131586	 0.9877515406	-1.1071929897	 0.13276
H	-1.4480105576	 0.2381387732	-2.176909874	 0.131412
