14
gdb 5433	3.58231	1.89371	1.24846	0.3606	72.99	-0.2141	-0.0024	0.2117	920.4071	0.10638	-345.412127	-345.404675	-345.403731	-345.443784	27.605	
C	 0.0961722115	 1.4803436285	 0.0696353631	-0.505072
C	-0.035891662	 0.0028445255	 0.0511090916	 0.268992
C	-1.1231282215	-0.8318530829	-0.0292221174	 0.059285
C	-0.5964049434	-2.1766239263	-0.0015867674	-0.298794
C	 0.7466729969	-2.0505755208	 0.0918289958	-0.011119
O	 1.102029893	-0.7333561279	 0.1247882614	-0.174026
C	-2.4783896002	-0.4410277255	-0.1200908951	 0.236175
C	-3.6363261768	-0.1173531654	-0.197730004	-0.45656
H	 0.7000517325	 1.838829646	-0.7716604541	 0.142134
H	-0.8953600767	 1.9321993429	 0.0034655787	 0.151158
H	 0.5773601531	 1.8276851208	 0.9909245613	 0.142133
H	-1.1665999036	-3.0901839406	-0.0467556529	 0.120322
H	 1.560071399	-2.7546882447	 0.1434166868	 0.138838
H	-4.6561195018	 0.1693387303	-0.2660631677	 0.186535
