17
gdb 47246	2.38436	1.72287	1.11776	4.8373	78.98	-0.2183	-0.0443	0.1741	1082.0494	0.137969	-418.031845	-418.02382	-418.022876	-418.064724	30.409	
N	-0.2752108115	 1.3635816394	-0.3809794188	-0.496144
C	-0.0209886726	 0.1840918841	 0.0339198878	 0.284859
N	 1.1854006709	-0.249603833	 0.5591598017	-0.3599
C	 1.6233013804	-1.5267137228	 0.9354564421	 0.001725
C	 0.9435962871	-2.6422245733	 1.2213246516	-0.075842
C	-0.5375059055	-2.8844264133	 1.2606797489	-0.271745
C	-1.4047488255	-1.6115027948	 1.2725150631	-0.312504
C	-1.1719705421	-0.817456414	 0.0024506225	 0.36513
O	-1.8463896223	-0.950546424	-0.9867131455	-0.286106
H	 0.5319144334	 1.985721717	-0.2803857195	 0.204628
H	 1.9108945596	 0.4515937881	 0.540929187	 0.244348
H	 2.7067136209	-1.5601469446	 0.9935388451	 0.109064
H	 1.5617341781	-3.5037242195	 1.4556688834	 0.095253
H	-0.8415142102	-3.5059197493	 0.4065242456	 0.132366
H	-0.7741511021	-3.4755239912	 2.1542211008	 0.115404
H	-2.4619633909	-1.8848296767	 1.3034269158	 0.129846
H	-1.1648189275	-1.0057773823	 2.1529708686	 0.119617
