18
gdb 62452	3.59428	1.1745	1.14625	4.5829	76.7	-0.2548	0.0289	0.2838	1134.8942	0.148385	-401.954055	-401.945716	-401.944771	-401.987049	31.117	
C	-0.0211136069	 1.5442254233	 0.0513521579	-0.472261
C	 0.0256231361	 0.0278999863	-0.0181807546	 0.107748
C	-1.1243500971	-0.6418258135	 0.5337671574	 0.234392
N	-2.0428234036	-1.1862964516	 0.9810264197	-0.345068
C	 0.691453114	-0.7311942636	-1.1825005361	-0.116053
C	 1.6089000435	 0.0579088041	-2.1141618657	-0.277722
C	 2.8914974153	 0.2300327986	-1.2690652589	-0.070711
O	 2.5054833366	 0.0582335616	 0.1057651324	-0.257061
C	 1.3551404691	-0.7264685394	 0.1545134436	 0.066925
H	 0.9749857001	 1.9632020456	-0.0983614286	 0.140723
H	-0.7019660529	 1.9581491385	-0.6983884904	 0.133202
H	-0.3693122791	 1.862440001	 1.0375065764	 0.143286
H	 0.1770482851	-1.6066791465	-1.5575528391	 0.119853
H	 1.8029976382	-0.5039867966	-3.0306887682	 0.120095
H	 1.1797148684	 1.0208303944	-2.404741396	 0.120673
H	 3.6425036357	-0.5272008573	-1.5326021044	 0.109925
H	 3.3489047203	 1.2182772202	-1.3625211315	 0.119054
H	 1.404519437	-1.5817224753	 0.8198418661	 0.122998
