16
gdb 132576	3.07766	1.37589	0.9621	0.9311	74.93	-0.2468	-0.0396	0.2072	1174.2853	0.123193	-442.102486	-442.093913	-442.092969	-442.136978	30.339	
C	-0.0454894547	 1.486405691	 0.0094124687	-0.459576
C	-0.0217043086	-0.0171820597	-0.0120077999	 0.342807
N	-0.0540266888	-0.6225678758	-1.2035919189	-0.278375
C	-0.0320122244	-1.9580258838	-1.1965706099	-0.097521
C	 0.0213454687	-2.6678998529	-0.0146354029	 0.192309
F	 0.042974388	-4.0045636696	-0.0176277125	-0.069847
C	 0.0528207815	-1.9716389112	 1.193533472	 0.198988
C	 0.1109530151	-2.68959848	 2.5104817054	-0.488789
N	 0.0305336855	-0.6384091148	 1.1764510146	-0.320886
H	 0.8458682756	 1.8736160789	 0.513028002	 0.139688
H	-0.0880124542	 1.8783974395	-1.0067731961	 0.137447
H	-0.9110109772	 1.8449245966	 0.5754631351	 0.139686
H	-0.0573279036	-2.4769008978	-2.1517925006	 0.128251
H	 1.0004590833	-3.3257445728	 2.5702005057	 0.144675
H	 0.1322137439	-1.9606806188	 3.3207940054	 0.146375
H	-0.75610511	-3.3469012588	 2.6359896518	 0.144766
