16
gdb 71338	3.48587	1.32573	1.08768	3.8985	70.19	-0.2474	-0.0277	0.2198	1083.8028	0.12316	-437.787987	-437.780386	-437.779442	-437.820258	29.023	
O	-0.0285313792	 1.3887555973	 0.1640485053	-0.459653
C	 0.0746963233	 0.012061146	 0.0969736654	 0.332475
C	 0.8302020579	-0.9762544486	 0.9804466642	-0.242987
N	 0.0873335694	-1.9128868603	 0.0335537961	-0.148465
C	-1.1330793678	-0.9581982862	 0.0302645679	-0.057838
C	-1.2032465618	-1.00255361	-1.5124457551	-0.105559
C	-1.8184904244	 0.1579716103	-2.244297689	 0.129442
O	-2.5636633537	 0.029142775	-3.1845170633	-0.256887
C	 0.2948986393	-0.9341684239	-1.1412102113	-0.095142
H	 0.8510553141	 1.773836821	 0.0764170048	 0.289415
H	 1.9190755186	-1.0380416168	 0.8848042651	 0.105109
H	 0.5206801882	-1.0764789583	 2.0251067744	 0.113824
H	-1.9342011473	-1.0818652525	 0.7599249147	 0.099517
H	-1.5339215649	-1.954043882	-1.9353582435	 0.105778
H	-1.5389604553	 1.1614749779	-1.8610337375	 0.097247
H	 1.1685808736	-1.023238719	-1.7888619284	 0.093724
