19
gdb 93431	2.84577	1.35705	0.96008	1.4706	79.15	-0.2565	-0.0118	0.2447	1222.0532	0.161431	-419.279446	-419.270998	-419.270054	-419.312704	32.231	
C	-0.2104511292	 1.534329047	 0.0174720414	-0.398174
C	 0.053335902	 0.0268986118	-0.0062689464	-0.098177
C	 0.7733343058	-0.4511040927	-1.2750399587	-0.227773
C	 1.0336185586	-1.957987069	-1.2142255635	-0.269087
C	 1.82313676	-2.3476343608	 0.0125446978	 0.392358
N	 2.626861171	-3.33411243	-0.0179359714	-0.512839
N	 1.5781609493	-1.5562110945	 1.1400665286	-0.376781
C	 0.8026054247	-0.4077123399	 1.2517003783	 0.420138
O	 0.7414125944	 0.1791143656	 2.3107908302	-0.356985
H	 0.7250492752	 2.0962416815	-0.0712638475	 0.12306
H	-0.8590170346	 1.8193280979	-0.8159854458	 0.11148
H	-0.6858093359	 1.8262298422	 0.9550517204	 0.143849
H	-0.914760872	-0.4957529689	 0.0455093384	 0.109695
H	 0.1693011509	-0.2089661369	-2.1548617923	 0.109534
H	 1.7218441228	 0.0900209411	-1.3845566286	 0.112692
H	 0.0741580883	-2.492345716	-1.183308118	 0.126233
H	 1.5755694423	-2.3268831899	-2.0861701889	 0.136268
H	 3.0691836616	-3.4935715238	 0.8902824878	 0.206056
H	 2.0623571346	-1.7960317345	 1.9968400283	 0.248453
