17
gdb 99353	6.93587	0.59889	0.55705	2.7682	72.83	-0.263	0.0123	0.2754	1917.1673	0.131461	-458.935484	-458.924987	-458.924042	-458.972981	34.733	
C	 0.11903936	 1.3169503838	 0.0072781884	-0.239507
O	-0.0553146437	-0.1061893793	 0.0009136728	-0.234853
C	-1.3367914929	-0.5278205163	 0.0120566103	 0.413887
O	-2.2936573578	 0.1944663085	 0.026263858	-0.33017
C	-1.3515815863	-2.048301542	 0.0040294352	-0.166167
O	-2.6761874423	-2.4959463718	 0.0140296419	-0.223827
C	-2.7597651786	-3.9096066142	 0.0075236038	-0.203183
C	-4.1553109133	-4.3243418335	 0.018201874	 0.281517
C	-5.2958389906	-4.6985312397	 0.026744265	-0.406054
H	 1.1959736686	 1.4842186681	-0.0023271693	 0.134497
H	-0.3462789572	 1.7656287428	-0.8739244289	 0.143575
H	-0.3289237382	 1.7555796092	 0.9024152376	 0.143598
H	-0.8017254099	-2.395978468	-0.88686415	 0.120725
H	-0.7852706757	-2.4053389147	 0.8808265534	 0.12073
H	-2.2558459658	-4.3211635569	-0.8840511296	 0.121072
H	-2.2395927204	-4.3302582687	 0.8854153627	 0.121075
H	-6.3083768359	-5.0188057273	 0.0344107949	 0.203086
