18
gdb 41091	3.36301	1.86372	1.71504	2.4701	75.68	-0.2296	0.0466	0.2762	862.0176	0.149939	-401.793592	-401.787428	-401.786484	-401.823682	26.64	
C	 0.0508081896	 1.5383945101	 0.1559593709	-0.196447
O	 1.5169774406	 1.4895621401	-0.0787187462	-0.323677
C	 1.2694214312	 0.2807992171	-0.8735398446	 0.150167
C	 1.5552902235	-1.2365434904	-0.711115761	-0.13721
C	 1.6361514306	-1.3446556127	 0.8131174573	-0.167418
N	 0.2646937466	-0.8467640858	 1.1189711522	-0.162772
C	-0.5572681912	-1.9333891142	 0.4659032166	-0.168167
C	-0.0976164931	-1.3905883906	-0.8676285831	-0.159353
C	 0.0061950968	 0.0315732444	-0.1695809846	 0.251295
H	-0.1845605596	 1.8043790727	 1.1881273826	 0.132416
H	-0.4338959475	 2.2108881567	-0.559854646	 0.111312
H	 1.1336757856	 0.5522626579	-1.9276386746	 0.082652
H	 2.2524401115	-1.7731714452	-1.3553728764	 0.072318
H	 1.7804879664	-2.3540891666	 1.2052308272	 0.099183
H	 2.3960142383	-0.6825059375	 1.2334871053	 0.121818
H	-0.2863951056	-2.949765545	 0.7674242081	 0.099254
H	-1.6221410465	-1.7622070322	 0.6424604946	 0.111953
H	-0.5141367173	-1.6048683088	-1.8512231184	 0.082677
