20
gdb 109060	3.94248	1.21438	1.10818	1.8247	83.7	-0.2075	0.0098	0.2174	1186.3363	0.172794	-365.978945	-365.971199	-365.970255	-366.011442	30.623	
C	 0.0747894183	 1.4598208553	 0.2851240002	-0.374101
C	-0.0653943681	-0.0119059996	-0.1441461055	-0.304375
C	-1.4829976525	-0.4969976556	-0.1534505129	 0.362751
C	-2.2247425145	-0.917449621	-1.1834669692	-0.212026
C	-3.5354825041	-1.4353868332	-0.6540534261	-0.051241
C	-3.275107206	-2.7676381943	 0.126622146	-0.240732
C	-3.0861809487	-1.8865248683	 1.3479603372	-0.043296
C	-2.3308714036	-0.6087718237	 1.0747712053	-0.135709
N	-3.7538951029	-0.7081502468	 0.6862101915	-0.135976
H	 1.1253177915	 1.7659119613	 0.2790441114	 0.114232
H	-0.4772563268	 2.1167894792	-0.3935856348	 0.12563
H	-0.3134369622	 1.623555616	 1.2952968354	 0.121999
H	 0.3659618931	-0.1442482311	-1.1423652889	 0.104984
H	 0.5284859009	-0.637812861	 0.5362946147	 0.107932
H	-1.898910972	-1.0327991252	-2.2102906377	 0.095284
H	-4.3948798093	-1.4015454549	-1.3222270542	 0.078512
H	-4.1932575133	-3.3510004625	 0.2268955243	 0.113039
H	-2.4590263096	-3.4148747196	-0.2085604625	 0.096143
H	-3.3214942544	-2.1770520959	 2.3680465002	 0.090664
H	-2.1363868256	 0.0227398607	 1.9370994856	 0.086287
