19
gdb 40055	3.23239	1.58002	1.48702	1.5973	73.71	-0.2325	0.0873	0.3198	975.1869	0.161525	-423.021161	-423.014179	-423.013235	-423.052373	28.87	
C	 0.0380039221	 1.5302470725	 0.0347808262	-0.342719
C	 1.3251391989	 0.7107849278	 0.0295155625	-0.345639
C	-0.0069069123	 0.0395893057	-0.0371698333	 0.489923
O	-0.4524832423	-0.7014111699	 1.0960077639	-0.315915
C	-1.1008839937	-1.8405607931	 0.5223853602	 0.181096
C	-2.4865425442	-1.4107884774	 0.0041575112	-0.233792
C	-2.0647468474	-0.6346643153	-1.281662168	-0.224677
C	-0.5281657915	-0.7854955834	-1.2082503093	-0.051091
O	-0.3749488167	-2.1107989558	-0.661382943	-0.249635
H	-0.2568502133	 1.9893849403	 0.9716798443	 0.125406
H	-0.2132710234	 2.1060352631	-0.8508585072	 0.112377
H	 1.9489594291	 0.7289326855	-0.8582433064	 0.113385
H	 1.8649634378	 0.6301774616	 0.9663992584	 0.125753
H	-1.0503691182	-2.6776574175	 1.2174547968	 0.092039
H	-3.1046136669	-2.2820288249	-0.2263817844	 0.106235
H	-3.0089281605	-0.7923243289	 0.7358659047	 0.11235
H	-2.4528395072	-1.1088721081	-2.1854832819	 0.105874
H	-2.3790161201	 0.4108719402	-1.2757040205	 0.110043
H	 0.0241877699	-0.6903849823	-2.1415316843	 0.088987
