20
gdb 57797	3.889	0.62637	0.59185	3.233	85.35	-0.2388	0.0297	0.2685	1957.894	0.167943	-403.165615	-403.15429	-403.153345	-403.20542	38.911	
C	-0.1729859238	 1.5664522825	 0.6027694344	-0.373847
C	-0.0330207027	 0.1884252551	-0.0741488805	-0.124749
C	 0.9272233908	-0.727293389	 0.7112274386	-0.372003
C	-1.3388251124	-0.4494771486	-0.243602655	 0.140163
C	-2.4137410851	-0.9806679702	-0.3478244129	 0.039909
C	-3.7106782096	-1.6204241086	-0.4885931071	-0.495283
C	-4.0342340958	-2.6273955667	 0.6350825418	 0.425775
N	-5.0729329866	-3.4633965957	 0.3273535229	-0.527376
O	-3.4681010286	-2.6499133195	 1.7038537379	-0.335729
H	 0.8056737211	 2.0504217394	 0.6850103062	 0.109057
H	-0.8353579779	 2.2211348051	 0.03010416	 0.119224
H	-0.5896111189	 1.4588876808	 1.608852987	 0.128416
H	 0.3975738371	 0.348350643	-1.0729915339	 0.099178
H	 1.9108086246	-0.2551981388	 0.8039503214	 0.10741
H	 0.5382018787	-0.9183744466	 1.7157089558	 0.133381
H	 1.0501816797	-1.6903474867	 0.2090595873	 0.121464
H	-4.5120192699	-0.8678497483	-0.4793594689	 0.155349
H	-3.7885933199	-2.1242975641	-1.4614594551	 0.1301
H	-5.4395310137	-3.54227154	-0.604918309	 0.257322
H	-5.3107957569	-4.178014313	 0.9956460389	 0.26224
