16
gdb 33667	3.28297	1.45318	1.3879	0.5093	76.09	-0.2355	0.0167	0.2521	983.1535	0.125156	-400.663162	-400.656132	-400.655187	-400.694436	28.179	
C	-0.0365910793	-1.1646827825	-0.156249148	-0.34475
C	-0.0318926673	 0.0320981716	-0.0299014566	 0.034208
C	 0.0219724628	 1.4391113996	 0.120757406	 0.285276
C	-0.9056635394	 2.3463262211	 0.835668557	-0.108678
C	-0.0900663317	 3.2860026238	 1.7115540246	-0.109198
O	 1.2772659793	 3.055981997	 1.3486399614	-0.25946
C	 1.2449535572	 2.4065794499	 0.0939620968	 0.003534
C	 0.4456488113	 3.2207769576	-0.947560729	-0.184935
N	-0.8193735839	 2.4625266393	-0.6453776972	-0.19056
H	-0.0509220526	-2.2203303382	-0.269701492	 0.185181
H	-1.8689713552	 1.9872018703	 1.1780997988	 0.12052
H	-0.3606390716	 4.3388593979	 1.553929928	 0.112149
H	-0.2188322887	 3.0544250305	 2.774150995	 0.121563
H	 2.2388449961	 2.0347384727	-0.1470919495	 0.103027
H	 0.3939211579	 4.3032400043	-0.794554646	 0.110658
H	 0.7323593051	 3.0068322453	-1.9794411394	 0.121463
