15
gdb 28032	6.0294	0.88658	0.77658	1.9801	72.21	-0.204	0.0505	0.2545	1375.0871	0.11262	-416.818484	-416.810121	-416.809177	-416.851844	31.254	
O	 1.0066034211	 0.9989206984	 0.8750725046	-0.425157
C	 0.4253619947	-0.0467508828	 0.2634199854	 0.44523
N	 0.7852030785	-0.5953218244	-0.8652216385	-0.419305
C	-0.12565438	-1.6269581582	-1.0585798643	 0.281871
C	-0.0263732937	-2.4988766219	-2.2785887147	-0.468222
C	-1.0481600819	-3.5380336445	-2.3432107511	 0.319516
C	-1.8908689492	-4.3932297262	-2.3943629188	-0.460838
C	-1.0214694169	-1.6769241695	-0.032841513	-0.177231
N	-0.6539463811	-0.6418388925	 0.8249055249	-0.308903
H	 1.744602273	 1.2637968315	 0.3118341218	 0.314735
H	-0.0842645788	-1.8699684728	-3.1775091063	 0.145779
H	 0.9700382635	-2.9603199427	-2.3123243443	 0.145792
H	-2.6312545144	-5.152124704	-2.4488202881	 0.194129
H	-1.8573342218	-2.3229480972	 0.1688790473	 0.140615
H	-1.0922014229	-0.3781331533	 1.6902605152	 0.271987
