16
gdb 13644	5.40367	0.92797	0.84237	1.5768	89.61	-0.2276	-0.0109	0.2167	1350.5081	0.128596	-309.409234	-309.400719	-309.399774	-309.442354	31.304	
C	-0.1196935189	 1.5060221204	-0.1213486907	-0.409578
C	 0.0120839226	 0.0063073154	-0.0029340851	 0.017155
C	 1.3286716733	-0.6757736428	-0.215121189	-0.285047
C	 0.7284594378	-0.6341080937	 1.1888744404	-0.233952
C	 1.3304289421	 0.1643105877	 2.2071255181	 0.454665
C	 1.8319728717	 0.8276816462	 3.0896234128	-0.301133
C	 2.4002715813	 1.5757173823	 4.0722097642	 0.303465
C	 2.9049264435	 2.2398910401	 4.9464647467	-0.573508
H	 0.7711609368	 2.0134188052	 0.2588608765	 0.132946
H	-0.2575504291	 1.7993055918	-1.1675355444	 0.119605
H	-0.9791152165	 1.873947617	 0.4486312385	 0.125472
H	-0.8620791543	-0.5522222018	-0.3269563705	 0.09521
H	 1.3563720574	-1.639276623	-0.7114327138	 0.120774
H	 2.1982342783	-0.0510817158	-0.3868319081	 0.129191
H	 0.3007286363	-1.5673134846	 1.5449465686	 0.1173
H	 3.3491675178	 2.8230936257	 5.7140255159	 0.187435
