14
gdb 123329	4.3263	1.24768	1.05847	3.3005	73.61	-0.2621	0.0092	0.2713	1086.2723	0.102604	-395.672272	-395.665069	-395.664124	-395.704508	26.479	
C	-0.2186053627	-1.2775093082	-0.1839131449	-0.439458
C	-0.0865258519	-0.0869130613	-0.0966079401	 0.34731
C	 0.0645648309	 1.3488804337	 0.0186003088	-0.357793
C	-0.2381923421	 1.989347919	 1.4587307041	-0.178563
N	 1.164884843	 2.4318402988	 1.4223093181	 0.084891
N	 2.187178821	 3.1386755462	 1.950787742	-0.283165
C	 3.0907425607	 2.965430696	 0.9768151984	 0.024815
N	 2.7058660732	 2.225033939	-0.1185690092	-0.377817
C	 1.4727446204	 1.9243549536	 0.2372646698	 0.39248
H	-0.3258756374	-2.3310108785	-0.2679324837	 0.211309
H	-0.4859130487	 1.8649767986	-0.7740277864	 0.142774
H	-0.9642913734	 2.8047252581	 1.456977671	 0.147664
H	-0.4588495716	 1.2652153914	 2.2438856565	 0.15447
H	 4.0786516486	 3.3938660336	 1.0603050455	 0.131084
