21
gdb 92321	2.2218	1.68132	1.04781	1.1702	87.38	-0.2119	0.0246	0.2366	1193.1913	0.18283	-387.081119	-387.072286	-387.071342	-387.114353	34.076	
C	-0.166110586	 1.4396561338	-0.1118070969	-0.496541
C	-0.055197671	-0.0432730282	 0.0426477169	 0.155911
C	-1.0213017971	-0.9363480498	 0.2461049633	 0.194612
C	-2.4624957772	-1.2187232569	-0.0754798472	 0.037539
O	-3.1131766485	-0.2422232762	-0.8514012511	-0.429825
C	-1.9229014875	-2.5395611965	-0.7607926124	-0.285807
C	-0.5970892087	-2.3689013708	 0.061393484	-0.039123
C	 0.8223225185	-2.2413882881	-0.5334483141	-0.23557
C	 1.2665040421	-0.8025548724	-0.1140184199	-0.285584
H	 0.3594331854	 1.9655495924	 0.6965560471	 0.119604
H	 0.2938482507	 1.7757119079	-1.0500803564	 0.118494
H	-1.2109636129	 1.757860835	-0.1071888873	 0.139054
H	-3.0527471035	-1.4758738716	 0.8177173547	 0.0725
H	-4.0496853574	-0.4588663552	-0.8900153196	 0.283878
H	-2.5056662479	-3.4537042969	-0.6153348957	 0.088481
H	-1.7650316859	-2.3569892467	-1.8268913447	 0.108235
H	-0.6194766309	-2.9783727472	 0.9728943511	 0.066625
H	 1.5158297963	-3.0164165242	-0.1934312897	 0.090333
H	 0.7767693718	-2.299531257	-1.6268554345	 0.099974
H	 1.9131559349	-0.3329389605	-0.8650902	 0.096925
H	 1.8448736949	-0.815377061	 0.8212385225	 0.100284
