16
gdb 4005	2.64678	1.55178	1.06227	3.3164	68.44	-0.2646	-0.0094	0.2551	1089.843	0.128611	-379.901562	-379.89259	-379.891645	-379.935869	31.419	
C	 0.105968262	 0.8083046486	 1.0113491114	-0.388934
C	-0.2779687457	 0.0518753844	-0.2733800065	-0.261802
C	-1.695321252	-0.4512670485	-0.2593570433	 0.366278
C	-2.13857171	-1.5614873343	 0.6856479221	-0.423791
C	-1.0475934576	-2.3493223082	 1.2489456723	 0.262283
N	-0.1876335161	-2.9779923419	 1.6966330068	-0.3146
N	-2.5243840934	 0.1095129217	-1.0528417672	-0.165558
O	-3.8191776192	-0.4141281473	-0.9231309257	-0.396344
H	 1.1372581401	 1.1654257703	 0.9419450446	 0.127507
H	-0.5459548886	 1.6739725025	 1.162357489	 0.125975
H	 0.0398216764	 0.1666375685	 1.8947354835	 0.136117
H	-0.1711563581	 0.707552904	-1.1410997788	 0.123151
H	 0.4034075011	-0.7962121171	-0.410368888	 0.131473
H	-2.7277482324	-1.1317281906	 1.5057754483	 0.178908
H	-2.826345215	-2.223039601	 0.1489310924	 0.185393
H	-4.3050196114	 0.068591369	-1.600270201	 0.313943
