25
gdb 122440	4.32074	0.5855	0.56244	1.2722	90.77	-0.245	0.0792	0.3242	2109.2033	0.22632	-389.489319	-389.478072	-389.477128	-389.526171	41.404	
C	-0.0446947417	 1.5875444824	-0.2814335285	-0.37998
C	-0.018964346	 0.0958685171	 0.0626189512	-0.165583
C	-1.400502194	-0.5629109543	-0.0071092932	-0.14647
C	-1.3818735161	-2.0573935082	 0.3420175207	-0.225021
C	-2.7557505396	-2.6900679926	 0.2684269903	-0.019797
C	-3.3201378321	-3.2229017332	-1.0407171736	-0.352028
C	-3.0007173042	-4.16150773	 0.1017815876	 0.383366
C	-1.8800523514	-5.170043595	-0.0127800741	-0.44715
O	-4.091333143	-4.6217386868	 0.8660431076	-0.467268
H	 0.9545535849	 2.0303415825	-0.2216216069	 0.109674
H	-0.4221311641	 1.7533181013	-1.2967222287	 0.112671
H	-0.6954171163	 2.1405860804	 0.4052116405	 0.113284
H	 0.6655885911	-0.4262713695	-0.619372832	 0.091829
H	 0.3969098254	-0.0408538773	 1.0698446214	 0.093554
H	-2.086811923	-0.0405652249	 0.673817172	 0.091792
H	-1.8190989304	-0.4335433046	-1.0143237772	 0.095239
H	-0.6916455423	-2.573507841	-0.3370099972	 0.089506
H	-0.9691654329	-2.187698824	 1.3521230277	 0.096738
H	-3.4971419935	-2.2187577731	 0.9092894799	 0.092628
H	-4.3660323407	-3.0364221477	-1.2580598747	 0.107529
H	-2.6666596826	-3.2306821963	-1.9085996564	 0.102095
H	-1.0369025675	-4.7831725619	-0.5901779945	 0.117983
H	-1.5188888251	-5.4582527325	 0.9798178103	 0.124678
H	-2.2334585367	-6.0778099621	-0.518204934	 0.104419
H	-4.500517118	-5.3484449287	 0.3824437319	 0.276314
