23
gdb 120449	4.13691	0.76592	0.7433	1.1776	83.18	-0.2424	0.0792	0.3216	1677.5281	0.202793	-425.411937	-425.40131	-425.400365	-425.44829	38.356	
C	-0.6904670506	 1.4579657394	 0.1390987331	-0.223008
O	-0.6358984313	 0.0871440932	 0.4515017803	-0.235198
C	-0.6880672779	-0.7411929321	-0.687611114	-0.075306
C	-0.6193848297	-2.1828791602	-0.2167725642	 0.129879
C	-1.8863832976	-2.7978130654	 0.4038634316	-0.341676
C	-1.8109210493	-3.8110097961	-0.7696665143	 0.439004
C	-1.4122462104	-5.2273137167	-0.373345196	-0.425307
C	-2.9764723544	-3.7967211672	-1.7477901355	-0.42758
O	-0.6590757031	-3.0999112474	-1.3292162311	-0.344778
H	-0.6426268547	 2.0114166154	 1.080196147	 0.126483
H	 0.1538288689	 1.7654824983	-0.4981272519	 0.105247
H	-1.6247815845	 1.7219653764	-0.3815999318	 0.103409
H	-1.6180254785	-0.5745374324	-1.2576148188	 0.083345
H	 0.155188449	-0.537529856	-1.3695000801	 0.093263
H	 0.2885621204	-2.3162008406	 0.3862167904	 0.079276
H	-1.7746554205	-3.2215283866	 1.4028507372	 0.105386
H	-2.7586465276	-2.1408907367	 0.3870074754	 0.105033
H	-2.2452947633	-5.7428740158	 0.1170770725	 0.112555
H	-1.1253662055	-5.8031156106	-1.2591746477	 0.121671
H	-0.562054742	-5.2139657486	 0.3146225241	 0.117255
H	-3.22648691	-2.7733263367	-2.0407097546	 0.115081
H	-2.7226685665	-4.3586286203	-2.6527793681	 0.122027
H	-3.8639704007	-4.2553136735	-1.2978984734	 0.113939
