17
gdb 46799	2.9023	1.67234	1.2995	4.187	68.04	-0.2516	0.0024	0.254	981.3938	0.13734	-458.968195	-458.961043	-458.960098	-458.999904	28.184	
O	-0.0188651551	 0.2460188332	 0.977751381	-0.307311
C	-0.01418648	 1.1546270249	 0.1921334206	 0.365149
C	-1.3400617502	 1.8537382319	-0.1707827143	-0.211377
O	-1.5763377553	 2.3218913548	-1.4787013026	-0.261181
C	-0.595771445	 3.1405383661	-2.089318932	 0.122737
C	 0.610993306	 2.3038415867	-2.5969537278	-0.24945
C	 1.3226588029	 2.6322418124	-1.2623486391	 0.121332
C	 0.3798548128	 3.8522145619	-1.1110182346	-0.289671
O	 1.1747382416	 1.6105105699	-0.2699343181	-0.234003
H	-2.1146897895	 1.1131454331	 0.0294246148	 0.152283
H	-1.4639443315	 2.6598341825	 0.5701697403	 0.126308
H	-1.1298117693	 3.756751557	-2.8152138608	 0.090666
H	 0.4191830157	 1.250711618	-2.8116937909	 0.122322
H	 1.1160155801	 2.7700141619	-3.4471125082	 0.112045
H	 2.3960111936	 2.8192802013	-1.2820453131	 0.100959
H	 0.8221355856	 4.731291246	-1.5862703144	 0.120274
H	 0.0406316176	 4.1318524884	-0.1126437108	 0.118919
