18
gdb 93302	2.27003	1.85106	1.1413	4.2745	72.83	-0.2407	0.0298	0.2705	1064.3855	0.148821	-439.116967	-439.108604	-439.10766	-439.149917	31.88	
O	 0.3164101827	 0.9581500277	-0.7113587598	-0.425838
C	 0.0931847939	-0.2169086977	 0.0427383502	 0.00733
C	 0.3873390909	-0.0479992421	 1.5590742886	-0.203345
N	-0.5886455353	-0.9317405753	 2.1744137069	-0.335253
C	-1.6846238261	-1.1853957635	 1.3852286838	 0.372616
O	-2.7028066698	-1.7461111907	 1.7323201707	-0.39606
C	-1.3699060116	-0.6262396689	 0.0262816566	 0.227253
C	-2.4477491573	 0.1983356253	-0.6518500769	-0.294023
C	-2.0938207901	-1.1582004008	-1.1800518791	-0.313669
H	 1.2600905296	 1.0366636718	-0.880015223	 0.289617
H	 0.7050832273	-1.0426453277	-0.3495406587	 0.082823
H	 1.4109258958	-0.3333799414	 1.8232572447	 0.10532
H	 0.2361553973	 1.0055763813	 1.8328954603	 0.114844
H	-0.6505020394	-1.0734061098	 3.1706448136	 0.250412
H	-3.3822568124	 0.3054221738	-0.1128922968	 0.131759
H	-2.1096555977	 1.0681759459	-1.2010438978	 0.136404
H	-1.5329436337	-1.2133824514	-2.1072817346	 0.114482
H	-2.7878889442	-1.9714294767	-0.9981771085	 0.135328
