16
gdb 1661	4.84878	1.85396	1.3759	4.4338	58.89	-0.2478	0.0219	0.2698	868.5575	0.13534	-362.937857	-362.929354	-362.92841	-362.97126	28.767	
C	-0.099976731	 1.3952438947	-0.0375454787	-0.345785
N	-0.0221698974	-0.0569786539	-0.0174417871	-0.083734
C	 0.0105369346	-0.6717677629	 1.2955819133	-0.342682
C	 0.0148206641	-0.7431059729	-1.1898568155	 0.397013
O	-0.0143322944	-0.1949975879	-2.2865823486	-0.403545
C	 0.0970664878	-2.2790498679	-1.1580307982	-0.15166
O	 0.1234003188	-2.7658136676	-2.4652654917	-0.424508
H	 0.7664358807	 1.8333781378	 0.4730016712	 0.125658
H	-0.1171542926	 1.7252930055	-1.0745003758	 0.173412
H	-1.0087417847	 1.7382953401	 0.4721227698	 0.125664
H	-0.8916739468	-0.4132546221	 1.8647114384	 0.132998
H	 0.0687638132	-1.7561632148	 1.2255842657	 0.152466
H	 0.8796410138	-0.3181538795	 1.8650826905	 0.132998
H	 0.9999497109	-2.5864244834	-0.6064289922	 0.10881
H	-0.7680601343	-2.6810814193	-0.6067870377	 0.108809
H	 0.0805420374	-1.9641250559	-3.0167548934	 0.294087
