18
gdb 114791	3.55148	1.35222	1.27623	1.8834	69.91	-0.2371	0.0717	0.3088	1035.5371	0.149606	-439.024257	-439.017044	-439.016099	-439.056033	28.746	
O	 0.0679870008	 1.5505451642	-0.0552094164	-0.421325
C	 0.1148886153	 0.1457178939	 0.089739549	-0.072377
C	-1.2763898581	-0.4613829561	-0.093004682	 0.077963
O	-1.8326073962	-0.0524141009	-1.3629371013	-0.294425
C	-1.9997794299	-1.2248189923	-2.150228019	 0.066713
C	-0.649542562	-1.9272612079	-2.4066498873	-0.177823
N	-0.8391618445	-2.8133224027	-1.2018773773	-0.161751
C	-2.290310441	-2.3901267893	-1.1740168149	-0.06503
C	-1.3889886078	-1.9768939037	-0.0889813091	-0.065795
H	-0.3992035868	 1.7139235004	-0.8835936156	 0.289982
H	 0.8316507648	-0.3112395763	-0.6079083653	 0.094692
H	 0.4689733735	-0.0615263124	 1.1059345759	 0.109374
H	-1.9238502331	-0.049949508	 0.6941559469	 0.093593
H	-2.6636946353	-0.9994387109	-2.9836232154	 0.091274
H	-0.6641522806	-2.5682779176	-3.2922795416	 0.115743
H	 0.2495286558	-1.3050104647	-2.4179411772	 0.107512
H	-3.1226454064	-3.0807715109	-1.1266249702	 0.102495
H	-1.3821134184	-2.4991728148	 0.8609984405	 0.109186
