15
gdb 128020	5.07087	0.9226	0.78436	5.9963	77.18	-0.2302	-0.0307	0.1996	1396.0156	0.111691	-450.096804	-450.088304	-450.08736	-450.130823	29.922	
C	-0.1458929168	 1.604359886	-0.0521491747	-0.31403
N	 0.0724597859	 0.17444933	-0.0604531915	-0.174441
C	-0.9239943793	-0.5717498858	 0.1294230117	 0.088612
N	-0.8699545183	-1.9638573743	 0.1489741144	-0.424549
C	 0.2062525197	-2.7913818064	-0.0211665338	 0.52419
C	 0.2458400482	-4.1691055165	 0.0011572386	-0.234077
N	 1.5447368697	-4.5150406534	-0.2181139295	-0.089587
N	 2.2850098344	-3.5207373973	-0.3683627486	-0.030595
O	 1.413287789	-2.317741533	-0.2417835041	-0.202768
H	 0.4777557382	 2.064091802	 0.7226386029	 0.136257
H	 0.1747735802	 2.027900705	-1.0104624107	 0.136255
H	-1.1945408984	 1.8953500588	 0.1251078508	 0.096319
H	-1.9502496756	-0.2168646178	 0.3014477031	 0.091045
H	-1.7445594492	-2.435132708	 0.3122348348	 0.270204
H	-0.5357636976	-4.8929196293	 0.1528711865	 0.127167
