15
gdb 105295	2.44956	1.14245	0.91436	1.1957	70.62	-0.2667	-0.0568	0.21	1265.9728	0.108191	-457.697854	-457.688484	-457.687539	-457.732679	33.095	
O	-0.1036602488	 1.3167303472	-0.8739960208	-0.401228
C	 0.0038752893	 0.101870422	-0.1670197956	-0.12935
C	-1.3682330825	-0.5004267861	 0.1024899841	 0.100671
O	-1.9732895939	-1.1380431721	-1.035970702	-0.269902
C	-1.6160288516	-1.9768567783	 0.0599700475	-0.084969
C	-0.5217922784	-2.9729105067	-0.1780689187	 0.130349
O	-0.3429905178	-3.923291945	 0.5384010891	-0.235964
C	-2.2549815441	 0.3037978706	 0.9082621043	 0.322559
C	-2.9696368047	 0.9723212427	 1.6049180008	-0.401663
H	-0.5436262644	 1.1291678375	-1.7109645646	 0.297602
H	 0.6254211359	-0.6281398004	-0.7022263243	 0.096959
H	 0.4924042925	 0.3351839931	 0.7835126153	 0.134016
H	-2.4416510459	-2.351091902	 0.6630286425	 0.131786
H	 0.0968305823	-2.7795566796	-1.079883853	 0.099587
H	-3.6053283578	 1.5695286469	 2.2116415952	 0.209545
