11
gdb 25337	3.35169	1.35509	0.96496	5.8264	59.69	-0.2802	-0.1217	0.1585	1081.3925	0.065199	-488.719003	-488.711688	-488.710744	-488.754023	24.704	
O	-0.163081724	 0.0332237153	-0.0023106157	-0.193718
C	-0.0266861614	 1.2219175316	 0.0064248898	 0.115138
C	 1.3315085801	 1.8934470885	-0.0024986977	 0.313909
N	 2.4317712269	 1.2658243695	-0.020029474	-0.294269
C	 3.6417168388	 2.0235060828	-0.0267581973	 0.407383
O	 4.7099223963	 1.4838763366	-0.0424658557	-0.290087
N	 3.5251716168	 3.4444475916	-0.0131744393	-0.276897
C	 2.3646689236	 3.9478471508	 0.0039008305	 0.129087
O	 1.1889833037	 3.2560570983	 0.0108514663	-0.199466
H	-0.8715351574	 1.9391277458	 0.0218077502	 0.117734
H	 2.1819787167	 5.0188841091	 0.0151627429	 0.171186
