21
gdb 114106	3.28646	1.18317	1.02749	2.1223	79.01	-0.2358	0.0753	0.3111	1257.3434	0.181192	-424.1881	-424.178958	-424.178014	-424.222031	34.275	
C	 0.0469213469	 1.521030365	 0.3430460867	-0.237525
O	 0.5851177335	 0.279720511	-0.0538902461	-0.239928
C	 0.7470123528	-0.6221050889	 1.007914888	 0.14594
C	-0.5257470037	-1.3126658022	 1.6077876599	-0.31775
C	 0.0929993351	-2.6980165347	 1.2659793043	 0.452967
C	 0.1475657958	-3.775437024	 2.3155895336	-0.476717
O	-0.3900604658	-3.1810431543	-0.0098971922	-0.328148
C	 0.7072054775	-2.5527630182	-0.7181679707	-0.087452
C	 1.3093078709	-1.9920992509	 0.579509406	-0.181115
H	 0.6937924254	 2.0260359713	 1.077808587	 0.103787
H	-0.0267489704	 2.1447097653	-0.5509215854	 0.128244
H	-0.9553763976	 1.4133940749	 0.783432872	 0.111302
H	 1.3601084561	-0.1650508217	 1.8001893063	 0.063865
H	-0.6918843072	-1.1185200095	 2.6706245174	 0.095675
H	-1.4468992989	-1.1275993318	 1.0509064938	 0.113159
H	-0.8630427755	-4.1416815018	 2.5298964774	 0.12918
H	 0.7494410366	-4.6225453185	 1.9734442705	 0.122796
H	 0.5749768785	-3.3937250867	 3.2485481186	 0.113952
H	 1.3304334942	-3.3000382309	-1.2235542939	 0.097636
H	 0.367540433	-1.8076386564	-1.4439526246	 0.11782
H	 2.3573121727	-2.204354087	 0.7881997814	 0.072314
