20
gdb 16767	3.83226	1.58181	1.50934	1.1516	74.47	-0.2457	0.0818	0.3275	959.2874	0.178641	-348.997222	-348.989622	-348.988677	-349.028947	29.59	
C	 0.2579294995	 0.7241220748	 0.5895468933	-0.236943
O	 0.1365971215	-0.5059782543	-0.0834483892	-0.236858
C	 0.5783678324	-0.4772593299	-1.4381969404	 0.102478
C	 2.1224468878	-0.5557336933	-1.5718876975	-0.235635
C	 2.449012263	-2.0358489352	-1.7078671272	-0.024684
C	 1.8248560567	-2.9858430035	-0.7135443023	-0.284529
C	 1.1725027263	-2.770221586	-2.0577932849	-0.02729
C	 0.0479350422	-1.7482542921	-2.1369536633	-0.232433
H	 1.3033973666	 1.048108181	 0.7020472356	 0.105049
H	-0.2921823358	 1.5241433278	 0.06849497	 0.102128
H	-0.1720060759	 0.5913991904	 1.5856247566	 0.12572
H	 0.1843703418	 0.4353012471	-1.9095732744	 0.061784
H	 2.4395768229	-0.0230572487	-2.476778116	 0.095327
H	 2.6219742249	-0.0731036008	-0.7252281183	 0.100752
H	 3.3957246935	-2.3118698527	-2.159377193	 0.07512
H	 2.3283494823	-3.9341155912	-0.5571078759	 0.10038
H	 1.3433827428	-2.5744400268	 0.1659836127	 0.129861
H	 1.1741317368	-3.5874616222	-2.7705708691	 0.075049
H	-0.8834100513	-2.0704860219	-1.6618773403	 0.109514
H	-0.1735236478	-1.5246831225	-3.1869900565	 0.095209
