19
gdb 63835	2.77069	1.4812	1.22595	4.1889	74.67	-0.2689	0.0083	0.2772	1083.6125	0.158575	-423.047577	-423.039197	-423.038253	-423.080349	32.336	
C	-0.4153438247	 1.5637950309	 0.1340699973	-0.446958
C	-0.0587436715	 0.0829440046	 0.0402257041	 0.318795
C	-1.2772598984	-0.7508922733	-0.3590658106	-0.441641
C	 1.2072903974	-0.2723586632	-0.8213355417	-0.297781
C	 1.8751112842	-0.8983849996	 0.4147424689	 0.118024
O	 2.6866741722	 0.0746629212	 1.1511064358	-0.26016
C	 1.6393010344	 0.3797829172	 1.9960318089	 0.460335
O	 1.6487063832	 1.1403581496	 2.9097304754	-0.33423
C	 0.6556375181	-0.5520109858	 1.2998574068	-0.279085
H	 0.4464905159	 2.1765432124	 0.4127114345	 0.135928
H	-0.7856078736	 1.925660307	-0.831761764	 0.115856
H	-1.1998245097	 1.7340965448	 0.8792479011	 0.124992
H	-1.6438376256	-0.4470397975	-1.345912756	 0.120221
H	-1.0388859763	-1.8190539217	-0.405247137	 0.114172
H	-2.0937817153	-0.6196756814	 0.3595342536	 0.121725
H	 0.9997329086	-0.9870782417	-1.6216016627	 0.109391
H	 1.7620262362	 0.5729707724	-1.2339222127	 0.119849
H	 2.373703289	-1.8644183581	 0.3635690528	 0.100166
H	 0.087612916	-1.2429519777	 1.9201252452	 0.100401
