19
gdb 59011	3.344	0.95657	0.87951	2.3447	78.06	-0.2425	-0.0183	0.2242	1380.198	0.157419	-423.06029	-423.050962	-423.050018	-423.095095	34.314	
C	 0.111349411	 1.4807087516	-0.0955638396	-0.412683
C	 0.002172754	-0.045188919	-0.0047109982	 0.011362
O	 0.7046093174	-0.5450660223	 1.1359791682	-0.429018
C	-1.4252512993	-0.5287089624	-0.016525757	 0.357996
C	-2.0255470029	-1.1879615606	-1.0123720442	-0.200342
C	-3.457500618	-1.5375173705	-0.7190573716	-0.368413
C	-3.6767596143	-0.9612796263	 0.6895037954	 0.397428
O	-4.7021150329	-0.9913948472	 1.3155160248	-0.300317
C	-2.3543877535	-0.3299961021	 1.1580646407	-0.443737
H	 1.1631779914	 1.779713587	-0.077810246	 0.128471
H	-0.3461319232	 1.852974217	-1.0169390869	 0.12586
H	-0.3962856929	 1.9645358644	 0.7480088655	 0.111645
H	 0.5191130787	-0.4867057164	-0.8642454391	 0.093135
H	 0.4483972863	-0.0130623643	 1.8969856205	 0.28165
H	-1.5381528442	-1.4565718137	-1.943753086	 0.09653
H	-4.1798909691	-1.0991727047	-1.4199325013	 0.137055
H	-3.6567869122	-2.6173998762	-0.7155819048	 0.139699
H	-2.0052864051	-0.8351858153	 2.0679556997	 0.140457
H	-2.523366221	 0.719472721	 1.4322171398	 0.133222
