19
gdb 56319	7.337	0.48589	0.4609	3.2744	74.21	-0.2541	-0.0289	0.2252	2271.5063	0.153742	-460.180097	-460.169029	-460.168085	-460.219233	35.942	
C	-0.1219354535	 1.5027719243	 0.1119680099	-0.473453
C	 0.0588449757	-0.0020327728	 0.0414938122	 0.378939
O	 1.1539174821	-0.5176714346	 0.0184353721	-0.291028
C	-1.2142340987	-0.8343114181	 0.0010745668	-0.318413
C	-0.9414910355	-2.3285193262	-0.0688798715	-0.050567
O	-2.189142115	-2.9963457458	-0.1015137743	-0.254592
C	-2.0720019645	-4.3931436749	-0.1670048066	-0.145104
C	-3.4699628739	-4.9859281009	-0.1963050523	 0.139412
O	-3.693922233	-6.1653534878	-0.2516474245	-0.23661
H	 0.8524358986	 1.991763125	 0.1359272988	 0.145776
H	-0.6932494127	 1.8594365679	-0.7524310184	 0.140907
H	-0.6950387877	 1.7769146334	 1.0048258181	 0.140908
H	-1.8221556992	-0.6023244925	 0.8852363781	 0.131974
H	-1.8203959386	-0.520347848	-0.8586469249	 0.13197
H	-0.3479868657	-2.5682765187	-0.9635657901	 0.108751
H	-0.3497457839	-2.6511843945	 0.8005535155	 0.108756
H	-1.5279668528	-4.7227900117	-1.068691689	 0.1239
H	-1.5297672655	-4.8059323158	 0.7008973504	 0.123904
H	-4.2770812461	-4.2209591082	-0.1615291302	 0.094571
