18
gdb 38390	4.33913	1.27432	1.23175	3.1719	75.13	-0.232	0.081	0.313	1059.7788	0.148351	-401.850707	-401.843628	-401.842684	-401.88211	28.488	
C	-0.002278311	 1.4971164645	-0.1169280476	-0.255698
C	 1.5419663824	 1.4122200363	 0.0032203517	-0.153155
N	 1.518176918	-0.0864009467	 0.1872758025	-0.188146
C	 0.0014566043	-0.0253759497	-0.0190680655	-0.117627
C	 0.8970993803	-0.6262266932	-1.0204005683	 0.392573
C	 1.0636843373	-0.2596858775	-2.5229165879	-0.359753
C	 1.0629562716	-1.7741145984	-2.8014040695	 0.031686
O	 2.1694014246	-2.3286193559	-2.0881160278	-0.239995
C	 0.9484303466	-2.1006188293	-1.369081395	-0.092698
H	-0.4647951538	 1.9798792674	 0.7456187667	 0.114906
H	-0.4262629042	 1.9268930688	-1.0299737653	 0.103172
H	 2.1305077279	 1.7366683989	-0.8602694617	 0.107877
H	 1.9406134813	 1.8865207367	 0.9014360972	 0.115399
H	-0.678062585	-0.6217287239	 0.5833438802	 0.09479
H	 0.2015968819	 0.2737919308	-2.9321554034	 0.112544
H	 1.9884701854	 0.2460494161	-2.8105534066	 0.11982
H	 0.7040125924	-2.3056818753	-3.6740190905	 0.108293
H	 0.50507789	-2.9444920698	-0.8543148594	 0.106012
