14
gdb 130921	3.53815	1.44034	1.16412	6.2438	68.94	-0.2599	-0.0542	0.2057	1012.2702	0.101748	-432.82429	-432.817126	-432.816182	-432.856803	25.582	
O	-0.570229267	 0.2584727059	 0.1841093958	-0.215784
C	-0.2015778623	 1.3410168384	-0.1773670526	 0.160459
C	 1.203737047	 1.8734636248	-0.0014650138	-0.082989
C	 1.4159584097	 2.7992382106	 1.2812320686	-0.407814
C	 2.3902962079	 1.7170001074	 1.7340288236	 0.321134
C	 3.3372254469	 1.0147114245	 2.4419300318	-0.204863
N	 3.6153551043	-0.1107029443	 1.7060339148	-0.174353
N	 2.9145707044	-0.1508969001	 0.5979008407	-0.171651
N	 2.1722898488	 0.9690262776	 0.6426535915	 0.11678
H	-0.8874361832	 2.0721017911	-0.6620059926	 0.093134
H	 1.567566172	 2.3172882757	-0.9333379298	 0.137418
H	 1.8526566067	 3.7740736842	 1.0598612277	 0.148734
H	 0.5250318547	 2.9245737907	 1.8998338843	 0.149734
H	 3.8295957202	 1.2039736736	 3.38011742	 0.130062
