21
gdb 71634	2.62682	1.59476	1.53845	1.1869	81.71	-0.2513	0.0794	0.3307	1015.6895	0.185541	-387.065192	-387.057748	-387.056804	-387.09655	31.131	
O	-0.0888279737	 1.3376141431	-0.0067913675	-0.480603
C	 0.0356220977	-0.0413696888	 0.0350256401	 0.397396
C	 0.6274128293	-0.9432616849	 1.1530768981	-0.30113
C	 0.0774752785	-1.9024147587	 0.062800233	-0.088727
C	-1.1939461654	-0.9842964784	-0.0134260966	-0.004286
C	-2.0470428129	-0.9839113729	-1.2802885102	-0.249394
C	-1.2443653033	-1.5156656092	-2.4755930488	-0.193968
C	 0.1875840544	-0.9647126763	-2.4409978878	-0.243941
C	 0.732163249	-0.9711736764	-1.0146184004	-0.042806
H	 0.7932265906	 1.724948497	-0.0100995238	 0.280728
H	 1.7143106323	-0.9246967094	 1.2806908185	 0.080207
H	 0.1034230264	-0.9407231537	 2.1127404555	 0.089642
H	 0.1039269704	-2.9897654539	 0.0913356549	 0.075382
H	-1.7983736254	-0.9699568683	 0.8994608044	 0.059781
H	-2.9479614858	-1.5892791248	-1.1303074545	 0.090406
H	-2.3898449446	 0.0416593043	-1.4699748314	 0.107876
H	-1.1989430793	-2.6097396001	-2.4083147153	 0.096927
H	-1.7385731431	-1.2814926468	-3.4239554261	 0.088507
H	 0.8362519104	-1.5507831333	-3.1017363969	 0.090339
H	 0.2111200092	 0.0668417313	-2.8188062616	 0.097538
H	 1.8276283455	-0.9428296398	-0.9823287337	 0.050126
