17
gdb 36212	4.73865	0.95929	0.87758	1.4472	78.95	-0.2436	-0.0022	0.2414	1309.1415	0.135089	-384.643691	-384.635641	-384.634697	-384.676764	30.824	
C	-0.1454983248	-1.1261811773	 0.4865672543	-0.460863
C	-0.0662638336	 0.0249618869	 0.1509198803	 0.312872
C	 0.0516307404	 1.4269600758	-0.2487620902	-0.456078
C	 1.4689538644	 1.9394441041	-0.2056087486	 0.331526
C	 2.1168036637	 2.5661366501	-1.1939381699	-0.210811
C	 3.4521422803	 3.0388103605	-0.7258847427	 0.014085
O	 3.3712599349	 3.9839045803	 0.3685120277	-0.25981
C	 3.5838902197	 2.6053949387	 0.6763470974	 0.038147
C	 2.320151996	 1.8425716279	 1.0509894827	-0.331536
H	-0.2260496377	-2.1439806142	 0.7781905265	 0.198941
H	-0.3564834896	 1.5618766022	-1.2572587285	 0.138753
H	-0.5758652002	 2.0369342234	 0.4182279581	 0.144082
H	 1.7255495531	 2.7514465634	-2.1871211802	 0.098603
H	 4.2892923437	 3.1876164348	-1.4006825905	 0.097029
H	 4.5358447716	 2.3717066993	 1.1451152556	 0.096391
H	 1.8199775773	 2.284512425	 1.9216211073	 0.123717
H	 2.5377090809	 0.7979948191	 1.3042743207	 0.124952
