16
gdb 15702	3.63102	1.69564	1.22003	2.0678	60.43	-0.2555	-0.0404	0.2152	952.1571	0.130794	-420.890068	-420.88258	-420.881636	-420.922134	27.483	
O	-0.0118061559	 1.4734401996	-0.1315561492	-0.422699
C	 0.0478760446	 0.0665146885	-0.1337350921	-0.072599
C	-1.3447928748	-0.563071712	 0.0162634026	-0.137368
C	-1.4365665802	-2.0935046257	 0.0154244618	-0.112837
O	-2.6002362885	-2.4114645333	 0.7858729105	-0.247418
C	-2.6845913782	-1.4881868932	 1.8506049772	-0.176666
C	-1.9728732073	-0.226280318	 1.3670844003	 0.372118
O	-1.878355419	 0.8196792155	 1.9643524129	-0.32411
H	-0.4825693787	 1.7247722268	 0.675623987	 0.297864
H	 0.4931318939	-0.2337580775	-1.0885152925	 0.112721
H	 0.7038676572	-0.3192006561	 0.6655632578	 0.088448
H	-2.0018048064	-0.1463534377	-0.7587038802	 0.125822
H	-1.5715953486	-2.5305724148	-0.9753689206	 0.126081
H	-0.5366661793	-2.5375051985	 0.472750819	 0.100216
H	-3.7337336109	-1.2990270636	 2.0970896165	 0.144815
H	-2.1786240079	-1.8491136002	 2.762493509	 0.12561
