19
gdb 12482	3.15518	1.8499	1.29494	3.8603	71.58	-0.2342	0.0357	0.2699	969.7581	0.168745	-365.116724	-365.109196	-365.108252	-365.148586	29.098	
O	 0.0201064313	-0.0734184664	-0.1853797843	-0.369945
C	-0.0401046493	 1.138554469	-0.073483188	 0.370792
C	-1.3675320265	 1.8756639523	 0.0702008682	-0.296302
C	-1.5491053867	 2.6062902608	 1.4164242337	-0.192927
C	-0.8372922192	 3.9623735402	 1.517393253	-0.186944
C	 0.6911977829	 3.9165629011	 1.4000714614	-0.177811
C	 1.2033581074	 3.3499860527	 0.0675021016	-0.16391
N	 1.0938884738	 1.9042488953	-0.0583684657	-0.283668
H	-1.4867454068	 2.5907927327	-0.7551816945	 0.106312
H	-2.1339383838	 1.1081245974	-0.049033209	 0.125173
H	-2.6213913529	 2.7714318221	 1.5699269148	 0.102328
H	-1.2223985347	 1.9475674293	 2.2311044279	 0.108606
H	-1.2299800927	 4.6244033765	 0.7322637214	 0.094662
H	-1.10477632	 4.4318362953	 2.4713102488	 0.097966
H	 1.0817049136	 4.9359621172	 1.5079475758	 0.097069
H	 1.1193738336	 3.3242711304	 2.2184331512	 0.102753
H	 0.6883603765	 3.8497688031	-0.7659211232	 0.110138
H	 2.264815826	 3.5881021657	-0.042426255	 0.111612
H	 1.9427244676	 1.3657442353	-0.1415115981	 0.244093
