18
gdb 30455	3.32757	1.2828	0.93902	4.165	78.4	-0.1717	0.0511	0.2228	1242.3421	0.146908	-435.277574	-435.267667	-435.266723	-435.313272	34.458	
C	-0.0618058068	 1.3904364692	 0.0356462846	-0.314138
N	-0.0791128844	-0.0619269645	 0.0347146985	-0.401644
C	 0.5216172008	-0.6552554878	 0.978246682	 0.516273
O	 1.1882708469	-0.0831564112	 2.0334424579	-0.2338
C	 1.6831069012	-1.1122290745	 2.8372229018	-0.141663
C	 1.3632635419	-2.2940956161	 2.2869146817	 0.272243
N	 1.7001306489	-3.6083430274	 2.613517183	-0.604403
N	 0.6356279007	-2.0276912941	 1.1268269365	-0.151752
C	 0.1477802794	-2.9759232182	 0.1528356362	-0.345028
H	 0.9576744218	 1.8022930948	 0.0045340711	 0.108502
H	-0.597151567	 1.753140027	-0.8460390085	 0.110441
H	-0.550921736	 1.8159147473	 0.9242198596	 0.108374
H	 2.223782195	-0.8291410928	 3.72116568	 0.132171
H	 2.2904004746	-3.6473182439	 3.4345095987	 0.25572
H	 0.8880085367	-4.199425164	 2.7616215626	 0.253504
H	-0.8802023814	-3.2951527056	 0.3661686024	 0.127127
H	 0.15499181	-2.4892522068	-0.8244449817	 0.167026
H	 0.8021438975	-3.8507440114	 0.1410297038	 0.141047
