19
gdb 84501	2.58182	1.59662	1.20031	2.3511	77.62	-0.2406	-0.0008	0.2398	1074.7401	0.159965	-423.019291	-423.011112	-423.010168	-423.051798	32.702	
O	-0.5116773061	 1.383544362	 0.7677534292	-0.44507
C	-0.009248124	 0.2183912931	 0.0860700829	 0.037378
C	 0.8648702587	-0.6302388705	 0.9715974086	-0.151123
C	 0.2013246469	-1.7056504041	 1.4126610898	-0.126514
C	-1.1657199463	-1.7928832444	 0.8480203139	 0.301174
C	-1.9426193986	-3.0817186785	 0.7455038687	-0.327005
C	-2.3839519515	-2.0247263227	 1.7187147124	-0.308697
C	-1.1831290184	-0.7402538853	-0.2819618189	 0.032377
O	-2.3964621006	-0.0575975196	-0.4642229442	-0.435836
H	-0.5979352853	 1.1477109651	 1.6990671416	 0.285128
H	 0.4895214453	 0.6111961333	-0.8038531186	 0.091688
H	 1.8715931836	-0.3437681362	 1.2513405818	 0.101904
H	 0.5955401703	-2.4467282484	 2.1013851074	 0.104104
H	-2.5386755212	-3.2291271847	-0.1496318047	 0.122846
H	-1.4882265917	-3.986876205	 1.1360491566	 0.108982
H	-2.2362982934	-2.2000228647	 2.7791246757	 0.107196
H	-3.2573752399	-1.4361827939	 1.4599840836	 0.13145
H	-0.9389130854	-1.2469176489	-1.2244387997	 0.086552
H	-2.2850421523	 0.7789535235	 0.0140136138	 0.283467
