18
gdb 39462	2.63897	1.79096	1.1905	1.6425	73.15	-0.2461	0.	0.2461	1032.909	0.148647	-439.047876	-439.04032	-439.039376	-439.079703	29.649	
C	-0.1459398173	 1.3463624357	 0.0921841283	-0.350356
C	 1.2869401548	 0.8797433893	 0.1611625147	 0.084451
O	 1.7259246167	 0.5536923942	 1.4364612401	-0.242056
C	 2.6344927263	-0.5367250381	 1.5433519957	-0.079291
C	 1.9469710352	-1.8860060743	 1.8202046743	-0.154788
N	 1.5399159165	-2.6347793518	 0.6317586304	-0.206213
C	 0.5762549489	-2.2327620749	-0.0660410471	 0.088071
O	-0.2061807496	-1.1248633211	 0.188907089	-0.228423
C	 0.2270612463	 0.0216349921	-0.4984422081	 0.080577
H	-0.6775253885	 1.3127874412	 1.0361169036	 0.142945
H	-0.4198446573	 2.1568212118	-0.5729685566	 0.120687
H	 2.0329747817	 1.3536939078	-0.478169212	 0.089378
H	 3.2730591183	-0.609361617	 0.6526604385	 0.1029
H	 3.2732497927	-0.2976463895	 2.4003826837	 0.111697
H	 2.6575330087	-2.5177053782	 2.3632176234	 0.103568
H	 1.0944931009	-1.6906900389	 2.4816627622	 0.124831
H	 0.2699161345	-2.7900254937	-0.9542323315	 0.115903
H	 0.243294621	-0.0856063145	-1.5826384784	 0.096121
