15
gdb 29734	3.39594	1.35637	0.97731	7.0213	78.2	-0.2166	-0.0265	0.1901	1132.4768	0.114435	-413.037007	-413.028531	-413.027586	-413.070196	30.376	
C	-0.0659217722	 1.4361828897	 0.0194422473	-0.361817
N	-0.0039447137	-0.0134316905	 0.0022747903	-0.083866
C	 0.0117798718	-0.8068675977	-1.1134005845	 0.290387
N	-0.0901381456	-0.2522320237	-2.3875639825	-0.612767
C	 0.0358938788	-2.1121627837	-0.6533306475	-0.159315
N	 0.0379979917	-2.1378251206	 0.708181731	-0.295239
C	 0.0246108669	-0.8736178272	 1.0866452914	 0.236141
C	 0.0417485022	-0.3912841627	 2.4166676155	 0.23291
N	 0.050312615	 0.054046118	 3.4871182951	-0.361166
H	 0.9053063189	 1.8798473838	-0.2255239659	 0.144164
H	-0.8074373698	 1.7761190647	-0.7078576006	 0.160997
H	-0.3554447352	 1.7661129166	 1.0176575427	 0.177811
H	 0.6443333706	 0.4110525313	-2.6095629284	 0.256704
H	-0.1218940323	-0.9658333038	-3.1036111351	 0.262844
H	 0.0471124229	-3.0177875843	-1.2407361388	 0.112209
