18
gdb 35796	3.64662	1.1965	1.00615	3.8259	76.02	-0.2148	0.0239	0.2387	1173.1745	0.15093	-398.106565	-398.098778	-398.097834	-398.138921	30.465	
N	 0.1042619491	-1.1603329872	 0.0754640822	-0.315928
C	 0.0562930768	-0.0069603586	 0.0218453277	 0.262889
C	-0.0263762179	 1.4543434918	 0.008747958	-0.098746
C	-0.8309654298	 1.9724143692	 1.2329840498	-0.186335
N	-0.9744957319	 3.4238411455	 1.1942244128	-0.298814
C	 0.2367366852	 4.1373169936	 0.845908105	 0.026568
C	 1.5104172583	 3.9510669737	 1.612923812	-0.310062
C	 1.4096974382	 3.4432272183	 0.1773904784	-0.020587
N	 1.3212248358	 2.0243628109	-0.0784161098	-0.317539
H	-0.5828420702	 1.7453806048	-0.8948124567	 0.12207
H	-1.8274598633	 1.5226459423	 1.2573649525	 0.124263
H	-0.3132487861	 1.6708125766	 2.1507211751	 0.122851
H	-1.6856412072	 3.6590291879	 0.5085980959	 0.224374
H	 0.0184710115	 5.1480475236	 0.518203486	 0.100952
H	 2.1167862648	 4.8278860224	 1.8114233187	 0.117571
H	 1.542038107	 3.2004736646	 2.3956598687	 0.11649
H	 1.9623052794	 3.9948133131	-0.5802360831	 0.09449
H	 1.9685215803	 1.4956048075	 0.4932948767	 0.235493
