19
gdb 28873	2.28366	1.78592	1.01191	1.27	88.29	-0.184	0.0219	0.2059	1169.3015	0.162008	-382.145807	-382.137276	-382.136332	-382.178226	33.998	
C	 0.0322405679	 1.5250398061	 0.0258993267	-0.518717
C	 0.0154520385	 0.0165128437	 0.0123191487	 0.276694
C	 0.0130196392	-0.6757651996	-1.2067468192	 0.157471
N	 0.0554285214	-0.015417962	-2.4499072277	-0.608312
C	 0.0187424159	-2.0848398833	-1.2190370823	 0.258113
N	 0.004621754	-2.729187593	-2.475925633	-0.60802
C	-0.0132282696	-2.7846614749	-0.015721893	-0.205945
C	-0.035389043	-2.1008514754	 1.1969351695	-0.117438
C	-0.0058086361	-0.7116169532	 1.2052504666	-0.219737
H	 0.9178347497	 1.9308811269	-0.4793934379	 0.129575
H	-0.8471049081	 1.9510635343	-0.4773118704	 0.119209
H	 0.0329991177	 1.9054448176	 1.0500980933	 0.125281
H	-0.2017805041	 0.9602937825	-2.3977005911	 0.240163
H	-0.5124743297	-0.4876998298	-3.1451827158	 0.248315
H	 0.7003944482	-2.3446635529	-3.1071284601	 0.247696
H	 0.1389608421	-3.7291125893	-2.3984776595	 0.239491
H	-0.0127260857	-3.8711502594	-0.0345521089	 0.074783
H	-0.0576538465	-2.6536314415	 2.1297034099	 0.083332
H	-0.0089113117	-0.1736352166	 2.1481624441	 0.078048
