14
gdb 125388	3.46744	1.60236	1.10341	3.8773	68.51	-0.2305	-0.0113	0.2192	1022.5256	0.10247	-436.680326	-436.673505	-436.672561	-436.71157	26.05	
C	-0.0182010957	 1.5354455779	-0.0095964883	-0.502606
C	-0.0071203903	 0.0416010029	 0.0414600389	 0.059167
C	-0.0338306337	-0.8087820592	-1.0209192367	-0.093524
O	-0.0136517401	-2.158795642	-0.639258401	-0.212647
C	 0.0260829566	-2.0907244971	 0.6866541369	 0.48779
C	 0.0335232031	-0.8267277017	 1.2001616028	 0.067547
C	 0.0773779326	-1.0975593515	 2.5939096593	-0.122643
N	 0.0936730595	-2.3897028969	 2.8510580756	-0.144749
O	 0.0593234267	-3.0588837544	 1.5810339091	-0.238292
H	 0.8758099475	 1.9554081805	 0.4645619857	 0.138837
H	-0.0523261384	 1.8938765615	-1.0415954612	 0.133066
H	-0.8865400602	 1.9441871107	 0.5189479437	 0.138825
H	-0.0671114503	-0.6493423438	-2.0854813381	 0.149675
H	 0.0986795426	-0.4249933169	 3.4402998133	 0.139554
