12
gdb 24963	5.34526	1.3626	1.08581	4.5576	61.34	-0.2053	0.0059	0.2112	990.65	0.079303	-472.666554	-472.65985	-472.658906	-472.698475	24.775	
O	 0.083896248	 0.0017408501	 0.0021690233	-0.36877
C	-0.0260566505	 1.1906908013	 0.0100175548	 0.461665
N	-1.1600000956	 1.9827946011	 0.0302896047	-0.513208
C	-0.7855131994	 3.3334834072	 0.0314820533	 0.238434
C	 0.5584691822	 3.306861207	 0.0124929575	 0.403395
O	 1.1276289598	 4.5105130419	 0.0105854187	-0.191822
C	 0.0472158311	 5.3825975073	 0.0301867707	-0.017476
C	-1.1481159933	 4.7148973594	 0.0435488997	-0.319174
O	 1.0967955281	 2.0710712574	-0.0012048049	-0.254159
H	-2.077290631	 1.5739667777	 0.0395425808	 0.281574
H	 0.3087438369	 6.4255108769	 0.0318145572	 0.150535
H	-2.1249861361	 5.1696121726	 0.0595425942	 0.129007
