18
gdb 7501	4.07792	1.26083	1.1593	3.0335	64.59	-0.2461	0.0681	0.3142	1095.6637	0.152263	-422.037578	-422.028927	-422.027983	-422.071145	30.855	
C	-0.0586868468	 1.3580187427	-0.0221739509	-0.229386
O	-0.0789034809	-0.0517322047	-0.0635007679	-0.256165
C	 0.6798145463	-0.5984436284	-1.1255109386	-0.122804
C	 0.6374918968	-2.1092297095	-0.9576929895	 0.346083
O	 1.1020904077	-2.4765513163	 0.3136302827	-0.478185
C	-0.674568975	-2.7683217655	-1.4628745286	-0.122519
O	-0.009317099	-3.2173670196	-2.6643333255	-0.276011
C	 1.2835391771	-2.8863362003	-2.1179746017	-0.120112
H	 0.9645890972	 1.7451947115	 0.0972164865	 0.111828
H	-0.4893298245	 1.7941708296	-0.9357718381	 0.113513
H	-0.65941487	 1.6682569077	 0.835830759	 0.133096
H	 0.2677333397	-0.3035868848	-2.1029195592	 0.104005
H	 1.724120489	-0.2483294139	-1.0712493112	 0.094738
H	 0.7546630099	-1.8154796119	 0.9266408907	 0.287786
H	-0.990726178	-3.6041939155	-0.8263434964	 0.10196
H	-1.5272974206	-2.1156734948	-1.6780300082	 0.10306
H	 1.903829641	-2.3233598708	-2.8259226213	 0.099155
H	 1.8320264201	-3.7697337157	-1.7671568618	 0.109959
