18
gdb 62891	3.27232	1.50305	1.1881	2.185	72.59	-0.2388	0.0685	0.3073	1054.168	0.146383	-438.980331	-438.97221	-438.971265	-439.012346	32.265	
C	-0.0557636426	 1.5826135186	-0.0124530675	-0.485699
C	-0.0346553898	 0.065590487	-0.0076761846	 0.485132
O	-1.3048259778	-0.4794978495	-0.2738700396	-0.48285
C	 1.2012632432	-0.6647200373	-0.6547038581	-0.233036
N	 2.0026731636	-0.1408581394	 0.5345344842	-0.343578
C	 0.7071802549	-0.6748875028	 1.1427998086	-0.203644
C	 0.8215051803	-1.8857701067	 0.1983411678	 0.56196
C	 0.2391739878	-3.2019520152	 0.0322957479	-0.294222
O	 1.6294835968	-3.0162961782	 0.4150941292	-0.313075
H	 0.9259806083	 1.987629924	 0.2291509464	 0.157777
H	-0.3501586217	 1.9531686066	-1.0030679421	 0.104733
H	-0.7894024208	 1.9475363743	 0.7134643992	 0.123059
H	-1.7217951339	 0.0565397708	-0.9554678118	 0.28209
H	 1.5799159235	-0.6145027623	-1.6764993127	 0.081262
H	 2.747740635	-0.8117843178	 0.7368179866	 0.232689
H	 0.5075274078	-0.6391702543	 2.2141628997	 0.086041
H	-0.4004569793	-3.6177874254	 0.8084687033	 0.122503
H	 0.0881442848	-3.6113599523	-0.9649414264	 0.118858
