16
gdb 80159	2.4643	1.64376	1.36389	4.8087	71.41	-0.2538	-0.0668	0.187	998.877	0.124476	-437.897994	-437.890219	-437.889275	-437.930416	29.371	
C	-0.3677430948	 1.4347571267	-0.0079090635	-0.424792
C	-0.007859282	-0.0338262261	 0.0350051855	-0.052319
C	 1.3559703329	-0.5731065885	-0.2278592854	 0.054527
O	 2.4229030406	 0.367230274	-0.2327219518	-0.234148
C	 2.6599897651	 0.842497812	 1.0288999719	 0.295498
N	 3.5313626354	 1.6949069582	 1.3464287814	-0.49803
C	 1.6868584917	 0.1743750178	 2.0010661443	 0.34927
O	 1.7038624207	 0.2997312393	 3.1958154127	-0.290093
C	 0.8046460454	-0.695890252	 1.1717522294	-0.214404
H	 0.4648189744	 2.0818174934	 0.2744170373	 0.147532
H	-0.6769178869	 1.7145132667	-1.0200920662	 0.131843
H	-1.200049586	 1.645363271	 0.6700348592	 0.137892
H	-0.8017049854	-0.6945749527	-0.3054431731	 0.112649
H	 1.5472778431	-1.4111895332	-0.8864046548	 0.122806
H	 4.0599742538	 2.0026879064	 0.527042236	 0.234409
H	 0.4391958319	-1.6164244428	 1.6067781971	 0.12736
