22
gdb 15429	4.69862	0.8594	0.80944	1.6354	79.66	-0.256	0.0957	0.3517	1541.4748	0.198615	-350.199878	-350.190052	-350.189107	-350.235248	34.968	
C	-0.4180729891	 1.4644022716	-0.1177675137	-0.383166
C	-0.2271274439	-0.0458527294	-0.2740549145	-0.154939
C	 1.111941151	-0.4169046099	-0.9277873671	-0.211537
C	 1.2819774521	-1.9114073241	-1.0587757338	 0.058027
O	 0.5049655994	-2.5784985448	-2.064578204	-0.269674
C	 1.9346728317	-2.6096817941	-2.1792988763	 0.075081
C	 2.5479351534	-1.9520683003	-3.3926620127	-0.213283
C	 2.3335778354	-2.7889472654	-4.6603597338	-0.373841
H	 0.3698693478	 1.9023697546	 0.5055083875	 0.111974
H	-0.3887000874	 1.9702772951	-1.0893136028	 0.114894
H	-1.3798599451	 1.6980228496	 0.349203275	 0.113223
H	-0.2960847104	-0.5296429173	 0.7092125414	 0.094111
H	-1.0386469934	-0.4659499641	-0.8796097283	 0.115382
H	 1.181338946	 0.0593441706	-1.9108976352	 0.101456
H	 1.9407170764	-0.0226056838	-0.3231294609	 0.095691
H	 1.2784823123	-2.4376208956	-0.0996500273	 0.081265
H	 2.3592642282	-3.5925697414	-1.9539047311	 0.080266
H	 2.121467118	-0.9551443579	-3.5342159079	 0.105131
H	 3.6221930296	-1.8181815204	-3.209149905	 0.098966
H	 1.2652250354	-2.9217995155	-4.8548163057	 0.134282
H	 2.7830037539	-2.3058436028	-5.5329109324	 0.112122
H	 2.7819977689	-3.7834208947	-4.5599562513	 0.11457
