15
gdb 24538	3.85961	1.69301	1.1768	2.074	86.21	-0.1908	-0.0598	0.131	977.1792	0.11605	-383.538305	-383.532148	-383.531204	-383.568568	25.545	
O	-0.0323023378	 1.3323316805	 0.009851855	-0.202128
C	 1.1085281738	 2.0358931217	 0.0023754971	 0.038417
C	 2.340414931	 1.4621979671	-0.0128775566	-0.170607
C	 2.4701481513	 0.0429315112	-0.0218073625	-0.21468
C	 1.3354324469	-0.7165064238	-0.0147038003	 0.232267
C	 1.0295433689	-2.1111226903	-0.019244876	-0.276358
C	-0.3438547427	-2.2239780151	-0.0062530198	-0.075614
C	-0.9805118721	-0.9268231607	 0.0070910095	-0.316384
C	 0.037021385	-0.0213637736	 0.0018653332	 0.337036
H	 0.9206535089	 3.101262059	 0.0099705342	 0.138666
H	 3.2102900349	 2.1060397043	-0.0180016247	 0.113253
H	 3.4576766439	-0.4080762335	-0.0340041683	 0.113749
H	 1.7501847843	-2.9152646132	-0.0307345235	 0.088838
H	-0.8927673	-3.1578723406	-0.0058702341	 0.095859
H	-2.0410080164	-0.728541513	 0.0186794468	 0.097685
