16
gdb 20271	4.48375	2.60546	2.37334	1.7369	65.76	-0.2371	0.079	0.3161	650.9147	0.134142	-346.542499	-346.537635	-346.53669	-346.571111	21.555	
C	-0.0426758599	 1.5925817594	 0.0497664461	-0.248331
C	 1.4969451954	 1.4077926668	 0.0126987045	-0.050419
C	 1.8579571678	 0.6770116072	 1.3221510129	 0.090983
O	 2.9444237561	-0.2248372472	 0.9832350677	-0.299271
C	 1.945569328	-0.9455005934	 0.2426617896	 0.085299
C	 1.3030309806	 0.0546831445	-0.7808969763	-0.066088
C	-0.0700902445	 0.0537131443	-0.0242341346	-0.059853
C	 0.791356541	-0.4702578294	 1.1632222883	-0.089115
H	-0.4803683824	 2.0877715696	 0.924005141	 0.091475
H	-0.4286778403	 2.0564320963	-0.8624962839	 0.102339
H	 2.1752910642	 2.1925960974	-0.3184980362	 0.071464
H	 2.027434126	 1.2491825496	 2.2334540855	 0.080201
H	 2.2154507228	-1.9641350045	-0.0324045139	 0.079436
H	 1.4281442189	 0.024967407	-1.8603615907	 0.07011
H	-0.9415411517	-0.5217325328	-0.3320316553	 0.067195
H	 0.4185154182	-1.0025391749	 2.0352760254	 0.074574
