18
gdb 5313	4.53951	1.53477	1.26042	1.7418	75.53	-0.1757	0.0543	0.23	999.6836	0.154991	-344.005118	-343.997022	-343.996078	-344.03772	30.278	
C	 0.051802381	 1.264781746	 0.5146305616	-0.329739
N	-0.0371123658	 0.0739197987	-0.3300836896	-0.156794
C	 1.2156212459	-0.6628144222	-0.3742803102	-0.323116
C	-1.1673832083	-0.7294555028	-0.1028037995	 0.344988
C	-1.3245381729	-2.0014625425	 0.4077727317	-0.227856
C	-2.7157877349	-2.3144395074	 0.3496518275	-0.141988
C	-3.364639409	-1.2302370948	-0.1834448234	-0.096802
N	-2.415389423	-0.2692496652	-0.4559689137	-0.297669
H	 0.8211207198	 1.9357715095	 0.1188139367	 0.117618
H	-0.900570289	 1.7996181375	 0.5135279144	 0.116781
H	 0.3050697538	 1.0240890458	 1.5619059492	 0.106218
H	 1.522106124	-1.0577992782	 0.610749071	 0.102511
H	 1.1227511433	-1.5018995351	-1.0673992212	 0.132009
H	 2.0106481242	 0.0005367244	-0.7297587512	 0.11596
H	-0.5373367078	-2.6295908729	 0.7933152072	 0.085024
H	-3.1815047324	-3.2316460646	 0.6762400736	 0.087929
H	-4.4077551381	-1.0517971842	-0.3874165477	 0.110169
H	-2.5743189908	 0.5879760982	-0.9557666567	 0.254756
