21
gdb 55649	2.47178	1.0807	0.90746	0.5351	79.3	-0.2464	-0.0235	0.2228	1384.6235	0.17729	-424.268623	-424.257526	-424.256582	-424.306191	39.007	
C	-0.3058460746	 1.5351803789	-0.1564081631	-0.468278
C	 0.049609859	 0.0610871924	-0.0531798464	 0.36589
O	 1.1964410987	-0.2978109861	 0.102976838	-0.295318
C	-1.1285906914	-0.8984454776	-0.1601608493	-0.320969
C	-0.8303705021	-2.4028446381	-0.0626826724	 0.149839
C	 0.0892512544	-2.8915373531	-1.2047120625	-0.432325
C	-0.2207799683	-2.7904780758	 1.3036326042	-0.432334
C	-2.1385333165	-3.1743532318	-0.1933788127	 0.157668
O	-3.231767864	-2.6938419421	-0.3481669044	-0.265654
H	 0.597975695	 2.1389183559	-0.0688337317	 0.142631
H	-0.7986438325	 1.744141792	-1.1124546998	 0.141322
H	-1.0144647618	 1.8142442288	 0.6313196402	 0.141313
H	-1.8594893396	-0.6155099968	 0.6087859924	 0.131248
H	-1.647817442	-0.684515876	-1.1036531581	 0.131263
H	 1.0771190913	-2.4402859694	-1.102747442	 0.156707
H	 0.2009861481	-3.9808552949	-1.1741436846	 0.114731
H	-0.3187805799	-2.6231218888	-2.1851303885	 0.117058
H	-0.8522270836	-2.449219974	 2.1310254376	 0.11705
H	-0.1156582364	-3.8776483417	 1.3875630764	 0.11473
H	 0.7666252058	-2.3390974115	 1.4094437177	 0.156704
H	-2.0033967195	-4.2804998202	-0.1318975812	 0.076723
