20
gdb 103719	2.85487	1.21497	1.00403	4.4951	80.94	-0.2685	0.0337	0.3022	1253.0626	0.168035	-403.149345	-403.139071	-403.138126	-403.184102	37.323	
C	 0.0960174983	 1.2516354075	-0.3355041597	-0.250457
O	-0.093117356	-0.0004292132	 0.3013254238	-0.28084
C	-1.3764331234	-0.537487063	 0.1688516949	 0.402374
C	-2.4433953044	 0.1530046736	 0.9892966317	-0.462463
C	-1.7166409708	-1.1695441392	-1.1539640963	-0.375858
C	-1.363314632	-2.0632473403	 0.0399480015	 0.089616
C	-0.0415128382	-2.8172191113	 0.0386170562	-0.45535
C	-2.4521771758	-2.7847765684	 0.6511578965	 0.249422
N	-3.3173802158	-3.3753738642	 1.1432966243	-0.35928
H	 1.1580056752	 1.4896909063	-0.2458940331	 0.134518
H	-0.1747147378	 1.209468987	-1.3996300073	 0.111912
H	-0.4848284686	 2.0511857343	 0.1425466038	 0.118322
H	-2.6165528109	 1.1712027461	 0.6268552608	 0.121855
H	-3.3919158335	-0.3852675037	 0.9404887717	 0.147325
H	-2.132724052	 0.207988377	 2.0369483785	 0.136945
H	-2.7456860624	-1.1536344024	-1.494176	 0.134868
H	-0.969848628	-1.130557141	-1.9393562557	 0.128025
H	 0.7483106156	-2.1836039899	-0.3644368722	 0.13811
H	 0.2399967127	-3.1063031385	 1.055086018	 0.138819
H	-0.1198249024	-3.7252939968	-0.5661129573	 0.132136
