16
gdb 68650	2.57309	2.03961	1.55804	2.4066	69.22	-0.2569	-0.0178	0.2391	883.9907	0.12631	-437.895817	-437.889092	-437.888147	-437.926478	28.145	
O	 0.093041432	 1.3805338159	 0.0446650952	-0.501855
C	 0.0273042903	 0.0008159531	 0.0527387142	 0.310003
C	-1.3539910136	-0.7274885451	-0.0424057498	-0.274637
C	-0.658699746	-2.0960890942	-0.0383614955	 0.034662
O	 0.2531362655	-1.9437814086	-1.2161674219	-0.258853
C	 0.6732151016	-0.6604234349	-1.1672746176	 0.40115
N	 1.4219201751	-0.028818935	-1.9635223623	-0.598163
C	 0.2053543481	-1.9991568347	 1.2078334836	-0.086825
C	 0.6307912052	-0.7345343356	 1.2540038438	-0.125476
H	 0.6374868647	 1.6124535506	-0.7252398626	 0.296734
H	-1.9807863082	-0.5479240986	 0.8309282262	 0.121757
H	-1.8977109625	-0.5206517399	-0.9681016913	 0.116714
H	-1.237203727	-2.9992644881	-0.2090706005	 0.096114
H	 1.7449283317	-0.6024502605	-2.7418981404	 0.231086
H	 0.4820005037	-2.831118231	 1.8402352746	 0.11506
H	 1.3348674993	-0.2677203834	 1.9294178642	 0.122528
