20
gdb 69938	3.87945	1.37019	1.18397	1.1672	85.79	-0.222	0.0159	0.238	1109.8356	0.172667	-365.971522	-365.96389	-365.962946	-366.003124	31.231	
C	-0.1201361	 1.5215357554	-0.0325465155	-0.493138
C	 0.0871209839	 0.0298439857	-0.0071677042	 0.325929
N	-0.7022720029	-0.8121708592	 0.9462767157	-0.367911
C	 0.7652956125	-0.7244339263	 1.1059738905	-0.134169
C	 1.5605910347	-1.8461999012	 0.4684433981	-0.035847
C	 1.1511970833	-3.3614927784	 0.3486808154	-0.242732
C	 1.3182732692	-3.2566207581	-1.2149221881	-0.306551
C	 1.1662220247	-1.7703045868	-0.9886138902	 0.254564
C	 0.3309064928	-0.7672677818	-1.2625498545	-0.266612
H	 0.7157645335	 2.0252083633	-0.5296127985	 0.126682
H	-1.0353722532	 1.7837702901	-0.5765860964	 0.12372
H	-0.2063429616	 1.9296234409	 0.9801523762	 0.111332
H	-1.1260966485	-0.1999953579	 1.6427295947	 0.220139
H	 1.155096377	-0.196223647	 1.9703030648	 0.077419
H	 2.6346377953	-1.7475765399	 0.6623495147	 0.071886
H	 1.7866483019	-4.0862508613	 0.8624478373	 0.096822
H	 0.1058007163	-3.50089802	 0.6270450212	 0.132406
H	 2.3262657701	-3.5547249983	-1.5226618343	 0.106779
H	 0.5843871219	-3.7562374608	-1.8505982569	 0.109699
H	-0.2654361208	-0.6395236782	-2.15908634	 0.089581
