19
gdb 68564	2.41604	1.52843	1.26295	2.9594	80.45	-0.2232	-0.0241	0.1991	1083.6449	0.158768	-385.867671	-385.859521	-385.858577	-385.900497	31.774	
C	-0.1286721502	 1.514145232	 0.063530783	-0.507697
C	-0.0492446374	 0.0065240409	 0.0102433842	 0.276292
C	 0.3979489823	-0.7864177192	-1.2711657588	-0.242259
C	-0.2765842214	-1.9701897647	-0.5029523899	-0.101742
C	 0.628311186	-2.0337285015	 0.7382030856	-0.094127
C	 0.7752807161	-0.7509336852	 1.072945923	-0.123137
C	-1.3513547409	-0.907069957	-0.0538308729	-0.08679
C	-2.2008087233	-1.1207308601	 1.1676390554	 0.124942
O	-3.3829101242	-0.8718312915	 1.2042491998	-0.26032
H	 0.8691837383	 1.9588294138	-0.0234342715	 0.1223
H	-0.7431713434	 1.9081388666	-0.7517182425	 0.122717
H	-0.5656748958	 1.8579579998	 1.0074567017	 0.126435
H	-0.1392520109	-0.4843862893	-2.1762610102	 0.097131
H	 1.4721559207	-0.8631572584	-1.4559481822	 0.095406
H	-0.5690902259	-2.8978894898	-0.9925123918	 0.073019
H	 1.028791607	-2.926584108	 1.1965475027	 0.10744
H	 1.3294523698	-0.2955192009	 1.8820495375	 0.104538
H	-2.0079728283	-0.6045205963	-0.8746443135	 0.088323
H	-1.6756658885	-1.5222601413	 2.0584173704	 0.077528
