19
gdb 110916	2.64236	1.22845	1.01843	4.1612	76.45	-0.2314	-0.0165	0.215	1233.6038	0.158015	-422.987736	-422.978792	-422.977847	-423.022132	32.354	
C	 0.0026824326	 1.1520259906	-0.44203424	-0.24171
O	-0.0951868947	 0.047463688	 0.4389487371	-0.236999
C	-1.3044120694	-0.6354081416	 0.3144049994	 0.137346
C	-1.5517857011	-1.6669069344	-0.7428078988	-0.113151
C	-0.2627085155	-2.4461764052	-1.0339617069	-0.26763
C	-0.2042476225	-2.9150828927	 0.4630121235	-0.065241
C	 1.0604109937	-2.6754709406	 1.255138906	 0.137825
O	 1.6503890625	-3.5495186757	 1.8428388587	-0.25943
C	-1.4445660799	-2.048513922	 0.7615492964	-0.151957
H	 0.9792712366	 1.6111100976	-0.2749438337	 0.132692
H	-0.0781958878	 0.8410744694	-1.4928920148	 0.114409
H	-0.7811637377	 1.896675433	-0.2387748776	 0.110952
H	-2.1769886638	-0.0191278906	 0.5434382224	 0.091862
H	-2.4256382351	-1.6454479642	-1.3831078648	 0.091778
H	-0.4012525908	-3.2885320233	-1.7123545144	 0.116961
H	 0.5812822281	-1.8451559761	-1.3846103581	 0.110257
H	-0.4472405177	-3.9768148797	 0.5428439232	 0.09523
H	 1.4208852463	-1.6275449738	 1.2588622365	 0.098677
H	-2.2206991738	-2.3397056487	 1.4597549158	 0.098128
