20
gdb 12061	3.87654	1.5597	1.41282	1.5284	74.36	-0.2507	0.0747	0.3255	971.8108	0.176603	-348.971849	-348.963545	-348.962601	-349.003988	32.138	
C	-0.0891697233	 1.6094619417	 0.0876412173	-0.455008
C	 0.0125944231	 0.0865949348	 0.0451310784	 0.34227
C	-1.3587245853	-0.5409501614	-0.1884160834	-0.124319
O	-1.8391509647	-0.1235741161	-1.4595930003	-0.427507
C	 1.0784168178	-0.5469219736	-0.925076253	-0.278183
C	 1.7047081703	-1.2861974439	 0.2626225963	-0.032512
C	 2.1782899524	-0.2974066662	 1.2884646736	-0.296166
C	 0.7129063948	-0.6244812315	 1.2222421577	-0.085778
H	 0.8901572659	 2.077191507	 0.2223098257	 0.106848
H	-0.5240737105	 1.9876110193	-0.8417053512	 0.132421
H	-0.7309643081	 1.9335284024	 0.9158610757	 0.10451
H	-1.2705105712	-1.6379839232	-0.1388068081	 0.081972
H	-2.0446625187	-0.2274092688	 0.6165858227	 0.080209
H	-2.7061207998	-0.5149935787	-1.5976218145	 0.287005
H	 0.6155428693	-1.1926362712	-1.6731644814	 0.108857
H	 1.7387518745	 0.1594940748	-1.4390200975	 0.08979
H	 2.0570235769	-2.3105407746	 0.2525477347	 0.079916
H	 2.699845466	-0.7205276127	 2.1413986658	 0.107869
H	 2.5530690603	 0.6765633654	 0.9831292674	 0.104161
H	 0.1936615205	-1.0545948935	 2.0727662742	 0.073647
