19
gdb 52943	4.55997	0.89456	0.85346	1.9127	85.62	-0.2377	0.0471	0.2848	1428.1095	0.159664	-385.847558	-385.839058	-385.838114	-385.8826	31.763	
C	-0.0020311514	 1.4688968313	-0.0177411198	-0.515145
C	-0.0029961259	 0.0136346197	-0.0056444871	 0.379229
C	-0.0060006133	-1.1914957486	 0.0067492064	-0.404918
C	-0.0054886315	-2.6294214948	 0.0170960911	 0.226462
C	 0.2652044921	-3.4953816745	 1.3039706278	-0.264122
C	-0.3471063284	-4.5893419635	 0.4001174253	 0.070852
C	-1.3024130921	-3.5063959122	-0.1505580522	-0.264121
O	 0.6254019223	-4.7399751786	-0.6468625359	-0.280365
C	 0.9206164988	-3.3676650175	-0.9754212456	-0.112835
H	 0.678253903	 1.8611219477	-0.78188712	 0.149044
H	-1.0013136231	 1.8656527801	-0.2291640176	 0.149084
H	 0.3169327114	 1.8745062193	 0.948915861	 0.149107
H	 1.302196907	-3.6252556293	 1.6213842614	 0.104178
H	-0.3725700203	-3.2005134529	 2.1379210468	 0.108231
H	-0.666502526	-5.568180495	 0.7517581219	 0.081743
H	-2.0885905899	-3.2125752713	 0.5456973254	 0.108228
H	-1.6954200735	-3.6463135751	-1.1599837332	 0.10418
H	 0.6709720901	-3.1600483598	-2.0217351751	 0.105582
H	 1.9810572107	-3.150838405	-0.8061551605	 0.105585
