19
gdb 88486	2.23662	1.55678	1.16377	4.3786	80.17	-0.2334	0.0296	0.263	1132.6265	0.158264	-382.035369	-382.026354	-382.02541	-382.06926	33.874	
C	 1.270824977	 1.1182183488	-0.9736250218	-0.424391
C	 0.590458965	-0.0893225549	-0.3686849022	 0.030879
C	 1.3737903673	-1.2857106958	 0.0509276547	-0.268603
N	 0.7155156653	-0.4486515754	 1.0516164212	-0.147613
C	 1.4797784954	 0.37638841	 1.9597817785	 0.196124
C	 2.2287041115	-0.2927286147	 3.0931530864	-0.296373
C	 3.0055425269	 0.4459360654	 2.0399832256	-0.3051
C	 0.7802014688	 1.6004327396	 2.287412976	 0.281953
N	 0.2334902265	 2.587571744	 2.5408097954	-0.352732
H	 2.3059679687	 1.2200864191	-0.6397834776	 0.125405
H	 1.2758832049	 1.0304709934	-2.065039241	 0.125295
H	 0.7379655601	 2.0384132347	-0.7145767843	 0.148935
H	-0.4207416116	-0.2561982614	-0.7354368929	 0.101796
H	 0.9720246637	-2.2907653828	-0.045089229	 0.123036
H	 2.4535596666	-1.2211781395	-0.0663887692	 0.113994
H	 2.1460886023	 0.1352937246	 4.0846598288	 0.142266
H	 2.2356009974	-1.3766048695	 3.0608026325	 0.135933
H	 3.5740047976	-0.136070719	 1.325195664	 0.128476
H	 3.4478624064	 1.4025895835	 2.292920465	 0.14072
