18
gdb 38582	3.51994	1.72587	1.53873	0.7172	75.21	-0.2161	0.0699	0.2859	907.3603	0.149779	-401.833769	-401.827562	-401.826618	-401.863923	26.989	
C	-0.1481800406	 1.5146426825	 0.1305471617	-0.253281
C	 1.3773950509	 1.2801851001	 0.058720875	-0.032211
C	 1.1899983579	 0.0677795055	 1.0391613387	-0.290332
C	 0.1003432711	-0.0208395574	-0.0625640375	 0.345628
C	-0.8555834492	-0.9437057514	-0.7840262316	-0.142676
O	-1.8003032776	-0.1934279836	-1.5602109905	-0.244539
C	-0.6122838405	-0.6559507134	-2.2160070277	 0.063291
C	 0.5173802119	 0.389942063	-2.3507120882	-0.236866
N	 1.2103829227	 0.2428377723	-1.0512690444	-0.124177
H	-0.5624165677	 1.837643263	 1.0894291812	 0.091299
H	-0.6149756279	 2.045502292	-0.6961704495	 0.113131
H	 2.1875889192	 2.0097970562	 0.0608713756	 0.085982
H	 1.9669186378	-0.695157572	 0.993826304	 0.109524
H	 0.8658761645	 0.3068055336	 2.0531059198	 0.097901
H	-1.1934120498	-1.9016279189	-0.4009139538	 0.101756
H	-0.7785699838	-1.3864466357	-3.0038791923	 0.101232
H	 1.2036870035	 0.1327887015	-3.1628118073	 0.106352
H	 0.0840176678	 1.3751966827	-2.5710118931	 0.107987
