18
gdb 87757	4.88349	0.85202	0.80719	4.0976	75.68	-0.2466	0.0186	0.2652	1436.7703	0.145893	-439.075193	-439.066131	-439.065187	-439.110774	32.07	
C	-0.1430013102	 1.544571891	 0.136533536	-0.41977
C	-0.1142503356	 0.0397413145	 0.1634722465	-0.013018
O	 1.0969370981	-0.5987439951	-0.2987475461	-0.279288
C	 0.7514015521	-0.7244241214	 1.0593832198	 0.395167
C	 1.6546589873	-0.2562686366	 2.217468489	-0.266767
N	 1.3522716301	-1.5401252647	 2.8620320759	-0.056476
C	 0.5322465038	-2.0717236656	 1.7692811079	-0.256495
C	 1.5874680854	-2.0439285021	 4.0929388482	 0.137789
O	 1.179402105	-3.1182382032	 4.4838229742	-0.329924
H	 0.7894092161	 1.9630600341	 0.5245385937	 0.12948
H	-0.2799093172	 1.9070063279	-0.8871594479	 0.138478
H	-0.9753796276	 1.921395679	 0.7405566286	 0.128984
H	-1.0211718759	-0.454385854	-0.1896946848	 0.100549
H	 2.7055514058	-0.1285920065	 1.9336529354	 0.130907
H	 1.3140682471	 0.6268086296	 2.7702339233	 0.122626
H	-0.4944459306	-2.3160137205	 2.0602632158	 0.131188
H	 0.9786029762	-2.929708736	 1.2552681632	 0.136576
H	 2.2028091699	-1.3576662204	 4.7106986714	 0.069991
