21
gdb 88183	3.28045	1.24808	1.0885	0.8802	87.03	-0.2185	0.0236	0.2421	1215.8131	0.183201	-387.09003	-387.08154	-387.080596	-387.122864	33.442	
C	-0.0352218355	 1.5357801013	 0.0441477369	-0.404352
C	 0.0316935153	 0.0249998614	 0.0304598503	-0.066292
C	 1.3359002496	-0.6914059093	-0.2346035435	-0.356664
C	 0.7039703475	-0.7278117264	 1.1542827403	 0.413404
O	 1.2901954978	 0.0858550027	 2.1342842741	-0.302268
C	 2.0817055314	-0.6528241773	 3.0569889633	-0.092265
C	 1.2174127418	-1.631957778	 3.8553336921	-0.260256
C	 0.3328135987	-2.4066505759	 2.9139459293	-0.099989
C	 0.1272611616	-1.9908066222	 1.6639369332	-0.092412
H	 0.852419958	 1.9614644306	 0.5161869856	 0.132458
H	-0.1078615244	 1.9284435918	-0.9759402119	 0.112005
H	-0.9091586617	 1.8863250408	 0.6033101885	 0.117873
H	-0.8565806758	-0.4622410127	-0.3650375486	 0.084742
H	 1.3382665361	-1.5931570405	-0.8374753139	 0.107648
H	 2.2253416693	-0.0761048727	-0.323481085	 0.117296
H	 2.871223821	-1.202436439	 2.5214951757	 0.094207
H	 2.5587630239	 0.0868979187	 3.7053747641	 0.102519
H	 1.8635131047	-2.3117049386	 4.4257272673	 0.101861
H	 0.6135059056	-1.0877894184	 4.5945203779	 0.114442
H	-0.1254521594	-3.3239728866	 3.2719895784	 0.087305
H	-0.4743836156	-2.5679584798	 0.9670923761	 0.088738
