19
gdb 29572	2.81061	1.45006	1.00976	2.0545	83.28	-0.1831	0.0543	0.2374	1187.6731	0.160351	-382.074882	-382.066253	-382.065309	-382.108237	32.661	
C	 0.2671098887	 1.4212750625	 0.2317239929	-0.506811
C	 0.086887941	-0.0550752922	 0.0584191913	 0.200566
C	 0.0482546179	-0.7601876981	-1.1233334014	-0.160885
N	-0.1548873085	-2.0845123019	-0.835731927	-0.249702
C	-0.2430518899	-2.2555735666	 0.5269256556	-0.169666
C	-0.0975179447	-1.0130002178	 1.1067490491	 0.185556
N	-0.1996045509	-0.6821914656	 2.4750248845	-0.14777
C	 0.2927488218	-1.6336245309	 3.4600233704	-0.227233
C	 1.0268685689	-0.3621232226	 3.2096454445	-0.222736
H	 1.200858452	 1.6667468551	 0.753066067	 0.117653
H	 0.2877465069	 1.9312897748	-0.7359240541	 0.113327
H	-0.5464908329	 1.8546845011	 0.8244950824	 0.130353
H	 0.1487298955	-0.4187493326	-2.1417607974	 0.111869
H	-0.2368292183	-2.8190137398	-1.5146342582	 0.258099
H	-0.4314023192	-3.2225449065	 0.9628480498	 0.111236
H	-0.3198133092	-1.7519554906	 4.3491635171	 0.114272
H	 0.7572309992	-2.5471121218	 3.0940646617	 0.111429
H	 1.9693690139	-0.4351723307	 2.6717756404	 0.115891
H	 0.9519923376	 0.4656692043	 3.9086732813	 0.114552
