19
gdb 8513	4.14715	1.87608	1.62968	1.5723	75.26	-0.2348	0.0914	0.3262	881.773	0.165626	-327.888608	-327.881136	-327.880191	-327.919629	29.664	
C	-0.093156978	 1.4608838995	 0.0555322329	-0.498715
C	 0.0996343988	-0.0211597229	-0.0388983833	 0.349163
C	 0.0977192736	-0.877402379	-1.294718715	-0.33114
C	-0.2328395151	-2.0372740877	-0.3300005797	 0.355085
C	-1.091904554	-3.1979455208	-0.737673117	-0.496049
C	 1.038165408	-2.2165542359	 0.5320091515	-0.280481
C	 0.6827850778	-0.8446096993	 1.0673171858	-0.079968
N	-0.7754699336	-0.9905609339	 0.712634852	-0.228678
H	 0.7929342572	 1.9957248428	-0.3054308234	 0.119349
H	-0.9519658036	 1.7841420106	-0.5423077725	 0.122461
H	-0.2727222227	 1.7624092023	 1.092149157	 0.127966
H	-0.7595269798	-0.631572168	-1.9295706419	 0.100431
H	 1.0035907508	-0.9471066503	-1.9077954895	 0.089188
H	-0.5668060457	-3.8258468647	-1.4673351842	 0.118842
H	-1.3458626642	-3.8197478259	 0.126746106	 0.124472
H	-2.0253801548	-2.8533543521	-1.1940489211	 0.123936
H	 0.8937123668	-2.987057536	 1.295078572	 0.105052
H	 1.9968940904	-2.3712432039	 0.0245548409	 0.091408
H	 0.9819607081	-0.3984181949	 2.0099016793	 0.087679
