21
gdb 112434	1.92136	1.53575	0.95242	4.4142	78.45	-0.2601	0.0183	0.2784	1297.4153	0.1826	-424.290556	-424.281317	-424.280373	-424.324636	34.621	
C	 0.3472171943	 1.523766071	 0.0954240335	-0.387514
C	 0.4361231402	-0.0051275013	 0.1205716445	-0.186217
C	 0.5241299414	-0.6125777088	-1.279931327	 0.105368
O	 1.6777477592	-0.0733813626	-1.9691462426	-0.225803
C	 2.7054543143	-0.9666562442	-2.0012351298	 0.425058
O	 3.7717111013	-0.697000836	-2.4719012674	-0.337951
C	 2.2456123676	-2.2727447253	-1.3657680103	-0.374788
C	 0.7176852077	-2.150584752	-1.3569231806	-0.001742
C	-0.0067717538	-2.9781212544	-0.2979039312	-0.417595
H	 1.2200446746	 1.9556724098	-0.4000742282	 0.143724
H	-0.5443688214	 1.8568281963	-0.4475509727	 0.115557
H	 0.291102837	 1.9287802918	 1.1098448628	 0.114227
H	 1.3063033399	-0.3181816684	 0.7115521286	 0.100913
H	-0.4469512536	-0.4207406566	 0.6196537114	 0.104722
H	-0.3481383963	-0.2963592874	-1.8620073505	 0.09065
H	 2.6358535502	-3.1244899605	-1.9247208474	 0.137159
H	 2.6597304503	-2.3287114158	-0.3514514103	 0.133765
H	 0.354690597	-2.4604481873	-2.3446015932	 0.091765
H	 0.3537535817	-2.7530372902	 0.7104572615	 0.124217
H	-1.0869218897	-2.798425604	-0.3189552794	 0.121248
H	 0.1523172381	-4.046305494	-0.4748163318	 0.123238
