23
gdb 101812	4.15332	0.62782	0.61546	3.3469	79.63	-0.2564	0.0726	0.329	1926.7543	0.202658	-462.556875	-462.545516	-462.544572	-462.594392	40.624	
C	 0.1543852022	 1.5254191097	 0.0377228887	-0.392768
C	-0.0020313625	 0.0053556147	-0.052206182	 0.157449
C	-1.4446271065	-0.4101344386	-0.3168401571	-0.38769
O	 0.7759809573	-0.5467166367	-1.115234554	-0.278351
C	 2.1680162796	-0.6470570737	-0.877235941	-0.092256
C	 2.7712709556	-1.2505949306	-2.1393498403	 0.096679
O	 2.445045002	-0.4457650893	-3.2672249295	-0.455884
C	 4.2933203593	-1.3305039645	-2.1092212272	-0.049197
O	 4.7959216595	-1.8493369738	-3.3228705954	-0.428734
H	 1.1889449406	 1.8201207516	 0.2340198375	 0.120526
H	-0.1646222939	 1.9945877898	-0.8986642846	 0.121991
H	-0.4621719546	 1.9229282784	 0.8500714198	 0.118265
H	 0.3348451864	-0.4476122791	 0.8947276716	 0.06926
H	-1.7934747786	 0.0126099337	-1.2646256306	 0.121534
H	-1.5242389215	-1.4985278661	-0.3772662857	 0.123044
H	-2.1018745764	-0.0537528414	 0.4815544021	 0.116009
H	 2.614653751	 0.3408776337	-0.6912553908	 0.095863
H	 2.3686226007	-1.2873101169	-0.0029997131	 0.090169
H	 2.3649212523	-2.2659446251	-2.2720784021	 0.078112
H	 1.4979637757	-0.2734763869	-3.2071795209	 0.292655
H	 4.7000408426	-0.326562815	-1.901883247	 0.086002
H	 4.6222346795	-2.0017006645	-1.3087020608	 0.103333
H	 4.3403977596	-1.3633234696	-4.0211276578	 0.293988
