15
gdb 106029	2.69059	1.69094	1.2822	2.809	64.8	-0.2199	-0.0109	0.209	985.9742	0.110667	-457.682273	-457.674516	-457.673572	-457.715058	28.52	
C	-0.2414670794	 1.3257298063	-0.0230736346	-0.26513
O	 0.2148235261	-0.0257550538	 0.0459916612	-0.280604
C	 0.7908073184	-0.4652344244	-1.1034831356	 0.248607
C	 0.0099311855	-0.9955862637	-2.3221005888	 0.021119
O	 0.844769265	-0.9015790879	-3.4804661628	-0.287334
C	 1.9139141075	-1.4313241512	-2.6397112143	-0.085186
C	 0.873472374	-1.9536239015	-1.591193907	-0.197817
C	 2.187682266	-0.2790781863	-1.631807519	 0.401987
O	 3.1615763231	 0.3121682729	-1.2659222942	-0.338403
H	 0.5943179874	 2.0126469666	-0.1976860872	 0.14374
H	-0.9860164085	 1.4530416427	-0.8194365205	 0.118298
H	-0.6990833344	 1.5471346659	 0.9422558343	 0.138532
H	-1.0652835077	-0.9098214531	-2.4144055351	 0.131453
H	 2.6912486669	-1.979495373	-3.1636120084	 0.112488
H	 0.7428273703	-2.8638313495	-1.025736918	 0.138249
