17
gdb 37646	3.24319	2.42308	2.14928	0.953	72.08	-0.2123	0.0602	0.2725	741.1188	0.140526	-380.775491	-380.770391	-380.769447	-380.804562	23.271	
C	-0.0309751753	 1.5244856911	 0.0233461481	-0.169486
C	 1.5106389873	 1.4998475879	-0.0343698814	-0.033312
C	 1.3692226256	 0.0407075475	-0.5650850759	-0.002082
C	 1.8989655358	-0.8648127904	 0.5681290935	-0.080488
C	 2.6113348439	 0.059502621	 1.587208934	-0.068896
C	 1.2808923265	 0.4451033504	 2.1704451754	-0.078933
C	 0.5359197928	-0.558777882	 1.2518838635	-0.017894
N	-0.0552024976	 0.0236458572	-0.0167363549	-0.159851
N	 2.0480308079	 1.3818682162	 1.3381018991	-0.099421
H	-0.4877807391	 1.9907261747	 0.9019680278	 0.108154
H	-0.4988645245	 1.9159898561	-0.8839153411	 0.109018
H	 2.0686077169	 2.2534834546	-0.5939051984	 0.075068
H	 1.5162198895	-0.1847469622	-1.6230155504	 0.072
H	 2.2571435041	-1.8705324347	 0.3673979039	 0.078828
H	 3.5922890554	-0.0429206017	 2.0350366285	 0.097378
H	 1.0012747909	 0.7579579565	 3.170425003	 0.092767
H	-0.0750813402	-1.313345412	 1.7485803454	 0.07715
