13
gdb 3273	5.6421	2.66978	2.14713	4.0159	55.73	-0.2367	0.0148	0.2515	612.2249	0.103431	-340.590431	-340.584778	-340.583834	-340.619779	21.441	
N	-0.10160793	 1.2436535737	-0.4523622138	-0.542549
C	-0.0279383576	 0.0193486286	-0.1578244802	 0.390273
N	 0.9946676125	-0.9106197503	 0.0946926609	-0.336435
C	 0.0863850894	-2.0017066189	 0.4524126748	-0.035454
C	-0.5036307804	-1.9615246248	 1.8770221997	-0.087009
O	-1.5361556119	-1.0329691286	 1.4752102756	-0.280055
C	-1.0945936134	-1.0495064074	 0.1006177721	 0.024199
H	 0.8180235535	 1.6891447252	-0.472215881	 0.211193
H	 1.8873699481	-0.7126324713	 0.5281483293	 0.238547
H	 0.3003703788	-2.9645674809	-0.0100176734	 0.098383
H	-0.9386411027	-2.911728131	 2.2109045827	 0.110764
H	 0.1485437622	-1.5602759893	 2.6617647302	 0.104677
H	-1.8977027084	-1.217419475	-0.6162992669	 0.103465
