17
gdb 109142	4.41132	0.98243	0.81351	4.5005	72.75	-0.2036	0.019	0.2226	1343.7334	0.137288	-455.191342	-455.182343	-455.181399	-455.225997	32.055	
O	 0.0187170273	 1.4050630818	 0.0044654223	-0.415165
C	-0.0055875132	-0.0095955457	 0.0467961083	-0.151428
C	-1.4216500931	-0.4969553695	-0.0045511038	 0.199323
C	-2.4731401568	 0.3229599316	-0.020607912	-0.043507
N	-3.7793633135	-0.1518334507	-0.0817074486	-0.376198
C	-4.1081589638	-1.4899820954	 0.0658042027	 0.453859
O	-5.2609865818	-1.8771786413	 0.1177412513	-0.411342
N	-3.0246364017	-2.3243183012	 0.1772405751	-0.357563
C	-1.6292952781	-1.9867746703	-0.075741262	-0.242045
H	 0.9307616397	 1.6927417779	 0.0966552316	 0.292637
H	 0.5617862671	-0.4423994303	-0.7986379183	 0.091943
H	 0.4808546137	-0.3885336834	 0.9645877563	 0.094101
H	-2.3584088069	 1.398024675	 0.0040235473	 0.134967
H	-4.5613607607	 0.4796811961	-0.0543935674	 0.260072
H	-3.2828753642	-3.2972571363	 0.2142587845	 0.252577
H	-1.2983810383	-2.3718964361	-1.0581034425	 0.107658
H	-1.0006880357	-2.4946326421	 0.672115215	 0.110109
