19
gdb 79158	4.27116	1.20523	1.12335	1.9203	75.08	-0.2575	0.0793	0.3368	1118.5628	0.160754	-422.98198	-422.974424	-422.973479	-423.013696	30.629	
O	-0.0249963058	 1.430602226	-0.1037348536	-0.44394
C	 0.0095119621	 0.0266729132	 0.0012615296	 0.135796
C	-0.0104958459	-0.6312740598	 1.4065535734	-0.130466
C	-1.4974669332	-0.1651777969	 1.5744942719	 0.000661
C	-2.2432809498	-1.2272199878	 2.37923944	-0.286557
C	-1.6425586944	-2.5123861916	 1.7397190046	 0.105225
O	-2.5789098103	-3.2940524432	 1.008624077	-0.443579
C	-0.6686110531	-1.8845643304	 0.7521718838	-0.010635
C	-1.3662755176	-0.6503375383	 0.0902038336	-0.075549
H	 0.8739877932	 1.7603912908	-0.0110615038	 0.281989
H	 0.7141624527	-0.4107942719	-0.7196346933	 0.059545
H	 0.7726724824	-0.6266897614	 2.1687713124	 0.059998
H	-1.6989390588	 0.8869547883	 1.7637828334	 0.078206
H	-2.0454594556	-1.151919355	 3.4539495521	 0.09162
H	-3.3270662182	-1.1914865101	 2.2267848937	 0.0961
H	-1.1220794389	-3.1380450833	 2.4800035463	 0.059434
H	-3.2041100857	-3.6721870747	 1.6345675168	 0.280921
H	-0.0687916123	-2.5578908612	 0.1377569888	 0.064544
H	-2.1487843708	-0.6742650429	-0.6681515469	 0.076687
