19
gdb 94395	2.97269	1.35476	1.21193	2.3095	76.12	-0.2366	0.0318	0.2684	1102.7973	0.159181	-423.014903	-423.006588	-423.005644	-423.048153	31.717	
O	 0.346794616	 1.2515700794	-0.2114363198	-0.42343
C	 0.1679986586	-0.0776630941	 0.2084966838	-0.003247
C	-0.2664254245	-0.351371874	 1.6627704863	-0.111721
O	-1.3796956332	-1.1404902204	 1.2047300882	-0.317295
C	-1.1979499269	-0.6952861751	-0.1736882393	 0.419167
C	-2.3161791481	 0.278593476	-0.617964945	-0.308971
C	-3.149118161	-0.5423734477	-1.5688872396	-0.0656
C	-2.5743730389	-1.705656964	-1.868633984	-0.066917
C	-1.2503307925	-1.8743141943	-1.1675130659	-0.328764
H	 1.251102932	 1.51758529	-0.0202532686	 0.290052
H	 1.0049939739	-0.7141140209	-0.1074958271	 0.075497
H	 0.4119479833	-0.925519669	 2.3043164712	 0.097176
H	-0.5844887917	 0.5621098581	 2.183979575	 0.097861
H	-2.8734872646	 0.6295329585	 0.2574987287	 0.114172
H	-1.8939061882	 1.1654703714	-1.1054480593	 0.128482
H	-4.0955411394	-0.1905641548	-1.9644841652	 0.090187
H	-2.9756103371	-2.4502300627	-2.5468875638	 0.089913
H	-0.4106939581	-1.8301681739	-1.8758946643	 0.105709
H	-1.1566744997	-2.8195998126	-0.6211410412	 0.117729
