17
gdb 6694	6.59869	0.75625	0.70403	5.407	83.05	-0.2823	-0.0367	0.2455	1566.3186	0.140747	-326.730318	-326.721205	-326.720261	-326.764489	32.128	
C	 0.0472626809	 1.5656979184	 0.0419455475	-0.385393
C	 0.029304179	 0.0334264829	 0.035968292	 0.03834
C	 0.7374182831	-0.5432281836	 1.267069182	-0.392564
C	-1.4198599395	-0.5181395091	-0.036891639	-0.368652
C	-2.1296506157	-0.1484298088	-1.2489774418	 0.056606
C	-2.7035043149	 0.1592274048	-2.267670639	 0.080128
C	-3.3554368768	 0.5052779072	-3.4157542268	 0.202882
N	-3.9098170278	 0.8004178393	-4.3933949322	-0.33967
H	 1.0752700413	 1.9401369824	 0.0533162345	 0.120844
H	-0.4520268251	 1.976645125	-0.8400672796	 0.131848
H	-0.4600991001	 1.9590782839	 0.9309469579	 0.116115
H	 0.5533059976	-0.3163494125	-0.8623114782	 0.095251
H	 0.2356046052	-0.2316089277	 2.1908526037	 0.118398
H	 0.7554625991	-1.6379074629	 1.2472681001	 0.116558
H	 1.7722148088	-0.1916369975	 1.3180386043	 0.121159
H	-1.3995755334	-1.6132284848	 0.0361532375	 0.144309
H	-1.9888020115	-0.1621213969	 0.8332863972	 0.143839
