16
gdb 75414	2.40483	1.75218	1.0264	5.4689	76.01	-0.2551	-0.0747	0.1804	1115.6584	0.123882	-437.918694	-437.910191	-437.909247	-437.953493	30.274	
C	 0.0438821108	 1.5029835508	 0.0874120299	-0.476257
C	-0.0173331571	 0.0036003601	 0.0638706697	 0.210144
C	-1.1302135085	-0.705309491	-0.1592763371	-0.169301
C	-1.1927184165	-2.1895166105	-0.182976585	-0.121015
O	 0.0281514633	-2.8786896354	 0.0501158099	-0.269505
C	 1.2123938244	-2.2425147314	 0.2870525575	 0.297677
N	 2.2766452128	-2.8937139259	 0.4904225438	-0.463522
C	 1.2494432406	-0.7192075439	 0.3060497017	 0.242343
O	 2.2890759861	-0.1346767628	 0.5139348652	-0.28634
H	 0.7508989047	 1.8702139652	-0.6630313568	 0.150026
H	-0.9377836051	 1.9435519629	-0.1013149103	 0.118173
H	 0.4147454397	 1.8569516713	 1.0543998093	 0.150022
H	-2.0799963456	-0.2057341505	-0.3411726194	 0.115071
H	-1.9147521017	-2.5416279722	 0.5687495955	 0.137723
H	-1.577787294	-2.5283212359	-1.1562806913	 0.13773
H	 2.0859357761	-3.8975505707	 0.4453363575	 0.227031
