21
gdb 122233	3.38714	0.70907	0.65209	3.109	75.07	-0.2615	0.0746	0.3361	1755.0506	0.180614	-461.331659	-461.321312	-461.320368	-461.368016	37.027	
O	 0.0402103839	 1.3312631493	 0.4925386772	-0.4207
C	 0.0518711145	-0.0213728558	 0.0652532354	-0.07521
C	-1.3811251275	-0.5359897356	 0.1060386794	-0.16778
C	-1.4904482246	-1.9925097876	-0.3670392995	-0.290352
C	-2.8808333084	-2.5797020191	-0.2178142325	 0.381638
C	-3.9745759149	-2.0207781358	-1.1234852005	-0.133588
O	-5.2518519552	-2.4971030272	-0.7642175014	-0.418938
C	-3.063697423	-3.9256993335	 0.3392181649	-0.22919
O	-3.3290779829	-2.7590357239	 1.140258401	-0.289663
H	 0.9441986425	 1.6586757576	 0.4826753224	 0.286089
H	 0.4521456463	-0.1132530265	-0.9585924198	 0.082273
H	 0.6876951936	-0.6421878522	 0.7181228085	 0.08563
H	-1.7569462128	-0.4573411949	 1.1317292348	 0.125449
H	-1.9971497182	 0.1265766244	-0.511525465	 0.111647
H	-1.1869189871	-2.0729300732	-1.4198890461	 0.102533
H	-0.7913564793	-2.6111626853	 0.2074979972	 0.10425
H	-3.9381511439	-0.9202483992	-1.09880775	 0.098209
H	-3.787200761	-2.3300751928	-2.158425934	 0.113854
H	-5.2908500697	-2.4242410768	 0.1992649789	 0.291977
H	-3.9451440653	-4.5001742387	 0.0663519735	 0.128888
H	-2.1929077069	-4.5027263232	 0.6453667857	 0.112984
