17
gdb 54311	2.77609	1.39938	1.04242	1.5927	68.27	-0.2519	-0.0318	0.2201	1146.9294	0.132631	-458.9309	-458.921771	-458.920827	-458.965766	32.269	
C	-0.3533561991	 1.7830082214	 0.0051441677	-0.485043
C	-0.0127811525	 0.3764527994	-0.4354316837	 0.317559
O	 1.0311149614	 0.0892722433	-0.9778986752	-0.298115
C	-1.0564998078	-0.6985192796	-0.21658872	 0.269674
C	-1.6753527877	-0.8703755494	 1.1148795667	-0.221846
O	-2.3840676054	-0.2279425006	 0.063207576	-0.267698
C	-0.9509231038	-1.8774141135	-1.141025818	 0.011777
C	-0.1654591606	-3.0601907492	-0.7803672342	-0.161849
O	-1.5955097791	-3.0781244603	-0.7264491134	-0.236313
H	 0.5210492011	 2.4201993963	-0.1291642084	 0.142807
H	-1.1878050918	 2.1599630304	-0.5952959884	 0.160883
H	-0.6853383126	 1.8149085178	 1.0469878411	 0.142087
H	-2.0289331787	-1.8654333495	 1.3730643288	 0.149811
H	-1.3729271055	-0.231804208	 1.9431030254	 0.118639
H	-1.0704148945	-1.6391072498	-2.1973875428	 0.112561
H	 0.2824549648	-3.664866829	-1.5658912423	 0.126833
H	 0.3388317218	-3.0932964596	 0.1835252907	 0.118235
