19
gdb 100927	2.11846	1.08096	0.85293	3.8679	68.95	-0.2489	-0.0398	0.2091	1408.7545	0.155515	-497.282307	-497.271705	-497.270761	-497.318965	36.637	
C	 0.4658975858	 1.2783851168	-0.1979758631	-0.245592
O	 0.2757784045	-0.0956258954	 0.0855559659	-0.260577
C	-1.0700575265	-0.525984869	 0.0068221203	-0.011788
C	-1.5077946463	-0.6938655936	-1.4494405641	 0.145271
O	-2.6567183352	-0.7867031498	-1.7894348247	-0.241001
C	-1.1438041231	-1.8809244628	 0.7317535293	 0.092025
O	-0.1512242377	-2.7655475896	 0.2162792978	-0.454602
C	-0.9787729729	-1.7537304253	 2.2507000928	-0.07581
O	-0.9443307371	-3.0312913813	 2.8461732744	-0.423119
H	 1.5368257151	 1.4771558839	-0.1226892906	 0.140225
H	 0.1260450687	 1.541605815	-1.2097050477	 0.121115
H	-0.0699309606	 1.9105963578	 0.5242282759	 0.122503
H	-1.7537069924	 0.1856739246	 0.4946320183	 0.100126
H	-0.6631193852	-0.7510869859	-2.1722986441	 0.091671
H	-2.110171791	-2.3452057814	 0.5118529381	 0.119242
H	 0.6705946943	-2.2574108447	 0.1852637117	 0.296598
H	-0.0652649558	-1.1754644936	 2.4655293527	 0.089488
H	-1.8292683111	-1.2121187681	 2.6799341461	 0.106791
H	-0.3793952037	-3.566142098	 2.2729998511	 0.287434
