16
gdb 84679	2.89349	1.84168	1.32371	2.2798	68.44	-0.2557	-0.0032	0.2525	936.7917	0.127224	-437.9074	-437.900606	-437.899662	-437.938657	26.885	
O	 0.065459909	 1.453703915	 0.0586277361	-0.434318
C	 0.054784722	 0.0464167305	 0.0023802163	 0.097878
C	 0.7446101497	-0.6325133476	 1.1685789047	-0.093802
C	 0.0318163187	-1.6252496197	 1.6971393381	-0.098844
C	-1.3014112537	-1.7764134584	 1.0174558449	 0.040452
O	-2.4001909755	-1.5370046239	 1.9596256684	-0.224617
C	-2.8004864199	-0.2789140725	 1.6996773176	 0.118597
N	-2.3241958035	 0.3526504	 0.7049048217	-0.288432
C	-1.3780702429	-0.5695580774	 0.0460309282	-0.064118
H	-0.756165261	 1.7068231182	 0.5050051364	 0.291461
H	 0.5553139302	-0.2315140976	-0.9352928508	 0.090279
H	 1.732363384	-0.3210874697	 1.4896863545	 0.11249
H	 0.3293139229	-2.2645379883	 2.520198895	 0.110114
H	-1.4817976821	-2.7597835999	 0.5790851213	 0.102514
H	-3.5409937837	 0.1135677766	 2.3886513293	 0.147893
H	-1.750065694	-0.8092719354	-0.9535064817	 0.092453
