20
gdb 108111	3.40506	1.37966	1.34674	2.2293	76.9	-0.2407	0.0843	0.325	1047.4977	0.174522	-403.14633	-403.139027	-403.138083	-403.178128	29.836	
O	-0.0096460921	 1.3058941534	 0.4313764845	-0.420903
C	-0.0154397547	 0.0150178657	-0.1591798048	-0.171489
C	-1.4068676094	-0.5499230982	-0.2236834106	 0.329138
C	-2.5013610303	 0.0191482997	-1.1240161278	-0.279387
C	-3.6603844192	-0.8213112172	-0.5468066093	-0.061108
C	-3.0902045411	-2.2547002218	-0.6436909342	-0.237596
C	-1.7807357229	-1.9608184614	 0.0805333941	-0.088372
N	-2.0190181206	-0.8967436905	 1.0952586553	-0.1744
C	-3.4579401012	-0.5558111622	 0.9564764223	-0.155093
H	-0.4206905501	 1.1965710361	 1.2972592671	 0.289462
H	 0.3992371787	 0.1357757013	-1.1659918788	 0.105876
H	 0.6380099245	-0.6785812856	 0.3909527202	 0.089883
H	-2.633254403	 1.0965149822	-0.9890849264	 0.110406
H	-2.3112996956	-0.1818522366	-2.1834901868	 0.097649
H	-4.6541048897	-0.6537054174	-0.9588114598	 0.069494
H	-3.7066204667	-2.998391151	-0.1287209665	 0.102126
H	-2.9306676145	-2.585753772	-1.6746888372	 0.101956
H	-1.0602681843	-2.7292795638	 0.3348473033	 0.088396
H	-3.6243583875	 0.4867454045	 1.2439320965	 0.101743
H	-4.0598826303	-1.2015204952	 1.6033199391	 0.10222
