16
gdb 79418	3.16415	1.52094	1.23705	3.7853	72.08	-0.2498	-0.006	0.2438	1017.1616	0.122897	-437.744444	-437.736735	-437.735791	-437.77677	29.004	
C	 0.0524567095	 1.5411606144	 0.2931849162	-0.343172
N	-0.0567777029	 0.1652913688	-0.1326225523	-0.108365
C	-1.1702049993	-0.7887633637	-0.1649059871	-0.013868
C	-1.8481504853	-1.6075032773	-1.3433854564	-0.006442
C	-0.6171563435	-1.4532005384	-2.2122892699	-0.228618
C	-0.1787908402	-1.7721090419	-0.7453235742	 0.178681
O	-1.2205056213	-2.8515156861	-0.7218887324	-0.368917
C	 0.9540686168	-0.8162214734	-0.1724733235	 0.358022
O	 2.125929185	-0.7740497164	 0.033741767	-0.342614
H	 1.1140038424	 1.7669024051	 0.4231636187	 0.16099
H	-0.3672248235	 2.2245228303	-0.4523048626	 0.135273
H	-0.461554099	 1.7034114951	 1.2487284249	 0.133305
H	-1.5785015011	-1.0270060881	 0.8186258489	 0.108193
H	-2.9041834815	-1.7190664398	-1.5979847907	 0.103276
H	-0.4500407552	-2.2647825169	-2.9180751647	 0.122961
H	-0.3689939111	-0.4663915518	-2.603757972	 0.111292
