20
gdb 121504	3.44296	0.60173	0.53368	2.6557	86.39	-0.2523	0.0172	0.2696	2094.546	0.167424	-403.107115	-403.096379	-403.095435	-403.144795	37.16	
C	-0.4451515071	 0.9924542222	 0.3704119649	-0.380794
C	 0.2364545506	-0.326669975	 0.0002085484	-0.150944
C	 0.3712802806	-0.5162339034	-1.5150994743	-0.137696
N	 1.096528703	-1.7350785229	-1.823049188	-0.209586
C	 0.5065183322	-2.6079803707	-2.5054769075	 0.128796
O	 1.1360830836	-3.7631712248	-2.8301741322	-0.195502
C	 0.3591670576	-4.7025321891	-3.5744616355	-0.235121
C	-0.6793131431	-5.3537790564	-2.7803950192	 0.313997
C	-1.5366795234	-5.8805752154	-2.1243845146	-0.449656
H	 0.1201675402	 1.8518647372	-0.0072952385	 0.114823
H	-1.4559330934	 1.0527275517	-0.0488527833	 0.112047
H	-0.529997494	 1.1026867767	 1.4556505966	 0.114362
H	 1.2361862867	-0.3780958465	 0.4455495048	 0.111388
H	-0.3282101228	-1.172056158	 0.412011614	 0.097081
H	-0.6299551836	-0.4905330422	-1.982657341	 0.076403
H	 0.9370178418	 0.3296100876	-1.9287364164	 0.104008
H	-0.5195158647	-2.5231898733	-2.8948523639	 0.082871
H	-0.0871115201	-4.2170863962	-4.4536467687	 0.137524
H	 1.079130526	-5.4406096686	-3.9383245524	 0.155792
H	-2.2912532998	-6.3514600129	-1.543553693	 0.210205
