18
gdb 61781	2.08392	1.30611	0.84562	4.3434	75.14	-0.2662	0.0161	0.2823	1343.5248	0.146102	-435.26884	-435.258553	-435.257609	-435.305149	35.689	
C	-0.0032230492	 1.7948905602	 0.1113902347	-0.39609
C	-0.0464779769	 0.2841360439	-0.0664713706	 0.108114
O	 0.6112410908	-0.0403337384	-1.2880950508	-0.191422
C	 0.0113609594	-0.8988787017	-2.1458290588	 0.131949
N	 0.5698794587	-1.1762768503	-3.2397836352	-0.439597
C	 0.678911174	-0.462249025	 1.0845800075	-0.128815
N	 0.1032979434	-0.1031411505	 2.3803187581	-0.500421
C	 0.6590217021	-1.9196204414	 0.8340695922	 0.265249
N	 0.5861566347	-3.06482257	 0.6913336056	-0.324891
H	 1.0322934615	 2.1469503982	 0.0837008002	 0.134944
H	-0.5500659753	 2.2781118074	-0.7019123793	 0.129686
H	-0.4441069886	 2.0786981242	 1.0677447179	 0.143962
H	-1.0889757528	-0.0637771227	-0.1021009388	 0.09221
H	-0.9518141788	-1.2789526789	-1.7811323654	 0.09619
H	-0.0036856063	-1.8307202507	-3.7673127854	 0.234053
H	 1.7234802818	-0.1326656614	 1.0683784365	 0.146396
H	-0.8101982336	-0.535556617	 2.4888565942	 0.245576
H	 0.6825058551	-0.465787096	 3.1308579674	 0.252907
