17
gdb 82436	2.39782	1.82122	1.24003	4.0619	67.45	-0.2655	-0.0287	0.2368	1011.8649	0.136523	-458.972675	-458.964908	-458.963964	-459.005163	29.687	
O	 0.0816880501	 1.2916727535	 0.3703763828	-0.439168
C	-0.0254432024	-0.0665614558	 0.0504117728	 0.036493
C	-1.4740607038	-0.5114395275	-0.0023682386	 0.016759
O	-2.161602032	-0.192379229	-1.2157524459	-0.24506
C	-1.9060104234	-1.5723483446	-0.9293046217	 0.036864
C	-0.9565330008	-2.2682700655	-1.8864811707	-0.238067
C	 0.515402532	-1.7968180843	-1.7752050046	-0.310632
C	 0.6338882563	-0.3663980653	-1.2984392804	 0.36097
O	 1.2159319735	 0.5125655566	-1.8911510953	-0.325105
H	 0.5510316633	 1.6918950585	-0.3799162307	 0.295687
H	 0.4924611819	-0.6762106129	 0.8132809663	 0.089475
H	-2.0465142899	-0.3231369295	 0.9055474627	 0.107723
H	-2.801551514	-2.1373903095	-0.668929963	 0.100673
H	-1.0061106229	-3.3495441483	-1.7240242894	 0.114455
H	-1.3271515161	-2.0868881477	-2.9012157503	 0.137352
H	 1.0305546648	-2.4177172196	-1.0304900422	 0.128963
H	 1.0467008333	-1.9027969189	-2.7228638816	 0.13262
