22
gdb 118795	2.15051	1.06765	0.81132	1.7516	90.01	-0.2399	0.0386	0.2786	1520.6716	0.191764	-367.164886	-367.15438	-367.153435	-367.200492	38.954	
C	-0.0299678034	 1.5869761934	 0.1229032002	-0.381161
C	-0.0428435722	 0.0599216284	 0.2321390672	-0.167856
C	-1.324858164	-0.5602923073	-0.3403467263	-0.22899
C	-1.4010841018	-2.0679870393	-0.1658185266	 0.325152
C	-0.3917403488	-2.8850310239	-0.9494336309	-0.46754
N	-1.7375312164	-2.5003755531	 1.1985507029	-0.351973
C	-2.7290485632	-2.7184073788	 0.1118015791	-0.320567
C	-3.971568831	-2.0000937408	 0.1773811533	 0.384044
C	-5.0252025376	-1.4205841018	 0.1999824238	-0.436204
H	 0.8876260283	 2.0090973742	 0.5446028222	 0.109572
H	-0.0961530821	 1.9119068535	-0.9216860596	 0.111376
H	-0.8775504291	 2.0276023208	 0.6591826262	 0.118077
H	 0.8362444565	-0.3457751474	-0.2840738088	 0.090375
H	 0.0473516497	-0.2386285537	 1.2834113557	 0.11177
H	-2.1917283771	-0.1101903277	 0.1527699728	 0.116357
H	-1.4117575942	-0.3208228251	-1.4089822402	 0.09083
H	 0.6304126863	-2.6660640567	-0.6225845753	 0.12892
H	-0.5617555343	-3.9588770234	-0.8188463165	 0.112507
H	-0.4515299448	-2.6627043646	-2.0203350289	 0.127545
H	-1.2862329871	-3.3870050897	 1.4141284363	 0.228817
H	-2.8301849163	-3.7368939045	-0.2594284168	 0.103777
H	-5.9522934874	-0.9038929424	 0.2293926501	 0.195173
