21
gdb 81710	2.5797	1.55215	1.27442	0.6946	77.36	-0.2306	0.0766	0.3072	1080.2954	0.184888	-424.211357	-424.203489	-424.202545	-424.243117	32.236	
O	 0.0476267152	 1.3723815119	 0.0068389995	-0.446784
C	 0.0414319862	-0.0434189806	-0.0065359457	 0.104731
C	-1.4300490868	-0.5352645613	 0.0337231948	-0.00758
C	-1.4033261862	-0.5622347288	-1.5236900673	-0.268323
C	 0.1463134728	-0.631816066	-1.4548804256	 0.092334
O	 0.7365580716	-1.9136882722	-1.5321158811	-0.267549
C	-0.0066017311	-3.0276594516	-1.0560546779	-0.067508
C	-0.4687962383	-2.9263640587	 0.4017605923	-0.213302
C	-1.6065720931	-1.9199773853	 0.6724667724	-0.222555
H	 0.936892355	 1.6662383368	-0.2177530261	 0.282022
H	 0.7413559144	-0.4578076317	 0.7312574925	 0.060232
H	-2.12156288	 0.1815285655	 0.4830214973	 0.075418
H	-1.9373836986	-1.3616267738	-2.0416911496	 0.096563
H	-1.7144554936	 0.3968976693	-1.9410573442	 0.112417
H	 0.7016188057	-0.0085987014	-2.1630212102	 0.071316
H	-0.8682175705	-3.2291855596	-1.7107279454	 0.090777
H	 0.6800750744	-3.8731478541	-1.1624697137	 0.10603
H	-0.8003060289	-3.9230638094	 0.7178983364	 0.095452
H	 0.4054298617	-2.6856160927	 1.0179482942	 0.108968
H	-1.7131094102	-1.8064826663	 1.7579026859	 0.099746
H	-2.5547011099	-2.3420372601	 0.3138988114	 0.097593
