16
gdb 106998	2.97511	1.29465	0.999	4.665	65.63	-0.2271	-0.0255	0.2016	1154.2953	0.123226	-474.975299	-474.966613	-474.965669	-475.008928	31.626	
O	 0.3111261724	 0.0960840712	 1.1124975486	-0.425464
C	-0.1803728625	 0.4121605635	-0.1834850861	-0.218183
C	-1.4874024134	-0.2959769199	-0.3541775107	 0.22206
N	-2.4712671194	-0.384475149	 0.7817472405	-0.396491
C	-1.9707265339	-1.6231945228	 0.1658813254	-0.139288
C	-2.9125714119	-1.8372032162	-1.0345858989	 0.033826
O	-4.2752685878	-1.9653418617	-0.7738803162	-0.427792
C	-2.3340317633	-0.4759570813	-1.5944304263	 0.337912
O	-2.3890711162	 0.0857304108	-2.6489328256	-0.307735
H	 1.081388497	 0.6433264278	 1.2902054568	 0.300438
H	-0.3346600089	 1.4951501323	-0.3035061646	 0.118321
H	 0.5162796071	 0.0889759232	-0.9715419147	 0.115412
H	-1.9082782009	-0.2091775529	 1.6155572513	 0.255847
H	-1.4069506279	-2.3552859403	 0.728160668	 0.120643
H	-2.6116885192	-2.6598885087	-1.6910997634	 0.11317
H	-4.4812119711	-1.2857822258	-0.1172044643	 0.297324
