23
gdb 121373	3.23011	0.86506	0.75956	1.9277	81.66	-0.2577	0.0672	0.3249	1571.369	0.206043	-425.434637	-425.424464	-425.42352	-425.470658	37.108	
O	 0.0208188518	 1.4365009587	-0.2304031955	-0.421112
C	 0.0535380707	 0.0258664752	-0.0626972949	-0.080338
C	-1.3854927185	-0.4726125041	-0.0235302805	-0.189813
C	-1.496258694	-1.9952734211	 0.0724318194	 0.026774
C	-0.917245086	-2.6320532764	 1.3608695832	-0.204818
C	-1.6903384134	-3.9674889355	 1.5629885652	-0.202559
C	-2.7685987538	-3.9980642027	 0.4501035828	-0.235293
C	-2.9365105866	-2.5310722063	 0.033572639	 0.108792
O	-3.6909614207	-1.7964425172	 0.9959096856	-0.440911
H	 0.9257323164	 1.7610507911	-0.2167805528	 0.282689
H	 0.594477878	-0.4590149661	-0.8936156946	 0.076614
H	 0.5753072219	-0.2491654127	 0.8675277692	 0.085698
H	-1.9035896494	-0.0111840421	 0.822417605	 0.12179
H	-1.8900888266	-0.1193316929	-0.9313798774	 0.096868
H	-0.9847496462	-2.4391476249	-0.7940161251	 0.064005
H	 0.1627439257	-2.7870990758	 1.2890726652	 0.091009
H	-1.0891986279	-1.9616016979	 2.2084143324	 0.108795
H	-1.0324239464	-4.8385416938	 1.5017660136	 0.094458
H	-2.155004404	-3.9926773625	 2.5517370334	 0.104311
H	-2.4227487631	-4.5785851115	-0.4132329665	 0.095838
H	-3.7133737522	-4.4462161208	 0.7767855024	 0.082178
H	-3.3863611602	-2.4254122585	-0.9650882108	 0.053805
H	-4.5648798055	-2.1941477923	 1.0532708917	 0.28122
