24
gdb 36933	4.34581	0.80229	0.74789	0.9972	90.02	-0.229	0.0848	0.3138	1631.6093	0.219373	-368.398632	-368.389433	-368.388488	-368.433871	34.588	
C	-0.1316451696	 1.666876271	 0.217741601	-0.170739
C	-0.1193415429	 0.1432440759	 0.1343416488	 0.052208
C	 0.5105722584	-0.5721628125	 1.341061309	-0.187625
C	 0.0386753311	-2.0243883535	 1.1741656327	-0.204029
C	-1.4165342573	-1.9051749419	 0.6528603002	-0.202297
C	-1.5330783381	-0.4780535757	 0.0419188041	-0.219938
N	 1.2219840083	 2.2125681233	 0.2743645095	-0.058941
C	 1.846858785	 2.5181463325	-1.0086095236	-0.218801
C	 1.37243421	 3.6090463545	-0.113018207	-0.220295
H	-0.7024530021	 2.0832264882	-0.6345535853	 0.072037
H	-0.654295788	 1.977554068	 1.1324022835	 0.096446
H	 0.4489686468	-0.1435385912	-0.7622727362	 0.066873
H	 1.5965349982	-0.4628904866	 1.3812853959	 0.103131
H	 0.1068831444	-0.1449048215	 2.2695852581	 0.088182
H	 0.6650937727	-2.5280713112	 0.4282814725	 0.094153
H	 0.1106772923	-2.6093712976	 2.0955677247	 0.089827
H	-1.6468820514	-2.6846371671	-0.0788570365	 0.094714
H	-2.1318235776	-2.02806403	 1.4718434599	 0.097381
H	-2.2386334364	 0.126548594	 0.6245122509	 0.092808
H	-1.9088751141	-0.489730701	-0.9853941987	 0.093009
H	 2.9055102569	 2.2889585722	-1.09088944	 0.114499
H	 1.2688297903	 2.3350881481	-1.9138251823	 0.106526
H	 0.4802449993	 4.1514422026	-0.4238848437	 0.106178
H	 2.0775376038	 4.1916688293	 0.4732737126	 0.114692
