18
gdb 50674	2.13765	1.4385	1.04579	4.1426	75.88	-0.2593	-0.0351	0.2242	1182.0942	0.148369	-401.98805	-401.979289	-401.978345	-402.022833	31.127	
O	 0.2036803428	-0.208504567	-0.1183922702	-0.248921
C	 0.1012451038	 0.9864642474	-0.0174321883	 0.136364
C	 1.2764638006	 1.9380135983	 0.0518110338	-0.066004
C	 1.3046797936	 2.935001198	-1.1376304749	-0.234661
C	 1.9925156699	 4.2255019133	-0.6042862362	-0.211088
C	 2.3262962632	 3.9477079568	 0.8769690169	-0.216006
C	 1.3110181403	 2.8591438648	 1.3071396727	-0.184147
C	 0.0030229087	 3.4515808012	 1.605837025	 0.276865
N	-1.0220412647	 3.9352644817	 1.8343624192	-0.327603
H	-0.8945188698	 1.4825027325	 0.0115425121	 0.104258
H	 2.1866815135	 1.3323295785	 0.0674717107	 0.106006
H	 1.8243558894	 2.4964894063	-1.9919849603	 0.123418
H	 0.2832232336	 3.1550984386	-1.4656613927	 0.124249
H	 2.8905777755	 4.4763974701	-1.1733304555	 0.113977
H	 1.3131579188	 5.077524692	-0.6876466709	 0.127644
H	 3.3300171724	 3.5226328432	 0.9765034969	 0.115788
H	 2.2771114658	 4.8373808435	 1.5080730612	 0.125797
H	 1.6414087427	 2.3111408007	 2.1943556806	 0.134063
