17
gdb 16751	5.07839	1.53746	1.32689	2.4939	70.66	-0.2374	0.0286	0.2661	958.3545	0.142794	-363.863955	-363.856518	-363.855573	-363.896157	27.581	
C	-0.2094779383	 1.397568231	-0.2646652373	-0.329121
N	-0.1498049369	-0.0548669675	-0.2241034595	-0.31661
C	 0.7631932722	-0.6561311598	-0.8447255827	 0.414576
C	 0.9434176358	-2.1679481238	-0.8981097198	-0.328547
C	 2.0248778308	-2.3759861012	-1.9397853456	-0.070362
C	 1.7731799002	-1.8028900696	-3.3236783459	-0.314376
C	 2.5069294248	-0.9972856717	-2.291423022	 0.09894
O	 1.7506013031	-0.0371061293	-1.5841985407	-0.245153
H	 0.2294012087	 1.8115097068	 0.6519804958	 0.124055
H	 0.3135176821	 1.8399508972	-1.1205364643	 0.120613
H	-1.2584944065	 1.7092463009	-0.2852110057	 0.119279
H	 1.26599017	-2.5316484141	 0.0831755729	 0.132987
H	-0.0083586474	-2.6532478606	-1.127822115	 0.136126
H	 2.7140394939	-3.2039563677	-1.8321533531	 0.099472
H	 2.3510682289	-2.2139316323	-4.1442232682	 0.120793
H	 0.7669569795	-1.4900769893	-3.5855738378	 0.127756
H	 3.543768079	-0.7068630288	-2.402874591	 0.109572
