17
gdb 66981	2.59661	1.59438	1.19298	3.4025	71.85	-0.2343	-0.0282	0.2061	1051.9394	0.134441	-421.764536	-421.756611	-421.755667	-421.797449	29.832	
C	 0.0429221336	 1.4912053124	 0.02712865	-0.507971
C	 0.0436016283	-0.0056609812	-0.0373015513	 0.264336
C	-0.9418999816	-0.908745655	 0.7293718156	 0.049496
O	-1.0552390951	-2.151185284	 0.0343498178	-0.289259
C	 0.3832993241	-2.0637149266	-0.1677753922	 0.034454
C	 0.5194912992	-1.0253597201	 1.001478887	-0.195833
C	 0.5496252069	-0.8982097909	-1.1928406038	-0.135127
C	-0.2318836137	-0.953463871	-2.480608856	 0.135172
O	 0.1993484777	-0.5787328353	-3.5443678219	-0.256365
H	 1.0431182086	 1.8994324403	-0.1541191456	 0.130665
H	-0.6341767524	 1.9201505917	-0.7196882875	 0.135475
H	-0.2845794862	 1.8404554572	 1.0124729152	 0.124526
H	-1.7765564717	-0.552093388	 1.3184937642	 0.115872
H	 0.8698244829	-3.0285570437	-0.2887439855	 0.098479
H	 1.1345504558	-0.9498975146	 1.8872658203	 0.107633
H	 1.6024721954	-0.6894799197	-1.4010447816	 0.094099
H	-1.2592473218	-1.3618448916	-2.3811855848	 0.094347
