17
gdb 68128	3.95753	1.29385	1.14562	1.8234	79.76	-0.2386	-0.005	0.2336	1098.7443	0.133787	-384.612892	-384.604885	-384.60394	-384.644873	32.141	
C	 0.0819200045	 1.5290254712	 0.1148147664	-0.512178
C	 0.0127341166	 0.0358495278	-0.0253830015	 0.349725
C	 0.5936946587	-0.7745871874	-1.2272313946	-0.291703
C	 0.6100061896	-1.8307272955	-0.0713290097	 0.314478
O	 0.9387308298	-0.7205102019	 0.8385276036	-0.342889
C	-0.9097814944	-1.996414982	 0.1957339043	-0.133705
C	-1.3100898671	-0.7276444057	 0.2270564083	-0.124711
C	 1.4804690864	-2.9752849641	-0.0359125316	 0.041346
C	 2.1949900919	-3.9413988615	-0.0291745729	-0.328338
H	 1.0950873433	 1.8904121596	-0.0789288524	 0.132306
H	-0.6010902046	 2.0104690258	-0.5924907567	 0.124678
H	-0.2043838388	 1.8314199468	 1.1269898728	 0.135987
H	-0.0391843617	-0.9684307877	-2.0949569847	 0.100972
H	 1.600031045	-0.4530596975	-1.5052239626	 0.113004
H	-1.4395163698	-2.9297164393	 0.3109564282	 0.121279
H	-2.2893533294	-0.2966211695	 0.3777411138	 0.113821
H	 2.8309625901	-4.7919209292	-0.0156232807	 0.185929
