17
gdb 64687	4.85633	0.8605	0.81803	3.8123	80.36	-0.2603	0.0076	0.268	1389.0761	0.133822	-380.827592	-380.818166	-380.817222	-380.862046	34.35	
C	-0.1061592439	 1.7010335573	 0.1248973063	-0.452213
C	-0.0831668279	 0.190111478	 0.0758700963	 0.31984
C	-1.36646463	-0.46348189	-0.4408133458	-0.415463
C	-1.6356801538	-0.1454811823	-1.8450088651	 0.274647
N	-1.8380298902	 0.1072215429	-2.9540818376	-0.304299
N	 1.199767957	-0.4104273225	-0.2908386543	-0.33607
C	 0.6892508526	-0.6049466002	 1.0907194212	-0.3239
C	 1.4155825379	 0.0020391218	 2.1710901664	 0.373747
C	 1.9989783095	 0.4971498659	 3.0981566577	-0.416344
H	 0.8418133306	 2.0795289619	 0.508389463	 0.149743
H	-0.2647677	 2.1113884901	-0.8773459956	 0.145161
H	-0.9130522496	 2.0571925524	 0.7743363745	 0.121153
H	-1.3104394656	-1.5532269487	-0.3383582971	 0.148712
H	-2.2229089501	-0.1325258627	 0.1586261698	 0.16233
H	 1.0738937909	-1.2654273412	-0.8285351646	 0.239692
H	 0.2791548573	-1.5852275952	 1.3285077083	 0.110211
H	 2.5240850255	 0.9362592126	 3.9102849369	 0.203054
