19
gdb 36302	3.75314	1.01253	0.97063	2.0659	80.81	-0.2404	0.0599	0.3003	1289.7344	0.159408	-385.839217	-385.830806	-385.829862	-385.872846	32.009	
C	 0.0316795297	-1.1891086784	 0.1958164394	-0.445115
C	-0.008509188	 0.0024526016	 0.0442383296	 0.300305
C	-0.0346210925	 1.4484888401	-0.1518079205	-0.378192
C	 1.3578778759	 2.0607612956	-0.0924949632	-0.038447
C	 1.6068967198	 3.5624572709	-0.1118228677	-0.115205
C	 0.4556046402	 4.5150775384	 0.2154651369	-0.255926
C	 0.3467146049	 4.3978789927	 1.7508273973	-0.062674
O	 0.8744116458	 3.1110090173	 2.0927565853	-0.256404
C	 1.8526246773	 2.7680699355	 1.1442246315	 0.082588
H	 0.0564170148	-2.2407996797	 0.3379446038	 0.19214
H	-0.5053222021	 1.6736183556	-1.1180251094	 0.127113
H	-0.6632235601	 1.9026948968	 0.6216373732	 0.142219
H	 2.1113359839	 1.4822766715	-0.6199105913	 0.097162
H	 2.4263750776	 3.9294564127	-0.7181767597	 0.092266
H	 0.6874188194	 5.5367946646	-0.0959856842	 0.10583
H	-0.4791931916	 4.2291234012	-0.277623688	 0.110169
H	 0.9365358495	 5.1859292891	 2.2426162293	 0.097593
H	-0.6782969179	 4.4469508484	 2.129047102	 0.10982
H	 2.8361400436	 2.5698309761	 1.5590390456	 0.094758
