14
gdb 127187	4.38265	1.08873	0.87695	3.2276	66.23	-0.2631	-0.06	0.2031	1213.4565	0.100771	-469.980394	-469.97244	-469.971495	-470.014102	27.701	
C	 0.0325199438	 1.4666488794	-0.0117331469	-0.366079
N	-0.0015993796	 0.0072750149	-0.0118930318	-0.196601
C	-0.0450272204	-0.6773858446	 1.1974017381	 0.157759
O	-0.0569649648	-0.1305556105	 2.2729634807	-0.316005
C	 0.0102197964	-0.6691266866	-1.2194996558	 0.454691
N	-0.0186033179	-1.9755040285	-1.3354673702	-0.182723
O	 0.0071147703	-2.21870951	-2.6866687495	-0.145946
N	 0.0515215339	-1.0671307156	-3.4027378892	-0.055074
C	 0.0544737277	-0.100162506	-2.5294933403	-0.117488
H	 0.9456282662	 1.8351539416	-0.4898216442	 0.1428
H	-0.8387608368	 1.8767845965	-0.5320816752	 0.142806
H	 0.0153202937	 1.7845298337	 1.0295261497	 0.184429
H	-0.0672140291	-1.7676998087	 1.0556196346	 0.142079
H	 0.0865680066	 0.9313634145	-2.8393761801	 0.155352
