19
gdb 98252	3.12255	1.15984	0.85918	1.2395	76.43	-0.2454	0.0079	0.2533	1345.1935	0.15803	-456.391093	-456.380767	-456.379823	-456.427928	35.615	
C	 0.0292387598	 1.2448928662	 0.6502723119	-0.234327
O	-0.135056773	 0.0146191842	-0.0615767541	-0.253087
C	-1.1537856153	-0.7580148702	 0.3814369602	 0.537014
O	-1.8630485526	-0.4280355335	 1.3050818835	-0.413559
N	-1.2540276579	-1.9296946505	-0.3514843958	-0.20844
C	-0.3313663893	-2.2247204694	-1.4585867596	-0.327236
C	-2.2326502506	-2.9180677951	-0.0993172822	 0.360186
C	-3.2328486468	-2.7194190051	 1.014846871	-0.440817
N	-2.1951216922	-3.9425826027	-0.8616593092	-0.507295
H	 0.8765531444	 1.7422776876	 0.1777952622	 0.133194
H	-0.8690614468	 1.8618209142	 0.5717964361	 0.14206
H	 0.2358919883	 1.0576026006	 1.7066515948	 0.142032
H	 0.1958835267	-3.1592120673	-1.2570242593	 0.144258
H	-0.8983939072	-2.3627333319	-2.3812852531	 0.144258
H	 0.3725448764	-1.4076421271	-1.5648147012	 0.149515
H	-2.7427680191	-2.6059936961	 1.9830968886	 0.153736
H	-3.8275706954	-1.8164217932	 0.8683537546	 0.153742
H	-3.8924810352	-3.5900830618	 1.0400028487	 0.106689
H	-2.9337662843	-4.5929449788	-0.6034123271	 0.218076
