20
gdb 10924	3.15058	1.89194	1.47428	1.7728	74.6	-0.2424	0.0883	0.3307	955.8703	0.175284	-348.984158	-348.975483	-348.974539	-349.016636	32.802	
C	-0.3924498257	 1.5644948172	 0.3061753854	-0.404822
C	-0.1521561603	 0.0639470255	 0.2133439407	-0.015569
C	 0.3055142154	-0.4891037037	-1.1446479265	-0.056307
O	 1.5968615894	 0.0782985627	-1.4209892611	-0.293995
C	 1.5250312157	-1.0817869677	-0.5712631731	 0.421267
C	 2.3413101705	-2.2763362258	-0.9450776495	-0.504849
C	 1.1659886841	-0.5652909557	 0.8389059747	-0.063917
C	 2.1826809846	 0.332899657	 1.530914961	-0.410294
H	 0.4358009135	 2.1186268277	-0.1422839956	 0.133366
H	-1.3109702449	 1.8431106524	-0.2223845519	 0.110711
H	-0.4997718598	 1.8885450954	 1.3467244085	 0.112036
H	-1.0266814571	-0.4859835452	 0.5767963097	 0.070657
H	-0.2910007313	-0.7865493648	-2.0013732747	 0.092371
H	 2.2758707507	-2.463425266	-2.0203098869	 0.132752
H	 3.3967181773	-2.1241095397	-0.6913036247	 0.129647
H	 1.9938244609	-3.1667697644	-0.4108476683	 0.12187
H	 0.8934701102	-1.4021782832	 1.4912154433	 0.069089
H	 2.5361599328	 1.1149990915	 0.8541740199	 0.132897
H	 1.7528453088	 0.8134989917	 2.4160075476	 0.112696
H	 3.0520362753	-0.2463106248	 1.8618590116	 0.110393
