23
gdb 73398	2.50631	1.9193	1.45698	0.0598	88.18	-0.2673	0.0853	0.3525	1024.7464	0.209587	-351.172018	-351.164546	-351.163602	-351.203222	31.829	
C	 0.0272343037	 1.5574835005	-0.065419558	-0.504445
C	 0.0314131775	 0.0459112647	 0.0099070921	 0.365994
C	 0.4956848991	-0.6986894341	-1.2536839805	-0.266724
C	 0.3556550209	-2.1715603359	-0.7746874139	-0.24216
C	-0.1539681038	-1.9122978856	 0.6444650413	-0.008968
C	 0.718035187	-0.7371460377	 1.1884225541	-0.044725
C	-0.0037470703	-0.275660381	 2.4594096467	-0.235914
C	-1.4747736009	-0.30579642	 1.9366709019	-0.235915
C	-1.2157183244	-0.7767640144	 0.5012552015	-0.044729
H	 1.0324265121	 1.9403996725	-0.2784134604	 0.11304
H	-0.6310522219	 1.9063242279	-0.8700126304	 0.113037
H	-0.3128318043	 2.0246861255	 0.8638834629	 0.114263
H	-0.1385643774	-0.4692264748	-2.1167888486	 0.089695
H	 1.5233773152	-0.4351739152	-1.5262320905	 0.089694
H	-0.3564252921	-2.7468374785	-1.3746575913	 0.091942
H	 1.3069755597	-2.7127424937	-0.7835445539	 0.091942
H	-0.3615801893	-2.7779862782	 1.2786113416	 0.049456
H	 1.8073225718	-0.8275360926	 1.2270516582	 0.046739
H	 0.1598615006	-0.9603248385	 3.297234657	 0.092334
H	 0.3107404527	 0.7203939237	 2.786039292	 0.093184
H	-2.1051799871	-1.0067299934	 2.4923362886	 0.092334
H	-1.9607949347	 0.6738562894	 1.9788432526	 0.093185
H	-2.0811016742	-0.9072018104	-0.1547219732	 0.04674
