20
gdb 120153	2.88158	1.00842	0.89954	1.3076	75.06	-0.2314	0.0582	0.2896	1365.0265	0.170571	-440.219383	-440.21014	-440.209196	-440.253806	34.361	
O	-0.3555673554	 1.492366382	-1.0589878034	-0.422008
C	-0.4282392462	 0.0772257002	-1.1444094351	-0.064453
C	-1.4638590139	-0.3965540187	-0.128846456	-0.225753
C	-1.5524427319	-1.906821224	-0.0810070719	 0.008516
C	-2.7353055075	-2.7252998353	 0.2636068901	-0.076493
C	-4.0465141692	-2.1691834856	-0.2639303035	 0.10317
O	-4.505975401	-1.0062087735	 0.3914255208	-0.423806
C	-3.3608628465	-2.0798427645	-1.6566310077	-0.213403
N	-2.1218285102	-2.7675108435	-1.1435140899	-0.156696
H	 0.2948969372	 1.7981835135	-1.6976192641	 0.284974
H	-0.7192133742	-0.2495320621	-2.1556840059	 0.09327
H	 0.5473848464	-0.3877603433	-0.9259720793	 0.083766
H	-1.1662767267	-0.038447817	 0.8638645304	 0.110682
H	-2.4290372882	 0.0655871366	-0.3388187392	 0.128786
H	-0.6263210944	-2.3663928643	 0.2657674691	 0.094182
H	-2.6633462233	-3.5710015947	 0.9407026942	 0.091172
H	-4.8215826784	-2.9459448204	-0.2650550733	 0.083236
H	-5.3757030346	-0.7850948705	 0.0431203543	 0.285686
H	-3.8316015487	-2.6979586846	-2.4239788154	 0.106348
H	-3.1970535033	-1.0745739004	-2.0540384942	 0.108825
