17
gdb 41009	3.13842	1.96842	1.47936	1.6966	71.29	-0.2339	0.0589	0.2928	889.5331	0.137212	-421.712665	-421.706486	-421.705541	-421.742891	26.383	
C	-0.065745477	 1.4920003805	 0.2147419492	-0.273318
C	 1.4928883473	 1.566267916	-0.0446936809	-0.369344
C	 1.2876333495	 0.2759428709	-0.8587377476	 0.35138
C	 0.0648838265	-0.0441893584	-0.050221097	 0.104867
O	-0.6996140023	-0.9007314871	-0.9139061081	-0.287266
C	 0.2123181411	-1.0609066885	-1.9822026776	 0.08949
C	 0.8121375153	 0.2972370984	-2.36603362	-0.012532
O	 2.0566388223	-0.3164364731	-2.826302104	-0.312975
C	 1.777556823	-1.0055906082	-1.5700715076	-0.133385
H	-0.4333098119	 1.8041468285	 1.1935092942	 0.106899
H	-0.6260271951	 2.004010875	-0.5705195087	 0.119567
H	 1.886785468	 2.4361704682	-0.5712164823	 0.119831
H	 2.0580273962	 1.4146695826	 0.8786305016	 0.116777
H	 0.2569845208	-0.5724397563	 0.8909970728	 0.086526
H	-0.1290722402	-1.7746379179	-2.7286713171	 0.106639
H	 0.389683311	 1.1138966223	-2.9516569239	 0.09447
H	 2.4590607054	-1.793056853	-1.2491292132	 0.092374
