16
gdb 19092	3.76969	2.57203	2.45296	0.	62.07	-0.2222	0.0545	0.2767	663.2557	0.133906	-383.670805	-383.665665	-383.664721	-383.699686	22.534	
C	-0.0477911127	 1.5770896979	-0.071528969	-0.20645
C	 1.4819457172	 1.3447539822	 0.0019532658	 0.054644
O	 1.2086255647	 0.1737687987	 0.8361043746	-0.288926
C	 0.0098112156	 0.0312286202	 0.0089145179	 0.054644
C	 0.4876127374	-0.5117081206	-1.3947754925	 0.054644
C	 2.0173498709	-0.7440454124	-1.3212935832	-0.20645
C	 1.9597496526	 0.8018148953	-1.401736636	 0.054644
O	 0.7609348153	 0.659275217	-2.2289273132	-0.288926
H	-0.4197237101	 1.9988800748	 0.8623628587	 0.105055
H	-0.480680555	 2.0576251459	-0.9446234666	 0.121176
H	 2.1606662837	 2.0550578645	 0.4773738506	 0.079929
H	-0.7704208837	-0.5602284687	 0.4912361972	 0.079929
H	-0.1911073254	-1.2220115289	-1.8701975143	 0.079929
H	 2.4502388066	-1.2245792633	-0.4481980153	 0.121176
H	 2.3892804201	-1.1658391875	-2.2551845519	 0.105055
H	 2.7399823213	 1.3932731925	-1.8840559529	 0.079929
