14
gdb 131414	5.87059	1.00386	0.91319	2.3017	65.28	-0.2558	-0.0302	0.2256	1216.4463	0.102579	-469.979514	-469.972199	-469.971255	-470.011915	26.892	
O	 0.3168376752	 1.2599764872	-0.1299816543	-0.397941
C	 0.0850943585	-0.0487583928	-0.070356368	 0.435911
N	-0.3469120316	-0.7164411668	-1.1100833258	-0.198572
O	-0.4452653174	-2.0279515931	-0.5880721793	-0.22426
C	-0.0617892166	-1.9711265801	 0.6921004802	 0.462461
N	 0.2851803831	-0.7767543553	 1.0767589047	-0.407804
C	-0.0648132936	-3.2058413299	 1.4829933499	-0.116999
C	-1.1725138487	-4.1939994147	 1.2919298165	-0.22825
N	 0.1743826819	-4.502903815	 0.8217009804	-0.308726
H	 0.6282657853	 1.5337681864	 0.741560947	 0.321644
H	 0.3923185426	-3.089663576	 2.4590739788	 0.12826
H	-1.5067387882	-4.7672485472	 2.1514822093	 0.137276
H	-1.9413452852	-3.9470737847	 0.5659609634	 0.141386
H	 0.2322028546	-4.3624750678	-0.1848829329	 0.255613
