16
gdb 3555	5.05814	2.9732	2.64265	0.7476	63.57	-0.2047	0.0933	0.2979	600.1997	0.138147	-288.563768	-288.558038	-288.557094	-288.592862	23.084	
C	-0.042640099	 1.5280733246	 0.0236320828	-0.328411
N	 0.0947917333	 0.0791293458	-0.0163435063	-0.074528
C	 0.7865482655	-0.5429644848	-1.1385329704	-0.011783
C	 2.3121287473	-0.5948615499	-0.840069034	-0.086688
C	 2.4926209249	 0.0193372627	 0.5456059014	-0.245738
C	 1.0918795223	-0.5928597866	 0.8668622403	-0.018669
C	 1.3481872889	-1.6336207507	-0.2919353259	-0.102091
H	 0.8807942626	 2.0891967619	-0.1889132813	 0.100665
H	-0.7944149213	 1.8305887022	-0.7134517743	 0.118353
H	-0.4080264307	 1.8259736274	 1.0123994409	 0.116785
H	 0.3823175854	-0.5763309876	-2.1432253667	 0.091114
H	 3.0468728841	-0.7202292506	-1.6254474312	 0.082593
H	 3.2697807419	-0.5063308862	 1.1067084045	 0.101508
H	 2.6318815087	 1.1000624861	 0.6552624668	 0.089582
H	 0.780162425	-0.7932278934	 1.8912087809	 0.073101
H	 1.2967435612	-2.7101910211	-0.3538644375	 0.094207
