14
gdb 14587	7.07641	0.67028	0.65147	2.1728	72.46	-0.2515	-0.0309	0.2206	1642.0555	0.103171	-345.345443	-345.336329	-345.335385	-345.381885	30.346	
O	-0.6848985444	 0.7689083571	 0.7121944258	-0.229098
C	-0.0141247281	 1.6777658814	 0.3063013759	 0.169906
C	 1.2905851542	 1.4861534914	-0.4718273032	-0.413357
C	 1.4565486853	 2.4746337192	-1.526912265	 0.047185
C	 1.5451899369	 3.3125150798	-2.3853085954	 0.098465
C	 1.6710815149	 4.3199564327	-3.4405998972	-0.489853
C	 2.3875597913	 5.5249095033	-3.0180383075	 0.315468
C	 2.972717254	 6.5176313242	-2.6820332904	-0.441788
H	-0.2886090178	 2.740353478	 0.4822265083	 0.096401
H	 2.1089482285	 1.5752912775	 0.2593295206	 0.158625
H	 1.3149201347	 0.4596557905	-0.8517319608	 0.155649
H	 2.183175555	 3.8775518727	-4.3062514768	 0.165118
H	 0.671739145	 4.5995604508	-3.8016606406	 0.164289
H	 3.4911800205	 7.3944277614	-2.3820162937	 0.20299
