17
gdb 13925	3.41989	1.92547	1.54621	3.4403	68.84	-0.2417	0.0365	0.2782	870.5052	0.14332	-363.87468	-363.867211	-363.866267	-363.906673	27.698	
O	 0.0949809896	-0.0030640519	-0.0467680691	-0.371559
C	 0.0424873428	 1.1991057787	-0.028098174	 0.400179
N	-0.9976599646	 2.0960891453	-0.0315405913	-0.338742
C	-0.159038075	 3.2990969764	 0.0026055333	-0.249357
C	 1.0724173481	 2.3531768703	 0.0085606773	 0.191457
C	 2.1579799325	 2.3005322478	 1.1123355008	-0.277172
C	 3.1575231008	 1.7966146813	 0.0357371109	-0.202461
C	 2.1957010328	 2.3358410891	-1.0579908957	-0.277187
H	-1.9979989046	 1.9651268727	-0.0507470904	 0.249296
H	-0.2497651532	 3.9358187876	-0.8842831224	 0.11073
H	-0.2808667707	 3.9067028755	 0.9060368212	 0.110729
H	 2.4100348503	 3.3039061225	 1.4695290595	 0.10123
H	 1.9622325664	 1.654823703	 1.9714230604	 0.113294
H	 4.1723296426	 2.1985303744	 0.059912485	 0.096819
H	 3.2033938332	 0.7057365538	 0.0187705466	 0.128212
H	 2.0303052527	 1.7184667836	-1.9438678304	 0.1133
H	 2.4594433565	 3.3501430001	-1.3734332117	 0.101231
