17
gdb 84777	2.34076	1.52819	1.25301	0.9317	75.16	-0.2518	0.0049	0.2566	1066.367	0.134475	-421.794142	-421.785369	-421.784425	-421.827472	33.616	
O	 0.2132802974	 1.0142213951	-0.6779372365	-0.434666
C	 0.1098356856	-0.2035974694	 0.0388102614	 0.050829
C	 0.5544030703	-0.1171676779	 1.4753872352	-0.121994
C	-0.342009263	-0.6214886378	 2.319160845	-0.067587
C	-1.5611243186	-1.1673383079	 1.6237142595	-0.285601
C	-1.3979394093	-0.7017326347	 0.1503977598	 0.155131
O	-2.2664578179	 0.4159092409	-0.0202598317	-0.450374
C	-1.6996390034	-1.7467659551	-0.8284702093	 0.298402
C	-1.9291065516	-2.5883796075	-1.6562252784	-0.480571
H	-0.2332740728	 1.6807341183	-0.1411635494	 0.282051
H	 0.7035315819	-0.9219839786	-0.5350750959	 0.108286
H	 1.5134536079	 0.3125944106	 1.7416438089	 0.10485
H	-0.2239002052	-0.6777963314	 3.3959231881	 0.102516
H	-1.6051496478	-2.2599040701	 1.6888197086	 0.124728
H	-2.5027540197	-0.7810904624	 2.0267808271	 0.131129
H	-2.0918336461	 0.7583647116	-0.9062466357	 0.284545
H	-2.1389412276	-3.3350322833	-2.3819036164	 0.198327
