14
gdb 19677	4.92653	1.80967	1.68549	5.5759	64.51	-0.234	0.0239	0.2579	776.455	0.109568	-341.5178	-341.51186	-341.510916	-341.547846	23.338	
N	 0.0393398181	-1.186141191	-0.0896624095	-0.332562
C	 0.0557364195	-0.0333374393	-0.0093159791	 0.284921
C	 0.0321984108	 1.4237766778	 0.066292752	-0.133485
C	-0.151870957	 2.1366554701	 1.4101983901	-0.078436
C	 1.2475291231	 2.2923154547	 2.0084301989	-0.015864
N	 2.1675633253	 1.5697688725	 1.1021496657	-0.310584
C	 1.3816706395	 2.2030466169	-0.0079591702	-0.053657
C	 0.7630228114	 3.2749830099	 0.9821896949	-0.125716
H	-0.6766900942	 1.8163671169	-0.6673565584	 0.1244
H	-1.0490448414	 2.1830022704	 2.0122502646	 0.109301
H	 1.4124881981	 2.3931970217	 3.0728265488	 0.108562
H	 3.0681758378	 2.045516571	 1.1430550091	 0.22379
H	 1.8832628617	 2.3640668694	-0.9586785303	 0.094715
H	 0.6108261671	 4.3451467288	 0.9532647333	 0.104615
