19
gdb 32591	2.88638	1.22463	0.92886	2.2336	78.92	-0.1932	0.0552	0.2485	1308.1858	0.159496	-419.263835	-419.254444	-419.2535	-419.298553	34.234	
C	 0.0519439891	 1.6091664872	 0.0440622773	-0.374523
C	-0.0135119572	 0.0809206287	-0.0084311274	-0.158454
N	 0.6776315783	-0.4805286008	-1.1583308831	-0.044988
C	 2.0247154298	-0.8349026247	-1.2582655142	-0.221934
C	 2.2155563243	-1.2574917514	-2.5424393389	 0.273879
C	 3.4651824605	-1.7624637084	-3.183918938	-0.485132
N	 1.023665153	-1.168286151	-3.2539054314	-0.425188
C	 0.1605573374	-0.7025783209	-2.3917873469	 0.429569
O	-1.1411308697	-0.4399201049	-2.6228077024	-0.434264
H	 1.0888905415	 1.9552897276	 0.0834104928	 0.128387
H	-0.4225340558	 2.0442458579	-0.8398266014	 0.137909
H	-0.4692843254	 1.9799286104	 0.9321698498	 0.119453
H	 0.4312260295	-0.3552599366	 0.8913509917	 0.119147
H	-1.0537639242	-0.2525904072	-0.0522721361	 0.135844
H	 2.6857325615	-0.7614496195	-0.4104507288	 0.116924
H	 3.3337042372	-2.7838010892	-3.558659106	 0.128467
H	 3.7494411969	-1.1416457873	-4.0410725975	 0.128317
H	 4.2965590609	-1.7642734625	-2.4735644634	 0.114136
H	-1.3016820175	-0.6893785574	-3.5413806559	 0.31245
