19
gdb 71891	2.33567	1.8449	1.60436	1.2697	74.58	-0.2399	0.0676	0.3075	957.4552	0.158587	-422.983916	-422.97586	-422.974916	-423.015894	31.958	
C	 0.0174366156	 1.5672222274	 0.0581443384	-0.535047
C	 0.0108904876	 0.0687469218	 0.0133941679	 0.277155
C	 0.5772794577	-0.8778347225	-1.0890088866	 0.055595
C	 1.4944767368	-1.5609696324	-0.0451659672	-0.311087
C	 0.6485519313	-0.9074016025	 1.0813506695	 0.342656
O	 1.2987057262	-0.3903481298	 2.2044441418	-0.48094
C	-0.7349322998	-1.5903964557	 1.2589575103	-0.310831
C	-1.2087897166	-0.9014014294	-0.0441571849	 0.055512
O	-0.6885479057	-1.5603878198	-1.2190747087	-0.307075
H	 1.0416427768	 1.9551878092	 0.0690335637	 0.128089
H	-0.4975283312	 1.9916463592	-0.8107587451	 0.123142
H	-0.480653868	 1.9352161442	 0.9615365295	 0.128147
H	 0.988775032	-0.5832060051	-2.0567148391	 0.077697
H	 1.5783925853	-2.650644296	-0.0876338629	 0.095964
H	 2.4893242232	-1.1033261304	-0.0581685549	 0.104551
H	 1.6274109483	-1.1264181868	 2.733071844	 0.278239
H	-0.7918163197	-2.6819144601	 1.2988345872	 0.095883
H	-1.2423653362	-1.1524947874	 2.1250071861	 0.104651
H	-2.2595506436	-0.6260084339	-0.1565693289	 0.077698
