16
gdb 11657	3.11537	1.88831	1.51969	2.6413	66.33	-0.2454	-0.0303	0.2151	869.2381	0.130057	-383.692429	-383.685146	-383.684202	-383.724158	27.479	
O	 0.1635065667	 1.3792315361	-0.2060640884	-0.437366
C	 0.029763941	 0.0064617571	-0.0418645145	 0.15614
C	-0.0085110601	-0.6693901328	 1.3627587723	-0.099249
C	-1.4676869994	-0.1421697537	 1.5281592365	-0.289868
C	-1.39875081	-0.6789048957	 0.0711543305	 0.208298
C	-0.615493466	-1.9045659503	 0.6372436797	-0.264685
C	-2.4697306312	-0.6727224301	-0.9570287727	 0.025332
O	-3.5274549224	-0.1043457472	-0.8317209563	-0.249136
H	-0.3900067696	 1.8404817159	 0.4329784027	 0.290762
H	 0.70276878	-0.4543152956	-0.7692338769	 0.0926
H	 0.7809318852	-0.6737409169	 2.114651575	 0.083665
H	-2.1123877495	-0.6995644142	 2.2110129914	 0.109191
H	-1.6204444083	 0.9310678301	 1.6702372372	 0.090899
H	 0.0352008746	-2.4446804876	-0.05566932	 0.102383
H	-1.2016143105	-2.584938838	 1.2575084408	 0.110358
H	-2.2199316303	-1.2269609472	-1.8915141575	 0.070677
