15
gdb 14894	3.42602	1.85976	1.65332	2.0788	66.33	-0.2499	0.0183	0.2682	833.4104	0.119856	-362.637088	-362.630024	-362.62908	-362.668423	26.604	
C	-0.1024041805	-1.2529620011	-0.1534757373	-0.478731
C	-0.0410406828	-0.056028252	-0.0706074076	 0.361048
C	 0.0083430946	 1.4019508618	 0.040274604	-0.059839
C	-0.6913268567	 1.9214431755	 1.3050626723	-0.245109
C	 0.1299981492	 1.5131615456	 2.5298214221	-0.15623
N	 1.552065725	 1.8096370408	 2.3805723297	-0.261452
C	 2.0083551308	 1.9562427061	 1.2131315122	 0.135544
O	 1.3780379544	 1.8578571411	 0.0099718983	-0.227742
H	-0.1499730332	-2.3112051485	-0.2341968654	 0.208308
H	-0.4444091681	 1.842533525	-0.8535501833	 0.123665
H	-0.7461306061	 3.0131818269	 1.2360596902	 0.116529
H	-1.7124785755	 1.5332279596	 1.3501289988	 0.117366
H	-0.2333557917	 2.03044105	 3.4237289186	 0.113284
H	 0.0159880311	 0.4390281458	 2.7231558105	 0.126786
H	 3.0535509095	 2.2110593335	 1.0473741069	 0.126574
