18
gdb 32756	3.13915	1.10128	0.85778	3.0408	75.72	-0.1799	0.0509	0.2307	1356.5381	0.14694	-439.103833	-439.094505	-439.093561	-439.138643	34.045	
C	-0.0330230581	 1.5060138522	 0.214740218	-0.386283
C	 0.545424686	 0.1050690005	 0.1578060719	-0.058597
O	-0.0141571862	-0.6531501176	 1.2482736868	-0.28849
C	 0.4530570177	-1.9241921663	 1.361883316	 0.206525
C	 1.4563769331	-2.4175536609	 2.1628577965	 0.250947
O	 2.2551976653	-1.7033325296	 3.0107905507	-0.459876
C	 1.5272984163	-3.821029504	 1.9515660067	-0.234914
C	 0.5591806504	-4.1402499428	 1.025359276	-0.085411
N	-0.0870823332	-2.9864175655	 0.660735865	-0.299549
H	 0.2194211277	 1.9902056922	 1.1624724642	 0.127213
H	 0.3674178817	 2.1134195929	-0.6022408017	 0.121655
H	-1.1226358648	 1.477627041	 0.1250145287	 0.129196
H	 0.2979100095	-0.3865942159	-0.7928598294	 0.097905
H	 1.6393518908	 0.116423164	 0.2494018379	 0.108745
H	 1.8778119072	-0.819255611	 3.0823185926	 0.293581
H	 2.2141464083	-4.5029573873	 2.4267564882	 0.099568
H	 0.2788528793	-5.0909960132	 0.6029658279	 0.116372
H	-0.9042547711	-2.9235081886	 0.079993904	 0.261415
