21
gdb 94976	2.7335	1.71407	1.33086	1.4681	82.59	-0.2403	0.088	0.3283	1041.612	0.184667	-387.024824	-387.017293	-387.016348	-387.0566	30.859	
C	-0.0342534642	 1.5648897438	 0.0477010922	-0.403055
C	 0.0642645424	 0.0483151872	 0.0294361617	 0.011604
O	 0.8989106324	-0.3440163365	-1.0923391372	-0.300994
C	 1.7690932171	-1.4651978605	-0.7870206078	-0.122419
C	 1.3550552393	-1.9231652445	 0.607091753	-0.017068
C	 2.035991474	-1.7260677672	 2.0061194451	-0.087285
C	 2.2094876531	-0.2262823846	 1.6684491353	-0.254695
C	 0.772957002	-0.6150736634	 1.1820474555	 0.334942
C	 0.59975507	-1.3608154073	 2.537822452	-0.313646
H	 0.9487067627	 2.0117527573	 0.2227307291	 0.120801
H	-0.4133416575	 1.9340260779	-0.9090165469	 0.125444
H	-0.7163046813	 1.8934511953	 0.8388105969	 0.11193
H	-0.9384372961	-0.3902090128	-0.0991344266	 0.06725
H	 1.6027506526	-2.2434067782	-1.5396793709	 0.097798
H	 2.8104916056	-1.1338437512	-0.8707546696	 0.101167
H	 0.6499036859	-2.7595080896	 0.5701701705	 0.07027
H	 2.7565475029	-2.3824489562	 2.4967079311	 0.073865
H	 2.2587864475	 0.4600607437	 2.517658199	 0.088967
H	 2.9473336177	 0.0377993276	 0.9107143485	 0.104598
H	-0.1346289251	-2.1703134171	 2.5632221702	 0.096348
H	 0.5605904889	-0.7493917336	 3.4431073888	 0.094178
