21
gdb 74331	3.78181	0.95309	0.82737	2.0253	85.71	-0.2328	0.0243	0.2571	1447.5706	0.182584	-387.088778	-387.079804	-387.07886	-387.1231	33.448	
C	 0.0632634838	 1.5722339604	 0.2355565769	-0.49051
C	 0.0639804267	 0.0868451393	 0.058133969	 0.338088
C	-0.0863700635	-0.5920211209	-1.0814411916	-0.189423
C	-0.0951193543	-2.0920202402	-0.8831974556	-0.053712
C	 0.4030323245	-2.2431068011	 0.5843997575	-0.238182
C	 0.2188710831	-0.8514080027	 1.2384153836	-0.295653
C	-1.48095174	-2.6704393686	-1.0975517094	 0.099781
C	-1.9037324144	-3.2480265159	-2.3786618071	-0.185092
O	-1.5691065158	-4.0877550521	-1.2715100474	-0.243009
H	 1.0048455509	 1.9181030969	 0.6809166054	 0.1253
H	-0.0772525966	 2.0954788672	-0.7141049656	 0.12271
H	-0.7352492249	 1.8872993842	 0.9198040399	 0.125441
H	-0.2431583168	-0.1361118043	-2.054043398	 0.083229
H	 0.5756950279	-2.6092877691	-1.580318366	 0.073395
H	-0.121675939	-3.041265175	 1.1158065493	 0.11053
H	 1.4637469763	-2.5089232935	 0.5764683813	 0.104704
H	 1.0655952689	-0.5761467925	 1.8791386642	 0.100119
H	-0.6706967232	-0.8049099761	 1.8829163316	 0.103679
H	-2.2570451068	-2.2562167359	-0.4499069621	 0.087046
H	-2.9556608807	-3.2411648097	-2.6614638102	 0.111855
H	-1.2016173162	-3.2742168602	-3.2118519857	 0.109704
