17
gdb 46364	3.36461	1.13123	0.89889	1.6673	68.95	-0.252	-0.0396	0.2123	1254.65	0.134854	-458.925709	-458.917353	-458.916409	-458.960304	29.298	
O	-0.0466698176	-0.0007232781	-0.2418034202	-0.270326
C	-0.03490337	 1.1780735126	-0.0640385228	 0.330362
C	-1.0610236606	 2.2677235181	 0.270161771	-0.191353
O	 0.0069238498	 3.2360680899	 0.3263993073	-0.296243
C	 1.0393448132	 2.2785963015	-0.0243477213	 0.002872
C	 2.1331095261	 2.1468303988	 1.015871091	-0.04986
C	 3.3173009121	 1.2546418693	 0.5772371371	-0.085954
O	 4.1698622026	 2.4040686919	 0.4009284196	-0.270447
C	 3.1880272542	 3.2765984107	 0.9977306256	-0.087636
H	-1.7899263998	 2.4767017121	-0.5233346593	 0.136642
H	-1.5874368381	 2.1501000567	 1.2254785043	 0.13764
H	 1.4726752544	 2.5006627283	-1.0110639271	 0.115334
H	 1.7006893734	 1.9212050439	 1.9927185564	 0.086236
H	 3.6880727875	 0.579937805	 1.3589869472	 0.10637
H	 3.1868021751	 0.6853951238	-0.3502247102	 0.117118
H	 2.9644627626	 4.145435416	 0.3684054914	 0.115638
H	 3.4965127553	 3.6236445194	 1.9922066301	 0.103606
