20
gdb 99309	3.7326	0.85615	0.78907	1.6881	76.01	-0.2137	0.013	0.2267	1524.4816	0.169827	-440.287644	-440.277683	-440.276739	-440.323848	35.123	
C	-0.5373888432	 0.975248715	-0.8249976768	-0.239231
O	-0.1185191391	-0.3241279723	-0.3840206719	-0.225537
C	 0.8510353855	-0.9006750832	-1.1157378983	 0.44208
O	 1.350004929	-0.3946462336	-2.0913237176	-0.365149
C	 1.2750418072	-2.2377599691	-0.5121740917	-0.285423
N	 2.1041612142	-3.0552842939	-1.3750558725	-0.282976
C	 1.3783416827	-3.8700118906	-2.3187561073	 0.057321
C	 0.7044149905	-3.3265535017	-3.5668259197	-0.281224
C	 1.9699237226	-4.1532176912	-3.6640777151	-0.286436
H	 0.3016297668	 1.6754146577	-0.8117956282	 0.141447
H	-0.9373518965	 0.9254834765	-1.8407385389	 0.142256
H	-1.3106019695	 1.2915427921	-0.1250177225	 0.135
H	 1.8138579447	-1.9983293371	 0.4157018247	 0.131562
H	 0.3827667165	-2.7926885419	-0.2087524384	 0.134014
H	 2.76529576	-2.4587052723	-1.8617122749	 0.226681
H	 0.8751180536	-4.702449299	-1.8313950922	 0.090899
H	-0.2297386408	-3.7757172455	-3.888361341	 0.103474
H	 0.7919447993	-2.2639745564	-3.7574529189	 0.134738
H	 2.885359515	-3.6327039938	-3.9289061197	 0.113937
H	 1.9123215416	-5.1632690897	-4.053985699	 0.112565
