25
gdb 76786	1.85048	1.75514	1.12306	0.2275	92.28	-0.2556	0.0776	0.3332	1247.2895	0.227844	-352.343387	-352.333312	-352.332368	-352.377656	39.309	
C	-0.2626398259	 1.5193668481	-0.0264177325	-0.397444
C	-0.0050213888	 0.0154720392	 0.0073599547	-0.019058
C	 1.1819328901	-0.4855325626	-0.8903276434	-0.040979
C	 1.6342806912	 0.3178306489	-2.1012711144	-0.421606
C	 2.049971217	-0.5307777863	 0.3785126665	 0.365155
C	 3.3446092825	-1.2457540732	 0.6087661034	-0.341568
C	 3.3029470797	 0.2669493071	 0.6146171806	-0.318949
C	 0.7888645413	-0.5044856781	 1.2584401203	-0.041107
C	 0.7807513799	 0.277263889	 2.5642472645	-0.42153
H	 0.6488150031	 2.1004082884	 0.1459668158	 0.119625
H	-0.66967469	 1.8244597914	-0.996283921	 0.110775
H	-0.9883326988	 1.8089656144	 0.7409939743	 0.110785
H	-0.9492374908	-0.5097496532	-0.1699840174	 0.056282
H	 0.9677493527	-1.5137812864	-1.2092719271	 0.067517
H	 1.8600251765	 1.3572503476	-1.8453814073	 0.116431
H	 2.5381348631	-0.1179615555	-2.5427533415	 0.111253
H	 0.8636153184	 0.3242512444	-2.8801218799	 0.111932
H	 3.4900662901	-1.7553932999	 1.5569220691	 0.105218
H	 3.8174958168	-1.7396479928	-0.2352318015	 0.105226
H	 3.748622349	 0.7917990551	-0.2245758146	 0.107477
H	 3.4212020465	 0.7759811588	 1.5660497103	 0.107477
H	 0.4788083643	-1.53729634	 1.4635211068	 0.067511
H	 1.0776731917	 1.3204830165	 2.4216233593	 0.116431
H	-0.2153333814	 0.2717488133	 3.020700207	 0.111913
H	 1.4723969418	-0.1673764241	 3.2893018478	 0.111236
