17
gdb 106023	2.62873	1.64658	1.24917	3.2924	72.77	-0.2105	0.01	0.2205	1036.7765	0.136521	-417.933413	-417.925464	-417.924519	-417.966119	30.118	
C	 0.1287766764	 1.3450342807	 0.3921904384	-0.333447
N	-0.1067252397	 0.0284697363	-0.2092554845	-0.404439
C	-1.4289880137	-0.435614453	-0.1467789038	 0.230893
C	-2.0655868456	-0.9181809788	 1.1493464364	-0.057351
N	-3.5330592657	-0.7474826026	 0.9937819299	-0.327419
C	-3.3391827923	-1.4137616302	-0.3486437865	-0.200926
C	-1.920929407	-1.9405516362	 0.0758161522	-0.145849
C	-2.5618997628	-0.3230864568	-1.1221307907	 0.42923
O	-2.660769377	 0.1650841317	-2.2147162642	-0.357454
H	 1.1875986	 1.5968612808	 0.288482605	 0.123399
H	-0.4695456027	 2.1517877111	-0.0555864544	 0.124575
H	-0.1031430408	 1.3038383755	 1.4604456769	 0.128338
H	 0.2148604857	 0.0186881432	-1.171461468	 0.236933
H	-1.5419983366	-0.8052868396	 2.090639043	 0.111838
H	-3.9705507666	-1.437746454	 1.6050842811	 0.221087
H	-4.1605774631	-1.9677562186	-0.7918525324	 0.097797
H	-1.3318925184	-2.8288183396	-0.1011232684	 0.122796
