23
gdb 59411	2.42847	1.03473	0.96352	2.7962	87.49	-0.2465	-0.0194	0.2271	1415.3969	0.202506	-388.30651	-388.295693	-388.294749	-388.342336	39.408	
C	 1.4066935716	 0.90360833	-0.8665479595	-0.383511
C	 1.7823461104	-0.5046065975	-0.3765509524	 0.00059
C	 3.306906051	-0.678813258	-0.3173018654	-0.388184
C	 1.146877693	-0.7662633386	 0.9774828483	 0.015161
C	-0.266763868	-1.2096418045	 1.1323343136	-0.332695
C	 0.8535910312	-2.1789763469	 1.508360043	 0.208025
C	 1.0923457203	-3.4265394351	 0.6806510657	-0.491451
C	 1.080355019	-2.3358932984	 2.9714877986	 0.09773
O	 0.8892553891	-1.4752612062	 3.799155171	-0.275453
H	 1.7843984551	 1.6688074962	-0.1786247209	 0.116914
H	 1.8368450843	 1.1017459372	-1.8537644197	 0.110214
H	 0.3214154089	 1.0246607829	-0.9365621305	 0.116402
H	 1.3808262509	-1.2247864032	-1.100654149	 0.06975
H	 3.7496053748	 0.0218388865	 0.4001708938	 0.117728
H	 3.5840069213	-1.6909046824	-0.0072911122	 0.114071
H	 3.7635684514	-0.4869867224	-1.2937439098	 0.111336
H	 1.4949293198	-0.0996340864	 1.764407151	 0.104542
H	-0.8489296991	-0.8035845812	 1.9520806903	 0.133264
H	-0.8281349805	-1.4594507576	 0.2368885517	 0.111633
H	 0.4329013721	-4.2395643574	 1.0052863548	 0.123895
H	 0.8956602796	-3.2549866788	-0.3795278038	 0.127082
H	 2.1247627672	-3.7822963026	 0.7729890023	 0.124666
H	 1.4583237165	-3.3394141654	 3.2753508889	 0.068291
