19
gdb 114058	2.48154	1.3317	1.09979	2.9563	72.	-0.2321	0.0636	0.2957	1180.4822	0.157039	-460.116106	-460.106813	-460.105868	-460.14988	35.064	
C	-0.2380809197	 1.4017687351	 0.0647523707	-0.489674
C	-0.0399115865	-0.0741186494	 0.1517672297	 0.41056
C	 1.1525369461	-0.860777517	-0.3426940135	-0.407267
C	 0.6814070724	-1.0093542669	 1.0897594615	 0.252137
O	 1.4541157461	-0.721895544	 2.1977846415	-0.454113
C	-0.6157467499	-1.815234408	 1.1209814491	 0.030151
C	-1.4293457195	-1.7135074597	 2.4005656867	-0.062388
O	-2.7788465599	-2.0525299517	 2.1488518162	-0.425234
O	-1.2034133317	-0.9223680654	 0.1163034301	-0.348448
H	 0.7104845284	 1.9203928233	 0.2287555059	 0.132758
H	-0.6148766763	 1.6853369547	-0.9242305522	 0.133226
H	-0.9563118766	 1.7432090203	 0.8163005993	 0.131082
H	 1.0219417618	-1.6588219692	-1.0691150819	 0.113889
H	 2.0638358248	-0.2775656438	-0.4412573906	 0.11706
H	 2.2090758411	-1.3207909128	 2.2093245315	 0.292114
H	-0.5907727228	-2.8485838536	 0.7536886749	 0.080378
H	-1.0510599599	-2.417416936	 3.1491707785	 0.108107
H	-1.3315464925	-0.6986390563	 2.8156082335	 0.09399
H	-3.0487255757	-1.5052735498	 1.4006911192	 0.291672
