18
gdb 45373	2.95206	1.64193	1.42131	3.9627	70.26	-0.2252	0.0112	0.2364	965.4843	0.151318	-439.121198	-439.114294	-439.11335	-439.152646	27.716	
O	 0.039480599	 0.0704123506	 0.7457392634	-0.326927
C	 0.0004099545	 1.1175043305	 0.1603552556	 0.396319
C	-1.3186285354	 1.850565878	-0.1320773211	-0.324248
N	-1.2363106171	 3.0642549908	-0.9491309005	-0.077904
C	-0.908531437	 2.7570389611	-2.3590436767	-0.177226
C	 0.6489347017	 2.6211515661	-2.4414443884	-0.24348
C	 1.0895307164	 2.9421530357	-1.0040864419	 0.116313
C	-0.0559452564	 3.8200622809	-0.4972996972	-0.208088
O	 1.1521422246	 1.7261392727	-0.2176030949	-0.237467
H	-2.0038010872	 1.1312781427	-0.5878491272	 0.142921
H	-1.7443432882	 2.1030621136	 0.8465339693	 0.143595
H	-1.439576589	 1.8599371151	-2.6835720698	 0.115269
H	-1.2520466925	 3.5877384521	-2.9832657623	 0.113329
H	 0.986550438	 1.6249786284	-2.7333947462	 0.127211
H	 1.0777543233	 3.3394908462	-3.1457810464	 0.110465
H	 2.0884899561	 3.3735350714	-0.9286377217	 0.096746
H	-0.0331461703	 4.8047116188	-0.9774703449	 0.11265
H	-0.0569067005	 3.9573285354	 0.5867345109	 0.120521
