19
gdb 36853	4.19227	0.97606	0.88679	3.0936	75.46	-0.2299	0.0765	0.3064	1331.373	0.158618	-422.952238	-422.943967	-422.943023	-422.986132	30.968	
C	-0.1264215532	 1.5990947048	 0.1353092677	-0.366474
C	-0.2001582315	 0.1074449128	 0.3802940567	 0.110203
C	-1.2478813087	-0.7348712302	-0.2066665626	-0.182788
O	 0.073138597	-0.7243462333	-0.7530194992	-0.235356
C	 1.2937347486	 2.065151589	-0.0271798267	 0.305488
C	 2.2074463752	 2.47711055	 1.1164605485	-0.3449
C	 1.9496853614	 3.4266438149	-0.0139301852	 0.037723
O	 2.7918648945	 3.1276581038	-1.1274695177	-0.288713
C	 2.1617716097	 1.8219187024	-1.2619796768	-0.120965
H	-0.7070691377	 1.8362473015	-0.7648868972	 0.106263
H	-0.5999957692	 2.124501976	 0.9744324415	 0.104198
H	 0.2758859717	-0.2375391734	 1.2998179242	 0.09626
H	-1.5427017437	-1.6602466121	 0.2860463171	 0.11587
H	-2.0151195421	-0.2780934709	-0.8309729791	 0.113809
H	 1.691259614	 2.7047313107	 2.045123151	 0.10947
H	 3.1971039046	 2.0426730189	 1.2317201468	 0.1158
H	 1.5630739761	 4.4356777054	 0.0790515113	 0.10297
H	 2.884688889	 0.9994274231	-1.2278563865	 0.11026
H	 1.5846361943	 1.7683055167	-2.1917599637	 0.110882
