21
gdb 61258	3.7261	0.82755	0.72829	1.4756	84.2	-0.2465	0.0481	0.2946	1569.3613	0.180529	-387.037217	-387.027282	-387.026338	-387.072772	36.077	
C	-0.1798595115	 1.4976237169	 0.0772457743	-0.401752
C	 0.0187498251	-0.019925478	-0.0114154689	 0.003679
C	 0.7399215219	-0.4222674818	-1.3229097514	-0.366301
C	-0.0047983869	-0.0823306031	-2.5290325666	 0.298974
C	-0.6391620182	 0.1993489752	-3.5107154184	-0.437915
C	 0.7927696776	-0.5504447941	 1.1932563875	-0.011212
C	 0.0996614052	-0.5052015084	 2.5749344227	-0.099097
O	 0.2627741104	-1.9255045454	 2.7573614089	-0.271837
C	 0.8208713045	-2.0781931906	 1.4378299581	-0.09578
H	 0.7854713133	 2.0176501394	 0.0989875781	 0.112659
H	-0.7417296135	 1.8680894685	-0.784052326	 0.134408
H	-0.7277361217	 1.7727150322	 0.983962249	 0.117229
H	-0.9691701776	-0.5005898193	-0.0196124885	 0.087454
H	 1.7253969815	 0.0632374834	-1.3520045315	 0.127167
H	 0.933276639	-1.5027701285	-1.3157356285	 0.131383
H	-1.1895909767	 0.444437825	-4.3849534127	 0.194958
H	 1.7933084525	-0.1053971726	 1.2144496424	 0.076485
H	 0.6024889046	 0.0706709364	 3.3606613869	 0.102623
H	-0.9602608408	-0.2154015557	 2.5465432465	 0.097474
H	 0.1607041549	-2.6618743417	 0.7797611484	 0.096893
H	 1.8070376465	-2.5568819179	 1.4622621595	 0.102507
