14
gdb 132862	3.03739	1.37572	0.95246	5.2175	69.42	-0.2336	-0.0588	0.1748	1145.3963	0.099913	-481.846171	-481.838504	-481.83756	-481.878492	28.433	
C	-0.017552383	 1.5439887421	 0.0060523018	-0.490165
C	-0.001382528	 0.0401492159	 0.0011768898	 0.186993
C	-0.0355697096	-0.6766251136	-1.1408620548	 0.010696
O	-0.0222207381	-2.0268881763	-1.1798820217	-0.217835
C	 0.028752471	-2.8227120974	-0.0405986714	 0.356566
O	 0.0363011757	-4.0167168121	-0.1527372041	-0.33658
C	 0.0652473302	-2.0551957348	 1.1993408409	 0.108621
F	 0.113347722	-2.7805989047	 2.308495297	-0.047563
C	 0.0516596945	-0.7071054911	 1.2286848456	-0.252422
H	 0.8786914799	 1.9495201574	 0.4889289491	 0.139755
H	-0.0597004824	 1.9413871469	-1.0110581603	 0.133702
H	-0.8840549624	 1.9303359459	 0.5544845171	 0.139745
H	-0.0768432069	-0.2507912839	-2.1358621016	 0.13918
H	 0.0809713173	-0.1957349341	 2.1856318224	 0.129306
