18
gdb 53474	2.61902	0.96775	0.81335	3.3625	81.65	-0.238	0.0027	0.2407	1478.2696	0.14552	-401.922479	-401.912464	-401.91152	-401.959324	34.052	
C	 0.0570802074	 0.5000589214	 1.3211889372	-0.496919
C	-0.0809235987	-0.5829768377	 0.3575083835	 0.038528
C	-0.1894623183	-1.4670312374	-0.4532737829	 0.079507
C	-0.3475733825	-2.5384732527	-1.4323156219	-0.412278
C	-1.5712444824	-3.4126737681	-1.1091717328	 0.361524
O	-2.6565450476	-3.2306548732	-1.6073387354	-0.328481
N	-1.2967503733	-4.4777075116	-0.2601557776	-0.072922
C	-0.8450306814	-4.3847517699	 1.1174875069	-0.231943
C	-2.2019394206	-4.9275730724	 0.7679510537	-0.219226
H	 0.9124834215	 0.3384356167	 1.9863291146	 0.147334
H	 0.2065590262	 1.4609549303	 0.8167251242	 0.152548
H	-0.8376152902	 0.5923131618	 1.9467820536	 0.149967
H	-0.5091932436	-2.121634205	-2.4311477339	 0.152205
H	 0.5511470902	-3.1646869544	-1.4633306373	 0.140159
H	-0.0456456211	-5.0642563906	 1.4005900962	 0.126557
H	-0.793466461	-3.3958237167	 1.5626504801	 0.145315
H	-3.0695643922	-4.3040505546	 0.9654757456	 0.140045
H	-2.3795821522	-5.9981709659	 0.8100987563	 0.128077
