17
gdb 82597	2.3305	2.14771	1.69071	2.8367	65.65	-0.2424	0.0482	0.2907	868.8036	0.137852	-458.904985	-458.898209	-458.897265	-458.935843	27.982	
O	 0.1391089568	 1.3944240323	-0.2630219726	-0.446031
C	-0.0128260356	 0.0372715767	 0.0205985279	 0.164096
C	 0.1958259176	-0.5358928288	 1.4533018774	 0.043819
O	-0.5829115364	 0.1543004957	 2.4728584985	-0.319359
C	-1.7622708036	-0.6113059853	 2.1320370778	 0.046556
C	-2.427843246	 0.077080916	 0.9203169864	 0.144676
O	-2.4426972796	 1.4902172404	 0.9809015388	-0.45278
C	-1.4084879034	-0.6289536471	-0.0325970264	-0.180269
C	-0.9666736002	-1.5394377621	 1.18188894	-0.100271
H	-0.7007357483	 1.8203183989	-0.0480208791	 0.292306
H	 0.6691279981	-0.5246918976	-0.6326916774	 0.089714
H	 1.2025560588	-0.7604735186	 1.8078860785	 0.087065
H	-2.348027642	-0.8880439739	 3.0103871664	 0.08483
H	-3.4462838366	-0.2811410912	 0.7399434147	 0.092989
H	-1.8066375037	 1.7110227192	 1.6807835014	 0.294161
H	-1.7782623979	-0.9860330794	-0.9927928555	 0.0739
H	-0.9178158579	-2.6227236653	 1.2077222931	 0.084597
