16
gdb 24127	4.96035	0.92988	0.8946	2.4516	70.74	-0.2398	0.004	0.2438	1310.4062	0.125146	-437.891392	-437.883703	-437.882758	-437.925123	27.72	
C	-0.0546917553	 1.6157320666	 0.0157370808	-0.351448
C	-0.1631776721	 0.1448386663	 0.3701798172	 0.098647
C	-1.2875270371	-0.6735828686	-0.0958847814	-0.179076
O	 0.0038968892	-0.7846693759	-0.6976002552	-0.224647
C	 1.3547059964	 2.0849986493	-0.1210603044	 0.402107
N	 1.9189884824	 2.6643517027	-1.1323226554	-0.299785
C	 3.2277305564	 2.8912600848	-0.7205122995	-0.11206
C	 3.3828222722	 2.4258040703	 0.5386309597	-0.041271
O	 2.1840423744	 1.9044165056	 0.9424533004	-0.17769
H	-0.5578796757	 1.8098437734	-0.9335932948	 0.144849
H	-0.5608019961	 2.2011564877	 0.7953146847	 0.128295
H	 0.3364042479	-0.1443725894	 1.2951215941	 0.106757
H	-1.6109122535	-1.534487689	 0.4872641975	 0.118392
H	-2.0561597394	-0.2211695946	-0.7215431452	 0.116805
H	 3.9511843523	 3.3680389816	-1.3622439665	 0.125245
H	 4.192380608	 2.3781599893	 1.2459304779	 0.144878
