19
gdb 82056	2.74365	1.46441	1.242	2.9556	74.18	-0.2427	0.0597	0.3023	1071.582	0.159516	-422.965547	-422.957462	-422.956518	-422.998332	31.141	
O	 0.2927593469	 1.3674330064	-0.1245744147	-0.428249
C	 0.0931652189	-0.0146490173	 0.0454998562	 0.062358
C	 0.3167118764	-0.6467842778	 1.4168828814	-0.086878
C	-0.7657954411	-0.2320639063	 2.3807433409	-0.30767
C	-1.0797832734	-1.2802256839	 1.3539261731	-0.124768
C	-1.3647595627	-0.6049407175	 0.0162910879	 0.260776
C	-2.5984978617	 0.2765987116	-0.2474160357	-0.133293
O	-2.953871962	-0.4904656071	-1.4174569239	-0.275146
C	-1.8477672555	-1.3905260273	-1.2159965863	-0.150755
H	 0.0125212493	 1.8125714203	 0.6822186239	 0.282616
H	 0.6986373988	-0.5006224797	-0.7258361652	 0.093926
H	 1.2480006061	-1.0743228692	 1.7678828039	 0.092359
H	-0.6308125116	-0.586877144	 3.3971032383	 0.121118
H	-1.2381650288	 0.7476328079	 2.3255792527	 0.102897
H	-1.3753534472	-2.2872470822	 1.6224245361	 0.09355
H	-3.3777659717	 0.2390487741	 0.5255668826	 0.095669
H	-2.3752574206	 1.3219618259	-0.4954674245	 0.104025
H	-1.1605808998	-1.4016437759	-2.0729494421	 0.101197
H	-2.1839824705	-2.4174566081	-1.0161157947	 0.096268
