18
gdb 103208	3.20837	1.47466	1.26902	3.9663	70.32	-0.2366	0.0519	0.2886	1024.9349	0.148037	-439.009331	-439.001499	-439.000555	-439.041457	31.003	
O	-0.1192274225	 1.4789584205	-0.0875623075	-0.434549
C	 0.040949262	 0.0638994146	 0.0148164666	-0.173924
C	-1.3635539511	-0.5157743766	 0.1064655703	 0.472059
O	-2.1122197517	-0.0846742081	-1.0129512926	-0.495798
C	-1.5727837048	-2.0036447983	 0.2910620579	-0.113265
C	-1.5766478275	-2.3197900742	 1.7542410778	-0.047084
C	-1.3775341591	-1.0419755022	 2.5518167692	-0.258656
C	-2.1943933008	-0.4023609554	 1.4169540581	-0.068084
N	-2.8248605445	-1.8048696203	 1.0996964157	-0.15335
H	 0.710839041	 1.8651061727	-0.3796590159	 0.296989
H	 0.5260815207	-0.3473318975	-0.882301367	 0.100564
H	 0.6495576481	-0.2047638503	 0.8875848367	 0.096542
H	-1.903775972	 0.8537798726	-1.1100538975	 0.285336
H	-1.5159325146	-2.7671241293	-0.476744705	 0.098058
H	-1.5148944589	-3.3438099931	 2.106505757	 0.096925
H	-1.9560390611	-1.0808064671	 3.478890846	 0.115159
H	-0.3711489707	-0.6693662781	 2.7673285679	 0.096097
H	-2.8446431229	 0.4559174702	 1.5704284924	 0.086983
