18
gdb 8896	4.43514	1.12149	0.98046	0.3898	64.82	-0.2653	0.0155	0.2808	1213.3705	0.151289	-422.108039	-422.098183	-422.097238	-422.143467	33.403	
C	 0.0435407419	 1.3415201072	-0.0989087072	-0.240596
O	-0.0532217425	-0.0878259385	-0.1047925862	-0.237141
C	-1.2959176897	-0.5838851691	 0.0673479393	 0.447803
O	-2.2737955201	 0.1107097088	 0.2038168531	-0.36623
C	-1.2811818376	-2.1005912703	 0.0787205938	-0.100886
C	-0.5642769352	-2.6298686182	 1.3353611014	-0.398372
C	-2.7083747143	-2.6353741719	-0.0373281914	-0.076569
O	-2.621370429	-4.048400577	-0.1556564548	-0.42676
H	 1.1006625982	 1.568357039	-0.2377971229	 0.132705
H	-0.5496244581	 1.7718476162	-0.9098952642	 0.139999
H	-0.3144055868	 1.7494222496	 0.849834331	 0.139919
H	-0.715945954	-2.4325499457	-0.800336077	 0.110091
H	 0.4744790705	-2.2939800451	 1.3628661316	 0.126909
H	-1.0651687224	-2.2782485731	 2.2441656083	 0.119272
H	-0.5888995929	-3.7209641047	 1.3323805277	 0.141815
H	-3.2846785591	-2.3353971886	 0.8496378095	 0.101047
H	-3.2012459339	-2.1878141242	-0.9119212643	 0.097849
H	-3.5148005748	-4.4024561244	-0.1676982177	 0.289144
