16
gdb 39367	2.859	1.92814	1.32814	3.3115	69.1	-0.2472	0.0032	0.2504	939.3159	0.126298	-437.85545	-437.848708	-437.847764	-437.886364	26.82	
C	 0.0114808429	 1.4350195842	-0.2225236357	-0.202712
O	 1.2714509497	 1.5002520891	 0.5483369094	-0.284992
C	 1.2436772894	 0.1412151627	 0.7778400024	 0.444734
N	 1.9228905003	-0.6025859931	 1.5236813712	-0.338223
C	 1.3691817749	-1.9777881713	 1.5019678072	-0.172766
C	-0.1879218016	-2.0656097559	 1.5128662151	-0.25378
C	-0.8551694538	-1.1818996045	 0.472154828	-0.053814
O	-0.2389482486	-1.160275159	-0.8345837288	-0.280177
C	-0.0148372899	-0.0697946996	 0.032016499	 0.26745
H	-0.7601725851	 2.047851241	 0.2479907261	 0.135347
H	 0.1687124011	 1.7265526504	-1.2631953159	 0.14214
H	 1.7514805178	-2.507947354	 0.6225998035	 0.128975
H	 1.7492696007	-2.5041294065	 2.3809935446	 0.115884
H	-0.4818269741	-3.112045554	 1.3752053404	 0.12
H	-0.5666570985	-1.753112037	 2.4946796128	 0.120326
H	-1.9402741052	-1.1087032624	 0.4600939408	 0.111607
