20
gdb 85454	2.69325	1.4417	1.06219	2.8066	79.42	-0.2111	-0.0156	0.1955	1169.102	0.170261	-403.149186	-403.140628	-403.139683	-403.182292	33.31	
C	 0.020056709	 1.4328267572	-0.1626025765	-0.335275
N	-0.0210253274	 0.0077290116	 0.0796340946	-0.121359
C	-1.3648281906	-0.551703662	 0.1400133607	-0.271122
C	-1.1698207629	-1.9326879233	 0.7653003057	 0.394863
O	-1.9981515191	-2.8006840433	 0.8374970238	-0.308173
C	 0.264839359	-1.9821056813	 1.2906997925	-0.392891
C	 0.7105632562	-0.532103664	 1.2183875178	 0.377673
C	 2.1043074305	-0.1182329202	 1.5564950578	-0.337472
C	 0.9670172161	 0.24259782	 2.4996365071	-0.323714
H	 1.0539705896	 1.7810102208	-0.2323433394	 0.125424
H	-0.4638271705	 1.6475476346	-1.1208586129	 0.125883
H	-0.4974482788	 2.0279630739	 0.6124826241	 0.099256
H	-2.0537865055	 0.0212236069	 0.7934082217	 0.106342
H	-1.8312173087	-0.6187067296	-0.8484439066	 0.129291
H	 0.3094179373	-2.4276567806	 2.286199092	 0.130611
H	 0.8514537168	-2.6118700546	 0.6093129268	 0.137418
H	 2.8003582653	-0.8947648338	 1.8566146724	 0.117431
H	 2.5658818454	 0.6876553412	 0.9967573245	 0.117303
H	 0.6790935603	 1.2868917001	 2.5441818053	 0.11582
H	 0.8925601079	-0.2790857436	 3.4481039986	 0.112692
