12
gdb 131245	5.56607	1.36052	1.09329	1.6274	62.09	-0.2108	-0.02	0.1908	983.5231	0.080189	-468.815773	-468.809499	-468.808555	-468.846367	24.237	
O	 0.0814767943	 1.2987852185	-0.040324986	-0.425395
C	 0.0652923305	-0.0464187533	-0.0726567817	 0.351997
C	-0.0022369385	-0.8268301661	-1.2094599677	-0.248827
N	 0.0113320987	-2.1153982902	-0.6815842273	 0.025992
N	-0.0228686336	-3.4310822071	-1.0649742871	-0.227786
C	 0.0295627972	-4.0500028435	 0.0707147876	 0.070968
O	 0.0958516364	-3.2489364865	 1.1798802474	-0.198221
C	 0.0823382008	-1.9972192233	 0.6595308694	 0.488985
N	 0.1187354769	-0.7719880702	 1.1059227089	-0.476264
H	 0.132587051	 1.5509971378	 0.8898871132	 0.307586
H	-0.0543336523	-0.6054939405	-2.2579472295	 0.150701
H	 0.0261207888	-5.1148123855	 0.2255354427	 0.180264
