20
gdb 121442	2.53781	0.95926	0.74263	1.7033	80.8	-0.2412	-0.0717	0.1695	1579.9137	0.167899	-440.292892	-440.28223	-440.281286	-440.32951	36.6	
C	 0.164926894	 1.4080448313	 0.1106474386	-0.37986
C	 0.03495951	-0.1071729308	 0.2791878749	-0.163061
C	-1.36768316	-0.6139684455	-0.0900901048	-0.14177
N	-1.430817556	-2.0680115837	-0.0579209147	-0.310838
C	-1.7682844923	-2.7189460375	 0.9721195294	 0.31831
O	-1.8175367993	-4.0722883031	 0.983888098	-0.245905
C	-1.4518681049	-4.7265155559	-0.2291804405	-0.230858
C	-2.1922157231	-2.2338953733	 2.3402392156	 0.104266
O	-2.0761109782	-1.1007630638	 2.7315555643	-0.239799
H	 1.1715003189	 1.747797639	 0.3727096332	 0.113782
H	-0.0297820976	 1.7122621616	-0.9238622695	 0.113402
H	-0.5438620941	 1.9407345167	 0.753642711	 0.122211
H	 0.7727051251	-0.6235584687	-0.3460177661	 0.101575
H	 0.2432858742	-0.3869458218	 1.3175125058	 0.108382
H	-2.1051230296	-0.1431431611	 0.5685105114	 0.119137
H	-1.591011575	-0.311892237	-1.1203881664	 0.098147
H	-1.5436870333	-5.7947830075	-0.0301492905	 0.129982
H	-2.1158273784	-4.4265389609	-1.0452121412	 0.137415
H	-0.4261145565	-4.4726852111	-0.5122514174	 0.13713
H	-2.628084874	-3.0359218768	 2.970805999	 0.108352
