18
gdb 33978	2.30034	1.71664	1.20933	4.2149	81.58	-0.2602	0.0167	0.277	1069.3814	0.148347	-364.787943	-364.78007	-364.779126	-364.820246	30.811	
N	 0.0474909936	-1.1674612975	-0.0338574618	-0.361368
C	 0.0354130922	-0.0094890017	-0.0086238377	 0.191938
C	-0.0063217353	 1.4130246068	 0.0520194445	 0.159853
C	 0.2429152277	 2.2995556109	-1.1522098908	-0.320699
C	 1.15480184	 2.4367182998	 0.0245797614	-0.099639
C	 0.4914392136	 3.2392912409	 1.1538838007	-0.315523
C	-0.6730227699	 2.2259721537	 1.1568797424	 0.306655
C	-2.1428042903	 2.4634986444	 1.3417300285	-0.322679
C	-1.3585666226	 1.6606698519	 2.359105356	-0.33953
H	 0.6623837982	 1.7950604086	-2.0158524868	 0.138353
H	-0.4851780126	 3.0729257616	-1.3823561794	 0.12459
H	 2.2104667869	 2.2094540588	-0.0459836194	 0.116558
H	 1.0647101215	 3.2145987741	 2.0836930844	 0.118384
H	 0.2465126961	 4.2783659385	 0.9114919615	 0.107307
H	-2.4635688689	 3.4629980683	 1.6170174881	 0.117351
H	-2.8343486628	 1.9311689044	 0.6968801849	 0.123725
H	-1.5187248413	 0.5877136414	 2.3915871585	 0.13728
H	-1.149646236	 2.1131741951	 3.323159325	 0.117444
