20
gdb 70276	3.93514	1.09943	0.98898	4.2277	80.67	-0.2381	0.0297	0.2677	1251.9459	0.17216	-403.180818	-403.172347	-403.171403	-403.21401	32.322	
C	-0.3930740999	 1.5352450789	 0.1871305389	-0.486405
C	 0.1148863339	 0.1261504788	 0.0069154779	 0.344201
C	-0.6377299395	-1.0490301039	 0.5826589296	-0.330616
C	 0.7247310159	-0.6939363273	 1.1278473507	-0.085914
C	 1.9006240435	-1.4734170944	 0.5651922902	-0.180995
N	 1.7162032795	-1.3594265714	-0.8820422707	-0.048774
C	 0.9342688632	-0.1807939513	-1.2431232284	-0.240661
C	 2.1254077444	-2.3197010975	-1.7484937525	 0.142097
O	 2.7539695837	-3.313164754	-1.4430820396	-0.341803
H	 0.4238654696	 2.2642390019	 0.1319583505	 0.119294
H	-1.1256506625	 1.7981087064	-0.5851321569	 0.12229
H	-0.8828907496	 1.6547051588	 1.1580083252	 0.121456
H	-1.495997568	-0.8239190443	 1.2064345811	 0.113976
H	-0.7378859157	-1.9551802756	-0.0077644379	 0.119741
H	 0.8071639874	-0.2944679072	 2.1319908739	 0.090134
H	 2.8526958	-1.0258915512	 0.8826818139	 0.111788
H	 1.9229919278	-2.5320480471	 0.8363366456	 0.139806
H	 0.324259073	-0.3866372846	-2.1297601559	 0.11784
H	 1.5817684064	 0.6789326015	-1.4745934074	 0.105083
H	 1.8144646068	-2.0976529767	-2.7894751982	 0.067462
