18
gdb 10561	2.81776	1.61942	1.17344	2.7702	70.17	-0.241	-0.0202	0.2208	1073.3032	0.151074	-384.9317	-384.922881	-384.921937	-384.965602	31.607	
C	-0.195020281	 1.5520349631	 0.0920520198	-0.384468
C	-0.0844460705	 0.041836219	 0.1979134626	-0.062538
O	-1.3318459506	-0.5150227961	-0.2292788538	-0.289797
C	-1.4216981283	-1.8911192544	-0.1430166389	 0.348049
C	-1.702367435	-2.5255464987	 1.2230684115	-0.324872
C	-2.7952539956	-2.429489304	 0.2076114552	-0.311178
C	-0.6171218573	-2.7020075694	-1.0939615677	 0.120265
O	 0.1573859469	-2.2572708487	-1.903646499	-0.276497
H	 0.738645602	 2.0223136754	 0.4147753222	 0.11631
H	-0.3931638424	 1.8488551905	-0.9415068251	 0.133436
H	-1.0086205978	 1.9273305585	 0.7197120087	 0.120746
H	 0.7259045511	-0.3372041752	-0.433556768	 0.125473
H	 0.1178626565	-0.2636138498	 1.2359858586	 0.083807
H	-1.2724788933	-3.496312146	 1.4449607088	 0.126474
H	-1.7191402545	-1.8295130389	 2.0532887431	 0.136617
H	-3.5494852887	-1.6637487477	 0.3420752278	 0.142796
H	-3.1343334796	-3.3325310499	-0.2878913441	 0.12672
H	-0.7899436319	-3.8002748379	-0.9945502918	 0.068658
