18
gdb 106157	2.54767	1.5428	1.24083	2.6038	71.61	-0.2239	0.066	0.2899	1059.5188	0.147781	-438.993435	-438.985247	-438.984303	-439.026355	31.539	
O	 0.0964254789	 1.3168116698	 0.2949502507	-0.413302
C	 0.0438979381	-0.0642352059	-0.0337216222	-0.22151
C	-1.3460990418	-0.5906750079	 0.0199553933	 0.321683
C	-2.3659214848	-0.8967567414	 1.0904075111	-0.200681
C	-3.3021755094	 0.1133306075	 0.4644768692	-0.180538
N	-2.5091813711	-0.0081794762	-0.8291036352	-0.219569
C	-2.8271694253	-1.4308136463	-1.2581780518	-0.238283
C	-2.0443634195	-1.9098088999	-0.0464267638	 0.296161
O	-1.47951975	-3.1419448942	 0.1997699596	-0.462599
H	-0.4815627412	 1.766699209	-0.332196551	 0.292296
H	 0.4750318009	-0.2492934381	-1.0305488219	 0.098535
H	 0.6685582497	-0.5897814316	 0.6956459589	 0.12432
H	-2.1819232667	-1.1589358827	 2.1256312365	 0.094159
H	-4.3682616397	-0.1203659507	 0.3623414852	 0.095371
H	-3.1837205425	 1.1215479414	 0.8695078702	 0.114347
H	-3.8969672405	-1.6507960179	-1.3528393737	 0.094601
H	-2.3169542641	-1.653015821	-2.1990210084	 0.114449
H	-2.1251744109	-3.6916137841	 0.6577858232	 0.290561
