19
gdb 53676	6.27655	0.55667	0.54319	2.4175	81.94	-0.2471	0.034	0.281	2055.0752	0.156613	-422.960822	-422.950618	-422.949674	-422.998922	34.019	
C	 0.0717611765	 1.4732905318	-0.109093925	-0.498939
C	 0.0002459569	 0.0272181706	 0.0359527977	 0.13864
C	-0.0664620948	-1.1683588411	 0.1519569697	 0.001109
C	-0.1221416328	-2.6139846474	 0.3060147925	-0.221604
O	-1.3357644832	-3.1173447052	-0.2379795608	-0.250292
C	-1.4336681748	-4.5112796437	-0.1515241399	 0.109494
C	-1.907486611	-5.131164054	 1.1884874417	-0.095352
O	-3.0371749451	-5.7456300063	 0.5354217049	-0.27274
C	-2.7583685944	-5.0576922525	-0.7024196387	-0.10236
H	 0.9382560829	 1.7724349208	-0.7088110986	 0.149771
H	-0.8247082426	 1.8597789844	-0.6060453125	 0.155112
H	 0.1510297422	 1.9692561731	 0.864396191	 0.14993
H	 0.7383127403	-3.0835350874	-0.2011738853	 0.116564
H	-0.0418708434	-2.8799963732	 1.3732831202	 0.119029
H	-0.5359890066	-4.9936856875	-0.5642194569	 0.075465
H	-1.2555657834	-5.8729329671	 1.6638895504	 0.101849
H	-2.2122111849	-4.3772583742	 1.926990503	 0.104336
H	-3.4827123726	-4.2611107006	-0.9128482592	 0.114451
H	-2.7032791093	-5.7439182505	-1.5542569142	 0.105535
