23
gdb 103823	3.18868	0.89419	0.82733	0.8149	82.36	-0.2523	0.0602	0.3125	1523.7475	0.202787	-425.413881	-425.402815	-425.401871	-425.450127	40.548	
C	 0.2294436259	 1.3992971958	 0.2126601894	-0.387978
C	-0.1481902989	-0.066058544	-0.0449852027	 0.030153
C	-1.6699627455	-0.2430671916	-0.1528599745	-0.392489
C	 0.5432290612	-0.5937974589	-1.2905306768	-0.028135
C	 1.980059217	-1.0842013826	-1.236494493	-0.375411
C	 0.8497317203	-2.0551943353	-1.4584745697	 0.358728
O	 0.4865704646	-2.9070296715	-0.3930154875	-0.473857
C	 0.6471683161	-2.7184702189	-2.8048600115	-0.118679
O	 1.3158722847	-3.9684929116	-2.8845722788	-0.422036
H	 1.3130288357	 1.5208756692	 0.3088982401	 0.111288
H	-0.1055707545	 2.0422422563	-0.6102232007	 0.10864
H	-0.2369520762	 1.7692302194	 1.1318712925	 0.108168
H	 0.1974484096	-0.6688173352	 0.8027320561	 0.077952
H	-2.0707153686	 0.3096592088	-1.0113753043	 0.105637
H	-1.9317201131	-1.2978409303	-0.2758011663	 0.125457
H	-2.1744971835	 0.1307019652	 0.7445144906	 0.106611
H	 0.2561957396	-0.0763054446	-2.2057007612	 0.078256
H	 2.6521405799	-0.8670930287	-2.0600432859	 0.114037
H	 2.4525341557	-1.0951800202	-0.2584143437	 0.108138
H	 1.273835868	-3.4003194369	-0.1409431992	 0.28739
H	-0.4315653032	-2.8396970537	-2.9914487249	 0.092711
H	 1.0560555946	-2.0902660337	-3.6023942429	 0.10646
H	 0.8769139405	-4.543936327	-2.2488915252	 0.278962
