21
gdb 40713	5.38331	0.80592	0.76754	1.8595	83.85	-0.2552	0.0722	0.3274	1536.8397	0.182368	-387.044769	-387.036238	-387.035294	-387.078464	33.04	
C	-0.2116953479	 1.2608255178	-0.3268923873	-0.273
C	 1.2274977823	 1.0923603017	 0.0935357012	-0.273001
C	 0.3043961831	-0.101318541	 0.067894042	 0.024094
C	-0.145224823	-0.7497564975	 1.3471882807	 0.031837
C	-1.3918279884	-1.6936692451	 1.3038933716	-0.339299
C	-0.6221576685	-2.6446347326	 2.2205080414	 0.469638
C	-1.0602059156	-3.2648394264	 3.4714978983	-0.267798
O	-0.8068718923	-4.0444462639	 2.2918920772	-0.272944
C	 0.6986439781	-1.938378344	 1.9145754743	-0.339299
H	-0.8836895289	 1.7656734995	 0.3597458835	 0.109467
H	-0.4251700334	 1.4495514033	-1.3731243073	 0.111644
H	 1.9988808362	 1.1658028698	-0.6649921698	 0.111644
H	 1.5208973283	 1.4842043316	 1.0621918523	 0.109467
H	 0.4613286841	-0.8017589485	-0.749977382	 0.078102
H	-0.2813427753	 0.0149836328	 2.1195861792	 0.066662
H	-2.3487568722	-1.3003523506	 1.6549220259	 0.102841
H	-1.5306094552	-2.1308819446	 0.3094438468	 0.110838
H	-0.3501363984	-3.4083486839	 4.2856088385	 0.112713
H	-2.1056527677	-3.2028489804	 3.7727757003	 0.112713
H	 1.247929068	-2.456135727	 1.1211283343	 0.110838
H	 1.3802817868	-1.7368711311	 2.744272399	 0.102841
