18
gdb 85236	2.6992	1.5947	1.14932	3.86	72.43	-0.2402	0.0133	0.2534	1094.7527	0.147213	-439.121176	-439.112555	-439.111611	-439.154131	32.517	
C	-0.0208351578	 1.6003381013	 0.0582120764	-0.399367
C	 0.0120973601	 0.0720770182	 0.0103396234	 0.014921
N	 0.7534054458	-0.447293469	-1.1362455097	-0.340819
C	 1.7644221539	-1.3267393879	-0.8568048521	 0.397481
O	 2.4722835827	-1.9029877502	-1.6533201593	-0.381217
C	 1.8173248678	-1.4450409886	 0.6626119498	 0.288564
C	 2.403548734	-2.6671652343	 1.2965352179	-0.49337
O	 2.1343513952	-0.1548773792	 1.2413288595	-0.287576
C	 0.7664749805	-0.5594158989	 1.1784008193	-0.047235
H	 0.9952417495	 1.9915247601	 0.1477237491	 0.147371
H	-0.4805683631	 2.0107373706	-0.8464975686	 0.117348
H	-0.6092445679	 1.9427196665	 0.9152587619	 0.1237
H	-1.0156537834	-0.3193784993	 0.0046669054	 0.089517
H	 0.6205904942	-0.1031129385	-2.074236829	 0.251529
H	 3.4175993899	-2.827294568	 0.9194518922	 0.152749
H	 2.4374407408	-2.5565792259	 2.3826572146	 0.129185
H	 1.8128906271	-3.5533264258	 1.0445025585	 0.133436
H	 0.2660854806	-0.7098232813	 2.1308147506	 0.103783
