19
gdb 86824	4.16623	0.82558	0.76824	2.5427	72.83	-0.2337	0.032	0.2657	1484.5127	0.158738	-456.344614	-456.335158	-456.334214	-456.379735	34.576	
N	 0.4654389235	-0.1277853071	 0.835764699	-0.504717
C	-0.1656072593	 0.3098798361	-0.2857625442	 0.377788
O	 0.1014721612	 1.3448285031	-0.8628116213	-0.36129
C	-1.2938971388	-0.6133981227	-0.7646287068	-0.260708
N	-1.1840856271	-1.977723572	-0.2892289285	-0.108757
C	-0.2593528426	-2.9073725681	-0.9866125514	-0.206486
C	-1.290656667	-4.0437808103	-0.7602113441	 0.144788
O	-1.0447303592	-4.8800782055	 0.343768346	-0.432944
C	-2.3174051149	-2.9047354802	-0.5230857068	-0.204481
H	 1.1631685105	 0.4556476455	 1.2655356652	 0.259612
H	 0.1392393926	-0.9666374998	 1.2862539762	 0.256762
H	-2.2313207559	-0.1876239777	-0.3848858703	 0.132411
H	-1.3288738892	-0.5356953066	-1.8640180316	 0.112519
H	-0.1283680619	-2.6620368707	-2.0520821518	 0.100436
H	 0.7244856683	-3.0272134752	-0.5220878133	 0.107975
H	-1.481604342	-4.7047971928	-1.6056655913	 0.099556
H	-0.8869623385	-4.3175468427	 1.1102258416	 0.284258
H	-3.0061030384	-3.0224147004	 0.3205190579	 0.106587
H	-2.8925434913	-2.6663624128	-1.4308585345	 0.096689
