16
gdb 80306	2.55399	1.51487	1.2497	2.8852	64.43	-0.2394	0.0213	0.2607	1024.242	0.123571	-475.036166	-475.027757	-475.026813	-475.069147	31.821	
O	-0.0036652064	 1.3907067082	-0.060494321	-0.426996
C	-0.0589171749	 0.0011230764	-0.0419733865	 0.037289
C	-0.4804724289	-0.7553688138	 1.2105620907	-0.135684
N	-1.1386704318	 0.0243271008	 2.2149344395	-0.314931
C	-2.3740020829	 0.5223605473	 1.8476313077	 0.400192
O	-3.0913602171	 1.2016460053	 2.5417668738	-0.361927
C	-2.6194000933	 0.06953955	 0.3973717511	-0.418968
C	-1.3876166819	-0.7305895336	-0.0000232718	 0.328247
O	-1.5426318702	-1.9112372261	-0.7233070957	-0.462369
H	-0.0182857811	 1.7035827534	 0.8522855972	 0.295035
H	 0.7108096383	-0.4774728516	-0.6436328805	 0.10848
H	 0.0375270909	-1.6542554484	 1.5227158715	 0.11929
H	-0.7600561066	 0.2036839673	 3.1312083926	 0.257623
H	-3.5113494712	-0.5618664041	 0.3589893679	 0.14194
H	-2.791927774	 0.9528160107	-0.2235039318	 0.144305
H	-1.6304916787	-1.6810580216	-1.6552892545	 0.288474
