23
gdb 117929	2.55542	0.77433	0.66406	3.2482	82.94	-0.2383	-0.0066	0.2317	1793.1779	0.202244	-425.449842	-425.438128	-425.437184	-425.488365	40.469	
C	-0.0903668648	 1.4517685441	-0.3914713642	-0.377085
C	-0.2157242317	-0.068920915	-0.3596971459	-0.285573
C	-1.3246120751	-0.5766841395	 0.5515946997	 0.383785
O	-1.934590988	 0.1613960962	 1.2919950302	-0.317968
C	-1.6455566719	-2.0742933567	 0.4735010785	-0.08502
C	-2.0135206972	-2.6183395963	 1.8594669256	-0.39495
C	-2.7769893437	-2.2512347107	-0.5660823686	-0.164355
C	-3.0558321633	-3.7027249197	-0.9420125823	-0.085797
O	-4.0171481411	-3.6899043039	-1.9865501596	-0.420225
H	 0.7484771491	 1.7599588014	-1.0217871413	 0.108641
H	-1.0022938891	 1.9108659609	-0.7829129718	 0.128725
H	 0.0644421427	 1.8478278368	 0.6149194319	 0.134426
H	-0.3730225321	-0.4837122864	-1.3643454376	 0.119899
H	 0.7176358154	-0.5339708486	-0.0084618967	 0.123325
H	-0.7544340939	-2.5936441262	 0.0950656334	 0.072512
H	-2.2565401272	-3.6834455472	 1.8213125179	 0.110668
H	-1.1842456386	-2.4903894648	 2.5620106112	 0.115697
H	-2.8718902665	-2.0737524072	 2.2602623498	 0.140825
H	-3.6957038624	-1.7928503048	-0.1835949058	 0.122788
H	-2.5246654491	-1.720558347	-1.4923295263	 0.10816
H	-2.1193353582	-4.1867593205	-1.2672758469	 0.08273
H	-3.4275027193	-4.2621733432	-0.0708339769	 0.092235
H	-4.2561829138	-4.5993404918	-2.1874685046	 0.286556
