13
gdb 131984	4.77339	1.08872	0.88741	3.5584	68.	-0.2316	-0.0917	0.1399	1192.9313	0.090714	-485.999857	-485.992351	-485.991406	-486.032098	27.671	
N	-0.097898585	 1.3577199062	 0.152861046	-0.589426
C	 0.0635433964	-0.0144278919	 0.0472101006	 0.414615
N	-1.0061694239	-0.8238590836	 0.0205103966	-0.280736
N	-0.4988999013	-2.067547067	-0.0043452464	-0.252691
C	 0.8482631791	-2.0561554024	-0.0077422439	 0.521035
C	 1.2738440856	-0.7447593641	 0.0277933928	-0.371961
N	 1.5829339065	-3.2827962834	-0.0405278022	 0.342642
O	 0.9210767556	-4.3210995738	-0.059628864	-0.387281
O	 2.8042603173	-3.2106417495	-0.0479456568	-0.352504
H	 0.6003710154	 1.899176227	-0.335632999	 0.256357
H	-1.0344168239	 1.6577868829	-0.0820858649	 0.260231
H	-1.0885995438	-2.8833391305	-0.0260176888	 0.298347
H	 2.290255192	-0.3923057599	 0.0465259799	 0.141373
