18
gdb 97076	5.66776	0.86031	0.77307	2.024	82.41	-0.2462	0.0248	0.2711	1462.5963	0.146705	-401.933218	-401.923981	-401.923037	-401.968439	33.057	
C	 0.0518622087	 1.4489219429	 0.0153117185	-0.334677
N	 0.0886585849	-0.0047415978	 0.0263218589	-0.326683
C	 0.5845581997	-0.6286168906	-0.9454854794	 0.430342
C	 0.7112708471	-2.1334613222	-1.0518073891	-0.321273
C	 0.8917476366	-2.3543747137	-2.5695807184	-0.20501
C	 1.6192521819	-1.0466558057	-2.9623093584	-0.089573
O	 1.0935609778	-0.0481775044	-2.0869437492	-0.246941
C	 1.6040028187	-3.560800601	-2.9519461355	 0.305419
C	 2.2095120241	-4.5499527002	-3.2671925508	-0.434505
H	 0.5351812298	 1.8226244332	 0.9249962735	 0.124614
H	 0.5326029626	 1.909601222	-0.8546127711	 0.122635
H	-0.9924454474	 1.7799304907	 0.0555723278	 0.124656
H	 1.603004804	-2.4700754443	-0.5118619277	 0.1384
H	-0.1533540285	-2.6402055852	-0.6248753384	 0.14342
H	-0.0973468819	-2.3490286198	-3.0439775907	 0.119709
H	 2.7013185279	-1.1448684295	-2.8124506182	 0.12024
H	 1.4280524792	-0.7373685108	-3.991736055	 0.128368
H	 2.7375778748	-5.4279962834	-3.5465314069	 0.20086
