18
gdb 91255	3.80043	1.20501	0.97491	5.1964	82.75	-0.2183	-0.0169	0.2014	1205.1062	0.148726	-401.952281	-401.944289	-401.943345	-401.984954	30.263	
C	 0.167638499	 1.2727028858	-0.1938975799	-0.336908
N	 0.0366248226	 0.0538982755	 0.576005341	-0.128284
C	-1.1304045332	-0.889520081	 0.5091828358	-0.215949
C	-0.1285792262	-2.0219672164	 0.9278632694	-0.081326
C	 0.3311274524	-3.2811432759	 0.1921340697	-0.371631
C	 1.8379770041	-2.9668291517	-0.1321954524	 0.396006
O	 2.6258875285	-3.7915074867	-0.5348600251	-0.346069
C	 2.0406021212	-1.5059547951	 0.0026760414	-0.39675
C	 0.9023190191	-1.0115517642	 0.5289466233	 0.379671
H	 1.1203139603	 1.7514730082	 0.0471514389	 0.145838
H	 0.1344801164	 1.0863132925	-1.2784739233	 0.12188
H	-0.6373588106	 1.9634661834	 0.0704638754	 0.136276
H	-1.9500063975	-0.6474381068	 1.1905976038	 0.117838
H	-1.5062401138	-0.9942368609	-0.5164039268	 0.115743
H	-0.1735639752	-2.172747832	 2.0093035904	 0.109901
H	 0.2330046766	-4.2096117432	 0.7581597637	 0.121034
H	-0.1794655032	-3.4201445241	-0.7670954362	 0.127868
H	 2.8907789294	-0.9903845373	-0.418689089	 0.104864
