15
gdb 49845	2.19991	1.58308	1.03692	5.2938	70.82	-0.2561	-0.0506	0.2056	1122.4773	0.111304	-453.966524	-453.957975	-453.957031	-454.000626	29.626	
N	 0.0612723791	 1.2839406464	 0.0199957792	-0.412379
C	-0.0149889757	 0.0220438771	-0.0606600652	 0.078112
N	-1.2310648255	-0.6488054695	-0.0116927857	-0.085283
C	-1.5095700035	-2.0839443255	-0.0784605524	-0.082827
C	-3.0346663041	-1.7430748098	-0.0496086054	-0.410642
C	-2.5830220609	-0.2673972155	 0.0329156484	 0.45155
O	-3.132950412	 0.7871529257	 0.1084440134	-0.31233
C	-1.0283498743	-2.7954119062	-1.3234967948	 0.15062
O	-0.3641238231	-2.2828063046	-2.1847272336	-0.23143
H	 1.0342782072	 1.5787674857	-0.0436753616	 0.234428
H	 0.8214973522	-0.6753780152	-0.1766158671	 0.108712
H	-1.1773253993	-2.6489529919	 0.8029465201	 0.117657
H	-3.5827714862	-1.9827958837	-0.9632032025	 0.15037
H	-3.5854130852	-2.1052194065	 0.8189675268	 0.14908
H	-1.3433464789	-3.8618261666	-1.3794187895	 0.094363
