21
gdb 60978	3.19224	0.92886	0.85901	2.3951	80.85	-0.259	-0.0345	0.2245	1442.5507	0.17937	-424.228816	-424.218633	-424.217689	-424.264122	37.492	
C	 0.0409090493	 1.5311384171	-0.2441620903	-0.452597
C	 0.0083198598	 0.0269019079	-0.0502950741	 0.334773
C	-1.2187613871	-0.6382808499	-0.6469403962	-0.44909
C	 1.3080168991	-0.7433103422	-0.0824588241	-0.34507
C	 0.5519713927	-0.5902461452	 1.2224374195	-0.047212
C	 1.1082880039	 0.2443786478	 2.3619960582	 0.028172
O	 0.0856973517	 0.7955069836	 3.1487155508	-0.438521
C	 2.0258103	-0.6076406647	 3.2191015063	 0.137042
O	 1.8454015937	-0.744691946	 4.4054611994	-0.264319
H	 0.9633713791	 1.983938526	 0.1284545254	 0.113063
H	-0.0339153732	 1.7779668903	-1.3094240027	 0.112894
H	-0.7975943547	 2.0100892457	 0.2727722027	 0.131857
H	-1.2735145254	-0.4611116464	-1.7274831886	 0.115132
H	-1.2070037556	-1.7208435781	-0.4864660493	 0.111982
H	-2.1363906823	-0.2425211485	-0.1970227016	 0.123433
H	 1.3309913479	-1.7215312516	-0.5510161009	 0.111715
H	 2.2266607332	-0.1761307207	-0.2028780567	 0.107371
H	 0.0121818077	-1.466903476	 1.5733502038	 0.089131
H	 1.7461941714	 1.042356776	 1.9405873362	 0.086132
H	 0.268988985	 0.5032977412	 4.055952089	 0.292477
H	 2.865890494	-1.1031351861	 2.6927068031	 0.101634
