15
gdb 18204	4.29101	1.70657	1.41393	3.1575	64.03	-0.254	0.0291	0.2831	864.3754	0.120746	-362.660087	-362.653462	-362.652518	-362.690988	25.207	
N	-0.4552455036	-1.0626851213	-0.6340884955	-0.324558
C	-0.2318041433	 0.0285191719	-0.3252531861	 0.276018
C	 0.0451579669	 1.4038271719	 0.0788966958	-0.178245
C	-0.3440276104	 1.6734780682	 1.5686157874	-0.107747
O	 0.5269212535	 2.6961944649	 2.0217372653	-0.247524
C	 1.7231954416	 2.6144554998	 1.2901526141	 0.110688
C	 2.4084883775	 1.2820530308	 1.1477417627	-0.326305
C	 1.5173418722	 1.8101555721	 0.037272729	-0.078161
H	-0.5195756016	 2.0737635684	-0.5786413103	 0.133036
H	-1.3732706717	 2.0202092546	 1.6814729733	 0.132307
H	-0.2215731971	 0.7560328942	 2.1573762052	 0.123351
H	 2.2853308916	 3.5390149591	 1.3316663344	 0.114668
H	 3.4759407395	 1.2934700997	 0.958150202	 0.126977
H	 2.0738553765	 0.4398911368	 1.7435165437	 0.134522
H	 1.9438546483	 2.0868133489	-0.9183245511	 0.110971
