19
gdb 56679	2.7162	1.33227	1.11972	4.006	75.35	-0.2613	0.0287	0.29	1151.8928	0.15901	-419.201221	-419.191857	-419.190913	-419.235357	34.591	
C	-0.1665160348	 1.635608818	-0.0770418171	-0.45906
C	 0.000659246	 0.1250383197	-0.0578592662	 0.439401
C	 0.7949836827	-0.4841778235	-1.2415237556	-0.327425
C	 1.8520453346	-0.8265764038	-0.176613345	-0.067364
O	 1.0258199887	-0.2895633853	 0.8846410829	-0.328014
C	-1.3229022228	-0.6180714973	 0.2533034106	-0.167726
N	-1.0610782753	-2.0475171652	 0.4013544761	-0.512672
C	-2.0021760157	-0.0400805681	 1.4344762934	 0.26782
N	-2.5490315216	 0.3630166551	 2.3703096757	-0.333036
H	 0.7841376801	 2.1120549079	-0.3298766846	 0.123853
H	-0.9108184026	 1.9344502439	-0.8238462469	 0.119721
H	-0.4885335051	 2.0058993442	 0.899704348	 0.155375
H	 0.3218664394	-1.3497105979	-1.7030093319	 0.130654
H	 1.0981470872	 0.2348551561	-2.0038498362	 0.108776
H	 2.0548706454	-1.8927223467	-0.0321486456	 0.111604
H	 2.8017500278	-0.2855189932	-0.2556989747	 0.108503
H	-1.9869541433	-0.4711051967	-0.6079339364	 0.130897
H	-0.4335358241	-2.1709413677	 1.1912431049	 0.253351
H	-1.9200010767	-2.5450249095	 0.6118102986	 0.245342
