17
gdb 86727	2.85378	1.23393	1.00031	3.5559	70.58	-0.2278	-0.0196	0.2083	1187.2962	0.136155	-455.170548	-455.161828	-455.160884	-455.204529	32.366	
N	-0.1366831771	 1.3995328742	-0.2671150178	-0.562212
C	-0.1035383005	 0.0465710921	-0.1299485528	 0.335841
N	-1.1224885024	-0.7313507036	-0.1853442519	-0.305626
C	-0.6469135745	-2.1018855374	 0.083420731	-0.076513
C	 0.8925332262	-2.0965538683	-0.0348507727	-0.276408
C	 1.2430899203	-0.6126623391	 0.1630939399	 0.056554
O	 2.3088978883	-0.0912395959	-0.6156074342	-0.435094
C	-1.1448868338	-2.5034493361	 1.4686764761	 0.159908
O	-0.4646651225	-2.9962429546	 2.3324200695	-0.247195
H	 0.7331771223	 1.8350674659	-0.5319263568	 0.262849
H	-0.980463864	 1.808886546	-0.6361951323	 0.26103
H	-1.1230978976	-2.7927560366	-0.6280043716	 0.094807
H	 1.3630477935	-2.7534896974	 0.6972175098	 0.137328
H	 1.1989538425	-2.4138759585	-1.037940789	 0.093919
H	 1.5279677993	-0.4007872198	 1.1999935579	 0.125413
H	 2.1745557466	-0.3752183915	-1.5272155135	 0.282719
H	-2.2204475967	-2.2763659893	 1.6315251484	 0.092679
