21
gdb 100473	4.6957	0.57866	0.54096	2.0554	90.74	-0.245	0.0293	0.2742	2095.4748	0.180151	-387.045272	-387.034702	-387.033758	-387.082706	37.099	
C	-0.1177733238	 1.5638849969	-0.0513519711	-0.394286
C	-0.0548427435	 0.0356313967	 0.0154967607	-0.157636
C	 0.7454643184	-0.5108202575	 1.22458679	-0.151169
C	 0.0996725144	-0.1586615	 2.5809130023	-0.383496
C	 0.9188485326	-1.9582271056	 1.103529104	 0.092766
C	 1.0427503648	-3.1536655358	 1.0089129526	 0.097565
C	 1.1656412603	-4.5796729876	 0.8762633793	-0.116167
C	 2.4509560184	-5.2775559961	 1.0798495134	-0.160816
O	 1.4312124155	-5.3429744084	 2.0674635744	-0.216613
H	 0.8868713855	 2.0016705752	-0.0664616539	 0.115427
H	-0.6330941794	 1.887510782	-0.9607825153	 0.116091
H	-0.6558567786	 1.9926350081	 0.7992393324	 0.121628
H	-1.0679068854	-0.383281228	 0.0491875564	 0.10551
H	 0.4061165881	-0.3493658487	-0.900611386	 0.106396
H	 1.7427835409	-0.0472088846	 1.1962955138	 0.101679
H	 0.6804755024	-0.5788826022	 3.4057952092	 0.128821
H	 0.0470529603	 0.9246031083	 2.7183293155	 0.116776
H	-0.9144204615	-0.566001612	 2.6404973288	 0.125214
H	 0.4412344003	-5.0519796012	 0.2130551408	 0.113844
H	 2.6454111344	-6.2019154033	 0.5367442206	 0.116601
H	 3.329018876	-4.6928391363	 1.3476127221	 0.121865
