15
gdb 128075	4.49973	1.04488	0.85254	1.0862	69.53	-0.2554	-0.0418	0.2136	1289.7149	0.113342	-453.972202	-453.963916	-453.962972	-454.006148	28.933	
C	 0.0461687849	 1.430659269	 0.0504582367	-0.336908
N	-0.0830573067	-0.0111728509	 0.0974605127	-0.324495
C	-1.2658735737	-0.6462698658	-0.0931281522	 0.344129
O	-2.3309235049	-0.096518334	-0.3201754855	-0.380505
C	-1.1857611398	-2.13891055	-0.004360973	 0.301344
N	-0.0568884884	-2.7654043641	 0.2383235797	-0.210796
O	-0.3658024258	-4.1120001156	 0.24685744	-0.165229
C	-1.6828165855	-4.2554459246	 0.0069082406	 0.081753
C	-2.2692172591	-3.0457688387	-0.1628119666	-0.320674
H	 0.7352446384	 1.7416396747	-0.7425150535	 0.130678
H	-0.9422599069	 1.8433656582	-0.1542294701	 0.171241
H	 0.4092775497	 1.8274376854	 1.0049579854	 0.130666
H	 0.7269601	-0.5847101967	 0.2777755096	 0.268619
H	-2.0436936137	-5.2717206115	-0.0105994186	 0.160423
H	-3.2967264585	-2.8021834454	-0.3675813553	 0.149755
