11
gdb 21406	4.11162	2.07036	1.37699	1.0489	57.31	-0.273	-0.0862	0.1867	793.8778	0.074512	-426.909328	-426.903066	-426.902122	-426.940189	22.82	
N	-0.0710759872	 1.3175183389	 0.0086242751	-0.512218
C	-0.0141161148	 0.0514800674	 0.0011501305	 0.469587
N	-1.1866386521	-0.7037192892	 0.0034668844	-0.399289
C	-1.2282441756	-2.0725473032	-0.0039072921	 0.525277
O	-2.2228854609	-2.7532403518	-0.0020405019	-0.367654
N	 0.063476931	-2.6096468801	-0.0140443109	-0.297604
N	 1.2309910564	-1.9231263755	-0.016809117	-0.009898
N	 1.2175546468	-0.667969045	-0.0097741079	-0.237309
H	 0.8761638877	 1.694160855	 0.0054479426	 0.246258
H	-2.0677998042	-0.2078250144	 0.0111944017	 0.287744
H	 0.1610139428	-3.613655552	-0.0201421646	 0.295108
