16
gdb 76541	2.74547	1.25818	1.18089	2.3717	67.77	-0.2252	-0.0239	0.2013	1103.7585	0.122826	-474.975592	-474.967069	-474.966125	-475.008906	31.615	
O	 0.1444088166	 1.309192138	 0.1692856741	-0.420989
C	 0.1014913071	-0.0902371512	 0.1183544154	-0.03516
C	-0.5991403539	-0.7638474208	 1.2695102477	 0.010239
O	-1.1454881975	 0.0581740583	 2.2462856946	-0.424196
C	-1.2627846792	-0.690263508	-0.1130351593	 0.185351
N	-2.5150860674	 0.0238113774	-0.3763954704	-0.375568
C	-3.0692740537	-1.1667797132	-1.1019977826	-0.28082
C	-1.6847411771	-1.834525216	-0.9797345332	 0.314946
O	-1.1624764346	-2.8277646729	-1.3972608069	-0.31184
H	 1.0018563559	 1.5631257277	 0.5299770784	 0.302619
H	 0.9403270109	-0.5849084359	-0.3683904475	 0.118366
H	-0.2666138026	-1.7250853277	 1.6489302057	 0.124178
H	-0.9327803959	 0.9661730213	 1.9796902941	 0.294015
H	-3.0080338287	 0.2242308009	 0.4904991808	 0.230031
H	-3.8586842747	-1.7139061368	-0.5733837725	 0.131415
H	-3.4035444052	-0.9469569111	-2.1204691785	 0.137413
