20
gdb 32424	2.92198	1.20141	0.91997	1.5416	83.59	-0.1854	0.0339	0.2193	1330.8625	0.170442	-403.186414	-403.176528	-403.175584	-403.221239	35.938	
C	-0.0489465875	 1.5501549392	 0.0843092251	-0.368062
C	-0.0353830724	 0.0133745593	-0.0087670531	-0.311749
C	 0.6948056709	-0.5102637462	-1.2090375895	 0.249794
C	 0.1725903838	-0.9774044067	-2.3733306557	-0.13901
O	 1.1472322609	-1.369167845	-3.2314790584	-0.190459
C	 2.3502458418	-1.1383952789	-2.6106848219	 0.320718
C	 3.5783189599	-1.5082457575	-3.3605607575	-0.49926
C	 2.1264192421	-0.6202941131	-1.3675169056	 0.001617
N	 3.0622430848	-0.3353505781	-0.3541935521	-0.613054
H	 0.9655033013	 1.9628973179	 0.1228140245	 0.107628
H	-0.5436715893	 1.9875845384	-0.7882073399	 0.121775
H	-0.5770980597	 1.8850014188	 0.9828951623	 0.112284
H	 0.4243966683	-0.3988778214	 0.8983487319	 0.112768
H	-1.0682255205	-0.3521714699	-0.0247958829	 0.103689
H	-0.8402289079	-1.0956671294	-2.7239738638	 0.124199
H	 3.5301964565	-1.1512583338	-4.3951989251	 0.136566
H	 4.4593597763	-1.0556851786	-2.8944334693	 0.117639
H	 3.7447351069	-2.5927861464	-3.3953184364	 0.134058
H	 4.0177430667	-0.3825152524	-0.6858378044	 0.236482
H	 2.9119927771	 0.5738388838	 0.0671684419	 0.242378
