21
gdb 9282	4.94022	0.88513	0.84792	3.6745	76.51	-0.2494	0.0336	0.2829	1430.936	0.187564	-366.301205	-366.291196	-366.290251	-366.337153	35.091	
C	 0.1806698852	 1.5856294746	 0.1239113084	-0.391519
C	-0.0529374356	 0.0848013506	-0.07424148	-0.163551
C	 0.6638311315	-0.5214983345	-1.2949041096	 0.03178
C	 2.1913041154	-0.4553183678	-1.1775686767	-0.384819
C	 0.179177068	-1.9694353353	-1.4999584825	-0.165121
N	 0.6741990181	-2.5881175409	-2.7197740692	-0.275173
C	 1.4887851923	-3.6773158605	-2.7351143508	 0.153313
O	 1.9049816067	-4.2602514354	-1.7564300286	-0.323524
H	 1.2312443249	 1.8133907009	 0.3264603949	 0.121856
H	-0.1174916378	 2.1530070794	-0.7651445583	 0.112338
H	-0.4045321382	 1.9621822314	 0.9685463241	 0.11472
H	 0.2617301988	-0.4581756743	 0.827545849	 0.100474
H	-1.1315454325	-0.0949236267	-0.1744864348	 0.090981
H	 0.3597375127	 0.0582888175	-2.1812019678	 0.059937
H	 2.6730273742	-0.9246625654	-2.039766071	 0.117592
H	 2.5465379378	 0.5772285849	-1.1213836948	 0.113592
H	 2.5349308826	-0.9815879709	-0.2796734952	 0.123865
H	 0.5196747261	-2.6073380098	-0.6796613126	 0.14723
H	-0.9183618554	-1.9904425093	-1.5041235785	 0.101457
H	 0.3953350877	-2.1988091451	-3.6066883915	 0.244053
H	 1.7377812075	-3.9844062634	-3.7710705444	 0.07052
