19
gdb 62161	1.99029	1.12279	0.81822	0.4518	75.32	-0.2557	0.0195	0.2752	1437.4211	0.157615	-456.371889	-456.36149	-456.360546	-456.410047	35.333	
C	-0.222747795	 1.7659564814	 0.0729563395	-0.397766
C	-0.1943672637	 0.2548644705	-0.1048870368	 0.104544
C	-1.546358665	-0.3054470648	-0.5665800842	-0.162396
N	-1.519146683	-1.7410546796	-0.7749679258	-0.273466
C	-1.8180181465	-2.6227597282	 0.2167007707	 0.148379
O	-2.1590117332	-2.311612214	 1.3389904374	-0.325177
O	 0.7861917821	-0.064649155	-1.1032965536	-0.196474
C	 1.6707495383	-1.0448551905	-0.8392141839	 0.115195
N	 2.4090829386	-1.4941241986	-1.7598751352	-0.448311
H	 0.752035544	 2.1306887518	 0.4060429552	 0.131322
H	-0.4666180456	 2.2592782527	-0.8728111484	 0.133713
H	-0.9723662177	 2.0490695567	 0.8177587556	 0.128964
H	 0.0777160567	-0.2353257381	 0.8387054344	 0.106095
H	-2.3021153178	-0.0950333505	 0.1941133814	 0.145229
H	-1.8398835381	 0.1834409276	-1.5007067983	 0.12008
H	-1.1675735769	-2.0961371239	-1.6499090972	 0.265131
H	-1.7243316905	-3.673615339	-0.1204618707	 0.081747
H	 1.6708634953	-1.3629384253	 0.2125468329	 0.093833
H	 3.038866638	-2.1997769332	-1.383702383	 0.229358
