18
gdb 95737	2.95891	1.23973	0.91517	1.9797	83.05	-0.2472	-0.021	0.2262	1276.24	0.147335	-401.934364	-401.925734	-401.924789	-401.967616	32.628	
C	-0.0461997559	 1.5483327604	 0.0008949254	-0.38553
C	 0.0404888959	 0.0212792398	-0.0193045192	 0.054464
C	 0.7500733997	-0.5145654961	-1.2692366482	-0.230773
C	 1.0285479395	-1.9981055785	-1.0803344853	-0.088269
O	 1.7757598098	-2.2345814933	 0.1221266259	-0.258137
C	 1.4665606287	-1.4332434142	 1.179364993	 0.20282
N	 0.6881871892	-0.4296043296	 1.2140857666	-0.327132
C	 2.163550037	-1.8577942694	 2.3613517664	 0.27333
C	 2.7494698891	-2.2156046299	 3.3473312003	-0.338137
H	 0.9560241501	 1.9890997294	-0.0017989213	 0.119416
H	-0.5902202733	 1.9197977071	-0.8737476217	 0.106243
H	-0.5593474719	 1.8846043491	 0.9051542568	 0.128507
H	-0.9865124973	-0.3743158031	-0.003267653	 0.089253
H	 0.1444758153	-0.3590243109	-2.1679898087	 0.10477
H	 1.6975414678	 0.0186813518	-1.4132440739	 0.113804
H	 0.0909731382	-2.5667319134	-1.0214972217	 0.114298
H	 1.6338230092	-2.417736865	-1.8870265209	 0.120881
H	 3.2629999589	-2.5238923542	 4.2245532595	 0.200192
