17
gdb 4494	3.59632	1.67021	1.15697	1.6954	73.46	-0.1712	0.0496	0.2208	1032.4879	0.141147	-363.90816	-363.899089	-363.898145	-363.941976	32.008	
C	 0.0000795216	 1.4842636853	 0.0611086146	-0.503532
C	 0.0215877664	-0.0045758476	-0.045469862	 0.328226
C	 0.0239634373	-0.8281800993	-1.1526204278	-0.369094
C	 0.0508324423	-2.1710791264	-0.6798075499	 0.262693
O	 0.0621697429	-3.3256200097	-1.4184370638	-0.45726
C	 0.0642184077	-2.1541572127	 0.6957006105	 0.218992
C	 0.0918412699	-3.2720598128	 1.6802541379	-0.51319
N	 0.045678437	-0.8159339803	 1.0590524016	-0.355846
H	 0.8884906642	 1.8782401659	 0.5715223032	 0.124065
H	-0.0284619501	 1.9281681985	-0.93669745	 0.134691
H	-0.8779761331	 1.8494960896	 0.6092854268	 0.123753
H	 0.0082896176	-0.5014143943	-2.1824830264	 0.079646
H	 0.0491753749	-3.0873998244	-2.3490433418	 0.293054
H	 0.9819625112	-3.246361138	 2.3231213112	 0.117721
H	-0.7863586965	-3.2753916521	 2.3398065735	 0.117741
H	 0.1023495633	-4.2219108454	 1.1409007222	 0.149237
H	 0.0498265833	-0.4886557362	 2.0093425804	 0.249104
