17
gdb 75098	2.83952	1.36778	0.98155	3.6029	77.35	-0.2487	-0.0589	0.1898	1182.6274	0.135046	-421.891144	-421.882695	-421.881751	-421.924568	31.258	
C	-0.1208764497	 1.5473188596	 0.0546288377	-0.476922
C	-0.0519817662	 0.0470216257	-0.0105706399	 0.211703
C	-0.0062627867	-0.6447091709	-1.160272938	-0.148707
C	 0.1031514216	-2.1395563726	-1.2792042229	-0.36262
C	 0.5291490399	-2.8038838085	 0.023541346	 0.3744
O	 1.3000773615	-3.729566099	 0.059929619	-0.295447
C	-0.0939650023	-2.1910404521	 1.2624672804	-0.407655
C	-0.0020503323	-0.6629558929	 1.294933331	 0.315334
O	 0.0884377288	-0.0669659334	 2.3470310656	-0.310889
H	 0.7301026639	 1.9459797695	 0.6154359388	 0.148428
H	-0.126865662	 1.9886433312	-0.9447688891	 0.117122
H	-1.0185491575	 1.8731975774	 0.5903709715	 0.140667
H	-0.0278518592	-0.0992078564	-2.1015252187	 0.110718
H	-0.8729128169	-2.560440162	-1.5696755601	 0.144899
H	 0.8041364173	-2.428124923	-2.068665705	 0.142106
H	-1.1671749578	-2.4350957689	 1.2428585742	 0.148211
H	 0.3355678278	-2.6128890836	 2.1717915692	 0.148651
