18
gdb 98453	3.11028	1.19426	1.03436	2.3611	68.78	-0.2257	0.0037	0.2294	1211.6211	0.146317	-476.218518	-476.209037	-476.208093	-476.253637	33.669	
C	 0.169126523	 1.3713317305	-0.0570644238	-0.244478
O	 0.1058254065	-0.0606317787	 0.0007358548	-0.261797
C	 0.6467261676	-0.6253468642	 1.1074962018	 0.404902
O	 1.1568632089	 0.0052057068	 1.9940006307	-0.349756
C	 0.5519780831	-2.1429489229	 1.0247136682	 0.267547
O	-0.5754276995	-2.5729879101	 0.311255209	-0.473577
C	 1.9260999953	-2.7910079917	 0.6277073492	-0.217843
N	 2.1593093282	-3.1181494017	 2.0502369841	-0.300898
C	 0.7387922858	-2.8554803342	 2.3846404802	-0.200827
H	 1.2083124883	 1.7074617585	-0.0308699768	 0.147435
H	-0.3024512418	 1.6532204612	-0.9982245474	 0.136486
H	-0.3654518251	 1.8110608593	 0.7881359144	 0.147714
H	-0.7626169319	-1.909228414	-0.3628443464	 0.290772
H	 1.7308650348	-3.6455550117	-0.0330976862	 0.10273
H	 2.6916051869	-2.1483314674	 0.1785782703	 0.104948
H	 2.4695117816	-4.0671614935	 2.2223956291	 0.221024
H	 0.5962181961	-2.2440746709	 3.2795222921	 0.121125
H	 0.0921899423	-3.7406703152	 2.4245206268	 0.104493
