15
gdb 67553	2.58107	1.84213	1.54169	2.6077	65.81	-0.2423	0.0128	0.2551	897.5393	0.111991	-453.8699	-453.862322	-453.861377	-453.901826	29.149	
O	 0.1131506511	 1.434967575	-0.0741890205	-0.480715
C	 0.0011632833	 0.0599615171	-0.0219095978	 0.331491
C	 0.3374002104	-0.6770608855	-1.3585007813	-0.016994
O	 0.3478153607	-2.0834732966	-1.1108099027	-0.230247
C	-0.9146373989	-1.4467866347	-1.3247547321	-0.005703
C	-1.3405823937	-0.7759463072	 0.0218056367	-0.115167
N	-0.84756592	-1.380004294	 1.2652031422	-0.323139
C	 0.379669344	-0.7003055536	 1.2471750795	 0.302971
N	 1.3929669834	-0.5995169608	 1.9943402815	-0.558207
H	 0.4622560634	 1.7286930779	 0.7754368144	 0.304015
H	 0.9338993514	-0.2898517835	-2.1766941907	 0.118861
H	-1.5428094809	-1.8296927553	-2.1207409148	 0.112942
H	-2.3282360082	-0.318002166	 0.0612046539	 0.098095
H	-0.9510614059	-2.3528747074	 1.5213271431	 0.245405
H	 1.3431039899	-1.2209926954	 2.8034495386	 0.216394
