18
gdb 111169	4.21296	1.02189	0.95156	1.3059	72.79	-0.241	0.072	0.313	1256.9462	0.147797	-438.969652	-438.961583	-438.960639	-439.002494	30.894	
O	 0.1037307822	 1.421144818	-0.1533742693	-0.421002
C	 0.0739471298	 0.0304242238	 0.151174335	-0.11992
C	-1.3421581307	-0.5190542357	 0.1063917458	 0.0424
C	-2.0041957686	-0.8240031711	-1.2759573288	-0.172857
N	-1.0342455472	-1.9960905044	-1.4001430887	-0.334784
C	-1.5640898961	-2.060615436	 0.033032803	-0.17721
C	-2.9658453133	-1.7487777651	-0.5144674205	 0.552479
C	-4.343605933	-1.7468528329	-0.046894646	-0.311516
O	-3.8699956679	-2.6612411249	-1.0734919262	-0.301412
H	-0.0607390974	 1.513416482	-1.0968877652	 0.283472
H	 0.7269414959	-0.5479000628	-0.5102234502	 0.11993
H	 0.4615005796	-0.0545634576	 1.1724340288	 0.1061
H	-1.9914617615	 0.0102010458	 0.8091410839	 0.079609
H	-2.2082991563	-0.1480226803	-2.1074110767	 0.086084
H	-1.4775555563	-2.7365075204	-1.951304757	 0.227598
H	-1.2456423262	-2.8319852235	 0.7345948362	 0.090929
H	-4.6032262425	-2.2180755503	 0.8995272196	 0.12498
H	-5.0428626507	-0.9895359848	-0.3971118238	 0.125119
