18
gdb 50712	3.23094	1.19395	0.90827	0.7582	74.12	-0.2487	-0.0383	0.2103	1244.8637	0.147722	-439.098154	-439.089718	-439.088774	-439.131995	30.691	
O	-0.9157608478	 1.0706559826	 0.4751121002	-0.242342
C	 0.1327377255	 0.878173391	-0.0799385431	 0.141808
C	 1.3317269972	 1.816885244	 0.0294840809	 0.036612
C	 1.5021442439	 2.3810853863	 1.4351638846	-0.202337
C	 2.4962562809	 3.5386006204	 1.4765206337	-0.232437
C	 3.9501369332	 3.1133662648	 1.2408772531	-0.142824
N	 4.3163825372	 2.4887813764	-0.017702718	-0.238954
C	 3.6668155128	 1.625893671	-0.6596072618	 0.115803
O	 2.430675147	 1.0641491147	-0.4823564717	-0.247534
H	 0.3120081419	 0.0003157208	-0.7366236189	 0.101892
H	 1.1379815569	 2.6554394802	-0.6617405252	 0.112603
H	 0.5084080309	 2.7066340068	 1.7588623881	 0.130792
H	 1.8135292347	 1.5750647368	 2.1117074627	 0.108382
H	 2.2097498819	 4.2947902059	 0.7336283607	 0.104143
H	 2.4500630131	 4.0295082185	 2.4557556601	 0.104554
H	 4.5948518069	 3.9910183385	 1.3593382497	 0.11204
H	 4.2451035912	 2.4159331864	 2.0398268795	 0.117136
H	 4.1323736927	 1.1460146249	-1.5215613045	 0.120661
