21
gdb 56740	2.78616	1.31173	1.07556	0.531	88.24	-0.2566	0.0563	0.3128	1209.5256	0.181955	-349.877142	-349.868309	-349.867365	-349.910699	34.57	
C	-0.0089149664	 1.5474022832	-0.012551572	-0.395465
C	-0.0419672116	 0.0059622846	 0.0334188085	-0.296646
C	 0.7003703371	-0.5054394351	 1.1859568696	 0.334417
C	 1.2933870546	-0.91784118	 2.1472833799	-0.484203
C	-1.4677402952	-0.5312437154	 0.0333575258	 0.388726
C	-2.5664904234	-0.2814859782	-1.0487646512	-0.272305
C	-3.2234641472	-1.2026430243	 0.0175931432	-0.05016
C	-1.9056993809	-2.0267543669	 0.0215593004	-0.259874
C	-2.5794321123	-0.2952058338	 1.1037244412	-0.248128
H	 1.021079162	 1.9113111997	-0.0414749605	 0.124735
H	-0.5315256075	 1.9109547683	-0.9020394881	 0.118325
H	-0.494117558	 1.9697987825	 0.871808111	 0.129124
H	 0.4459514027	-0.3711145248	-0.8774967275	 0.103736
H	 1.8263095792	-1.285769473	 2.9886445771	 0.193404
H	-2.9595296222	 0.7361896468	-1.1267024036	 0.088983
H	-2.3885541396	-0.7192667077	-2.0357469425	 0.087031
H	-4.2420474714	-1.5905223947	 0.0073019498	 0.071763
H	-1.6772465567	-2.5941405577	-0.8857549695	 0.085182
H	-1.6844612086	-2.6035479643	 0.9229727932	 0.097409
H	-2.4099181237	-0.744272242	 2.0855577954	 0.097041
H	-2.973491761	 0.7216021827	 1.1887746997	 0.086904
