22
gdb 9762	2.88708	1.65067	1.45591	1.3366	76.94	-0.2631	0.0701	0.3332	1012.1329	0.200987	-350.221776	-350.212779	-350.211835	-350.255296	33.851	
C	-0.4095769337	 1.6617541243	 0.1243255366	-0.444974
C	 0.0615652937	 0.2068801414	 0.0197003632	 0.302865
C	-1.1596015624	-0.718077452	-0.1062575201	-0.096679
O	-1.8517314276	-0.4104395674	-1.309865175	-0.425041
C	 1.0397539904	-0.0215796671	-1.1562164298	-0.218435
C	 1.8091211272	-1.3128382042	-0.8089676968	-0.213201
C	 1.8066303333	-1.3998766252	 0.7455855826	-0.205726
C	 0.9097176965	-0.2351773318	 1.2363485507	-0.240053
H	 0.4447988183	 2.3443710418	 0.1827919389	 0.103003
H	-1.0145889488	 1.9393623577	-0.7425962253	 0.129973
H	-1.0215841482	 1.813938403	 1.0213068876	 0.101904
H	-0.841394662	-1.7719236898	-0.0996980595	 0.082294
H	-1.8105179164	-0.5679892718	 0.7706094861	 0.080757
H	-2.6093444476	-0.9975583942	-1.3807860001	 0.286398
H	 0.5197123349	-0.0759107815	-2.115248377	 0.10981
H	 1.7322915339	 0.8272780356	-1.2058503142	 0.084803
H	 1.3083471283	-2.1849544795	-1.2412425744	 0.098344
H	 2.8218264847	-1.3061270371	-1.2215187175	 0.093139
H	 1.4179638954	-2.366538965	 1.0797176821	 0.095421
H	 2.8158489492	-1.3176692243	 1.1587586217	 0.095904
H	 1.5289807668	 0.6106877996	 1.5555754577	 0.092975
H	 0.2918437439	-0.5113570725	 2.0983033626	 0.08652
