21
gdb 89156	2.29192	1.44508	1.18796	1.9635	78.05	-0.2377	0.0719	0.3096	1158.3212	0.181164	-424.199079	-424.189762	-424.188817	-424.232669	36.112	
C	 0.1726985035	 1.5997802683	-0.0891492478	-0.421575
C	 0.1154522641	 0.0848836169	 0.0384175054	-0.015936
C	 1.0090243295	-0.8112204247	-0.8765486116	-0.264293
C	 1.3302897705	-1.7404517536	 0.3318994024	-0.080867
C	 2.7073022783	-1.5071109624	 0.9720074359	 0.139064
O	 3.7618925013	-1.3624711504	 0.0473312226	-0.431594
C	 2.1585754538	-0.2317025854	 1.6895008028	-0.355894
C	 0.711193187	-0.6491767587	 1.2672965437	 0.397312
O	-0.1476648553	-1.0331224375	 2.3063747402	-0.488346
H	 1.1994116824	 1.9756546591	-0.0242554308	 0.115513
H	-0.2322842391	 1.9253011835	-1.053634699	 0.118128
H	-0.4147339722	 2.0925281194	 0.6948944495	 0.10527
H	-0.9241257813	-0.2538598953	-0.041788775	 0.07637
H	 0.4944902605	-1.2897062503	-1.7115318555	 0.099817
H	 1.8980707069	-0.3071079357	-1.2620143677	 0.116067
H	 0.9454275624	-2.7584185491	 0.2791255769	 0.068965
H	 2.9305042031	-2.2960406626	 1.7036569806	 0.071623
H	 4.5682723508	-1.1719480873	 0.5367316852	 0.28265
H	 2.3136995457	-0.199205187	 2.7706226206	 0.094899
H	 2.5173222123	 0.6987125183	 1.242383647	 0.098046
H	-0.334696544	-0.2561492954	 2.8451097845	 0.274777
