21
gdb 75171	4.25941	0.86539	0.80251	0.9465	90.71	-0.2282	0.0321	0.2603	1499.6143	0.181615	-349.94653	-349.937104	-349.93616	-349.980965	35.635	
C	-0.120894714	 1.5226136206	 0.0598101856	-0.49368
C	-0.0172580192	 0.0316918011	-0.0063835389	 0.344919
C	-0.0768931346	-0.741435635	-1.0927008251	-0.161002
C	 0.0197981014	-2.2113965262	-0.7701809114	-0.261924
C	 0.4908053243	-2.2240467797	 0.7114764023	 0.013874
C	 2.015444057	-2.4681339291	 0.8181528655	-0.35966
C	 2.4307773209	-3.7844302251	 0.3488544813	 0.300578
C	 2.7491536445	-4.878127245	-0.0365367926	-0.446376
C	 0.1328365819	-0.8108018448	 1.2447772719	-0.321748
H	 0.7717175652	 1.9641572865	 0.521651647	 0.122467
H	-0.243278179	 1.9641502535	-0.9330360821	 0.122409
H	-0.9734503349	 1.83431541	 0.6773873902	 0.123401
H	-0.2128817447	-0.3723126802	-2.1043041332	 0.081442
H	-0.9560209167	-2.7038691954	-0.8846042405	 0.101721
H	 0.7110831547	-2.7580514726	-1.4217846573	 0.112271
H	-0.0141410971	-3.008144057	 1.2814032226	 0.078806
H	 2.5391750696	-1.690604341	 0.2455500633	 0.131777
H	 2.3272488065	-2.3432103584	 1.862948087	 0.125353
H	 3.0420897848	-5.8408641844	-0.3746538902	 0.192051
H	 0.897452779	-0.4177077384	 1.9284170297	 0.09325
H	-0.8061100797	-0.8190455693	 1.816544835	 0.100069
