14
gdb 46811	2.78589	1.66565	1.18654	3.2647	70.01	-0.2647	-0.0145	0.2501	1003.646	0.100234	-436.637987	-436.630473	-436.629529	-436.669987	28.522	
N	-0.0381361424	 1.2514033641	 0.2923161886	-0.533394
C	 0.0000227175	 0.0298333594	-0.0091290948	 0.356881
O	 1.1297605729	-0.6912318798	-0.2822615246	-0.252814
C	 0.819016421	-1.981799111	-0.8345696151	-0.115746
C	-0.6650785963	-2.166928775	-0.6205713321	-0.068805
O	-1.0327031736	-2.0311978981	 0.7427849795	-0.283207
C	-1.1935293072	-0.8772721324	-0.1278164408	 0.199711
C	-2.5117096329	-0.3706385239	-0.3395931145	 0.223557
C	-3.6188455547	 0.0559252318	-0.5226964387	-0.350347
H	 0.8998941554	 1.6558251533	 0.2852105137	 0.231015
H	 1.0730800059	-1.993013534	-1.900869193	 0.126397
H	 1.4178380359	-2.7318142446	-0.3097530178	 0.1388
H	-1.2486305801	-2.8530030256	-1.2265703938	 0.12764
H	-4.5960536215	 0.4432485858	-0.6754361664	 0.200312
