18
gdb 76075	2.24995	1.38246	1.16512	1.7043	80.83	-0.2286	-0.0282	0.2005	1169.3016	0.1438	-401.897982	-401.888078	-401.887134	-401.932973	35.582	
C	-0.347147431	 1.3670650822	 0.057704846	-0.3251
N	 0.1551480013	-0.0070267929	 0.1099180562	-0.109872
C	 1.4667351722	-0.324651897	-0.4324985864	-0.216926
C	 2.3419544446	 0.667911698	-0.9898256779	 0.385147
C	 3.0683022716	 1.4598453823	-1.5288969486	-0.464223
C	 1.1885472393	-0.4046342711	 1.0656184572	-0.121538
C	 1.8805597271	 0.5309538954	 2.0166407908	 0.393949
C	 2.3853349993	-0.1220508794	 3.291553085	-0.486515
O	 2.0289430379	 1.7140249386	 1.7995730131	-0.315591
H	 0.4161729032	 2.1350684941	 0.1972934861	 0.16109
H	-0.8316491842	 1.4995443056	-0.9139872718	 0.125451
H	-1.1083981196	 1.4764511652	 0.8354282322	 0.122817
H	 1.5027212296	-1.2829781605	-0.9490888659	 0.121422
H	 3.71289062	 2.1724215939	-1.9812147169	 0.203618
H	 1.0354684612	-1.4058395094	 1.4649760616	 0.096854
H	 3.0347456984	-0.9733765223	 3.0570260809	 0.141627
H	 2.9330195258	 0.6094825456	 3.8860769833	 0.144051
H	 1.5446098032	-0.5151803381	 3.8751370752	 0.143737
