21
gdb 82391	2.38851	1.67017	1.11532	1.5333	83.93	-0.2349	0.0243	0.2592	1146.9552	0.18369	-387.098446	-387.089846	-387.088902	-387.131286	34.03	
C	 0.7808656069	 1.22319008	 0.033394606	-0.463369
C	 0.1133853482	-0.1244832734	-0.0415855159	 0.27548
C	-0.0703257678	-0.7638942872	-1.2005563196	-0.16159
C	-0.7697249914	-2.0846012398	-1.3656212894	-0.276098
C	-0.8870894299	-2.876054783	-0.0763187979	-0.034933
C	 0.3437744111	-3.1323767121	 0.7553741598	-0.306901
C	-0.7147597959	-2.1618247869	 1.2394951452	-0.037822
C	-0.4026298161	-0.6795529093	 1.275188576	 0.019293
O	 0.4738694007	-0.374866239	 2.3660370526	-0.432373
H	 1.6599049013	 1.1975652159	 0.6841692282	 0.12746
H	 1.0836593461	 1.5700571799	-0.9580760402	 0.110939
H	 0.1056930924	 1.9712776454	 0.4685857558	 0.122499
H	 0.2815455103	-0.2940240903	-2.1174586707	 0.07726
H	-1.7762846852	-1.9076811586	-1.7739454342	 0.111631
H	-0.2515330566	-2.6838805389	-2.1272828055	 0.104733
H	-1.622893433	-3.6743063518	-0.0997780643	 0.082224
H	 0.4361045157	-4.0846873481	 1.2652324992	 0.110318
H	 1.2814493117	-2.724995939	 0.3890037069	 0.111874
H	-1.32215183	-2.4975452847	 2.0742456993	 0.087388
H	-1.3231225216	-0.133471588	 1.5279558119	 0.094048
H	 1.2116244129	-0.992601431	 2.3073947068	 0.277937
