17
gdb 18887	3.46218	2.71746	2.53292	1.5164	65.3	-0.2095	0.0798	0.2892	668.6385	0.147085	-363.840745	-363.835575	-363.834631	-363.869641	22.639	
C	 0.0244913587	 1.5128026518	-0.0066123234	-0.186607
C	 1.5277584984	 1.8762716097	 0.0012316414	 0.095799
O	 2.0436742602	 1.6900993535	 1.3439004876	-0.301567
C	 2.159232698	 0.2732191303	 1.0563464914	 0.095799
C	 0.7719612701	-0.3847148689	 1.2423143954	-0.186607
N	 0.0051485555	 0.020607076	 0.0274509429	-0.110818
C	 1.0026557288	-0.2832040839	-1.0311319568	-0.195547
C	 2.1691329529	 0.5401127239	-0.4783774832	-0.080384
H	-0.4957382271	 1.935178559	 0.8556894304	 0.114327
H	-0.4726508074	 1.8466948682	-0.9238891477	 0.100843
H	 1.800959625	 2.8436740898	-0.4259213466	 0.075796
H	 2.9983347612	-0.1959679796	 1.5747452566	 0.075796
H	 0.8370227441	-1.4780175563	 1.2644005267	 0.100843
H	 0.2813642221	-0.0375705731	 2.1541309437	 0.114327
H	 1.2018815077	-1.3577677348	-1.0784461926	 0.105207
H	 0.6454170988	 0.0548589675	-2.0082246354	 0.105207
H	 3.1251258331	 0.5769481669	-0.9945606505	 0.077584
