17
gdb 81309	2.3646	1.69745	1.60666	3.576	67.56	-0.2351	0.0132	0.2483	938.9174	0.139607	-455.15119	-455.143977	-455.143033	-455.182647	28.885	
O	 0.1581773293	 1.4334419809	 0.1674048808	-0.432156
C	 0.0142165459	 0.0564266224	-0.0057170391	 0.154509
C	-1.3798898581	-0.631139887	-0.0934257697	-0.071388
C	-2.3356573558	 0.193262674	-0.9502911904	-0.15613
N	-1.610137057	 0.6731516231	-2.1303192913	-0.330481
C	-0.3749970095	 0.1801468027	-2.4924722369	 0.432496
O	 0.1592051993	 0.42994913	-3.5507585278	-0.370737
C	 0.2478324257	-0.6517098048	-1.3748575348	-0.191798
N	-0.7839328542	-1.6826674601	-0.9870209117	-0.322018
H	-0.2912669361	 1.8769259943	-0.562934666	 0.2945
H	 0.6219219095	-0.4229185002	 0.7669742513	 0.098663
H	-1.8722638758	-0.9852976047	 0.8146122142	 0.080138
H	-3.1882414118	-0.4303710633	-1.2450840752	 0.125645
H	-2.7144179533	 1.0456597447	-0.3727589668	 0.116184
H	-2.1253883423	 1.1278166756	-2.8709657048	 0.251105
H	 1.2325066192	-1.0100179567	-1.6715265044	 0.093436
H	-0.3223131149	-2.3761184509	-0.4003088576	 0.228033
