11
gdb 21504	5.3675	1.65886	1.26722	2.8504	52.41	-0.2691	-0.0582	0.2109	853.8561	0.073218	-430.744395	-430.737672	-430.736728	-430.776036	23.418	
N	-0.0746657857	 1.312797045	 0.0082375936	-0.533797
C	 0.0549640592	-0.0391361242	 0.0014224528	 0.341073
O	 1.1080167137	-0.6365820397	-0.0103718956	-0.331716
C	-1.2643222626	-0.7665210326	 0.0097576362	 0.286864
N	-2.4108707974	-0.1351908877	 0.0213536444	-0.173022
O	-3.3523078358	-1.1578182728	 0.0254790503	-0.151636
C	-2.6511558137	-2.2992460338	 0.0156960639	 0.113691
N	-1.3689102833	-2.1389557442	 0.0057699097	-0.2815
H	 0.7610832885	 1.8728094555	 0.0020745342	 0.27071
H	-0.9786591649	 1.7546379661	 0.0166575477	 0.28163
H	-3.215343628	-3.2200565415	 0.0170803428	 0.177704
