18
gdb 75621	2.04038	1.77167	1.10296	2.8423	72.38	-0.2401	-0.0334	0.2067	1117.2897	0.145545	-439.055595	-439.046219	-439.045275	-439.090012	33.777	
C	-0.7521622954	 1.2148502241	-0.0606955724	-0.407964
C	 0.0067670445	-0.103609797	-0.0550159764	-0.191535
C	 1.3765008047	-0.145596296	-0.7600000982	 0.326681
O	 1.8813408925	 0.5258576387	-1.6163161934	-0.306985
C	 1.9884538617	-1.0477598546	 0.3227425671	 0.006588
O	 3.3080938292	-0.8206144515	 0.7134230637	-0.426835
C	 0.7935990654	-0.5801728627	 1.1898359176	 0.27429
C	 0.8863605126	 0.0891111305	 2.501011538	-0.296459
N	 0.3232623634	-1.2782312916	 2.3746217107	-0.370239
H	-0.1105782157	 2.0385352204	 0.2647104664	 0.129001
H	-1.1078481548	 1.4461572723	-1.0687887563	 0.138723
H	-1.6230617504	 1.1746437137	 0.601956529	 0.119061
H	-0.6259275725	-0.9212506357	-0.4271122795	 0.109176
H	 1.8649855353	-2.1126155223	 0.0822690209	 0.117215
H	 3.5869992407	 0.0185238758	 0.3277659949	 0.295607
H	 1.8481934177	 0.1360003279	 3.003122528	 0.135567
H	 0.210596624	 0.9132381741	 2.7138782575	 0.116495
H	-0.6930372531	-1.235706676	 2.4262627025	 0.231615
