16
gdb 35554	2.6374	1.62838	1.48311	4.4301	67.31	-0.2683	0.0149	0.2831	947.4217	0.125875	-437.878569	-437.871292	-437.870348	-437.910631	27.408	
N	 0.9836270278	-0.7100357647	 0.6769669987	-0.329124
C	 0.465475866	 0.2869795696	 0.407483644	 0.291367
C	-0.2147486185	 1.540770498	 0.0187848292	-0.049868
C	-0.8856721198	 2.2586356865	 1.2148427548	-0.263343
C	 0.2030572184	 3.2163388435	 1.6826202661	 0.099326
O	 1.2322913985	 2.5778685522	 2.465031033	-0.289267
C	 2.229377784	 2.8053475452	 1.4380770209	-0.10884
C	 1.1586032367	 3.3591576123	 0.4760470057	 0.059229
O	 0.6988985168	 2.4801611809	-0.5398769652	-0.252144
H	-0.933658249	 1.2878664399	-0.7660675721	 0.139136
H	-1.7530496108	 2.8200486968	 0.8559677078	 0.12142
H	-1.2021795785	 1.5752061857	 2.0040651276	 0.146502
H	-0.1818212748	 4.1203258201	 2.1638893158	 0.088328
H	 2.9748702193	 3.5436335398	 1.7572386208	 0.109282
H	 2.7252282035	 1.882891625	 1.1229360349	 0.137014
H	 1.3411896406	 4.3307161791	 0.0171820479	 0.100983
