13
gdb 4950	3.29499	2.51449	1.42616	3.7939	65.06	-0.2089	-0.0339	0.175	800.6071	0.098021	-394.802006	-394.79545	-394.794506	-394.832826	24.933	
N	-0.0929503122	 1.2254445747	-0.4313046436	-0.519898
C	-0.0084167686	 0.0140210216	-0.0510622437	 0.318858
N	-1.1329737864	-0.6834803626	 0.3371488908	-0.352352
C	-1.0912345276	-2.0002217499	 0.7593670714	-0.061437
C	 0.0663844575	-2.6575683002	 0.8056853471	-0.009532
O	 1.2562092262	-2.0629608989	 0.4403357003	-0.237242
C	 1.2837593023	-0.7635475966	 0.0142462773	 0.343957
N	 2.3622313355	-0.1977631867	-0.3256838486	-0.509174
H	 0.8412096372	 1.5561239698	-0.6735228318	 0.247517
H	-2.0019178326	-0.1745344316	 0.2986503665	 0.267166
H	-2.0257852475	-2.4606510894	 1.044005992	 0.139129
H	 0.1959360535	-3.6805618585	 1.1194397197	 0.139266
H	 3.1542226828	-0.8346106317	-0.2334987473	 0.233741
