18
gdb 62845	2.67771	1.8173	1.48917	0.5536	73.47	-0.2189	0.0373	0.2562	951.1833	0.145176	-438.901652	-438.893524	-438.89258	-438.933541	32.599	
C	-0.0548240744	 1.5147199453	 0.0371584638	-0.492826
C	-0.0205648679	-0.0030496462	-0.0625990151	 0.418093
O	-1.2787653742	-0.5173046775	-0.4020090453	-0.460393
C	 1.2293807334	-0.6571902084	-0.6998214231	-0.066863
O	 2.0318118755	-0.1384241145	 0.4797863378	-0.370557
C	 0.7889066178	-0.7738048743	 1.0464206861	 0.277851
C	 0.1226693351	-1.7075880254	 2.0862442213	-0.271278
N	-0.1538331564	-2.5973551348	 0.8770123673	-0.334131
C	 1.0178866553	-1.9635666154	 0.1882660882	 0.004398
H	 0.9115717237	 1.9174713962	 0.3354062014	 0.150119
H	-0.3246927835	 1.949441863	-0.9341852145	 0.10912
H	-0.8142512593	 1.8214117178	 0.7644287796	 0.122389
H	-1.7588569053	 0.1760020447	-0.8650093116	 0.280667
H	 1.7129664163	-0.5013824929	-1.6696118021	 0.084881
H	 0.823710692	-2.1398984113	 2.8102310145	 0.115594
H	-0.7766125923	-1.3412661823	 2.5886696238	 0.123255
H	-0.0206058916	-3.5881328807	 1.0534262072	 0.225042
H	 1.9708954357	-2.4730942132	 0.3575160609	 0.084639
