16
gdb 109531	2.01244	1.41108	1.13828	3.5253	75.28	-0.2659	0.0026	0.2686	1143.6309	0.122767	-400.707898	-400.69872	-400.697776	-400.742225	33.184	
O	 0.0463725184	 1.3124051505	 0.4525789723	-0.419789
C	-0.0059220722	 0.0753705317	-0.2329610592	-0.098046
C	-1.3770717819	-0.5671108188	-0.1375996106	-0.058087
C	-1.5443106676	-2.0723105534	-0.1203534939	-0.235778
C	-0.4233833865	-2.9616954249	-0.2033123832	 0.343041
C	 0.5003361825	-3.7267829238	-0.2818404589	-0.438857
C	-1.8054394372	-1.246505877	 1.1520734298	-0.197344
C	-0.8873736507	-1.2887318613	 2.2541137208	 0.296509
N	-0.1449640722	-1.2765712319	 3.1419459709	-0.343546
H	 0.1111199012	 1.1217609892	 1.3950157473	 0.298787
H	 0.2112995158	 0.2929321763	-1.283713098	 0.121255
H	 0.7619133424	-0.6231760736	 0.121088655	 0.124206
H	-2.1698705061	-0.013167498	-0.6305251634	 0.118489
H	-2.4531178816	-2.4498718369	-0.5802559861	 0.134823
H	 1.3208313883	-4.3986599376	-0.3416692094	 0.20975
H	-2.8442334527	-1.1498203906	 1.4483164265	 0.144587
