18
gdb 33877	3.43441	1.50451	1.31477	1.1907	82.69	-0.2218	0.0347	0.2566	1009.0492	0.149517	-364.726436	-364.719393	-364.718449	-364.757559	29.605	
C	 0.0430266213	-1.1401799273	-0.0288810772	-0.398331
C	 0.0382542595	 0.0631084234	 0.0137243735	 0.215954
C	-0.0090007868	 1.4872227635	 0.057789182	 0.178687
N	 0.325107699	 2.2944338996	-1.1573333641	-0.383514
C	 1.1900611201	 2.38007442	 0.0342003601	-0.086251
C	 0.7775856722	 3.4397819075	 1.0742763796	-0.051403
C	-0.7082969984	 3.722218226	 0.7162585033	-0.228232
C	-0.8835215629	 2.2289876819	 1.1030855493	-0.109205
C	 0.2057757277	 2.5038117213	 2.1979970566	-0.21848
H	 0.0564592725	-2.2011797882	-0.0628183762	 0.187609
H	 0.7632391956	 1.6673825214	-1.8305713084	 0.235633
H	 2.2011863726	 1.9916573632	-0.0007616877	 0.10313
H	 1.4874476398	 4.2390786617	 1.2858826355	 0.066858
H	-1.1767461599	 4.3773110722	 1.4530222378	 0.094119
H	-0.9513230395	 4.0310215001	-0.2976709962	 0.126512
H	-1.8529158075	 1.7903681418	 1.3343716995	 0.069879
H	 0.820581992	 1.6603395432	 2.524681456	 0.09938
H	-0.1802681773	 3.0537380087	 3.0596752367	 0.097654
