19
gdb 89646	4.31641	1.02972	0.95757	1.7234	75.95	-0.2315	0.0697	0.3012	1260.6738	0.160708	-419.127723	-419.1196	-419.118656	-419.160782	31.575	
O	 0.0055564998	 1.3357065272	-0.1850002222	-0.435684
C	 0.1235289245	-0.0058410725	 0.1860137267	 0.166006
C	-0.0064792139	-0.3757426379	 1.7188922726	-0.344724
C	-1.2290567335	-1.2319224947	 1.3588766839	 0.378618
N	-2.1760153656	-0.2759850208	 0.7101878735	-0.401104
C	-1.093213856	-0.901461018	-0.0900515839	-0.153739
C	-1.7297107111	-2.466119862	 2.0054458637	-0.126669
C	-0.8960329309	-3.2384442877	 2.9612738848	-0.246687
N	-2.0619798525	-2.4806721403	 3.4454137697	-0.319954
H	-0.8900323416	 1.594172696	 0.074093671	 0.290713
H	 1.0504397275	-0.385993343	-0.2481201133	 0.092364
H	 0.8501264239	-0.9514389039	 2.0759684276	 0.107405
H	-0.1960909304	 0.4683135886	 2.386381785	 0.105113
H	-3.0396213186	-0.7800985226	 0.5120142245	 0.23421
H	-1.3221344802	-1.4873395042	-0.9727373223	 0.094358
H	-2.4487195493	-3.0183985376	 1.4005066841	 0.084435
H	-0.9989982295	-4.3186438996	 3.0116031396	 0.122336
H	 0.0991956302	-2.868694471	 3.1898403169	 0.116228
H	-1.7496929826	-1.6098200261	 3.8705714981	 0.236776
