19
gdb 95460	3.00684	1.16021	0.94114	1.4667	83.42	-0.2306	0.0116	0.2422	1278.8616	0.157426	-385.863136	-385.853825	-385.85288	-385.897833	34.185	
C	 0.258893584	 1.5783960531	-0.1750628799	-0.388426
C	 0.028104622	 0.0898642085	 0.0843003321	 0.05254
O	 0.4060062277	-0.6560435559	-1.0781696698	-0.278687
C	 1.3089273632	-1.700816459	-0.7339401573	-0.111611
C	 1.5507199822	-1.5380157507	 0.7373334978	-0.207846
C	 0.831552129	-0.5260714213	 1.2117425103	 0.313986
C	 0.7230913665	-0.0820357748	 2.6500839864	-0.465387
C	 1.3632330761	 1.2016372975	 2.9395211529	 0.319746
C	 1.8979750888	 2.2481944423	 3.1900520676	-0.460683
H	 1.3225268607	 1.7804467282	-0.327658511	 0.121487
H	-0.2874296146	 1.8773016796	-1.0741279068	 0.120824
H	-0.091650071	 2.1841665609	 0.6651019242	 0.120684
H	-1.0502750917	-0.0662944693	 0.2717220279	 0.074347
H	 0.8667955316	-2.6823679641	-0.9731462682	 0.102014
H	 2.2286931104	-1.6098506131	-1.3325613908	 0.106833
H	 2.2079846775	-2.1836701481	 1.3074871914	 0.101626
H	-0.3382760027	-0.0191019126	 2.9308572505	 0.138545
H	 1.1627271615	-0.8518210713	 3.2950467381	 0.140471
H	 2.3692530187	 3.17465058	 3.4068781245	 0.199536
