14
gdb 31393	2.90224	1.38567	0.94337	4.9899	66.35	-0.2624	-0.0533	0.2091	1149.7828	0.101252	-473.866638	-473.858937	-473.857993	-473.899462	27.888	
O	 0.174322842	 1.3612853182	-0.0803834212	-0.415835
C	 0.0503333921	-0.0275863091	-0.102630251	-0.122982
C	-1.3906821972	-0.4623594836	-0.0279473234	 0.390539
N	-2.3293617268	 0.3943782356	 0.0469512567	-0.38073
C	-3.6843954005	-0.0310656669	 0.116765477	 0.394517
O	-4.5899018654	 0.7656993651	 0.1869351786	-0.333521
C	-3.8663243614	-1.4890188331	 0.0959711722	-0.256634
C	-2.802204073	-2.2933420375	 0.0145614398	 0.066372
O	-1.5291632931	-1.8121897422	-0.0506803217	-0.202645
H	-0.7279023269	 1.7130272549	-0.0186977591	 0.304427
H	 0.4854041302	-0.4548244162	-1.0204483376	 0.129188
H	 0.5877001482	-0.4926364891	 0.7396149111	 0.129129
H	-4.8684008271	-1.8936897728	 0.1469319724	 0.140335
H	-2.816268901	-3.3754622332	-0.0086266737	 0.157841
