21
gdb 110299	2.42491	1.33093	1.26211	2.6407	77.67	-0.235	0.0464	0.2814	1158.9945	0.182153	-424.192955	-424.183802	-424.182858	-424.226514	35.474	
C	-0.0197108801	 1.5817225451	 0.0839840811	-0.38247
C	 0.1282279411	 0.0571027611	 0.1401067329	-0.202744
C	 0.6554337919	-0.5444440436	-1.1622901973	-0.011399
C	 0.9006119804	-2.0553454501	-1.2524569433	-0.136313
C	-0.3749622272	-2.8459408826	-1.2934239277	 0.132127
O	-1.5334318061	-2.5572697076	-0.5662116777	-0.438457
C	 0.0345487849	-2.1402250482	-2.5470665017	-0.135493
C	-0.2648868717	-0.6520519921	-2.4411658877	 0.060589
O	-1.6642158374	-0.3963306182	-2.3121716476	-0.43298
H	 0.9338295953	 2.0676912031	-0.1522500108	 0.115117
H	-0.7401690657	 1.8976733481	-0.6808052255	 0.090847
H	-0.3708993011	 1.9827714085	 1.0395290157	 0.1191
H	 0.8299681881	-0.2062532243	 0.9420208542	 0.099029
H	-0.8201073965	-0.414246498	 0.4075912952	 0.117503
H	 1.5645324457	-0.0068762206	-1.4578392721	 0.067622
H	 1.8560397916	-2.5305348334	-1.0596412767	 0.084474
H	-0.1988181417	-3.9194365448	-1.3302500108	 0.098906
H	-1.9872186363	-1.8430511493	-1.0352107676	 0.297026
H	 0.2192114136	-2.6606083636	-3.4792762139	 0.08658
H	 0.140379117	-0.0755052493	-3.2800284616	 0.079807
H	-1.7938602057	 0.5455646799	-2.1606928771	 0.291128
