17
gdb 43720	4.99975	1.06958	1.02965	4.3073	72.74	-0.2674	0.0108	0.2782	1176.9752	0.136303	-421.817792	-421.810441	-421.809497	-421.849743	28.685	
O	 0.1480330931	 0.2634385032	-0.719886662	-0.312967
C	-0.0320532851	 1.2600175049	-0.0997078692	 0.429522
C	-1.2108224126	 2.118532105	 0.3706359995	-0.508664
C	-0.1051768596	 2.9711290475	 0.983181247	 0.468519
O	 0.9179889884	 2.0709529	 0.4776913887	-0.272507
C	 0.2095213367	 4.4228325152	 1.0018648649	-0.139371
C	-1.0282669139	 5.2217860422	 1.4235269691	-0.234691
C	-1.1134097531	 4.3831357467	 2.7442130702	-0.23469
C	 0.124901209	 3.5894660103	 2.3141822447	-0.139374
H	-1.785675884	 2.5706403236	-0.4398039141	 0.146769
H	-1.8821015326	 1.6129701055	 1.0673982472	 0.146867
H	 1.0826810152	 4.8013922288	 0.4847715307	 0.106757
H	-0.8055844702	 6.2723218547	 1.61892877	 0.116596
H	-1.8872221752	 5.1712653704	 0.7465649506	 0.10194
H	-0.9352515296	 4.9950518797	 3.6303366049	 0.116595
H	-2.0263776866	 3.8006597174	 2.9049731292	 0.101937
H	 0.9234904101	 3.2336467949	 2.9535169186	 0.106761
