17
gdb 28494	3.12108	1.34917	0.9484	1.6463	81.56	-0.2008	-0.0049	0.1959	1203.714	0.136965	-418.075411	-418.066951	-418.066007	-418.107946	32.732	
C	-0.0032722642	 1.5040547034	 0.0266574809	-0.524383
C	 0.0275889779	-0.0037672001	 0.0259022744	 0.200418
N	-0.0307753974	-0.6340654866	-1.1490479348	-0.304159
C	-0.0061820186	-1.9623159078	-1.1869894497	-0.079824
C	 0.0807469612	-2.7684828563	-0.0419619156	 0.289397
N	 0.1666024292	-4.1561056665	-0.1417722987	-0.594241
C	 0.1384027169	-2.1184876017	 1.1921521168	-0.239978
C	 0.1124211097	-0.7312104333	 1.2250777513	 0.316208
O	 0.1685798606	-0.1266562897	 2.4455533848	-0.439456
H	 0.9024585857	 1.939556613	 0.471212707	 0.123733
H	-0.0722266446	 1.8548467974	-1.0038861254	 0.149749
H	-0.8661282202	 1.903890335	 0.577481652	 0.122672
H	-0.0550400786	-2.4243011701	-2.17160816	 0.086562
H	-0.2164594299	-4.5401185812	-0.9936059133	 0.249456
H	-0.1574519527	-4.6628981631	 0.6691571213	 0.248346
H	 0.2075671923	-2.6711838249	 2.1234297669	 0.096056
H	 0.1439793126	 0.8278782525	 2.3237063622	 0.299444
