19
gdb 100505	3.09594	0.92523	0.8147	1.1579	72.56	-0.2397	-0.0855	0.1543	1459.6333	0.154972	-460.192683	-460.181787	-460.180843	-460.229857	37.348	
C	 0.0337980041	 1.5670905353	-0.1302834016	-0.402737
C	-0.0089512778	 0.0378748079	 0.0827565888	-0.108182
C	 0.7137033939	-0.373150042	 1.3746498387	-0.068393
O	 2.076029312	 0.0211872748	 1.3784763175	-0.416492
C	-1.4485967181	-0.4316044544	 0.0994169116	 0.265635
O	-2.0669846809	-0.6835271894	 1.1097833353	-0.295248
C	-2.1540048828	-0.5852147444	-1.2752928657	 0.312644
C	-3.6246869413	-0.9156622672	-1.229105156	-0.473466
O	-1.5188979796	-0.4520245339	-2.295802184	-0.277785
H	 1.0711358238	 1.9017761514	-0.0618636662	 0.141689
H	-0.3654317307	 1.844135741	-1.1084765698	 0.133661
H	-0.541839159	 2.0830243577	 0.6455991616	 0.125612
H	 0.477329661	-0.430267653	-0.7823646773	 0.09955
H	 0.2500490895	 0.124362604	 2.2305978019	 0.127565
H	 0.606786892	-1.4555850105	 1.5359894744	 0.095652
H	 2.5366742052	-0.4933952435	 0.7078717383	 0.283676
H	-3.7859376972	-1.8300415733	-0.6502962602	 0.159249
H	-4.1684560326	-0.1245663193	-0.7020505163	 0.155521
H	-4.0090579916	-1.0286668013	-2.2428336508	 0.141849
