16
gdb 46078	3.38568	1.24997	1.05727	4.5008	64.59	-0.2639	0.0502	0.314	1125.1487	0.125788	-475.045704	-475.037979	-475.037035	-475.078909	28.152	
O	 0.1054804345	-0.0498690701	 0.0692835032	-0.385047
C	 0.0177168709	 1.1441312833	 0.0494030323	 0.477559
N	-1.1189323672	 1.9211145186	 0.0761500622	-0.367066
C	-0.8323558444	 3.3001278172	-0.2661052425	-0.206567
C	 0.6887822289	 3.3497179823	 0.0311205	 0.094384
O	 1.1052450664	 1.9806766698	 0.0244771178	-0.248436
C	 1.4654575503	 4.1551506004	-0.9847515843	 0.04847
C	 2.6396882083	 3.6213459185	-1.6824931858	-0.167958
O	 1.3670064836	 3.7181277339	-2.3354150395	-0.234721
H	-1.9812991844	 1.4750201265	-0.1912473567	 0.264904
H	-1.0271099268	 3.5188590863	-1.3233710564	 0.134405
H	-1.3918813076	 4.005670193	 0.3541854169	 0.121907
H	 0.8765958792	 3.7584642924	 1.0323142498	 0.100555
H	 1.3808442292	 5.2349055271	-0.846290613	 0.100424
H	 3.4020951448	 4.3075959671	-2.0468091154	 0.1194
H	 2.9658912043	 2.6095753238	-1.4609947485	 0.147787
