18
gdb 37158	4.02575	1.84486	1.63126	1.4422	78.64	-0.2269	0.087	0.3139	862.009	0.150796	-364.682516	-364.676795	-364.675851	-364.712109	25.649	
C	 0.0777747665	 1.4541113705	 0.1341883937	-0.243425
C	 1.3046837493	 0.6327832894	-0.0422549055	-0.182946
N	-0.0471969517	-0.0100687601	-0.0052194253	-0.118853
C	-0.2049476044	-0.509234202	-1.4224504251	-0.050011
C	 0.4566537812	 0.48396152	-2.3983081429	-0.062219
C	 1.395240234	-0.5120229963	-3.1425890356	-0.113697
C	 2.6787354977	 0.2395204566	-2.6562459066	-0.353421
C	 1.6983873368	 0.3009961342	-1.4620653129	 0.33763
C	 1.1579366313	-1.1540781268	-1.7493577593	-0.029588
H	-0.1776236482	 1.8296297725	 1.1219482425	 0.11475
H	-0.2393009573	 2.0958513238	-0.682537611	 0.112409
H	 1.9698670827	 0.4186486046	 0.7886795629	 0.095913
H	-1.1740873544	-0.9844849717	-1.5755980171	 0.068452
H	 0.1013803745	 1.4373157956	-2.790063665	 0.07454
H	 1.2227511273	-0.9638310419	-4.1189069258	 0.075418
H	 3.5832024438	-0.3624284372	-2.5245151663	 0.099791
H	 2.9132711489	 1.1859718038	-3.15329572	 0.098668
H	 1.5972844418	-2.068472195	-1.3493544006	 0.076589
