17
gdb 126321	4.64384	1.02755	0.90849	1.979	80.28	-0.2224	-0.0573	0.1651	1303.6317	0.137218	-414.220693	-414.212244	-414.211299	-414.254399	31.307	
C	 0.0357532514	 1.5039324682	-0.2965882127	-0.371549
C	-0.0340867038	 0.0371291995	 0.1606467422	-0.268586
C	-1.429086029	-0.5241120741	 0.0821859867	 0.318573
C	-1.879599653	-1.3234992521	-0.9752894149	-0.059869
N	-3.1200237852	-1.7750577731	-1.0390730288	-0.295631
C	-3.9025683015	-1.3976782564	-0.0117807856	 0.469326
N	-5.2110601688	-1.7735008471	-0.0435521568	-0.54611
N	-3.5149597153	-0.6589728975	 1.0469478196	-0.260095
N	-2.2692393468	-0.2247102897	 1.0781818524	-0.233315
H	 1.0546548028	 1.8921545476	-0.2055685183	 0.115507
H	-0.2755514312	 1.6087910574	-1.3412094719	 0.115918
H	-0.6252383961	 2.1237437425	 0.3158667651	 0.13885
H	 0.6391390732	-0.575988443	-0.4493915059	 0.101268
H	 0.3094856036	-0.0358152577	 1.1973405648	 0.123805
H	-1.207800782	-1.6108767908	-1.7828866468	 0.117396
H	-5.4589159746	-2.5186656213	-0.6721208596	 0.265771
H	-5.7282133738	-1.6850244525	 0.8152876606	 0.26874
