16
gdb 47186	2.25539	1.78095	1.08776	3.5176	74.86	-0.2663	-0.0519	0.2144	1080.1945	0.125597	-437.933744	-437.92604	-437.925096	-437.966578	28.83	
N	 0.2779929342	 0.4263728392	 1.3053868643	-0.476978
C	 0.078260123	-0.0018967034	 0.129231812	 0.333092
O	 1.055328491	 0.2071527637	-0.8386969626	-0.241051
C	 1.3961462458	-0.6281169096	-1.8738645137	 0.407641
O	 2.1767499957	-0.2264911076	-2.6866073291	-0.294872
C	 0.7714215342	-2.0031352229	-1.8890530839	-0.346802
C	-0.7133327552	-1.9607044233	-2.2796346509	-0.270032
C	-1.6012836835	-1.3196969921	-1.2569150964	-0.072614
C	-1.2420463101	-0.5425438161	-0.2320615599	-0.064187
H	 1.2189930664	 0.8163237751	 1.3853628565	 0.235409
H	 1.3365685307	-2.589914371	-2.6143164685	 0.139989
H	 0.8754119717	-2.4707096144	-0.9034620254	 0.137068
H	-0.8333512408	-1.4641658396	-3.2529715732	 0.142373
H	-1.0591788461	-2.9895862382	-2.4367771862	 0.128391
H	-2.6578972271	-1.5617862333	-1.3452456647	 0.112925
H	-1.9946384499	-0.2372054365	 0.4867707917	 0.129648
