16
gdb 3137	5.69641	1.98542	1.77091	1.9189	60.28	-0.2503	0.0752	0.3255	749.7127	0.137977	-325.729141	-325.722403	-325.721459	-325.759976	25.253	
O	 0.090599693	 1.3580258652	-0.2892829947	-0.418455
C	 0.0533869401	 0.0539269754	 0.2733107321	-0.158994
C	-1.3369757547	-0.5069613445	 0.2854193922	 0.332132
C	-2.4684764606	-0.2007825601	 1.282356559	-0.290632
C	-2.9973188229	-1.6615609184	 1.0806062937	-0.236627
C	-1.8563467972	-1.9046841863	 0.0819468178	-0.088107
N	-1.8908864021	-0.9289097621	-1.004697827	-0.365483
H	-0.2541162194	 1.2725291815	-1.1855976462	 0.287517
H	 0.7138308467	-0.6377509287	-0.2709165968	 0.094352
H	 0.4364384582	 0.153623284	 1.2944724883	 0.105544
H	-2.1101839381	-0.0281859612	 2.3001431702	 0.110234
H	-3.1351855032	 0.6217853087	 1.0046403175	 0.100255
H	-2.9114764505	-2.2613761286	 1.9896322004	 0.110313
H	-4.0090368361	-1.7807585482	 0.6784966087	 0.099225
H	-1.3257108466	-2.8349642093	-0.0886532234	 0.09498
H	-2.8293817566	-0.5675096973	-1.168598872	 0.223748
