19
gdb 65972	2.37911	1.46175	1.28234	2.2865	76.47	-0.2596	-0.0344	0.2252	1092.7638	0.15779	-423.013606	-423.004941	-423.003997	-423.046862	33.304	
O	-0.015659289	 1.3390343226	-0.5533715314	-0.476558
C	-0.0225911816	 0.0418620295	-0.0515736137	 0.263463
C	 0.0320516016	-0.1367617926	 1.5043564619	-0.282844
C	-1.1151726186	-1.1839835349	 1.4195294978	-0.318406
C	-1.3806955974	-0.7088914997	-0.0119114372	 0.312209
C	-2.6438742546	-0.0880617972	-0.5245194778	-0.30724
C	-2.1168153713	-1.3580291863	-1.1484961605	-0.345653
C	 1.028644191	-0.7858856058	-0.7501300086	 0.125389
O	 1.7165721831	-0.3353738755	-1.6363074423	-0.288122
H	 0.6726095794	 1.3542996115	-1.2388173801	 0.290928
H	 0.9815104422	-0.4522288135	 1.9444150142	 0.103931
H	-0.286713504	 0.797697806	 1.9692891427	 0.130052
H	-0.7523244801	-2.2154168284	 1.472254591	 0.104728
H	-1.9334535967	-1.0692632857	 2.1343094438	 0.109371
H	-3.527674977	-0.1526869217	 0.1023619421	 0.112755
H	-2.5424713918	 0.8366938145	-1.0816368667	 0.134044
H	-1.6848436406	-1.2949712707	-2.142878322	 0.119217
H	-2.6413403963	-2.2872014034	-0.9491576451	 0.114866
H	 1.1308712418	-1.8367336488	-0.4122583179	 0.097871
