13
gdb 7728	3.62999	1.96988	1.32429	3.0627	55.59	-0.2757	-0.0245	0.2512	849.9871	0.097672	-435.823855	-435.817333	-435.816389	-435.854875	23.948	
O	-0.0111823243	-0.0780470316	-0.002184776	-0.333102
C	-0.0593388959	 1.1266951979	 0.0357730662	 0.416646
C	-1.3253905061	 1.9590303066	-0.0052529953	-0.337841
C	-1.1019563825	 3.2856440124	 0.7047402197	-0.091905
O	 0.0407642395	 3.9759639604	 0.1713962167	-0.232419
C	 1.1970425063	 3.2967472482	 0.0313452359	 0.485884
O	 2.2419914182	 3.8529631625	-0.1550121174	-0.359115
N	 1.0926867984	 1.9038026928	 0.1067110131	-0.400948
H	-1.5868286302	 2.1303645564	-1.0563772446	 0.152848
H	-2.1353703376	 1.3869641698	 0.4514264479	 0.149909
H	-1.9396115338	 3.9698807686	 0.5649879972	 0.141015
H	-0.953277039	 3.1338637282	 1.7809198834	 0.131858
H	 1.974346617	 1.4116480578	 0.0439709134	 0.27717
