17
gdb 17367	4.11391	1.67756	1.36773	3.4327	67.61	-0.2357	0.0303	0.2661	919.5726	0.142866	-363.86508	-363.857345	-363.856401	-363.898024	28.955	
N	-0.0669713397	 1.3433465161	 0.0064885606	-0.521488
C	 0.1081396857	-0.0140263079	 0.0824787511	 0.385424
O	 1.2044297219	-0.5176627569	 0.2279115016	-0.357646
C	-1.1879028545	-0.810656241	-0.0129895588	-0.112913
C	-1.9317885537	-0.8736081111	-1.4035301216	-0.259269
C	-1.8501373542	-2.4029328365	-1.3443570772	-0.042863
C	-0.4168924792	-2.8384336647	-1.2497644427	-0.263111
C	-1.0969557981	-2.3366481108	-0.0098224851	-0.040261
H	 0.7563138933	 1.920120743	-0.057728475	 0.257679
H	-0.9494262112	 1.7458974711	-0.2583913274	 0.255877
H	-1.8778703077	-0.4436420486	 0.7533321993	 0.092984
H	-2.9496648193	-0.481986587	-1.3442322045	 0.102419
H	-1.4217064956	-0.4014921294	-2.2503507675	 0.100048
H	-2.6420371	-3.0769949785	-1.6460573208	 0.085129
H	-0.2580097377	-3.9117439995	-1.2745479735	 0.109304
H	 0.3783564946	-2.2596244548	-1.7094974388	 0.121482
H	-1.2073784247	-2.9559296838	 0.8712039002	 0.087204
