18
gdb 114984	2.61445	1.36081	0.92738	4.3721	76.96	-0.2545	-0.0408	0.2137	1233.4164	0.148997	-439.101968	-439.093719	-439.092775	-439.135048	31.346	
O	-0.0134196132	 1.4142413052	 0.011132757	-0.423688
C	 0.0300189106	 0.0064306363	 0.0420549517	-0.065213
C	-1.3636606407	-0.6017737259	-0.0574702221	 0.096465
C	-1.3917188553	-2.1267701234	-0.0480615804	-0.288
C	-2.800483737	-2.6004268348	 0.170604251	-0.08205
C	-3.7049398645	-1.8085528004	 0.7522066404	-0.139566
C	-3.3543966449	-0.48094542	 1.2859098371	 0.382527
N	-4.0957124492	 0.2774633583	 1.9869590016	-0.500846
O	-2.0786482856	-0.0579712743	 1.0678866904	-0.265832
H	-0.6523704622	 1.6790170328	 0.6843018898	 0.298968
H	 0.6317676642	-0.3183503907	-0.8134696794	 0.109307
H	 0.5135294434	-0.3689868011	 0.9590784191	 0.093557
H	-1.8463774226	-0.2342077594	-0.973935244	 0.095567
H	-1.0015241684	-2.5040333868	-1.0002211956	 0.122363
H	-0.7323897941	-2.522751098	 0.7380916822	 0.127939
H	-3.0679686862	-3.6027978849	-0.1512205683	 0.111743
H	-4.729106345	-2.131184939	 0.9071251276	 0.104864
H	-5.0023934691	-0.163567764	 2.1341782319	 0.221892
