16
gdb 90761	2.65059	1.71729	1.39938	5.3714	64.13	-0.253	0.0329	0.2858	950.5157	0.126112	-475.039477	-475.032047	-475.031103	-475.07183	27.853	
O	-0.2313365927	 1.3245287488	 0.8133548997	-0.418778
C	-0.0058048823	 0.1250558027	 0.1129750487	 0.088236
C	 0.4322480451	-1.0777989463	 1.0054768309	-0.214765
N	-0.9668499424	-1.5930220023	 0.9776607355	-0.163034
C	-1.3517345243	-0.6344440516	-0.0796052012	-0.019784
C	-2.6743581172	-0.0398378015	 0.4290248138	-0.10274
O	-2.8353196454	-0.5811160711	 1.7480313315	-0.238648
C	-1.7556292387	-1.336328748	 2.1072626932	 0.454338
O	-1.5502005477	-1.7063744015	 3.2270586291	-0.375619
H	 0.6092287915	 1.6524409015	 1.1493710112	 0.295993
H	 0.586112237	 0.2870436377	-0.7971525737	 0.077614
H	 1.126567591	-1.7694549669	 0.5212503067	 0.119639
H	 0.7856762381	-0.8354463899	 2.0109861043	 0.136577
H	-1.4437186215	-1.0969393397	-1.0654133572	 0.097141
H	-2.648542201	 1.050032242	 0.4934107909	 0.142927
H	-3.5253817795	-0.354202994	-0.1804913836	 0.120902
