21
gdb 102538	1.9142	1.33295	0.92941	2.2467	75.65	-0.2468	-0.0301	0.2168	1342.646	0.178854	-461.355878	-461.344846	-461.343902	-461.392887	38.204	
C	 0.1689076678	 1.5652625189	-0.4061175831	-0.240407
O	-0.1299161939	 0.1980368392	-0.2205995974	-0.247474
C	 0.7091044135	-0.6992664975	-0.9359822624	 0.064932
C	 1.9693308733	-0.983409069	-0.0958105726	-0.067495
O	 2.7612659087	-2.0511061305	-0.5754345277	-0.423056
C	-0.0868406891	-1.9804964439	-1.2429516968	-0.087715
C	-1.5602819505	-1.7059000241	-1.6135622433	-0.410499
C	 0.5256395644	-2.7791570332	-2.3762480852	 0.171505
O	 1.4470768056	-2.4325607869	-3.0768484171	-0.273551
H	 1.1599718077	 1.839049645	-0.0183822123	 0.113408
H	 0.1236388007	 1.8476419826	-1.4689157756	 0.109107
H	-0.586129499	 2.1341720132	 0.142231242	 0.129206
H	 0.998181482	-0.2469009537	-1.8975604979	 0.07873
H	 2.5575437296	-0.0573004952	-0.0020274131	 0.086064
H	 1.6412558714	-1.2628157001	 0.9118977499	 0.112125
H	 2.8674037395	-1.9397754503	-1.5280689735	 0.296095
H	-0.0797540851	-2.6414416839	-0.3637364831	 0.107825
H	-2.0792754773	-2.6384943508	-1.8573555494	 0.115825
H	-2.0710749898	-1.2270779481	-0.7788592272	 0.148344
H	-1.6298116768	-1.0417798475	-2.4812181899	 0.125865
H	 0.0122791971	-3.7481427742	-2.5673667343	 0.091166
