16
gdb 85731	2.11752	1.51923	1.1221	3.7525	68.93	-0.2714	-0.0512	0.2202	1112.1791	0.122088	-437.881159	-437.872203	-437.871259	-437.915985	31.182	
C	 0.4178862947	 1.452275326	-0.1034058869	-0.397429
C	 0.0443770235	 0.0149610421	 0.1865834976	 0.141338
O	 0.6396038298	-0.9137471691	-0.7718088006	-0.285442
C	 1.3570665563	-1.6242825302	 0.2431200333	-0.021612
C	 2.8147107623	-1.5371092039	 0.0770531005	 0.282901
N	 3.9631203865	-1.4683253343	-0.0337579528	-0.315888
C	 0.7358959061	-0.738691404	 1.3594773004	-0.190731
C	 1.6362087063	 0.0080259885	 2.3195999612	 0.136786
O	 1.3538883274	 1.0799488254	 2.788444521	-0.240864
H	 1.5024179547	 1.5847153621	-0.1373075264	 0.134637
H	 0.0044013807	 1.7416082978	-1.0741336768	 0.131699
H	 0.0139121698	 2.1132054027	 0.6674507884	 0.145942
H	-1.0443924356	-0.1059147138	 0.188341828	 0.098311
H	 1.0767472181	-2.6834240054	 0.2800838027	 0.133275
H	 0.029099298	-1.3093476155	 1.9705471101	 0.134758
H	 2.5753441515	-0.5181163885	 2.5958195304	 0.11232
