17
gdb 107756	2.95422	1.39154	1.25485	1.9793	67.38	-0.233	0.056	0.289	1047.4431	0.135048	-458.879158	-458.871137	-458.870193	-458.911793	31.078	
O	-0.0437682927	 1.5087294191	-0.0975719946	-0.415965
C	 0.0973368475	 0.1006085694	-0.0131819133	-0.179846
C	-1.241065736	-0.5624692619	 0.1224148195	 0.306847
C	-2.1976447719	-0.3878975852	 1.3319636136	-0.254703
C	-2.906472355	-1.6316775309	 0.8032265475	-0.162731
C	-2.7776960849	-1.510061919	-0.7473662764	-0.004632
O	-2.1104430779	-0.2837672658	-1.0243965745	-0.336931
C	-1.6792958055	-2.1090676689	 0.0633276075	 0.261509
O	-1.0331883117	-3.3110199144	 0.1302435178	-0.444446
H	-0.6776686914	 1.6787436442	-0.8043249026	 0.298715
H	 0.6214056659	-0.305940329	-0.8928957688	 0.089533
H	 0.711196492	-0.1072766327	 0.8690338285	 0.117926
H	-1.6891691299	-0.5878817398	 2.2784168013	 0.109615
H	-2.7421355525	 0.5588240543	 1.3759535309	 0.106146
H	-3.6839838695	-2.2316910346	 1.2580082289	 0.098872
H	-3.4925966133	-1.9043606641	-1.4569566411	 0.113949
H	-0.5963053332	-3.4747057907	-0.7140322342	 0.296141
