18
gdb 6380	5.2291	1.04836	0.90782	2.9911	65.58	-0.2561	0.0033	0.2595	1283.6433	0.151731	-422.118347	-422.109008	-422.108064	-422.153026	32.638	
C	 0.0898494682	 1.3710260509	 0.09715612	-0.243567
O	 0.2109081194	-0.0569053098	 0.0077851388	-0.224846
C	 0.511157101	-0.5395833376	-1.2073444939	 0.454915
O	 0.697246233	 0.1717146094	-2.1719295771	-0.375038
C	 0.5699026774	-2.0508963595	-1.2155702257	-0.337867
C	 1.4527591058	-2.5976332371	-2.3533367343	 0.143765
C	 1.5143532813	-4.1194448057	-2.3297768987	-0.384453
O	 0.9495778434	-2.211553937	-3.6174867818	-0.442098
H	 1.0327186636	 1.853495543	-0.1709942403	 0.144761
H	-0.6940620361	 1.7329511867	-0.572406978	 0.144636
H	-0.1657961807	 1.5804036069	 1.1355165743	 0.137597
H	 0.907076513	-2.4009071253	-0.2356938399	 0.124187
H	-0.4554071323	-2.4185821541	-1.3547042374	 0.1404
H	 2.4724327874	-2.1996634908	-2.2098853601	 0.066945
H	 2.1322963372	-4.4768218575	-3.1574274353	 0.12726
H	 1.9419949836	-4.4838100166	-1.3907076068	 0.108348
H	 0.5116037261	-4.5429712904	-2.4473064692	 0.120464
H	 0.8811221086	-1.2463042755	-3.5916033245	 0.294591
