17
gdb 55268	3.33609	1.17942	0.95258	2.7301	70.21	-0.2364	0.0161	0.2525	1227.9795	0.136563	-455.209122	-455.20029	-455.199346	-455.243469	31.783	
C	-0.6241236852	 1.333617598	-0.2607106546	-0.472872
C	-0.2119021256	-0.0921228222	-0.1281619353	 0.414633
N	-0.9748417645	-1.1097290196	-0.2177386128	-0.338727
C	-0.1281587204	-2.2877952844	 0.0256498216	-0.09995
C	 1.3014912048	-1.7216543893	 0.1895612443	-0.122378
O	 1.1074044633	-0.2891733179	 0.1110528066	-0.249752
C	-0.5841611578	-3.0973681418	 1.2528243897	 0.386941
N	-1.9123132494	-3.005459218	 1.5068788133	-0.51722
O	 0.1965903554	-3.7828506097	 1.8862669016	-0.368878
H	-0.0792753187	 1.8087748464	-1.0821953914	 0.150234
H	-1.6954870313	 1.3932118434	-0.4482828981	 0.15011
H	-0.3775554402	 1.8829522907	 0.6531499438	 0.150507
H	-0.1964545832	-2.972748688	-0.8280675315	 0.117583
H	 1.7407065406	-1.9798075878	 1.1546645858	 0.146523
H	 1.9829614269	-2.0158145221	-0.6118495438	 0.11945
H	-2.4495698026	-2.2967644212	 1.0325124433	 0.274136
H	-2.281761052	-3.4656178064	 2.3222854776	 0.259659
