17
gdb 37763	2.41079	2.40423	1.95561	1.2276	76.17	-0.2174	0.0112	0.2286	818.7223	0.139642	-384.689067	-384.68305	-384.682105	-384.718892	26.368	
O	 0.0114785164	 1.4449519329	 0.0045384445	-0.26546
C	 1.2923339059	 1.982611484	-0.0038525255	 0.095098
C	 2.3514681882	 1.2653951887	 0.789884295	-0.145278
C	 1.9058306987	 0.0947032161	 1.5489197811	-0.039711
C	 0.7594533599	-0.5148731881	 1.2162112481	-0.089856
C	 0.0183851936	-0.0049493453	 0.0056108254	-0.032361
C	 0.7443249023	-0.5167457053	-1.213336955	-0.089857
C	 1.8864644681	 0.0923067735	-1.5612337018	-0.039711
C	 2.341508114	 1.2641608783	-0.8096089111	-0.145278
H	 1.252177871	 3.065613583	-0.0044386959	 0.107647
H	 3.1567704918	 1.8586642652	 1.2068561236	 0.092536
H	 2.5119119889	-0.2481753606	 2.3817601854	 0.091307
H	 0.3793742487	-1.3778754851	 1.751326606	 0.094474
H	-1.0346708268	-0.2920472521	 0.0123902417	 0.088134
H	 0.3576182809	-1.3805649973	-1.7423504971	 0.094474
H	 2.4821325949	-0.2518588134	-2.4010269547	 0.091307
H	 3.1415495536	 1.8567787256	-1.2374918697	 0.092535
