18
gdb 126910	3.25831	1.0137	0.80651	3.7999	75.97	-0.2079	0.0149	0.2228	1419.8876	0.14818	-435.251779	-435.242703	-435.241759	-435.286368	33.153	
C	-0.0593153384	 1.5427670811	 0.1745777199	-0.390588
C	-0.177656113	 0.0376777894	 0.3908484324	-0.114592
N	 1.08037534	-0.5119221692	 0.9110702354	-0.41837
C	 1.0773251733	-1.8978174248	 1.2007873616	 0.024719
C	 1.3996059897	-2.4378074247	 2.422333998	 0.453396
N	 1.8619073808	-1.840984986	 3.5641031599	-0.590679
O	 1.2848051469	-3.7650761587	 2.4023404171	-0.217953
N	 0.8539111407	-4.1690805	 1.1065140086	-0.171148
C	 0.7520877993	-3.0515143889	 0.4325801442	-0.006785
H	 0.7106230034	 1.7756992114	-0.5704708945	 0.114277
H	-1.0045014661	 1.9576594251	-0.1872036225	 0.120121
H	 0.2111502083	 2.0479548992	 1.1064337517	 0.123187
H	-0.9593725593	-0.179079574	 1.1276724776	 0.10987
H	-0.4930930569	-0.4469743858	-0.5491124234	 0.087288
H	 1.8453419742	-0.2606664898	 0.2920182907	 0.225299
H	 1.6921135038	-0.8441530014	 3.5676256549	 0.264643
H	 1.612606882	-2.3036206026	 4.4264176644	 0.265017
H	 0.4342504515	-3.1040503904	-0.6006051459	 0.122299
