15
gdb 54472	3.68797	1.37422	1.14776	1.9401	65.34	-0.2307	-0.0009	0.2298	1038.3919	0.112018	-453.871071	-453.863461	-453.862517	-453.90324	29.466	
N	 0.9375981966	-0.2051862736	 0.4308411595	-0.540773
C	-0.1549114342	 0.3677516007	-0.1422545169	 0.288285
O	-0.138331143	 1.3810849899	-0.8169286167	-0.365843
C	-1.4243686214	-0.376439239	 0.0865014616	 0.372092
O	-1.5015173232	-1.4281761988	 1.0587813705	-0.270125
C	-1.8416977351	-1.7397728445	-0.2879635942	-0.052119
C	-3.2864641732	-1.214475117	-0.6061481987	-0.091759
N	-3.8130020863	-0.5795142415	 0.6249004602	-0.31648
C	-2.8622067246	 0.1539940486	-0.2376670859	-0.152241
H	 1.8146394679	 0.2861275515	 0.3809703765	 0.264476
H	 0.8130716034	-0.9388909388	 1.1086602373	 0.273384
H	-1.2972565456	-2.5313250236	-0.7886141041	 0.122388
H	-3.9251781503	-1.5631419542	-1.4055621223	 0.107197
H	-4.7434023673	-0.2301457163	 0.3926835445	 0.238341
H	-3.0735693636	 1.1103138364	-0.6928009114	 0.123175
