19
gdb 104618	2.39309	1.3022	1.01434	5.3339	76.41	-0.2481	0.0162	0.2643	1246.4768	0.158464	-419.200152	-419.19054	-419.189596	-419.234869	34.959	
C	 0.4854891633	 1.5454304932	 0.1318354814	-0.402939
C	 0.0168280777	 0.1140387555	-0.0084831429	 0.167531
C	 0.4559784848	-0.6981876493	-1.2469173453	-0.366369
C	 1.0618257191	-1.6875696502	-0.2166226245	 0.275118
C	 2.5675351669	-1.9371607797	-0.2845496105	-0.205461
N	 3.0022948492	-2.595946778	 0.93715048	-0.501733
O	 0.7343576254	-0.795968172	 0.8762538715	-0.327481
C	 0.3108561882	-2.951255324	-0.1077020993	 0.286869
N	-0.3159042728	-3.9213022587	-0.0719797432	-0.342701
H	 1.5559390009	 1.6302706371	-0.0788294533	 0.120124
H	-0.0608714422	 2.1928662029	-0.5625928107	 0.124817
H	 0.3041406867	 1.9074710541	 1.148553446	 0.135735
H	-1.0607203706	 0.0425842655	 0.1855507909	 0.095334
H	-0.3357024029	-1.0924282661	-1.882183156	 0.134875
H	 1.214909288	-0.2071411385	-1.8598414546	 0.117379
H	 2.7789463814	-2.5881063422	-1.1413110407	 0.121543
H	 3.0424357979	-0.9609956695	-0.4829998154	 0.086943
H	 3.9905239003	-2.8169095477	 0.894290728	 0.235885
H	 2.8625028686	-1.9711824826	 1.7250109484	 0.244531
