15
gdb 28267	4.77324	1.2668	1.01739	3.2378	67.57	-0.1817	0.037	0.2186	1103.1064	0.115448	-453.958511	-453.951277	-453.950333	-453.990253	27.34	
O	 0.0739254126	 1.2584544655	-0.0609477853	-0.40102
C	-0.0536081719	-0.068661684	-0.0298386616	 0.425844
N	-1.1400364015	-0.7524523537	-0.1217726717	-0.406948
C	-0.6667548695	-2.071011029	-0.13202205	 0.20252
C	 0.6658175926	-2.0740876796	-0.0201791503	 0.326419
N	 1.2982053737	-3.284947664	 0.2485203984	-0.406323
C	 0.1795176755	-4.2633875249	-0.0347190366	-0.168537
C	-1.1796663116	-3.4695759627	 0.0217245949	-0.339581
O	 1.1264450913	-0.7877131186	 0.057348877	-0.256638
H	 0.9944216352	 1.4814839371	 0.1210641013	 0.316489
H	 2.109075997	-3.476407166	-0.3320372445	 0.237053
H	 0.3108030456	-4.6909103494	-1.0348624932	 0.113779
H	 0.216957113	-5.0760742657	 0.6931216141	 0.120861
H	-1.6826207106	-3.6163601072	 0.9861078776	 0.119759
H	-1.8692473716	-3.8106396579	-0.7570495301	 0.116321
