22
gdb 93950	3.36175	1.13202	1.03032	2.2986	81.24	-0.2362	0.0698	0.3061	1276.2245	0.195734	-404.334882	-404.325912	-404.324968	-404.36992	33.723	
C	 0.6529955317	 1.4841000224	-0.1486857429	-0.393218
C	-0.0596519353	 0.1567296272	 0.1125022179	 0.134067
C	 0.1148420434	-0.8792894063	-1.0074934439	-0.226718
C	 1.4294310404	-1.5772063184	-0.617406112	-0.255714
C	 1.4706995597	-1.4435689896	 0.927769521	 0.090969
O	 0.4644224826	-0.4882828088	 1.2805167633	-0.28799
C	 1.2067769645	-2.7463049626	 1.6633567967	 0.005756
C	 0.6085121076	-2.7527707307	 3.0162099075	-0.244245
N	-0.1676426981	-3.2313667618	 1.8510927739	-0.323651
H	 1.7041931162	 1.329568077	-0.4139204435	 0.115922
H	 0.1706613438	 2.0237097315	-0.9705975266	 0.113669
H	 0.6170431323	 2.1129997025	 0.7450035223	 0.125859
H	-1.1169427496	 0.354045958	 0.3221018632	 0.080403
H	-0.7162315105	-1.5908094837	-0.9905051617	 0.111348
H	 0.1485469845	-0.4265910243	-2.001557962	 0.102901
H	 1.4600132856	-2.6211864112	-0.9366060196	 0.114887
H	 2.288126871	-1.070994352	-1.0669235912	 0.10534
H	 2.4518973358	-1.0646460891	 1.2484990003	 0.07825
H	 1.920248133	-3.5294419312	 1.4103864757	 0.086589
H	 0.8864626655	-3.5221443805	 3.730902441	 0.111331
H	 0.3345927243	-1.7938400784	 3.444726035	 0.124054
H	-0.7963009784	-2.4756655199	 1.5829255156	 0.230193
