19
gdb 115546	2.45511	1.14082	1.05865	5.0884	76.68	-0.2411	0.0081	0.2492	1270.0868	0.157909	-419.188626	-419.178793	-419.177849	-419.22404	34.874	
C	 0.1382132937	 1.5943914679	-0.0704213024	-0.324497
N	-0.2116630192	 0.1996036895	-0.3253543097	-0.281807
C	 0.708839532	-0.5064258428	-1.1683191041	-0.058618
C	 1.9743432193	-1.2152907825	-0.6077959373	-0.09988
O	 1.5615102788	-2.4821704076	-1.1666860149	-0.305065
C	 0.296608894	-1.9528295903	-1.6257801078	 0.246122
C	-0.8913237838	-2.5984405356	-0.9218168409	-0.434175
C	 0.1695762689	-2.0919105143	-3.0851439763	 0.26048
N	 0.0660318071	-2.1766098291	-4.2332653991	-0.339798
H	 1.1179891679	 1.7402143872	 0.4143918764	 0.105415
H	 0.1487571342	 2.1431505284	-1.0180270223	 0.135323
H	-0.6264524676	 2.0458016165	 0.5674671181	 0.128411
H	-0.3491925211	-0.2903018211	 0.5514377695	 0.222233
H	 0.9408851294	 0.1284496446	-2.026061426	 0.113612
H	 2.9428298927	-0.8917769365	-1.0036688515	 0.117647
H	 2.0254175868	-1.2517509133	 0.4889397028	 0.098514
H	-0.7607358876	-2.5436901144	 0.1619154772	 0.119463
H	-1.8205129855	-2.0927700003	-1.1953358449	 0.149826
H	-0.9607098	-3.6518546461	-1.2041714768	 0.146792
