20
gdb 90386	2.17628	1.53086	1.2821	1.5869	85.68	-0.2264	0.0313	0.2576	1127.8503	0.169111	-365.941336	-365.932055	-365.93111	-365.974655	35.665	
C	-0.2850476752	 1.5658941542	-0.0673005573	-0.428817
C	-0.0002995418	 0.0718106914	 0.0215914264	-0.034212
C	 1.1025017374	-0.6080256805	-0.8357466825	-0.190552
N	 1.6749439892	-1.3207979486	 0.3654898663	-0.186755
C	 2.1797003121	-0.2494189404	 1.2763549751	-0.258877
C	 2.851949086	 0.9317601396	 0.812641082	 0.351864
C	 3.4811078852	 1.8939927413	 0.4558474082	-0.443262
C	 0.7138762116	-0.5313599203	 1.2392940582	 0.313668
C	 0.0042504871	-1.1286300383	 2.4206448675	-0.490546
H	 0.6228792518	 2.1588910042	 0.0572580194	 0.138069
H	-0.7238474918	 1.8145460838	-1.0400080128	 0.113265
H	-1.0016338428	 1.8718976979	 0.7032188408	 0.113443
H	-0.9379078798	-0.4783809059	-0.1153254688	 0.081235
H	 0.733165146	-1.3392836069	-1.5564516044	 0.108326
H	 1.8182626726	 0.0561213183	-1.3279603488	 0.117673
H	 2.6777478815	-0.70392598	 2.1308870426	 0.11573
H	 4.0229076571	 2.7510539689	 0.140005662	 0.198993
H	-0.3946216789	-0.3425434203	 3.0724005345	 0.126427
H	-0.8333817479	-1.7548056006	 2.0948104282	 0.124029
H	 0.6810268307	-1.7500820979	 3.0141156235	 0.130301
