13
gdb 42518	3.89164	1.02862	0.87764	2.6047	69.26	-0.2941	-0.0773	0.2168	1229.7196	0.08862	-415.631813	-415.62365	-415.622706	-415.665991	28.31	
O	 0.0318352223	 0.0586866414	-0.1992272601	-0.23339
C	 0.0831955618	 1.2373722403	-0.1092077394	 0.406584
C	-0.997478363	 2.3661865607	 0.0056410351	-0.274439
C	 0.1557999827	 3.3453656617	 0.416588547	-0.259176
C	 1.2366473046	 2.2717607015	 0.0529244738	-0.261052
C	 2.2858922994	 1.9780400862	 1.007528422	 0.28536
N	 3.1003954847	 1.7437693157	 1.7932447254	-0.301552
C	-1.6747196442	 2.6734938539	-1.2402050399	 0.279196
N	-2.1831922582	 2.924346573	-2.2477564814	-0.301154
H	-1.7301047426	 2.1553659011	 0.7898086568	 0.168891
H	 0.214319601	 4.2668637923	-0.1587984693	 0.156906
H	 0.134010635	 3.5736057721	 1.4815392888	 0.156333
H	 1.6718974166	 2.46238136	-0.9352643788	 0.177494
