21
gdb 96103	2.779	1.33254	1.03589	1.8113	78.72	-0.2421	0.0779	0.32	1208.9452	0.183442	-424.221628	-424.213238	-424.212294	-424.254171	33.713	
O	-0.0838617851	 1.4422990459	 0.0315886855	-0.438523
C	 0.0020711613	 0.024654225	 0.011896975	 0.123584
C	 0.7756059577	-0.537048957	 1.2109106525	-0.234045
C	 0.6694388131	-2.0646892808	 1.2425534821	-0.091454
O	-0.6867813258	-2.4879989287	 1.267549233	-0.288375
C	-1.4054078977	-2.0325950605	 0.1487076756	 0.44111
C	-1.3685918956	-2.9078867031	-1.0855306424	-0.324137
C	-2.598214421	-2.8600142618	-0.1961340605	-0.333816
C	-1.4260929909	-0.521828116	 0.0257105243	-0.26013
H	 0.8119371532	 1.7947720233	 0.0432559372	 0.278092
H	 0.4960280354	-0.3147200503	-0.9149084893	 0.063129
H	 1.8315976945	-0.2398047704	 1.1659987263	 0.083061
H	 0.3489829393	-0.119020745	 2.1301740939	 0.111911
H	 1.1837368991	-2.4980293095	 0.3690069265	 0.087843
H	 1.1326165912	-2.4742957154	 2.1442755747	 0.107249
H	-1.4158103198	-2.4400849503	-2.0633008444	 0.110558
H	-0.7618924409	-3.8051102778	-1.0369898114	 0.116581
H	-2.7863798252	-3.7212169457	 0.4345035296	 0.123631
H	-3.4867139892	-2.3555681971	-0.5601032795	 0.112875
H	-1.9539856843	-0.0894848691	 0.8845568348	 0.110047
H	-1.9568494692	-0.2121657656	-0.8794720032	 0.100809
