16
gdb 49008	3.38152	1.3353	1.12134	1.5631	70.08	-0.2537	-0.0459	0.2078	1069.4332	0.123585	-437.88157	-437.873741	-437.872797	-437.914314	29.032	
O	-0.8003317468	 1.0802473212	 0.7873750711	-0.24285
C	-0.0035612009	 1.1221152707	-0.1139389283	 0.099485
C	 1.3154018121	 1.845575407	-0.0559125005	 0.265495
C	 1.4924060864	 2.9289796196	 1.0385116216	-0.316913
C	 1.545956304	 3.9886742575	-0.1022995288	-0.182711
N	 1.5194463542	 2.8922395915	-1.1366524471	-0.182691
C	 2.7844117857	 2.3222678171	-1.4634185551	 0.399763
O	 3.692651767	 2.7652266683	-2.0983886398	-0.304197
C	 2.5500839157	 1.0698055962	-0.5888652432	-0.452077
H	-0.19511398	 0.6210045362	-1.0900688272	 0.088162
H	 0.6456107257	 2.9999985721	 1.7213281595	 0.143405
H	 2.4158260232	 2.8392088857	 1.6141863075	 0.119897
H	 0.6607072526	 4.622668335	-0.1787423199	 0.132337
H	 2.4424545701	 4.6083395974	-0.1697843641	 0.139059
H	 3.3468674101	 0.8571235588	 0.1257915606	 0.150016
H	 2.3133588011	 0.1580357257	-1.1455706762	 0.14382
