21
gdb 59094	2.01677	1.51896	0.95458	4.0824	78.35	-0.2659	0.0131	0.279	1285.5975	0.180966	-424.27057	-424.260773	-424.259829	-424.305211	36.091	
C	-0.5470438731	 1.2090351136	 0.1846002825	-0.39666
C	-0.0411669051	-0.2385723514	 0.2597555566	 0.007736
C	-1.188513783	-1.2031210313	 0.5998516001	-0.397292
C	 0.6255907816	-0.6622956983	-1.0550034025	-0.203914
C	 2.0263310842	-0.1465734558	-1.4971527181	 0.115232
C	 2.8874800915	 0.6685919769	-0.5561903296	-0.407265
O	 2.5048664486	-1.540009907	-1.5636449914	-0.254778
C	 1.3102960038	-2.0312095769	-1.1119096169	 0.455283
O	 1.0365332302	-3.16659063	-0.8780441732	-0.332893
H	 0.256309843	 1.9198205355	-0.0303930207	 0.114863
H	-1.305633559	 1.3136257173	-0.6000810521	 0.116603
H	-1.0080149698	 1.5048193484	 1.1323348294	 0.119598
H	 0.7032645247	-0.3047468934	 1.0633864923	 0.082347
H	-1.9796558547	-1.1462616195	-0.1573748071	 0.112541
H	-0.8402794807	-2.2375020675	 0.6422277527	 0.151435
H	-1.6336137047	-0.9423418344	 1.5651516819	 0.11098
H	-0.1035953358	-0.5792832041	-1.8696763965	 0.108567
H	 2.0388770028	 0.2771706962	-2.5053090057	 0.097508
H	 2.8776139075	 0.2585336937	 0.4569953396	 0.132727
H	 3.9216349139	 0.6658028107	-0.9128968397	 0.137871
H	 2.5460101142	 1.7070703373	-0.5186424816	 0.129512
