14
gdb 27834	2.10677	1.87766	0.99321	1.9312	71.65	-0.2024	-0.0168	0.1856	1100.7105	0.102343	-470.061603	-470.053934	-470.05299	-470.093587	29.744	
N	 0.0476153663	 1.3510919122	 0.1304978493	-0.56527
C	-0.0315564008	-0.0083262182	 0.0509892861	 0.391421
C	-1.2066414712	-0.7064269477	 0.0290855616	-0.256618
C	-1.2007654937	-2.1316227437	-0.0023110781	 0.382167
N	-2.1939448646	-2.9168572518	-0.0217640502	-0.551604
O	 0.1235702977	-2.7001676363	-0.0144960951	-0.282166
C	 1.1922322601	-1.8984260891	-0.0014880024	 0.500703
O	 2.3342550518	-2.5819310463	-0.0277100882	-0.381837
N	 1.2125168623	-0.6212541081	 0.0301653107	-0.402787
H	 0.9417736851	 1.7547630047	-0.0959872741	 0.266526
H	-0.7677216421	 1.8985473425	-0.0865921857	 0.262634
H	-2.1711218455	-0.2187682471	 0.0425927382	 0.103461
H	-1.9009157699	-3.8914803785	-0.0444292661	 0.216841
H	 2.1184938545	-3.5235359226	-0.0506933161	 0.316528
