19
gdb 105274	2.10054	1.46159	1.01081	1.7321	71.55	-0.2544	0.0714	0.3258	1206.4489	0.157047	-460.107198	-460.097603	-460.096659	-460.141912	35.036	
O	-0.3686460533	 1.3737795742	-0.8105427689	-0.426908
C	-0.1207269633	 0.167302813	-0.0941426361	-0.160928
C	-1.431620249	-0.5669238311	 0.0525703774	 0.302744
C	-1.9630959709	-1.3369611643	-1.1407717636	-0.365677
C	-1.4211555361	-2.0735185066	 0.0564697135	 0.047397
O	-0.1777263255	-2.7137879234	-0.0080472319	-0.427041
C	-2.4175941859	 0.1195075343	 0.9543424997	 0.001614
C	-3.4540031604	 1.0196926761	 0.4416483007	-0.162506
O	-3.7803142153	-0.3052008002	 0.8818349347	-0.245706
H	 0.4598893099	 1.8591697051	-0.8654470892	 0.286194
H	 0.6011106151	-0.4750033738	-0.6123090825	 0.104153
H	 0.2906273305	 0.3843361357	 0.905697547	 0.086083
H	-3.0356920354	-1.3496757003	-1.2960665441	 0.128904
H	-1.3529839445	-1.3208949019	-2.0372724385	 0.11383
H	-2.149577243	-2.5546505451	 0.7085316929	 0.102536
H	-0.2756750395	-3.4897052539	-0.5695283339	 0.289821
H	-2.0610287537	 0.284785208	 1.9737377464	 0.089647
H	-3.835250095	 1.8229682756	 1.0695312403	 0.113092
H	-3.5227710448	 1.1848737385	-0.6311121139	 0.122753
