20
gdb 120111	2.82286	1.10291	0.93799	3.7148	79.02	-0.2435	-0.0094	0.2341	1342.0561	0.170292	-403.136648	-403.127658	-403.126714	-403.171151	33.305	
C	 0.1796357389	 1.4739311488	 0.0733938122	-0.385091
C	 0.3768469303	-0.0399780021	-0.030412561	-0.159941
C	 0.4755910094	-0.5265820579	-1.4840237921	-0.219867
C	 0.615815015	-2.030169384	-1.5791578829	 0.004179
C	 1.3579072713	-2.7898669413	-2.5980006126	-0.056051
C	 2.6130759414	-2.0788960108	-3.0999617354	-0.380506
C	 2.987773811	-1.9765547244	-1.6124583016	 0.403583
O	 3.8978647492	-1.5266072526	-0.9890869241	-0.300931
N	 1.8591182564	-2.7591757624	-1.1389029196	-0.196805
H	 1.0144089679	 2.0142987329	-0.3864887131	 0.119647
H	-0.7395943507	 1.7919716012	-0.431597048	 0.112189
H	 0.1134341468	 1.7933202162	 1.1176657462	 0.117891
H	 1.2863951071	-0.3365521392	 0.5041281748	 0.128986
H	-0.4539762419	-0.5568930263	 0.4669258959	 0.098127
H	-0.4312602031	-0.2399657973	-2.0335096025	 0.103219
H	 1.3084884	-0.0179036721	-1.9810720271	 0.110525
H	-0.2470519641	-2.5599980399	-1.1781424166	 0.110942
H	 0.9855142798	-3.7216964327	-3.0073808219	 0.111569
H	 3.2992810598	-2.7451365755	-3.6295225979	 0.144263
H	 2.5056529257	-1.1515472406	-3.6670386528	 0.134072
