11
gdb 1006	9.28384	2.00762	1.65067	0.9458	63.52	-0.2176	-0.0207	0.1969	695.0087	0.078838	-306.113519	-306.107793	-306.106849	-306.142861	21.464	
C	 0.1113182719	-1.1707353242	-0.0055582733	-0.420747
C	 0.0174177937	 0.0301466406	 0.0025413504	 0.257535
C	-0.1072709765	 1.4297550782	 0.0121085801	 0.227117
C	-1.1947312711	 2.2616751587	 0.0316365413	-0.287386
C	-0.6874144115	 3.594342073	 0.0322000284	-0.158308
C	 0.6684424628	 3.4787515093	 0.0130364519	-0.022537
O	 1.0424961249	 2.1784785868	 0.0006222855	-0.168393
H	 0.1938764952	-2.2292884915	-0.0127264188	 0.196292
H	-2.2260475153	 1.9478858558	 0.0439550901	 0.119767
H	-1.2545596766	 4.5114684679	 0.0451007135	 0.118425
H	 1.4735985924	 4.1950473154	 0.0060728809	 0.138236
