18
gdb 49625	4.79453	0.99366	0.91885	3.7397	79.72	-0.2393	0.0048	0.2441	1288.1024	0.147146	-401.902899	-401.8949	-401.893956	-401.935639	30.539	
O	 0.159926426	 0.0779751146	 0.5099314421	-0.296962
C	 0.0855670522	 1.1962664437	 0.058650354	 0.134005
N	 1.1019523608	 1.8588843988	-0.6030335491	-0.072183
C	 2.4860171274	 1.8293625651	-0.1684750617	-0.023542
C	 3.3499972966	 2.3393540216	-1.336181883	-0.337618
C	 2.5279253563	 3.6560836734	-1.301206006	 0.384672
C	 3.075988662	 5.047455072	-1.4060720065	-0.33569
C	 2.0848923687	 4.5345695714	-2.4288478819	-0.31446
C	 1.6985513326	 3.1180493067	-0.1514828276	-0.158034
H	-0.8506191214	 1.7877574565	 0.0573926647	 0.081322
H	 2.7714185333	 1.1863545874	 0.6536666599	 0.125637
H	 4.3942645045	 2.4900516811	-1.0513656071	 0.114501
H	 3.296275057	 1.7429944699	-2.2500615591	 0.117293
H	 2.7346143356	 5.7888965373	-0.6904242407	 0.116138
H	 4.1122374748	 5.1652896628	-1.706518658	 0.117431
H	 2.4530540914	 4.304463331	-3.4231970675	 0.119805
H	 1.0737109114	 4.9273864837	-2.408616577	 0.117532
H	 1.2728046509	 3.6552968731	 0.6888688446	 0.110154
