23
gdb 1691	3.74455	1.64436	1.23926	0.0663	77.88	-0.2985	0.0837	0.3822	1068.0204	0.216155	-276.201993	-276.192206	-276.191262	-276.237012	35.513	
C	-0.0597931917	 1.5872721826	 0.100877323	-0.389502
C	 0.056110081	 0.0595427027	 0.0345627904	-0.172877
C	 0.7321243123	-0.4878978876	-1.2413385451	 0.067105
C	 2.1998312984	-0.0339028955	-1.3103204419	-0.406071
C	 0.595009845	-2.0321148586	-1.3489426602	 0.051179
C	-0.8710079202	-2.4861154615	-1.4546848086	-0.395377
C	 1.3811374931	-2.6154496987	-2.5353267344	-0.398483
H	 0.9158251087	 2.0793997157	 0.1499864421	 0.117277
H	-0.5864075543	 1.9807580735	-0.7762099228	 0.111917
H	-0.6225089565	 1.8941046595	 0.9884136351	 0.109722
H	 0.6101129687	-0.3039907728	 0.9116745043	 0.089026
H	-0.9520358634	-0.3564707399	 0.1210722257	 0.094376
H	 0.2058721554	-0.0558397949	-2.1076896568	 0.061504
H	 2.6635832884	-0.2863178031	-2.266567042	 0.114158
H	 2.2886133331	 1.0488114356	-1.1884542346	 0.111327
H	 2.792103842	-0.5052839254	-0.515827601	 0.108221
H	 1.0164363441	-2.4618595506	-0.4270793677	 0.066012
H	-0.9285731056	-3.5747250603	-1.5575226684	 0.107581
H	-1.4666095558	-2.2120337604	-0.5807856597	 0.114271
H	-1.3513944404	-2.0471320304	-2.3378587827	 0.109539
H	 2.4593496872	-2.4707091699	-2.436003248	 0.113781
H	 1.2017074092	-3.6922848388	-2.6202975762	 0.106432
H	 1.0658858413	-2.1548822811	-3.4799890806	 0.108883
