15
gdb 61200	3.87335	0.86673	0.80509	2.5714	66.3	-0.3164	-0.0037	0.3127	1372.8721	0.110959	-453.960205	-453.950755	-453.949811	-453.995046	33.041	
O	 0.3356817289	 1.4363691164	 0.0048200279	-0.439397
C	 0.0897300682	 0.047698668	 0.0417314002	 0.104092
C	 0.6492136308	-0.6663418222	-1.2123091622	-0.360861
C	 0.1214380597	-0.0488376533	-2.4238682888	 0.241218
N	-0.3209539449	 0.4959980249	-3.3423409876	-0.295996
C	 0.8324827029	-0.4496844896	 1.2996169293	-0.031437
O	 2.1883560039	-0.0747365858	 1.2654412957	-0.41018
C	 0.1533954161	 0.0438284226	 2.5179616563	 0.281441
N	-0.3750272395	 0.4195132998	 3.4735885688	-0.308608
H	-0.1031963734	 1.8213637432	-0.7625921305	 0.314692
H	-0.9823439868	-0.1704293591	 0.1404439549	 0.116628
H	 1.7408505907	-0.5886420729	-1.205980937	 0.176921
H	 0.3838739588	-1.7289884118	-1.197481269	 0.159555
H	 0.8094610314	-1.5444931895	 1.3254824091	 0.14221
H	 2.2033390233	 0.8785974693	 1.100871193	 0.309722
