21
gdb 103757	3.25454	1.00825	0.89308	1.297	75.7	-0.2356	0.0651	0.3007	1385.943	0.178953	-461.340829	-461.330125	-461.329181	-461.376131	39.772	
C	 0.2540181366	 1.4633846183	 0.2563172797	-0.39668
C	-0.1727262885	 0.0414823234	-0.1254378456	-0.216165
C	 0.5837442163	-0.4970020322	-1.3245421251	 0.326344
O	 0.3510386356	 0.2036670601	-2.5256456772	-0.475528
C	 1.9637495212	-1.1109073427	-1.1390515881	-0.414492
C	 0.7580586737	-1.9712883347	-1.499241805	 0.390533
O	 0.2071778205	-2.7837655616	-0.5025725276	-0.481349
C	 0.6761944957	-2.6049423145	-2.8653455022	-0.14394
O	 1.3277953441	-3.8737525778	-2.7466694371	-0.437354
H	 1.3193500446	 1.5044313922	 0.5089201848	 0.115374
H	 0.0727020466	 2.1677802967	-0.563323272	 0.107251
H	-0.3097552399	 1.8227638136	 1.1220545235	 0.116457
H	-0.027764575	-0.6397921444	 0.7167469806	 0.118475
H	-1.2434941781	 0.0272146744	-0.3620194851	 0.103813
H	 0.8492989698	 1.0268826335	-2.4845459116	 0.283029
H	 2.7069255651	-0.9309150536	-1.9086741204	 0.108065
H	 2.3451479596	-1.2007581636	-0.1278406192	 0.113138
H	 0.5833788767	-3.6599828454	-0.6594037495	 0.288275
H	-0.3799087758	-2.7361769577	-3.1407500491	 0.099232
H	 1.153828845	-1.9709039177	-3.6195289934	 0.103688
H	 1.0538545961	-4.4239945563	-3.4853035302	 0.291833
