18
gdb 108601	2.82149	1.28808	0.90199	5.4588	76.59	-0.2365	-0.0136	0.2228	1253.5101	0.146684	-439.135349	-439.125529	-439.124585	-439.171727	33.929	
C	 0.1663500275	 1.5725829444	-0.0139010481	-0.493583
C	 0.0010180833	 0.0885209351	 0.0173730843	 0.085465
C	-1.0797235182	-0.705793781	-0.0134608306	 0.180782
C	-2.5411572603	-0.39560837	-0.1071174875	-0.173109
O	-2.7994827881	 0.9632898048	 0.1897670453	-0.404436
C	-0.6596124237	-2.161855008	 0.0408854836	-0.245866
N	 0.7754846441	-2.0724756341	 0.1157599959	-0.352277
C	 1.2287483004	-0.7740835506	 0.085898956	 0.388289
O	 2.3875099685	-0.4117571307	 0.1035546336	-0.386868
H	 0.9178686688	 1.840709053	-0.7638684019	 0.136666
H	-0.7716734184	 2.0818819095	-0.2226760022	 0.14175
H	 0.5571228955	 1.9299443122	 0.9461557183	 0.136206
H	-2.892391973	-0.6553151041	-1.1221030778	 0.106095
H	-3.087154898	-1.0629820766	 0.5832016463	 0.098711
H	-3.7312120694	 1.1327171809	 0.0235805844	 0.29283
H	-1.092892142	-2.6672414101	 0.9173037438	 0.119889
H	-0.9980993211	-2.7151914768	-0.8488264247	 0.117895
H	 1.4014657343	-2.858740098	 0.1040269012	 0.251562
