18
gdb 114178	4.10264	0.92874	0.82406	2.1866	75.59	-0.2451	-0.0329	0.2122	1373.3336	0.146824	-439.042751	-439.03399	-439.033046	-439.076559	32.26	
O	 0.1230207036	 1.3777835617	 0.0196170712	-0.418637
C	 0.0534933115	-0.030145358	 0.1903116166	-0.088528
C	-1.3661802987	-0.5550286202	 0.0162891263	 0.015086
C	-2.0018393606	-0.5341851456	-1.424443107	-0.324035
C	-2.2157655331	-2.0412033523	-1.3175582772	 0.268572
N	-0.8804471537	-2.6578701529	-1.0930322283	-0.353594
C	-1.5674042973	-2.0798587256	 0.0558898789	-0.131535
C	-3.369316082	-2.8414816007	-1.7292293426	 0.050925
O	-4.3182298956	-2.4177728485	-2.3454293838	-0.265241
H	-0.0543863705	 1.570561636	-0.9066072516	 0.286292
H	 0.7296162988	-0.5591458741	-0.4947739144	 0.110879
H	 0.3989324234	-0.2242371138	 1.21213031	 0.108559
H	-2.0300221634	-0.058905849	 0.7286987166	 0.093945
H	-2.9395084676	 0.0192972201	-1.4760670191	 0.134411
H	-1.3462214183	-0.2297691657	-2.2449158925	 0.105695
H	-0.9976666732	-3.6717848854	-1.0595040641	 0.238871
H	-1.8413553769	-2.6904724133	 0.9088029446	 0.109862
H	-3.3138708862	-3.9078151126	-1.3996982437	 0.058473
