24
gdb 122174	3.06931	0.71627	0.69521	1.3231	86.87	-0.2198	0.0817	0.3015	1785.4234	0.215033	-405.517243	-405.506114	-405.505169	-405.553981	40.278	
C	-0.3608109959	 1.3808280385	 0.1237707282	-0.314453
N	-0.0601366965	-0.0356604475	 0.2577337754	-0.10319
C	 1.2378500199	-0.5077653553	-0.2152782481	-0.303666
C	 0.9158102206	-0.5147231932	 1.2449202016	 0.339656
C	 1.6526023876	 0.4513127693	 2.1573733577	-0.467367
C	 0.5043382376	-1.8310730918	 1.8921456133	-0.246305
C	-0.5410688401	-1.6673472845	 3.0018712788	-0.16691
C	-1.0289000652	-3.0016875276	 3.5493632586	-0.074798
O	-1.9654636606	-2.7365123921	 4.5840142417	-0.422896
H	 0.5123884092	 2.0485689139	 0.1861283423	 0.097104
H	-0.8342783452	 1.5453024281	-0.8499122142	 0.122408
H	-1.0751755264	 1.6781031762	 0.8984828484	 0.122587
H	 1.2330424938	-1.4287875079	-0.7947276035	 0.104619
H	 1.9528300609	 0.2385903441	-0.5626789912	 0.097764
H	 2.0256268002	 1.3274379377	 1.6236283564	 0.118039
H	 1.0130773857	 0.8017076443	 2.9744842666	 0.125901
H	 2.5163008393	-0.0493063247	 2.6082536513	 0.120011
H	 0.0956782293	-2.4795465717	 1.1090037329	 0.098272
H	 1.3986610842	-2.3327008469	 2.2879040067	 0.087192
H	-0.1372831487	-1.0857167921	 3.8385081137	 0.102399
H	-1.4011104294	-1.1122043306	 2.6104639959	 0.115375
H	-1.4875236973	-3.5903909515	 2.7379204525	 0.084769
H	-0.1728895468	-3.5849499042	 3.9287354863	 0.079831
H	-2.290526036	-3.5777517605	 4.9173204487	 0.283656
