19
gdb 40203	3.01986	1.5617	1.26103	1.5123	74.23	-0.246	0.0596	0.3056	1038.312	0.160751	-422.999335	-422.99188	-422.990936	-423.031363	29.322	
C	 0.0703578642	 1.4242927528	-0.0006332455	-0.257761
O	 1.1772755705	 0.5229489831	 0.1208080535	-0.283472
C	-0.1480801402	-0.0206439884	 0.0094534166	 0.443024
C	-0.6720880959	-0.8323489916	 1.1826110641	-0.304311
C	-0.3724510229	-2.2909329072	 0.7634002146	-0.2333
C	-0.5474740802	-2.3128630345	-0.766655975	-0.074956
C	-1.9915777061	-2.1924072158	-1.2955836167	-0.080245
O	-1.808184421	-0.7980452274	-1.6293905912	-0.297409
C	-0.4150588914	-0.8369743568	-1.2384450864	 0.048426
H	-0.1569391771	 2.0060034568	 0.8919754272	 0.113479
H	 0.0140737441	 1.9757180817	-0.9383172138	 0.118402
H	-0.1971103258	-0.541790887	 2.121948739	 0.112352
H	-1.7514054156	-0.6717029143	 1.2824083562	 0.117466
H	 0.665301472	-2.5370328178	 1.0123708661	 0.114493
H	-1.0121046211	-3.0209568909	 1.268773607	 0.100003
H	 0.069416869	-3.061978902	-1.2627162614	 0.081558
H	-2.2158407553	-2.7932796919	-2.1855022918	 0.102099
H	-2.7910187177	-2.3388586213	-0.5576548061	 0.099266
H	 0.2597329702	-0.5831543774	-2.0616207963	 0.080888
