19
gdb 37838	3.01498	2.26562	1.67766	1.0424	85.14	-0.1978	-0.0299	0.1679	858.4816	0.162134	-348.625661	-348.61967	-348.618726	-348.655381	27.029	
C	-0.0866266237	 1.5618726033	 0.1330360257	-0.330128
C	 1.4540958559	 1.2915699051	 0.0704643103	-0.076664
C	 1.2788311354	-0.0453342794	 0.8209894615	-0.033362
C	 2.3826312795	-1.0508831132	 0.2936425303	-0.281873
C	 1.7374295574	-1.0404006633	-1.0762345617	 0.045363
C	 0.685051023	-1.8866863345	-1.2491504635	-0.112027
C	-0.6295326537	-1.13423643	-0.9610245862	-0.370827
C	 0.0538936525	 0.070158261	-0.254717019	 0.312708
C	 1.227102344	 0.400148578	-1.1922227014	-0.046089
H	-0.5002003098	 1.8076453101	 1.1164805338	 0.090099
H	-0.4955169108	 2.220149032	-0.6391935525	 0.094128
H	 2.2463390914	 2.0221098416	 0.2448843607	 0.069484
H	 1.0562845174	-0.0420208266	 1.8908109756	 0.068096
H	 3.3837077692	-0.6150402563	 0.387308979	 0.097761
H	 2.3534681373	-2.0235296167	 0.7895639389	 0.101046
H	 0.7543259228	-2.940816817	-0.9966977493	 0.089707
H	-1.2328577511	-0.775509459	-1.8062252062	 0.109819
H	-1.2790053672	-1.7711047952	-0.3492740418	 0.104706
H	 1.0201615004	 0.8355592201	-2.1698155043	 0.068052
