16
gdb 51436	3.08085	1.21729	0.98087	3.2809	72.12	-0.2422	-0.0313	0.2109	1195.0342	0.123626	-437.863565	-437.855346	-437.854402	-437.897452	29.526	
N	-0.0993643361	 1.2510367627	 0.0297190852	-0.438312
C	-0.1518247946	 0.0102344841	-0.1874936889	 0.121171
O	-1.0785326114	-0.7382331783	 0.4600504328	-0.19904
C	-1.0691271252	-2.1234314305	 0.1690224013	-0.018092
C	-2.2461517652	-2.9035751588	 0.7377406977	-0.076424
C	-3.5095058174	-2.4256840398	 0.1223339245	-0.276655
C	-2.6486894417	-3.3899371337	-0.6899351677	-0.179202
C	-1.4964664615	-2.6258186744	-1.2523132263	 0.39909
O	-0.9712337249	-2.5380859196	-2.3258043392	-0.316363
H	 0.6424521262	 1.6681779544	-0.5288889775	 0.232377
H	 0.4800694291	-0.5676956584	-0.8719167471	 0.113674
H	-0.1003381734	-2.5717576015	 0.4278791121	 0.113042
H	-2.2112633209	-3.5048545952	 1.6355172945	 0.116349
H	-4.4224151905	-2.8732784163	 0.4998866818	 0.135587
H	-3.6085682372	-1.3899613008	-0.1830859314	 0.150919
H	-3.0252704852	-4.3488218438	-1.0207969217	 0.121879
