18
gdb 26727	3.22692	1.26213	0.91761	3.0127	83.69	-0.2152	-0.0321	0.183	1252.8471	0.147371	-402.019665	-402.010699	-402.009755	-402.053476	32.607	
C	-0.0306543331	 1.5417160122	 0.0674763008	-0.502227
C	 0.0099110325	 0.0454758172	 0.005305993	 0.184463
C	-0.0084425145	-0.7512218116	-1.1088607445	 0.225624
C	-0.0722655114	-0.3948816325	-2.5588441346	-0.506352
N	 0.0460121119	-2.0861431017	-0.6699211849	-0.104273
C	 0.0494709546	-3.225129224	-1.4613166659	 0.173981
O	 0.0977178602	-4.3490179539	-1.0276997515	-0.302826
C	 0.0980413464	-2.1086584976	 0.7212141119	-0.071357
C	 0.0772992791	-0.8232808722	 1.1566064385	-0.251125
H	 0.8576494564	 1.9431332736	 0.569178455	 0.13173
H	-0.0800197806	 1.996170174	-0.9251644073	 0.122486
H	-0.901386632	 1.8927957614	 0.6336028204	 0.131733
H	 0.8020197382	-0.7485342828	-3.1186141002	 0.135926
H	-0.963932937	-0.7989521931	-3.0532609437	 0.135929
H	-0.1072607327	 0.6907406725	-2.6668099011	 0.138428
H	 0.0030009545	-2.9904040894	-2.5372966466	 0.099272
H	 0.1440144588	-3.0555103086	 1.230948865	 0.151878
H	 0.106239339	-0.5035490234	 2.1879269159	 0.10671
