15
gdb 101994	3.29337	0.7139	0.60414	2.4682	86.16	-0.2469	-0.0457	0.2012	1735.756	0.108546	-420.569232	-420.559254	-420.558309	-420.60525	34.364	
O	 0.1123477637	 1.4166413329	-0.2251709066	-0.40009
C	 0.0712356981	 0.028995666	 0.0169494711	-0.073888
C	-1.3853406899	-0.5128706138	 0.0494476191	-0.327851
C	-2.1084105471	-0.0856447972	-1.2387414233	 0.189464
O	-3.0681247073	 0.6318032613	-1.2579769373	-0.235281
C	-1.4030122799	-1.9598274655	 0.1694077256	 0.408185
C	-1.3967329936	-3.1687719421	 0.2383998298	-0.271251
C	-1.3960265407	-4.5265069114	 0.3184535982	 0.298162
C	-1.3932507163	-5.7317873893	 0.3902521757	-0.549273
H	-0.2984608493	 1.8730824501	 0.5166804707	 0.294088
H	 0.6118417424	-0.443068051	-0.8090027523	 0.133442
H	 0.5758116673	-0.2565290293	 0.9498759496	 0.117351
H	-1.9283616915	-0.0518818516	 0.8845441511	 0.12354
H	-1.657433367	-0.5040949383	-2.16452171	 0.09594
H	-1.394265859	-6.7918738806	 0.4522864585	 0.197462
