21
gdb 108664	2.12139	1.46235	0.92952	2.365	82.92	-0.2195	0.0266	0.2462	1302.5189	0.180619	-424.234082	-424.223912	-424.222968	-424.26953	36.512	
C	 0.1230047041	 1.5250977896	-0.1176417398	-0.395275
C	-0.0215529433	 0.0246692758	 0.1453952213	 0.062408
O	 0.4282062894	-0.7001881378	-0.9982956298	-0.279095
C	 1.3554404249	-1.6990860639	-0.6028569259	-0.147375
C	 1.5963329775	-1.4932275046	 0.8722465069	 0.174115
C	 2.5918662444	-2.3479440922	 1.5917129856	-0.500285
C	 0.7996639474	-0.5111779065	 1.300768279	 0.180453
C	 0.5996461123	 0.083395247	 2.6602432903	-0.186099
O	 1.0961601557	-0.7659554576	 3.6822644276	-0.408943
H	 1.1765390239	 1.793025529	-0.2430971016	 0.116977
H	-0.4142804197	 1.7942902255	-1.0313317424	 0.126166
H	-0.2956618519	 2.1118798543	 0.7073226504	 0.107607
H	-1.0930765809	-0.1937445666	 0.3121808093	 0.072228
H	 0.9510325586	-2.7058245631	-0.8079724682	 0.095561
H	 2.2792057671	-1.6022152337	-1.1956124635	 0.098733
H	 3.5833205762	-2.2508170959	 1.1300925623	 0.117988
H	 2.6620391829	-2.0838860415	 2.644532437	 0.15439
H	 2.3186018089	-3.4085486819	 1.5144317036	 0.122155
H	 1.088639615	 1.0723691974	 2.6996802495	 0.103363
H	-0.4796980062	 0.2727714566	 2.8008372377	 0.095585
H	 1.029608114	-0.29318391	 4.5168391709	 0.289343
