16
gdb 11293	4.85643	1.3883	1.18685	0.8302	66.97	-0.2605	0.0274	0.2879	1016.1927	0.129248	-383.707969	-383.700001	-383.699057	-383.740867	28.972	
C	 0.0286458177	 1.5374632592	-0.0451832227	-0.406902
C	 0.1163205135	 0.0299873831	-0.0466845355	 0.230387
O	 0.9104358636	-0.42478188	-1.1198499651	-0.243182
C	 1.3007855919	-1.7312374203	-0.7504864154	-0.129245
C	 1.4547516873	-1.6384216269	 0.7998883978	-0.071569
O	 0.7665632604	-0.428956933	 1.1314328013	-0.265221
C	 0.9151291522	-2.8002736194	 1.4994786082	 0.333632
C	 0.481480496	-3.7694668046	 2.0622188493	-0.467456
H	 1.0331693186	 1.9641110963	 0.0032238909	 0.133074
H	-0.4677472552	 1.8827271982	-0.9555842918	 0.129544
H	-0.5472440514	 1.8742335501	 0.8200368384	 0.133043
H	-0.886328374	-0.4328861908	-0.1089919768	 0.068347
H	 0.5321185679	-2.4711379051	-1.0123076931	 0.110765
H	 2.2337985813	-1.9805756048	-1.2586195045	 0.125591
H	 2.50661822	-1.5030845493	 1.0785869131	 0.115543
H	 0.0990591503	-4.6216713927	 2.5678659061	 0.20365
