18
gdb 39547	3.29655	2.07136	1.63105	0.7916	78.73	-0.2057	0.0204	0.226	859.3992	0.151151	-364.750735	-364.74473	-364.743786	-364.780678	26.237	
C	 0.0091171065	 1.5138792907	 0.0609768624	-0.224309
C	 1.3264364697	 2.2337697676	-0.0871338987	-0.057886
C	 2.4774505357	 1.5779336448	-0.232086644	-0.089262
C	 2.4813742851	 0.0793700918	-0.2595948816	-0.045688
C	 2.1687530997	-0.7142319026	 1.0213658516	-0.100412
C	 1.2962108022	-1.6974448031	 0.2643930504	-0.123989
C	 0.6261591715	-0.6808131945	 1.1331090612	-0.023893
N	 0.072301827	 0.0469072574	-0.0091486466	-0.093932
C	 1.1686160107	-0.568944501	-0.8162480629	-0.045127
H	-0.4580630169	 1.7693178764	 1.0223269476	 0.111865
H	-0.6901547553	 1.8748579756	-0.7084073586	 0.108308
H	 1.2906591212	 3.3208178709	-0.1056055494	 0.085967
H	 3.4146327803	 2.1146622853	-0.3520738944	 0.084005
H	 3.3602443144	-0.3371724248	-0.758378543	 0.071124
H	 2.809628361	-0.8969584145	 1.8750181878	 0.083493
H	 1.2407939935	-2.774605717	 0.2264967035	 0.095994
H	 0.0955526637	-0.8011923819	 2.0699886359	 0.091382
H	 1.0018119401	-0.6717751112	-1.8872852014	 0.072361
