19
gdb 118357	2.85687	0.97151	0.79424	2.6818	73.02	-0.2487	-0.0336	0.2151	1480.1657	0.155516	-460.133188	-460.123238	-460.122294	-460.169083	34.479	
C	-0.3363248987	 1.9043633916	-0.574934258	-0.385657
C	-0.2255510337	 0.4215019887	-0.2696969856	-0.046051
O	 0.8273292122	-0.119231568	-1.0570566668	-0.258475
C	 1.0373634096	-1.4996986509	-0.8614030587	 0.017581
C	-0.0369536178	-2.3247757689	-1.5817441442	 0.132282
O	-0.325526672	-3.455263059	-1.2899286562	-0.244674
C	 2.405214465	-1.8389462632	-1.4253430256	 0.051037
C	 2.8250752565	-3.2196696138	-1.6790916981	-0.186167
O	 2.4430386556	-2.3582798526	-2.7573771292	-0.2282
H	 0.6040871279	 2.4132718929	-0.3458869366	 0.130627
H	-0.5632480544	 2.0628158141	-1.6327495991	 0.13254
H	-1.1324222752	 2.3563417592	 0.0237493764	 0.120336
H	-0.0115544285	 0.2550373079	 0.7986881841	 0.095886
H	-1.1762743873	-0.0900475313	-0.4905967825	 0.097051
H	 1.0149155579	-1.7575437567	 0.2102032759	 0.095466
H	-0.5241373625	-1.7765823438	-2.4169059476	 0.102781
H	 3.156569323	-1.0800758891	-1.2090934635	 0.109323
H	 3.8839853646	-3.4674046876	-1.6352408633	 0.121869
H	 2.1348378979	-4.0341359995	-1.4700091512	 0.142445
