18
gdb 66999	2.54045	2.06101	1.40156	3.068	76.4	-0.248	0.0283	0.2762	956.2902	0.149472	-401.944567	-401.937326	-401.936382	-401.975908	29.259	
C	 0.0183614059	 1.45180783	-0.0270767236	-0.484853
C	 0.0249686122	-0.0545693963	 0.0151613719	 0.25289
C	-0.3595336115	-0.8200389363	-1.2644609127	-0.108188
C	-0.0333284204	-2.3078562015	-1.1598593079	-0.256372
C	-0.5878292472	-2.2531774568	 0.2942049986	 0.057229
O	 0.4949037135	-2.0036137907	 1.2053717931	-0.248466
C	 0.961100328	-0.7365646011	 0.9592530344	 0.362177
N	 1.9841393451	-0.2177922608	 1.4890346096	-0.560967
C	-1.2337383455	-0.8796133198	-0.0265666042	-0.131964
H	 1.0012464139	 1.8250266032	-0.3272604631	 0.144928
H	-0.7273787657	 1.8222767561	-0.7367990559	 0.11138
H	-0.2042996086	 1.8691790512	 0.959074864	 0.132473
H	-0.5184741889	-0.2558167531	-2.1756141229	 0.095691
H	-0.6822266651	-2.8995043208	-1.8114429945	 0.109962
H	 1.0042172786	-2.6390160804	-1.2662782898	 0.109746
H	-1.1782805584	-3.0818656228	 0.6770775927	 0.095583
H	 2.4350351733	-0.8785734017	 2.1238353788	 0.22094
H	-2.2349079391	-0.5248850984	 0.1783216115	 0.097811
