21
gdb 64401	2.21778	1.43085	1.11931	1.8497	79.01	-0.2508	-0.0268	0.224	1188.5905	0.180821	-424.251152	-424.241601	-424.240657	-424.2866	35.395	
C	 0.0045079192	 1.5980103757	 0.0042084006	-0.427581
C	 0.0449008549	 0.0653786674	-0.0202841533	 0.375604
C	-1.3679573115	-0.5112352115	-0.1442767825	-0.419502
O	 0.8154859687	-0.3025226808	-1.1812227434	-0.292145
C	 1.8289111277	-1.230995354	-0.8384893421	-0.081536
C	 2.1860663708	-0.9121631213	 0.6137601572	-0.254529
C	 0.8022722929	-0.5851098193	 1.1990387282	-0.122943
C	 0.8569209255	 0.2852879689	 2.4314991192	 0.146557
O	 0.2188839051	 0.0907973627	 3.4347367823	-0.25624
H	 1.0069206136	 2.022778229	 0.1057348808	 0.115378
H	-0.4130480476	 1.9562590923	-0.9407379958	 0.128697
H	-0.6222063708	 1.9728092083	 0.8196588163	 0.12448
H	-1.8816945862	-0.0771157594	-1.0069580585	 0.121853
H	-1.3296341721	-1.596353066	-0.2779095814	 0.117719
H	-1.9548155794	-0.2969884245	 0.7549763967	 0.126511
H	 1.4676577362	-2.2684185075	-0.9288466212	 0.091984
H	 2.6610705281	-1.1002699263	-1.5367612395	 0.110876
H	 2.6832084826	-1.7360689351	 1.1314847345	 0.113973
H	 2.841250142	-0.0341557012	 0.6592047328	 0.110611
H	 0.282501422	-1.5044873766	 1.4833542724	 0.094821
H	 1.5545330785	 1.1510870892	 2.3585074666	 0.075414
