18
gdb 22371	3.31001	1.16946	1.01004	1.2206	76.43	-0.2433	-0.0009	0.2424	1210.9407	0.14589	-439.014016	-439.005427	-439.004482	-439.04725	32.59	
C	-0.2096236511	 1.4872926551	 0.2742407736	-0.475383
C	 0.0631503696	 0.0235051413	 0.061151236	 0.445922
C	-1.1267377524	-0.976484425	-0.074797695	-0.371917
C	-0.3980240795	-1.8837980915	 0.9026958098	 0.43106
N	-0.6495391993	-2.9733632138	 1.4971840366	-0.244846
O	-1.887500768	-3.4967287177	 1.0832523317	-0.390344
C	 0.7815537778	-0.9574433936	 1.0632761634	-0.23996
C	 1.8305165597	-1.0802826425	-0.0635684271	-0.088755
O	 1.0719303307	-0.2252642685	-0.9468595764	-0.325114
H	 0.7129495482	 2.0250495677	 0.5110345464	 0.125845
H	-0.6332217297	 1.9251316862	-0.6366624204	 0.133464
H	-0.9247571853	 1.6380135368	 1.0890261407	 0.121199
H	-2.0841446477	-0.6135888916	 0.3145029556	 0.125293
H	-1.2781509792	-1.3675153374	-1.0839113453	 0.133109
H	-1.9581522311	-4.2967153753	 1.6150745375	 0.307289
H	 1.1253178999	-0.7098927358	 2.066786334	 0.093949
H	 2.8006156179	-0.6326134134	 0.1855761876	 0.106016
H	 1.9902785795	-2.0820545208	-0.4770547188	 0.113174
