17
gdb 48961	3.15987	1.68148	1.41335	2.5159	71.9	-0.2523	-0.0396	0.2127	940.6663	0.136901	-421.79199	-421.785081	-421.784137	-421.823551	27.339	
O	-0.2095945438	 0.1924068049	-0.3991507565	-0.259066
C	 0.0680452363	 1.1640458502	 0.2618653048	 0.049589
C	 1.3090557558	 1.9605447747	 0.0757840845	 0.376538
O	 1.5390720457	 3.0318082944	 0.9907639471	-0.33683
C	 2.5143766664	 3.4808727786	-0.0031760502	 0.055821
C	 3.6181538107	 2.4174707578	 0.1677934095	-0.212192
C	 2.7149620167	 1.2640558388	-0.3113370236	-0.114712
C	 2.441669726	 1.6637857036	-1.7839810702	-0.249049
C	 1.6638463208	 2.8343511047	-1.1668936062	-0.110301
H	-0.6049395426	 1.5507832874	 1.0586074292	 0.091683
H	 2.7458931849	 4.5424746526	 0.0615844206	 0.088154
H	 4.4919815209	 2.5575587298	-0.4742206615	 0.102952
H	 3.9286171246	 2.3548535147	 1.2121570509	 0.113479
H	 2.9414360192	 0.2413542528	-0.0201425848	 0.086281
H	 3.3060579835	 1.8737925978	-2.4201426274	 0.096776
H	 1.7606213841	 0.9715173785	-2.282407792	 0.131317
H	 0.9324175808	 3.4529767387	-1.6835171341	 0.08956
