19
gdb 51645	4.81335	0.88068	0.80946	3.6173	76.01	-0.2449	-0.0193	0.2255	1415.7865	0.158807	-423.0223	-423.013862	-423.012918	-423.056645	31.16	
O	-0.6500078438	 0.8220978593	 0.8004468015	-0.242222
C	 0.0575116132	 1.0102689704	-0.1565797767	 0.153425
C	 1.3360399257	 1.8233170666	-0.1246256061	-0.295754
C	 1.3448866774	 2.9429975958	-1.1652189576	 0.137687
C	 2.6314991637	 3.7995229601	-1.2042615038	-0.272425
C	 2.7640840985	 4.1472796366	-2.6865832094	-0.06497
C	 3.2978013741	 3.0671336956	-3.6097820933	-0.301388
C	 1.8178395446	 3.2264808509	-3.4046444665	 0.0991
O	 1.2309197089	 2.3544931361	-2.4701452583	-0.277764
H	-0.1917022122	 0.5873386725	-1.1527810111	 0.098265
H	 1.4661986569	 2.2310343973	 0.8818908452	 0.120507
H	 2.1746609507	 1.1489812637	-0.346349903	 0.121183
H	 0.4785272008	 3.6033573703	-0.9987359124	 0.082321
H	 2.5348505624	 4.6919506856	-0.5805150714	 0.111574
H	 3.492501634	 3.229452139	-0.8369290248	 0.105712
H	 2.8733276595	 5.1847331263	-2.9774666463	 0.095929
H	 3.7190474519	 3.3815332963	-4.5591654782	 0.114009
H	 3.7667813534	 2.1958708342	-3.1642701858	 0.11617
H	 1.1597669903	 3.5407052933	-4.2083600919	 0.098642
