18
gdb 50401	3.69689	1.2568	0.9928	4.2013	80.63	-0.2329	-0.0002	0.2327	1176.2755	0.14917	-401.952321	-401.944619	-401.943675	-401.984927	29.317	
O	 0.0874438653	-0.0754502645	 0.5009062254	-0.339204
C	 0.0652024643	 1.1338422702	 0.3882334898	 0.135534
N	 1.1274899491	 1.8939176958	 0.027443215	-0.065633
C	 2.4714491492	 1.3125715206	-0.1900197844	-0.192068
C	 3.2778494979	 2.5078491824	-0.6653724881	-0.227673
C	 2.5741876749	 3.6211442224	-0.4876680204	 0.249385
C	 2.1757230907	 4.8959219819	-1.1984500385	-0.308303
C	 0.7260557923	 4.2748727831	-1.1963651396	-0.246489
C	 1.1838347596	 3.3436300704	-0.005578108	-0.01222
H	-0.8448582509	 1.7439932005	 0.5613661289	 0.066979
H	 2.8446971647	 0.8395057106	 0.7289383454	 0.128672
H	 2.4262580608	 0.5233499673	-0.9500328578	 0.13484
H	 4.2125320909	 2.3947591187	-1.1998853426	 0.108148
H	 2.2265113315	 5.790079736	-0.5696271164	 0.119774
H	 2.6463530462	 5.1061668354	-2.159895692	 0.120767
H	-0.1061663543	 4.9540011249	-0.9983953942	 0.108327
H	 0.5388607732	 3.6965519787	-2.1026747374	 0.122292
H	 0.9092789746	 3.7963656556	 0.955908705	 0.09687
