20
gdb 78692	4.07656	1.21774	1.12323	1.4828	79.55	-0.2094	0.0715	0.2809	1164.4049	0.169212	-403.047478	-403.039048	-403.038104	-403.079737	33.685	
C	 0.0790294861	 1.533224758	-0.2222804387	-0.3247
N	 0.052069404	 0.0826199024	-0.0670357945	-0.122015
C	-1.0925574288	-0.4689321543	 0.7198439936	-0.031175
C	-0.2544521537	-1.7063495621	 1.1634852071	-0.129001
C	 0.6717078925	-0.4513844315	 1.184175237	-0.01619
C	-0.5277414278	-0.0763290131	 2.138400956	-0.108578
C	-0.6374419972	-1.5205859798	 2.6496983486	 0.405664
C	-1.9856044595	-2.0372235969	 3.128375994	-0.467834
O	 0.3861227962	-1.8075473584	 3.5887332743	-0.48343
H	 1.0771740283	 1.8392032246	-0.5533467647	 0.118143
H	-0.6329628346	 1.8251052502	-1.0017189963	 0.116251
H	-0.1653160171	 2.0974866272	 0.6937994591	 0.09414
H	-2.1248846274	-0.4412339283	 0.3679628249	 0.078069
H	-0.0933284817	-2.611555243	 0.5773645694	 0.074709
H	 1.7393574849	-0.4057450018	 1.3934241734	 0.0889
H	-0.6838145023	 0.8423397339	 2.7030206739	 0.076788
H	-2.7908927702	-1.7807939408	 2.4338425471	 0.121562
H	-1.9702994102	-3.130592334	 3.2239615543	 0.107017
H	-2.2262322863	-1.618523482	 4.1105376429	 0.126445
H	 0.3581484547	-2.7498190003	 3.7858713886	 0.275237
