14
gdb 50054	3.47866	0.80527	0.69517	2.9036	87.4	-0.25	-0.0374	0.2125	1544.8301	0.098595	-399.480716	-399.471941	-399.470997	-399.515055	31.062	
O	 0.0912068585	 0.3983218713	-0.7484788541	-0.275565
C	 0.1360975769	 1.5165321852	-0.3050683924	 0.15129
N	 1.1702677389	 2.0019662483	 0.4915807088	-0.064007
C	 2.5603050231	 1.7659981867	 0.21433491	-0.229655
C	 1.9912602243	 3.1718995628	 0.1688523848	-0.259704
C	 1.8371505043	 3.8466169755	-1.0860583881	 0.471574
C	 1.6968460356	 4.4499597568	-2.1268455366	-0.27762
C	 1.5438976882	 5.1150601828	-3.3023091974	 0.301402
C	 1.4066831731	 5.7067753671	-4.3458961	-0.547068
H	-0.6749751531	 2.2580991617	-0.4184747829	 0.100795
H	 3.1808874593	 1.4858823831	 1.0605535251	 0.139192
H	 2.8039692595	 1.2933759902	-0.7327784074	 0.15367
H	 2.1874656979	 3.8204085784	 1.0201727161	 0.135644
H	 1.2868112733	 6.2245713001	-5.2653572759	 0.200052
