21
gdb 73276	2.33554	1.69029	1.31817	2.5919	77.63	-0.2399	0.0747	0.3146	1070.2949	0.184077	-424.214926	-424.206812	-424.205868	-424.247305	32.016	
C	-0.0572778648	 1.5381748715	-0.01906989	-0.479493
C	-0.039890827	 0.0157571593	-0.0246132702	 0.262208
C	-1.2748680371	-0.7246297861	 0.543347205	-0.116276
O	-0.4345734045	-1.5936644848	 1.3299939024	-0.296052
C	 0.6822151332	-0.694022842	 1.1609703082	 0.113303
C	 2.0191885511	-1.3687895735	 0.912883771	-0.116798
O	 2.1649845763	-1.902391897	-0.3867711059	-0.237167
C	 1.8974098895	-0.93114554	-1.3823306181	-0.079152
C	 0.4135482597	-0.5644766609	-1.3851838599	-0.258761
H	 0.9238939233	 1.9477846281	-0.2854530167	 0.119274
H	-0.7801095621	 1.9224273586	-0.7478542482	 0.119502
H	-0.3282263994	 1.933528409	 0.9653394039	 0.116303
H	-1.9129420118	-0.0944283705	 1.1807167738	 0.088781
H	-1.9032959237	-1.2811523222	-0.1607628841	 0.102896
H	 0.7771448344	-0.0362989207	 2.0402947945	 0.061281
H	 2.8167844011	-0.6297471757	 1.1095667757	 0.083166
H	 2.1446834595	-2.2002674493	 1.6138621613	 0.121585
H	 2.5269376967	-0.0373738953	-1.2235935325	 0.081757
H	 2.1889291011	-1.3783642814	-2.3369062499	 0.108217
H	-0.1421587282	-1.4812214865	-1.6061319462	 0.113337
H	 0.2001395926	 0.1479968593	-2.1905951341	 0.092089
