16
gdb 34115	3.654	1.47053	1.39221	1.6362	75.47	-0.2322	0.0165	0.2487	959.509	0.125387	-400.655073	-400.648371	-400.647427	-400.68596	27.788	
C	-0.0123088818	-1.1622998459	 0.1034901096	-0.307129
C	-0.0245446641	 0.0398072652	 0.0669526243	 0.030107
C	-0.001458786	 1.4685681272	-0.0078590662	 0.338145
C	-0.8622204199	 2.2427534702	-1.0316342197	-0.261297
C	-0.0929451812	 3.5632416596	-0.8150454342	-0.079078
N	 1.2967007696	 3.2626527511	-1.2617099427	-0.304705
C	 1.360047429	 2.363568008	-0.1201359064	-0.107048
C	 0.4144384195	 3.2634991776	 0.6787805708	 0.109598
O	-0.3419738404	 2.1890267124	 1.2248448514	-0.32372
H	-0.0092175211	-2.2236208132	 0.1429983693	 0.185652
H	-0.7847981481	 1.8800244756	-2.0599850453	 0.103977
H	-1.9058563224	 2.2536188532	-0.7123802114	 0.121055
H	-0.5359053841	 4.5049956179	-1.1339320845	 0.081499
H	 1.3641298868	 2.8252869245	-2.1803667649	 0.216276
H	 2.300058128	 1.9263957942	 0.2107800464	 0.096789
H	 0.6750439761	 4.0679268524	 1.3609888434	 0.099878
