20
gdb 41647	3.02433	1.97263	1.60926	1.6726	80.01	-0.2309	0.0871	0.318	909.2048	0.175461	-365.968021	-365.961708	-365.960764	-365.998254	27.488	
C	-0.041873942	 1.5287800924	 0.2080117336	-0.199979
C	 1.3596180151	 2.1259127172	 0.010075925	-0.231967
C	 1.9975863729	 1.614848666	-1.2806504614	 0.003734
C	 1.1649131322	 1.526526326	-2.5659353158	-0.063799
C	 1.7726866436	 0.2342478275	-2.9511802299	-0.054643
C	 2.1619747008	 0.071887273	-1.4383972467	-0.108913
C	 0.7125499478	-0.4153266706	-1.2447243191	 0.067653
C	-0.0446332216	 0.0050615391	 0.0085755567	-0.224319
N	 0.3390682821	 0.2604420722	-2.5448357606	-0.163512
H	-0.4304847779	 1.7816066222	 1.2002498874	 0.088993
H	-0.7259330034	 1.9800402539	-0.5199432908	 0.113199
H	 1.3037921565	 3.2211672881	-0.0008569309	 0.093971
H	 2.0100414414	 1.8586895004	 0.8548902217	 0.092798
H	 2.9456466854	 2.1174119593	-1.4965021305	 0.070874
H	 0.7851268421	 2.3239042496	-3.1919670033	 0.089367
H	 2.1359119548	-0.1701419669	-3.8863254381	 0.094344
H	 3.0205974947	-0.4447433403	-1.0118540305	 0.063192
H	 0.6230543603	-1.4922423949	-1.4182211557	 0.072768
H	 0.4290962586	-0.4910606745	 0.8674894771	 0.093691
H	-1.0744057833	-0.3673423296	-0.0388789281	 0.10255
