16
gdb 2325	4.96427	1.73717	1.43338	2.3417	61.64	-0.2324	-0.0248	0.2076	854.0564	0.13482	-325.7484	-325.740616	-325.739672	-325.78113	27.013	
C	-0.109182919	 1.5573807505	 0.2937212286	-0.320566
N	 0.0151373544	 0.1158751433	 0.1240585731	-0.070662
C	 1.3015271567	-0.4085880545	-0.316141688	-0.258283
C	 0.8093895328	-0.6707376168	 1.0667970124	 0.011554
C	 1.5113743074	-0.070201651	 2.2749090887	-0.311947
C	 0.5647000658	 0.123505173	 3.4430533528	 0.169579
O	 0.4637184273	 1.1359227286	 4.0856240537	-0.238161
H	 0.8211840665	 2.0689764203	 0.5845553258	 0.105315
H	-0.4436558378	 1.988235713	-0.6550568059	 0.127891
H	-0.8689398784	 1.7724966725	 1.0513274414	 0.134365
H	 1.2735160301	-1.1845822455	-1.0770161162	 0.118165
H	 2.1296639332	 0.2936958924	-0.4147104501	 0.107559
H	 0.3678440439	-1.6466041789	 1.2707857593	 0.095247
H	 2.2858575776	-0.7804247066	 2.6014029968	 0.12883
H	 2.0045631514	 0.8795778265	 2.0594254586	 0.125362
H	-0.057169832	-0.7717456368	 3.6809317791	 0.075753
