16
gdb 43979	2.83243	1.75919	1.57726	3.2458	68.99	-0.2495	0.0134	0.2629	906.7381	0.125279	-437.831069	-437.824143	-437.823199	-437.862331	27.586	
N	-0.2115451408	 1.0981903089	-0.3573258847	-0.548675
C	-0.1477483554	-0.1180571413	-0.0737555373	 0.360942
O	 0.9665696042	-0.9628122793	 0.0625920025	-0.300527
C	 0.0787497433	-2.1199203127	 0.0902113914	 0.311601
C	-0.7708527904	-2.105785969	 1.3149063461	-0.364292
C	-1.1440156354	-1.2279741966	 0.1282524345	 0.206468
O	-2.0946271371	-1.6643929674	-0.7718730736	-0.278845
C	-1.373258562	-2.3728895761	-1.8069945953	-0.089452
C	-0.1255985988	-3.0158605487	-1.1112535756	-0.320442
H	 0.7191061341	 1.5004213732	-0.4837942845	 0.233872
H	-1.4350307621	-2.951960892	 1.4527539231	 0.141862
H	-0.3819604984	-1.6558023886	 2.2219982563	 0.140437
H	-2.0594383847	-3.097802179	-2.2513743319	 0.120966
H	-1.0553624087	-1.6656092395	-2.5838893223	 0.122997
H	 0.7501337208	-3.0147433918	-1.7632365328	 0.136257
H	-0.3225966987	-4.0477488501	-0.809333326	 0.126833
