18
gdb 39754	3.25348	1.63319	1.4555	2.9662	73.97	-0.2345	0.0748	0.3093	953.0812	0.14975	-401.891879	-401.885099	-401.884155	-401.922906	27.692	
C	 0.0497558373	 1.5388218462	 0.0346992255	-0.283662
O	 1.1731993407	 0.638709058	 0.0140397418	-0.286301
C	-0.1288171359	 0.0863136303	 0.023663605	 0.498083
C	-0.5430986537	-0.9044928829	 1.0735482543	-0.158507
C	-1.8720705524	-1.4947994917	 0.7448193923	-0.022755
C	-2.8294345188	-0.7596627956	-0.1882297301	-0.252265
C	-2.0208208308	-0.6645393481	-1.508540826	-0.21234
C	-0.589776382	-0.9127046757	-1.0426376098	-0.106279
N	-0.6801971234	-2.0066526522	 0.0337621006	-0.145276
H	-0.0826776542	 2.0962760151	 0.9612054016	 0.115963
H	-0.0976896895	 2.1150166902	-0.8781533357	 0.115141
H	-0.0367977957	-1.0634938584	 2.0206090436	 0.104207
H	-2.278427567	-2.1887395143	 1.4747495026	 0.097111
H	-3.7562824421	-1.324499047	-0.3171449894	 0.110092
H	-3.1001586752	 0.2262312233	 0.2015442783	 0.111269
H	-2.3249332963	-1.4498288839	-2.2077185986	 0.114118
H	-2.1351532603	 0.2984655213	-2.0142065601	 0.106049
H	 0.1430440892	-1.1390630546	-1.8168144358	 0.09535
