19
gdb 105972	4.12512	1.12401	1.11962	1.5024	78.88	-0.2151	0.0753	0.2904	1184.2393	0.157473	-385.778955	-385.770679	-385.769735	-385.811648	32.634	
C	 0.1376645078	 1.5105460802	-0.1798378533	-0.372094
C	-0.0722402248	 0.0151381706	 0.094502429	-0.32417
C	 0.6653176325	-0.4756412799	 1.3009531089	 0.397401
C	 2.1396609265	-0.8164620728	 1.4975226064	-0.135238
C	 2.0408610031	-0.4386109237	 3.0024985535	-0.13826
C	 0.5572447784	-0.0819067682	 2.8120483165	-0.268942
C	 0.9796242141	-1.4922833865	 3.2054370841	 0.395358
O	 0.7471129822	-2.2190781152	 4.341970114	-0.451802
C	 1.0736330844	-1.8923240141	 1.6882498326	-0.273416
H	 1.1960259497	 1.7323695995	-0.3493057619	 0.119086
H	-0.4237534222	 1.8327954485	-1.0622404888	 0.109383
H	-0.1959406442	 2.1171666704	 0.6687212003	 0.117979
H	-1.1453821989	-0.1897414043	 0.2133177188	 0.09761
H	 0.2533534191	-0.5704794799	-0.77551292	 0.099518
H	 2.9617516793	-0.7900204296	 0.7930082087	 0.081191
H	 2.7505353936	-0.0306747628	 3.7090467703	 0.090689
H	-0.0365902243	 0.6491866274	 3.3454240146	 0.084693
H	-0.1981857699	-2.4016905797	 4.3999684766	 0.287172
H	 0.9297599932	-2.8195198	 1.1477001498	 0.083841
