21
gdb 97576	3.48335	0.64342	0.60878	1.3637	84.46	-0.2604	0.0248	0.2852	1918.1516	0.179171	-424.192338	-424.180906	-424.179962	-424.230097	40.073	
C	-0.1588346981	 1.5048130032	-0.1514311863	-0.406108
C	 0.0329242891	-0.0093498253	-0.0015169622	 0.042904
C	 0.7484839319	-0.6090460731	-1.2175250609	-0.400075
C	 0.8070302981	-0.3669006913	 1.2963657089	-0.062448
O	 2.1242014791	 0.1853241231	 1.3079436741	-0.423609
C	 0.0562653829	-0.0065769481	 2.5021288477	 0.006348
C	-0.5668968567	 0.3178922323	 3.4825232788	 0.105094
C	-1.272779902	 0.6715065665	 4.7139809537	-0.193817
O	-1.1956103229	-0.3275076766	 5.7203702505	-0.400536
H	 0.8053980917	 2.0106736331	-0.2761721656	 0.112323
H	-0.7606236921	 1.732082567	-1.0363179932	 0.117196
H	-0.6639409005	 1.9335418907	 0.719530335	 0.120928
H	-0.9555867144	-0.4766994643	 0.0954842225	 0.083682
H	 1.7671284172	-0.217488768	-1.2925507614	 0.131473
H	 0.8127323658	-1.7000706461	-1.144069028	 0.109967
H	 0.2167568509	-0.365680386	-2.1424974455	 0.108101
H	 0.9652167968	-1.4529181869	 1.299435214	 0.112978
H	 2.0468709954	 1.1113553222	 1.5602212839	 0.286148
H	-0.8959809341	 1.6406547987	 5.0794304408	 0.118375
H	-2.3408967334	 0.8069999988	 4.5104409519	 0.141952
H	-0.2667403747	-0.5578878197	 5.8273142212	 0.289124
