20
gdb 15786	4.57733	1.01605	0.89167	2.8237	76.07	-0.2466	-0.0188	0.2278	1309.4587	0.17491	-349.006381	-348.997169	-348.996225	-349.041036	32.933	
C	-0.0860543099	 1.4633543279	-0.2298440113	-0.393899
C	-0.0108155284	-0.0422983478	 0.0633892941	-0.004063
C	 0.7540140193	-0.3224285311	 1.3769923048	-0.272343
C	 2.2146609035	 0.0508560425	 1.2881274653	 0.157599
O	 2.7967294933	 0.784331125	 2.0451059334	-0.241728
C	-1.3933314407	-0.6676314352	 0.1034821698	 0.044218
C	-2.089819123	-1.0622863073	-1.1729749662	-0.277442
C	-1.588817151	-2.1256053585	-0.2243184457	-0.277394
H	 0.909344314	 1.9155187126	-0.2880318143	 0.122777
H	-0.6006166633	 1.6494583563	-1.1769914931	 0.1196
H	-0.6377754082	 1.9852444589	 0.5604098352	 0.119987
H	 0.5447929892	-0.525774279	-0.7543737857	 0.071293
H	 0.3050507341	 0.208979451	 2.2223228475	 0.115866
H	 0.7065761659	-1.4006266817	 1.5864972567	 0.11915
H	 2.750417192	-0.4235311183	 0.4298855662	 0.06634
H	-2.0333482254	-0.2681692795	 0.8877494962	 0.082255
H	-3.1592807084	-0.9026614263	-1.253323558	 0.113724
H	-1.5510380461	-0.9261980647	-2.105518077	 0.111348
H	-0.7176168221	-2.698456638	-0.5273087223	 0.108962
H	-2.3151855149	-2.6946728769	 0.3451348543	 0.11375
