25
gdb 112959	3.76347	0.73922	0.66067	1.2764	89.89	-0.2608	0.0775	0.3383	1796.7212	0.227602	-389.486904	-389.476167	-389.475223	-389.522951	39.904	
C	 0.0664853921	 1.4744516018	-0.1562627076	-0.388686
C	 0.0651188627	-0.0443976661	 0.0645817186	 0.020496
C	 0.7720093611	-0.4129861171	 1.3761355052	-0.389038
C	-1.3543411778	-0.6078304555	 0.0263017672	 0.075155
C	-2.1660924211	-0.5310541916	-1.3002095678	-0.28112
C	-2.7222606382	-1.9492092202	-1.0011803682	 0.050733
C	-2.8604901954	-2.92187236	-2.1524334877	-0.096307
O	-3.25916332	-4.1787581053	-1.6220364118	-0.422823
C	-1.5623369819	-2.1497750388	 0.0107701298	-0.24914
H	 1.086822405	 1.8719729842	-0.1730387724	 0.10733
H	-0.4131045637	 1.7436555783	-1.1029189148	 0.11323
H	-0.4749970134	 1.9862336638	 0.6486559705	 0.109515
H	 0.6239898877	-0.5076695743	-0.7628837416	 0.061209
H	 0.25633776	 0.0322446563	 2.2357047655	 0.109495
H	 0.7965673203	-1.4967782434	 1.5281053541	 0.115567
H	 1.8050249872	-0.0494497219	 1.3856494691	 0.106973
H	-1.9394908526	-0.1627762163	 0.8419372251	 0.061645
H	-2.8835247428	 0.2841158624	-1.4225262592	 0.094562
H	-1.4992823278	-0.5394003813	-2.1713366853	 0.090805
H	-3.6807155617	-1.8875874781	-0.4750406637	 0.077056
H	-3.6003541432	-2.5400438155	-2.8763769982	 0.081312
H	-1.8962744568	-3.0016145906	-2.6826760046	 0.075939
H	-3.3226140374	-4.8060141849	-2.3480179241	 0.285226
H	-0.7135649238	-2.6616246135	-0.458361309	 0.09136
H	-1.7901074785	-2.6515456623	 0.953259761	 0.099507
