21
gdb 116306	2.16377	1.29803	0.89782	2.8182	75.1	-0.2406	0.0764	0.3171	1341.0595	0.181828	-461.344239	-461.334312	-461.333368	-461.380148	35.027	
C	 0.1529240238	 1.2177747592	-0.4458847851	-0.236139
O	 0.0426617788	-0.1662420655	-0.20988385	-0.248215
C	-1.2665935969	-0.5940513158	 0.1386755599	 0.060607
C	-2.1800993034	-0.7611989277	-1.0949372066	-0.081454
O	-2.1612832598	-2.1374473702	-1.4621939957	-0.264733
C	-1.2395269468	-2.8386244014	-0.6328544297	-0.069705
C	-1.1796661295	-2.0334723811	 0.6695395952	-0.012124
C	 0.0184865059	-2.3268155359	 1.5568362314	-0.102848
O	-0.0989661319	-3.6813509541	 1.9787104622	-0.427781
H	 1.2031246668	 1.4259721465	-0.664297872	 0.12949
H	-0.4535511137	 1.5491848336	-1.3018003464	 0.108493
H	-0.1510914428	 1.8032260676	 0.4363117323	 0.105269
H	-1.6949276018	 0.102598192	 0.8740087463	 0.064666
H	-3.2153671154	-0.468728431	-0.8748556402	 0.097097
H	-1.8208042434	-0.141445942	-1.9270635861	 0.099449
H	-1.607411964	-3.8576925665	-0.4973214885	 0.117222
H	-0.2440625109	-2.8841646335	-1.1021133514	 0.092844
H	-2.0932663072	-2.2358622941	 1.2411651326	 0.090392
H	 0.9452471563	-2.1579016455	 0.9943576411	 0.106889
H	 0.0245563815	-1.6397855746	 2.418197358	 0.083391
H	 0.6976546141	-3.91327608	 2.4643991627	 0.287192
