18
gdb 76970	2.85022	1.10228	0.93414	2.2614	74.74	-0.2536	0.0032	0.2568	1285.7621	0.145805	-439.052055	-439.042936	-439.041992	-439.086638	32.344	
C	 0.021648739	 1.4287978286	 0.3541195639	-0.410624
C	-0.1072134792	-0.030950823	-0.0121784732	-0.012351
C	 0.6075870703	-0.6759554516	-1.1864013835	-0.074024
C	 1.5285502359	 0.0887791505	-2.0816993932	 0.073669
C	 2.11931319	-0.539091494	-3.2725924671	-0.183863
O	 1.017397727	 0.3618444179	-3.3870448028	-0.227289
N	 0.9811411321	-0.9607522771	 0.1846397606	-0.072725
C	 2.1836843697	-0.7575101324	 0.8244674023	 0.144681
O	 2.3166801922	-0.1932378994	 1.8847867403	-0.304363
H	 0.9850777921	 1.8524611959	 0.0651446163	 0.130914
H	-0.7707483314	 2.0036511853	-0.1348809846	 0.129849
H	-0.075181242	 1.5510204962	 1.4359406718	 0.151676
H	-1.0804503573	-0.4608449955	 0.2234314406	 0.108766
H	 0.0903456464	-1.4858792922	-1.6999500853	 0.107614
H	 2.0693657904	 0.916055465	-1.6230104743	 0.108602
H	 3.0685897609	-0.1720469038	-3.6592741444	 0.124974
H	 1.8949552884	-1.5813335847	-3.4958388003	 0.121402
H	 3.0201283653	-1.2477419557	 0.2882251629	 0.083091
