17
gdb 30290	3.04519	1.69677	1.12775	1.8403	75.22	-0.1865	0.0052	0.1916	1050.3563	0.138753	-418.020269	-418.012871	-418.011927	-418.052135	28.037	
C	-0.0958417318	 1.5197886537	-0.0330013959	-0.336855
N	 0.0868953248	 0.0814846878	 0.048203529	-0.170164
C	 0.7228155598	-0.5609920983	-1.1381570406	-0.158251
C	 1.4088827687	-1.889513379	-0.6460760319	-0.360925
C	 1.5694715546	-1.5067285265	 0.7835751443	 0.224699
C	 0.8069725199	-0.4490388322	 1.1185102296	 0.3327
N	 0.823925633	-0.2417663806	 2.4804270817	-0.359031
C	 1.5874468565	-1.2122518672	 2.8987284311	 0.043085
O	 2.0656801549	-2.049721655	 1.9378912126	-0.191135
H	 0.8434151326	 2.060002534	-0.246513697	 0.101832
H	-0.8156519623	 1.7562448709	-0.8224748648	 0.120963
H	-0.4950545718	 1.8822163277	 0.9169741031	 0.148314
H	-0.0179180609	-0.736018101	-1.922341324	 0.114468
H	 1.4990240636	 0.1090008043	-1.5409730549	 0.101161
H	 0.7445565284	-2.75497239	-0.7765963467	 0.121621
H	 2.3287925608	-2.0912349817	-1.2024961509	 0.120939
H	 1.9018316893	-1.4166104571	 3.9099335353	 0.146579
