17
gdb 84322	2.81695	1.45014	1.01623	1.4521	79.65	-0.2566	-0.0431	0.2135	1151.6904	0.137942	-418.075441	-418.067382	-418.066438	-418.108473	30.576	
C	-0.4163251203	 1.4677808642	 0.0314210556	-0.389816
C	 0.0554632202	-0.001696579	-0.0258219968	-0.19899
C	 0.8190659849	-0.303405763	-1.2816413399	-0.065298
C	 2.0491296728	-0.8174736476	-1.2958836344	-0.092628
C	 2.7687356647	-1.1533656755	-0.0652022171	 0.387046
N	 3.9442215864	-1.6515037908	-0.121578411	-0.518614
N	 2.0701377784	-0.8866178034	 1.1195790665	-0.412037
C	 0.8044503508	-0.348256919	 1.2591201692	 0.429293
O	 0.3273312415	-0.1641335646	 2.3587774325	-0.365791
H	 0.4367272409	 2.1517888787	-0.0076654166	 0.128787
H	-1.0719971194	 1.6908561322	-0.8149351712	 0.119706
H	-0.9612465233	 1.6405141767	 0.9610185311	 0.151534
H	-0.848700628	-0.6281498087	-0.00610022	 0.129743
H	 0.3165890343	-0.0696574162	-2.2168739968	 0.112974
H	 2.5894209173	-1.0229580261	-2.2114275077	 0.124052
H	 4.3233129012	-1.8369919367	 0.8093731297	 0.209817
H	 2.5259013476	-1.0981239713	 1.9983881467	 0.250224
