18
gdb 8432	3.65059	1.7525	1.74192	1.1484	66.36	-0.2577	0.0758	0.3335	851.3208	0.153742	-384.938555	-384.931137	-384.930193	-384.9696	29.662	
C	 0.5010917605	 1.3205790102	 0.0139822685	-0.446487
C	-0.113555236	-0.0803183993	-0.0197079762	 0.410244
O	-1.5386540313	 0.0084308728	-0.0254561263	-0.477687
C	 0.4179782278	-0.9122514761	-1.2328936588	-0.305232
C	 1.5114570272	-1.792033081	-0.6697055429	 0.054629
O	 2.4794219799	-1.0835497598	 0.1212735514	-0.259818
C	 1.4258701706	-1.7921688978	 0.7958506877	 0.047766
C	 0.2764390785	-0.9138646432	 1.2328574573	-0.279696
H	 1.5900506854	 1.2569600716	 0.0658153041	 0.145806
H	 0.2355847964	 1.8809460473	-0.8920156287	 0.097889
H	 0.1318511165	 1.8757577245	 0.8819302583	 0.116903
H	-1.7902111487	 0.6665491805	-0.6820744217	 0.273037
H	-0.3951800881	-1.5416864841	-1.6109133448	 0.109718
H	 0.7660864852	-0.2771817608	-2.0546481242	 0.100535
H	 1.905706875	-2.6286985337	-1.2411566101	 0.093417
H	 1.751994743	-2.6286156313	 1.4086373818	 0.093843
H	 0.5249516499	-0.2778684518	 2.0876942231	 0.107641
H	-0.5756190819	-1.5403451283	 1.5176962416	 0.117491
