16
gdb 95119	2.48941	1.55645	1.18872	2.4589	69.31	-0.2582	0.018	0.2762	1045.1913	0.125084	-437.880056	-437.872197	-437.871253	-437.912479	29.823	
O	 0.2685933827	 1.2007774442	-0.3793553466	-0.419
C	 0.050289328	-0.1186162125	 0.0709838384	-0.002244
C	 0.4061361645	-0.159301693	 1.5773181274	-0.107742
O	-0.5070385457	-1.0440432109	 2.2167556973	-0.248317
C	-1.6756345666	-1.0963379887	 1.4614046185	 0.084121
C	-2.3367107311	 0.1645737544	 1.0051383042	-0.362179
C	-1.4096129417	-0.5913473548	 0.048647996	 0.146033
C	-1.9196110192	-1.2228907507	-1.1270683006	 0.180706
N	-2.3168954596	-1.7242505448	-2.0923683276	-0.344982
H	 0.1492710067	 1.2220447118	-1.33465248	 0.298147
H	 0.6554711927	-0.8346401506	-0.4997063672	 0.098478
H	 1.4165918939	-0.5242350192	 1.770858106	 0.128799
H	 0.3215321351	 0.8617190444	 1.9707763795	 0.124315
H	-2.2602396555	-1.9866101926	 1.6579705214	 0.133535
H	-3.397501619	 0.1142974977	 0.789652453	 0.144474
H	-1.9834968752	 1.1256282653	 1.3605598804	 0.145856
