16
gdb 124665	3.16159	1.11691	0.8962	3.2584	71.	-0.2552	-0.0401	0.215	1256.7967	0.123331	-437.886799	-437.878354	-437.87741	-437.921477	29.709	
C	-0.0005768432	 1.6323083022	 0.3932996336	-0.42139
C	-0.0357945852	 0.1482935378	-0.0062457729	-0.179334
C	 0.8303706328	-0.6566088708	 0.9638578586	 0.166227
O	 1.7876984854	-1.3105056928	 0.6491807976	-0.241063
C	-1.4238979164	-0.4287668413	 0.0052795483	 0.12679
C	-2.5720698279	 0.0575386681	 0.5529871927	-0.010445
O	-3.5922219864	-0.7885686721	 0.3561212321	-0.163698
N	-3.1307169799	-1.8972403525	-0.3467963599	-0.125088
C	-1.8571282292	-1.6749859556	-0.5431182356	-0.04364
H	 1.0147790852	 2.0293813224	 0.3139451716	 0.137284
H	-0.6527655016	 2.2199213229	-0.2585996632	 0.136213
H	-0.3366870225	 1.7728350184	 1.426554052	 0.12737
H	 0.4085103769	 0.0172748946	-0.9982355311	 0.109021
H	 0.4879870574	-0.5909087492	 2.0230731632	 0.080697
H	-2.8134187876	 0.9640326047	 1.0853122588	 0.155147
H	-1.269837278	-2.4097144568	-1.0768763057	 0.145908
