20
gdb 75396	2.40606	1.67662	1.21964	1.4878	86.04	-0.2144	0.0155	0.2299	1104.0528	0.173074	-365.995408	-365.987397	-365.986453	-366.02747	32.197	
C	-0.3493642437	 1.4947869629	 0.0961488937	-0.489404
C	 0.0673498318	 0.0494147976	-0.0219774327	 0.386173
C	 0.1187243319	-0.5649859725	-1.2101199428	-0.177387
C	 0.4491136921	-2.0254952186	-1.4556753346	-0.311073
C	-0.5181824919	-2.9265022675	-0.7125181077	-0.090961
C	-0.7158745287	-2.916957877	 0.6081461693	-0.0029
C	-0.0233158319	-2.0493656033	 1.5880678933	-0.073872
N	 1.3806591954	-1.6743313958	 1.346221294	-0.337224
C	 0.3635619852	-0.6141701875	 1.2789230813	-0.139017
H	 0.4391236618	 2.102328056	 0.5594624602	 0.120615
H	-0.5791173524	 1.9260463053	-0.8813335475	 0.120176
H	-1.2391656552	 1.6021715716	 0.7306177892	 0.122147
H	-0.1443827375	 0.0201825864	-2.0886000488	 0.078413
H	 0.3812385299	-2.2299492817	-2.5275545533	 0.090886
H	 1.4769627751	-2.242983979	-1.1521694437	 0.144936
H	-1.1221169966	-3.6005186721	-1.3148883686	 0.088074
H	-1.4748368622	-3.5719841019	 1.029027808	 0.079235
H	-0.3057909441	-2.2270494132	 2.6234300232	 0.081419
H	 1.8811789343	-1.6183982742	 2.2282009624	 0.233443
H	 0.3101836865	 0.0576079045	 2.134065685	 0.076322
