23
gdb 85866	2.08659	1.53186	1.22215	1.668	85.25	-0.2504	0.0778	0.3283	1197.1653	0.203422	-388.274644	-388.264731	-388.263786	-388.308758	38.076	
C	-0.5497860576	 0.8420483345	-1.4747527212	-0.418641
C	 0.3297757251	-0.2322509917	-0.8522627104	-0.052498
C	 1.8508245921	-0.2615122924	-1.1996022713	-0.289164
C	 2.2003207389	-0.5174821023	 0.3060745509	 0.231253
C	 2.4418166306	-1.9994579213	 0.6111571799	-0.427816
C	 3.3015953229	 0.3547663479	 0.901198496	-0.455446
C	 0.7436586233	-0.113120456	 0.6186187046	 0.426894
C	 0.2436134317	 0.8065254074	 1.6429732162	-0.269061
O	-0.0105588983	-0.6048814726	 1.7141502726	-0.281866
H	-0.1245378673	 1.840042905	-1.3213201533	 0.111226
H	-0.6552561781	 0.6865381604	-2.5538462634	 0.116802
H	-1.5556474096	 0.833399607	-1.040444536	 0.121478
H	-0.1169167921	-1.2192183955	-1.0171819987	 0.085596
H	 2.1786736029	-1.0249819679	-1.9090308941	 0.096889
H	 2.2080871336	 0.7142255455	-1.5429065019	 0.094666
H	 3.4150197449	-2.3184853352	 0.2219582146	 0.108359
H	 2.4259964403	-2.1796092805	 1.6905197746	 0.124024
H	 1.6732254648	-2.6355621889	 0.161116893	 0.11577
H	 3.1242673587	 1.4164057924	 0.7008367757	 0.108124
H	 3.3701650595	 0.2222085366	 1.9872214584	 0.116956
H	 4.2775107936	 0.0920258585	 0.4767670118	 0.113753
H	 0.9182213941	 1.1973945621	 2.4036245835	 0.111357
H	-0.6290248741	 1.4261977771	 1.4393132086	 0.111345
