19
gdb 40125	2.85309	1.6311	1.28462	1.7868	79.83	-0.2352	0.0024	0.2377	1035.4851	0.160789	-385.871297	-385.86392	-385.862976	-385.902862	30.123	
C	-0.1002714021	 1.5019094266	-0.0086708229	-0.318028
C	 1.2657524329	 0.8649229432	-0.0610406805	-0.304905
C	 0.0263630998	-0.0013254004	 0.0082923194	 0.36227
C	-0.2908530278	-0.7498575121	 1.301291711	-0.358508
C	 0.0962695387	-2.2066274067	 1.2366197905	-0.082782
C	 0.1021862231	-2.8901617918	 0.0910479467	-0.0419
C	-0.2600354774	-2.2356711687	-1.1905760311	-0.012836
O	-1.5210178659	-1.5185676024	-1.2317820561	-0.267476
C	-0.3121812053	-0.7627317181	-1.2349264945	-0.018056
H	-0.4023958907	 1.9923578245	 0.910995207	 0.113003
H	-0.4819268829	 1.9739847239	-0.9080124206	 0.1153
H	 1.8147733568	 0.9057518463	-0.9964041082	 0.112169
H	 1.8933239835	 0.9170493769	 0.822057193	 0.113726
H	 0.2081298922	-0.2598152819	 2.1446060252	 0.100253
H	-1.3691229071	-0.6784780523	 1.5007495575	 0.131162
H	 0.3443252937	-2.7038152195	 2.1702621229	 0.094864
H	 0.3718164102	-3.9413943634	 0.0645697335	 0.088857
H	-0.0473588558	-2.7832722429	-2.1064682839	 0.090299
H	-0.0942061259	-0.2546328011	-2.176183959	 0.082587
