13
gdb 81263	2.95475	1.51033	1.22756	3.2513	59.2	-0.2403	-0.0994	0.1409	975.3186	0.088485	-493.673899	-493.66677	-493.665826	-493.70559	26.906	
O	 0.1690166927	 1.3785465249	-0.127800535	-0.43191
C	 0.1064271842	-0.0109730356	-0.0819840608	 0.159838
C	 0.1457746965	-0.6311295059	 1.3467688469	-0.106472
O	-1.3028355006	-0.348028623	 1.4572558614	-0.314748
C	-1.3298747432	-0.6090499381	 0.0005616274	-0.106473
C	-1.1148247831	-2.123062456	 0.0573896993	 0.353498
O	-1.6326720514	-3.0242833237	-0.5317731287	-0.286591
C	 0.0448114251	-2.1404121688	 1.1153007736	 0.353498
O	 0.6640435463	-3.0586479767	 1.5634894431	-0.286591
H	-0.4374815684	 1.7198616791	 0.5425987689	 0.299942
H	 0.7911074361	-0.4007876441	-0.8388922296	 0.121812
H	 0.7590770839	-0.2480904763	 2.1597149499	 0.122099
H	-2.189120438	-0.2039823458	-0.5298698065	 0.122099
