18
gdb 107237	2.97279	1.40134	1.09637	2.6681	71.36	-0.2146	0.0496	0.2642	1121.5561	0.145501	-438.978073	-438.969304	-438.96836	-439.011453	33.028	
C	-0.0967420713	 1.5639669642	 0.1906959059	-0.512425
C	 0.1047129849	 0.0900346367	 0.0607602576	 0.388501
O	-0.8272456912	-0.8000071257	 0.6755492645	-0.260677
C	 0.562815785	-0.9579516545	 0.9762663635	-0.063842
C	 1.2580712149	-1.7184266533	-0.2037683893	-0.157412
N	 0.2196773712	-2.0329943486	-1.2248266728	-0.364572
C	 0.8029853779	-0.6764480575	-1.1468481638	 0.251651
C	 1.5065040187	-0.0225832827	-2.3039882901	-0.218507
O	 2.2371678766	-0.9638795816	-3.0831572089	-0.408186
H	 0.818058939	 2.1111671469	-0.0605651604	 0.124476
H	-0.8925430245	 1.9120252042	-0.4777926639	 0.133309
H	-0.3810622784	 1.8138326786	 1.2163077452	 0.138596
H	 0.8669157858	-0.9273635154	 2.0160389777	 0.105219
H	 2.1983578697	-2.2514278137	-0.1634185557	 0.104632
H	 0.739194416	-2.4936425841	-1.9759183113	 0.221034
H	 0.7839439588	 0.5276433643	-2.9250487204	 0.104897
H	 2.2307335055	 0.7127059955	-1.931724073	 0.118262
H	 1.6709520014	-1.2584323433	-3.8018048547	 0.295044
