21
gdb 75378	2.83218	1.51378	1.03453	0.3162	93.49	-0.2016	-0.005	0.1966	1199.7052	0.184776	-349.992538	-349.984524	-349.98358	-350.0248	31.915	
C	 0.0928208911	 1.4792243889	 0.0976498518	-0.503599
C	-0.0615765736	-0.0071790542	 0.008887481	 0.20627
C	-0.1083480054	-0.7617256217	-1.1073759604	-0.162675
C	-0.1714900831	-2.2529842883	-0.8230179037	-0.307499
C	-0.5160484351	-2.2805654681	 0.6842950987	-0.037625
C	 0.1614891985	-3.2049769634	 1.711447645	-0.242074
C	 0.2193549903	-2.3242451939	 2.996635923	-0.24048
C	 0.283723518	-0.910529541	 2.4422810545	-0.259894
C	-0.0980199062	-0.9029383157	 1.1615798015	 0.327349
H	 1.0024302318	 1.7442298233	 0.650519476	 0.129136
H	 0.1512499215	 1.9384821082	-0.8927541853	 0.121492
H	-0.7459580394	 1.933224053	 0.6382849607	 0.129311
H	-0.0390207526	-0.3638325314	-2.1153419667	 0.087302
H	-0.9010609008	-2.7773087028	-1.4495004557	 0.100379
H	 0.805076589	-2.7197164201	-1.0239104736	 0.106157
H	-1.6094362547	-2.3650403865	 0.7796236551	 0.07804
H	-0.3582369948	-4.1547351688	 1.8675729323	 0.08931
H	 1.1834748052	-3.4321092531	 1.3849395389	 0.097401
H	-0.678086328	-2.473771168	 3.6167284921	 0.101202
H	 1.0751348427	-2.5694633482	 3.6357507618	 0.098278
H	 0.6260623356	-0.0612445782	 3.0222263329	 0.082217
