16
gdb 80156	2.42719	1.62831	1.36013	3.8622	69.73	-0.231	-0.0941	0.137	998.5281	0.123604	-437.886076	-437.878148	-437.877203	-437.918698	29.693	
C	 0.0167672925	 1.6393380105	 0.0071542277	-0.441956
C	 0.0506186429	 0.1261049352	-0.0407801025	 0.015746
C	 0.5377123108	-0.6865582203	-1.212754068	-0.1873
N	 1.2513747467	-0.6905163762	 0.1044745152	-0.1214
C	 2.5245074148	 0.0406285837	-0.0524216508	-0.286772
C	 2.6151571437	 0.5606686595	-1.4830684766	 0.290198
O	 3.4773021596	 1.2302202195	-1.9805875866	-0.276014
C	 1.3693829552	-0.0025007283	-2.2356612173	 0.328035
O	 1.1966721221	 0.0691396246	-3.4243694047	-0.292854
H	 0.8095774538	 2.1273602532	-0.5630906549	 0.14403
H	-0.9369729735	 1.9919272223	-0.3968005206	 0.144957
H	 0.0848718423	 1.9838164314	 1.0446109798	 0.138179
H	-0.7952891477	-0.3288986848	 0.4721180461	 0.115737
H	 0.0036808046	-1.5855548763	-1.5026016299	 0.126743
H	 2.6292760189	 0.8440187749	 0.6817970031	 0.147645
H	 3.3488578232	-0.6631854089	 0.1142202899	 0.155027
