21
gdb 97443	3.10746	0.93192	0.89071	1.9484	82.18	-0.2321	0.0193	0.2515	1460.5613	0.18116	-420.381171	-420.371052	-420.370108	-420.417288	36.368	
C	 0.0636982326	 0.4283934249	-0.7221202379	-0.318646
N	-0.625769431	-0.7157167819	-0.1588027317	-0.229099
C	-1.8823909292	-0.6597041646	-0.071113571	 0.125161
O	-2.6637035033	-1.6229297583	 0.4452063937	-0.227102
C	-2.0383549937	-2.7485913672	 1.0869734607	-0.143713
C	-1.872485962	-3.9640364051	 0.1874817353	 0.310218
C	-1.4881493763	-5.2090919415	 0.9611325003	-0.44316
C	-2.6776952304	-4.0663052532	-1.0562480079	-0.275961
N	-1.223351008	-3.8189691984	-1.120377797	-0.348746
H	 0.6571775666	 0.1126312096	-1.5871559552	 0.132407
H	-0.6097298499	 1.239622645	-1.040717639	 0.101366
H	 0.7654495628	 0.8350080625	 0.0146383105	 0.131193
H	-2.50749246	 0.1779571631	-0.4037009462	 0.107374
H	-1.0687130952	-2.4385311785	 1.4877355177	 0.136174
H	-2.7066116069	-3.0006988929	 1.9165440638	 0.114137
H	-2.2760328818	-5.5013934292	 1.6645999339	 0.111895
H	-1.3123056471	-6.0358290725	 0.2697468492	 0.132376
H	-0.565843275	-5.0486736164	 1.5317787791	 0.119487
H	-2.991294843	-5.0433913547	-1.4153174691	 0.108177
H	-3.3569158415	-3.2528536083	-1.2911466767	 0.116047
H	-1.0306486878	-2.8378956722	-1.3051272525	 0.240415
