16
gdb 125374	2.62715	1.58181	0.99331	4.0418	72.63	-0.2415	-0.0121	0.2294	1132.734	0.125683	-434.135619	-434.126792	-434.125847	-434.169669	31.617	
C	-0.018283672	 1.538910707	-0.0210816131	-0.489963
C	-0.0124553945	 0.0429540651	 0.0031668012	 0.136207
C	-0.0525910601	-0.8223060355	-1.0700195271	-0.10144
N	-0.0281751739	-2.0847390171	-0.5653076904	-0.190643
N	 0.0251972439	-2.1117299382	 0.76962188	-0.309271
C	 0.0353472395	-0.824104302	 1.1280584632	 0.194484
C	 0.0909156093	-0.4252007669	 2.5583125287	 0.342068
N	 0.1315580624	-1.4655099441	 3.4339152014	-0.538021
O	 0.0992814083	 0.7465797373	 2.9020456014	-0.385604
H	 0.8740938962	 1.9445140453	 0.4631733945	 0.146172
H	-0.0601153844	 1.9117371588	-1.0486495209	 0.105477
H	-0.8722262708	 1.9387406937	 0.532325866	 0.146187
H	-0.0957621902	-0.6383821963	-2.1321896011	 0.138498
H	-0.0456291805	-2.953063192	-1.0734905696	 0.277449
H	 0.1178740882	-2.4146943521	 3.1017898699	 0.270679
H	 0.1654171686	-1.2659533629	 4.418514146	 0.257722
