20
gdb 40717	4.78941	0.9113	0.90083	1.4978	79.89	-0.2294	0.0726	0.3021	1363.831	0.170645	-403.077015	-403.068736	-403.067792	-403.11032	32.041	
C	-0.3305755885	 1.0586191403	-0.4139537426	-0.231247
C	 1.063450666	 1.0693891054	 0.1136427787	-0.218312
N	 0.2658215412	-0.1489197031	 0.1394930706	-0.076558
C	-0.1793595748	-0.661849105	 1.419710435	 0.061672
C	-0.708451594	 0.2442492845	 2.5929054967	-0.362027
C	-1.801142607	-0.8070136854	 2.7946806531	 0.468796
C	-2.2172542161	-1.4661821064	 4.0326416457	-0.266516
O	-3.0807459886	-0.5510950891	 3.3391890368	-0.272241
C	-1.5345022179	-1.4220152304	 1.4217294786	-0.33292
H	-1.0833294845	 1.5945631994	 0.159964793	 0.114789
H	-0.5151584701	 1.0350443399	-1.4843429515	 0.118328
H	 1.9147811313	 1.0677731076	-0.5615655307	 0.117206
H	 1.226806461	 1.5958908732	 1.0527151325	 0.113729
H	 0.6213185544	-1.3057652568	 1.7963158215	 0.087618
H	-0.030659958	 0.4468631795	 3.425013614	 0.104829
H	-1.1409845763	 1.1881652041	 2.2477527179	 0.117047
H	-2.5328937419	-2.5088791825	 4.0135341608	 0.115154
H	-1.838134735	-1.1126126945	 4.9910777586	 0.113815
H	-2.2142993448	-1.0089487405	 0.6695990441	 0.118206
H	-1.5140477964	-2.5097211403	 1.3299189872	 0.108631
