11
gdb 1381	8.65446	1.51492	1.28924	6.2626	52.59	-0.2514	-0.0893	0.1621	841.7272	0.07707	-376.588479	-376.581318	-376.580374	-376.620363	23.53	
N	 0.2628042991	 1.2925389883	 0.0049688056	-0.382444
C	 0.0371149897	 0.0482699114	 0.001760692	 0.085396
N	-1.2453492373	-0.5063758078	 0.0108059778	-0.33321
C	-2.473970881	 0.1392868733	 0.0266513685	 0.340474
O	-2.6654641965	 1.3247814091	 0.0357738982	-0.27685
C	-3.6344612453	-0.8814616105	 0.0318265939	 0.084161
O	-4.7806387827	-0.5416301074	 0.0451006183	-0.195329
H	 1.2674760685	 1.4623081269	-0.0034110579	 0.237724
H	 0.7963786034	-0.7438095856	-0.0086724443	 0.104372
H	-1.2739158858	-1.5146811545	 0.0054582955	 0.258353
H	-3.3408229622	-1.9596650833	 0.0221560124	 0.077354
