17
gdb 31584	3.35596	1.1551	0.86869	1.8699	73.16	-0.175	0.0564	0.2314	1309.2395	0.135549	-455.18694	-455.177519	-455.176575	-455.221117	33.542	
C	-0.0350201454	 1.3661699794	 0.0370831599	-0.233964
O	 0.0286963031	-0.0601179389	 0.049372869	-0.270659
C	 0.650122206	-0.5866470884	 1.1117091841	 0.486408
N	 1.1957833591	 0.048965928	 2.1214149836	-0.452775
C	 1.689015498	-0.9581364949	 2.9232882414	 0.260399
O	 2.3322843114	-0.6689253666	 4.0813996706	-0.444174
C	 1.4497928342	-2.2009434308	 2.4130654506	 0.212074
C	 1.7745498345	-3.5706572103	 2.8915893382	-0.512244
N	 0.7613913543	-1.9298124159	 1.2143861084	-0.404763
H	 0.969652094	 1.799298617	 0.0370008852	 0.138443
H	-0.563756982	 1.6316140704	-0.8789193742	 0.130526
H	-0.5768807657	 1.7377463659	 0.9118833368	 0.138457
H	 2.3350291726	 0.2922488877	 4.1535218882	 0.297207
H	 0.8789104886	-4.182752246	 3.0631662425	 0.120489
H	 2.4181783924	-4.1218379574	 2.1928689037	 0.120486
H	 2.3087609602	-3.4960506723	 3.8416532416	 0.15114
H	 0.4127217446	-2.599369457	 0.5505826004	 0.26295
