16
gdb 10844	4.6293	1.47849	1.1743	3.827	60.92	-0.2623	0.0085	0.2707	974.7775	0.13133	-420.91601	-420.908518	-420.907574	-420.947987	27.732	
O	 0.0442004069	 1.4166537099	 0.1218772441	-0.425752
C	 0.0156575962	 0.0037794934	 0.0245566847	 0.091137
C	-1.4336287316	-0.4545893575	 0.0321247992	-0.218866
C	-1.4766440476	-1.9773531845	-0.1203192096	-0.345242
C	-0.5479469203	-2.5694029851	-1.1751193101	 0.411903
O	-0.6978735508	-3.6715654396	-1.624858927	-0.319762
O	 0.5446631218	-1.8517257274	-1.5485037955	-0.227028
C	 0.6554231341	-0.4460061335	-1.2900500086	-0.087636
H	 0.9582069548	 1.6995593049	 0.2288082999	 0.289531
H	 0.549242164	-0.4628851592	 0.8686025403	 0.078257
H	-1.9300737956	-0.1413635902	 0.9548712764	 0.115234
H	-1.955618518	 0.0368805026	-0.7976492134	 0.117756
H	-1.1784261624	-2.455454347	 0.8223047317	 0.14264
H	-2.4815280566	-2.3437854325	-0.3396325421	 0.142861
H	 0.1878324422	 0.1109413444	-2.1120573675	 0.122809
H	 1.7290313229	-0.2330173786	-1.3041627624	 0.112158
