19
gdb 15804	5.04521	1.02816	0.89377	2.8713	73.5	-0.2446	0.0089	0.2535	1329.8409	0.164163	-365.069838	-365.060749	-365.059805	-365.10477	31.738	
C	-0.0919593339	 1.5126095776	-0.0749855605	-0.387509
C	-0.0987230583	-0.0174876497	-0.1059483111	-0.154212
C	 0.8594649905	-0.5870529729	-1.1523661241	-0.287755
C	 0.8519471954	-2.1071331522	-1.210557973	 0.363627
O	 0.1292233917	-2.8049571194	-0.534556814	-0.331687
N	 1.8234117131	-2.6503566995	-2.0591083789	-0.076893
C	 1.8211857972	-2.5290137582	-3.5071076412	-0.234289
C	 1.5895224212	-3.8474334976	-2.8298026221	-0.21591
H	 0.9049751513	 1.9036615249	 0.1580185642	 0.113041
H	-0.3923191842	 1.9334199022	-1.0414857269	 0.110606
H	-0.7833325521	 1.8948853951	 0.6820924912	 0.115349
H	 0.1702396731	-0.4168877219	 0.8776779714	 0.113391
H	-1.1090236542	-0.3881909027	-0.308126189	 0.111918
H	 0.6115436697	-0.2026801701	-2.1519183618	 0.114298
H	 1.8904875336	-0.2599077608	-0.9671813026	 0.127275
H	 0.9638735589	-2.0517324712	-3.9768387283	 0.127409
H	 2.778684412	-2.3086659851	-3.9713471458	 0.12713
H	 2.382425141	-4.5893655842	-2.8086788666	 0.126773
H	 0.579107074	-4.2471476442	-2.8214273407	 0.137438
