24
gdb 119902	2.10825	1.12466	0.96383	3.1659	86.9	-0.2265	0.0745	0.3009	1418.5761	0.214965	-405.526116	-405.515157	-405.514212	-405.562055	40.56	
C	 1.3913641456	 1.2553236066	-0.2544300793	-0.422247
C	 0.9073309356	-0.1658530317	-0.0664488978	-0.036495
N	 1.8223964935	-1.2937446342	 0.1399827948	-0.150283
C	 3.2699548531	-1.104391585	 0.2008815677	-0.156459
C	 3.9074086375	-2.4768445294	 0.4384987702	-0.042633
O	 3.4748135339	-3.4097518955	-0.526592541	-0.422269
C	 0.9217380021	-0.9035913315	 1.2402288016	 0.310583
C	 1.4559661363	-0.2551659894	 2.5040276431	-0.462031
C	-0.1786031521	-1.914884638	 1.5088703002	-0.438449
H	 2.1964450605	 1.5339485232	 0.4276905211	 0.120532
H	 1.7576968714	 1.4017612937	-1.2765720006	 0.127089
H	 0.5636737298	 1.9558939311	-0.1002325882	 0.123681
H	 0.0906053421	-0.4166022588	-0.7456530972	 0.081949
H	 3.5988105754	-0.7248306769	-0.7735896909	 0.108182
H	 3.613167034	-0.397712532	 0.9694700918	 0.083033
H	 4.9983928083	-2.4020130266	 0.3676361727	 0.098201
H	 3.6659261108	-2.8144446468	 1.4619029261	 0.076833
H	 2.5304035591	-3.2213734822	-0.6302828801	 0.279803
H	 2.1895245283	 0.5311059418	 2.3223576399	 0.122248
H	 0.6291045093	 0.1924993743	 3.0657225393	 0.123061
H	 1.9220558558	-1.0056831157	 3.153203356	 0.124142
H	 0.1753270956	-2.7065849178	 2.1795133098	 0.11714
H	-1.0434284878	-1.436806324	 1.9830015514	 0.112456
H	-0.507402028	-2.3837819853	 0.5783492994	 0.121931
