17
gdb 37955	3.02865	1.9842	1.52277	2.8412	71.	-0.2292	-0.0107	0.2185	883.1911	0.138829	-417.92975	-417.923126	-417.922182	-417.960349	27.478	
C	 0.034969784	 1.4689703507	 0.012609826	-0.154284
C	 1.4746723359	 2.1272634602	 0.1097261363	-0.190653
N	 2.3335957719	 1.1809626175	 0.8227608209	-0.249346
C	 2.5285407625	 0.1849048169	 0.0877068713	 0.364866
O	 2.6105221739	-1.1422953328	 0.4943063375	-0.272264
C	 2.0010389397	-1.513382554	-0.7724554188	 0.05468
C	 0.7468816352	-0.6648554745	-1.0811183851	-0.026653
N	-0.0542170401	 0.0013903912	-0.0847575538	-0.290217
C	 2.1468367572	-0.1514023968	-1.3489283005	-0.268116
H	-0.5291086589	 1.739353205	 0.9087055322	 0.118996
H	-0.4896627058	 1.9168264215	-0.8391792192	 0.107699
H	 1.845597262	 2.3654034992	-0.8965868843	 0.103018
H	 1.4035588559	 3.0670314319	 0.662614056	 0.10724
H	 2.2000496762	-2.5073547133	-1.1481895627	 0.125369
H	 0.2086149347	-1.0211571988	-1.9601221965	 0.102025
H	 0.0722544902	-0.422911908	 0.8234968731	 0.247343
H	 2.5543397858	 0.2247664441	-2.2761337624	 0.120295
