17
gdb 35570	2.84868	1.56304	1.31515	1.0178	73.21	-0.2464	0.0191	0.2655	1008.6379	0.136381	-421.775447	-421.767835	-421.76689	-421.807694	29.392	
C	 0.3880511022	-1.1729295544	 0.2755697894	-0.433479
C	 0.2494378714	 0.0169367183	 0.1757096599	 0.351318
C	 0.0812102258	 1.4489994585	 0.0351276246	-0.118501
O	-0.2739554483	 2.1376739592	 1.2649471739	-0.308469
C	 0.7985132034	 3.0988017437	 1.1099833731	 0.094517
C	 1.8883024317	 2.961088608	 2.1660458807	-0.241434
C	 2.6672990864	 1.7311565328	 1.6723409773	-0.09401
O	 2.5882900743	 1.7824944058	 0.2406654322	-0.254818
C	 1.357572108	 2.3444832583	-0.119605369	 0.060048
H	 0.5129283945	-2.2239153528	 0.3652292106	 0.20216
H	-0.6615891711	 1.6643044662	-0.7455316063	 0.102783
H	 0.4151610793	 4.114539728	 0.9786517361	 0.08125
H	 2.521550912	 3.8544275102	 2.1570900088	 0.109104
H	 1.4717788187	 2.8334114377	 3.1677225977	 0.120926
H	 3.7260193196	 1.7388566655	 1.9406881475	 0.112554
H	 2.2126958091	 0.8045043591	 2.0424912362	 0.119417
H	 1.4654037728	 2.8436618262	-1.0831303327	 0.096634
