16
gdb 20595	3.20979	1.83132	1.19327	3.7859	67.23	-0.2219	0.0271	0.249	979.8705	0.131574	-379.941033	-379.93287	-379.931925	-379.974326	28.706	
C	-0.0933304287	 1.5659505999	 0.0985062826	-0.514487
C	-0.0112311113	 0.0723631342	 0.0101946285	 0.094634
C	 0.0466092804	-0.715389723	-1.1281491062	 0.310065
C	 0.0683384158	-0.3839382039	-2.5843866251	-0.196663
O	-0.3642374553	-1.5354714975	-3.3004616145	-0.424131
N	 0.1339290892	-1.9993578241	-0.7025142364	-0.23285
N	 0.1171589761	-2.1210558551	 0.6363135471	-0.237743
C	 0.0403079669	-0.8650837172	 1.0684861212	-0.072534
H	 0.888981343	 2.0455436769	 0.0039987379	 0.126609
H	-0.7323319488	 1.985299176	-0.6869075202	 0.120773
H	-0.5118612591	 1.8757904092	 1.0605376684	 0.12954
H	-0.5835522517	 0.4829598568	-2.7746097199	 0.110108
H	 1.0852095484	-0.0934821983	-2.8957298768	 0.110509
H	-0.1747139197	-1.3995262345	-4.2330036623	 0.295884
H	 0.119510748	-2.8142481367	-1.292511205	 0.276625
H	 0.0153488268	-0.6638824626	 2.130529981	 0.10366
