16
gdb 25711	5.06041	0.78135	0.68253	1.6355	77.59	-0.2398	0.0057	0.2455	1596.3072	0.124097	-400.757917	-400.749112	-400.748167	-400.793705	30.25	
C	 0.3399406134	 1.327664413	-0.8112663959	-0.497298
C	 0.1307703464	-0.0061393975	-0.2652909656	 0.068901
C	-0.0314776948	-1.1078586315	 0.1914645791	 0.066348
C	-0.2287347832	-2.4441300499	 0.7451901559	-0.473259
C	-1.5270537112	-3.0800976952	 0.3416583371	 0.258984
C	-2.5260597889	-2.6125074227	-0.4433705238	-0.0933
O	-3.5017672542	-3.5718672159	-0.5078929085	-0.1439
C	-3.0258205208	-4.5787779585	 0.2549607319	 0.069814
N	-1.8690218487	-4.3566090915	 0.7853248274	-0.308174
H	 1.3041321218	 1.7383544149	-0.4919755606	 0.150664
H	 0.3323334815	 1.3169784717	-1.90676501	 0.147948
H	-0.4403095076	 2.0219862162	-0.4804859019	 0.147969
H	 0.5953740962	-3.1038881138	 0.44144201	 0.149319
H	-0.1803304375	-2.4089905343	 1.8420601544	 0.149317
H	-2.6976936279	-1.7028039019	-0.9895348813	 0.155941
H	-3.6472791744	-5.455895653	 0.3458031418	 0.150727
