19
gdb 75905	2.74298	1.43863	1.17845	2.7631	76.41	-0.2531	0.0251	0.2782	1110.0233	0.160723	-419.202485	-419.19414	-419.193196	-419.235525	31.852	
C	 0.0694091292	 1.6310862588	-0.0544820828	-0.395434
C	 0.0002569878	 0.0976650747	 0.0450070448	-0.185948
C	 0.7300479385	-0.5469252835	-1.1230367689	 0.418625
N	 0.3037130496	-0.5834944235	-2.310223061	-0.545506
O	 1.9256045266	-1.0619481987	-0.707760658	-0.242961
C	 2.1229286284	-0.8307172129	 0.6975812882	-0.132226
C	 0.7460852403	-0.486551342	 1.2389727803	 0.310111
C	 0.4767078996	-0.1446517507	 2.6499067516	-0.303673
N	 0.1335971783	-1.4841381937	 2.1291601583	-0.352422
H	 1.1052274629	 1.9853122242	-0.0360069832	 0.12262
H	-0.3837006739	 1.9609807882	-0.9924038146	 0.146181
H	-0.4629459836	 2.0999392276	 0.7781892811	 0.116132
H	-1.0476993033	-0.2149811126	 0.0290937751	 0.104076
H	 0.9787344891	-1.0451608358	-2.9223220733	 0.22193
H	 2.5239063944	-1.7393142261	 1.1507927273	 0.133969
H	 2.8404466538	-0.0100352605	 0.8235764202	 0.111647
H	 1.2857803109	-0.1300413556	 3.3760941819	 0.122224
H	-0.3258087364	 0.5578051721	 2.8606646784	 0.117614
H	-0.8677859623	-1.5414210899	 1.9562958948	 0.233041
