19
gdb 94868	2.80329	1.82677	1.43119	2.8882	74.64	-0.2405	0.0659	0.3064	960.9604	0.160938	-422.952976	-422.945841	-422.944897	-422.984674	29.516	
O	 0.1927412404	 1.4503598291	-0.0486032776	-0.439321
C	 0.0738083838	 0.0435502783	-0.0689255675	 0.094675
C	 0.6841556701	-0.6453385934	 1.217979111	-0.236404
C	-0.4802350577	-1.0872149138	 2.1794637377	-0.356633
C	-1.6948524278	-0.6427141594	 1.4134527157	 0.425676
C	-3.19651277	-0.8385079657	 1.0993061214	-0.310751
C	-2.6379823565	 0.3487423297	 0.251368951	 0.022284
O	-1.9656883061	 0.8438862447	 1.474312146	-0.363334
C	-1.375084979	-0.491290938	-0.0804762345	-0.050386
H	-0.4250307595	 1.7397293979	 0.6388241052	 0.283805
H	 0.6229070931	-0.2831331817	-0.9564054498	 0.07992
H	 1.2745990433	-1.5206417596	 0.9302599494	 0.101505
H	 1.368349428	 0.0618528313	 1.6921643777	 0.118282
H	-0.4898844232	-2.1715844787	 2.3245776762	 0.113107
H	-0.4247745495	-0.6186761967	 3.1652709553	 0.12273
H	-3.4882904171	-1.7536432571	 0.5786400776	 0.102772
H	-3.8948963679	-0.5472898073	 1.8842778254	 0.114453
H	-3.1862643989	 1.0764254656	-0.3469531145	 0.102937
H	-1.5237926155	-1.3753865351	-0.7067535557	 0.074683
