20
gdb 88773	3.51323	1.15352	1.03237	1.72	78.94	-0.2483	0.0239	0.2722	1230.0309	0.172323	-403.151736	-403.143229	-403.142284	-403.185588	31.79	
C	-0.1073466591	 1.5328557804	-0.1735068404	-0.418594
C	 0.0443751735	 0.036894223	 0.0044607939	-0.005047
C	 1.3865455476	-0.6454746174	-0.1366150839	-0.29395
C	 0.7035796502	-0.5949679902	 1.209011971	-0.026002
C	 1.285236576	 0.1660460805	 2.3818900388	 0.067708
C	 2.1991643126	-0.6969073847	 3.3024823504	-0.19337
N	 3.4916460311	 0.0078046899	 3.3455541045	-0.261385
C	 3.3585667885	 1.0087447992	 2.5841047885	 0.118624
O	 2.1790136594	 1.2357330308	 1.9548709884	-0.225837
H	 0.756970083	 2.0745654641	 0.2147507464	 0.140953
H	-0.2184408648	 1.7832568985	-1.2343341919	 0.114054
H	-0.9982393939	 1.9037985973	 0.3464052591	 0.111669
H	-0.7984854157	-0.5330883717	-0.3801863216	 0.082778
H	 1.4492846428	-1.5952321363	-0.6561252315	 0.108646
H	 2.2488219551	-0.001400454	-0.2688848385	 0.122303
H	 0.2482169923	-1.5238180331	 1.5465936847	 0.089766
H	 0.4848638775	 0.6489945235	 2.9539219177	 0.094124
H	 1.7958065369	-0.8004006933	 4.3143500665	 0.116356
H	 2.3450658918	-1.7052864899	 2.8990766742	 0.116925
H	 4.1259184351	 1.7442818135	 2.3683711737	 0.140281
