14
gdb 131357	5.72409	1.01332	0.86091	5.4926	67.5	-0.2152	-0.0119	0.2033	1242.861	0.104215	-466.223583	-466.215999	-466.215055	-466.255775	28.34	
O	 0.0732596983	 1.3156260178	-0.0338619413	-0.411342
C	 0.0597577243	-0.0246668519	-0.0327865547	 0.427029
N	 0.0018922837	-0.7112774444	-1.1561617633	-0.295232
N	 0.0105386725	-1.9985156821	-0.6793205939	-0.240545
C	 0.0711975817	-1.9869199429	 0.6579398329	 0.513168
N	 0.0959770468	-3.1121606143	 1.4576333957	-0.394559
C	 0.063343004	-4.409955725	 1.0164237404	 0.09347
N	 0.0042073921	-4.7085623449	-0.2233370894	-0.473481
N	 0.1048296021	-0.7463270553	 1.1231597348	-0.452563
H	 0.1179027294	 1.5912102479	 0.8889212048	 0.30816
H	-0.0240618828	-2.8216257059	-1.2636822425	 0.299002
H	 0.1430996637	-2.9269967397	 2.4461439257	 0.277563
H	 0.0937773835	-5.1250045046	 1.8439077417	 0.112385
H	-0.0116509791	-5.7156844848	-0.353932971	 0.236947
