18
gdb 96902	3.1114	1.28484	1.06348	2.9536	75.74	-0.2476	0.0083	0.2559	1190.3906	0.146088	-439.055219	-439.046396	-439.045451	-439.089121	31.953	
C	-0.1668256977	 1.423947692	 0.2986211731	-0.341389
N	-0.123529338	-0.0293866783	 0.3782241338	-0.337477
C	-1.0998429579	-0.6951604291	-0.0233154198	 0.472463
O	-2.3320659566	-0.2850609334	-0.5452531781	-0.314319
C	-2.8119202964	-1.6670772269	-0.6320680689	 0.39011
C	-4.1681041338	-1.8526806746	-0.0182548501	-0.484715
C	-2.4114205818	-2.3013695919	-1.9748726533	-0.122247
O	-1.1207254061	-2.6980635123	-1.4478909435	-0.286027
C	-1.4294680981	-2.1678566404	-0.1406150653	-0.108265
H	 0.6230513315	 1.7658954758	-0.3793481897	 0.133204
H	-1.1260298956	 1.8259304175	-0.0474011987	 0.126669
H	 0.0582062332	 1.8400873007	 1.2862408133	 0.129294
H	-4.9209052686	-1.2921568219	-0.5829979588	 0.139807
H	-4.452369007	-2.9088890367	-0.0240069028	 0.13232
H	-4.1790600501	-1.4906543564	 1.0134247893	 0.137911
H	-3.0039390294	-3.177425991	-2.265131936	 0.109181
H	-2.3349270484	-1.602526468	-2.8139831041	 0.11993
H	-1.1997428591	-2.8517989653	 0.6764600096	 0.10355
