18
gdb 51687	3.38241	0.97295	0.82115	2.5621	74.05	-0.2545	-0.0304	0.2241	1380.4158	0.147572	-439.119511	-439.110845	-439.109901	-439.154206	31.139	
N	 0.1454883206	 1.1618264954	 0.1188020445	-0.535242
C	 0.0784106777	-0.094508984	 0.0399396274	 0.41613
C	-0.9931823713	-0.8883008224	-0.6748966257	-0.302407
C	-0.8455250419	-2.2953092517	-0.0804449413	-0.246605
C	 0.6399787258	-2.3323213515	 0.3311884027	 0.089646
C	 1.5706597455	-2.9013263317	-0.7511419043	-0.290046
C	 3.0352343151	-2.8223690449	-0.365532289	 0.155124
O	 3.7824279632	-3.7668065766	-0.3633276808	-0.23603
O	 0.9853947767	-0.9579384502	 0.6018593384	-0.247906
H	 0.9729834946	 1.4476409987	 0.6450779412	 0.223858
H	-1.9744894975	-0.4372459763	-0.5281150508	 0.143388
H	-0.7870451243	-0.8770393081	-1.7508785678	 0.135667
H	-1.4757782906	-2.4036968255	 0.8066941449	 0.122211
H	-1.1023227954	-3.0963583819	-0.7761262624	 0.117264
H	 0.7911401913	-2.8804023377	 1.2658186096	 0.10586
H	 1.3221840654	-3.9471756627	-0.9536592746	 0.126843
H	 1.4316970497	-2.3250003951	-1.6767580081	 0.124637
H	 3.3833658354	-1.8083471839	-0.0760674038	 0.097608
