21
gdb 110984	2.3819	1.31089	1.12506	2.4919	80.04	-0.2289	0.0874	0.3162	1240.8368	0.179518	-424.152608	-424.142842	-424.141898	-424.187147	35.947	
C	-0.7687055512	 1.0737727866	-0.0929585676	-0.240078
O	-0.9530032231	-0.2291439826	-0.6012065199	-0.245874
C	 0.0479863771	-0.6286362518	-1.4777091602	 0.132309
C	 1.3484409469	-1.2839839415	-0.9220907519	-0.027879
O	 0.5325704269	-2.4194273246	-0.4517349524	-0.34289
C	 0.0365810379	-2.1379652346	-1.8296203883	 0.347481
C	-1.0876721579	-2.9701179257	-2.3595628812	-0.522879
C	 1.5331884172	-2.0340858454	-2.2712958922	 0.000896
C	 2.0026824843	-1.3855586864	-3.5656766811	-0.447463
H	 0.139437583	 1.1495215729	 0.5228414629	 0.109615
H	-0.7020575748	 1.8205723039	-0.9001962161	 0.102211
H	-1.6362270882	 1.3038725664	 0.5295999741	 0.130292
H	 0.1630859677	 0.0893297698	-2.3006570172	 0.059139
H	 2.1031682143	-0.8916932648	-0.2397246627	 0.087155
H	-1.9864560666	-2.814478616	-1.7560713809	 0.146325
H	-1.3119616227	-2.6924275504	-3.394586528	 0.123478
H	-0.8247912556	-4.0317405732	-2.3333493457	 0.132229
H	 2.034199197	-2.9891612501	-2.0940719317	 0.086475
H	 1.5271690429	-0.4244877666	-3.7743659978	 0.121539
H	 3.0850086174	-1.2195781427	-3.5352757477	 0.123975
H	 1.7998768875	-2.0465635832	-4.4154104243	 0.123945
