16
gdb 125027	3.30346	1.28971	0.93401	5.7328	77.31	-0.2124	-0.0401	0.1723	1192.6321	0.124732	-434.100856	-434.092079	-434.091135	-434.134585	31.347	
C	-0.0466978467	 1.5253786215	 0.0728977428	-0.513746
C	-0.018091345	 0.0366326164	-0.0407239724	 0.346465
C	-0.0439233507	-0.7688520413	-1.1526953379	 0.068574
N	-0.1611954708	-0.4006835842	-2.4971991386	-0.609159
C	-0.0142976217	-2.1031822606	-0.6414031682	-0.011237
N	 0.0321272829	-2.139550553	 0.6715458979	-0.232342
N	 0.0296357471	-0.8323223322	 1.0501981908	-0.09452
C	 0.0792635484	-0.4755658332	 2.3995277486	 0.180204
O	 0.1262195539	-1.2452127533	 3.317819577	-0.270133
H	 0.8573261739	 1.9327506287	 0.5405638573	 0.142998
H	-0.1274608934	 1.9675593282	-0.9236567872	 0.132324
H	-0.9078001678	 1.8836238606	 0.6485576912	 0.147839
H	 0.2555084147	 0.4955279315	-2.7119360902	 0.24649
H	 0.2076680359	-1.0995330516	-3.1281494844	 0.251381
H	-0.0265654695	-3.025200189	-1.2073414733	 0.119835
H	 0.0700545389	 0.6221831716	 2.5159233964	 0.095024
