20
gdb 79163	2.54682	1.91658	1.38524	1.2017	85.88	-0.1974	-0.0363	0.1612	1007.6852	0.170254	-365.896366	-365.888285	-365.887341	-365.92853	32.241	
C	-0.5334258063	 1.3145237772	 0.214925678	-0.400889
C	-0.0415928467	-0.100680929	-0.0826416647	-0.01021
N	 0.9064262767	-0.1326064935	-1.2384014744	-0.124644
C	 2.4280019044	-0.0599657298	-1.0252002811	-0.049178
C	 3.0800702317	-0.4083990409	 0.3704431715	-0.271734
C	 1.853622416	-1.3434397956	 0.4899589542	-0.092201
C	 1.6824291433	-1.3343405361	-1.0467840735	-0.079583
C	 0.7849356686	-0.726915283	 1.0536577006	 0.257711
C	 0.7287408754	-0.2660112257	 2.474098369	-0.477159
H	 0.2907200673	 1.9676504305	 0.5182156261	 0.12201
H	-0.9786532782	 1.7348472195	-0.6905062383	 0.131522
H	-1.2890254585	 1.3184473017	 1.0060049009	 0.117065
H	-0.9007759804	-0.7059644565	-0.4074034243	 0.088961
H	 2.9475576982	 0.4252250479	-1.8452340711	 0.101904
H	 4.0497999276	-0.8837164278	 0.1810616565	 0.109149
H	 3.1923585676	 0.3663948145	 1.1343505889	 0.102192
H	 1.6923449299	-2.1640764943	-1.7443944179	 0.08689
H	 0.5543698461	 0.8114185922	 2.5688584145	 0.12585
H	-0.0971169261	-0.7589322538	 3.0057042202	 0.133815
H	 1.6497452936	-0.5267434776	 3.0035400548	 0.128527
