17
gdb 81611	4.66623	1.02348	0.9341	3.8967	73.56	-0.238	0.0215	0.2595	1231.2817	0.135881	-417.924908	-417.916761	-417.915817	-417.958112	30.789	
O	-0.0379997135	 1.5008636784	-0.115681034	-0.427119
C	 0.0477905655	 0.1338130863	 0.1502033939	 0.166597
C	-0.6533882744	-0.4759450577	 1.4193256201	-0.085777
C	-2.0143296314	-0.0755162361	 0.779979577	-0.261454
C	-1.1463728883	-0.7263565857	-0.3390352393	-0.058763
N	-0.6030850484	-1.7637205664	 0.6255435865	-0.117346
C	-1.3450613534	-2.9556229493	 1.0020432543	-0.272434
C	-2.769707616	-2.9165894325	 1.4129780591	 0.243526
N	-3.8773726472	-2.9470884988	 1.7435451397	-0.321945
H	 0.6887962232	 1.9424108959	 0.3338436568	 0.292922
H	 1.0312255655	-0.2957808728	-0.063858552	 0.084167
H	-0.3358205434	-0.4353776582	 2.4629054678	 0.08421
H	-2.901809304	-0.6091854721	 1.1053616492	 0.143702
H	-2.1992730374	 0.9936317154	 0.6773191947	 0.120185
H	-1.4129173743	-0.9810314014	-1.3657938283	 0.090439
H	-1.2837301575	-3.6534269276	 0.1583184157	 0.159859
H	-0.7983188747	-3.4271012876	 1.8275349987	 0.159229
