16
gdb 47683	2.30677	1.74433	1.14473	2.876	67.02	-0.2682	-0.0265	0.2417	1050.972	0.125108	-475.053082	-475.045292	-475.044348	-475.085905	28.948	
N	-0.2617672959	 1.4078931186	-0.0479386399	-0.480523
C	-0.071280371	 0.1771567241	 0.1349727303	 0.420314
C	-1.1252719529	-0.8624312165	-0.1343895764	-0.32866
C	-1.7509195626	-1.3364870968	 1.1885658278	-0.073785
O	-0.7898375198	-1.421432811	 2.2281531926	-0.227484
C	 0.3263117873	-2.2069281077	 1.9172084567	-0.219118
C	 1.417011092	-1.5327969744	 1.0752682383	 0.372262
O	 2.4997325739	-2.0228042939	 0.9482135147	-0.288285
O	 1.1737004939	-0.2936337994	 0.5367589613	-0.22957
H	 0.5712089739	 1.9458201924	 0.1985408496	 0.235514
H	-1.8925752419	-0.4184508464	-0.7700526704	 0.150196
H	-0.6796199445	-1.7010266824	-0.6809287155	 0.129749
H	-2.4853790646	-0.6072055894	 1.5373099807	 0.138491
H	-2.2567859021	-2.3033659518	 1.0464442374	 0.106122
H	 0.8131205832	-2.4731690547	 2.8595093802	 0.162524
H	 0.0553898211	-3.1498959506	 1.4173720326	 0.132256
