16
gdb 103727	2.4291	1.28956	1.1809	4.1782	66.44	-0.2634	0.0103	0.2738	1113.2216	0.12181	-475.004665	-474.995322	-474.994378	-475.038739	34.478	
O	 0.14035567	 0.7318323326	 0.8690238324	-0.427658
C	-0.1500976155	 0.1951667726	-0.4167699541	-0.136539
C	-1.5151811284	-0.4566486034	-0.3908359279	 0.365857
O	-2.529036762	 0.3911909838	 0.0281556755	-0.447348
C	-1.9159775933	-1.5017396932	-1.3765408973	-0.395889
C	-1.5907031056	-1.9215435253	 0.0583131942	 0.1457
O	-0.3665157028	-2.5459648095	 0.3203516034	-0.453445
C	-2.6732339115	-2.3216546912	 0.9258957086	 0.266174
N	-3.5104426943	-2.6815456932	 1.638247314	-0.345184
H	 0.3722090968	-0.0082622873	 1.4418807941	 0.300685
H	-0.1781546654	 1.0463160354	-1.1043673117	 0.127844
H	 0.6177511845	-0.5079161586	-0.7533000607	 0.115597
H	-2.1789278058	 0.8633785836	 0.797052837	 0.29703
H	-2.9561303322	-1.5208326373	-1.6804676335	 0.153302
H	-1.1948406194	-1.8059341474	-2.1275698021	 0.132905
H	-0.4290804653	-3.4726474317	 0.0597974582	 0.30097
