16
gdb 13733	3.07255	1.64484	1.34445	2.8199	72.14	-0.2423	-0.0173	0.225	973.9101	0.127806	-346.580553	-346.572026	-346.571082	-346.613889	30.842	
C	 0.012916068	 1.4005612594	 0.376313149	-0.486173
C	 0.0941069881	-0.0375949156	-0.0975268298	 0.390032
O	 1.1310409341	-0.5387574862	-0.4717179815	-0.309596
C	-1.1895009949	-0.8110022556	-0.062503501	-0.122364
C	-1.2661602866	-2.1131318587	-0.8130681613	-0.291398
C	-1.2225722292	-2.162333746	 0.6906671577	-0.188597
C	-0.0818056929	-2.6615851434	 1.3986140356	 0.36045
C	 0.8442671883	-3.1015499168	 2.0263013582	-0.466883
H	 1.0003193498	 1.8613877162	 0.3384465646	 0.143014
H	-0.6836135747	 1.9681341062	-0.2518920059	 0.137972
H	-0.3773080983	 1.4397996832	 1.3998344319	 0.142768
H	-2.0950382188	-0.2227111905	 0.041269704	 0.09431
H	-2.1976667928	-2.370241441	-1.3033581653	 0.12203
H	-0.356255921	-2.394557031	-1.3299236287	 0.154462
H	-2.1715743672	-2.3512577046	 1.1848283987	 0.121082
H	 1.6766256582	-3.4854937056	 2.5618175638	 0.198894
