21
gdb 94718	3.25132	1.29582	1.10641	0.4599	78.95	-0.2244	0.0859	0.3103	1194.1472	0.18163	-424.212702	-424.203849	-424.202904	-424.245718	34.562	
C	-0.0106717248	 1.4995506366	 0.0585174558	-0.403928
C	 0.026865647	-0.0181674286	-0.0064890766	 0.120934
C	 0.6638298012	-0.5402127581	-1.2895987795	-0.09015
O	 0.6511601473	-1.9581730339	-1.3455278367	-0.301073
C	 0.9646221513	-2.6271512765	-0.1496880523	 0.397963
C	 0.3866929635	-4.0189036787	-0.1883640664	-0.442172
C	 2.2857253891	-2.3889303037	 0.5512077925	-0.371335
C	 0.9896334968	-1.8527279282	 1.1405201506	 0.030326
O	 0.7923639916	-0.4669911035	 1.1128590329	-0.273068
H	 0.9970875196	 1.9145153959	-0.0409738561	 0.12522
H	-0.6384500264	 1.9060624297	-0.7399566528	 0.117034
H	-0.4174666014	 1.822632343	 1.0201335653	 0.130152
H	-0.9948894909	-0.4262513676	 0.0609628435	 0.073786
H	 0.1064530601	-0.2013321319	-2.1681903248	 0.108861
H	 1.6916886087	-0.1500698864	-1.3634470206	 0.094762
H	 0.8128188058	-4.58282714	-1.0246522683	 0.127513
H	 0.6076338841	-4.5585649042	 0.7363979676	 0.115174
H	-0.6991007253	-3.9801023219	-0.3207083634	 0.121678
H	 2.7783423339	-3.2306689969	 1.0262957074	 0.108675
H	 2.953744568	-1.6375040578	 0.145503725	 0.119169
H	 0.5877359508	-2.3170214173	 2.0395464369	 0.090479
