18
gdb 62222	6.17291	0.54423	0.51786	4.257	74.54	-0.2854	-0.0494	0.2361	1999.6829	0.145355	-439.111931	-439.101978	-439.101034	-439.148198	34.357	
O	-0.0021317844	 1.4739041649	-0.0274399869	-0.430532
C	 0.0119249758	 0.0742869708	 0.0141443238	 0.043763
C	 0.6614269579	-0.5162502262	-1.2512045564	-0.217046
C	-0.0856392642	-0.0934437432	-2.5189256491	-0.178605
C	 0.6109483789	-0.60982033	-3.7930065575	-0.345478
C	-0.1024012743	-0.236893392	-5.0126261272	 0.258405
N	-0.6800400621	 0.0624323343	-5.967540534	-0.301267
C	 0.7346128342	-0.4098000785	 1.255624812	 0.136819
O	 1.2140631734	 0.3607720746	 2.0510702079	-0.255418
H	 0.4586193371	 1.7662229919	 0.7752236665	 0.297604
H	-1.0207419967	-0.3181557773	 0.083101279	 0.097407
H	 1.7021627507	-0.171162225	-1.2976123908	 0.115176
H	 0.6829192792	-1.6113968829	-1.1707270363	 0.101273
H	-1.1135523848	-0.4724588358	-2.4909228525	 0.12107
H	-0.1495409602	 0.9972871199	-2.5517178781	 0.150903
H	 1.6319278077	-0.2147552899	-3.8534076084	 0.154945
H	 0.6994495552	-1.7026176629	-3.7659120995	 0.14998
H	 0.8011218066	-1.5085931428	 1.3920720875	 0.101001
