23
gdb 39124	3.11701	1.35861	1.21834	0.1338	88.41	-0.2563	0.0869	0.3432	1154.1101	0.208688	-351.150463	-351.142603	-351.141659	-351.182575	32.566	
C	-0.1398870729	 1.3468015942	-0.0363989611	-0.310628
C	 1.2300225463	 0.7135497867	-0.0841192649	-0.028252
C	 2.0461914643	 0.7094272185	 1.2017252816	-0.218556
C	 1.0565960965	 0.2214430618	 2.2844999953	-0.320604
C	 0.0564491908	-0.7000257399	 1.5590499747	 0.385987
C	 0.3242941928	-2.2421789991	 1.571079845	-0.265809
C	-1.1891183449	-2.4783841105	 1.8189809787	-0.208053
C	-1.321778992	-0.9869257861	 2.2273462619	-0.274478
C	 0.0052173067	-0.1461862532	 0.1405044158	-0.067049
H	-0.4159628376	 1.9631891253	 0.8136433115	 0.106875
H	-0.556407442	 1.6906792599	-0.9771322206	 0.105451
H	 1.7565088076	 0.704990193	-1.0324182548	 0.076142
H	 2.8776393614	 0.0020568976	 1.0971053672	 0.098226
H	 2.4825213195	 1.6848405463	 1.4439735873	 0.093356
H	 1.5553234491	-0.2878135614	 3.1144223628	 0.090713
H	 0.5205107832	 1.0719190771	 2.7212535139	 0.100294
H	 0.7650118354	-2.6778064348	 0.6697129375	 0.091809
H	 0.9320751634	-2.5391719712	 2.431516781	 0.091279
H	-1.7288037254	-2.7017556674	 0.8945264761	 0.100334
H	-1.4633053066	-3.2290802516	 2.5638461471	 0.093194
H	-1.2789364663	-0.8555896114	 3.3135686449	 0.091788
H	-2.1800984151	-0.4276080627	 1.8448035624	 0.093663
H	-0.3804301442	-0.7899932712	-0.6437246733	 0.074319
