17
gdb 37989	3.03878	1.81027	1.35173	1.7494	67.56	-0.2522	0.0595	0.3118	938.1012	0.137733	-458.875737	-458.869156	-458.868211	-458.90661	26.81	
C	-0.010714322	 1.4101521946	 0.0096781896	-0.088791
C	 1.3626453996	 2.0634478626	 0.0176442508	-0.088787
O	 2.0168294775	 1.9785836898	 1.2709284021	-0.25654
C	 2.2065649574	 0.7141010243	 1.8164738505	 0.13074
C	 2.3368565983	-0.6162377452	 1.0080690455	-0.064352
O	 2.1111329823	-1.3081855132	 2.292276381	-0.290177
C	 1.0674019826	-0.264470681	 2.2776793917	-0.064355
C	 0.7815318313	-0.7118500942	 0.8085252958	 0.130743
O	 0.0391990507	 0.0012406175	-0.1258080112	-0.256541
H	-0.5504697301	 1.6954434	 0.9261810352	 0.106397
H	-0.5858890105	 1.7656219304	-0.8508005239	 0.115881
H	 1.9796907419	 1.6141712111	-0.7761505387	 0.106397
H	 1.2657716321	 3.1337752454	-0.1888100475	 0.115881
H	 2.9765187449	 0.8090908814	 2.5834698711	 0.106729
H	 3.1476929265	-0.9862314965	 0.3798484107	 0.095023
H	 0.4057519652	-0.2109931731	 3.1427642249	 0.095023
H	 0.4568779124	-1.751628654	 0.7485459123	 0.10673
