21
gdb 91371	3.2101	1.22301	1.04578	1.4846	86.04	-0.2255	0.0111	0.2366	1249.3593	0.182271	-387.073955	-387.065291	-387.064347	-387.107124	33.623	
C	 0.0162703645	 1.5446603685	 0.2043734305	-0.403893
C	 0.027922523	 0.0382619862	-0.0005444076	-0.0549
C	 1.1766437104	-0.6288120754	-0.8610718455	-0.275747
C	 1.1956454474	-1.8153333236	 0.1708378729	 0.090242
O	 2.3643189212	-2.2749395058	 0.8159116179	-0.294503
C	 2.2777486692	-1.9036409465	 2.2149389444	 0.109423
C	 3.6409389451	-1.4062194163	 2.6830620349	-0.386946
C	 1.187388883	-0.8352495105	 2.2669453632	-0.257506
C	 0.5369679037	-0.8602585989	 1.1101817436	 0.21255
H	 0.9840777869	 1.8917408431	 0.5801160987	 0.118445
H	-0.1923746707	 2.0661848477	-0.7357268345	 0.118056
H	-0.7523023941	 1.8396174162	 0.9267742703	 0.120374
H	-0.9428476089	-0.3022227054	-0.3800180704	 0.086129
H	 0.9461769453	-0.8659581682	-1.9026632786	 0.098535
H	 2.1000151928	-0.0487142391	-0.7957659647	 0.112881
H	 0.5903285257	-2.660068874	-0.1873505855	 0.075096
H	 2.0084967806	-2.8021672383	 2.7955552307	 0.078732
H	 3.9202227096	-0.4927552005	 2.1495188198	 0.116859
H	 3.6268605876	-1.1970074344	 3.7578439381	 0.110695
H	 4.4026637296	-2.1670288594	 2.4905590617	 0.126529
H	 1.116987118	-0.1154412555	 3.0730961001	 0.098951
