17
gdb 90391	2.17842	1.53961	1.28616	1.9707	75.01	-0.2292	0.0422	0.2714	1073.37	0.132832	-421.741748	-421.732839	-421.731895	-421.774829	33.894	
C	-0.2850473141	 1.5086434438	-0.1045597512	-0.428806
C	 0.0230454205	 0.0333640094	 0.0157949364	 0.08517
O	 1.1320733701	-0.433641759	-0.8214023145	-0.297538
C	 1.6814516024	-1.1559192006	 0.2695408899	 0.035106
C	 2.1750942708	-0.2224955911	 1.3675144093	-0.332459
C	 2.782661698	 1.05708767	 1.1488648556	 0.33262
C	 3.3361429073	 2.1147822768	 0.9970571768	-0.428215
C	 0.6919709263	-0.5936173098	 1.2471769094	 0.262825
O	 0.0088262047	-1.2224117387	 2.2640096364	-0.448938
H	 0.5792816208	 2.1221078893	 0.1510238438	 0.147908
H	-0.5927626335	 1.743436364	-1.1285671618	 0.129414
H	-1.1170385543	 1.7655699867	 0.5607643822	 0.115793
H	-0.8623706554	-0.5701779136	-0.2250701822	 0.095633
H	 2.0847932259	-2.146127543	 0.0938046474	 0.120231
H	 2.6117396965	-0.7982683755	 2.1831871612	 0.121482
H	 3.818255604	 3.0488841167	 0.8475569003	 0.194849
H	-0.0887885199	-0.6040907154	 2.997114181	 0.294926
