12
gdb 125211	3.6334	1.64326	1.13956	3.4306	64.77	-0.2615	-0.095	0.1665	965.1755	0.077006	-468.73267	-468.725732	-468.724788	-468.764493	25.165	
C	 0.0631628606	 1.524967714	 0.0200081653	-0.500439
C	-0.0947088852	 0.0521698667	-0.0585218269	 0.270136
C	-1.1111673854	-0.840462585	 0.108666878	 0.211605
O	-2.4005094212	-0.9943632639	 0.3967957626	-0.286372
N	-2.5805233626	-2.5170240516	 0.3199495729	 0.015112
N	-1.5088912949	-3.0526490991	 0.0287773235	-0.160707
C	-0.5187448666	-2.0926066057	-0.1268299805	 0.386411
N	 0.7596055562	-2.0505238996	-0.4212894141	-0.21741
O	 1.0143046801	-0.6869364511	-0.3743250929	-0.200146
H	 0.7999517506	 1.8022085271	 0.7807232676	 0.162059
H	 0.399529384	 1.9364207662	-0.9369720593	 0.162054
H	-0.8932693256	 1.982575402	 0.2788996838	 0.157698
