20
gdb 33193	4.36977	0.84554	0.75547	1.3165	82.1	-0.1775	0.064	0.2415	1556.4202	0.171631	-403.179714	-403.170525	-403.169581	-403.214514	34.043	
C	-0.0959364092	 0.3103345279	 0.788948096	-0.384538
C	-0.1637891794	-0.4508659409	-0.5379037651	-0.183196
C	 0.8931131291	 0.0365923135	-1.527583787	-0.063872
O	 0.8186409883	-0.6262697371	-2.7886654359	-0.275483
C	 1.3743661842	-1.8575928815	-2.8573064459	 0.402575
C	 2.0947026107	-2.6460699994	-1.987325056	-0.288315
C	 2.4174861863	-3.8434860956	-2.7024857645	-0.140352
C	 1.8895781609	-3.7435081822	-3.961559114	-0.098668
N	 1.2485628786	-2.5203376542	-4.0456742826	-0.319297
H	 0.8744131262	 0.1744767104	 1.2792681839	 0.118644
H	-0.2438546113	 1.3860680396	 0.6411437818	 0.116478
H	-0.8677245368	-0.0379794903	 1.4810385993	 0.120936
H	-0.0284845908	-1.5237458174	-0.3668843857	 0.118881
H	-1.1512177464	-0.3260375061	-0.9973220198	 0.106036
H	 0.7388078029	 1.0957429668	-1.7564897883	 0.109415
H	 1.9044428314	-0.0717850904	-1.1127912928	 0.109497
H	 2.3590909429	-2.4099782887	-0.9700798889	 0.089869
H	 2.9766393768	-4.6818795156	-2.3164047003	 0.089149
H	 1.9037435665	-4.4180991772	-4.8011379138	 0.11202
H	 0.7697078192	-2.1448929517	-4.8451890805	 0.260221
