20
gdb 83153	2.4927	1.49178	1.32492	1.5795	78.17	-0.2234	-0.0161	0.2073	1075.7581	0.172009	-403.149897	-403.141602	-403.140658	-403.182902	32.118	
C	-0.3541777646	 1.467199414	 0.076205232	-0.435176
C	-0.0395788831	-0.0108323628	 0.0116127784	 0.013811
C	 0.6313369524	-0.6368028889	-1.1643703618	-0.049114
C	 1.0900869573	 0.1879639175	-2.3651115101	-0.33153
C	 2.2653105636	 1.1170386665	-2.0835145575	 0.395968
O	 2.4073688613	 2.1739869193	-2.6529318378	-0.322417
C	 3.221258378	 0.5924792284	-1.03293589	-0.294546
C	 2.4605470466	 0.3598011424	 0.2865190489	-0.168832
N	 1.3216101366	-0.5544970044	 0.1340976613	-0.113032
H	 0.2781914778	 2.0814581504	-0.5693321119	 0.140129
H	-1.3920917027	 1.631800647	-0.2317675414	 0.126953
H	-0.2547739639	 1.8445191827	 1.1005559929	 0.128054
H	-0.7699913275	-0.6208544072	 0.543067962	 0.088311
H	 0.3399269243	-1.6539986752	-1.4210438971	 0.091493
H	 1.4451288259	-0.5056501786	-3.1398542544	 0.132963
H	 0.2790128189	 0.767551198	-2.8160423408	 0.129498
H	 3.6304793069	-0.3671991609	-1.3750248123	 0.121169
H	 4.0434282507	 1.2983191768	-0.8979389936	 0.121802
H	 3.14540645	-0.0781794595	 1.0208290194	 0.113674
H	 2.1435082615	 1.3273929444	 0.6950027037	 0.110819
