21
gdb 121210	2.6902	0.92942	0.77906	3.8073	79.29	-0.242	-0.0277	0.2142	1541.7705	0.180544	-424.215132	-424.205181	-424.204237	-424.251397	34.826	
C	-0.1316532864	 1.5705924175	-0.0177276301	-0.382905
C	-0.0498541559	 0.0424353689	-0.0551696326	-0.170772
C	 0.7740340817	-0.4845186332	-1.2374751694	-0.205296
C	 0.8384070988	-2.0074858896	-1.2694298184	-0.063719
C	-0.4421642772	-2.7818120127	-1.6624465585	-0.073511
O	 0.2445045062	-3.4874389039	-2.7166368861	-0.266258
C	 1.4442610416	-2.7416088393	-2.5140602857	 0.023432
C	 1.826613282	-1.8532752225	-3.6788735812	 0.141893
O	 1.1468934864	-1.6547751181	-4.6500974517	-0.237022
H	 0.8645371983	 2.0185199623	 0.0681681499	 0.116313
H	-0.5930022094	 1.9642032608	-0.9299374953	 0.120425
H	-0.7266757738	 1.9163059248	 0.8329482278	 0.115577
H	 0.3865542043	-0.3271663907	 0.8821919726	 0.097735
H	-1.0635387009	-0.3765535086	-0.1037808393	 0.103535
H	 0.3430205905	-0.1141490362	-2.1769013716	 0.117258
H	 1.7906081164	-0.0725002659	-1.1795954029	 0.099096
H	 1.2788644071	-2.3829523659	-0.3417512104	 0.088062
H	-0.8522963643	-3.4663440239	-0.9119263375	 0.107031
H	-1.2509183303	-2.1532536771	-2.0576060516	 0.109041
H	 2.3061414673	-3.387653148	-2.2854703181	 0.091141
H	 2.8261936875	-1.3709630586	-3.5537090697	 0.068944
