16
gdb 78204	3.0258	1.28655	1.07561	4.6063	69.13	-0.2676	0.0214	0.289	1113.9349	0.123855	-437.854279	-437.845968	-437.845024	-437.887144	31.191	
O	-0.2485797051	 1.4001517481	-0.0395657116	-0.417761
C	-0.0762822489	 0.0150748466	 0.0520504348	 0.070694
C	-0.4034946556	-0.7708979507	 1.2879432128	-0.116346
C	-1.2755182563	-0.8693145426	 0.0189164073	-0.095446
C	-2.4399724812	-0.1592867013	 0.7409786367	-0.213266
C	-3.6577574839	-0.9304115149	 0.8933489889	 0.272051
N	-4.6421987022	-1.5192405903	 1.0402006193	-0.330554
C	-1.5542789689	-0.1283544386	 2.0608297263	 0.11927
O	-1.9693207512	-1.008135113	 3.0678184151	-0.418242
H	 0.4539148399	 1.8264059918	 0.4626800302	 0.294391
H	 0.771073641	-0.3755217328	-0.5117199818	 0.10606
H	 0.2687790097	-1.4953309766	 1.7305552819	 0.106429
H	-1.3961348398	-1.678086231	-0.6899788368	 0.113496
H	-2.678641366	 0.8250218746	 0.3298837747	 0.136026
H	-1.3810131093	 0.8855882557	 2.4458128124	 0.075886
H	-2.8418297224	-0.7423028452	 3.3800115898	 0.297311
