19
gdb 6189	3.72202	1.51861	1.42704	3.81	71.25	-0.2363	0.0379	0.2742	973.0263	0.1662	-365.12328	-365.115163	-365.114219	-365.155324	31.313	
C	-0.4579032479	 1.6037547217	-0.0635927065	-0.439526
C	 0.0651381397	 0.1668398351	 0.008799156	 0.29652
C	-1.1065729974	-0.8294348747	-0.0323157677	-0.421915
C	 1.0528803813	-0.1439071592	-1.1558233473	-0.194533
N	 1.9568550841	-1.1161320201	-0.5717866981	-0.299508
C	 2.0010054555	-1.1085549758	 0.7981997519	 0.398865
O	 2.7476928798	-1.764458409	 1.4901323601	-0.379892
C	 0.9410329017	-0.1016374856	 1.2548717876	-0.363638
H	 0.3610781119	 2.3292002499	-0.0169879469	 0.113753
H	-1.0084096385	 1.7770575288	-0.9954537814	 0.11396
H	-1.1402221076	 1.8148051026	 0.7665510595	 0.119397
H	-1.7100827781	-0.688188665	-0.9354638122	 0.111734
H	-0.7479481705	-1.8636825117	-0.0229186203	 0.126887
H	-1.7619149369	-0.6934117597	 0.8342521954	 0.116952
H	 0.5346303512	-0.5532466086	-2.029920614	 0.107651
H	 1.5831845364	 0.7651105967	-1.4766752639	 0.098626
H	 2.6581192618	-1.6136000164	-1.0973564057	 0.249187
H	 1.4637218652	 0.8040903906	 1.5855772252	 0.120996
H	 0.3864397682	-0.4893033296	 2.1121870583	 0.124483
