15
gdb 31187	2.78103	1.25916	0.87731	7.3615	71.74	-0.2373	-0.0355	0.2017	1233.3177	0.113326	-453.98546	-453.977155	-453.976211	-454.01913	29.364	
O	-0.1209307995	 1.4049275424	-0.3419399553	-0.427663
C	 0.0163986435	 0.0569884837	 0.0932004013	-0.202746
C	-1.3418215912	-0.567474971	 0.0411712635	 0.285536
C	-1.8090697666	-1.8721205783	-0.0178861675	 0.076225
C	-0.9857476222	-3.0749325528	-0.1070492732	 0.084166
O	-1.3878944931	-4.2142812941	-0.136905063	-0.270521
N	-3.1929615892	-1.8826037574	 0.0123425896	-0.292017
C	-3.547284201	-0.6294761476	 0.0839733961	 0.01345
N	-2.4609805762	 0.2084097119	 0.1146194282	-0.283415
H	 0.7061192826	 1.8645961762	-0.1707549997	 0.300993
H	 0.7126347364	-0.5083927672	-0.541398238	 0.126494
H	 0.4091771393	 0.0183543324	 1.1217987526	 0.122932
H	 0.108458479	-2.8560548594	-0.1505810123	 0.045087
H	-4.5595021255	-0.2538161901	 0.1128501769	 0.140184
H	-2.4422874664	 1.2161718413	 0.1153811809	 0.281296
