21
gdb 98601	4.10763	0.98367	0.91039	2.4208	83.66	-0.2363	-0.0121	0.2241	1384.387	0.182338	-387.060671	-387.051828	-387.050884	-387.095252	33.05	
C	 1.3099549846	 1.7288738444	-0.0120913583	-0.378152
C	 1.4706445563	 0.2190527104	-0.1667247259	-0.280592
C	 0.6989554796	-0.3607160791	-1.3480028112	 0.339269
O	-0.0398423523	 0.3231726986	-2.0240826508	-0.311191
C	 0.9118842712	-1.8381458589	-1.5995043278	-0.051045
C	 0.2188064107	-2.5621836357	-2.7903414672	-0.049384
C	 1.2078584832	-1.8391817105	-3.7561997498	-0.218841
C	 2.0700099332	-2.3204625111	-2.554390917	-0.05397
C	 1.3039598377	-3.6707562882	-2.6418254235	-0.223417
H	 1.6756181298	 2.2534624175	-0.8988330698	 0.128132
H	 0.2575315952	 1.9963837598	 0.1096379327	 0.132915
H	 1.864988946	 2.091547143	 0.8576257874	 0.107914
H	 2.5264090112	-0.064593778	-0.2791341936	 0.119795
H	 1.1340256072	-0.3080142491	 0.7374862103	 0.121677
H	 0.8950941449	-2.3799178485	-0.6456640592	 0.072136
H	-0.8541119769	-2.6971150496	-2.9248838086	 0.079475
H	 1.4008257943	-2.3438806261	-4.7066595007	 0.088464
H	 1.070906188	-0.7677151397	-3.8890552208	 0.121874
H	 3.1400279377	-2.1744278978	-2.3966114067	 0.073031
H	 1.2714242827	-4.2818548824	-1.7352533209	 0.08873
H	 1.4993493258	-4.2775765991	-3.5297459685	 0.093178
