16
gdb 125665	2.43226	1.81474	1.04692	4.6648	78.59	-0.1964	-0.0274	0.169	1090.6749	0.126048	-434.108039	-434.099839	-434.098895	-434.140505	31.353	
C	-0.0236682028	 1.4718828489	 0.0213236672	-0.456957
C	-0.0196031196	-0.026366633	-0.0158051091	 0.221694
N	-0.0234743634	-0.6113979721	-1.1919081032	-0.253623
N	-0.0100483731	-1.9408346867	-1.2095279222	-0.218685
C	 0.0000900049	-2.7494832892	-0.1104625066	-0.082222
C	 0.0001850544	-2.1993507476	 1.1400450842	 0.196758
N	-0.0424762305	-2.8897737298	 2.3304971733	-0.58479
C	 0.0003269285	-0.743673356	 1.2534341025	 0.27823
O	 0.0274526793	-0.1857781505	 2.3568171596	-0.421231
H	 0.8497627594	 1.8415573842	 0.5686683445	 0.140629
H	-0.0232225198	 1.8785327355	-0.9910403666	 0.125482
H	-0.9007592883	 1.8382005131	 0.5652549651	 0.141024
H	-0.010576747	-2.3405552271	-2.1335835079	 0.278271
H	 0.0044502952	-3.8148721578	-0.3094110823	 0.122246
H	 0.3978458894	-3.7954187384	 2.368309368	 0.246901
H	 0.1735004835	-2.2758960735	 3.1079984336	 0.266274
