16
gdb 34834	3.60511	1.19004	0.99711	1.7175	83.71	-0.2375	0.0101	0.2477	1176.4264	0.122948	-363.45411	-363.446197	-363.445253	-363.486355	31.07	
C	-0.0092711551	-1.3220266922	-0.0522257962	-0.408362
C	-0.0009727858	-0.1209373912	 0.007835786	 0.321899
C	-0.0408781131	 1.3230796977	 0.0556898057	-0.174569
C	 0.0087091316	 2.0837047724	 1.4113262039	-0.075411
C	 1.4870841555	 1.6568777317	 1.4564046465	-0.186814
N	 1.3273373718	 2.0774583655	-0.0208140102	-0.155701
C	 0.5327312157	 3.2822413042	 0.5739519485	-0.173115
C	-0.3347483039	 4.0225216403	-0.3163507831	 0.340871
C	-1.0496245177	 4.6760851186	-1.029161	-0.431197
H	-0.0089443233	-2.382750646	-0.1067061365	 0.19805
H	-0.7480779461	 1.7128269764	-0.6799407571	 0.11951
H	-0.7439548819	 2.0934542186	 2.2057829514	 0.082532
H	 2.1876541353	 2.2865442713	 2.0101893709	 0.104991
H	 1.7098971302	 0.5974960004	 1.5781992822	 0.128139
H	 1.2050967477	 3.9612625772	 1.105374572	 0.107749
H	-1.6787334509	 5.2473694948	-1.666531644	 0.201429
