22
gdb 10062	1.83076	1.48941	0.87276	0.2329	87.34	-0.241	0.0604	0.3014	1417.2138	0.197619	-313.063509	-313.052635	-313.051691	-313.10092	37.397	
C	 0.8071300497	-0.1959995001	-1.3161745322	-0.387695
C	-0.0151176055	-0.0664357564	-0.033083543	-0.169876
C	 0.6929508191	-0.6216761509	 1.2253109027	-0.127614
C	-0.1302559763	-0.3273741092	 2.5015991833	-0.169876
C	 0.5747573504	-0.7226464645	 3.8000312221	-0.387696
C	 0.9768181556	-2.0520558084	 1.0909463966	 0.125673
C	 1.1838943434	-3.2341199173	 0.9786089351	 0.008817
C	 1.4466912395	-4.6608189717	 0.843695841	-0.497714
H	 1.0407220425	-1.2434967229	-1.5274506146	 0.128151
H	 0.2628647297	 0.2111929968	-2.1739028677	 0.109046
H	 1.7553680267	 0.3475216378	-1.234870066	 0.110318
H	-0.2491544244	 0.9894671131	 0.1512580779	 0.090553
H	-0.9746808031	-0.5843749498	-0.151328864	 0.100369
H	 1.6536380682	-0.0920842278	 1.3234636223	 0.092454
H	-0.3565755205	 0.7460627679	 2.5155299121	 0.090553
H	-1.0917231416	-0.8496736255	 2.4255142436	 0.100369
H	 0.7981831203	-1.7933182936	 3.8139941737	 0.128149
H	 1.521373901	-0.1826709918	 3.9163288984	 0.110318
H	-0.0480002209	-0.4933872614	 4.6702848873	 0.109047
H	 1.9814523692	-5.0524301862	 1.716267297	 0.145722
H	 0.5165059184	-5.2314003201	 0.7439223036	 0.145213
H	 2.0591618184	-4.8720237579	-0.0400395991	 0.14572
