21
gdb 99741	1.85529	1.39872	1.04176	2.8091	75.01	-0.2545	-0.0314	0.2231	1276.2336	0.180057	-461.382786	-461.372173	-461.371229	-461.418846	38.335	
C	 0.9974480824	-0.3231141054	 1.0364688798	-0.418688
C	 0.013238794	 0.046751455	-0.0745486358	 0.135974
O	 0.5542347236	-0.2086933703	-1.3679363266	-0.453527
C	-1.37990024	-0.6165736794	 0.0707341858	-0.146492
C	-2.262145804	-0.2783690505	-1.1757539707	-0.068079
O	-2.0967096176	 1.0479129113	-1.6220275438	-0.420131
C	-1.2640284158	-2.1311176296	 0.1643077406	 0.396475
C	-2.1087036936	-2.8495754704	 1.1913009786	-0.483232
O	-0.524381949	-2.7381565623	-0.5902851783	-0.334175
H	 1.936250121	 0.2164642109	 0.8867273094	 0.128738
H	 0.6000312766	-0.0531557129	 2.0213302919	 0.10944
H	 1.2205783025	-1.3943919623	 1.0338989027	 0.126807
H	-0.1584999549	 1.1271586068	-0.0426026354	 0.097119
H	 0.5395934675	-1.1724582556	-1.4720612176	 0.293738
H	-1.8631691893	-0.2187391234	 0.9699126523	 0.078949
H	-2.0276296287	-0.994627097	-1.9732515533	 0.107674
H	-3.3199274524	-0.3958306209	-0.9193793944	 0.110064
H	-1.2260148588	 1.0734978468	-2.0399284941	 0.299398
H	-1.807656123	-2.5385010481	 2.1987478133	 0.148839
H	-3.1623282484	-2.567879716	 1.0802416978	 0.145844
H	-1.9963823221	-3.9296157269	 1.0899089276	 0.145264
