16
gdb 42448	4.18254	0.85233	0.81952	1.7925	72.24	-0.2611	-0.0043	0.2568	1422.3141	0.122893	-437.848887	-437.839883	-437.838939	-437.884199	31.705	
O	 0.399976136	 0.4834441201	-1.0562728162	-0.38211
C	 0.1259217066	 1.263628575	-0.175497299	 0.475424
O	 0.9686268599	 1.6309529792	 0.8127867656	-0.241827
C	 2.2969692014	 1.0667104998	 0.7526000376	-0.22375
C	 3.2060978763	 1.9006541646	-0.0201164835	 0.326192
C	 3.9681689289	 2.5858205088	-0.64585171	-0.456816
C	-1.195260706	 1.9347909951	-0.0290610954	-0.130433
C	-1.7958002656	 2.4824219529	-1.2860459958	-0.218035
N	-2.3457397504	 1.2813602394	-0.6709326151	-0.3044
H	 2.622122007	 0.9991676043	 1.7938688101	 0.148155
H	 2.2384470919	 0.0628560767	 0.323778224	 0.165575
H	 4.6412767836	 3.1866677902	-1.2063405112	 0.209903
H	-1.3844261828	 2.4190760366	 0.9217664528	 0.114378
H	-2.4175969705	 3.3699658051	-1.2180206435	 0.130257
H	-1.2096867124	 2.3822587068	-2.1947235308	 0.137084
H	-1.9902015641	 0.4663298955	-1.1705329095	 0.250405
