20
gdb 106606	2.57749	1.51577	1.27202	3.2442	78.49	-0.2365	-0.0088	0.2277	1099.9891	0.171853	-403.146128	-403.137689	-403.136745	-403.179153	32.45	
C	-0.045586179	 1.5705402725	-0.0795472865	-0.390755
C	 0.0427754183	 0.0421024495	-0.0110640937	-0.294116
C	 0.7406812288	-0.4729177257	 1.2241467328	 0.211079
C	 0.8644417944	-2.0078302854	 1.4446893355	-0.277703
C	 1.7100572004	-2.0168575465	 2.7653808224	-0.241039
C	 1.8518454495	-0.4864048817	 2.962642619	-0.121375
N	 2.1123854944	 0.0520960438	 1.586078724	-0.349468
C	 0.4034594953	-0.0387600848	 2.6740933134	 0.460258
O	-0.5058682694	 0.4665387049	 3.2544241159	-0.32608
H	 0.9510064338	 2.0176673749	-0.0406462052	 0.132503
H	-0.5337055795	 1.8895058841	-1.005058697	 0.107524
H	-0.6222479962	 1.9644140788	 0.7622790654	 0.138105
H	-0.963503256	-0.3952966159	-0.0342412353	 0.110166
H	 0.560175832	-0.3483265031	-0.8983833667	 0.097033
H	-0.1074866478	-2.4975272697	 1.5560024276	 0.114359
H	 1.3828570542	-2.4803564873	 0.604264854	 0.103055
H	 1.2007464941	-2.5095274153	 3.5985122339	 0.116874
H	 2.6869612283	-2.4923747881	 2.6396135111	 0.10593
H	 2.449794514	-0.1050270776	 3.7882613802	 0.090355
H	 2.8555915703	-0.4618210674	 1.1097765591	 0.213292
