17
gdb 6591	5.97571	1.30046	1.30038	4.571	74.73	-0.3058	0.0285	0.3343	990.2457	0.143055	-326.704911	-326.697639	-326.696695	-326.736109	28.183	
C	-0.0200407239	 1.4667081727	 0.013808007	-0.50999
C	 0.002322717	-0.0361429439	 0.0002849348	 0.310037
C	 0.629906184	-0.9650112844	-1.0891549865	-0.281027
C	 0.0300825397	-1.9245898982	-0.0165853006	 0.22655
C	 0.6461062687	-0.984018639	 1.063622263	-0.28107
C	-1.226806053	-1.0021213889	 0.0008346856	-0.281128
C	 0.0512042178	-3.3654671729	-0.0293426538	 0.155208
N	 0.0681917328	-4.5219304021	-0.0395476023	-0.353138
H	 0.9963214873	 1.8748002093	 0.0086226373	 0.125689
H	-0.5446196114	 1.8598661519	-0.8635881094	 0.125694
H	-0.5294088076	 1.8439020459	 0.9070075074	 0.125698
H	 0.1453298466	-0.9759133545	-2.0686143929	 0.106205
H	 1.7193181712	-0.9608372615	-1.1751114907	 0.106255
H	 1.73669114	-0.9813006001	 1.1330868424	 0.106277
H	 0.1765160836	-1.0123822723	 2.0499669602	 0.106208
H	-1.8320667717	-1.0316832362	 0.9101734022	 0.10626
H	-1.8457818511	-1.0159240158	-0.8997487037	 0.106273
