16
gdb 70945	3.42766	1.39831	1.12825	3.1037	70.84	-0.2406	-0.043	0.1976	1070.1779	0.122048	-437.777379	-437.769505	-437.768561	-437.809837	29.651	
C	 0.057659165	 1.3971096185	-0.146603641	-0.532472
C	 0.0084200081	-0.0864299174	-0.0185264961	 0.479859
O	 0.5297313537	-0.9310649528	-1.0944078171	-0.357492
C	 0.0737574835	-1.8955071434	-0.1248307496	 0.381233
C	 0.1939796231	-3.3560193746	-0.3499915793	 0.019345
O	 0.6694694691	-3.8657321672	-1.3312606456	-0.240252
C	 0.4958286377	-1.0300834494	 1.1300220704	-0.174607
N	-0.8472778095	-1.0161457309	 1.7865657473	-0.336729
C	-1.1790977486	-1.0436490147	 0.3290277943	-0.174747
H	 1.0911057781	 1.7386920384	-0.2559160678	 0.141873
H	-0.5106610197	 1.7257615304	-1.0216120448	 0.141867
H	-0.3739037931	 1.8541339988	 0.7484691652	 0.149158
H	-0.2062320966	-3.9634668837	 0.4945857985	 0.076359
H	 1.4443755846	-1.0361864449	 1.6683148878	 0.103725
H	-1.0485904772	-1.9179303987	 2.2228133292	 0.219189
H	-2.1934179681	-1.0654804284	-0.0712468014	 0.103691
