20
gdb 85818	1.9999	1.4852	1.35554	3.5119	78.58	-0.2699	0.0251	0.295	1125.9646	0.169743	-403.162714	-403.153029	-403.152085	-403.196659	36.243	
C	-0.454987618	 1.4200735157	-0.0242556186	-0.425599
C	-0.1040032283	-0.0660680199	-0.023808884	-0.028983
C	 1.1127896755	-0.4578596801	-0.9112413353	-0.275991
C	 2.0297627375	-0.5578839336	 0.3592139712	 0.095128
C	 2.9464733744	-1.7762260966	 0.4915483734	-0.461802
C	 2.7712784724	 0.6756512671	 0.593178513	 0.262098
N	 3.3233483588	 1.6676401602	 0.8200371376	-0.359517
C	 0.7014376115	-0.5557424681	 1.2216195137	 0.117788
O	 0.6571784888	 0.1422049819	 2.426847035	-0.420805
H	 0.4286806263	 2.0564064352	 0.0905502617	 0.136423
H	-0.9347308083	 1.6979263181	-0.9680267578	 0.121993
H	-1.1489843236	 1.653683456	 0.7890916707	 0.129508
H	-1.008676988	-0.6508510585	-0.2115654387	 0.078475
H	 1.0062290067	-1.4377305711	-1.3823290553	 0.110766
H	 1.4198207221	 0.2661257013	-1.6680549422	 0.1215
H	 3.758676807	-1.7449793844	-0.2408375812	 0.136692
H	 3.3892798359	-1.824329002	 1.490696369	 0.144494
H	 2.3695057321	-2.6906073096	 0.32477234	 0.123075
H	 0.4505935214	-1.5921712641	 1.4650959284	 0.096882
H	 0.9919644755	 1.0361446423	 2.2845820292	 0.297873
