19
gdb 54316	2.59022	1.45454	1.06661	3.2004	75.72	-0.2466	0.0181	0.2647	1155.5181	0.160281	-419.206194	-419.197346	-419.196402	-419.239983	33.687	
N	 1.1781331592	-0.092731508	-0.1934544909	-0.546392
C	-0.031531459	 0.1607446899	 0.3782027226	 0.364536
O	-0.2263951868	 1.1168683278	 1.1119336878	-0.383844
C	-1.1346291307	-0.8305835974	 0.0647543146	 0.227002
C	-2.0612709002	-1.0871513157	 1.2110968462	-0.252978
N	-2.484318332	-0.2361064805	 0.1011942001	-0.3452
C	-0.8836644909	-1.8947483742	-0.9652809268	-0.126277
C	-2.0200061745	-2.4549789167	-1.7773954049	-0.272682
C	-0.9988173348	-1.5705278887	-2.44222801	-0.271802
H	 1.8916378459	 0.610309481	-0.0861463542	 0.261627
H	 1.2562597457	-0.7405851893	-0.9583973533	 0.266254
H	-2.5537189427	-2.0539122656	 1.2651712948	 0.118639
H	-1.8231966504	-0.6115098621	 2.1569836119	 0.135438
H	-2.3687596951	 0.7352881916	 0.3906547589	 0.247153
H	-0.1083548337	-2.6036958726	-0.6835775665	 0.091727
H	-2.0069024398	-3.5155902407	-2.0012635933	 0.109263
H	-2.998634357	-2.0266559806	-1.5975495915	 0.144467
H	-1.3121997942	-0.5655982961	-2.7038605015	 0.124403
H	-0.2908620792	-2.018624822	-3.131329684	 0.108666
