19
gdb 114273	4.16098	1.16348	1.10307	1.1258	76.92	-0.2286	0.0688	0.2974	1152.371	0.158573	-422.887181	-422.879251	-422.878306	-422.919548	31.329	
O	-0.2203646846	 1.6155930655	 0.1339401517	-0.426799
C	 0.0447311194	 0.2192255855	 0.248247965	-0.10346
C	-1.2714081292	-0.4990417213	 0.0215839037	 0.011598
C	-1.8175763946	-0.5635807917	-1.4728029353	-0.339947
C	-1.4420585487	-2.0482308673	-1.4287365526	 0.376029
C	-1.5120613817	-3.5941175997	-1.5039631867	-0.311703
C	-0.3822157301	-3.130044227	-0.4886636312	 0.024459
O	 0.0580221859	-2.1648095328	-1.4902295339	-0.33209
C	-1.3612060477	-2.0776505572	 0.1008676674	-0.080965
H	 0.6228921901	 2.0763458583	 0.1051930737	 0.285672
H	 0.7877086559	-0.1124580755	-0.4835246478	 0.114112
H	 0.4207155748	-0.0319447632	 1.2542340567	 0.07997
H	-2.0083959636	-0.0579284188	 0.6980705568	 0.087469
H	-2.8941526875	-0.3850452752	-1.5206902606	 0.111671
H	-1.3064068898	 0.0389000155	-2.2265772772	 0.122449
H	-2.4104273301	-4.0705828708	-1.1031543577	 0.102217
H	-1.1356516544	-4.0754532528	-2.4083842433	 0.112119
H	 0.3817806428	-3.7569817887	-0.0190970288	 0.090716
H	-2.2148642968	-2.4520077827	 0.6684699701	 0.076482
