11
gdb 23772	3.34867	2.44053	1.41168	4.9009	56.45	-0.2367	-0.0592	0.1775	770.3799	0.073838	-438.741301	-438.735398	-438.734454	-438.771458	22.194	
F	-0.0028717722	 0.0569315268	 0.0042475849	-0.041127
C	-0.0508037791	 1.3757647131	 0.0113441095	 0.233359
N	-1.1888610347	 1.9569948085	 0.0292845236	-0.283802
C	-1.2211491629	 3.3316577208	 0.0367550491	-0.062295
C	-0.0818340493	 4.0636822949	 0.0255046114	-0.000068
N	 1.1251091703	 3.415069428	 0.006405834	-0.336447
C	 1.2748906619	 2.0290789167	-0.0025503926	 0.305404
O	 2.3556400025	 1.4787111489	-0.0196320514	-0.365963
H	-2.1961860839	 3.7992966518	 0.0519207642	 0.131192
H	-0.057717733	 5.1453767006	 0.0306675165	 0.144697
H	 1.9922373503	 3.9352594699	-0.0022952291	 0.27505
