21
gdb 106352	3.26954	1.19927	1.06808	3.2401	82.42	-0.2314	-0.0028	0.2287	1218.6577	0.183281	-387.110812	-387.10246	-387.101516	-387.143745	32.926	
C	 0.048252045	 1.5253217916	 0.1589103423	-0.387234
C	-0.0552063193	 0.0103354707	-0.0559395462	-0.286324
C	 0.6785373978	-0.4944242701	-1.2824793238	 0.356303
C	 2.2356592567	-0.4132890394	-1.4158553393	-0.272412
C	 2.0278540287	-1.552721158	-2.4670932072	-0.129666
C	 0.8526172573	-2.023562769	-1.5492966139	-0.284927
C	 1.2452837139	-0.7979442436	-3.5303954989	 0.436786
O	 1.3715382746	-0.8125270465	-4.7248323679	-0.336662
C	 0.2333470983	 0.001150767	-2.6782631443	-0.380228
H	 1.0926067746	 1.8429731899	 0.2491912553	 0.11972
H	-0.39820723	 2.0820611053	-0.6710680808	 0.121401
H	-0.4699108836	 1.8253411391	 1.0744849304	 0.116565
H	 0.3412839276	-0.5089172309	 0.8263658915	 0.093061
H	-1.1124121397	-0.2787316843	-0.1291812988	 0.09769
H	 2.6868509617	 0.5241499564	-1.7537943802	 0.102727
H	 2.7479272963	-0.778196267	-0.5219480031	 0.104601
H	 2.8253841936	-2.2090156853	-2.8079360337	 0.080416
H	 1.2177238431	-2.5585384875	-0.6688138913	 0.104333
H	 0.023716214	-2.5714785801	-2.0076613745	 0.101698
H	-0.7979115677	-0.2658978272	-2.932856793	 0.119621
H	 0.3551668871	 1.0776261991	-2.8329404426	 0.122532
