21
gdb 108510	2.73952	1.44222	1.19984	2.2095	77.42	-0.2427	0.076	0.3187	1137.0154	0.183474	-424.220603	-424.212163	-424.211218	-424.253609	32.423	
C	-0.0624309748	 1.5102187326	 0.0766664479	-0.38866
C	-0.168426934	-0.008770368	-0.1063648256	-0.256565
C	 0.717500612	-0.528850428	-1.2251550534	 0.445415
C	 0.3733201505	-0.0452104593	-2.6403126062	-0.129347
O	 0.870560791	-1.0401399832	-3.5266046871	-0.252824
C	 0.6446466457	-2.2945883474	-2.8953904853	-0.097597
C	 0.9414891794	-2.0601866861	-1.4157378855	-0.163545
C	 2.4082609547	-1.7383468956	-1.0731790806	-0.080779
O	 2.1282761185	-0.3306533852	-0.9369308344	-0.329227
H	 0.9788752297	 1.8001622217	 0.2428972605	 0.140851
H	-0.4272157997	 2.0495035324	-0.8038958957	 0.118111
H	-0.6516197968	 1.8426639801	 0.9361253608	 0.113044
H	 0.1214389023	-0.510813903	 0.8237669265	 0.100903
H	-1.2068274043	-0.2982393892	-0.3133194313	 0.095244
H	-0.7194061825	 0.0639970945	-2.7484598199	 0.08172
H	 0.8559998646	 0.90231172	-2.8887492841	 0.121118
H	-0.4007431794	-2.6204511106	-3.0290178324	 0.088957
H	 1.2997474829	-3.030099009	-3.3714738189	 0.110955
H	 0.4197080886	-2.7395200238	-0.7412342883	 0.078856
H	 2.7803404394	-2.1715823426	-0.1366270276	 0.097963
H	 3.130883812	-1.9359974706	-1.8744499293	 0.105406
