21
gdb 113987	3.96518	0.62449	0.57321	0.9169	85.89	-0.2561	0.057	0.3131	1927.2145	0.180254	-387.036382	-387.025947	-387.025003	-387.07283	37.625	
O	-0.1929800298	 1.3901799014	-0.7120442936	-0.420159
C	-0.0167521491	 0.1847037641	 0.0227981168	-0.097947
C	-1.3552149437	-0.5012854123	 0.1029291869	-0.009353
C	-1.8356211701	-1.3902812201	-1.0176611949	-0.284369
C	-1.5060280309	-1.9890218023	 0.3302507244	-0.008313
C	-0.3368219403	-2.9354832802	 0.5091583676	-0.208062
C	-0.7288884302	-4.3936310084	 0.180231432	-0.348904
C	 0.3751918222	-5.330286587	 0.3472512263	 0.290481
C	 1.3058804695	-6.0773878587	 0.4921187417	-0.436587
H	 0.6406852649	 1.8698316263	-0.7000495085	 0.284382
H	 0.7223481533	-0.4680524597	-0.4656847176	 0.083043
H	 0.356072125	 0.3953784764	 1.0385065844	 0.085889
H	-2.1113431957	 0.1209674449	 0.5740834928	 0.090705
H	-2.8716042898	-1.3255797744	-1.3307932781	 0.111589
H	-1.1379598636	-1.5757701693	-1.8293771329	 0.111876
H	-2.3670307005	-2.2587422021	 0.9390386853	 0.082628
H	 0.5007645816	-2.6489017255	-0.1341053206	 0.109556
H	 0.0345842742	-2.8951085609	 1.5401482782	 0.109524
H	-1.5673215552	-4.6978345849	 0.8206451634	 0.127778
H	-1.1027531071	-4.4417686335	-0.8503275154	 0.13425
H	 2.1185988253	-6.7489026439	 0.6167031218	 0.191993
