15
gdb 42843	3.21879	1.8607	1.68885	3.18	63.49	-0.2538	-0.0065	0.2474	830.6167	0.114179	-457.707137	-457.701123	-457.700178	-457.737324	25.039	
O	 0.000345557	 0.0057500974	-0.0090674605	-0.306805
C	-0.0162396875	 1.1872861301	-0.0998130992	 0.479847
C	-1.052957253	 2.3460897767	 0.0434076662	-0.069538
O	-0.02616088	 2.9719311869	 0.8708189933	-0.283294
C	 0.9935622394	 2.3726699092	 0.0154521815	-0.069539
C	 0.9381893392	 3.0830588201	-1.3769147208	 0.062949
C	-0.0723004895	 4.2479676195	-1.2933280807	-0.226512
C	-1.0540987779	 3.0571763063	-1.3497013276	 0.062948
O	-0.059115597	 2.3305205773	-2.1517931381	-0.30298
H	-2.0092296821	 2.2422513315	 0.5552548738	 0.105123
H	 1.9658309622	 2.2938868029	 0.5009551016	 0.105123
H	 1.895689158	 3.1735240021	-1.890030468	 0.097191
H	-0.0687984071	 4.8969283555	-0.4197997053	 0.128011
H	-0.0923612732	 4.811697162	-2.225515172	 0.120285
H	-2.0272795284	 3.1225639825	-1.8364470942	 0.097191
