21
gdb 108678	2.14557	1.44055	0.95793	2.9842	81.42	-0.2281	0.0083	0.2364	1279.6463	0.183108	-424.232523	-424.222986	-424.222042	-424.267423	35.036	
O	 0.6646934236	 0.3176856917	-0.8567873709	-0.427649
C	 0.1004403462	-0.30106659	 0.2920683805	-0.167567
C	-1.3495776138	-0.6622477022	 0.0912377888	 0.210514
C	-2.3786675122	 0.1934674061	 0.1663877764	 0.24324
C	-2.2586502697	 1.657662211	 0.4757465949	-0.220294
O	-1.4584580372	 2.2847711917	-0.5443159506	-0.410821
C	-3.685822294	-0.454474277	-0.2370142097	-0.306107
C	-3.3413222486	-1.9640795951	-0.2629811064	-0.210643
C	-1.7994929534	-2.024182558	-0.3889922755	-0.296349
H	 0.1081530007	 1.0926972289	-1.0241258097	 0.28729
H	 0.6964552358	-1.2002593269	 0.4796846352	 0.101005
H	 0.2034050145	 0.3447591749	 1.180513591	 0.078415
H	-3.253111557	 2.1233365301	 0.5095563688	 0.099381
H	-1.7898772988	 1.8068723398	 1.4603961304	 0.104887
H	-1.3057829809	 3.1999198433	-0.2853633129	 0.29048
H	-4.5085567676	-0.2228374328	 0.450520234	 0.096763
H	-4.0027712918	-0.0879559882	-1.2248436171	 0.109446
H	-3.6465236846	-2.4222320174	 0.6832834109	 0.103009
H	-3.8563185867	-2.5024513467	-1.062268626	 0.098298
H	-1.473432273	-2.1765788241	-1.4278347731	 0.11746
H	-1.3592840913	-2.844095279	 0.190848421	 0.099241
