17
gdb 93992	3.06673	1.37685	0.97321	6.6503	72.57	-0.2462	-0.0083	0.2379	1177.4055	0.13679	-455.212771	-455.203996	-455.203052	-455.246695	30.568	
C	-0.11129545	 1.4257441216	-0.0104502931	-0.343067
N	-0.0282713605	-0.0086228214	 0.1348980767	-0.129951
C	-1.1562532414	-0.8780435204	-0.1307743707	-0.178228
C	-0.5629873098	-2.2742319165	 0.1315063901	-0.18872
N	 0.8708460376	-2.0497445053	-0.0449053449	-0.165493
C	 1.7733723346	-3.0898119428	-0.1770426593	 0.156005
O	 2.9669994314	-2.9995125405	-0.2807965995	-0.273747
C	 1.1824736222	-0.6635959599	 0.0293482791	 0.507727
O	 2.2762667754	-0.1621757902	 0.0141173227	-0.381774
H	 0.8927565158	 1.8310767809	 0.1227868928	 0.172047
H	-0.4813963278	 1.7109627037	-1.0055727354	 0.121999
H	-0.7801392033	 1.8536525565	 0.7439815879	 0.127189
H	-1.9993603778	-0.6611229324	 0.5323741301	 0.123621
H	-1.5074335932	-0.7721933022	-1.1692251293	 0.11356
H	-0.782514605	-2.6061962681	 1.153163956	 0.130311
H	-0.9396585207	-3.0257013761	-0.5659190709	 0.133467
H	 1.2354706626	-4.0614889568	-0.1871506722	 0.075054
