16
gdb 43254	3.50289	1.64063	1.4037	4.4456	75.08	-0.2379	-0.0605	0.1775	923.2284	0.127489	-400.711149	-400.70486	-400.703916	-400.741679	26.052	
O	 0.0395088387	-0.0043392252	 0.1737776212	-0.337599
C	 0.0022753222	 1.1897321538	-0.0052973719	 0.396524
C	-1.1902696969	 2.0921400621	 0.0295957736	-0.221736
C	-0.766671342	 3.3510404999	-0.185840579	 0.129148
N	-0.9667123936	 4.4050299817	 0.7695157234	-0.328082
C	 0.2872823556	 4.0985371183	 1.5644156582	-0.192828
C	 1.3374750014	 3.4941448837	 0.5730182436	-0.066238
C	 1.1949382991	 2.1124563351	-0.1712417821	-0.16637
C	 0.6512167256	 3.3955436953	-0.7361924074	-0.136569
H	-2.0911719617	 1.818514452	 0.5643224953	 0.12529
H	-0.8252393778	 5.3121780402	 0.3275153346	 0.226774
H	 0.6811692697	 5.0232298596	 1.9956213133	 0.118419
H	 0.0172426753	 3.4156879512	 2.3729134725	 0.1357
H	 2.3632256701	 3.8368576046	 0.6668354887	 0.104128
H	 2.1276846382	 1.6770200002	-0.514505892	 0.105221
H	 0.9269882462	 3.8332095875	-1.687703372	 0.108218
