24
gdb 58324	2.58075	0.87855	0.73832	3.5096	86.96	-0.2482	0.0325	0.2807	1645.6008	0.215714	-405.587336	-405.57602	-405.575076	-405.625254	40.55	
C	 0.3033995778	 1.4547091978	-0.1266793742	-0.399173
C	-0.0068530203	-0.0429534652	 0.0314727133	 0.049766
C	 0.4137394894	-0.7841522093	-1.249420273	-0.397987
C	 0.6428812832	-0.6420483373	 1.3059928906	 0.046648
C	 0.263933873	 0.1293923522	 2.578643888	-0.411727
C	 0.2844700232	-2.1370648898	 1.459639226	-0.182556
N	 0.9141515584	-2.7873878206	 2.6008374618	-0.270072
C	 2.087195263	-3.4665703126	 2.5009319554	 0.152352
O	 2.7269147714	-3.6091783549	 1.4799407361	-0.325568
H	 1.385675079	 1.6276706317	-0.1688660025	 0.114267
H	-0.1269472409	 1.8371540568	-1.0578057054	 0.110518
H	-0.1011253395	 2.0560255237	 0.6910276513	 0.113427
H	-1.0979611882	-0.1470021582	 0.139418568	 0.065636
H	 1.5041440407	-0.782551323	-1.3627127039	 0.122844
H	 0.0797112691	-1.8243774354	-1.2679745686	 0.118216
H	-0.0111858749	-0.2925518896	-2.1305235297	 0.108461
H	 1.7340131585	-0.5902366123	 1.1827513045	 0.090352
H	-0.8250450529	 0.1626979705	 2.7124261461	 0.107338
H	 0.6978465623	-0.3442977051	 3.4643683224	 0.102144
H	 0.6286415237	 1.1584013763	 2.5582001295	 0.123394
H	-0.8028538205	-2.2505404068	 1.5547111796	 0.099919
H	 0.6085697124	-2.6960631903	 0.5817681737	 0.142279
H	 0.4817410319	-2.7239526428	 3.5076054331	 0.247919
H	 2.4002404003	-3.8928889557	 3.475486758	 0.071601
