14
gdb 28734	5.14926	0.89462	0.79492	4.6312	67.83	-0.1983	-0.0063	0.192	1357.6431	0.100284	-473.861721	-473.853459	-473.852515	-473.89573	29.346	
N	-0.0116746821	 1.4998816896	-0.0394844926	-0.593611
C	-0.0397842509	 0.1147147781	-0.054945837	 0.384693
C	-0.9656147672	-0.8199763845	 0.2996724347	-0.253637
C	-0.3202170506	-2.0979848843	 0.1352905236	-0.27808
C	 0.9287733742	-1.828140647	-0.3031913019	 0.374818
O	 1.9788288702	-2.5966498629	-0.6860209671	-0.211457
C	 2.707698069	-3.1972843111	 0.3132115576	 0.161528
O	 3.6160547607	-3.9236824124	 0.0753075177	-0.247193
O	 1.1285868433	-0.4788014533	-0.4214200041	-0.186667
H	 0.5560921147	 1.8911819988	-0.7808210016	 0.261166
H	-0.9359495611	 1.9084190846	-0.041280232	 0.259503
H	-1.9752898496	-0.6355922952	 0.6282145198	 0.105026
H	-0.7421131688	-3.0767428111	 0.296577776	 0.122422
H	 2.3239056081	-2.9246487695	 1.3120609568	 0.101488
