19
gdb 76567	2.97478	1.19197	1.18473	1.7921	78.36	-0.2102	0.0269	0.2371	1157.4235	0.15945	-423.010381	-423.001836	-423.000892	-423.043679	32.935	
O	-0.0912753865	 1.3923115915	-0.1358911729	-0.429292
C	-0.052927431	-0.0000993783	-0.098413918	 0.034793
C	-0.3199729421	-0.6732308567	 1.222483513	-0.040185
O	-0.6665690824	 0.1856377162	 2.2832683468	-0.42665
C	-1.3512582878	-0.7813801772	 0.117062032	 0.266323
C	-2.7013671005	-0.0540206096	 0.1986293599	-0.306476
C	-3.6959748058	-0.9488211384	-0.599381603	-0.267723
C	-2.8843398847	-2.1657798041	-0.9719697759	-0.079004
C	-1.6152159491	-2.0672602206	-0.5762792645	-0.143433
H	-0.3859340789	 1.6736076334	 0.7420176971	 0.284827
H	 0.6959528465	-0.4043509947	-0.7734769112	 0.097863
H	 0.230917699	-1.5662456552	 1.5141126904	 0.088349
H	 0.1408122385	 0.3999137406	 2.7643437229	 0.296649
H	-3.0160186143	 0.0586273851	 1.2391212176	 0.117721
H	-2.6223792471	 0.9506765557	-0.2249785539	 0.113879
H	-4.5785863763	-1.2129433466	-0.0040540011	 0.104856
H	-4.0778905077	-0.4391092715	-1.4934374757	 0.108075
H	-3.3043020228	-3.0056317227	-1.5143183067	 0.091131
H	-0.8423248169	-2.8104094769	-0.7419421569	 0.088296
