21
gdb 108306	3.16242	1.20919	1.04853	2.4874	77.96	-0.2422	0.0629	0.3051	1231.2178	0.182332	-424.19245	-424.183464	-424.18252	-424.226426	34.16	
C	-0.6037611112	 1.3600018993	-0.0465428614	-0.413121
C	 0.0777716653	-0.0006924474	-0.0176213582	 0.03659
C	 1.3771228983	-0.202088975	-0.8698351383	-0.296985
C	 2.112923691	-0.7031503891	 0.3946879086	 0.447531
C	 2.9745740782	-1.9406781628	 0.3623116223	-0.152051
O	 4.1840150881	-1.6770156803	-0.327485435	-0.420106
O	 2.8192652756	 0.3836934605	 1.0590090356	-0.343576
C	 1.7123653752	 0.5995405882	 1.9696298963	-0.089071
C	 0.8450852855	-0.454815243	 1.2645175278	-0.176274
H	 0.1012496335	 2.1734446072	 0.1538342188	 0.122546
H	-1.0440756406	 1.5481117086	-1.0317363571	 0.119174
H	-1.408529312	 1.4211391107	 0.6948490709	 0.114007
H	-0.6569157876	-0.7711900628	-0.2724383959	 0.077108
H	 1.2855165437	-0.9388726297	-1.6717974532	 0.103311
H	 1.8154508565	 0.7123366664	-1.2760487632	 0.108334
H	 3.1637220741	-2.2823474061	 1.3931079571	 0.084155
H	 2.4697146328	-2.7514607523	-0.1739953204	 0.104298
H	 4.5601719886	-0.8926889591	 0.0909389539	 0.2952
H	 1.9872105541	 0.3348384202	 2.9985656579	 0.102243
H	 1.3641350025	 1.6385753526	 1.9558444787	 0.10323
H	 0.3717284484	-1.2097241058	 1.8926996746	 0.073458
