17
gdb 50498	4.50509	0.85332	0.76142	2.0282	74.64	-0.2578	-0.0384	0.2194	1423.2889	0.137137	-418.025693	-418.017185	-418.01624	-418.060308	30.415	
O	-0.1902754852	-0.0082070907	-0.1658466722	-0.240777
C	-0.0173788295	 1.1619053018	 0.0496837161	 0.153391
C	 1.318171039	 1.866870652	 0.019447714	-0.065492
C	 1.4051335272	 2.9141672087	-1.1319962643	-0.203704
N	 2.366408638	 3.9297618269	-0.6996207314	-0.2948
C	 2.0959062489	 4.099012393	 0.7375440713	-0.084806
C	 1.5741398309	 2.7198289728	 1.2884585748	-0.279478
C	 3.2675060429	 4.5987543343	 1.4542235481	 0.256627
N	 4.1984388923	 4.9697305355	 2.0291610582	-0.310921
H	-0.8758237753	 1.8395670934	 0.2795332111	 0.073218
H	 2.0962888641	 1.1107993356	-0.1097834944	 0.102683
H	 1.7048114235	 2.475822195	-2.0852446478	 0.132736
H	 0.428184118	 3.3944946607	-1.2764753767	 0.118536
H	 3.3101668115	 3.5713757012	-0.8171376912	 0.238869
H	 1.2986094487	 4.8447069591	 0.8451881018	 0.137858
H	 0.6615074766	 2.8706025175	 1.8732551735	 0.122795
H	 2.3063500485	 2.2444053132	 1.9423625793	 0.143262
