15
gdb 32317	2.72488	1.49437	0.97088	0.562	72.05	-0.2333	-0.0506	0.1827	1133.214	0.113625	-453.970414	-453.962447	-453.961503	-454.003291	29.061	
O	-0.004883592	 1.4389667098	 0.0066493863	-0.420383
C	 0.0051382443	 0.0242854267	 0.0024109112	-0.161092
C	-1.4082373376	-0.4779436545	 0.0124761762	 0.169754
C	-2.4946861364	 0.3230239699	 0.0235804048	-0.082104
N	-3.8013856758	-0.1590799585	 0.032795209	-0.280857
C	-3.9265876176	-1.4266091095	 0.0302228054	 0.132562
O	-2.9313317989	-2.337593325	 0.0195825982	-0.215175
C	-1.5952013262	-1.9179570507	 0.0098691419	 0.345957
N	-0.6490488709	-2.761813856	-0.0002162289	-0.543399
H	 0.9064762698	 1.7429073314	 0.0007446556	 0.295818
H	 0.5180973729	-0.3845365295	-0.8824231338	 0.121
H	 0.5324834638	-0.3897372769	 0.8762925259	 0.121004
H	-2.3870477013	 1.3999955319	 0.025801142	 0.144102
H	-4.8975945068	-1.9121134268	 0.0367116339	 0.145714
H	-1.0033438975	-3.7180281622	-0.0000514477	 0.227101
