18
gdb 74527	4.38	1.38959	1.28921	1.0834	77.07	-0.2473	0.012	0.2593	1031.2387	0.149138	-401.886551	-401.879542	-401.878598	-401.917722	28.521	
C	-0.0033681679	 1.4431053472	-0.150222296	-0.484888
C	-0.0629425664	-0.0332376396	 0.0233205749	 0.379249
N	-1.10173819	-0.7780872909	-0.107454815	-0.406804
C	-0.5139585601	-2.0984742503	 0.0025211872	 0.348335
C	-0.6058229279	-3.5425390719	 0.5769027309	-0.309279
C	 0.8945496281	-3.3332791082	 0.0853827326	-0.110319
C	 0.3077457737	-2.7020434742	-1.1925168723	-0.254206
C	 0.7726704062	-1.939406333	 0.7784410661	 0.102245
O	 1.1645468756	-0.6222815247	 0.3372642294	-0.292364
H	 0.6832951914	 1.6980021455	-0.9642712049	 0.147967
H	-0.997311804	 1.8250477883	-0.3811841042	 0.153698
H	 0.3786762853	 1.919758496	 0.7577216242	 0.145577
H	-0.7649314348	-3.6373645187	 1.6540837165	 0.104682
H	-1.1792544508	-4.2796974632	 0.0119903976	 0.10857
H	 1.6988343458	-4.0632704294	 0.1675554153	 0.084551
H	-0.2354175951	-3.368446941	-1.8651257603	 0.095767
H	 0.9480267469	-2.0058907735	-1.7348662434	 0.108206
H	 0.7470057142	-1.9441696485	 1.8725221214	 0.079011
