18
gdb 51924	6.61611	0.47144	0.45817	1.1343	85.05	-0.2364	-0.0306	0.2058	2305.7985	0.145831	-401.899471	-401.889557	-401.888612	-401.937457	33.447	
O	-0.1357436722	-0.0737444424	-0.5864993006	-0.230683
C	 0.1149610089	 1.0317769803	-0.1838872795	 0.155899
C	 1.4158780677	 1.7662984968	-0.4199445511	-0.260089
C	 1.1777916534	 3.1842285122	-0.9924397807	-0.366579
C	 2.4074229502	 3.9538069124	-1.126865168	 0.012141
C	 3.4431364607	 4.5634506325	-1.2259828581	 0.151379
C	 4.6556023646	 5.3220537719	-1.3532412789	-0.15981
C	 5.8534704386	 4.7107008602	-2.0055803507	-0.226283
N	 5.1150594721	 5.7747924005	-2.6906467942	-0.305461
H	-0.630874677	 1.6047931432	 0.4178479027	 0.072668
H	 1.9260973954	 1.8619086851	 0.5479609285	 0.13509
H	 2.0498662781	 1.1705934339	-1.0805512969	 0.133579
H	 0.6851967586	 3.1023636972	-1.969876159	 0.144371
H	 0.4748983327	 3.7246893885	-0.3441504467	 0.137369
H	 4.8249200773	 6.0627726062	-0.5757866235	 0.116944
H	 6.8439538847	 4.9894316355	-1.6573354953	 0.126313
H	 5.7591687799	 3.6887899085	-2.3604188482	 0.123235
H	 4.5074130963	 5.3681539374	-3.3981048697	 0.239918
