18
gdb 37632	2.84673	2.20785	1.99877	1.0387	71.81	-0.2354	0.0832	0.3186	804.0958	0.15261	-401.917729	-401.912036	-401.911092	-401.947397	25.062	
C	-0.0252106361	 1.5676025668	-0.0496834403	-0.233095
C	 1.4731603522	 1.8477724114	-0.026655153	-0.008597
C	 2.1685302816	 0.9962241716	 1.095651762	-0.07617
C	 1.2069208992	 0.3731048071	 2.1067983359	-0.091829
O	 0.1832507769	-0.3638494209	 1.4347162827	-0.278266
C	 0.0334793379	 0.0311385295	 0.0672112313	 0.084609
C	 1.2976930756	-0.2928995126	-0.7427388381	-0.05296
C	 2.5565650765	 0.0464994727	-0.0318659861	-0.032954
N	 2.0398681525	 0.9472071045	-1.1163217959	-0.156713
H	-0.5932699059	 2.0216796894	 0.766673758	 0.108654
H	-0.4533601982	 1.8845311292	-1.0061970618	 0.112052
H	 1.7876999191	 2.8856149443	-0.127770666	 0.078236
H	 3.0053497867	 1.5016334131	 1.5786772969	 0.080384
H	 1.7298118912	-0.3270940333	 2.7693303779	 0.106663
H	 0.7576244226	 1.1539661621	 2.7403694137	 0.091587
H	-0.8539876319	-0.4901135987	-0.2921688163	 0.081752
H	 1.2977994617	-1.0743349015	-1.4929382943	 0.09437
H	 3.4765312183	-0.5206515646	-0.1313562565	 0.092277
