16
gdb 124197	5.00869	0.79721	0.72152	5.1923	78.96	-0.2557	0.0015	0.2572	1548.0909	0.124487	-396.900684	-396.891869	-396.890925	-396.936992	29.936	
C	 0.1099274948	 1.4188926728	-0.5386364543	-0.498146
C	 0.0070153173	 0.0249482858	-0.1338659508	 0.071036
C	-0.0825155515	-1.1237193432	 0.2128155855	 0.059379
C	-0.1672000953	-2.5186296379	 0.6225944783	-0.293448
N	-1.4121600176	-3.1627517106	 0.2071335999	 0.074093
C	-2.0676827562	-3.0953175707	-0.9747216637	-0.087526
C	-3.1245887363	-3.9592362088	-0.8182131114	-0.066131
N	-3.0629580159	-4.5037182136	 0.4279374713	-0.190899
N	-2.0237593402	-4.021932806	 1.0481161008	-0.14265
H	 0.7897115479	 1.5394956603	-1.3887261004	 0.153891
H	-0.8681022336	 1.8144693717	-0.8326394796	 0.158055
H	 0.4855575546	 2.0394533803	 0.2818559936	 0.158202
H	 0.6807935853	-3.086123705	 0.21862814	 0.156223
H	-0.1353125616	-2.6216762255	 1.7112222573	 0.172059
H	-1.7433512491	-2.4553317252	-1.7769399484	 0.150684
H	-3.9122210527	-4.2105478643	-1.5097309181	 0.125178
