13
gdb 130173	3.64438	1.60498	1.11586	2.4731	65.68	-0.2184	-0.0102	0.2083	981.4421	0.092467	-448.904052	-448.897216	-448.896272	-448.93509	26.318	
N	-0.0501818705	 1.3867961774	 0.166640444	-0.585708
C	 0.0501833221	 0.0097411997	 0.0440727592	 0.212443
N	-1.0336484072	-0.7554104105	 0.0171302036	-0.294571
N	-0.5802449953	-2.0693507972	-0.0191421456	-0.373194
C	 0.7568354703	-2.0804431845	-0.0298602016	 0.548601
C	 1.2358769297	-0.7871479319	 0.010876825	 0.095019
C	 2.6404390084	-1.0003487248	 0.0071984425	-0.137284
N	 2.9561268041	-2.2729005779	-0.0346302994	-0.14464
O	 1.7095303686	-3.0033399012	-0.0590466174	-0.256077
H	 0.6299526214	 1.9002776912	-0.3761889206	 0.252761
H	-0.9899060881	 1.7174162235	-0.0107269767	 0.257946
H	-1.2438729469	-2.822148362	-0.0260930047	 0.284905
H	 3.4551211033	-0.2894782418	 0.0349190517	 0.139799
