23
gdb 120553	5.89439	0.64725	0.62669	0.2658	84.51	-0.24	0.0821	0.3221	1891.4885	0.203522	-425.401115	-425.390689	-425.389745	-425.437428	37.345	
C	 0.6836217452	 1.0221876884	-0.3543073829	-0.384482
C	 0.0689348989	-0.2824361468	 0.1241276986	-0.040821
O	-1.290000911	-0.3105934459	-0.2710986838	-0.252124
C	-1.9580181413	-1.4884048957	 0.0878558062	 0.170583
C	-2.4090213827	-1.675931277	 1.5686291956	-0.278757
C	-3.7814285283	-2.1537141251	 1.0432662451	 0.130308
C	-3.4392707293	-1.5211609776	-0.3399917645	-0.292702
O	-3.8070144447	-3.5658611945	 1.0359755984	-0.248145
C	-5.007489534	-4.0987370798	 0.5270716866	-0.235799
H	 1.7377509026	 1.0768063175	-0.0662366756	 0.113184
H	 0.6154397454	 1.1011068896	-1.4430669214	 0.125819
H	 0.1593368846	 1.876526618	 0.0834220218	 0.124938
H	 0.6051165401	-1.1448358085	-0.3070753039	 0.085602
H	 0.1521581636	-0.3678940285	 1.2198474808	 0.08946
H	-1.4064338655	-2.3701934323	-0.2699331002	 0.071517
H	-1.8723206567	-2.3890491226	 2.1968937191	 0.106797
H	-2.483479787	-0.7091761413	 2.073909972	 0.105023
H	-4.6759091963	-1.7641358109	 1.5493724259	 0.062076
H	-3.8269810083	-0.5024425673	-0.4260064809	 0.110652
H	-3.7025744916	-2.0877140226	-1.2356439114	 0.102451
H	-4.9297617221	-5.1873285792	 0.5837339385	 0.125894
H	-5.8776207705	-3.7728471479	 1.1189939754	 0.103144
H	-5.181530031	-3.8124070603	-0.5210906094	 0.105381
