19
gdb 83168	2.49552	1.49039	1.39543	4.3469	74.88	-0.2587	0.0159	0.2746	1048.1234	0.160429	-423.057583	-423.049268	-423.048323	-423.090731	31.255	
C	 0.0042539714	 1.713406545	 0.0973883086	-0.43606
C	 0.0168305477	 0.1974941971	 0.0666050624	-0.014364
C	 1.2075140289	-0.6731656036	-0.2731980029	-0.075729
C	 2.6175547717	-0.1469357114	-0.4108381273	-0.093817
O	 3.0112308908	 0.8383733824	 0.5576043951	-0.229069
C	 2.5830382013	 0.8125091683	 1.84425876	 0.406016
O	 3.0527151292	 1.5937274902	 2.6259452735	-0.329135
C	 1.5211001566	-0.2042766148	 2.2310149778	-0.354008
C	 0.6285457264	-0.7115894781	 1.1162726501	-0.068907
H	 0.9343698848	 2.1541149915	 0.4554038152	 0.153258
H	-0.1725695172	 2.1076101667	-0.9094938353	 0.12136
H	-0.8087487196	 2.0750175023	 0.7362518188	 0.122367
H	-0.911892264	-0.2069537953	-0.330533315	 0.090801
H	 1.0274990252	-1.5190939666	-0.9313369155	 0.093081
H	 3.3243755875	-0.9858711466	-0.3503193228	 0.117002
H	 2.7728878353	 0.3422178931	-1.3775564501	 0.127113
H	 2.0625918564	-1.0572149421	 2.6631785163	 0.138438
H	 0.9568467127	 0.2424896866	 3.0544860595	 0.140882
H	 0.037872515	-1.5786411345	 1.3971322617	 0.09077
