14
gdb 131968	2.90434	1.6577	1.06235	2.2392	69.74	-0.2782	-0.0913	0.1869	1038.2456	0.101942	-469.940117	-469.932598	-469.931654	-469.972685	26.987	
C	-0.0339305637	 1.4502697957	-0.0163814965	-0.318193
N	-0.0118507592	-0.0049728776	 0.0623936291	-0.042802
N	-0.0312787442	-0.7149817262	-1.0706139785	-0.235368
C	-0.004021824	-2.0023484316	-0.7034944761	 0.008468
C	 0.033658004	-2.1426557113	 0.6868312834	-0.273037
C	 0.0273989921	-0.8370486742	 1.1421163949	 0.478293
N	 0.0561993061	-0.3849971076	 2.5014806342	 0.350801
O	 0.0902530643	-1.2507524121	 3.3669821755	-0.352709
O	 0.045034464	 0.8274331106	 2.7091903864	-0.382255
H	 0.857881526	 1.8720009127	 0.4486233173	 0.161639
H	-0.0648227373	 1.6915448552	-1.0778135606	 0.159902
H	-0.9116709731	 1.847628204	 0.4945864787	 0.161643
H	-0.0129179486	-2.770821334	-1.4612138722	 0.133855
H	 0.0615241436	-3.0301215438	 1.2945303642	 0.149764
