19
gdb 1658	4.59986	1.56233	1.41241	2.4591	67.7	-0.2378	-0.0066	0.2313	970.1419	0.168905	-310.954565	-310.945391	-310.944447	-310.988708	31.937	
C	-0.1412398858	 1.5304719386	 0.0571989969	-0.37609
C	 0.1164625637	 0.0275750799	-0.0024091648	-0.285189
C	 0.7437838115	-0.4392911001	-1.308616926	 0.39167
O	 1.1153079188	 0.3418084463	-2.1558942641	-0.318622
C	 0.8596105944	-1.9540525267	-1.5120505796	-0.058405
C	-0.3698279864	-2.4273767878	-2.3151318245	-0.385585
C	 2.1660236313	-2.3145928616	-2.2271521843	-0.384338
H	 0.7843531312	 2.0881625111	-0.1043100724	 0.134164
H	-0.843354729	 1.8376959796	-0.7226703343	 0.127821
H	-0.5566760925	 1.8161760186	 1.0276439862	 0.108343
H	 0.791815941	-0.290272743	 0.8058722272	 0.123544
H	-0.8045821069	-0.5482414064	 0.1627843043	 0.118278
H	 0.8303896742	-2.437429046	-0.5273342718	 0.074097
H	-0.3824534028	-1.9543464998	-3.3019686231	 0.135662
H	-0.3384997021	-3.5122711582	-2.4546332269	 0.118838
H	-1.3094645927	-2.1818407879	-1.8093744381	 0.115111
H	 3.0386693819	-2.0470315065	-1.6232280307	 0.113636
H	 2.2108294701	-3.388676643	-2.4318822644	 0.107688
H	 2.2377038298	-1.7725355969	-3.1733715795	 0.13938
