13
gdb 20470	6.49406	1.42415	1.26167	3.2596	59.72	-0.252	-0.0068	0.2452	909.31	0.097365	-394.751119	-394.74474	-394.743795	-394.782329	23.032	
C	 0.9342740455	 1.0440113121	-0.0269665458	-0.169499
O	 0.1536071206	 0.1592303436	-0.8298445241	-0.232833
C	-0.4113965523	 0.6195683405	 0.400821233	-0.02203
C	-0.6171515869	-0.408120176	 1.438691609	 0.313454
C	-0.1489823403	-1.7012971909	 1.4876208527	-0.166356
N	-0.6483093874	-2.1754604538	 2.6520006506	-0.153735
N	-1.3867271721	-1.2505022484	 3.2916946545	-0.108162
N	-1.3700178768	-0.1782246638	 2.5540113356	-0.2635
H	 1.8050528192	 0.5987413308	 0.4512355961	 0.116703
H	 1.078242996	 2.0434193321	-0.4348619996	 0.123754
H	-1.2266833427	 1.3345014613	 0.3016432815	 0.114882
H	 0.4503225006	-2.2877315446	 0.8134369488	 0.162041
H	-0.5492700334	-3.0926157931	 3.0574487077	 0.285281
