20
gdb 89284	2.27461	1.77881	1.19035	3.6704	79.17	-0.2331	0.001	0.2342	1104.1552	0.170056	-403.155148	-403.146413	-403.145468	-403.188193	33.71	
C	-0.3226619312	 1.4943741297	 0.0150560823	-0.402232
C	 0.0506760633	 0.025088732	 0.0015349233	 0.05353
C	 1.2017824075	-0.4679123842	-0.9283025749	-0.325166
C	 1.8090146815	-1.209737217	 0.3014618803	 0.376743
C	 1.7848758616	-2.7213835963	 0.2774210788	-0.471505
C	 2.9607444055	-0.505688047	 1.0625844149	-0.442478
C	 1.8334307077	 0.2871255431	 1.7608902909	 0.40129
O	 1.7789926814	 1.2613194257	 2.4563346754	-0.333868
N	 0.8036711049	-0.5121563681	 1.1985269253	-0.185682
H	 0.5549224496	 2.1370798659	 0.1231301309	 0.133023
H	-0.8264726141	 1.7515780312	-0.9227789946	 0.117448
H	-1.003231119	 1.716691461	 0.8419632557	 0.139314
H	-0.8509188809	-0.5830795738	-0.1240074595	 0.091727
H	 0.9096726054	-1.0999574079	-1.7699681188	 0.107212
H	 1.8276797146	 0.3487426483	-1.3006126038	 0.107982
H	 2.554439998	-3.1062216354	-0.4014398243	 0.122407
H	 1.9724703366	-3.1303984607	 1.2750404744	 0.126179
H	 0.8153303411	-3.0966362747	-0.066079006	 0.122665
H	 3.547796504	-1.1562036545	 1.7169325224	 0.12983
H	 3.6402477126	 0.1198260925	 0.4792141974	 0.131581
