16
gdb 78414	3.25372	1.35955	1.20613	4.2412	67.93	-0.237	0.0231	0.2601	1038.2835	0.124773	-437.847827	-437.840481	-437.839537	-437.879498	29.053	
O	-0.0143713482	 1.2857569985	-0.1095845268	-0.435492
C	-0.0238901051	-0.1099570229	-0.0353653248	 0.076159
C	-0.4695659406	-0.6914929906	 1.2866239781	-0.124261
C	-1.4029468191	-0.6705267332	 0.0619723226	-0.065899
C	-1.4199188457	-2.2206858219	 0.0327874221	-0.209746
C	-0.4899224053	-2.2418764855	 1.2741217522	-0.004544
N	 0.4893410639	-2.9722158584	 0.4616206407	-0.324713
C	-0.2554491271	-2.9373699687	-0.7108530898	 0.403779
O	-0.0205943336	-3.3153253499	-1.8250920276	-0.354789
H	 0.7897217598	 1.6006974238	 0.3164389999	 0.289142
H	 0.7380313822	-0.6062110929	-0.6366078627	 0.101669
H	-0.5045429834	-0.0722348653	 2.1746124228	 0.093324
H	-2.2612820028	-0.0402561542	-0.1284261312	 0.109696
H	-2.3969355166	-2.698284621	 0.033618554	 0.103878
H	-0.7757843832	-2.7273807545	 2.2072024328	 0.09501
H	 1.481768265	-3.1216658032	 0.5808341577	 0.246787
