15
gdb 127729	4.23568	0.977	0.88654	2.6842	73.05	-0.2681	-0.0255	0.2427	1311.4447	0.112276	-412.944029	-412.935441	-412.934497	-412.979298	29.75	
C	 0.0538574024	 1.4386922997	 0.029143836	-0.318876
N	-0.0035436295	-0.0095821657	 0.030924926	 0.154618
N	-0.2232348956	-0.7189465971	-1.0681131911	-0.125826
N	-0.211851714	-1.9749885161	-0.6967981497	-0.252143
C	 0.0189980507	-1.9750559469	 0.6372011238	 0.391252
C	 0.1119346479	-3.2262507224	 1.4619188874	-0.43127
C	 1.485983134	-3.5908532763	 1.8005332696	 0.310356
C	 2.6145817265	-3.8914594889	 2.0790950887	-0.453603
N	 0.1514736458	-0.7447119549	 1.1239297531	-0.29435
H	 1.0323289777	 1.7691042265	 0.3833613475	 0.164811
H	-0.107849819	 1.7679334081	-0.9963429465	 0.17404
H	-0.7233777101	 1.8399898572	 0.682704501	 0.162775
H	-0.4707892514	-3.0937208294	 2.3806332896	 0.154589
H	-0.3587160732	-4.0341174261	 0.8919737399	 0.162092
H	 3.6129784078	-4.1571987477	 2.3239606647	 0.201535
