17
gdb 22984	2.91995	1.14523	0.91471	1.9312	73.24	-0.2493	0.0007	0.25	1266.3679	0.134576	-455.103162	-455.094026	-455.093082	-455.137899	32.709	
C	-0.2241348582	 1.4859212078	-0.03651264	-0.49937
C	-0.0285062534	 0.0041976283	 0.1120182673	 0.34767
N	 0.1187399422	-0.6394778627	 1.2055321136	-0.169598
O	 0.0959895688	 0.1920364932	 2.331678656	-0.392532
C	 0.0043921255	-0.8128183215	-1.1525589027	-0.217421
C	-0.0901866813	-2.3489712458	-1.0755876357	-0.102632
O	-1.3355420788	-2.3137158525	-1.8512720504	-0.251148
C	-1.3121267394	-0.9422605056	-1.9132135309	 0.444363
N	-2.1155464494	-0.1228059895	-2.417667055	-0.545686
H	 0.708243402	 1.9582166974	-0.3705338505	 0.135708
H	-0.9835118054	 1.6802184166	-0.7995973108	 0.172114
H	-0.5172731027	 1.9385433928	 0.909753772	 0.15449
H	 0.180642779	-0.4416224402	 3.0517442362	 0.307475
H	 0.805306723	-0.4503304586	-1.8064352955	 0.120304
H	 0.6812211606	-2.9100038285	-1.6062572273	 0.120349
H	-0.259723189	-2.7521721994	-0.0783565958	 0.144532
H	-2.9165537133	-0.5924575318	-2.8429702504	 0.23138
