19
gdb 79934	2.82189	1.64583	1.50388	1.3646	80.51	-0.2291	-0.0001	0.2289	979.3593	0.160709	-385.837132	-385.829603	-385.828659	-385.868899	29.925	
C	-0.0677772887	 1.5899596682	 0.0623098757	-0.410917
C	 0.0896520884	 0.0848358072	 0.0319220036	-0.002592
C	 1.3745038758	-0.6659080792	-0.2846760082	-0.099442
C	 2.6248556199	 0.1449589763	-0.1144473759	-0.19995
C	 2.8446371447	 0.3528681726	 1.1837275041	 0.149696
C	 3.0418907303	 1.4589901516	 2.1924913384	-0.150295
O	 1.7367483002	 1.1050898187	 2.7454677336	-0.308678
C	 1.7754468828	-0.2153824682	 2.0647815603	 0.113129
C	 0.7219491445	-0.7508453378	 1.1206559001	-0.115843
H	 0.8026256833	 2.0945672103	 0.4782818644	 0.134687
H	-0.2437857806	 1.9755437899	-0.9483714645	 0.108497
H	-0.9292767181	 1.8649177514	 0.6794913408	 0.121485
H	-0.7820570554	-0.4141777661	-0.3880675233	 0.088771
H	 1.3253588156	-1.4948168271	-0.9835056794	 0.086795
H	 3.1170879143	 0.6417644251	-0.9430602496	 0.100326
H	 3.8386208143	 1.3005017619	 2.9314823728	 0.106079
H	 3.0782655329	 2.4892054232	 1.8242169424	 0.116613
H	 2.0697327634	-0.9705820122	 2.8051785505	 0.078415
H	 0.1989654224	-1.653106236	 1.4150629442	 0.083225
