17
gdb 44047	2.61292	1.79752	1.60877	3.5901	72.48	-0.2285	0.0185	0.2471	923.881	0.137083	-417.923672	-417.916459	-417.915514	-417.955071	28.906	
N	-0.006112407	 1.1585106322	-0.4850003602	-0.548044
C	-0.0325873657	-0.0254136934	-0.0848004406	 0.396699
O	 1.0098857151	-0.8397267923	 0.4064368821	-0.309359
C	 0.0655650873	-1.9220448617	 0.6479064575	 0.352035
C	-0.6000190777	-1.9948071476	 2.0447000691	-0.296227
C	-1.8520609867	-1.2488359643	 1.4375288007	-0.298753
C	-1.075392055	-1.1236106397	 0.0897678786	 0.141325
N	-1.2226597885	-2.0507759947	-1.0569350687	-0.369742
C	-0.1786304387	-2.9632902867	-0.4716684046	-0.242931
H	 0.9374441829	 1.5491872838	-0.4477571704	 0.231246
H	-0.7853802881	-2.9991010646	 2.4318124649	 0.111996
H	-0.0551349942	-1.421468162	 2.7962113385	 0.129655
H	-2.7413739105	-1.8775066519	 1.3528839312	 0.112604
H	-2.1336215822	-0.3077774944	 1.9122512972	 0.129534
H	-2.1443112592	-2.4517729466	-1.1825137971	 0.22716
H	 0.6613565046	-3.1446186435	-1.148359831	 0.126066
H	-0.5485848264	-3.9250044926	-0.0959063871	 0.106736
