23
gdb 53645	3.93241	0.58633	0.57406	1.4106	91.77	-0.2369	0.0617	0.2986	2078.2023	0.201531	-388.281004	-388.269146	-388.268202	-388.31954	42.093	
C	-0.0394566933	 1.5289848865	 0.12391537	-0.497364
C	 0.0008032489	 0.0740102559	 0.0732257308	 0.115843
C	 0.0471420618	-1.1287912856	 0.0314174024	 0.016663
C	 0.0685430174	-2.5864562988	-0.0214478804	-0.370958
C	-1.3385938187	-3.1955164748	-0.187105932	-0.19351
C	-1.3866524024	-4.7332132087	-0.0503247365	 0.34646
C	-2.8431811752	-5.212269358	-0.1297509219	-0.423508
C	-0.5380145463	-5.438966491	-1.1117124903	-0.393651
O	-0.8173850794	-5.1310739005	 1.2055883312	-0.456222
H	 0.657266443	 1.9734569154	-0.5957962078	 0.144639
H	-1.0402154904	 1.9097570199	-0.1096368037	 0.143368
H	 0.2310400679	 1.9030927606	 1.1178335709	 0.144002
H	 0.7149040585	-2.9098635275	-0.8464774027	 0.123973
H	 0.5161629284	-2.9946823736	 0.8922845788	 0.135136
H	-1.9965344885	-2.7600943172	 0.5763471151	 0.091799
H	-1.7577770018	-2.8984510179	-1.1552671102	 0.102726
H	-3.289497303	-4.9768133711	-1.1012792652	 0.115573
H	-2.8925306355	-6.2942551182	 0.022451881	 0.120877
H	-3.4550364681	-4.7287500586	 0.6413410477	 0.102473
H	 0.5193589024	-5.1883800199	-0.999272916	 0.125937
H	-0.6356272741	-6.5231700773	-1.0077359128	 0.118913
H	-0.8598992524	-5.1556307392	-2.1181638877	 0.111539
H	-1.3737733394	-4.7732551404	 1.9062839492	 0.275291
