18
gdb 79019	3.74027	1.76938	1.5954	2.2692	72.66	-0.2416	0.0928	0.3344	876.9196	0.15185	-401.921717	-401.915661	-401.914717	-401.951758	26.393	
O	 0.1548977363	 1.4238880639	 0.0976485009	-0.450351
C	 0.0149170031	 0.0377071679	 0.0199383902	 0.185226
C	-1.3985586044	-0.6296105477	-0.1141190641	-0.123602
C	-1.9172276666	 0.0248823295	-1.3939315473	-0.058219
C	-1.8106695575	-0.917533285	-2.538864662	-0.034619
C	-1.4852106457	-2.295220853	-2.0025014008	-0.253629
C	-0.6624264412	-1.831332552	-0.8097294218	-0.050297
C	 0.2571944739	-0.6867400591	-1.3247445775	-0.061897
N	-0.6855374862	 0.0219738195	-2.2572999464	-0.158007
H	-0.1322665761	 1.781592476	-0.7516081513	 0.296178
H	 0.592715929	-0.3974735802	 0.839536665	 0.08722
H	-2.0800127196	-0.7501927141	 0.72636941	 0.068463
H	-2.5352641065	 0.9149026396	-1.3975713494	 0.095065
H	-2.3359776659	-0.7610702804	-3.4742747178	 0.093409
H	-2.3851642839	-2.8506604667	-1.7185444357	 0.108066
H	-0.9054398624	-2.9008516263	-2.7072719908	 0.107721
H	-0.2138854631	-2.5745058006	-0.1549001502	 0.077785
H	 1.2439616069	-0.8403279213	-1.7596742409	 0.071487
