20
gdb 18124	3.565	2.02625	1.54514	1.4946	73.14	-0.2399	0.0779	0.3179	886.4057	0.181097	-349.031993	-349.025215	-349.024271	-349.063055	27.175	
C	 0.0086684208	 1.4888558351	 0.1047732945	-0.20237
C	 1.4669532521	 1.9684241449	 0.0097600366	-0.218255
C	 2.1389919485	 0.9577117837	-0.945191308	-0.014785
C	 3.5744295755	 0.5376157846	-0.5800061359	-0.236784
C	 3.3336035913	-0.6873141252	 0.3104514595	-0.082649
O	 2.223055317	-1.3550335663	-0.2719651863	-0.264074
C	 1.325803359	-0.3698077643	-0.7854481552	 0.131557
C	 0.151064389	-0.0406721747	 0.1673071066	-0.227433
H	-0.5300659783	 1.9076197986	 0.9598330021	 0.094835
H	-0.5406030363	 1.7818064385	-0.7990350168	 0.096802
H	 1.5650402851	 3.0022264986	-0.3335019972	 0.093442
H	 1.9336551159	 1.913781932	 1.0021041477	 0.094294
H	 2.0809649642	 1.3255241648	-1.9728376958	 0.070192
H	 4.1304641185	 0.2406297965	-1.4745945156	 0.103124
H	 4.137413837	 1.3284952025	-0.0759981649	 0.097352
H	 4.1708900474	-1.39014361	 0.3399570898	 0.105676
H	 3.1131119718	-0.3796910437	 1.3467290168	 0.083958
H	 0.9600111073	-0.7540468611	-1.7428273116	 0.074418
H	 0.4335125407	-0.3537766662	 1.1791646276	 0.105898
H	-0.7654558365	-0.5765363783	-0.093077264	 0.0948
