16
gdb 10164	3.20687	1.28176	0.97349	2.3498	63.5	-0.2496	-0.0528	0.1968	1179.7403	0.125954	-420.87972	-420.870506	-420.869562	-420.914554	30.767	
C	-0.0814609948	 1.5984496797	-0.0120173936	-0.386935
C	-0.0400241647	 0.0947395306	-0.2118031565	-0.047516
O	-1.3052774846	-0.4358585055	 0.1827156567	-0.248159
C	-1.41577923	-1.8207815522	 0.1186949397	-0.057338
C	-2.6056767	-2.2434607824	 0.9818280752	 0.127974
O	-2.9545279288	-3.3857147732	 1.1149985259	-0.242921
C	-1.6058742247	-2.3827620925	-1.298614271	 0.143254
O	-1.5228282771	-1.7183144947	-2.2946497975	-0.230248
H	 0.878738207	 2.0415666062	-0.291695505	 0.120804
H	-0.862829009	 2.0443234127	-0.633315832	 0.136293
H	-0.2877137318	 1.8452221672	 1.0332914567	 0.126141
H	 0.1598696714	-0.1549392437	-1.2595497045	 0.124286
H	 0.751795651	-0.3595403701	 0.4064234505	 0.088785
H	-0.5305552354	-2.3409677355	 0.5348817087	 0.117622
H	-3.1195559805	-1.3838731367	 1.4608148797	 0.11445
H	-1.833152468	-3.4695650698	-1.3133299532	 0.113508
