18
gdb 54451	3.22454	1.44369	1.15466	2.8493	76.98	-0.2297	-0.017	0.2127	1085.188	0.146413	-401.884163	-401.876015	-401.87507	-401.917032	31.335	
C	 0.1798333454	 1.0819018717	-0.7974035979	-0.478618
C	-0.1084201214	 0.0954344744	 0.3132575161	 0.306357
O	 0.6399431161	-0.0703074263	 1.2567786109	-0.328067
C	-1.3590059327	-0.6938907058	 0.1918429664	 0.243355
C	-1.9600725871	-1.398600916	 1.3887621593	-0.345442
C	-1.4955681182	-2.2239649105	 0.2415419747	-0.101193
C	-2.3845243445	-2.0928491205	-1.0046236943	-0.037222
C	-3.5320187992	-1.1700422173	-0.8701883928	-0.25703
N	-2.1857173224	-0.6029934525	-1.0799918825	-0.185443
H	 1.0865144586	 1.6394628988	-0.5609155012	 0.13241
H	 0.2959497755	 0.553796756	-1.7493076068	 0.14831
H	-0.6673834379	 1.7623411562	-0.9329695291	 0.144235
H	-1.2695639472	-1.3817372862	 2.2250940333	 0.155079
H	-3.0043122929	-1.2983245206	 1.6595601368	 0.120566
H	-0.6807884153	-2.9313114187	 0.3169903216	 0.118203
H	-2.2348223679	-2.7089014601	-1.885086298	 0.106749
H	-4.1576000016	-1.0480685177	-1.749949933	 0.130016
H	-4.0593652173	-1.0271680752	 0.0653443764	 0.127734
