17
gdb 112320	3.05667	1.22471	0.95579	3.6079	68.14	-0.2419	-0.0291	0.2128	1198.6642	0.135523	-458.962088	-458.953864	-458.95292	-458.995321	30.543	
O	 0.0064910076	 1.3713553086	-0.0955067133	-0.42065
C	 0.0333422266	-0.0462335686	-0.0452588827	-0.090843
C	-1.4067704767	-0.5292501152	 0.0715734372	-0.014622
C	-2.309276128	-0.1327472004	-1.1231463347	-0.341367
C	-3.2777760124	-1.3046995303	-1.3192570551	 0.409119
O	-4.3774906234	-1.2636596236	-1.8067764909	-0.313929
C	-2.6322696708	-2.5234978814	-0.7042076638	-0.086154
O	-1.2624974702	-2.6650663378	-1.1336559945	-0.248835
C	-1.5117709245	-2.0486944161	 0.1279901785	 0.020974
H	 0.9011881352	 1.686481054	-0.2527458031	 0.29093
H	 0.4835401535	-0.476530257	-0.9527579991	 0.105154
H	 0.6164340056	-0.4056589133	 0.8185954072	 0.08732
H	-1.8301403267	-0.121532461	 0.9979754094	 0.096058
H	-2.861409304	 0.793984332	-0.9661432821	 0.141182
H	-1.7195903171	-0.0081635578	-2.0378378516	 0.142343
H	-3.1893949894	-3.4395033592	-0.5375133767	 0.116594
H	-1.1711665554	-2.6054472527	 0.9978524653	 0.106723
