18
gdb 52486	5.26585	0.54717	0.51504	1.239	103.94	-0.222	-0.0073	0.2147	2159.4582	0.145826	-364.749254	-364.73908	-364.738135	-364.786936	35.128	
C	 0.0816629231	 1.5422828887	 0.0263237469	-0.518009
C	 0.0602200622	 0.090846191	 0.0236865274	 0.235085
C	 0.0419295659	-1.1197354132	 0.0233117273	-0.199809
C	 0.0227157041	-2.4785340698	 0.021657108	-0.147393
C	 0.0007361867	-3.690322514	 0.0262589587	 0.371483
C	 0.001182077	-5.12220696	-0.0188488516	-0.329845
N	-0.4698683342	-5.8570149603	 1.1864982886	-0.317531
C	-1.2605395243	-5.9379578185	-0.043369086	 0.021704
C	-2.6306402856	-5.3110294538	-0.0190460082	-0.398984
H	 1.1088886703	 1.9242245347	 0.0152139919	 0.155577
H	-0.4345308097	 1.9497482196	-0.8504793309	 0.154942
H	-0.4119548735	 1.9433857599	 0.9188755012	 0.156513
H	 0.8474294961	-5.5509011641	-0.553138421	 0.109311
H	 0.0980505789	-6.6920770236	 1.3064150221	 0.234898
H	-1.1859147449	-6.8599634572	-0.6195993564	 0.08819
H	-2.6146378869	-4.3753654508	 0.5437613713	 0.1432
H	-2.9778136193	-5.1000594355	-1.0358552264	 0.119906
H	-3.3509808559	-5.9861526132	 0.454670167	 0.120762
