20
gdb 84231	3.05819	1.50468	1.33749	0.8578	86.51	-0.206	-0.033	0.173	1068.3546	0.170341	-365.900986	-365.892796	-365.891852	-365.933147	32.586	
C	 0.0744694603	 1.5837173959	-0.0173097446	-0.401525
C	-0.0027172531	 0.053351195	-0.0475680936	-0.027257
C	 0.8543336767	-0.5184437368	-1.1764488741	-0.121816
C	 1.5603029671	-1.5733902258	-0.7139226889	-0.03866
C	 2.9187444724	-1.2272669312	-0.1065399899	-0.173808
N	 2.1602698511	-1.1270671221	 1.2251474717	-0.193684
C	 0.6630378787	-0.6816508285	 1.1378377305	-0.073213
C	 1.0858390386	-2.0095014239	 0.684432317	 0.30958
C	 0.7758149502	-3.3801097043	 1.1962867916	-0.512852
H	 1.1140963806	 1.9268339106	-0.014315119	 0.122743
H	-0.4260550213	 2.0195993701	-0.8876875771	 0.119593
H	-0.4108486572	 1.9753160727	 0.882544441	 0.118355
H	-1.0642466921	-0.2389444982	-0.0450809368	 0.086815
H	 1.2864212059	 0.1712481852	-1.898797534	 0.090546
H	 3.6460667808	-2.0343226982	 0.0259590014	 0.114615
H	 3.4137729518	-0.3190770002	-0.4614294483	 0.108213
H	 0.3134179048	-0.5087077742	 2.1532602243	 0.09306
H	-0.1823419959	-3.7365969744	 0.802677439	 0.125592
H	 1.54677927	-4.098488879	 0.897041042	 0.125062
H	 0.7194646103	-3.3742103627	 2.2889084277	 0.128642
