23
gdb 118685	2.13819	1.08592	0.9599	1.9409	82.2	-0.2271	0.0556	0.2827	1424.1674	0.203323	-425.409499	-425.398702	-425.397758	-425.445049	40.168	
C	-0.0854494152	 1.576946984	-0.1359283711	-0.38014
C	-0.2234652765	 0.0589876969	-0.2803461877	-0.166263
C	 0.9387303182	-0.5652128533	-1.0676103322	-0.245606
C	 0.8416322392	-2.0782410539	-1.2042409783	 0.253974
C	 1.130687889	-2.8749058492	 0.0557206341	-0.461589
C	-0.1916584815	-2.6673764951	-2.1559537834	 0.0576
O	-0.9885551948	-1.8351331789	-2.9449154521	-0.433235
C	 1.2810824016	-2.7368582611	-2.4974311921	-0.032597
O	 1.6960017042	-1.883989552	-3.539801685	-0.429668
H	 0.8342810272	 1.8444241586	 0.3969741035	 0.109301
H	-0.0510432229	 2.0661083907	-1.1160452519	 0.112111
H	-0.9270947106	 2.0038772589	 0.4186726767	 0.108419
H	-0.2880157098	-0.3935911873	 0.7169931801	 0.089728
H	-1.1592275931	-0.1844557142	-0.7950962163	 0.118111
H	 0.9848662426	-0.1043981179	-2.058155485	 0.104113
H	 1.8923236289	-0.3185830254	-0.5799585866	 0.087882
H	 0.4466243156	-2.6016747486	 0.8658298634	 0.123851
H	 1.0188496269	-3.9510607391	-0.1150947325	 0.109824
H	 2.155316891	-2.6998938815	 0.4049731599	 0.116758
H	-0.7233310108	-3.5662540353	-1.8553888027	 0.091892
H	-0.3870103241	-1.4037941763	-3.5679507325	 0.282998
H	 1.8260087844	-3.6775698341	-2.4393988562	 0.086423
H	 1.6748541005	-2.3928739057	-4.3578840622	 0.296117
