21
gdb 41376	2.42283	1.78203	1.73465	1.6975	80.27	-0.2396	0.0693	0.309	967.2043	0.18493	-387.069036	-387.061685	-387.060741	-387.100397	30.596	
C	-0.0227862377	 1.5151564006	-0.3455064349	-0.30879
C	 1.452330715	 1.6286731307	 0.1817284734	-0.301776
C	 1.3725461946	 0.1442072555	 0.6356295156	 0.446816
C	 1.358427776	-0.3325240409	 2.0789175429	-0.296083
C	 0.0950449076	-1.2381934523	 2.1253495985	-0.206822
C	-0.9294371083	-0.5672033721	 1.1621735685	-0.315478
C	-0.0450164082	 0.0123692344	 0.0603613136	 0.259222
C	 0.6165608794	-0.9554098755	-0.9439662108	-0.143055
O	 1.9190943349	-0.8006801861	-0.3157514815	-0.346591
H	-0.7343911183	 2.1209150334	 0.2216760309	 0.101238
H	-0.1682407761	 1.724321516	-1.4086979029	 0.099487
H	 2.2091169845	 1.7978896493	-0.5865345797	 0.11131
H	 1.596289025	 2.35408894	 0.9864638476	 0.099154
H	 2.2722580545	-0.8612854937	 2.3635350662	 0.109778
H	 1.2404890302	 0.5233480437	 2.7539352926	 0.095866
H	 0.3534428712	-2.2350828128	 1.7512908215	 0.112765
H	-0.2997280036	-1.3679897745	 3.1369846932	 0.095802
H	-1.6875000678	-1.2731105704	 0.8070438412	 0.096909
H	-1.4585449532	 0.2409730195	 1.6811940153	 0.09715
H	 0.2697002047	-1.9960634421	-0.8983790483	 0.097378
H	 0.6238014955	-0.6294303027	-1.9922076227	 0.09572
