11
gdb 3705	7.5352	2.18199	1.71014	5.6376	48.36	-0.2562	-0.0015	0.2546	676.4726	0.078985	-376.604793	-376.598768	-376.597824	-376.634607	21.512	
C	-0.0105804643	 1.5116165743	 0.0424774185	-0.497607
C	-0.0073330683	 0.0261346731	-0.0196144581	 0.422597
N	-0.0862510964	-0.6476703654	-1.119782674	-0.168046
O	-0.0496557714	-2.0122708364	-0.7304293828	-0.229778
C	 0.0530350401	-2.116307269	 0.6313310851	 0.511435
O	 0.1054743837	-3.1348015908	 1.2574940166	-0.389273
N	 0.0789568855	-0.7990642136	 1.0719576521	-0.415187
H	 0.9107002085	 1.8857408206	 0.5008284735	 0.152563
H	-0.08969999	 1.9088250711	-0.9701198054	 0.174192
H	-0.8558659879	 1.8762733699	 0.6351969735	 0.152514
H	 0.1502109303	-0.541196834	 2.040786431	 0.28659
