20
gdb 119254	1.95565	1.13987	0.80859	2.1494	77.55	-0.2604	0.0217	0.2821	1457.4029	0.168823	-440.25966	-440.249608	-440.248663	-440.295485	36.007	
O	-1.8635357305	 1.3520703191	-1.3800317529	-0.423143
C	-1.841160371	-0.0674288298	-1.4017673383	-0.074095
C	-1.6272349132	-0.5388658814	 0.0342491431	-0.244014
C	-1.5936449324	-2.0457564341	 0.1603631565	 0.411662
C	-1.9894391446	-2.7345060619	 1.4415087264	-0.331817
C	-2.8629982072	-2.8404217116	 0.2081635229	-0.308421
O	-0.5711314089	-2.6604279877	-0.6103942907	-0.230838
C	 0.6762396976	-2.6302717944	-0.0912617599	 0.112219
N	 1.6512554493	-3.0427350354	-0.7783689977	-0.444776
H	-1.9148845922	 1.6643026103	-2.2878846863	 0.287535
H	-2.787553545	-0.4786252694	-1.7877798909	 0.088739
H	-1.0327762335	-0.4508965574	-2.0397810395	 0.112519
H	-0.6920100951	-0.1052914069	 0.4096672019	 0.107293
H	-2.4319565351	-0.1419552717	 0.6623924794	 0.110758
H	-1.4309798172	-3.6185627304	 1.7272360117	 0.126647
H	-2.3263720641	-2.1226956924	 2.2711327909	 0.121884
H	-3.8032742015	-2.3010739335	 0.1885051264	 0.119975
H	-2.8653056243	-3.7866734613	-0.3194893595	 0.134466
H	 0.7124847047	-2.2436080676	 0.9350218642	 0.094906
H	 2.5095086743	-2.9724762626	-0.2352898177	 0.228501
