20
gdb 88788	2.69786	1.26187	1.0705	3.4425	81.06	-0.2328	0.0351	0.2679	1224.1306	0.170993	-403.160602	-403.151599	-403.150655	-403.195245	33.134	
C	-0.4786196263	 1.401807904	 0.0851040659	-0.409157
C	-0.0637102403	-0.0513447033	 0.0669740922	-0.006024
C	 1.344378938	-0.4440095088	-0.3000307783	-0.304935
C	 0.8732100342	-0.6253101883	 1.1199446559	 0.003096
N	 1.4285756447	 0.2038302857	 2.1319259412	-0.068013
C	 0.8967704746	 0.5901925651	 3.445961582	-0.172098
C	 2.2455495866	 1.3127839845	 3.7107373834	-0.369734
C	 2.6591523189	 0.8075950338	 2.3090463976	 0.407164
O	 3.6343022396	 0.8898442526	 1.6090080225	-0.373538
H	 0.3242942155	 2.0383623189	 0.4679959214	 0.125127
H	-0.7226628668	 1.7492710029	-0.9244235995	 0.122452
H	-1.3628413881	 1.5586724678	 0.7131338143	 0.113742
H	-0.8422387936	-0.7395585068	-0.252221397	 0.085657
H	 1.5100268968	-1.3375872526	-0.890918515	 0.116581
H	 2.0661828024	 0.3460351799	-0.4684994941	 0.149301
H	 0.6669545911	-1.6420719923	 1.4504643819	 0.092923
H	 0.0141299704	 1.2357083361	 3.3954592016	 0.113209
H	 0.6863126423	-0.2614360004	 4.102648352	 0.110043
H	 2.1918532654	 2.398942499	 3.8019514383	 0.131573
H	 2.8474816247	 0.9068070724	 4.5255210539	 0.132631
