20
gdb 28865	2.23791	1.75964	0.99831	1.5425	91.41	-0.1947	0.0126	0.2073	1203.1472	0.172278	-366.093244	-366.084344	-366.0834	-366.126175	34.839	
C	-0.0928804739	 1.5252599469	 0.0636635266	-0.501858
C	-0.0304108477	 0.0149595514	 0.0088723594	 0.251447
C	 0.0361880091	-0.668418344	-1.2164619898	 0.164917
C	 0.068821938	 0.0517183094	-2.543157023	-0.523003
C	 0.0841969019	-2.0773653124	-1.2179425704	 0.245855
N	 0.2020097001	-2.7730731377	-2.4287439976	-0.589054
C	 0.0769167433	-2.7808610321	-0.0081044469	-0.197111
C	 0.0211646832	-2.0955652532	 1.1961628556	-0.104803
C	-0.036792316	-0.7063470361	 1.2059764799	-0.221967
H	 0.7973385593	 1.989941308	-0.3762716392	 0.128276
H	-0.96003809	 1.9219237244	-0.4765674858	 0.125384
H	-0.1639054124	 1.8692396924	 1.0985002241	 0.11924
H	 0.9030708322	-0.301675102	-3.1611709474	 0.134749
H	-0.8501174474	-0.1163235977	-3.1244052966	 0.117804
H	 0.1753798955	 1.1302220767	-2.4268501161	 0.124353
H	-0.2610993454	-2.3421596229	-3.2156613671	 0.243665
H	-0.0405025092	-3.7512975982	-2.3614273287	 0.241343
H	 0.1162255806	-3.8665464664	-0.0228809275	 0.074856
H	 0.0155683388	-2.6477322014	 2.13047834	 0.087562
H	-0.0861470902	-0.1716285151	 2.1488887005	 0.078345
