17
gdb 74130	1.91723	1.70778	0.95368	4.2401	78.47	-0.2447	-0.0575	0.1872	1207.118	0.135003	-421.892279	-421.883863	-421.882919	-421.925686	31.217	
C	-0.0174527771	 1.50515833	 0.0539318815	-0.472199
C	-0.0186286096	 0.0075630067	-0.0418777541	 0.301109
C	-0.0620280233	-0.6358409129	-1.2209971598	-0.246922
C	-0.0788824643	-2.1012489516	-1.3565283668	 0.369989
O	-0.2166054732	-2.6561281685	-2.4261287752	-0.325091
C	 0.1088758877	-2.907759924	-0.0658474226	-0.410516
C	-0.4131305556	-2.1915411926	 1.1623569286	 0.372195
O	-1.1184302995	-2.7176031882	 1.9868575163	-0.296241
C	 0.0172933804	-0.7333754207	 1.2745948803	-0.398856
H	 0.8551032596	 1.8565948362	 0.6189049208	 0.138583
H	-0.0069665778	 1.9761041211	-0.9311836955	 0.137905
H	-0.9014236427	 1.8571234213	 0.6001315959	 0.144247
H	-0.1053186375	-0.0853460303	-2.1559349643	 0.106651
H	-0.3405732409	-3.8961678239	-0.1674980354	 0.14869
H	 1.194433967	-3.03538431	 0.0625705146	 0.147481
H	 1.0446944502	-0.7111284007	 1.6713127415	 0.14457
H	-0.6094694836	-0.2415221521	 2.0252043142	 0.138406
