21
gdb 119424	3.17521	1.00623	0.89363	1.8567	80.33	-0.2212	0.0786	0.2998	1411.3475	0.180086	-424.185652	-424.175785	-424.17484	-424.22092	36.201	
C	-0.0428358401	 1.5204571334	-0.1602756774	-0.385461
C	-0.1207695864	 0.0042367426	-0.1837589583	-0.058788
O	 0.9129639788	-0.4821411996	-1.0365576787	-0.293076
C	 0.9441626341	-1.8509169308	-1.162325636	 0.370609
C	-0.0476818796	-2.5982012051	-2.0510885728	-0.419298
C	 1.4287614563	-2.7053876318	-2.3323757323	 0.342731
O	 2.0394253576	-2.4328930823	-3.5412432326	-0.457137
C	 2.0823009029	-3.6871717415	-1.3686924366	-0.261765
C	 1.5785628168	-2.8209627812	-0.1606952267	-0.296112
H	 0.9299311919	 1.8494983038	 0.2159343303	 0.128507
H	-0.1752331739	 1.9277765194	-1.1667817682	 0.124428
H	-0.8232302829	 1.9320835623	 0.4867712784	 0.115194
H	 0.0034639743	-0.4062029658	 0.8297362254	 0.09523
H	-1.0988960139	-0.3351807136	-0.5572056539	 0.092539
H	-0.6405777836	-3.442077969	-1.6980259927	 0.099292
H	-0.5757061897	-1.930178872	-2.7286068545	 0.102701
H	 1.4746058051	-1.8418877483	-4.049023723	 0.286656
H	 1.7268959029	-4.7211560993	-1.4201239957	 0.096876
H	 3.1706768352	-3.675480037	-1.4556956376	 0.115358
H	 2.4038478833	-2.3666647173	 0.3923234057	 0.109239
H	 0.9008634808	-3.3154768372	 0.5432345373	 0.092276
