16
gdb 48742	3.64159	1.34621	1.18033	1.8701	71.11	-0.2471	-0.0376	0.2095	1038.2245	0.124461	-437.810259	-437.803123	-437.802179	-437.841967	27.579	
O	-0.2379421361	 0.039799008	 0.1109636937	-0.268274
C	-0.0445890358	 1.223179748	-0.0385955678	 0.050498
C	 1.2692475137	 1.8645602743	 0.0011653362	 0.242814
N	 1.439953873	 3.2886260835	 0.3725281757	-0.345912
C	 1.7664146466	 2.9162885774	-0.9923645489	-0.121084
C	 3.1600776317	 2.2212852403	-0.9921111902	 0.129344
O	 4.1303018191	 2.739805681	-0.0785566987	-0.285984
C	 3.7285296618	 1.7944407824	 0.953324119	-0.088829
C	 2.6491928982	 1.1840824113	 0.0318549563	-0.156502
H	-0.8813897066	 1.9328090883	-0.2485367958	 0.061183
H	 0.5227613776	 3.7363443965	 0.3745702537	 0.243341
H	 1.2388559453	 3.3493534022	-1.8350247555	 0.110521
H	 3.5567363556	 1.9765718765	-1.9801641402	 0.089625
H	 4.5501897228	 1.1116404753	 1.1952309861	 0.106027
H	 3.372453448	 2.2994809001	 1.8545648258	 0.123507
H	 2.6380418552	 0.1139570251	-0.1561455193	 0.109724
