19
gdb 97906	4.41945	0.57947	0.53376	0.8878	81.6	-0.249	-0.0273	0.2217	2015.9052	0.155679	-423.004879	-422.994019	-422.993075	-423.043226	36.8	
C	 0.544859078	 1.6138090854	-0.3063416464	-0.405088
C	-0.0424821491	 0.2237815549	-0.0052268514	-0.070773
C	 0.2464730061	-0.8128301459	-1.109416989	-0.363124
C	-0.3653966978	-0.4702470496	-2.3872611688	-0.01109
C	-0.8979768537	-0.1654276315	-3.4248934956	 0.123449
C	-1.4826199885	 0.1979929996	-4.7154713977	-0.195195
O	-0.788248806	 1.2470122598	-5.3780864746	-0.402334
C	 0.4499543041	-0.2610627108	 1.3436791765	 0.148856
O	 1.0031730072	-1.3123428365	 1.5430777326	-0.242687
H	 1.6342461905	 1.5636266594	-0.4096143818	 0.1275
H	 0.1310396292	 2.0005290108	-1.240393148	 0.148473
H	 0.3125050587	 2.3247602513	 0.4927574847	 0.122042
H	-1.13238863	 0.339971888	 0.0975345502	 0.110582
H	 1.3325863097	-0.915772427	-1.2265105859	 0.137522
H	-0.1029672774	-1.7964782632	-0.7763601727	 0.14591
H	-1.5504797599	-0.7001452696	-5.3502272733	 0.118079
H	-2.506735168	 0.5626918646	-4.5781253119	 0.138336
H	 0.1396908274	 0.9934914957	-5.4204878039	 0.286641
H	 0.2628021993	 0.4542127445	 2.178315027	 0.082899
