20
gdb 93247	2.73359	1.29757	0.92659	3.7893	75.17	-0.2427	0.0063	0.2489	1275.0185	0.172254	-440.328441	-440.319408	-440.318464	-440.362157	33.942	
C	-0.1359923589	 1.5403206234	-0.004928808	-0.409207
C	 0.0215432639	 0.0174504135	 0.0236908648	-0.010471
C	 0.7695754637	-0.46211774	-1.2167646316	-0.061213
O	 1.0485320524	-1.8727960834	-1.2446563922	-0.232303
C	 1.3343505464	-2.5662855436	-0.1179523674	 0.391299
O	 1.8707453278	-3.6389393966	-0.2085890508	-0.329907
C	 0.8561385564	-2.008212416	 1.2374963656	-0.114248
N	 1.6156401098	-2.5256987762	 2.3679927319	-0.513241
C	 0.7693753165	-0.4822528316	 1.261782294	-0.205535
H	 0.8401392268	 2.0384773385	 0.007097461	 0.121173
H	-0.6704939083	 1.8716101646	-0.9013188247	 0.120306
H	-0.6976880621	 1.8874719514	 0.8672183359	 0.125344
H	-0.9779346438	-0.4393622857	 0.0157411686	 0.087912
H	 0.1982756567	-0.2674639917	-2.1283158521	 0.122554
H	 1.727623037	 0.0698186479	-1.3023351923	 0.110574
H	-0.1706039232	-2.3965133873	 1.3295263673	 0.117247
H	 1.7492738081	-3.5240202658	 2.223189853	 0.24389
H	 2.5530930933	-2.1297148156	 2.3449604236	 0.224167
H	 1.7821527625	-0.0521408914	 1.2757526432	 0.095551
H	 0.278631375	-0.1638133844	 2.1865116201	 0.116109
