19
gdb 76156	2.10714	1.47113	1.20559	5.2029	77.64	-0.2296	0.023	0.2525	1138.6107	0.158464	-415.36486	-415.354367	-415.353423	-415.399546	38.532	
C	-0.0881416757	 1.5674857986	 0.0352028406	-0.420475
C	-0.0059302157	 0.0565411281	-0.0162269459	 0.264294
N	-1.2226652158	-0.5366433001	-0.5193527674	-0.570393
C	 1.3324552984	-0.6216983583	-0.2933503103	-0.146557
N	 2.5261006397	 0.1679694299	-0.4024495366	-0.51376
C	 0.7040943348	-0.6594064104	 1.1278253084	 0.140255
N	 1.2953849451	 0.1303545811	 2.1895508787	-0.57222
C	 0.1697745797	-1.9253129987	 1.5527989932	 0.264156
N	-0.259984962	-2.9528863038	 1.870118916	-0.361372
H	 0.8468655986	 2.026764761	 0.3551850352	 0.127249
H	-0.3382859204	 1.953945071	-0.9598182054	 0.108865
H	-0.8837746358	 1.8679295722	 0.7207169013	 0.14273
H	-1.251271012	-0.4871938503	-1.5336551093	 0.226403
H	-1.3108211998	-1.5127575889	-0.2571875309	 0.246487
H	 1.265248466	-1.5525987503	-0.8574760404	 0.087981
H	 3.3535446593	-0.4187060569	-0.414209287	 0.24276
H	 2.5298490901	 0.7232525645	-1.2513552855	 0.244677
H	 1.6584413267	-0.4906460373	 2.9060103322	 0.240127
H	 2.0965349188	 0.6162258887	 1.786495463	 0.248794
