23
gdb 120264	2.90766	1.08137	0.9395	0.9882	86.23	-0.2393	0.0823	0.3216	1391.9015	0.204799	-388.260311	-388.250538	-388.249594	-388.295394	36.356	
C	-0.0775149026	 1.5247996549	-0.087761804	-0.384347
C	 0.1486717509	 0.0250090885	 0.0027458413	-0.040284
O	 0.4817251856	-0.4558334493	-1.2873267528	-0.253617
C	 0.7081531483	-1.8428744925	-1.3518410826	 0.121141
C	 0.735946021	-2.4001042061	-2.7668174646	-0.081665
C	 1.8925212505	-1.827819593	-3.5377902187	-0.278834
C	 2.1598035404	-2.9265869728	-2.5498597176	-0.056339
C	 2.1788837551	-2.3877011033	-1.111632512	-0.023218
C	 3.2794721303	-1.4132497995	-0.7090672638	-0.405705
H	 0.8304138356	 2.0296668062	-0.430018488	 0.125197
H	-0.8801468599	 1.7485451728	-0.7962207503	 0.126431
H	-0.3523263037	 1.9302209261	 0.8907439607	 0.112232
H	 0.9512332927	-0.1979118566	 0.7228553128	 0.089323
H	-0.7605879013	-0.482351486	 0.3673496765	 0.085161
H	-0.0140836472	-2.3704569311	-0.7132874676	 0.061284
H	-0.1026927467	-2.8747532639	-3.26126929	 0.081378
H	 1.9329101049	-2.1269434299	-4.5803066741	 0.107836
H	 2.2207208959	-0.8097443514	-3.3559675099	 0.119857
H	 2.5688138401	-3.8813800986	-2.8577320767	 0.08096
H	 2.1410507107	-3.2161510531	-0.396843208	 0.066874
H	 3.2606377376	-0.5069331499	-1.3195313426	 0.12482
H	 3.1775391133	-1.1083795796	 0.337885467	 0.110495
H	 4.2651116985	-1.8781023719	-0.8230479052	 0.111022
