20
gdb 91021	2.6174	1.7493	1.24571	1.3995	78.58	-0.2079	0.0675	0.2754	1055.2071	0.171018	-403.078394	-403.070124	-403.06918	-403.110836	32.786	
C	-0.2764123292	 1.5581184555	-0.0954561378	-0.410732
C	 0.0290996465	 0.0727594875	 0.0488625925	 0.027224
C	 1.1189746713	-0.5693163829	-0.8433182489	-0.18908
N	 1.7860704421	-1.2249431809	 0.3378985188	-0.132022
C	 2.885442411	-0.3668667371	 0.8142982699	-0.066086
C	 3.0572525501	-0.5705189736	 2.2926697737	-0.351555
C	 1.9898194969	 0.375836296	 1.7956609653	 0.365108
O	 1.9451513611	 1.7126653706	 2.154646693	-0.461854
C	 0.8195506055	-0.4537822966	 1.2730474166	-0.0886
H	 0.6251584845	 2.1683170118	-0.0086697877	 0.138035
H	-0.7357012418	 1.7563624636	-1.0705710792	 0.107872
H	-0.977753264	 1.8954398099	 0.6756384949	 0.111235
H	-0.9033314308	-0.4948936318	-0.0330874622	 0.077065
H	 0.7654240393	-1.3046240062	-1.5709054671	 0.102006
H	 1.7675732306	 0.1474672919	-1.3600397172	 0.096815
H	 3.679598403	-0.0430359405	 0.151213098	 0.09632
H	 2.8104316695	-1.5296573318	 2.7427401051	 0.112446
H	 3.9208258152	-0.0635820481	 2.7128603712	 0.112703
H	 1.8726447823	 1.7703906201	 3.1139975246	 0.286479
H	 0.249907797	-1.0287821176	 2.0105941567	 0.066621
