19
gdb 91039	2.15678	1.8513	1.5576	0.9856	73.77	-0.245	0.0668	0.3118	982.4769	0.158084	-422.961651	-422.953498	-422.952554	-422.993732	32.451	
C	-0.2476576313	 1.5756272692	-0.0320847624	-0.424908
C	 0.0371093949	 0.0803252471	-0.0204591176	-0.021739
C	 1.1758575787	-0.4923560457	-0.9342913109	-0.259425
C	 1.7791563838	-1.2512442736	 0.2856944891	-0.105411
C	 2.8867104659	-0.5150568295	 1.0794054509	 0.016192
O	 2.6487386244	 0.8968331718	 0.967530003	-0.234811
C	 1.8952992722	 0.1614557431	 1.9343094899	-0.061939
C	 0.7248279761	-0.5842905918	 1.2144608414	 0.358898
O	-0.025795401	-1.4053045941	 2.0617863954	-0.477494
H	 0.6683491011	 2.1491160983	 0.1267370887	 0.141781
H	-0.6807567633	 1.8829129033	-0.9903959828	 0.113126
H	-0.965032008	 1.8496606479	 0.751113386	 0.100087
H	-0.8873057955	-0.4813690529	-0.1957656289	 0.076851
H	 0.8263566207	-1.1412949523	-1.7395961603	 0.097439
H	 1.8368984904	 0.2705666971	-1.34809545	 0.112491
H	 1.8571918976	-2.3368069143	 0.2510169493	 0.084254
H	 3.9088272321	-0.8184133128	 1.2763815471	 0.104478
H	 1.9409285519	 0.4941454088	 2.967078724	 0.100453
H	-0.5842609208	-0.8424869494	 2.6107899281	 0.279675
