14
gdb 44825	3.03626	1.28568	1.03042	6.024	66.51	-0.2614	-0.0434	0.218	1121.08	0.09933	-436.668955	-436.660981	-436.660037	-436.702401	28.594	
O	-0.4145829539	 0.0467676038	-0.3457665074	-0.279335
C	-0.2292981065	 1.1954497931	-0.0874710426	 0.383175
C	-1.1614418902	 2.3980102404	 0.2623354159	-0.369598
C	 0.0729088052	 3.2841053751	 0.0464047336	-0.050746
O	 1.032224682	 2.8638305279	 1.011606492	-0.261066
C	 0.9762403307	 2.1333823543	-0.2288015115	 0.297481
C	 2.2326890334	 1.9909642139	-1.0409150238	-0.468553
C	 3.1937019136	 1.0653302448	-0.4360487914	 0.276481
N	 3.9582434169	 0.3402874287	 0.0358618137	-0.293153
H	-1.9525724226	 2.5000041765	-0.4861137461	 0.141264
H	-1.5840215944	 2.4307996981	 1.267647812	 0.149597
H	 0.1399066147	 4.2937040319	-0.3397919947	 0.131365
H	 1.9812979333	 1.6295364107	-2.0444306516	 0.172134
H	 2.7084064778	 2.9713914607	-1.1491132883	 0.170952
