17
gdb 73018	2.90317	1.54038	1.22942	2.3577	68.4	-0.2196	0.0451	0.2647	1034.5773	0.135185	-458.878179	-458.870328	-458.869384	-458.910655	29.954	
O	 0.2596712072	 1.3877499202	 0.050437818	-0.455518
C	 0.0382874729	 0.0361004293	 0.0447001703	 0.270881
C	-0.8846698535	-0.675302629	-0.9203830012	-0.135725
O	-1.1791082573	-1.7014826093	 0.0708425883	-0.284466
C	-0.4432552402	-1.0038109596	 1.0831141808	-0.098975
C	 0.9956908101	-0.9309571038	 0.6744868962	 0.369973
C	 2.0319907571	-1.9382326537	 0.1880175598	-0.374588
C	 2.9707766603	-1.196118563	 1.1639542379	-0.073842
O	 1.9126682072	-0.2821291796	 1.5706344122	-0.339448
H	 1.080230751	 1.5219727343	 0.5480987012	 0.297897
H	-1.7860652353	-0.0993936163	-1.1592744032	 0.122125
H	-0.4502181029	-1.0892069857	-1.8381240038	 0.106534
H	-0.8249660023	-0.9869231085	 2.0978540071	 0.115767
H	 1.8150462874	-2.9765845715	 0.4413038651	 0.129014
H	 2.3003805175	-1.8679338825	-0.8676724534	 0.118608
H	 3.3330611036	-1.7799965108	 2.0156891011	 0.117929
H	 3.8074438372	-0.6568850004	 0.7086011938	 0.113833
