20
gdb 103415	2.52673	1.42255	1.22772	2.9375	74.08	-0.2429	0.0688	0.3118	1114.4471	0.170554	-440.238065	-440.229054	-440.22811	-440.271381	34.938	
C	-0.2221589058	 1.4928827267	 0.0654253388	-0.411024
C	-0.0143776582	-0.0109006656	-0.0159311965	-0.043865
C	 0.7535940822	-0.5902587506	-1.2092649658	-0.055233
N	 2.1473291109	-0.0820186053	-1.1023452279	-0.36552
C	 1.7321012011	-1.2801149412	-0.3281674978	-0.127834
C	 1.0755760786	-0.6896599813	 0.9297021376	 0.389852
O	 1.8935302809	 0.1868440933	 1.6716165023	-0.492856
C	 0.5089746756	-1.6865804794	 1.9243989904	-0.106985
O	-0.2691676863	-1.0346740916	 2.9102147369	-0.427159
H	 0.7044394293	 2.0331075364	-0.1446074969	 0.120421
H	-0.9742941875	 1.8211978679	-0.6601839018	 0.109692
H	-0.568314443	 1.7782145016	 1.0630273052	 0.124661
H	-0.9651232487	-0.5357431869	 0.1163577761	 0.083715
H	 0.3619937494	-0.9039499918	-2.1693783883	 0.093862
H	 2.663442791	-0.4042785933	-1.9190110712	 0.23463
H	 2.2503264516	-2.2250963076	-0.4429638935	 0.092865
H	 2.3726637914	 0.7131090308	 1.0166881347	 0.294384
H	-0.1462449646	-2.4015291121	 1.4166356414	 0.103393
H	 1.3430917672	-2.2486703827	 2.3753271735	 0.088475
H	 0.285075995	-0.3227026673	 3.2515752731	 0.294525
