18
gdb 121779	3.06911	0.89425	0.73153	3.1558	79.19	-0.265	0.0109	0.276	1548.3746	0.144516	-401.914388	-401.903982	-401.903038	-401.951122	35.801	
C	 0.1554753889	 1.4712946932	 0.2213711848	-0.383941
C	 0.5853062994	 0.0189268964	 0.1262324149	-0.057773
O	 0.0448521084	-0.6739567977	 1.2522567561	-0.245256
C	 0.3888339598	-2.0276214823	 1.3503832586	-0.07795
C	 1.3812512421	-2.2596594092	 2.5333161858	-0.324562
C	 1.6174134748	-3.6853638192	 2.7494466674	 0.317257
C	 1.7691412676	-4.8670392486	 2.8945691749	-0.426384
C	 2.641833212	-1.5340220281	 2.3127139988	 0.308496
N	 3.6240141882	-0.9553313786	 2.1260436995	-0.331357
H	 0.5450027979	 1.9264921777	 1.1360090729	 0.13359
H	 0.5372169622	 2.0335726214	-0.6357476445	 0.120822
H	-0.9352497154	 1.5508041415	 0.2329163921	 0.126895
H	 0.2081244333	-0.4384393875	-0.8014665416	 0.094077
H	 1.6802320018	-0.0606660485	 0.1202516556	 0.122081
H	-0.5107961319	-2.6134337787	 1.5704593825	 0.125249
H	 0.8322943138	-2.4161085981	 0.4258085453	 0.121079
H	 0.9090088928	-1.8242246589	 3.4235493466	 0.165965
H	 1.9167740944	-5.9096399649	 3.0354132604	 0.211713
