19
gdb 99609	2.18038	1.43174	1.0087	3.2569	75.93	-0.2504	0.0266	0.277	1236.0773	0.157699	-419.189164	-419.179306	-419.178361	-419.224066	35.412	
C	 0.2950198653	 1.2518522802	 0.4459948521	-0.330788
N	 0.0501268924	-0.1311752898	 0.0470547193	-0.2728
C	 0.5470581492	-0.4917017566	-1.2737499756	-0.187705
C	 2.0133069075	-0.3108949834	-1.4067142643	 0.288483
N	 3.154104614	-0.1311696612	-1.4637187743	-0.342293
C	 0.1047380056	-1.928452497	-1.5814095228	 0.393996
C	-1.3832435267	-2.0840678309	-1.8007180747	-0.465323
C	 1.0480001356	-2.9199167601	-2.1157902602	-0.230502
O	 0.7144426379	-2.8965483374	-0.720522394	-0.272555
H	 1.3568615607	 1.5431256336	 0.4338402799	 0.127783
H	-0.2496331536	 1.9257763035	-0.2245139997	 0.126041
H	-0.0940503557	 1.4008889909	 1.4563551473	 0.130778
H	 0.448476466	-0.7764405662	 0.7223032957	 0.244468
H	 0.0775776039	 0.1784125088	-2.0061242639	 0.126554
H	-1.6894533852	-1.6011202973	-2.7350459699	 0.12272
H	-1.64384606	-3.1432018956	-1.8546176543	 0.131891
H	-1.9348397422	-1.6230788848	-0.9778861456	 0.148434
H	 0.6503790614	-3.7685003793	-2.6704150452	 0.116953
H	 2.071708704	-2.6413147874	-2.3527881899	 0.143863
