17
gdb 67402	2.72335	1.55849	1.29161	4.8076	78.29	-0.2441	0.0089	0.253	1029.9555	0.13721	-380.825521	-380.817852	-380.816908	-380.857558	29.643	
C	-0.1075707221	 1.5274792541	-0.0946622058	-0.529497
C	 0.0158607104	 0.044254055	-0.0113401864	 0.291666
C	 0.6116425754	-1.0205985978	-0.9023142443	-0.171945
C	 1.3627343446	-1.6565523347	 0.260557094	-0.248116
C	 0.2954431737	-0.977793037	 1.1702086807	-0.083911
N	-1.0039379612	-1.6464840819	 0.8705287568	-0.349761
C	-0.8963341928	-1.0703821222	-0.4688411383	 0.21069
C	-1.9568768022	-1.0349648174	-1.4196753379	 0.18454
N	-2.8070221377	-1.0017934467	-2.2047740543	-0.352862
H	 0.8463042148	 2.0179256496	 0.1278904479	 0.130273
H	-0.4125162071	 1.8290710124	-1.1018705556	 0.143111
H	-0.8561668062	 1.9023788726	 0.6106471566	 0.141973
H	 0.8854769489	-0.9466803817	-1.9469466172	 0.109766
H	 1.447978357	-2.7477857181	 0.316487935	 0.098174
H	 2.3477435362	-1.199118243	 0.3847347879	 0.115799
H	 0.4918268144	-0.7410345914	 2.2137847379	 0.091785
H	-0.943638136	-2.6668529918	 0.8874732532	 0.218317
