17
gdb 96780	2.80313	1.5637	1.08709	2.5741	77.44	-0.226	-0.0732	0.1528	1106.7697	0.135585	-417.999002	-417.990718	-417.989773	-418.032842	30.393	
C	 0.0721800836	 1.3923523743	 0.3565254995	-0.347049
N	-0.0531318183	-0.0469728231	 0.2218305458	-0.257934
C	-1.1513260075	-0.61311302	-0.0462138746	 0.237676
N	-1.2104343411	-2.033382301	-0.1850461899	-0.121245
C	-1.9278017668	-2.7123908648	 0.9184025422	-0.248594
C	-2.6303930889	-2.4311624792	-0.3549345471	-0.032786
C	-3.5155225282	-1.2061088913	-0.4498128913	-0.35342
C	-2.556163446	-0.0293230999	-0.2550268969	 0.341452
O	-2.864554521	 1.1352223801	-0.2595980786	-0.301483
H	 0.7130794757	 1.7504011566	-0.4589009232	 0.137581
H	-0.8642920969	 1.9514464068	 0.3455412873	 0.154415
H	 0.6203918334	 1.5959759864	 1.2833764988	 0.13112
H	-1.5689535375	-3.7129562049	 1.1374658103	 0.13464
H	-2.1862268201	-2.1188377898	 1.7931645247	 0.124144
H	-2.7924058848	-3.2414016613	-1.0589346812	 0.108195
H	-3.9861232275	-1.1136157751	-1.4342010601	 0.147711
H	-4.317860228	-1.1662668539	 0.2935233643	 0.145576
