18
gdb 47105	2.70737	1.72181	1.23969	5.0563	70.94	-0.2289	0.0242	0.2532	1018.2056	0.151204	-439.133686	-439.126134	-439.12519	-439.167285	28.388	
O	 0.1261692663	 0.0459157027	 0.3008068918	-0.373278
C	 0.0729867434	 1.2407607668	 0.116877372	 0.38484
N	-1.0358447239	 2.0287200159	 0.2390826562	-0.303754
C	-0.8706879341	 3.4384031589	-0.0548926261	-0.184333
C	 0.6340785222	 3.5847939793	-0.4261836772	-0.052977
C	 1.4669624559	 4.419582118	 0.5680511588	-0.231615
C	 1.9661404215	 3.3527344943	 1.5491624622	-0.084669
O	 2.2357007931	 2.217806843	 0.7361787465	-0.247013
C	 1.2435627974	 2.1642755719	-0.2836833463	-0.004429
H	-1.921515731	 1.6194916457	 0.4933299436	 0.251671
H	-1.5172647382	 3.7495526416	-0.8843609336	 0.11252
H	-1.1329959873	 4.0584136852	 0.8120126824	 0.109029
H	 0.7269042595	 3.9676869899	-1.4426581428	 0.089877
H	 2.3182682035	 4.8751072226	 0.0539946501	 0.113534
H	 0.8923715128	 5.2166147196	 1.0473024369	 0.103687
H	 2.8914160832	 3.6195643614	 2.0655661091	 0.115071
H	 1.2013654612	 3.1230160294	 2.3085076341	 0.097498
H	 1.7211309444	 1.772356734	-1.1850838674	 0.10434
