20
gdb 40647	3.19655	1.2519	1.21969	1.8881	79.51	-0.2167	0.0806	0.2973	1139.8161	0.172605	-403.094629	-403.086747	-403.085802	-403.127477	30.401	
C	 0.1115917435	 1.265942124	-0.112527233	-0.22443
C	 1.3155972025	 0.3912532129	-0.1753216861	-0.21801
N	-0.0113621542	-0.1834786146	 0.0197631953	-0.055171
C	-0.3060075471	-0.6874514182	 1.3292764037	-0.007057
C	-1.6440818952	-1.3541348726	 1.6063729814	-0.139101
C	-2.4595605124	-1.8402729487	 0.4166012548	-0.240869
C	-1.4762871462	-2.7338265092	-0.3772320694	-0.067179
O	-0.3935538347	-3.0647044056	 0.5025036956	-0.2604
C	-0.3833820512	-2.1780899825	 1.580292422	 0.080247
H	-0.0203668476	 1.8701949266	 0.783432403	 0.110524
H	-0.3073187244	 1.6964110946	-1.0176877931	 0.116703
H	 1.7911985149	 0.1704097017	-1.1264614258	 0.119304
H	 1.9904239228	 0.4097797456	 0.6786152342	 0.111959
H	 0.0930622005	-0.107333879	 2.1687681754	 0.067533
H	-2.1643466597	-1.1145187632	 2.5265781992	 0.086397
H	-3.315790853	-2.4144218862	 0.7845406644	 0.103312
H	-2.8421195295	-1.0282228051	-0.2077423969	 0.109027
H	-1.9278067367	-3.6729761274	-0.7141984175	 0.095743
H	-1.0851273944	-2.1919666955	-1.2421039917	 0.115206
H	 0.0871336821	-2.6066014375	 2.4585490744	 0.096261
