18
gdb 11272	4.97042	1.24987	1.05022	0.7874	84.59	-0.2236	-0.0147	0.2089	1139.1484	0.153491	-310.662474	-310.654359	-310.653415	-310.694799	30.797	
C	-0.0814654767	 1.5808088385	-0.0333259878	-0.398055
C	 0.0270924744	 0.0523990992	 0.0135679233	 0.000501
C	 0.7956153001	-0.5658380311	-1.1855752856	-0.226016
C	 1.5526415036	-1.7883539101	-0.6184409123	-0.320138
C	 1.6277316608	-1.4813309804	 0.8713788599	 0.19253
C	 0.791864194	-0.4845153633	 1.199828876	-0.171918
C	 2.4537516412	-2.2210805063	 1.7509702491	 0.197903
C	 3.1775716276	-2.8770923992	 2.4573513386	-0.414213
H	 0.9121572878	 2.0418019477	-0.0499314387	 0.117442
H	-0.620431872	 1.9070391549	-0.9290731084	 0.114769
H	-0.6184447425	 1.9695179919	 0.8383937964	 0.113753
H	-0.9967492168	-0.354199294	 0.0469450861	 0.082797
H	 0.1382637335	-0.8222892438	-2.0204633451	 0.097755
H	 1.5188802996	 0.1695472345	-1.5561652279	 0.103434
H	 1.0039940224	-2.725931264	-0.778560621	 0.113047
H	 2.5417082184	-1.9265167064	-1.0659172618	 0.112261
H	 0.6438049824	-0.11723705	 2.2094224694	 0.095019
H	 3.8076764019	-3.4474131179	 3.0935442497	 0.189129
