17
gdb 82699	2.8578	1.55733	1.21818	2.5732	73.2	-0.2434	-0.0277	0.2157	1036.9753	0.134571	-421.770438	-421.762549	-421.761605	-421.802922	29.793	
C	-0.0505046553	 1.570882544	-0.2815159819	-0.421468
C	 0.0353520869	 0.0743888695	-0.024569699	-0.070509
C	 1.1287805528	-0.7545293711	-0.7654447301	 0.043573
O	 2.3734607436	-0.0693928402	-0.4223672622	-0.280969
C	 2.2194156873	-0.6135103163	 0.8719893802	 0.078082
C	 1.2804127671	-1.678066174	 0.4969299514	-0.181985
C	 0.6874711686	-0.4742257789	 1.2503901958	 0.20054
C	 0.2957389265	-0.4402157728	 2.6592068782	 0.019583
O	 0.7920924301	-1.1425221539	 3.5144938454	-0.27985
H	 0.9388851192	 2.0282589399	-0.2117969093	 0.138392
H	-0.454429566	 1.773768135	-1.2793731102	 0.117644
H	-0.7100513088	 2.0563080583	 0.4454434388	 0.118714
H	-0.9322018403	-0.4186051385	-0.1706553048	 0.086784
H	 1.061653143	-1.0383639177	-1.8129829386	 0.096076
H	 3.0048923956	-0.5322994243	 1.6100559497	 0.138521
H	 1.1997863991	-2.7339617435	 0.710220044	 0.124851
H	-0.4974603597	 0.2984761744	 2.9134204825	 0.072022
