19
gdb 124819	4.31402	0.9022	0.77817	3.2942	77.58	-0.2297	0.0293	0.259	1460.1985	0.160347	-419.229656	-419.220687	-419.219743	-419.264107	33.242	
C	 0.1226649817	 1.5522169123	 0.0180535183	-0.403097
C	 0.0706941938	 0.0327236108	 0.1786419141	 0.144962
O	 0.4743160042	-0.3561461545	 1.4908647094	-0.421349
C	-1.3154373491	-0.539298633	-0.1746027528	-0.349286
C	-1.374575324	-2.0379989976	-0.2250667881	 0.227676
C	-1.8756150507	-2.8183541717	-1.2492095323	-0.137871
N	-1.7348560785	-4.1098126674	-0.8624381958	-0.179408
N	-1.1694204028	-4.2375105119	 0.3524781177	-0.22629
C	-0.950930361	-2.9852458629	 0.7419562699	-0.080233
H	 1.1022243301	 1.9299866086	 0.3228495591	 0.12541
H	-0.0581431164	 1.8504511738	-1.0196532474	 0.115936
H	-0.6403223987	 2.0364406112	 0.6411714696	 0.105754
H	 0.8161231304	-0.4275847669	-0.4800113606	 0.094766
H	-0.1191708558	 0.0753562023	 2.1163921237	 0.275415
H	-2.0337854061	-0.1462841117	 0.5618509022	 0.095275
H	-1.6290818815	-0.1321111553	-1.1431803641	 0.097574
H	-2.3135635852	-2.5531917948	-2.1992399132	 0.125826
H	-1.993455553	-4.9383435548	-1.3698262454	 0.271585
H	-0.4806059773	-2.7872928165	 1.6919590658	 0.117355
