19
gdb 76420	3.02958	1.02055	0.95515	2.3589	77.24	-0.2328	0.0437	0.2765	1307.4048	0.155557	-422.96581	-422.955603	-422.954659	-423.00079	37.734	
C	-0.0035302942	 1.6511897245	 0.2777918397	-0.452032
C	-0.0179277793	 0.1497765413	 0.0879041494	 0.238679
C	-1.3426143695	-0.4325893121	-0.4109370377	-0.430729
C	-1.7257367926	 0.0481065743	-1.7353522126	 0.321825
C	-2.0280808991	 0.4502058252	-2.8269284744	-0.44771
C	 1.2464315095	-0.5658721404	-0.3690355722	 0.073139
O	 2.4382077768	 0.1356395873	-0.5326301304	-0.436595
C	 0.7398774476	-0.7424857493	 1.0472395777	-0.024637
O	 1.4937475259	-0.0922989277	 2.0430229879	-0.431263
H	 1.0000792193	 2.0209031951	 0.4884106187	 0.122492
H	-0.3591378489	 2.1419761211	-0.6330632427	 0.134035
H	-0.6563232707	 1.9491398881	 1.1055437366	 0.115042
H	-1.2781816083	-1.5282953168	-0.4359092393	 0.123264
H	-2.1372880361	-0.1947771516	 0.3100461723	 0.13117
H	-2.298233415	 0.8006173035	-3.7920928698	 0.196148
H	 1.1496922786	-1.3767686407	-1.0858929404	 0.099701
H	 2.7106459445	 0.4096414802	 0.3543463875	 0.283729
H	 0.280365378	-1.6776710891	 1.3638416653	 0.086414
H	 2.1092400236	-0.736051643	 2.4110803346	 0.297329
