23
gdb 82306	2.17685	1.69163	1.32144	1.7406	83.87	-0.2525	0.0775	0.33	1115.8272	0.205625	-388.297444	-388.288431	-388.287487	-388.330176	36.293	
C	 0.02962716	 1.5954261508	-0.1040243057	-0.413344
C	 0.075580519	 0.0685233304	 0.0026723054	-0.023955
C	 0.7454708039	-0.6112095865	-1.1776012196	 0.039407
O	 2.1820354111	-0.5960557748	-1.1375178837	-0.260955
C	 1.4904006648	-1.7833049181	-0.7152522373	 0.042798
C	 1.3339998189	-1.911667689	 0.7844422566	-0.279314
C	 0.7905005317	-0.5295549113	 1.2735901884	 0.284346
C	 1.9600082712	 0.3441093664	 1.7655276387	-0.428541
C	-0.2126294843	-0.7068545932	 2.4230227065	-0.435595
H	 1.0305226619	 2.0187198732	-0.2222209496	 0.132127
H	-0.5650284914	 1.8990913828	-0.9722930861	 0.109521
H	-0.4297476884	 2.0475105389	 0.7809567413	 0.114605
H	-0.9616818945	-0.2987640321	 0.0081626999	 0.068456
H	 0.312322121	-0.5353901046	-2.173268738	 0.086869
H	 1.6601008736	-2.6601057492	-1.3357866647	 0.089829
H	 0.6116357065	-2.7128554924	 0.9877383959	 0.094768
H	 2.2680828612	-2.1855432185	 1.2863347037	 0.104197
H	 2.7046529202	 0.4902467911	 0.9816052137	 0.138752
H	 1.613219018	 1.3250129418	 2.1056657553	 0.10563
H	 2.4502478653	-0.1402532833	 2.6176888812	 0.102
H	 0.2685115876	-1.1593909495	 3.297277048	 0.110687
H	-0.6260596015	 0.2575229299	 2.7397981261	 0.111559
H	-1.0492647556	-1.3506984927	 2.1304451242	 0.106152
