23
gdb 106831	2.79596	1.12347	0.92881	1.6999	86.53	-0.2368	0.0841	0.3208	1405.8899	0.203933	-388.27652	-388.266457	-388.265512	-388.311791	37.39	
C	-0.5008121232	 1.3445476158	-0.3340933638	-0.376511
C	 0.1304986433	 0.0043509344	 0.070880985	-0.297256
C	 1.0305771539	-0.5488718572	-0.9908596257	 0.353348
C	 2.4246152627	-0.0539401253	-1.4223776971	-0.286203
C	 2.7392432746	-1.5081277225	-1.9151834609	-0.286206
C	 1.327684364	-1.9220010619	-1.4561750115	 0.353329
C	 0.8401979117	-3.275985599	-1.0407659245	-0.297254
C	 0.7076410086	-4.2420058391	-2.2273216145	-0.376507
O	 0.4157204875	-1.0749251427	-2.1845550186	-0.337354
H	 0.2653379674	 2.1042533847	-0.5207421114	 0.118282
H	-1.0897130831	 1.2296574767	-1.2486410968	 0.134912
H	-1.1600853019	 1.7206196581	 0.453709221	 0.111574
H	 0.7080362885	 0.1275450171	 0.9959040985	 0.09872
H	-0.6575622042	-0.7274769715	 0.2806010607	 0.106557
H	 2.4229047719	 0.7317691657	-2.1816606307	 0.10572
H	 3.05486428	 0.2516675552	-0.5829268626	 0.099543
H	 2.9345098177	-1.6327979618	-2.9829772061	 0.105722
H	 3.5385068301	-1.9836860165	-1.3404562174	 0.099543
H	 1.5339104064	-3.6895548099	-0.2977173036	 0.098719
H	-0.1304083526	-3.163690735	-0.5448758443	 0.106556
H	 0.0078863865	-3.844783015	-2.968239005	 0.134914
H	 1.6713957577	-4.396030444	-2.7237397935	 0.118281
H	 0.3410124523	-5.2186222764	-1.8979167973	 0.111573
