19
gdb 16244	3.00729	2.02147	1.553	2.2728	70.42	-0.2443	0.0714	0.3158	897.0939	0.166721	-365.039049	-365.031308	-365.030364	-365.071339	29.359	
C	 0.2686687661	 1.6637422381	-0.125207086	-0.391932
C	 0.0064021805	 0.164002471	 0.0627780906	-0.085873
C	 0.6226837291	-0.6661466656	-1.0766403509	-0.085056
O	 1.9980621109	-0.7816549421	-0.7362280518	-0.258445
C	 2.0803044569	-0.9598983257	 0.6758890174	-0.121003
C	 0.761496984	-0.4334127756	 1.2542089184	 0.312002
C	 0.5979277548	 0.0303319244	 2.6488895489	-0.301638
N	 0.0962992769	-1.2984633459	 2.2431495605	-0.360046
H	 1.3355017269	 1.850126432	-0.2815943657	 0.133967
H	-0.2706742104	 2.0454403216	-0.9984885288	 0.113053
H	-0.0527339285	 2.241065576	 0.7467772049	 0.112628
H	-1.0703978757	-0.0174722362	 0.1550817107	 0.067522
H	 0.1455717332	-1.6579894122	-1.1391865997	 0.089538
H	 0.5605927115	-0.186555957	-2.0575526777	 0.105028
H	 2.1963891432	-2.0200669135	 0.9402355243	 0.108568
H	 2.9587389207	-0.4107390375	 1.0310442454	 0.105861
H	 1.4419604812	 0.0101251835	 3.3342710433	 0.118601
H	-0.1203618818	 0.8219964661	 2.8498807199	 0.11072
H	-0.9138435295	-1.2593649314	 2.1240204865	 0.226506
