18
gdb 22587	3.99211	0.9875	0.83269	1.554	80.76	-0.227	-0.0341	0.1929	1348.1039	0.148065	-439.061004	-439.052479	-439.051534	-439.094096	32.768	
O	-0.048058201	 1.3633389169	-0.0583036873	-0.394326
N	 0.0510969021	-0.034841142	-0.0128755911	-0.21156
C	-1.09659465	-0.6086249184	 0.0523106683	 0.358411
C	-1.1049309477	-2.1191966963	 0.0843935967	-0.302794
C	-2.2361078465	-2.6403743337	 0.9809270196	-0.218068
C	-3.5890247514	-2.1052094665	 0.5125826438	 0.09091
O	-4.5440975983	-2.435461959	 1.5168667935	-0.434218
C	-3.5284609914	-0.6152380171	 0.271434937	-0.109157
C	-2.3919456319	 0.0670061862	 0.0795165417	-0.114456
H	 0.8759078606	 1.6272279602	-0.1133377154	 0.307348
H	-1.2542124068	-2.493881284	-0.9384686025	 0.113572
H	-0.1295772804	-2.4816566977	 0.4165472807	 0.12125
H	-2.254695074	-3.7337909457	 0.9902837417	 0.105331
H	-2.0863069025	-2.3057372746	 2.0134760355	 0.119521
H	-3.860247416	-2.6035696525	-0.4362719466	 0.077014
H	-5.4156703786	-2.1724863969	 1.2040999476	 0.282043
H	-4.4821457302	-0.0897645244	 0.266078027	 0.090738
H	-2.3992991261	 1.1401224054	-0.0636657803	 0.118439
