27
gdb 113071	2.03862	1.07868	0.87397	0.1569	95.86	-0.2706	0.0784	0.349	1562.661	0.251244	-353.561238	-353.550258	-353.549314	-353.597257	41.205	
C	-0.042189111	 1.3755322051	-0.6622332799	-0.382899
C	-0.0923928618	-0.1468913201	-0.4940543285	-0.184068
C	-1.3773907324	-0.6219728715	 0.1871590648	 0.027373
C	-2.6575192841	-0.5822771495	-0.7016878198	-0.247826
C	-2.6687533172	-2.139514013	-0.7740785531	 0.027373
C	-2.294285229	-2.7344385446	-2.1330530792	-0.184068
C	-3.4120966061	-2.584603373	-3.1706584136	-0.382899
C	-1.5787879191	-2.1678430456	 0.3522958111	-0.006562
C	-0.388051596	-3.113733826	 0.2459305314	-0.412352
H	 0.8810305771	 1.6919616275	-1.1578927001	 0.108817
H	-0.8827449995	 1.73977491	-1.2628038152	 0.117184
H	-0.0895077967	 1.8796572821	 0.3096128214	 0.112342
H	 0.0132744618	-0.6232950733	-1.4770545084	 0.094675
H	 0.7736548205	-0.4735458761	 0.0958970117	 0.092701
H	-1.4803980545	-0.076174854	 1.1322977097	 0.056389
H	-3.5295665773	-0.1611682883	-0.1949670735	 0.092406
H	-2.5473721647	-0.0675522973	-1.6622777445	 0.09
H	-3.6180232339	-2.588199812	-0.4588632176	 0.056389
H	-1.380529843	-2.2612260833	-2.5145456688	 0.094675
H	-2.0560466641	-3.7988569691	-2.0104141687	 0.092701
H	-4.3238060139	-3.0962517444	-2.8422257729	 0.112342
H	-3.6669239578	-1.5320514649	-3.3352469683	 0.117184
H	-3.1199579311	-3.009791136	-4.1360654921	 0.108817
H	-2.0746469152	-2.3535617387	 1.3116520902	 0.0652
H	 0.1643946106	-2.9910705502	-0.6899006718	 0.114688
H	 0.3163951076	-2.9479229678	 1.0688179821	 0.109709
H	-0.7137913993	-4.1585462258	 0.3019905335	 0.109709
