23
gdb 36726	5.16846	0.66527	0.61692	0.9367	92.	-0.2566	0.059	0.3156	1843.4606	0.206181	-351.145043	-351.135232	-351.134287	-351.18102	36.325	
C	-0.0968278155	-1.2416939972	-0.1690258023	-0.436561
C	-0.0771497094	-0.0418463373	-0.0960829365	 0.294149
C	-0.0176170256	 1.4119865291	-0.0061872441	-0.363643
C	 1.4269524956	 1.9541261469	 0.0422012018	-0.200717
C	 1.5010617687	 3.4808616126	 0.1020601	 0.054305
C	 0.9034992424	 4.1164485242	 1.3797051727	-0.202167
C	 1.6187312971	 5.4869994051	 1.5528136283	-0.208998
C	 2.7566645326	 5.5100809462	 0.4969864933	-0.204514
C	 2.9334770504	 4.0424908061	 0.07702457	-0.218519
H	-0.1271290517	-2.3008268982	-0.233711997	 0.191072
H	-0.5419492158	 1.8519241557	-0.8652570856	 0.126464
H	-0.5664144023	 1.7423951209	 0.884460278	 0.132211
H	 1.9378287427	 1.5266636683	 0.914217534	 0.104276
H	 1.965074777	 1.5901960023	-0.8408488445	 0.104618
H	 0.9673680232	 3.8882846469	-0.7703013036	 0.065461
H	-0.1840920279	 4.2192770758	 1.3287153732	 0.095322
H	 1.1175277164	 3.4668071651	 2.237513372	 0.095365
H	 0.9304424044	 6.3248954377	 1.4112716353	 0.097411
H	 2.0202825922	 5.5847269957	 2.5656874298	 0.099654
H	 2.4514743633	 6.1040742905	-0.3721154688	 0.096728
H	 3.6780119047	 5.9585147865	 0.8787959319	 0.093429
H	 3.5472776234	 3.5061360929	 0.8137439714	 0.092933
H	 3.4210047841	 3.9273714842	-0.8960859795	 0.09172
