19
gdb 112532	2.20931	1.22459	1.12854	1.3019	76.84	-0.2526	0.0344	0.2871	1209.5879	0.157464	-422.970957	-422.961376	-422.960431	-423.005396	35.719	
O	 0.1349402444	 0.986687586	-0.8229650017	-0.426288
C	-0.0151285009	-0.3806027536	-0.4628016707	-0.090955
C	-1.4062132837	-0.5417757877	 0.1275374217	-0.023579
C	-2.5593433677	-0.4413360393	-0.9078549684	-0.23988
C	-2.7300662703	-1.9995681974	-0.8838217535	-0.231167
C	-2.1279219486	-2.7070992761	-1.9953701982	 0.310487
C	-1.5703061635	-3.3186200932	-2.8712107031	-0.457151
C	-1.8253524945	-2.0191238104	 0.4106287711	 0.12075
O	-0.8506134293	-3.0136100213	 0.537387227	-0.426124
H	 1.0012422664	 1.0960453971	-1.2255975413	 0.28592
H	 0.1072235846	-1.0332457788	-1.3411411417	 0.086289
H	 0.7332900387	-0.6883483679	 0.2825579974	 0.098024
H	-1.4926565597	 0.1307999593	 0.9853354467	 0.078691
H	-3.445640266	 0.0651442942	-0.521086784	 0.106744
H	-2.2947383329	-0.0050042724	-1.8713421903	 0.122647
H	-3.7514861434	-2.3580297257	-0.7283653804	 0.104446
H	-1.1178809875	-3.8485144297	-3.6729554843	 0.202543
H	-2.4552319717	-2.078344323	 1.3027033455	 0.093465
H	-0.5690474745	-3.2646498201	-0.3527311017	 0.285137
