17
gdb 67823	2.63407	2.3028	1.63054	0.8906	71.27	-0.2324	0.0029	0.2353	850.9606	0.137654	-421.795418	-421.78889	-421.787946	-421.825733	27.953	
O	-0.0547739452	 1.4066693425	-0.0610823635	-0.494759
C	 0.0070981259	 0.0094172637	-0.101428978	 0.373703
C	 0.6089111441	-0.6604349008	-1.2933344643	-0.16009
C	 0.1457408984	-1.916721335	-1.3308250346	-0.08139
C	-0.6852704959	-2.1091100797	-0.0841218493	 0.033667
O	 0.3053875061	-2.0945230432	 1.0188740176	-0.277329
C	 0.2954485183	-0.7163979647	 1.334505011	 0.018808
C	-1.1872737769	-0.4535194388	 1.6703807626	-0.254212
C	-1.3466736747	-0.7238294227	 0.1583663683	-0.09779
H	 0.8303802177	 1.7440816874	 0.1102011574	 0.284423
H	 1.34382956	-0.2038108651	-1.9455675404	 0.09945
H	 0.4391826107	-2.7105469038	-2.0053757823	 0.10556
H	-1.2978376884	-3.0053068811	-0.0009014616	 0.078548
H	 1.1406304704	-0.4506687548	 1.9693529436	 0.076572
H	-1.6512371153	-1.1398018134	 2.3809766625	 0.096342
H	-1.3998397734	 0.5874071679	 1.9126640316	 0.116536
H	-2.2329528118	-0.4809679685	-0.4270794606	 0.081961
