16
gdb 29583	2.95997	1.31715	0.96808	2.4876	71.42	-0.2008	0.0207	0.2215	1176.2222	0.125025	-437.875379	-437.867315	-437.866371	-437.908598	29.93	
N	-0.1007860754	 1.4764610761	-0.0411350138	-0.609962
C	-0.0436008026	 0.0733622437	-0.0335589788	 0.085656
C	-1.0716756551	-0.821623872	-0.0439744912	-0.070981
O	-0.5930189567	-2.0987199512	 0.0732551819	-0.149607
C	 0.7525469737	-2.0092580651	 0.1490626748	-0.094129
C	 1.1604016342	-0.711123053	 0.0976694947	 0.209236
C	 2.5509528519	-0.2203114245	 0.1675073482	-0.058291
C	 3.384271196	-0.3716723231	 1.37571568	-0.164315
O	 3.5721642745	-1.2175927447	 0.2408913821	-0.231298
H	 0.6145042649	 1.8947320055	-0.6235942564	 0.244616
H	-1.003902205	 1.8254935854	-0.3362558513	 0.244612
H	-2.1414784141	-0.7189832133	-0.111323663	 0.123921
H	 1.2982771569	-2.9345161477	 0.221141547	 0.148675
H	 2.7978106383	 0.6128989924	-0.4944943155	 0.0873
H	 4.1912397504	 0.3337191707	 1.5708977961	 0.115209
H	 2.9517464281	-0.8529288492	 2.2507440452	 0.119358
