13
gdb 5705	5.05115	2.17184	1.54283	1.9521	59.51	-0.1711	0.0434	0.2144	755.5589	0.097938	-398.591428	-398.585338	-398.584394	-398.621443	23.398	
C	 0.0669260375	 1.3850907697	-0.1349321601	 0.005885
O	 1.4610487645	 1.7857921893	-0.0548560048	-0.28573
C	 1.970944224	 0.7211160007	 0.637012642	 0.328245
C	 1.1471739747	-0.3535571907	 0.6443985595	 0.267425
O	-0.0127524538	-0.0392106252	-0.0538904627	-0.28171
C	 1.8599472471	-1.4646953013	 1.1506087696	-0.312461
C	 3.1267202276	-0.9798216909	 1.4395502103	-0.076466
N	 3.2013709524	 0.3673555196	 1.0876790861	-0.380213
H	-0.4613171081	 1.8308560443	 0.723090209	 0.103791
H	-0.3432636139	 1.7248479675	-1.086735561	 0.132462
H	 1.5205702217	-2.4755283587	 1.3071034874	 0.107632
H	 3.9527006329	-1.4519351162	 1.9447600708	 0.120382
H	 3.9733599733	 0.979199342	 1.2847776239	 0.270759
