19
gdb 109899	2.96097	1.41122	1.21635	2.1883	71.13	-0.2443	0.0531	0.2974	1094.1074	0.159006	-460.103802	-460.0953	-460.094356	-460.13723	31.765	
C	 0.1306168555	 1.188425621	-0.2772018669	-0.24832
O	 0.0095998681	-0.1463958899	 0.1883313584	-0.242919
C	-1.2958891562	-0.6420346049	 0.1209220962	 0.104874
C	-1.7487482303	-1.2308735212	-1.2662628075	 0.069846
O	-0.6977614795	-1.3562167426	-2.1886218699	-0.431198
C	-2.2117722538	-2.539811713	-0.5272497686	-0.119802
C	-1.1325006736	-3.6206532926	-0.5133872106	-0.082461
O	-0.4087196816	-2.9296775952	 0.5397100206	-0.295426
C	-1.5067349402	-2.0220284066	 0.7651557312	 0.059491
H	 1.1796789518	 1.4713180943	-0.1654952809	 0.133243
H	-0.1556254926	 1.2763707194	-1.3332326879	 0.126611
H	-0.4900814411	 1.8738861507	 0.3182810266	 0.111668
H	-2.0271083658	 0.083702801	 0.5096763069	 0.066547
H	-2.5636653513	-0.6945365679	-1.7595642013	 0.083159
H	 0.119616346	-1.3266055277	-1.6714226095	 0.299013
H	-3.2612718356	-2.8177142942	-0.6034682546	 0.075575
H	-1.4821097461	-4.6036636366	-0.1732710969	 0.098224
H	-0.5376267913	-3.7308835217	-1.4248117933	 0.117415
H	-1.8931667326	-2.0777559321	 1.7867665082	 0.07446
