18
gdb 85688	2.39912	1.40386	1.07048	0.8746	78.39	-0.2419	0.0301	0.272	1178.4884	0.145606	-401.86634	-401.857426	-401.856482	-401.89994	33.635	
C	-1.0557023705	 1.0916723864	-0.0330313682	-0.398953
C	-0.0577187019	-0.0522011601	-0.0276363737	-0.031551
N	 1.2143804418	 0.209779107	-0.7630323121	-0.330978
C	 2.0308976262	-0.4448052557	 0.3024531672	-0.268482
C	 3.2670614309	 0.2217860655	 0.6727133462	 0.352502
C	 4.2891560437	 0.7608993463	 1.004790773	-0.438347
C	 0.794733385	-0.317503832	 1.2176748956	 0.417674
C	 0.7012076825	 0.1988795842	 2.5773529738	-0.254271
O	 0.4791239756	-1.1933000007	 2.2664392179	-0.268479
H	-0.5750318435	 2.0212031574	 0.2838410268	 0.126061
H	-1.4629652656	 1.2447284115	-1.037896558	 0.119715
H	-1.8947707694	 0.8759041931	 0.6375347803	 0.119286
H	-0.5491012104	-0.9890735234	-0.3328220026	 0.079075
H	 1.2867865425	-0.2388129464	-1.6696901222	 0.223413
H	 2.2280150886	-1.5109357061	 0.1137784592	 0.104155
H	 5.192148489	 1.2432542622	 1.2873116742	 0.197526
H	 1.614443803	 0.411211392	 3.129466582	 0.131288
H	-0.1837381575	 0.7490279588	 2.8915128307	 0.120367
