19
gdb 26317	3.77935	1.02769	0.85632	1.8781	77.78	-0.199	0.0543	0.2533	1367.2355	0.159783	-419.263522	-419.254419	-419.253475	-419.297378	34.422	
C	-0.0008522752	 1.4497344272	-0.2322268249	-0.378796
C	-0.0190716205	-0.0590164023	 0.0755101528	-0.069279
C	 0.7584998762	-0.3769699258	 1.3578836547	-0.393603
C	-1.4282847182	-0.5768448807	 0.1228123863	 0.293407
C	-2.1060161281	-1.1648370783	 1.1532136557	-0.206528
N	-3.3796931551	-1.4415544513	 0.6570852534	-0.308314
C	-3.3873437385	-1.0086249545	-0.625621187	 0.441326
O	-4.4976585754	-1.1468278944	-1.3715646511	-0.426407
N	-2.2527043675	-0.4847441032	-0.997518611	-0.418002
H	 1.0256602555	 1.8069116814	-0.3677462342	 0.101193
H	-0.5673963521	 1.6625611905	-1.1418320347	 0.131281
H	-0.4531366619	 2.0170576416	 0.5891471239	 0.107829
H	 0.48145334	-0.5657768388	-0.7618919556	 0.085338
H	 0.7828648776	-1.4531146279	 1.5566926864	 0.111753
H	 1.7913394978	-0.0243344544	 1.279285029	 0.109101
H	 0.305699155	 0.118058572	 2.2248591096	 0.112051
H	-1.8299997227	-1.4157584254	 2.1624214015	 0.125061
H	-4.1452902516	-1.8785568914	 1.1399556915	 0.269376
H	-4.2843766052	-0.7779566044	-2.2377964864	 0.313211
