14
gdb 5548	3.37305	1.97345	1.3133	2.8232	60.78	-0.1917	0.0139	0.2055	897.3822	0.107735	-415.86885	-415.861167	-415.860223	-415.901185	27.161	
C	-0.3195724503	 1.2517005779	-0.0966099385	-0.252679
O	 0.5801784908	 0.1586858342	 0.1327366956	-0.27013
C	 0.8692719631	-0.5777899004	-0.9470726364	 0.317328
C	 0.7200196655	-1.8972177871	-1.2370086564	 0.167631
N	 0.1944956952	-2.9320570786	-0.466428973	-0.599666
N	 1.2872529812	-2.1456389231	-2.479425196	-0.299702
C	 1.7397244061	-0.9972071182	-2.8678506369	 0.074914
O	 1.545150013	 0.0145111966	-1.9992784297	-0.182586
H	 0.1290260769	 1.9901835499	-0.7686375836	 0.138739
H	-1.2627896211	 0.8940699461	-0.5262968329	 0.120938
H	-0.503573775	 1.7073112236	 0.8775019841	 0.137767
H	-0.4538720073	-2.6087373997	 0.2388665213	 0.247406
H	-0.2257940881	-3.6496558211	-1.0427234623	 0.253148
H	 2.2377435199	-0.7577741802	-3.7940071153	 0.146893
