21
gdb 40132	2.65152	1.53462	1.16844	0.4802	90.7	-0.2102	-0.02	0.1903	1133.738	0.184728	-349.95681	-349.948712	-349.947768	-349.990095	32.282	
C	 0.0519540733	 1.5475834045	 0.0098469391	-0.283561
C	 1.3447052038	 0.7654940519	-0.0066835818	-0.321421
C	 0.0181089725	 0.0399915117	 0.0021379648	 0.371706
C	-0.3707705418	-0.6551947788	 1.2979337346	-0.343311
C	-1.8428149082	-0.7135556877	 1.609313439	-0.064098
C	-2.8772342212	-0.7169104702	 0.7563430166	-0.065944
C	-2.891178769	-0.7093559484	-0.70452494	-0.065958
C	-1.8732471285	-0.6969198766	-1.5770257429	-0.064086
C	-0.3955153225	-0.6413979017	-1.2933164503	-0.343302
H	-0.2269332855	 2.059419253	 0.9248406415	 0.109024
H	-0.2443290243	 2.0691152328	-0.8941376038	 0.109025
H	 1.9277883121	 0.7577833912	-0.9219105982	 0.105852
H	 1.9451829647	 0.7480939116	 0.8970914767	 0.105852
H	 0.0409845703	-1.6769145807	 1.3052052188	 0.110795
H	 0.1301238595	-0.1447949701	 2.1300951633	 0.098951
H	-2.079617863	-0.7641591244	 2.670339485	 0.08552
H	-3.8684136744	-0.7597842769	 1.2034557058	 0.079845
H	-3.8907140246	-0.7478335926	-1.1330504295	 0.079844
H	-2.1302947942	-0.7366144841	-2.633797492	 0.08552
H	 0.0892544422	-0.1219539396	-2.1294258158	 0.098954
H	 0.0161479487	-1.6628478349	-1.3194524809	 0.110793
