17
gdb 105134	2.55281	1.23863	1.0044	1.5674	83.69	-0.2402	0.0209	0.2612	1232.9278	0.131554	-384.590827	-384.581118	-384.580174	-384.625201	35.75	
C	 0.1678008747	 1.314524733	 0.2079882546	-0.252354
O	-0.1895976947	-0.0052228585	-0.1723096917	-0.260768
C	 0.5880198077	-0.5257195433	-1.200565098	 0.242305
C	 1.931855622	-1.1201556319	-0.8322769931	-0.343235
C	 0.770866735	-2.0455166892	-1.1592945103	-0.295357
C	 0.1376643253	-2.8192816495	-0.1348094582	 0.349803
C	-0.3896472574	-3.4991275161	 0.7047699768	-0.436149
C	 0.4288224727	 0.098104442	-2.4914485889	 0.299776
C	 0.2914742044	 0.633524034	-3.5596882941	-0.466735
H	 1.2082947496	 1.3638747813	 0.5582097618	 0.109603
H	 0.0402153065	 2.0197895435	-0.6231114697	 0.124626
H	-0.5009053003	 1.5925351305	 1.0247134832	 0.132998
H	 2.7455158026	-1.0539370931	-1.5443708138	 0.130381
H	 2.2062790332	-1.0451912189	 0.2133080383	 0.137562
H	 0.8034832321	-2.5139462347	-2.1379404733	 0.131957
H	-0.8639336035	-4.0880468105	 1.4498605773	 0.195414
H	 0.1638014901	 1.1001296213	-4.5051946908	 0.200171
