18
gdb 63362	2.89615	1.13465	1.03864	5.4121	77.86	-0.2606	-0.0435	0.2172	1233.4022	0.145528	-401.979659	-401.970218	-401.969274	-402.01428	34.148	
C	-0.8108498651	 1.5170164921	 0.1949086765	-0.444574
C	-0.1563854615	 0.1499172983	 0.0030290229	 0.185518
C	-1.1727577935	-0.9922806199	 0.150777229	-0.438236
C	 0.7805931086	-0.0139480378	-1.2435815524	-0.290564
C	 1.9411745449	-0.5480460191	-0.337763248	-0.276063
C	 3.2665586729	 0.0129873409	-0.4900745492	 0.282267
N	 4.3125713132	 0.4913908094	-0.6094314301	-0.31894
C	 1.0813695096	-0.0883371318	 0.8889569243	 0.385419
O	 1.3302227806	 0.0827976556	 2.0404515927	-0.278703
H	-0.0843444196	 2.3284324805	 0.0908437727	 0.129167
H	-1.6014217769	 1.6697392968	-0.5474286108	 0.12465
H	-1.2575349044	 1.5911996413	 1.1907993483	 0.139768
H	-1.9579787315	-0.8935038217	-0.6059945914	 0.129416
H	-0.707709558	-1.9757040967	 0.025189823	 0.121664
H	-1.6416882727	-0.9649042528	 1.1387056429	 0.140242
H	 0.4414506892	-0.7097654311	-2.0115342634	 0.121909
H	 1.0350076055	 0.9403230424	-1.7069499391	 0.134433
H	 1.9990558087	-1.6418302264	-0.348925528	 0.152625
