19
gdb 121541	5.4275	0.4945	0.46915	1.8976	84.54	-0.2539	0.0162	0.2701	2335.1671	0.156235	-422.957962	-422.947668	-422.946724	-422.995702	34.788	
C	 0.4239303163	 1.4254359582	 0.0992103115	-0.386943
C	-0.0284065165	-0.0057045941	-0.1314951649	-0.017639
O	 0.7485433405	-0.5565306764	-1.1787296567	-0.24101
C	 0.3960263001	-1.8948511445	-1.4639947245	-0.208719
C	 1.2258681991	-2.4181673494	-2.5399470589	 0.025059
C	 1.9079695833	-2.8728197599	-3.4218097471	 0.171441
C	 2.6981777985	-3.413518886	-4.4926138267	-0.123216
C	 4.08536575	-2.9657369182	-4.7309217942	-0.157854
O	 3.8279218917	-4.2327622384	-4.1429431169	-0.214268
H	 1.4818982411	 1.4530233235	 0.3743264074	 0.130202
H	 0.2900221087	 2.0205932554	-0.80834336	 0.129587
H	-0.1577459615	 1.8829608405	 0.9049731951	 0.11598
H	 0.0929990045	-0.604994847	 0.7871204473	 0.087899
H	-1.0994075422	-0.0373805596	-0.3958677215	 0.086945
H	 0.5168422195	-2.5273637131	-0.5668529187	 0.120066
H	-0.6680964479	-1.9623435052	-1.7514342771	 0.116708
H	 2.1370922269	-3.7882848187	-5.3479597426	 0.117297
H	 4.4787763931	-2.9842068858	-5.7466177901	 0.119755
H	 4.5155621548	-2.2172410013	-4.0685617816	 0.12871
