18
gdb 14472	2.77734	2.36433	1.95112	0.7932	71.53	-0.2288	0.0769	0.3056	808.4765	0.153533	-347.759089	-347.751589	-347.750645	-347.7903	29.403	
C	-0.0494760451	 1.5497226218	-0.0305223601	-0.527214
C	 0.0139431044	 0.0596496192	 0.0065742913	 0.312456
C	 0.0309753183	-1.0144876085	-1.0558081567	-0.110841
C	 1.2993198799	-1.6546664611	-0.4953361429	-0.296495
C	 0.9099677864	-0.9540614267	 0.8385063051	 0.338598
O	 1.8623586717	-0.5140801419	 1.7460905104	-0.47973
C	-0.3891900966	-1.6821114279	 1.289842131	-0.296502
C	-1.0292412904	-1.0317065311	 0.065113489	-0.11084
H	 0.9089865043	 1.9859667102	-0.333981331	 0.124851
H	-0.8095750807	 1.8862067379	-0.7442341233	 0.118723
H	-0.3056202439	 1.9662414369	 0.9502675045	 0.124851
H	-0.2617353341	-0.9161790176	-2.0935596145	 0.081882
H	 1.3928046114	-2.7478764849	-0.4927569433	 0.079454
H	 2.1976688857	-1.2007545727	-0.9230829039	 0.099905
H	 2.2899845664	-1.2834878774	 2.1390088765	 0.279657
H	-0.3646267957	-2.7764427482	 1.3652793676	 0.079457
H	-0.7731221804	-1.2490482522	 2.2177898327	 0.099903
H	-2.0830814816	-0.9457584457	-0.1679234524	 0.081882
