12
gdb 25072	6.18304	0.91582	0.80161	1.9269	60.11	-0.262	-0.0102	0.2518	1281.2432	0.077533	-472.680249	-472.672823	-472.671879	-472.71314	26.102	
O	-0.4128930814	 0.2084541708	-0.9339319962	-0.356086
C	-0.2047662306	 1.2487508154	-0.4060278328	 0.503698
O	-1.0532030515	 1.9213624178	 0.4303366943	-0.207942
C	-0.4196777036	 3.0847314417	 0.8191497929	-0.10941
C	 0.7788304968	 3.1319771095	 0.2451375001	 0.319845
C	 1.9118515655	 4.1003136202	 0.2634793169	-0.456877
C	 1.6190002092	 5.2531750456	 1.1124798999	 0.277978
N	 1.3741918245	 6.1577795275	 1.7864374987	-0.290894
O	 0.9429238758	 1.9982511956	-0.5273539134	-0.247761
H	-0.9449006794	 3.7451296759	 1.4856244451	 0.193246
H	 2.824252384	 3.6078927299	 0.6237258984	 0.187101
H	 2.1295460307	 4.4467916001	-0.754996374	 0.187102
