16
gdb 52270	3.46513	1.00692	0.81817	5.3661	67.22	-0.2746	0.0094	0.284	1330.4584	0.123614	-475.033309	-475.024696	-475.023752	-475.068003	29.862	
N	-0.633747222	 1.2004644816	-0.3318209275	-0.53486
C	-0.3550049342	 0.0041869877	-0.0870749859	 0.434151
O	 0.8415959266	-0.6000177064	 0.2392717566	-0.248242
C	 0.1891796389	-1.8960028222	 0.4157151955	-0.10859
C	-1.167943054	-1.2742051737	 0.0179045993	-0.137267
C	-2.2851321886	-1.2907306179	 1.0556315476	-0.110091
O	-3.4647618389	-0.6806237453	 0.5389659024	-0.182153
C	-3.7123823258	 0.6116994281	 0.8667202528	 0.191936
O	-4.673705097	 1.1909544348	 0.467068708	-0.270321
H	 0.188667783	 1.8038031491	-0.2823722309	 0.235954
H	 0.6016570997	-2.6425962776	-0.265636033	 0.132774
H	 0.2771741766	-2.2367213181	 1.4514501189	 0.12496
H	-1.556362198	-1.620329074	-0.9423020086	 0.131798
H	-2.5566461977	-2.321550015	 1.3021045309	 0.131009
H	-1.9645412798	-0.7926319999	 1.9798505535	 0.119682
H	-2.9462165288	 1.0388383888	 1.5375494602	 0.089261
