18
gdb 91303	2.53046	1.59139	1.16731	3.6347	75.34	-0.255	0.0211	0.2762	1073.9956	0.148124	-401.931408	-401.923293	-401.922349	-401.964388	30.677	
C	 0.0837630445	 1.3486845248	-0.551772373	-0.410318
C	-0.0401846973	 0.0020301895	 0.1271748423	 0.147031
O	 0.3364282233	-1.1121201062	-0.7342180785	-0.306185
C	 1.1855179744	-1.6715957222	 0.2758454938	 0.125411
C	 2.6656483918	-1.2428880288	 0.1145113712	-0.261568
C	 2.4371298858	-0.1331535457	 1.2019954591	-0.147851
C	 2.8930979121	 1.2234226517	 0.944705593	 0.277271
N	 3.2784937165	 2.2963361776	 0.7494885139	-0.336932
C	 0.9157885813	-0.4881474507	 1.246078658	-0.136346
H	 1.090584838	 1.5311663634	-0.930485349	 0.143573
H	-0.6120765794	 1.3885362351	-1.3958794562	 0.128078
H	-0.1755890891	 2.154633812	 0.1422182243	 0.128043
H	-1.0780722149	-0.1407558861	 0.4611664567	 0.086143
H	 0.9680112769	-2.7211613524	 0.4872519261	 0.085745
H	 3.4199433373	-1.9800770904	 0.3958973259	 0.117617
H	 2.8754807616	-0.8667553474	-0.8872192814	 0.13593
H	 2.8871817371	-0.448672177	 2.1479663635	 0.133497
H	 0.4835797903	-0.5776446273	 2.2412326103	 0.090863
