14
gdb 18569	3.9921	2.06238	1.69139	4.276	56.63	-0.2702	0.0036	0.2738	764.0526	0.109219	-419.704917	-419.698858	-419.697914	-419.735273	22.896	
O	-0.2375242942	 0.1882506114	 0.4406369183	-0.321094
C	-0.0674410651	 1.2997638618	 0.060519479	 0.464787
O	-0.9926593813	 2.1552352057	-0.4864703766	-0.251866
C	 0.0049493474	 3.2184986531	-0.6503917741	 0.106294
C	-0.1662490909	 4.3336596911	 0.3707866805	-0.10513
O	 0.3139738842	 3.8002650035	 1.5980238239	-0.244476
C	 1.4414426659	 2.9905753381	 1.2889870626	-0.096617
C	 1.088642947	 2.3021677121	-0.0358189992	-0.255046
H	 0.0723397123	 3.5296601083	-1.6920959278	 0.106063
H	 0.4266947365	 5.2085868407	 0.0557497232	 0.09943
H	-1.2061162506	 4.6366395473	 0.5108835104	 0.136266
H	 2.3479362755	 3.6037023593	 1.1625463128	 0.102553
H	 1.596249742	 2.2951115357	 2.1167385792	 0.140346
H	 1.9393062413	 1.986198212	-0.6376080323	 0.11849
