15
gdb 47212	2.11242	1.77829	1.27562	4.7951	71.98	-0.2736	-0.0256	0.248	1016.3615	0.113845	-416.827546	-416.819623	-416.818678	-416.861074	28.552	
N	-0.1910341459	 1.3757166888	 0.1405699095	-0.502918
C	-0.0457137555	 0.1409482937	-0.0815958209	 0.399938
O	 1.1491041874	-0.4172306033	-0.3845860567	-0.248764
C	 1.2578796758	-1.7901717386	-0.793003168	-0.124956
C	 0.008653567	-2.3415098823	-1.4095547511	-0.066585
C	-1.1822094537	-1.8711614859	-1.0630466062	-0.076589
C	-1.2623140081	-0.782037286	-0.01051352	-0.267458
C	-1.3644481266	-1.3830897972	 1.329173006	 0.278558
N	-1.4372491177	-1.8801520274	 2.3699612184	-0.319755
H	 0.703038964	 1.8627794883	 0.0531767959	 0.229121
H	 2.0906261803	-1.8119598117	-1.5018600992	 0.138707
H	 1.5545788753	-2.3902146645	 0.0793673909	 0.148236
H	 0.121976058	-3.1433874473	-2.1316054292	 0.12199
H	-2.1089399274	-2.2506299619	-1.476905812	 0.126518
H	-2.135815943	-0.1421520648	-0.1547234973	 0.163958
