19
gdb 72123	2.4671	2.16384	1.72737	1.4433	78.15	-0.2303	0.0099	0.2402	894.2844	0.161584	-385.879197	-385.872433	-385.871489	-385.909765	28.935	
C	 0.0198453621	 1.4839897692	-0.0865348659	-0.507321
C	-0.0510384554	-0.0126111893	-0.0014753594	 0.458279
O	 0.2310765883	-0.7229340189	-1.2305252763	-0.337084
C	-0.3776411139	-1.8598092381	-0.5479943433	 0.050225
C	 0.7239062935	-2.189310715	 0.4635440117	-0.210174
C	 0.7331046726	-0.773153344	 1.1533015433	-0.141975
C	-0.2990969097	-0.8482635795	 2.2553019072	-0.089647
C	-1.5100519543	-0.9710565049	 1.6931977101	-0.098787
C	-1.3432672268	-0.8476311787	 0.211043588	-0.120131
H	 1.0449493129	 1.8057638258	-0.2990318366	 0.128007
H	-0.6290663269	 1.8577489288	-0.8834696802	 0.126742
H	-0.290973504	 1.9311180296	 0.8621493298	 0.129232
H	-0.7534548346	-2.6339957851	-1.2153440774	 0.079091
H	 0.4977051252	-2.9981103753	 1.1610631647	 0.096566
H	 1.6517858214	-2.4046291056	-0.0706804173	 0.108161
H	 1.716520399	-0.3865846076	 1.419189296	 0.06353
H	-0.0621183563	-0.91773616	 3.3103658055	 0.095635
H	-2.4513646819	-1.1336969087	 2.2028096248	 0.096853
H	-2.1997881811	-0.5590285126	-0.3972321246	 0.072799
