14
gdb 128351	7.08795	0.90531	0.80796	1.7675	76.09	-0.2309	-0.0512	0.1797	1353.8289	0.100485	-432.831949	-432.823584	-432.822639	-432.86515	29.837	
C	 0.0641142032	 1.4278544946	 0.077907047	-0.328448
N	-0.082713527	-0.0050349578	-0.104946477	-0.39852
C	 0.5830585657	-0.6448569091	-1.1002915839	 0.426145
N	 1.1935372482	-0.0232388734	-2.092693906	-0.201009
O	 1.672078296	-1.0863832761	-2.8803530731	-0.208609
C	 1.3059200412	-2.2152189413	-2.2563251719	 0.293947
N	 0.6357800409	-2.0208482902	-1.1567927794	-0.381322
C	 1.6737633179	-3.4474675117	-2.8417299112	 0.242856
C	 1.992387218	-4.4892843492	-3.3486705413	-0.3354
H	 1.0877484822	 1.7204533134	 0.3484980891	 0.130825
H	-0.1980130736	 1.9421587899	-0.8502593536	 0.158513
H	-0.6205217942	 1.754703108	 0.8627097359	 0.129692
H	-0.2498733821	-0.5732033585	 0.709524645	 0.259967
H	 2.2713753936	-5.4129849087	-3.7940594698	 0.211363
