17
gdb 125287	5.00493	1.2097	0.98606	1.5024	83.88	-0.1987	0.0034	0.2021	1174.0322	0.138753	-380.907464	-380.900083	-380.899139	-380.939012	29.01	
C	-0.0212893945	 1.4631884378	 0.0784458957	-0.485005
C	-0.0003328654	-0.02768436	-0.0219310963	 0.297651
C	-0.0372008895	-0.7705339618	-1.1506809131	-0.336097
C	 0.0018905871	-2.183768223	-0.8010116108	 0.274653
C	 0.0042990554	-3.4869247716	-1.243340369	-0.231184
N	 0.067732307	-4.2518589867	-0.1095674629	-0.188445
N	 0.1054523778	-3.5331934057	 1.0426923144	-0.330917
C	 0.0654998604	-2.2865074258	 0.6099421298	 0.322995
C	 0.0692248694	-0.9165569268	 1.2230334372	-0.451512
H	 0.8739696304	 1.8456345472	 0.5861097622	 0.125217
H	-0.0716700826	 1.9276625698	-0.9102923443	 0.123735
H	-0.8821391087	 1.8158790237	 0.6615782164	 0.12524
H	-0.0880188651	-0.367188684	-2.1546628212	 0.093416
H	-0.0309702756	-3.9411530523	-2.2206068488	 0.130288
H	 0.0875555153	-5.2552457616	-0.0522626511	 0.270064
H	 0.9713618579	-0.712721907	 1.8141718924	 0.129951
H	-0.7840826893	-0.7423854923	 1.8911432495	 0.129951
