23
gdb 115270	3.44641	0.96382	0.92785	2.7764	81.21	-0.2449	0.0694	0.3143	1403.2709	0.205328	-425.44004	-425.430217	-425.429272	-425.474696	37.366	
C	-0.3287058396	 1.6194847991	 0.1270744607	-0.444953
C	 0.0916365932	 0.1490070316	 0.0599585945	 0.293235
C	-1.1184686963	-0.7456981618	-0.2573698431	-0.424452
C	 1.2128208264	-0.09862052	-0.9658383556	-0.104062
O	 1.8249720196	-1.3220149027	-0.5765374571	-0.287624
C	 1.7815291042	-1.4238436453	 0.8619091619	 0.107027
C	 3.2049869835	-1.2778413787	 1.3936572484	-0.061328
O	 4.0714532613	-2.2206132748	 0.8002118624	-0.424772
C	 0.8055682514	-0.3348103047	 1.3484544013	-0.294502
H	 0.5255908899	 2.2700643691	 0.3432668195	 0.112341
H	-0.770865598	 1.9478736907	-0.8203431908	 0.115241
H	-1.0778427639	 1.7784046904	 0.9099853726	 0.117688
H	-1.5971139789	-0.4366818842	-1.1929901353	 0.111639
H	-0.8182377241	-1.7921292083	-0.3645058907	 0.129333
H	-1.8692049771	-0.6855755807	 0.5377246179	 0.111109
H	 0.8499032526	-0.2178910451	-1.9915685379	 0.105251
H	 1.9385670614	 0.7307997853	-0.9516748083	 0.083082
H	 1.4260677327	-2.4356198735	 1.0901986694	 0.084183
H	 3.5493079726	-0.2438051696	 1.2156920371	 0.077208
H	 3.2246110558	-1.4504962942	 2.4759950788	 0.104231
H	 3.8936524552	-2.1679530878	-0.1473883541	 0.287987
H	 1.3602596164	 0.4942946108	 1.8037041103	 0.096559
H	 0.1043572118	-0.7111420156	 2.0974995883	 0.105581
