17
gdb 97615	2.46893	0.7713	0.62411	2.7173	85.71	-0.2482	-0.0361	0.2122	1795.1422	0.131561	-384.634157	-384.623575	-384.622631	-384.673529	35.797	
C	 0.2238688117	 1.4475936716	 0.363484501	-0.366715
C	-0.2399940131	 0.0767092467	-0.1624966483	-0.316437
C	 0.4900745607	-0.3548666822	-1.3495794612	 0.097963
C	 1.1050368806	-0.6702631323	-2.335806817	 0.051472
C	 1.8579793004	-1.1377893905	-3.5006040488	-0.404407
C	 2.1768332857	-2.6431475664	-3.2941474149	 0.179689
O	 3.2887621678	-3.0770914786	-3.2033194795	-0.233351
C	 1.124979929	-0.9878330068	-4.7584635032	 0.312159
C	 0.534005629	-0.9291504154	-5.8024960243	-0.43492
H	 1.283254311	 1.4226909809	 0.6319890429	 0.13183
H	 0.0853738718	 2.2219324515	-0.3955898489	 0.132156
H	-0.3511003516	 1.726758056	 1.2510703462	 0.118611
H	-0.1248722459	-0.678300484	 0.6255094191	 0.13498
H	-1.3122984436	 0.1128265467	-0.3924673233	 0.135342
H	 2.8261767242	-0.626186161	-3.5650531119	 0.149626
H	 1.2695317672	-3.2777974042	-3.2300800302	 0.105168
H	 0.0106118849	-0.853126192	-6.7236272375	 0.206834
