18
gdb 61475	2.62927	0.88905	0.8277	4.081	77.	-0.2828	0.0142	0.2969	1463.8707	0.147352	-398.157748	-398.147694	-398.14675	-398.193368	35.4	
C	-1.552947622	-0.3435291299	 0.139134349	-0.405047
C	-0.0803145575	 0.1005991258	 0.0671928324	-0.127691
C	 0.7249621965	-0.3807623824	 1.2936639969	-0.182132
C	 2.1642033966	 0.1713371603	 1.3166051272	-0.151451
N	 2.1501503171	 1.6353777446	 1.3669871139	-0.497146
C	 2.9212794792	-0.4409103053	 2.4289552761	 0.260576
N	 3.509315343	-0.8767730468	 3.3239758353	-0.316007
C	 0.5470884032	-0.3762189555	-1.1706313671	 0.273023
N	 1.0566893233	-0.7610041131	-2.1344678089	-0.330656
H	-2.0193974847	 0.0673073047	 1.0388613132	 0.128723
H	-2.1101564338	 0.0110050265	-0.7310457601	 0.142709
H	-1.6330117923	-1.4336531964	 0.1751267573	 0.140304
H	-0.0281949576	 1.1945920721	 0.045909424	 0.151155
H	 0.2018231252	-0.0537265355	 2.1993904564	 0.119177
H	 0.7559146928	-1.4743183106	 1.3167663222	 0.137983
H	 2.658715153	-0.1221830936	 0.3831361951	 0.159443
H	 1.8707564116	 1.9496189629	 2.2923683429	 0.244267
H	 3.0822688164	 2.0028531823	 1.204557494	 0.252769
