14
gdb 77804	2.42655	1.52604	1.12766	1.999	66.25	-0.2635	-0.0538	0.2097	1059.035	0.099021	-473.786888	-473.778974	-473.778029	-473.819631	29.164	
O	 0.0207405106	 1.3976620036	 0.0083625047	-0.412868
C	-0.0075966623	 0.0224501684	 0.0619178962	 0.088087
C	-0.3553845979	-0.8093335794	 1.2887815157	-0.298398
C	-1.516048488	-0.1786382818	 1.9802861792	 0.443824
N	-1.7956933471	 0.0906750136	 3.1663447834	-0.541599
O	-2.2719328879	-0.004445646	 0.8071164395	-0.297306
C	-1.2948077999	-0.7510690285	 0.0494258226	 0.279738
C	-1.7145363067	-1.8073901832	-0.8842177704	 0.069213
O	-2.8571532036	-2.0807315211	-1.1454118617	-0.25034
H	-0.8535131353	 1.7249410827	 0.2588749732	 0.308727
H	 0.7988121437	-0.4112351961	-0.5236855845	 0.139315
H	 0.2600516097	-1.6149260841	 1.6632167502	 0.141373
H	-2.7235993199	 0.5068653603	 3.2551030077	 0.243673
H	-0.8513175853	-2.3373697384	-1.3459968956	 0.086562
