18
gdb 111190	2.75932	1.24428	0.99673	2.4374	79.34	-0.2415	0.0171	0.2587	1215.8237	0.14753	-401.81756	-401.809269	-401.808325	-401.850661	32.024	
O	 0.0476722213	 1.4118648344	 0.6230118447	-0.419024
C	 0.1754073557	 0.0962030573	 0.1098839366	-0.117662
C	-1.196487983	-0.5462864102	 0.0190813064	 0.054859
C	-1.4927698748	-2.0671155549	 0.0362289858	-0.10079
C	-1.1076793937	-2.0168883237	 1.527088446	-0.185194
N	-1.9408166042	-0.7283994987	 1.374874096	-0.18024
C	-2.9016281732	-1.6459421524	 0.5556181608	-0.160588
C	-3.8750236911	-1.0105561435	-0.3058086063	 0.337078
C	-4.7210119738	-0.5275454622	-1.0108266733	-0.427671
H	-0.5301540353	 1.3496666295	 1.3936229287	 0.296225
H	 0.5957368128	 0.1898672627	-0.8979886224	 0.111423
H	 0.8900955321	-0.4940840248	 0.7003239247	 0.089479
H	-1.8046122159	 0.041601855	-0.6726794089	 0.102583
H	-1.2622100508	-2.8265058098	-0.7178911255	 0.076597
H	-1.5663943937	-2.747801508	 2.1982285891	 0.105887
H	-0.0682346262	-1.8459327078	 1.7994022351	 0.111253
H	-3.3933159609	-2.3733119802	 1.2085864346	 0.10495
H	-5.4617770355	-0.0897084827	-1.6336219822	 0.200837
