17
gdb 114331	2.36319	1.34024	1.14714	1.573	63.75	-0.2399	0.0433	0.2832	1126.2292	0.133927	-496.029241	-496.020313	-496.019369	-496.062763	33.431	
O	 0.0335935088	 1.4436802912	-0.2250052522	-0.41601
C	 0.0986796479	 0.081215443	 0.1613092619	-0.10481
C	-1.2605985733	-0.5807805271	 0.0511408866	 0.055414
O	-1.7590042563	-0.6470939206	-1.3309575079	-0.333625
C	-2.1527539232	-2.017193491	-1.1504457764	-0.031802
C	-0.9234048914	-2.8486819285	-0.9918325558	 0.040667
O	 0.2615509686	-2.5744752371	-1.6712506782	-0.427689
C	-1.4592574893	-2.0877629391	 0.2114084271	 0.226883
O	-1.8784854802	-2.6840963504	 1.3810828011	-0.450158
H	-0.3044489066	 1.4636848621	-1.1272819434	 0.292642
H	 0.8438827686	-0.4784197241	-0.4187882818	 0.104576
H	 0.4149259044	 0.0685154869	 1.210785917	 0.11458
H	-1.9941242447	-0.0277292192	 0.6506583023	 0.105325
H	-3.1220383783	-2.3219018234	-1.5273349406	 0.117628
H	-1.1167801362	-3.9162907381	-0.9084101577	 0.116281
H	 0.1015545828	-1.7618435725	-2.1687820032	 0.293657
H	-1.1337110614	-3.156512642	 1.7690422612	 0.296439
