19
gdb 37578	2.84418	2.4052	1.83771	0.0785	79.88	-0.2225	0.0843	0.3069	828.5302	0.164069	-348.697269	-348.691639	-348.690695	-348.726736	25.84	
C	-0.001517748	 1.5026382491	 0.0483579554	-0.250873
C	 1.3809455526	 2.1103827158	-0.0505708811	-0.041153
C	 2.4471398839	 1.5489095017	-0.9508389079	-0.095371
C	 2.588141763	 1.4783932737	 0.5864274299	-0.095371
C	 2.5102781642	-0.0684487008	 0.5218933407	-0.036366
C	 1.151921796	-0.8097176339	 0.6132008808	-0.095371
C	 0.0512506076	-0.0080121608	-0.0257785158	-0.041153
C	 1.0109145803	-0.7391958792	-0.9240645021	-0.095371
C	 2.36940252	 0.0020030128	-1.013952454	-0.036366
H	-0.4734906249	 1.8099261113	 0.9913281326	 0.093595
H	-0.6342600471	 1.890328443	-0.7614016293	 0.093595
H	 1.3972334212	 3.1964828956	-0.0022446992	 0.079804
H	 2.9831059537	 2.1743312328	-1.6552974438	 0.076915
H	 3.248276432	 2.0417131871	 1.2357092777	 0.076915
H	 3.3633365064	-0.5989813159	 0.9426144366	 0.066466
H	 0.9385246347	-1.6380645939	 1.2787659598	 0.076915
H	-0.9191643799	-0.4938694279	 0.0409427949	 0.079804
H	 0.6733391084	-1.5054415538	-1.612239213	 0.076915
H	 3.1274591361	-0.4810192866	-1.628947802	 0.066466
