17
gdb 78490	3.55974	1.33366	1.28119	1.462	66.68	-0.2526	0.0685	0.3211	1027.3726	0.13703	-458.913079	-458.905869	-458.904925	-458.944704	28.309	
O	-0.0425118457	 1.3189590508	-0.0646025841	-0.440191
C	-0.0209412533	-0.0778118296	 0.009197774	 0.097687
C	-0.4922758796	-0.6767038182	 1.3088929827	-0.134224
C	-1.3873397667	-0.6752939486	 0.0427690196	-0.09736
C	-1.3138461675	-2.2050738687	-0.0075453653	 0.059726
O	-0.512619138	-2.7910929886	-1.024793407	-0.262235
C	 0.5007935531	-3.5037044352	-0.3399024428	 0.018152
O	 0.8103157593	-2.7850800713	 0.8395374154	-0.264714
C	-0.4195650038	-2.204778917	 1.258761391	 0.058195
H	 0.748157034	 1.6476093768	 0.3757529218	 0.289702
H	 0.7709826283	-0.5626432295	-0.5578234365	 0.103799
H	-0.5837582279	-0.072383664	 2.2021820661	 0.091855
H	-2.259808577	-0.0725335396	-0.1715337702	 0.101018
H	-2.2819792876	-2.7071955745	 0.080938482	 0.08471
H	 0.1532141629	-4.5220969151	-0.0903474106	 0.088872
H	 1.3916731322	-3.5537903883	-0.9723430384	 0.121223
H	-0.8222242626	-2.7126906194	 2.1404989025	 0.083784
