25
gdb 89297	2.07722	1.61509	1.09551	0.164	92.52	-0.2536	0.0739	0.3274	1260.3291	0.228626	-352.341493	-352.331759	-352.330815	-352.375717	38.193	
C	 0.4449486383	 1.5921590099	-0.3992352466	-0.40996
C	 0.008888712	 0.1629733876	-0.0943485203	 0.048173
C	 0.442638554	-0.9519580757	-1.0993817549	-0.312372
C	 1.0906622023	-1.7524312832	 0.0581700705	 0.40358
C	 0.7724887712	-3.2263102651	 0.185089873	-0.496986
C	 2.564856045	-1.3246549787	 0.3529462956	-0.31142
C	 2.0761727908	-0.5007563034	 1.5796266135	 0.066859
C	 2.7189939014	 0.8386351774	 1.919285587	-0.422484
C	 0.6079668738	-0.6643123487	 1.0965193039	-0.121516
H	 1.5051272133	 1.6533695419	-0.6614793736	 0.116517
H	-0.1200803948	 1.9814786425	-1.2542754169	 0.109095
H	 0.267786563	 2.26299048	 0.448213737	 0.112673
H	-1.0807900886	 0.1630334043	 0.0149696381	 0.071799
H	-0.4008930808	-1.4646483628	-1.572149467	 0.089536
H	 1.1319749857	-0.6352830501	-1.8897439791	 0.08663
H	 1.231085084	-3.7993388687	-0.6309532744	 0.113187
H	 1.1492272172	-3.6394137727	 1.1281662519	 0.11037
H	-0.3080356848	-3.4069260938	 0.1493508693	 0.109259
H	 3.2626095317	-2.1377747644	 0.5742884684	 0.091007
H	 3.0010825547	-0.7128331858	-0.4437918051	 0.088821
H	 2.1630346869	-1.1426765523	 2.4655783381	 0.072099
H	 2.7789690482	 1.5069026125	 1.0575389302	 0.115351
H	 2.1604347991	 1.3584861845	 2.7061763802	 0.11066
H	 3.7404233805	 0.6871718646	 2.2875833362	 0.108789
H	-0.1188763441	-0.8854027797	 1.8828993053	 0.050335
