17
gdb 4078	4.36638	1.50133	1.16931	1.2065	76.47	-0.2219	-0.0273	0.1946	1012.9217	0.143901	-363.848987	-363.84171	-363.840766	-363.880387	28.242	
O	-0.0691454992	 1.3709214473	 0.0362355593	-0.396064
N	 0.0451417074	-0.0284766173	 0.0001855581	-0.214821
C	-1.0985313367	-0.6139379727	-0.0208619138	 0.358586
C	-1.0895891705	-2.1245662304	-0.0391848797	-0.279155
C	-2.2210135676	-2.6571738046	-0.9304950917	-0.213258
C	-3.5826447995	-2.120145255	-0.4654268178	-0.248851
C	-3.5384232333	-0.6442727362	-0.1759400501	-0.066109
C	-2.4020720534	 0.0453334939	-0.0003109782	-0.11164
H	 0.8531506151	 1.64412141	 0.0677958062	 0.305699
H	-0.1097587702	-2.4793001971	-0.3674869835	 0.115513
H	-1.2392605034	-2.4911324225	 0.9865662969	 0.110583
H	-2.0439279046	-2.3372158619	-1.9644212912	 0.109746
H	-2.2221681563	-3.7517980771	-0.9297911048	 0.097298
H	-4.3538888368	-2.3254717312	-1.2180227248	 0.108276
H	-3.9123433781	-2.6533450219	 0.4399839903	 0.114668
H	-4.491442578	-0.1236489266	-0.1153870467	 0.096442
H	-2.417745085	 1.1138611334	 0.1730820915	 0.113087
