20
gdb 8552	2.76318	2.60654	1.65723	0.3335	78.98	-0.2333	0.0936	0.3269	868.9893	0.177319	-311.831735	-311.824136	-311.823191	-311.862885	30.417	
C	-0.0767330231	 1.4761015456	 0.0265102993	-0.507128
C	 0.0289710078	-0.0201617525	-0.0160956096	 0.307645
C	 0.0146562659	-0.8829179666	-1.2812241563	-0.275116
C	-0.2468813403	-2.086630664	-0.3406064104	-0.061663
C	 1.0699928581	-2.2111270091	 0.4671290494	-0.275127
C	 0.6997033531	-0.8645741981	 1.0954141492	 0.307664
C	 1.3137935415	-0.2746262174	 2.3309929845	-0.507131
C	-0.7646521679	-1.0629334279	 0.7494900983	-0.17287
H	 0.8306798019	 1.9526179623	-0.3646287896	 0.116865
H	-0.9197493855	 1.8245693253	-0.5814815682	 0.116023
H	-0.2318056282	 1.8493775641	 1.0434205764	 0.117194
H	-0.8585810279	-0.6470709371	-1.8982981544	 0.090027
H	 0.9107358123	-0.91984963	-1.9142608642	 0.079447
H	-0.7728404185	-2.9707509256	-0.6947896389	 0.064996
H	 1.0196473399	-3.0109644228	 1.213229686	 0.090017
H	 2.0059524112	-2.2981261588	-0.0998640263	 0.079464
H	 2.3489747515	 0.0411193147	 2.1516660186	 0.116864
H	 0.7608995616	 0.5992782897	 2.6888906672	 0.117196
H	 1.3296978979	-1.0074483107	 3.146150313	 0.116027
H	-1.6638822414	-0.9920372113	 1.3459822363	 0.079604
