17
gdb 30635	4.47186	1.08051	0.88265	3.2548	77.9	-0.2177	-0.0049	0.2128	1290.2073	0.137423	-418.078303	-418.069699	-418.068755	-418.112555	30.938	
C	 0.0065114095	 1.4661166188	-0.089044113	-0.323995
N	-0.0364041384	 0.0148169182	-0.0641272606	-0.362305
C	-1.2182712838	-0.6356173106	 0.1353585524	 0.518784
O	-2.2754612577	-0.0877121	 0.3624102767	-0.386827
N	-1.119777242	-2.0497185725	 0.0724066552	-0.103533
C	 0.014678952	-2.8501223108	 0.1103293885	-0.097928
C	-0.3836198534	-4.1539120032	 0.0021341176	-0.168955
C	-1.8092592174	-4.160801793	-0.1094527085	-0.189587
C	-2.2325333986	-2.8622393107	-0.0570712338	-0.047639
H	 0.9856270273	 1.8101354763	 0.2538785701	 0.128041
H	-0.1828256008	 1.8722674937	-1.0905114866	 0.131438
H	-0.7652101243	 1.8419945079	 0.5826341969	 0.16979
H	 0.7103168317	-0.4870807831	-0.5144667638	 0.253298
H	 0.9914467249	-2.4292844172	 0.2807799204	 0.123312
H	 0.268570424	-5.013975945	 0.0151694155	 0.103168
H	-2.4441238015	-5.0269298091	-0.2153129069	 0.10401
H	-3.2084776216	-2.4109842498	-0.1030457999	 0.148927
