21
gdb 51545	4.70554	0.74821	0.7192	3.0313	84.93	-0.2419	-0.0177	0.2242	1620.1473	0.18122	-387.075627	-387.066302	-387.065358	-387.111019	34.03	
O	-0.7793172975	 0.3943857493	 0.196932651	-0.240353
C	-0.176999708	 1.4368208614	 0.1793230712	 0.167099
C	 1.2420997726	 1.6116298259	-0.3209761729	-0.301304
C	 1.3424418059	 2.7158142698	-1.357801469	-0.08934
C	 1.4225879675	 4.1714683543	-0.9378329764	-0.350599
C	 2.6166397147	 3.4890734346	-1.5414218211	 0.369198
C	 3.9752447899	 3.2858662269	-0.8516489108	-0.291079
C	 4.6423499652	 4.0047804854	-2.0627278883	-0.206323
C	 3.3067576434	 3.8848200772	-2.8547616464	-0.295161
H	-0.6512508721	 2.3802068065	 0.5370177166	 0.073812
H	 1.8665515328	 1.8712010257	 0.5460270235	 0.117374
H	 1.5922055784	 0.649866007	-0.7092227433	 0.119558
H	 0.7802534074	 2.5207997338	-2.2688834085	 0.09242
H	 0.8890089648	 4.9072973998	-1.5313700748	 0.113519
H	 1.4500683216	 4.3940513168	 0.1254802212	 0.109057
H	 4.1089310803	 3.7492475761	 0.1295994338	 0.099006
H	 4.2619873535	 2.2314936558	-0.7782040119	 0.102847
H	 4.8995417321	 5.0423880506	-1.8377095016	 0.106876
H	 5.5164998259	 3.5174479297	-2.4989004589	 0.101058
H	 3.3209392507	 3.0711428654	-3.5872009525	 0.10229
H	 2.9436629008	 4.789795858	-3.3496798208	 0.100045
