19
gdb 68125	3.99987	1.21675	1.0949	0.8951	87.58	-0.2295	0.0088	0.2383	1162.4796	0.158328	-348.695263	-348.687088	-348.686144	-348.727323	33.376	
C	-0.0082434377	 1.5556759115	 0.0290303062	-0.508452
C	 0.0251881506	 0.0453306719	 0.0270319572	 0.269432
C	 0.9671950806	-0.7843469803	-0.9171498154	-0.273204
C	 0.6129243018	-1.9322181304	 0.1040530999	 0.224292
C	 0.6581688556	-0.7939667907	 1.1941420446	-0.273203
C	-0.9145621107	-2.0160358106	-0.1198780382	-0.138174
C	-1.288070786	-0.737871283	-0.1687785591	-0.129884
C	 1.3803639393	-3.1455032192	 0.2108549213	 0.033742
C	 2.0283869325	-4.1550446357	 0.3011016394	-0.342738
H	 0.9917879121	 1.9757318147	 0.177098531	 0.116228
H	-0.3959479242	 1.9435585955	-0.9197523377	 0.119569
H	-0.6517566534	 1.9355734299	 0.8306072423	 0.119571
H	 0.6499823889	-0.9318238008	-1.9516677476	 0.098293
H	 2.0169336954	-0.4789883223	-0.8633597247	 0.098907
H	 1.678892416	-0.4895221804	 1.4461834625	 0.098907
H	 0.0579668502	-0.95024696	 2.0929941551	 0.098292
H	-1.4819903031	-2.9308268076	-0.2070781712	 0.111308
H	-2.2685968886	-0.3043883638	-0.3103476063	 0.102102
H	 2.6004288403	-5.0457438187	 0.3807576836	 0.17501
