21
gdb 38191	3.12704	1.78736	1.76468	0.2649	86.45	-0.2557	0.0962	0.3519	917.4075	0.186657	-349.864991	-349.858775	-349.857831	-349.894911	28.5	
C	-0.051828171	 1.549154266	-0.011372559	-0.006127
C	-0.4829968519	 1.8538483121	 1.464573811	-0.357448
C	 0.4386697168	 0.8193087822	 2.1370241684	 0.319466
C	 1.8274991596	 0.8493976998	 2.8522871133	-0.28596
C	 1.74126561	-0.5480921961	 2.1465304609	-0.176822
C	 0.2780571761	-0.6276785939	 2.7042246451	-0.285939
C	 1.1471150954	 0.198617836	 0.9132623073	 0.341249
C	-0.0298343067	-0.0181866029	-0.0743590167	-0.302313
C	 1.5114534777	 1.4506771749	 0.0723997536	-0.302304
H	-0.5283895851	 2.1284613743	-0.804349733	 0.058806
H	-0.2693377985	 2.886402346	 1.7573463008	 0.101217
H	-1.5478711827	 1.6681206907	 1.6350994466	 0.101215
H	 2.5771417237	 1.5483141652	 2.4793457779	 0.094195
H	 1.8208883954	 0.8289408977	 3.9457702861	 0.086459
H	 2.4925322031	-1.33951388	 2.1794314823	 0.065776
H	 0.1898069428	-0.7258119884	 3.789931743	 0.086439
H	-0.4118504886	-1.3009260466	 2.1939933768	 0.094202
H	-0.9206071305	-0.5557106959	 0.2577233245	 0.091438
H	 0.276057308	-0.3778295234	-1.0603617122	 0.092517
H	 1.9534512302	 1.2207295854	-0.9006854706	 0.092517
H	 2.0515690361	 2.276513997	 0.5403362039	 0.091417
