16
gdb 27418	2.48124	1.72125	1.15398	2.6988	82.4	-0.2405	-0.0702	0.1703	1065.9604	0.125248	-396.945098	-396.93724	-396.936296	-396.977502	29.487	
C	-0.3617309573	 1.4483341561	 0.0803061743	-0.466325
C	-0.0163435728	-0.0120381962	-0.0777741968	 0.281572
N	-0.2087068712	-0.5540044896	-1.233846407	-0.257262
C	 0.1082227938	-1.8805719222	-1.4942998842	 0.280627
N	 0.8746573324	-2.2082284579	-2.4564475037	-0.475154
C	-0.6045473774	-2.8419605988	-0.5973865994	-0.068679
N	-0.4046841371	-2.9192674497	 0.6637032126	-0.176067
C	 0.3674259258	-2.0138098872	 1.3580133509	-0.001954
C	 0.5175194308	-0.6920635008	 1.0913680337	-0.128269
H	 0.5266176765	 2.015332415	 0.3824741057	 0.139112
H	-0.7370776874	 1.8479487928	-0.8616075275	 0.149435
H	-1.1130494333	 1.5905442832	 0.8649207536	 0.13862
H	 0.9279439206	-3.226681163	-2.5307350905	 0.220122
H	-1.322804235	-3.5310698894	-1.0468961907	 0.136318
H	 0.7722790959	-2.4120568639	 2.2849838334	 0.122761
H	 0.9701627656	-0.0727564183	 1.8611322857	 0.105142
