23
gdb 104462	2.96631	1.16929	1.03746	2.1695	81.15	-0.2515	0.0622	0.3137	1272.3759	0.207014	-425.450532	-425.441273	-425.440328	-425.483852	36.741	
O	-0.0669287884	 1.4510038854	 0.1106313255	-0.437099
C	 0.0134012783	 0.0314866639	-0.0182952926	-0.134591
C	-1.4230804514	-0.5013426105	-0.0107601667	 0.388115
O	-2.0579601778	-0.0373338857	 1.1828529135	-0.482041
C	-2.2007645855	-0.0145938164	-1.2541910836	-0.217167
C	-3.6301736553	-0.5697200596	-1.2770501183	-0.195051
C	-3.6314068304	-2.1032869241	-1.2129287309	-0.183356
C	-2.8553714493	-2.6039555853	 0.013341569	-0.197752
C	-1.4292365826	-2.0347148203	 0.0510156213	-0.214781
H	 0.797304408	 1.7871602479	 0.3614390802	 0.294283
H	 0.5266592874	-0.2524502553	-0.9488954046	 0.088175
H	 0.559888737	-0.4053991328	 0.8294382572	 0.091367
H	-1.8155682203	 0.8948750264	 1.2552943205	 0.281914
H	-2.2037955112	 1.0800963461	-1.2669717724	 0.098918
H	-1.6624516031	-0.3388154527	-2.1558850335	 0.082295
H	-4.175295415	-0.1700058793	-0.4143101069	 0.106107
H	-4.151986788	-0.2226863884	-2.1759652988	 0.082226
H	-4.6590689952	-2.4834895502	-1.191062905	 0.086727
H	-3.1697687833	-2.5057040056	-2.1264330424	 0.08427
H	-3.378942591	-2.2967679112	 0.9255545201	 0.114997
H	-2.8157151617	-3.699027596	 0.0214228751	 0.083325
H	-0.8520717519	-2.4218601431	-0.7995330406	 0.086067
H	-0.9166455289	-2.3546156233	 0.9651007739	 0.093052
