19
gdb 66492	3.57033	1.78657	1.66629	1.3489	83.93	-0.188	-0.0703	0.1177	901.8191	0.159997	-348.612144	-348.605353	-348.604408	-348.642645	29.151	
C	-0.0249453362	 1.5570705715	-0.0941691163	-0.521497
C	-0.0022333391	 0.065224538	 0.0438846293	 0.365512
C	 0.4596750367	-1.0200013697	-0.8972271369	-0.119689
C	 1.1818529585	-0.7988861563	 0.4229870488	-0.126853
C	 0.6866089542	-1.8778084391	 1.4015099386	-0.030495
C	-0.5531998407	-1.4847398737	 1.8635252599	-0.085183
C	-1.1107100207	-0.8318088873	 0.6295820235	-0.148819
C	-0.604516411	-2.0324008044	-0.4324708038	-0.048983
C	 0.2187479494	-3.053658103	 0.4952404228	-0.245353
H	 0.9041629661	 1.9176684955	-0.5485968332	 0.119897
H	-0.8549839682	 1.895817853	-0.7250278243	 0.116104
H	-0.1259741497	 2.044952481	 0.8823068923	 0.123353
H	 0.9367749829	-0.9603804775	-1.8682999456	 0.080971
H	 2.1894613494	-0.4034371967	 0.4453023545	 0.078174
H	-1.1820900868	-2.1773965888	 2.4229047305	 0.101992
H	-2.1509617042	-0.5100635988	 0.5850195268	 0.069844
H	-1.2877524533	-2.4303554968	-1.188091665	 0.064372
H	 1.0036253767	-3.5562112509	-0.0806187396	 0.101035
H	-0.4047859038	-3.7953146663	 0.9981340979	 0.105618
