20
gdb 96413	2.01901	1.61664	1.18611	3.4229	77.79	-0.2747	0.0293	0.3039	1132.941	0.173206	-403.190308	-403.181792	-403.180848	-403.223192	33.05	
O	 0.0673775459	 1.4214353042	-0.0469751401	-0.436711
C	 0.0334670703	 0.0114678478	 0.0198396686	 0.130267
C	 0.842855221	-0.5536490283	 1.191495344	-0.227568
C	 0.8158492227	-2.0900220863	 1.215932696	-0.201365
C	-0.6220590944	-2.627496729	 1.2420895444	-0.195638
C	-1.4452147449	-2.0764404695	 0.0707028292	-0.219406
C	-1.4264087245	-0.5296955283	 0.0283868862	-0.157408
C	-2.154794231	 0.0547083736	 1.159140458	 0.264552
N	-2.6935047404	 0.5387134384	 2.0612145669	-0.339765
H	-0.2869703932	 1.7701780873	 0.7802994799	 0.291827
H	 0.4804413265	-0.3284926795	-0.922336641	 0.095651
H	 1.868332853	-0.1782500878	 1.1187588914	 0.109094
H	 0.4250532219	-0.1629738956	 2.1300234521	 0.110657
H	 1.3324687793	-2.4762587365	 0.3264850666	 0.098204
H	 1.3745910665	-2.4583615092	 2.0824529605	 0.103271
H	-0.6207940644	-3.7218462625	 1.2055931816	 0.101399
H	-1.1026152628	-2.3454941723	 2.1875971217	 0.120045
H	-1.0247992226	-2.4328221048	-0.8778968208	 0.107398
H	-2.4785120426	-2.4334152138	 0.1143166751	 0.117504
H	-1.9186427262	-0.1750028679	-0.8839540004	 0.127994
