23
gdb 120876	4.72587	0.81679	0.77163	1.0336	87.66	-0.2392	0.0881	0.3272	1610.0837	0.204414	-388.265684	-388.255888	-388.254944	-388.300654	36.675	
C	 0.0474783889	 1.4981497912	-0.0204961747	-0.384037
C	-0.1157108977	-0.000762779	-0.2101567336	-0.03445
O	 0.9433144427	-0.4688771343	-1.022216489	-0.255804
C	 0.9128608633	-1.855835614	-1.2485985413	 0.155322
C	-0.1190641811	-2.4283182424	-2.2873497837	-0.331648
C	 1.0605079483	-2.9806319	-3.1031869886	 0.364271
C	 1.0755556408	-4.3196052404	-3.7815903206	-0.494594
C	 1.9411937148	-1.8330238181	-3.5060361958	-0.31711
C	 2.0583888691	-2.371608495	-2.103088736	-0.133477
H	 1.0058528092	 1.7213533772	 0.4568676484	 0.125901
H	 0.0194844917	 2.0116827883	-0.9858417015	 0.124943
H	-0.7559769561	 1.894680525	 0.6076248856	 0.11188
H	-0.1013566644	-0.5178107136	 0.7648351771	 0.082527
H	-1.0888197961	-0.2254093505	-0.6770464017	 0.087636
H	 0.8376595536	-2.391692556	-0.2906164465	 0.062724
H	-0.759551675	-3.2045950441	-1.860216294	 0.096021
H	-0.7455682173	-1.6881697958	-2.7963113536	 0.094227
H	 0.4176361905	-4.3274580625	-4.6594633969	 0.118963
H	 2.0829121507	-4.5792082149	-4.1238761977	 0.116524
H	 0.7349675194	-5.1145448283	-3.1077001551	 0.113428
H	 2.7694667786	-2.0908262801	-4.1590979697	 0.104657
H	 1.5302353148	-0.8410957144	-3.6724976277	 0.113085
H	 2.9884489415	-2.776572098	-1.7216059234	 0.079011
