21
gdb 79151	4.42133	1.18981	1.12411	1.4502	82.41	-0.2334	0.0985	0.3319	1187.1731	0.183502	-387.056001	-387.048095	-387.047151	-387.087998	31.84	
C	-0.1579823763	 1.5924812721	-0.0193141118	-0.431964
C	 0.0129092834	 0.0797806234	 0.0155418727	 0.01641
C	 1.2266055004	-0.598497046	-0.6714725944	-0.102838
C	 2.139581552	-0.186947365	 0.5244991599	 0.137849
O	 3.1293974914	-1.1681975056	 0.756552162	-0.299526
C	 2.4030278747	-2.4035433549	 0.5682897457	 0.11124
C	 2.5035883155	-3.2820830098	 1.8066206128	-0.400849
C	 1.0177885626	-1.8501771902	 0.2471284722	-0.059144
C	 0.7852521232	-0.6047131485	 1.1738516551	-0.09856
H	 0.7699744411	 2.1290594722	 0.1972476391	 0.11706
H	-0.5066693226	 1.9193131586	-1.0052969048	 0.11655
H	-0.9054595568	 1.9145381689	 0.7143326539	 0.116434
H	-0.938975496	-0.4129396205	-0.2138917362	 0.063959
H	 1.4895816399	-0.6069424284	-1.7309448162	 0.066581
H	 2.5646376874	 0.8085357409	 0.6312317684	 0.082978
H	 2.8315854462	-2.9303056137	-0.2964147347	 0.074261
H	 2.0553110537	-2.7887888267	 2.6741955244	 0.118331
H	 1.9900792038	-4.2360424603	 1.6444326713	 0.110668
H	 3.5514129685	-3.494096936	 2.0378877683	 0.125752
H	 0.1996442642	-2.5433285529	 0.0474268955	 0.067142
H	 0.5360822136	-0.6148663173	 2.2363119969	 0.067667
