17
gdb 14385	3.78927	2.18832	1.90271	3.0832	66.71	-0.2343	0.0673	0.3016	769.0373	0.142393	-363.793578	-363.78672	-363.785776	-363.823939	27.805	
C	-0.1334749868	 1.4811854735	 0.0517456104	-0.464118
C	 0.0352952492	-0.0350438787	 0.032123807	 0.445332
O	-1.2124924006	-0.6882131658	 0.1555239847	-0.481055
C	 0.8751308067	-0.5261008923	-1.1406021944	-0.085555
C	 2.1239007617	-0.4366151129	-0.3434519467	-0.05088
C	 1.2149869172	-0.5384343895	 0.9366438454	-0.164816
C	 1.2121868893	-2.0470159062	 0.6622377041	-0.152808
N	 1.6227335924	-1.7725287347	-0.7606530008	-0.156904
H	 0.8260829756	 1.9957899076	-0.045383967	 0.12801
H	-0.7858559242	 1.8032975101	-0.7659536025	 0.127068
H	-0.590230403	 1.8027838917	 0.9963359133	 0.107458
H	-1.7266072309	-0.2393093285	 0.8350851893	 0.276069
H	 0.7124158941	-0.3624389405	-2.1982263844	 0.094671
H	 3.1076550903	-0.0445344095	-0.5604727763	 0.096978
H	 1.3830175291	-0.1020742789	 1.9206642922	 0.064449
H	 2.0299674324	-2.5808199432	 1.1523974224	 0.102196
H	 0.2676584074	-2.5844164523	 0.7814111832	 0.113907
