13
gdb 35589	3.95836	1.06217	0.91255	3.0694	72.71	-0.2732	-0.0514	0.2217	1213.4621	0.088899	-415.58995	-415.582043	-415.581099	-415.623281	28.131	
C	 0.2029217582	-1.0721640382	-0.2050912565	-0.341063
C	 0.0652633675	 0.1144869107	-0.0829956514	 0.276077
C	-0.0849506234	 1.5194708913	 0.0659230123	 0.263991
N	-1.1517833392	 2.1842443794	-0.1210830037	-0.305427
C	-0.835746729	 3.5832502969	 0.1546636812	-0.211006
C	 0.6891306709	 3.5786137744	 0.5168180051	-0.064777
O	 1.0515925659	 2.1854133061	 0.4596190507	-0.247047
C	 1.5191645586	 4.3462146182	-0.4160802787	 0.279541
N	 2.1477885182	 4.9819097056	-1.147456377	-0.306288
H	 0.3171260221	-2.1229936888	-0.3170716958	 0.216979
H	-1.0501242259	 4.2034111073	-0.7196308087	 0.152198
H	-1.4440716669	 3.9519165877	 0.985887742	 0.140151
H	 0.879893673	 3.9357154292	 1.5325187105	 0.146671
