19
gdb 69278	2.5092	1.52344	1.14593	4.2721	75.63	-0.2319	-0.0087	0.2232	1107.3339	0.159974	-423.047064	-423.038906	-423.037962	-423.079595	32.208	
O	-0.0640081374	 1.3937255852	-0.0050350015	-0.464364
C	 0.0336995196	-0.0054687453	-0.0207112909	 0.394073
C	-0.4864436099	-0.7122375571	-1.2322712828	-0.351604
C	-1.3138303992	-0.6971955873	 0.0608525102	-0.155048
C	-1.4736252217	-1.9475974296	 0.8573092319	 0.402524
O	-2.5640353276	-2.3407108562	 1.2113714102	-0.333046
C	-0.1833736285	-2.657132899	 1.2474956972	-0.313717
C	 0.8244387383	-1.6362057643	 1.803541967	-0.206747
C	 1.2248474064	-0.595047922	 0.7461182161	-0.285902
H	 0.6154483567	 1.7449483556	-0.5915561006	 0.28344
H	-0.8809408054	-0.1058134684	-2.0394595032	 0.125033
H	-0.0238301819	-1.6447155785	-1.5384905953	 0.118644
H	-2.1904892868	-0.0606408253	 0.0444617399	 0.11689
H	-0.4362011036	-3.4288187608	 1.977782523	 0.12253
H	 0.2434697558	-3.1602229114	 0.3687779969	 0.11316
H	 0.3721642233	-1.1272211384	 2.6632620538	 0.117111
H	 1.7161917038	-2.1505207794	 2.1758936111	 0.103918
H	 1.9340840699	-1.0441913276	 0.0394915445	 0.100476
H	 1.7409353782	 0.2384618397	 1.2311992524	 0.112628
