16
gdb 47759	2.12785	1.76148	1.23176	2.078	71.71	-0.2653	0.0003	0.2656	1043.2013	0.124737	-437.852815	-437.844772	-437.843828	-437.885675	30.065	
N	-0.0764107066	 1.2790194337	 0.1678849718	-0.491993
C	-0.0022963819	 0.0310843816	-0.0021157723	 0.3707
O	 1.1835062625	-0.6398281306	-0.1104490294	-0.251118
C	 1.2141820162	-1.7697302001	-0.9922770711	 0.016818
O	 0.1487793326	-2.6382065846	-0.8183781722	-0.2143
C	-1.0830799477	-1.9731171362	-1.0440506009	-0.11756
C	-1.2545531856	-0.8442350168	-0.0050641144	-0.227159
C	-1.4907772478	-1.3885168229	 1.3304261258	 0.355261
C	-1.6987831743	-1.8469531652	 2.4208011461	-0.478197
H	 0.8600130721	 1.6900113734	 0.1629871756	 0.225222
H	 1.2437603608	-1.387833122	-2.026982898	 0.098146
H	 2.1314511125	-2.3092008486	-0.7550821525	 0.135976
H	-1.1069530712	-1.5482842009	-2.0603442849	 0.104531
H	-1.8741093692	-2.7177939182	-0.9485281657	 0.133885
H	-2.0907488504	-0.1991525598	-0.2913130069	 0.136773
H	-1.877949972	-2.243633643	 3.3894883491	 0.203015
