17
gdb 69412	3.22273	1.19312	1.14133	1.8811	79.44	-0.2382	0.0086	0.2467	1139.8576	0.134843	-384.642022	-384.633846	-384.632902	-384.67446	32.301	
O	 0.004522435	 1.4433870849	 0.0336470406	-0.466993
C	 0.0269433167	 0.0500986902	 0.0391024737	 0.38108
C	-0.392241422	-0.7314228363	-1.1886791748	-0.358671
C	-1.256672936	-0.7478811805	 0.0548442344	-0.090075
C	-1.0762975005	-1.9139117976	 1.0422431335	-0.224558
C	 0.3723909493	-1.7507470048	 1.5022072114	-0.084802
C	 0.9475835083	-0.6731129114	 0.970705683	-0.152461
C	-2.0238259386	-1.8887961274	 2.1544255233	 0.31873
C	-2.8018510468	-1.8632441232	 3.07032734	-0.459784
H	 0.6644057541	 1.7519808066	-0.5961640818	 0.284678
H	-0.7860186801	-0.1543240558	-2.01979014	 0.112571
H	 0.1724505969	-1.6166555465	-1.4647458937	 0.112012
H	-2.2119663172	-0.2413966039	 0.0157083432	 0.110963
H	-1.193796543	-2.8720635238	 0.5153392705	 0.11472
H	 0.8374732114	-2.4673107089	 2.167829966	 0.108997
H	 1.9660099835	-0.3456243034	 1.147464956	 0.098835
H	-3.488289531	-1.8401896482	 3.8800630746	 0.194758
