18
gdb 132726	2.24478	1.74097	0.99252	1.3526	82.55	-0.2337	-0.0027	0.231	1162.6274	0.14723	-409.998811	-409.990365	-409.98942	-410.031734	32.071	
C	-0.1902042788	 1.5074805355	 0.0291408466	-0.494004
C	-0.069202153	 0.0040222249	 0.006943936	 0.251215
C	 0.0512776061	-0.6762114574	-1.2199525813	 0.068813
C	 0.0644371261	 0.0523547901	-2.5396191869	-0.50546
C	 0.159752637	-2.0644865338	-1.1778762103	 0.251895
F	 0.2761098404	-2.7394590258	-2.334999549	-0.088974
C	 0.1542771099	-2.7947814434	 0.0015357747	-0.255109
C	 0.0345744444	-2.1076058545	 1.2030567212	-0.106575
C	-0.075959951	-0.7198871741	 1.2008183614	-0.203348
H	 0.6791618269	 1.9904863645	-0.432587898	 0.130812
H	-1.0705209677	 1.8510697353	-0.5269932725	 0.130812
H	-0.2750768006	 1.8792315475	 1.0529613493	 0.123424
H	 0.1644469537	-0.6461696445	-3.370275486	 0.139239
H	-0.8569598025	 0.6274496466	-2.6872209726	 0.130492
H	 0.8945254752	 0.7662340513	-2.5931589848	 0.130503
H	 0.242720384	-3.873636703	-0.0429113776	 0.106656
H	 0.0275521838	-2.6541160144	 2.1398898289	 0.100925
H	-0.1693048839	-0.1860530449	 2.1411716908	 0.088682
