20
gdb 22283	4.17584	0.79038	0.69167	1.7114	80.1	-0.241	0.0078	0.2488	1612.9043	0.168376	-440.233355	-440.223434	-440.22249	-440.268683	36.643	
C	 0.1318158666	 1.4389359828	-0.1911653852	-0.406794
C	-0.0228547833	-0.0693501734	 0.0053351711	 0.123857
O	 0.7496261698	-0.5339914448	 1.1098182293	-0.430642
C	-1.480710903	-0.4972791475	 0.1422011327	 0.017667
C	-2.3696748059	-0.431480914	-1.1486230802	-0.343668
C	-2.7332090195	-1.879600104	-0.8946565238	 0.420078
C	-1.7457918676	-2.0338274913	 0.2429292601	-0.339533
N	-3.6259283864	-2.5958292557	-1.4351376319	-0.231848
O	-3.6564135692	-3.8804312301	-0.8565258417	-0.394845
H	 1.1884084435	 1.7028074714	-0.2864822478	 0.12644
H	-0.3944579203	 1.7820498803	-1.0876688415	 0.122149
H	-0.28160433	 1.9848970843	 0.6664407964	 0.106213
H	 0.4088629311	-0.5894567529	-0.8605115484	 0.085801
H	 0.439267017	-0.0743584791	 1.8981493767	 0.275932
H	-1.9435846393	 0.0476385686	 0.9733288637	 0.065582
H	-3.1959216997	 0.2835197387	-1.1496863294	 0.121646
H	-1.7860346545	-0.2846176679	-2.0649608864	 0.119403
H	-0.871750371	-2.6435102345	-0.0086789688	 0.132832
H	-2.1619295333	-2.4127380319	 1.1795648813	 0.124391
H	-4.3719385049	-4.3030766991	-1.343193286	 0.305341
