13
gdb 4318	3.87398	2.02336	1.32964	6.1149	64.26	-0.2264	-0.029	0.1974	846.9234	0.098554	-394.862747	-394.856099	-394.855155	-394.893393	25.446	
N	-0.0132533559	 1.3477804186	-0.091526388	-0.550513
C	 0.0147634189	-0.0117587241	-0.0371688525	 0.413154
N	-1.1457325368	-0.6320857524	-0.0190993117	-0.405272
C	-1.2006840322	-2.0011290149	-0.0074807331	 0.428323
O	-2.2116011092	-2.6714044142	 0.004958694	-0.396727
N	 0.0579154389	-2.6754563267	-0.0036570353	-0.343159
C	 1.2473704133	-2.0353230908	-0.0152127151	 0.060081
C	 1.2878925614	-0.6803098181	-0.0335541789	-0.236355
H	 0.809321999	 1.8799871645	 0.1301614832	 0.259966
H	-0.909822966	 1.7830675715	 0.054461806	 0.268633
H	-0.0003660569	-3.6824285067	 0.0106914486	 0.265525
H	 2.1368761851	-2.6554753094	-0.0101439084	 0.137353
H	 2.2242271202	-0.1407258973	-0.0527439687	 0.098992
