18
gdb 36187	3.83594	1.1193	1.10554	4.1771	79.22	-0.2618	0.0355	0.2973	1160.3141	0.14908	-364.778719	-364.771205	-364.77026	-364.811224	29.303	
N	-0.1641270886	-1.0593828237	-0.436197024	-0.309562
C	-0.0699772267	 0.0535532485	-0.1403553069	 0.266194
C	 0.0715458229	 1.4633000964	 0.2382490338	-0.471091
C	 1.4948100512	 1.9502216505	 0.1335344638	 0.367707
C	 2.6724795012	 1.5889994236	 1.0365016313	-0.281777
C	 3.395194138	 2.8046458109	 0.3928870042	-0.064802
C	 3.6021680795	 2.3755290586	-1.08711887	-0.228861
C	 2.0817562428	 2.4394149035	-1.203426839	-0.096446
C	 1.9738203492	 3.3744872065	-0.0193119063	-0.146574
H	-0.5832197941	 2.0614504224	-0.4070460402	 0.151139
H	-0.3050101293	 1.5827915956	 1.2618551351	 0.151365
H	 2.4294527023	 1.7705538873	 2.0880802105	 0.098095
H	 3.141219383	 0.6043878934	 0.9295023503	 0.103624
H	 4.1681623123	 3.343230342	 0.9359470762	 0.076379
H	 4.0753220209	 3.1659401435	-1.6760035854	 0.103427
H	 4.1107660696	 1.4223171198	-1.2697603429	 0.097398
H	 1.4746537967	 2.4339393622	-2.1003974254	 0.0905
H	 1.4755960692	 4.3239852087	 0.1149218151	 0.093286
