16
gdb 12030	3.77172	1.79155	1.57877	4.8393	68.43	-0.2559	0.022	0.2779	856.5857	0.130623	-342.750389	-342.743028	-342.742083	-342.781642	28.029	
C	-0.1477551287	 1.6030070713	 0.0093969484	-0.444198
C	 0.0410133371	 0.086949395	-0.0019920536	 0.158578
C	 1.1249130039	-0.5493341772	-0.9405490973	-0.305777
C	 1.7564258574	-1.121236326	 0.3244887363	 0.000058
C	 2.0863202758	-0.0532333202	 1.2810079013	-0.243774
N	 0.6874787024	-0.5291026555	 1.2328632667	-0.146975
C	-1.2619802546	-0.561206223	-0.1866160144	 0.286366
N	-2.2902527197	-1.0571311582	-0.3651633664	-0.34145
H	 0.8099058222	 2.1226287766	 0.0798456066	 0.125325
H	-0.6417997666	 1.9273404339	-0.9109184109	 0.143791
H	-0.7711080253	 1.8981290922	 0.8579476834	 0.150607
H	 0.7111496713	-1.2984914389	-1.6147364229	 0.140553
H	 1.7364929271	 0.1527503939	-1.5140059918	 0.115259
H	 2.0905035922	-2.1454705765	 0.445743325	 0.109126
H	 2.5689670203	-0.3370362956	 2.2106764292	 0.13513
H	 2.3460402552	 0.9401589281	 0.9268073405	 0.117382
