18
gdb 51654	3.92393	1.04041	1.03264	3.5929	72.65	-0.2463	0.0366	0.2828	1209.0158	0.149368	-439.109513	-439.101703	-439.100759	-439.142598	29.695	
O	-0.3624751107	 0.7393613711	 0.4138328606	-0.332033
C	 0.1706053911	 1.6928080465	-0.1171487242	 0.150731
N	 1.495039924	 1.8037043183	-0.3932968684	-0.273796
C	 2.4633913679	 0.7654607673	-0.0779403077	 0.014614
C	 3.2126153578	 0.2814840525	-1.3515642205	-0.255388
C	 4.4352019912	 1.172926001	-1.4184535728	 0.052035
O	 4.136382708	 2.5649159505	-1.1926996098	-0.270919
C	 4.6585269145	 1.7812740002	-0.1012899924	 0.052034
C	 3.5866825768	 1.3004419303	 0.8546420703	-0.25538
H	-0.3895945882	 2.5935973797	-0.438175485	 0.072726
H	 1.8512227161	 2.636283201	-0.8382386888	 0.256087
H	 1.8915050089	-0.0356399756	 0.3890316404	 0.121969
H	 3.5351703451	-0.7609037502	-1.2418407529	 0.112916
H	 2.5771945816	 0.3432312749	-2.2389025002	 0.119956
H	 5.2372291497	 0.9833285594	-2.1264517422	 0.100788
H	 5.6406291649	 2.0822156816	 0.2527791572	 0.100789
H	 3.2151480793	 2.0810055124	 1.5236892839	 0.119956
H	 3.9957943021	 0.4938178793	 1.4748355026	 0.112916
