10
gdb 767	9.53874	3.86975	2.76025	1.9435	43.5	-0.2143	0.0189	0.2332	443.4355	0.076774	-297.555801	-297.550925	-297.549981	-297.583688	17.915	
N	-0.0193653825	 1.3449993898	 0.1599646381	-0.577501
C	 0.0029032288	-0.0307732271	 0.0529550706	 0.405988
N	-1.0987603335	-0.7707322071	 0.0216429809	-0.297629
N	-0.5749354699	-2.0320308295	-0.0159692802	-0.180194
C	 0.7655599659	-1.9822866584	-0.013218487	 0.025391
N	 1.1783306325	-0.7293445891	 0.0292609883	-0.312481
H	 0.8098554702	 1.7821850559	-0.2139868562	 0.258348
H	-0.8734263102	 1.7660006678	-0.1751289768	 0.256905
H	-1.190283391	-2.8268780556	-0.0423443663	 0.278626
H	 1.3929876298	-2.8605781868	-0.0422554613	 0.142547
