19
gdb 49225	3.72964	1.04043	0.88368	3.3653	84.51	-0.2478	-0.0532	0.1946	1327.2708	0.159318	-385.907583	-385.89933	-385.898386	-385.941032	31.412	
O	-0.0917297241	-0.0061663691	-0.0252627399	-0.272168
C	-0.0035434512	 1.2024572934	-0.0416972738	 0.068609
C	 1.259305994	 1.9376435694	 0.0381130725	 0.249157
C	 1.3575863717	 3.2749114767	-0.0044252163	-0.147002
C	 2.7827475616	 3.7461781895	 0.0676086205	-0.344968
C	 3.5595135638	 2.4580637786	 0.3926628397	 0.363467
C	 5.0391332678	 2.3513865161	 0.1483053159	-0.313464
C	 4.513540508	 2.4338204364	 1.5613182349	-0.303108
C	 2.611684569	 1.2726477463	 0.1466701762	-0.399832
H	-0.9096625627	 1.8450391976	-0.119829648	 0.064874
H	 0.513599939	 3.9504212034	-0.1049694377	 0.108764
H	 3.0859310225	 4.1873479748	-0.8940995782	 0.119872
H	 2.9255728377	 4.5322423724	 0.8197808831	 0.116225
H	 5.4311679489	 1.400075505	-0.1971484033	 0.114252
H	 5.5555703615	 3.216400377	-0.2561683269	 0.109478
H	 4.672723594	 3.3557717966	 2.1121115598	 0.109544
H	 4.5477309064	 1.5377641481	 2.1728365815	 0.114837
H	 2.639242689	 0.5275972376	 0.9487290684	 0.122628
H	 2.8465880832	 0.7336133802	-0.7808620583	 0.118835
