14
gdb 6643	8.50246	0.73706	0.68394	4.6788	69.92	-0.264	-0.0614	0.2026	1550.4521	0.102761	-382.536847	-382.527463	-382.526519	-382.574133	29.864	
C	-0.092573044	 1.5388688299	 0.0115905558	-0.479962
C	 0.1147884011	 0.0367731343	 0.0018203751	 0.390799
O	 1.2029518245	-0.4762972984	-0.0109780295	-0.261056
C	-1.1862646476	-0.7950997228	 0.0095775583	-0.493839
C	-0.9852334372	-2.2305379015	-0.0003436285	 0.117144
C	-0.8307483285	-3.4271223111	-0.0085033162	 0.059915
C	-0.5948760225	-4.8482477777	-0.0186781364	 0.020163
O	-1.4658736584	-5.6877519483	-0.0153946573	-0.22933
H	 0.8741776403	 2.0424371396	 0.005768329	 0.152472
H	-0.6760875423	 1.8506935947	-0.8620333125	 0.144768
H	-0.6607385919	 1.8414590344	 0.8984724057	 0.144734
H	-1.7776152317	-0.5005573983	 0.8880069682	 0.16424
H	-1.7943268105	-0.4908257938	-0.8539952025	 0.164217
H	 0.4783037387	-5.1261683609	-0.0301160395	 0.105735
