19
gdb 87254	4.38954	0.80703	0.76515	3.5257	74.1	-0.2717	0.0072	0.2789	1521.6816	0.156512	-460.170315	-460.160432	-460.159487	-460.20583	35.353	
C	 0.0622599787	 1.5325930332	 0.2585740267	-0.403787
C	 0.1064088958	 0.0341955148	 0.0614045349	-0.040769
C	 1.4303236453	-0.6883398865	-0.1031407574	-0.35134
C	 0.6151562927	-0.8719636714	 1.1526341496	 0.389447
O	 1.0514804235	-0.2541029345	 2.3334953188	-0.467771
C	-0.0995267434	-2.1748944572	 1.4106346127	-0.147211
O	 0.7877873562	-3.1074944167	 2.0467919344	-0.183927
C	 0.6878134623	-3.2502095012	 3.383433482	 0.162338
O	 1.4523388294	-3.913039588	 4.0180328649	-0.277154
H	 0.8673644214	 1.8610576966	 0.9191951922	 0.132558
H	 0.1637783882	 2.0527560442	-0.6994848598	 0.118276
H	-0.8854252904	 1.8430431085	 0.7110383115	 0.120787
H	-0.7178353334	-0.3692423573	-0.5227565103	 0.087655
H	 1.5051572198	-1.5113138924	-0.8057622109	 0.119347
H	 2.3299215115	-0.0885269654	-0.0096923331	 0.118497
H	 1.9007952671	-0.6413367008	 2.5729189961	 0.297717
H	-0.9746978453	-2.0034005848	 2.050530606	 0.118283
H	-0.4300918278	-2.6407891898	 0.4790869632	 0.120878
H	-0.1729266316	-2.7019881313	 3.8109621986	 0.086174
