23
gdb 87136	2.66449	1.17223	1.13191	1.8202	85.16	-0.2528	0.0834	0.3362	1271.3503	0.203195	-388.267324	-388.257105	-388.256161	-388.302127	38.705	
C	 0.1254774338	 1.120515516	-0.6397470058	-0.417029
C	 0.602222733	-0.229081404	-0.1481333725	-0.013321
C	 1.9370739916	-0.4136380614	 0.5320523996	-0.346932
C	 0.6599060019	-0.6220213076	 1.3173261851	 0.273561
C	 0.3267013767	 0.3911144726	 2.4022042946	-0.472053
C	 0.1902707114	-2.0186453379	 1.663763551	 0.354028
C	-1.3093126798	-2.2403435629	 1.5973375765	-0.459867
C	 1.0749429382	-3.1915905246	 1.562317033	-0.228159
O	 0.8091329585	-2.5943386806	 2.8310918347	-0.285403
H	 0.4472401153	 1.9341636744	 0.015814381	 0.117526
H	 0.5250431704	 1.3289328126	-1.6384823247	 0.118368
H	-0.9677079362	 1.1602234614	-0.7065368365	 0.116508
H	 0.3261921768	-1.0484890139	-0.8095228468	 0.079069
H	 2.5513937103	-1.2602414987	 0.2494038117	 0.105796
H	 2.5080560968	 0.4793519316	 0.7683297396	 0.106849
H	 0.7517473173	 1.3732938218	 2.1839747277	 0.112924
H	-0.7539575036	 0.5196108457	 2.5278067476	 0.114445
H	 0.7380907142	 0.0522166501	 3.3580214038	 0.137595
H	-1.6808220106	-2.0883413187	 0.5789613635	 0.120647
H	-1.5594859513	-3.2556362304	 1.91449254	 0.123469
H	-1.8375664251	-1.5426806691	 2.2544135738	 0.126699
H	 0.632205573	-4.1758063164	 1.4058779829	 0.103845
H	 2.0980205772	-3.09157284	 1.2079929102	 0.111433
