19
gdb 80664	2.70336	1.74847	1.27542	3.6171	75.5	-0.2137	0.026	0.2397	1024.0611	0.161613	-419.20631	-419.198495	-419.197551	-419.238696	30.229	
C	-0.0431758765	 1.4387288111	 0.0225947302	-0.354305
N	 0.0026666777	-0.0104352655	 0.0171635796	-0.073914
C	-1.2318164497	-0.7973614204	 0.0452791255	-0.008265
C	-1.076391259	-1.9390615956	 1.0746965513	-0.178987
N	-0.3345438978	-2.7241093808	 0.0176697767	-0.125873
C	-1.1274619605	-1.9331637535	-0.9970493828	-0.178999
C	 1.0489198937	-2.2177172748	-0.0149674424	-0.292948
C	 1.1990643485	-0.6801146898	-0.0141864376	 0.389413
O	 2.2893313195	-0.1381705653	-0.0394103216	-0.394951
H	 0.9854385825	 1.798988153	-0.0016166749	 0.17104
H	-0.5811965929	 1.8222864758	-0.852956151	 0.12289
H	-0.5374594751	 1.8170072817	 0.9257931091	 0.122888
H	-2.0952147414	-0.1284830526	 0.0684731542	 0.078139
H	-0.5130663944	-1.7279869067	 1.9873643684	 0.113026
H	-2.0160402617	-2.4419517124	 1.3188119266	 0.113289
H	-2.0780428957	-2.4348345902	-1.1974456629	 0.113299
H	-0.6097466657	-1.7168012649	-1.9351329018	 0.113026
H	 1.5991136257	-2.6038519419	 0.8491840486	 0.135617
H	 1.5558060028	-2.5987511173	-0.907407065	 0.135615
