20
gdb 10613	2.4804	1.73284	1.20424	2.0534	70.83	-0.2549	0.0802	0.3351	1079.8625	0.174833	-386.127997	-386.118463	-386.117519	-386.162224	34.516	
C	-1.1114302131	-0.2272309973	-0.7834652684	-0.386612
C	-1.4310179536	-0.6273001728	 0.6627774764	-0.26011
C	-0.1974667323	-0.8216891234	 1.5250421647	 0.352852
C	 0.4781157594	 0.4527149463	 2.0036464587	-0.119378
O	-0.3625443338	 1.1618905507	 2.8983707803	-0.418182
O	-0.335597385	-1.7687256251	 2.6114251654	-0.31617
C	 0.5769363697	-2.0770837153	 1.5466497075	 0.030448
C	 0.2800729315	-3.2974715245	 0.7123502212	-0.425363
H	-0.5185044853	-0.9957706177	-1.2900559791	 0.117187
H	-2.0327531172	-0.0839905436	-1.3556314714	 0.119191
H	-0.5490870035	 0.7108249531	-0.8308606054	 0.122707
H	-2.0426319464	 0.1483369139	 1.137331851	 0.11875
H	-2.0234460654	-1.5458151364	 0.6804252104	 0.106954
H	 1.4402324699	 0.2017900365	 2.4742290181	 0.088214
H	 0.6798151681	 1.130650389	 1.1678239287	 0.109826
H	-0.5813350495	 0.5425412635	 3.6050626104	 0.293218
H	 1.6249905124	-1.9938888823	 1.8452397421	 0.082677
H	-0.7629852677	-3.3349128348	 0.3937506353	 0.129577
H	 0.9197580414	-3.312852598	-0.1766638212	 0.123013
H	 0.4909163706	-4.2039905017	 1.2893908652	 0.131202
