17
gdb 10314	2.49486	1.76967	1.10054	3.867	65.5	-0.2852	0.0196	0.3048	1073.5884	0.139124	-400.996669	-400.986974	-400.98603	-401.031281	33.23	
C	 0.1886070635	 1.3889817751	 0.0958062698	-0.250009
O	-0.133757747	 0.0284116392	-0.1405303072	-0.237554
C	 0.5618637004	-0.5534209929	-1.2139015401	-0.003259
C	 2.008576484	-0.668794531	-0.9161013422	 0.286921
N	 3.1292137037	-0.718116373	-0.6397537226	-0.332362
C	-0.0499959739	-1.9393147719	-1.4930314848	 0.095575
C	-1.5465057366	-1.8460158701	-1.7735922501	-0.407559
O	 0.6761114793	-2.4306314522	-2.6089784255	-0.428999
H	 1.2426860805	 1.5114334475	 0.3762703047	 0.139393
H	-0.0182525198	 2.0069044134	-0.7901285623	 0.114793
H	-0.4442299404	 1.720823792	 0.9207222275	 0.138454
H	 0.4611120869	 0.0521642546	-2.1299315651	 0.118358
H	 0.1245122249	-2.5609671811	-0.6028276065	 0.095931
H	-1.9534291275	-2.8440857819	-1.9666506843	 0.111203
H	-2.0754134743	-1.4153281885	-0.9209291455	 0.141028
H	-1.7289700345	-1.2266071117	-2.6575712163	 0.124353
H	 0.4771157507	-3.3654059576	-2.7141072296	 0.293735
