19
gdb 51173	3.80199	1.01009	0.90581	2.871	75.75	-0.2491	-0.0256	0.2234	1302.2432	0.159083	-423.026237	-423.017834	-423.01689	-423.060155	31.176	
O	-0.6291240742	 0.5502564252	 0.5262540106	-0.237734
C	 0.2032698025	 0.8964194748	-0.2708906411	 0.166137
C	 1.2168552235	 2.002711494	-0.0410113368	-0.385629
C	 1.2385142113	 3.0033059475	-1.1760938211	 0.319406
C	 2.0076014404	 2.7381215635	-2.4513544565	-0.328781
C	 2.4416514768	 3.8502774731	-1.5306700531	-0.119075
C	 1.8922705433	 5.2268456331	-1.8556893478	-0.092136
O	 0.5107752093	 5.0239726239	-2.1425379165	-0.253376
C	 0.0484254886	 3.9429825774	-1.3429445277	-0.138019
H	 0.2848353076	 0.4056816468	-1.2684666854	 0.078607
H	 0.9961604263	 2.477900262	 0.9207113559	 0.121761
H	 2.2029066331	 1.5233971822	 0.0376379155	 0.121236
H	 2.6290080107	 1.8494947754	-2.4828794567	 0.111273
H	 1.546390023	 3.0052141709	-3.3970498532	 0.127827
H	 3.3726873571	 3.7689552452	-0.9816569219	 0.091923
H	 2.0280867468	 5.9024536904	-0.9953959916	 0.094393
H	 2.3394057007	 5.6961967926	-2.7380082296	 0.11262
H	-0.810138041	 3.5004096963	-1.8597300441	 0.113896
H	-0.2883131059	 4.2895533256	-0.351021379	 0.095671
