17
gdb 60509	3.64956	1.04602	0.87211	5.3227	77.35	-0.2543	-0.0487	0.2056	1307.3376	0.135244	-418.018317	-418.009098	-418.008154	-418.053429	32.622	
C	 0.0268195394	 1.4988754345	-0.0758437726	-0.366395
N	-0.0367881738	 0.0483993475	 0.0028653563	-0.112373
C	-0.0134923689	-0.6093670496	 1.2899868135	 0.063406
C	 0.3894499574	 0.1064255711	 2.548254491	-0.30565
C	-1.0477773606	-0.3220766938	 2.348905046	-0.276393
C	-0.1045366052	-0.762698847	-1.0887609187	 0.362291
O	-0.1582481736	-1.9776526471	-1.0637625233	-0.360968
C	-0.1006707828	-0.0717578827	-2.3943639555	 0.205073
N	-0.1042059557	 0.3877306494	-3.4551339523	-0.332816
H	 0.9960655998	 1.8692472396	 0.2734159409	 0.146735
H	-0.1157767175	 1.8188248684	-1.1073871178	 0.178983
H	-0.7629722366	 1.9535012668	 0.5314700724	 0.141795
H	 0.2936032054	-1.6398787451	 1.1763873518	 0.145226
H	 1.0109090704	-0.4383527468	 3.2497943977	 0.130833
H	 0.5984194695	 1.1686517536	 2.5097802776	 0.123467
H	-1.7743953755	 0.4595878752	 2.1555483365	 0.123761
H	-1.4367310918	-1.1628630041	 2.9113293966	 0.133025
