18
gdb 124686	2.70681	1.33244	0.93104	6.0957	73.4	-0.2438	0.0111	0.2548	1230.6914	0.148991	-435.267719	-435.259076	-435.258132	-435.301346	31.795	
C	-0.7381589626	 1.8601169467	-0.755809912	-0.408086
C	-0.1814979824	 0.547866024	-0.1882152565	-0.110208
C	-1.3061703521	-0.2963808169	 0.4254326989	-0.082426
O	-0.7167885591	-1.393192071	 1.1232491035	-0.426178
C	 0.5871069841	-0.2186094829	-1.2270913444	 0.362083
C	 1.0495210139	 0.085005859	-2.4900532119	-0.173566
N	 1.7128295402	-0.9925245886	-2.9961727814	-0.197171
N	 1.6900096376	-1.9546092588	-2.11763328	-0.122303
N	 1.0195702729	-1.4922372144	-1.0484839463	-0.234721
H	 0.066782549	 2.4863181088	-1.1485914336	 0.134872
H	-1.4453794682	 1.6709510468	-1.5698232845	 0.12988
H	-1.2554122912	 2.4279725051	 0.0228516148	 0.119541
H	 0.5004830034	 0.790401693	 0.6392601335	 0.111093
H	-1.8882329191	 0.329557253	 1.1169006934	 0.098976
H	-1.9816414705	-0.6488280592	-0.3679395734	 0.104857
H	-1.4197122799	-1.9696275052	 1.4371447218	 0.297365
H	 0.9464908921	 0.9965758601	-3.0553903544	 0.115527
H	 0.8270547019	-2.0753691494	-0.2471668076	 0.280467
