15
gdb 14815	2.77951	1.77421	1.22571	4.315	65.98	-0.2602	-0.042	0.2182	966.0109	0.118603	-362.672192	-362.664466	-362.663521	-362.705121	27.126	
O	 0.6557365465	-0.2807528373	-0.479507649	-0.245569
C	 0.3505878855	 0.7714484748	 0.0198463096	 0.145264
C	 1.2368730831	 1.9915067451	 0.0159464548	-0.069985
C	 0.6746172086	 3.2763355865	-0.6695071832	-0.236504
C	 1.2895396229	 4.1294839854	 0.4664226844	-0.221574
C	 1.411790909	 2.8340402877	 1.3371610214	-0.184381
C	 0.3320734323	 2.6850140426	 2.3033657577	 0.276016
N	-0.5308209587	 2.5818740539	 3.0665842797	-0.322534
H	-0.6405434668	 0.9183159269	 0.5027616917	 0.102878
H	 2.2153272719	 1.7133316051	-0.3793338053	 0.109769
H	 1.0051006113	 3.4646742353	-1.6914926579	 0.125728
H	-0.4190318686	 3.2949293226	-0.6426591074	 0.129258
H	 2.2803999602	 4.5114774577	 0.2124933473	 0.124332
H	 0.6876613845	 4.9398123715	 0.8784210269	 0.132508
H	 2.3636683183	 2.6831303322	 1.8508523493	 0.134795
