15
gdb 25814	4.11886	1.11713	0.88362	4.4508	71.21	-0.2471	-0.0361	0.211	1249.5197	0.112552	-454.025151	-454.016352	-454.015408	-454.059446	30.547	
C	-0.0071370147	 1.4245505867	 0.1804747396	-0.492893
C	-0.0210612688	-0.045981758	-0.0253937786	 0.379859
N	-0.0856797694	-0.7056660624	-1.1427687593	-0.296273
C	-0.066441097	-2.0374518685	-0.7682876142	-0.168947
C	 0.0103721963	-2.1268618088	 0.5834651328	 0.246921
O	 0.0403112863	-0.840136409	 1.0746744543	-0.222716
C	 0.0609085758	-3.2790697244	 1.5010708439	 0.307264
N	 0.1353757622	-2.9592955828	 2.8243815594	-0.543753
O	 0.0356674315	-4.4211956272	 1.0783770517	-0.361504
H	 0.9073899124	 1.7411111065	 0.6924726901	 0.149966
H	-0.0615891869	 1.9167906758	-0.7904053372	 0.164505
H	-0.8567442728	 1.7438595479	 0.79279559	 0.150004
H	-0.1083822611	-2.8421638619	-1.4836545151	 0.15269
H	 0.1591511927	-2.0057983769	 3.1400794084	 0.268506
H	 0.1762170734	-3.7098396768	 3.4927817039	 0.266372
