16
gdb 45022	2.38929	1.83128	1.20774	3.3511	71.22	-0.2727	-0.018	0.2547	1013.6979	0.125923	-437.929426	-437.922137	-437.921193	-437.961447	28.179	
N	-0.2230163664	 1.2950196244	-0.3091690942	-0.503779
C	-0.1440131597	 0.04959351	-0.1240956843	 0.399631
O	 1.091224285	-0.5934826544	-0.171189076	-0.241898
C	 1.2536392192	-1.929041554	-0.4703090603	 0.397321
O	 2.3504142335	-2.3980116556	-0.4011608483	-0.298685
C	 0.0165402103	-2.6842217092	-0.9187470357	-0.356901
C	-1.2499149244	-2.2456626631	-0.2183713139	-0.049481
C	-1.2085129747	-1.8853173785	 1.2353963438	-0.307635
C	-1.3165444919	-0.7887240521	 0.185707559	-0.076164
H	 0.6963649898	 1.6869262962	-0.5178387223	 0.233337
H	-0.0807922115	-2.519799236	-2.0007584126	 0.147265
H	 0.2281121998	-3.7464560843	-0.7737811979	 0.147569
H	-2.1635674199	-2.6881428051	-0.6005755387	 0.109591
H	-2.0920289402	-2.0634922347	 1.8363978238	 0.132205
H	-0.2715000342	-1.9862976097	 1.7726938778	 0.142931
H	-2.2526812947	-0.2531875137	 0.1018579799	 0.124694
