21
gdb 120817	3.08827	0.72107	0.63098	3.9074	80.98	-0.2735	0.0033	0.2768	1818.54	0.180415	-424.238683	-424.228499	-424.227555	-424.275253	35.789	
C	-0.1210068879	 1.5440524112	-0.1068053557	-0.380968
C	-0.232041447	 0.0337769675	-0.3300570886	-0.160104
C	 1.0330614526	-0.5687988413	-0.9552519521	-0.189443
C	 0.9338102532	-2.0674518759	-1.1552710516	-0.032507
C	 0.2638212364	-2.6412481489	-2.3887344219	-0.322133
C	 1.7519361788	-2.7733258126	-2.1932780883	 0.080796
O	 2.6247837158	-1.9711984468	-2.9679232522	-0.185773
C	 2.8003329678	-2.3431667373	-4.2543857702	 0.174125
O	 3.5376092342	-1.7648632948	-4.9939044652	-0.27217
H	 0.7112344603	 1.7854486687	 0.5636090814	 0.115982
H	 0.0535822528	 2.0716451347	-1.0510055892	 0.117363
H	-1.0350852151	 1.9496224579	 0.3376643835	 0.112401
H	-0.4377349347	-0.4653056797	 0.6262270661	 0.093618
H	-1.0924461249	-0.183251156	-0.9758589873	 0.098014
H	 1.2407417869	-0.0835163643	-1.915025035	 0.111163
H	 1.897293533	-0.3495303721	-0.3141774147	 0.102946
H	 0.7910614227	-2.6332884458	-0.237666186	 0.093576
H	-0.3509089115	-3.5306777333	-2.3069972052	 0.121345
H	-0.0653355627	-1.9300377589	-3.1396762536	 0.127923
H	 2.1728666609	-3.7461436588	-1.9554370697	 0.110862
H	 2.1922819687	-3.2250146737	-4.5305541247	 0.082985
