19
gdb 62154	2.4939	0.75854	0.60501	2.7396	74.11	-0.2512	-0.0356	0.2156	1774.9513	0.153741	-460.16927	-460.158442	-460.157497	-460.207592	35.919	
C	-0.028613744	 1.569105519	 0.096523491	-0.404618
C	 0.026403661	 0.0413104376	 0.0547436366	 0.125971
C	-1.3764826888	-0.5790892128	 0.0451383015	-0.284297
C	-1.3584411884	-2.087226099	 0.1830768899	 0.15283
O	-2.0812277947	-2.7080794953	 0.9198797213	-0.239015
O	 0.6766039594	-0.4411619339	-1.119543509	-0.263104
C	 2.0756273203	-0.3043417335	-1.1424745113	-0.156668
C	 2.6069838275	-1.0922657214	-2.3295832739	 0.141638
O	 3.7562708586	-1.0717369661	-2.6785339194	-0.233361
H	 0.9736008966	 2.0065956492	 0.1066335045	 0.124655
H	-0.5652254396	 1.9537881524	-0.7763891618	 0.130207
H	-0.5459296955	 1.9062077431	 0.9996397712	 0.127992
H	 0.5792137744	-0.3224383071	 0.9377140276	 0.081195
H	-1.9986045259	-0.1628469423	 0.8414668595	 0.12368
H	-1.8419187243	-0.3325507256	-0.9195468105	 0.13365
H	-0.6129089503	-2.5997187022	-0.462132906	 0.087423
H	 2.4050413399	 0.7405537524	-1.2408684775	 0.129748
H	 2.5401244706	-0.7062751868	-0.2254372792	 0.125077
H	 1.8309963331	-1.7003486578	-2.8445970645	 0.096997
