17
gdb 116733	5.14546	0.65998	0.5892	2.4328	85.06	-0.2509	-0.0635	0.1874	1821.2347	0.13552	-414.20653	-414.19687	-414.195926	-414.242009	33.82	
C	-0.0428050107	 1.2321419058	 0.2842956554	-0.398215
C	 0.2309134039	-0.2414580399	 0.5937077645	-0.112351
N	 0.8252429188	-1.0735942253	-0.4409996095	-0.261002
C	 1.1080741776	-0.5831346058	-1.5711524274	 0.120384
N	 1.6762421118	-1.4043098568	-2.5421413235	-0.344093
C	 2.0253595298	-0.9887765219	-3.8044957504	 0.312961
N	 1.8602283069	 0.2096641078	-4.2159653527	-0.508752
C	 2.5994570366	-2.0460596472	-4.6220019285	 0.223356
N	 3.0602896988	-2.8561122431	-5.30627444	-0.311637
H	 0.8758316561	 1.7754048603	 0.0388335029	 0.126237
H	-0.7423760121	 1.3511951343	-0.5497947095	 0.126247
H	-0.4875127288	 1.712397496	 1.1607749441	 0.118743
H	 0.8859119096	-0.3166906845	 1.472119402	 0.11817
H	-0.704013544	-0.7333947367	 0.8940299456	 0.11817
H	 0.9639511959	 0.4412561134	-1.9125386702	 0.146774
H	 1.8307947764	-2.3656326383	-2.2758403302	 0.276672
H	 2.1799126933	 0.3179759817	-5.1746550224	 0.248334
