17
gdb 38812	3.06798	1.89167	1.53358	2.7275	70.24	-0.2365	0.0311	0.2676	888.7395	0.140272	-418.006721	-418.000335	-417.999391	-418.037481	25.966	
C	 0.1045290481	 1.5452555409	-0.4663249045	-0.239002
C	 1.5106582024	 1.9428132878	-0.0488077854	-0.041063
N	 1.6808988466	 1.9631522478	 1.4136795375	-0.321578
C	 2.1758513316	 0.8070248596	 0.6432409908	-0.03746
C	 1.2225837375	-0.3824409197	 0.7102525259	-0.021337
N	 0.9327260335	-0.8039814433	 2.0901636563	-0.265709
C	-0.24261693	-0.3916760321	 2.3233169139	 0.130222
O	-0.9690017487	 0.2024577014	 1.3455328202	-0.228504
C	-0.137535888	 0.157222369	 0.1605001297	 0.074926
H	-0.6526914464	 2.2595995834	-0.1321894796	 0.126592
H	 0.0429272723	 1.4744462817	-1.5576578477	 0.102405
H	 2.0713245673	 2.644459172	-0.6587903213	 0.087188
H	 2.462697154	 2.561244906	 1.6672131466	 0.234138
H	 3.244549373	 0.6336489637	 0.5778085485	 0.089982
H	 1.6198640849	-1.2203072219	 0.1305839759	 0.081353
H	-0.7621153876	-0.4770250965	 3.2713890912	 0.136205
H	-0.6300646705	-0.5228343701	-0.5399539781	 0.091645
