15
gdb 2536	3.33713	2.12148	1.50122	3.4684	57.75	-0.2423	0.0243	0.2666	831.3134	0.124754	-341.827199	-341.819096	-341.818152	-341.859724	27.937	
C	-0.6145773528	 1.1656068993	 0.1406995189	-0.324031
N	 0.5319271104	 0.2928060764	-0.0899852599	-0.271628
C	 1.0104013409	-0.3948842149	 1.1032636914	-0.129737
C	 0.1582000732	-1.6226838714	 1.5190510041	-0.079349
O	 0.0751444678	-2.5622821555	 0.466989074	-0.41544
C	 2.3934468422	-0.8603002777	 0.879345353	 0.274833
N	 3.4485112882	-1.2999441457	 0.7083108438	-0.322129
H	-0.3184734797	 1.9877244959	 0.8015630023	 0.129254
H	-0.9199844963	 1.6021162848	-0.8136971774	 0.133829
H	-1.4967607545	 0.6749690171	 0.5843548968	 0.105285
H	 0.3068741942	-0.4132082387	-0.7847048289	 0.235659
H	 1.029715554	 0.3219963492	 1.9340745077	 0.125743
H	 0.5585228051	-2.0645195625	 2.4424385375	 0.111576
H	-0.8645218596	-1.2898810945	 1.7181710549	 0.124266
H	 0.9390023671	-2.9809480818	 0.3713216218	 0.30187
