13
gdb 1496	6.35809	1.48865	1.22468	3.1179	57.62	-0.2952	-0.0528	0.2424	927.172	0.101091	-340.650928	-340.64343	-340.642486	-340.683012	25.405	
C	 0.0485524675	 1.5073857806	 0.125999701	-0.392938
C	-0.0016290743	-0.0010994576	-0.0066848525	-0.045266
O	 0.6818136214	-0.5567416608	 1.1395353438	-0.230668
C	 0.7422651768	-1.8872659445	 1.2019107788	 0.330213
N	 0.245545144	-2.6668488896	 0.3327076983	-0.519071
C	 1.4505879615	-2.3243590054	 2.3946292875	 0.254649
N	 2.0022820706	-2.740246126	 3.3210418891	-0.316416
H	 1.0817335872	 1.8644770534	 0.1448007654	 0.136639
H	-0.4602460297	 1.9663681451	-0.7265558878	 0.129031
H	-0.4481228581	 1.8364263853	 1.0427182337	 0.136632
H	-1.0262981276	-0.3856018349	-0.0210097751	 0.132246
H	 0.4950770836	-0.3575842205	-0.9145446672	 0.132223
H	 0.4037318671	-3.6426765852	 0.572435365	 0.252726
