21
gdb 39851	2.98308	1.82819	1.49135	0.1773	85.81	-0.2593	0.0985	0.3578	971.4394	0.185833	-349.907159	-349.900473	-349.899528	-349.937723	29.321	
C	-0.0414675382	 1.4494892537	-0.0187091672	-0.36314
C	 1.2738226598	 0.6913466299	-0.0003687662	-0.36315
C	-0.0285348086	-0.0480953811	-0.0096410258	 0.491495
C	-0.5176314131	-0.941946555	 1.1282562431	-0.135164
C	 0.3182815135	-2.2265911339	 0.8695781326	-0.23685
C	-0.5536632255	-2.3248631369	-0.3914218656	-0.02681
C	-1.7355447277	-1.6435812559	 0.3718087626	-0.026812
C	-2.0873546365	-0.8396519886	-0.8891497396	-0.236843
C	-0.556741521	-0.9192025752	-1.1476868238	-0.135165
H	-0.3380503281	 1.9718833597	 0.885503616	 0.108101
H	-0.323402257	 1.9583267757	-0.9357709069	 0.107652
H	 1.8745859738	 0.6966683756	-0.9045326926	 0.108099
H	 1.8553649242	 0.702289914	 0.9167425723	 0.107649
H	-0.6189222939	-0.504201697	 2.1216872745	 0.056803
H	 1.4035759977	-2.1191376583	 0.7814332534	 0.090748
H	 0.0775543813	-3.0332399831	 1.5690464056	 0.090121
H	-0.6678803079	-3.2250882517	-0.9946798092	 0.062799
H	-2.457385868	-2.1936135172	 0.9749505325	 0.062797
H	-2.6646793367	-1.4521292205	-1.5887603915	 0.090118
H	-2.5382593181	 0.1533658833	-0.800940298	 0.090747
H	-0.1270719799	-0.7873592474	-2.1410584659	 0.056804
