17
gdb 31119	2.33087	1.54683	0.96733	2.6094	71.94	-0.1996	0.0189	0.2185	1184.2351	0.135745	-458.989975	-458.981219	-458.980275	-459.023431	32.531	
C	 0.2461214528	 1.5357433154	 0.2324276336	-0.492981
C	 0.005814387	 0.0744488883	 0.0946350295	 0.279243
C	-1.1221198242	-0.6781373298	-0.0628888547	-0.003909
C	-2.5591527504	-0.279842616	-0.1468576947	-0.208742
O	-3.2598326419	-1.0656082577	-1.1286430859	-0.417515
C	-0.6781719629	-2.0500559357	-0.117562135	 0.237478
O	-1.4783273146	-3.1324274539	-0.2766478695	-0.446686
C	 0.672975193	-2.0302487688	 0.0160585394	-0.140037
O	 1.0965618981	-0.729942494	 0.1538296222	-0.188463
H	 1.0312605534	 1.8704784844	-0.4538339922	 0.141901
H	-0.6662193458	 2.0949405661	 0.0111160814	 0.130192
H	 0.5640468128	 1.8014877065	 1.2476799048	 0.142824
H	-3.0896454525	-0.4892591206	 0.7891075917	 0.131658
H	-2.6719877861	 0.793498588	-0.3503553561	 0.109287
H	-2.841136181	-0.8972869345	-1.9809084176	 0.292066
H	-2.3345081107	-2.7939803917	-0.5837364709	 0.300196
H	 1.4341667831	-2.7895865162	 0.0295194339	 0.133488
