19
gdb 97157	4.08266	1.1557	0.97011	3.1355	78.19	-0.2391	0.0312	0.2703	1236.6543	0.160864	-419.191383	-419.183044	-419.1821	-419.225036	31.213	
C	 0.885134043	 1.4251830399	 0.2636994228	-0.314584
N	 0.5463038653	 0.0107535927	 0.1830399556	-0.303929
C	 0.2085781467	-0.4581533301	-0.9417099789	 0.410011
C	-0.1766558332	-1.9117160683	-1.1117590181	-0.319346
C	 0.4539894919	-2.4938879875	-2.3684712716	-0.029194
N	-0.461365169	-2.7905510377	-3.4831976766	-0.331506
C	 0.4127945851	-1.6028302352	-3.5550550334	-0.053196
C	-0.2661820248	-0.27363874	-3.2961264736	-0.088972
O	 0.1888539206	 0.3198015063	-2.0663629713	-0.259726
H	 1.0543509668	 1.691873281	 1.3099476406	 0.111987
H	 1.7990283815	 1.6546376081	-0.3004511919	 0.115797
H	 0.0923347889	 2.0689577197	-0.1388622406	 0.115721
H	 0.1166010753	-2.4404751688	-0.2051354163	 0.132713
H	-1.2662560162	-1.9910529063	-1.2081788777	 0.134834
H	 1.3234486804	-3.1304719662	-2.2342277379	 0.099918
H	-0.073727222	-3.5331893475	-4.0599509996	 0.235899
H	 1.2456027443	-1.610587606	-4.2514272822	 0.097434
H	-0.0374746482	 0.4681282066	-4.0638982898	 0.119744
H	-1.3516198764	-0.4188792506	-3.2626116096	 0.126394
