19
gdb 78503	2.506	1.53903	1.27985	1.339	75.12	-0.2295	0.0648	0.2943	1074.8611	0.158243	-422.96385	-422.955328	-422.954384	-422.99629	33.695	
C	-0.019036936	 1.6033362857	 0.0220586709	-0.423587
C	 0.0916838923	 0.0846307908	-0.028061465	 0.045197
C	 0.8281649276	-0.6190894139	-1.1676542247	-0.209463
C	 2.3333878461	-0.7571708999	-0.7539625591	 0.304516
O	 3.316316711	-1.0166286383	-1.6855041889	-0.469577
C	 2.4875769251	-0.1197836604	 0.6225459277	-0.299741
C	 1.0674145666	-0.6855857341	 0.92198373	-0.161693
C	 1.2969644208	-1.7315392481	-0.2678876397	 0.336708
O	 1.1136452314	-3.08030467	-0.4003033772	-0.455557
H	 0.9459880728	 2.0955482861	-0.1283989766	 0.112116
H	-0.694795987	 1.9647361504	-0.7613072813	 0.113546
H	-0.4219607003	 1.9375625298	 0.9849580484	 0.113115
H	-0.9056845266	-0.3593821955	 0.0730780187	 0.077148
H	 0.566493933	-0.7032185278	-2.2159754988	 0.084098
H	 3.4181975858	-0.2435082077	-2.2513897316	 0.286199
H	 3.2541587973	-0.6369665967	 1.2075833141	 0.096862
H	 2.6348064322	 0.9622479713	 0.7049675172	 0.086596
H	 0.7786450695	-0.9242885387	 1.9436061663	 0.06976
H	 1.8914937584	-3.532850723	-0.0544079905	 0.293756
