20
gdb 56191	3.82952	0.85264	0.76874	3.8455	75.79	-0.2244	-0.0204	0.204	1523.8213	0.169137	-440.267	-440.25711	-440.256166	-440.303717	34.482	
C	-0.2208101872	 1.2352229532	-0.541986392	-0.475638
C	-0.2101085933	-0.248955172	-0.2309767795	 0.381383
O	 0.5609152512	-1.0173959905	-0.7600354999	-0.295359
C	-1.211803395	-0.7316344751	 0.8270413527	-0.276653
N	-1.3161026144	-2.165719155	 0.9935987014	-0.276952
C	-2.1458447455	-2.8582709427	 0.035169914	 0.009622
C	-1.6311640864	-3.3267806759	-1.3590116225	-0.09801
O	-2.132512877	-4.6592510732	-1.1181911474	-0.273733
C	-2.3696402743	-4.3658134535	 0.2715441094	-0.095293
H	 0.6502652053	 1.4985484254	-1.1430241861	 0.14789
H	-1.1311927257	 1.4848556914	-1.1001866403	 0.146351
H	-0.2386690211	 1.8307397386	 0.3769313668	 0.138178
H	-0.9020831677	-0.2655992033	 1.7762434528	 0.12577
H	-2.2016503506	-0.3111255254	 0.6088208853	 0.122083
H	-0.3825697713	-2.5668653805	 0.9955192216	 0.226174
H	-3.0941815648	-2.3180800356	-0.0474857938	 0.087036
H	-2.0788197221	-2.8748888888	-2.2519471057	 0.094905
H	-0.5380956644	-3.2997193468	-1.4470632519	 0.115091
H	-1.6080956827	-4.8139370447	 0.9276212196	 0.09287
H	-3.361602013	-4.6894137757	 0.6057862056	 0.104288
