16
gdb 66965	2.57872	1.7404	1.29092	5.2129	72.06	-0.2506	0.0165	0.2672	992.0767	0.124201	-400.695545	-400.688036	-400.687092	-400.727493	28.805	
C	 0.0364732343	 1.5093246132	 0.0958508458	-0.512756
C	 0.0343654131	 0.0155421911	-0.0038277133	 0.286511
C	-0.9198322563	-0.9104740847	 0.7739438978	 0.055574
O	-1.0685374406	-2.1299068396	 0.0475544844	-0.275337
C	 0.3501230617	-2.0486058533	-0.2125841963	 0.057685
C	 0.5528004079	-1.04106803	 0.9763110113	-0.212674
C	 0.4795013133	-0.8432042226	-1.2007814738	-0.217389
C	-0.317834857	-0.8575942734	-2.4215853168	 0.279753
N	-0.9444243614	-0.8510516688	-3.392802101	-0.329846
H	 1.0301907984	 1.9252219549	-0.103076655	 0.128311
H	-0.6642515572	 1.9481268038	-0.6226010303	 0.146126
H	-0.2650472632	 1.8344903236	 1.0970837989	 0.128755
H	-1.7260662682	-0.5680692994	 1.4085197386	 0.122203
H	 0.828655911	-3.0061660963	-0.4000226954	 0.10638
H	 1.2120266988	-0.9964959439	 1.8315366141	 0.112049
H	 1.5293083554	-0.6491760947	-1.437522699	 0.124655
