20
gdb 116648	3.27312	0.87936	0.70276	2.7028	82.6	-0.2311	0.0142	0.2453	1615.4243	0.170194	-436.512469	-436.502079	-436.501134	-436.548225	37.223	
C	 0.5615529421	 0.8336379608	 0.6862804071	-0.397243
C	-0.2344990904	 0.3679815682	-0.5363168838	-0.10872
N	 0.4294732373	-0.4605399131	-1.5312641631	-0.282261
C	 1.6431294859	-0.786371204	-1.3798227326	 0.125646
N	 2.3090885609	-1.5852456591	-2.3120791437	-0.157383
C	 1.5926446458	-2.0786153892	-3.4806621772	-0.363151
C	 3.6502691404	-1.8918132189	-2.0639791101	 0.474058
N	 4.2542392515	-2.6624213947	-3.0353379568	-0.575588
O	 4.2343699441	-1.5462675359	-1.0538002972	-0.394666
H	 0.9260415999	-0.0097756882	 1.2819481337	 0.12619
H	 1.4239331742	 1.4463943559	 0.4035375668	 0.124499
H	-0.0815631786	 1.4418243037	 1.3295908086	 0.111827
H	-1.1215142768	-0.1864290433	-0.2001591289	 0.109011
H	-0.6316716351	 1.2454192154	-1.0651333698	 0.108302
H	 2.2992355029	-0.5116319121	-0.5559989488	 0.140719
H	 1.9367293276	-1.5933312754	-4.4031932151	 0.123411
H	 1.7095997542	-3.1617868575	-3.5766331169	 0.13742
H	 0.5405626588	-1.8337319965	-3.3388425737	 0.175432
H	 3.9228461341	-2.6380369761	-3.9852092091	 0.257069
H	 5.2534824712	-2.7247914399	-2.9213956493	 0.265427
