15
gdb 131486	3.89202	1.24025	1.09146	1.9719	68.39	-0.2562	-0.0301	0.2261	1090.956	0.113523	-453.926827	-453.919444	-453.9185	-453.959121	27.723	
O	 0.1272696045	 1.4082355888	 0.047672313	-0.416614
C	 0.0124340055	 0.0302090204	 0.0545867216	 0.150635
C	-0.4795030015	-0.7494698395	 1.2234306971	-0.342632
C	-1.3454925962	-0.6894763498	-0.0416467256	-0.208446
C	-2.5738170406	 0.0918735218	-0.0427522257	 0.479963
N	-3.6616324887	-0.1060947079	-0.7329791302	-0.332918
C	-4.4418255984	 0.9532554178	-0.3454700237	 0.041017
N	-3.9082508586	 1.76883621	 0.5195487004	-0.117695
O	-2.6399095682	 1.1923214321	 0.7353370835	-0.238224
H	-0.6039246872	 1.7955819595	 0.544599609	 0.304609
H	 0.7995438296	-0.4059635492	-0.5510302584	 0.127722
H	-0.0213005666	-1.702654189	 1.4623682868	 0.133087
H	-0.8458704248	-0.1934368968	 2.0800986939	 0.141157
H	-1.4088336374	-1.5703048618	-0.6674740978	 0.127694
H	-5.4414002215	 1.1203922336	-0.7206116538	 0.150646
