19
gdb 69564	2.8372	1.47384	1.17433	3.0779	81.84	-0.2339	-0.0055	0.2284	1118.4688	0.158382	-385.875761	-385.867204	-385.86626	-385.908758	32.678	
C	-0.0671550758	 1.5545235366	 0.0288958555	-0.493631
C	 0.0652590587	 0.0592129205	 0.0048745767	 0.216219
C	-0.8178189549	-0.8739149865	 0.8290900905	-0.327571
C	 0.6580163044	-0.9565159245	 1.0275617581	-0.214118
C	 1.2576724481	-1.7701469644	-0.1086230702	 0.264587
C	 2.6285194044	-2.3796591155	-0.2231877124	-0.332919
C	 1.4070183635	-3.2569071869	-0.2908301066	-0.321452
C	 0.723621132	-0.7437006455	-1.091272562	 0.307196
O	 0.9178936457	-0.5436577722	-2.2600900447	-0.33483
H	 0.8687455625	 2.0396095138	-0.2659728254	 0.131171
H	-0.845409184	 1.8869874835	-0.6665213966	 0.136827
H	-0.3381376486	 1.9113009226	 1.0275250041	 0.119525
H	-1.3853945436	-0.3578414822	 1.5984266438	 0.119435
H	-1.349457311	-1.6977452738	 0.3609047703	 0.121722
H	 1.1559816229	-0.7138499766	 1.9576470338	 0.104714
H	 3.1735298665	-2.1831463482	-1.1406117114	 0.13568
H	 3.2378219012	-2.4185315606	 0.6736668205	 0.119578
H	 1.185725064	-3.8918981627	 0.560785056	 0.118833
H	 1.1272287039	-3.6698812777	-1.2544377299	 0.129032
