16
gdb 14315	5.25405	1.62699	1.33063	4.1397	72.99	-0.2328	-0.0378	0.195	905.8308	0.132097	-346.616694	-346.610217	-346.609273	-346.647311	25.493	
O	 0.0591516348	-0.0081136585	 0.1330059903	-0.328893
C	 0.0046929283	 1.1942440667	 0.0384979144	 0.388555
C	-1.3085297635	 2.0274408718	-0.0838140633	-0.370308
C	-0.812871276	 3.4387382575	-0.4038081133	-0.040002
C	-0.790896255	 4.6999926424	 0.5342238616	-0.244623
C	 0.75609284	 4.8349304061	 0.2442290466	-0.314908
C	 0.667458792	 3.3831905083	-0.145313631	 0.318406
C	 1.1375697702	 2.1628141727	 0.1274417475	-0.349395
H	-1.9810046896	 1.587921457	-0.8239297267	 0.124567
H	-1.8159128601	 1.979043871	 0.8867059813	 0.132571
H	-1.0571044267	 3.7501440143	-1.4249809681	 0.09485
H	-1.422863295	 5.5449309758	 0.253434299	 0.110655
H	-0.9721526469	 4.432862908	 1.5778797051	 0.119066
H	 0.9366411313	 5.4999484347	-0.6062275846	 0.125626
H	 1.4277848827	 5.1058358755	 1.0610184695	 0.122653
H	 2.1207012037	 1.8718837468	 0.4735068616	 0.111181
