18
gdb 16425	3.23142	2.19458	1.81876	1.5111	66.28	-0.2374	0.071	0.3083	800.6323	0.156097	-384.919359	-384.912585	-384.911641	-384.949956	27.377	
O	 0.1500678715	 1.3851753199	-0.3090690719	-0.440259
C	 0.0286300948	 0.006972562	 0.011317685	 0.129193
C	 0.693453076	-0.3807648728	 1.356141626	-0.115873
O	-0.2150484292	-0.4548280603	 2.4551678241	-0.279687
C	-1.520717791	-0.8800131119	 2.0874245695	 0.143753
C	-1.5226177715	-1.7954864591	 0.8304623136	-0.266363
C	-1.4339883112	-0.4676612878	 0.0182451345	-0.048112
C	-2.1880338222	 0.2041048845	 1.2055904593	-0.244121
H	-0.3408636098	 1.8897578522	 0.3481386614	 0.281095
H	 0.5743208255	-0.5036544295	-0.7904591382	 0.088621
H	 1.204140764	-1.3474729918	 1.2405800329	 0.095618
H	 1.4509279998	 0.3639635128	 1.6153539941	 0.114991
H	-2.0095021811	-1.2143433702	 3.0043237082	 0.076443
H	-0.7331421677	-2.542623594	 0.7202249514	 0.102306
H	-2.494479405	-2.2791753882	 0.7081144541	 0.105175
H	-1.8751566225	-0.41352857	-0.9785404037	 0.071343
H	-3.2695882809	 0.0708960411	 1.121319239	 0.102033
H	-1.9756645496	 1.2453601631	 1.4672277807	 0.083844
