23
gdb 120191	3.67422	0.83659	0.76596	1.9005	86.9	-0.2335	0.0866	0.3201	1626.4821	0.204735	-388.228316	-388.218779	-388.217835	-388.263031	36.013	
C	-0.8817495978	 1.7074683553	-0.9954342124	-0.37867
C	-0.6693076542	 0.2185738739	-0.7095120089	-0.16199
C	-1.9735503494	-0.5895982407	-0.7482048989	-0.213905
C	-1.7603541451	-2.072007714	-0.4895290869	 0.020869
C	-1.5797489869	-2.5743229629	 0.9742298951	 0.021057
O	-3.0062474529	-2.2631269294	 1.2303218385	-0.312264
C	-2.9721619239	-2.9562034262	-0.0808353531	 0.002817
C	-2.0211049405	-4.0086405424	 0.5605484526	 0.050058
C	-1.1547955318	-4.9729652189	-0.2329479083	-0.443907
H	 0.0613958838	 2.2616745735	-0.957650507	 0.109281
H	-1.3189181953	 1.8608964193	-1.9885191844	 0.11243
H	-1.5624877481	 2.1559731172	-0.2635893592	 0.116841
H	 0.041415688	-0.1966611248	-1.4369344334	 0.089968
H	-0.1985890619	 0.0992697282	 0.2751274785	 0.095888
H	-2.6788715244	-0.1987428463	-0.0085181262	 0.115504
H	-2.4431996631	-0.4649117517	-1.7341163115	 0.087016
H	-1.0805058836	-2.5125102849	-1.224705765	 0.065004
H	-0.8588807198	-2.2649989061	 1.7333168443	 0.086424
H	-3.9260079712	-3.1024557033	-0.5915735978	 0.085844
H	-2.5167922633	-4.5093734783	 1.3964892052	 0.083216
H	-0.6413526745	-4.5071230924	-1.0773664173	 0.121895
H	-0.391606126	-5.417032049	 0.4153080825	 0.123314
H	-1.764140118	-5.793731196	-0.6266258165	 0.12331
