18
gdb 117601	2.08843	1.19326	0.99696	3.2094	79.27	-0.2819	-0.0047	0.2772	1315.6512	0.143221	-401.912585	-401.902105	-401.901161	-401.948241	37.198	
C	-0.0576177781	 1.5353922063	 0.1651621949	-0.385201
C	 0.055549406	 0.0367459543	-0.0530104525	-0.061159
O	 0.7491904262	-0.5029299745	 1.0747803308	-0.272055
C	 0.7920101892	-1.9154933981	 1.1889031936	 0.039037
C	 1.5270762668	-2.5956000608	 0.0102105214	-0.420118
C	 1.489516301	-2.211372336	 2.4469662213	 0.326405
C	 2.0822904162	-2.4816734001	 3.4541030624	-0.410997
C	-0.5930756282	-2.4671682991	 1.2768609264	 0.273479
N	-1.6715378626	-2.8801846449	 1.3098387804	-0.343707
H	 0.9338741893	 1.9859567804	 0.2635053826	 0.131211
H	-0.5678597442	 1.9996119209	-0.6838632567	 0.121493
H	-0.6256076463	 1.749228437	 1.0742213484	 0.136252
H	-0.9397822798	-0.4206130855	-0.1377725794	 0.120704
H	 0.6062272632	-0.1763645397	-0.979392113	 0.100411
H	 2.5220199077	-2.1536992088	-0.076552347	 0.14484
H	 1.6238613754	-3.666424905	 0.1993935701	 0.150062
H	 0.9792171366	-2.4553885587	-0.923560651	 0.139512
H	 2.5969079916	-2.7115423378	 4.3548969172	 0.209831
