14
gdb 26620	2.45371	1.90781	1.07458	2.0591	72.62	-0.1883	-0.0333	0.155	1024.8171	0.102596	-470.046145	-470.038528	-470.037583	-470.077947	29.541	
N	 0.0009460664	 1.4175632211	 0.1547674621	-0.593311
C	-0.0237579723	 0.0374000828	 0.052952741	 0.153568
C	-1.1553447788	-0.719335232	 0.0221122878	 0.3348
O	-2.3707160195	-0.119615668	 0.025468766	-0.432168
N	-1.1493025838	-2.0927532632	-0.0115356311	-0.345968
C	-0.00942348	-2.6677091216	-0.0213651114	 0.10439
O	 1.1829563804	-2.0424536062	-0.0127813401	-0.215271
C	 1.2502951506	-0.6481286933	 0.0071328788	 0.357282
N	 2.3645720113	-0.0368356588	-0.0200851553	-0.565394
H	 0.8846600229	 1.8108794309	-0.1406834446	 0.268813
H	-0.8121274416	 1.8860527024	-0.2165449749	 0.257771
H	-3.0284419617	-0.825588168	-0.0056009979	 0.302818
H	 0.0992431275	-3.7455614525	-0.0401340742	 0.147338
H	 3.1495409685	-0.6837890934	-0.0608235963	 0.225333
