13
gdb 4403	3.91048	1.98853	1.31925	7.6746	64.84	-0.2189	-0.033	0.1858	851.6643	0.098319	-394.852842	-394.846222	-394.845278	-394.883467	25.395	
N	 0.0228756871	 1.391069239	 0.1531947127	-0.578093
C	-0.0474762316	 0.0281009888	 0.051066833	 0.472713
C	-1.2217371828	-0.6981141681	 0.0288189708	-0.246107
C	-1.0916433212	-2.0985455143	-0.0199058928	 0.039448
N	 0.0272863391	-2.7852018012	-0.0512725992	-0.34232
C	 1.2169061873	-2.0964819092	-0.0286369417	 0.439558
O	 2.3282120715	-2.5785545924	-0.0450304555	-0.389979
N	 1.1132960821	-0.6665112897	 0.0189349382	-0.399052
H	 0.8567378642	 1.849093095	-0.1811597258	 0.26479
H	-0.8279746635	 1.8959379872	-0.0373826265	 0.27292
H	-2.1863660237	-0.211090397	 0.0464953054	 0.093331
H	-2.0065179059	-2.6921977619	-0.0392800417	 0.115318
H	 2.0060300074	-0.1945246761	 0.0664774731	 0.257474
