21
gdb 116463	2.7104	1.26082	1.01107	2.7509	74.89	-0.2471	0.0747	0.3218	1248.475	0.183113	-461.352955	-461.343926	-461.342981	-461.38667	34.19	
C	 0.0589017993	 1.3839357364	 0.0956359572	-0.239281
O	-0.1369127793	 0.0010424606	-0.084034036	-0.243937
C	 0.5889958751	-0.5650923876	-1.153200403	 0.136694
C	 2.0935253107	-0.710467767	-0.8692084853	-0.252806
C	 2.7682860793	-1.501963269	-1.9962090346	-0.081274
O	 2.1257988899	-2.7494404843	-2.2321973751	-0.256855
C	 0.7673885418	-2.573277702	-2.6174595393	-0.125876
C	-0.0105137603	-1.950266281	-1.4545964646	 0.109006
O	 0.0361164253	-2.8119557896	-0.3305468063	-0.436039
H	 1.0821824359	 1.6316691466	 0.4140469118	 0.105545
H	-0.1611592503	 1.9502454167	-0.8238869732	 0.099853
H	-0.6318968601	 1.7055264396	 0.8789233028	 0.129889
H	 0.4551744223	 0.0565388627	-2.0584249377	 0.054712
H	 2.5780811157	 0.2666646874	-0.7728442363	 0.098619
H	 2.2151664084	-1.2347871065	 0.0847839209	 0.117122
H	 2.7702166988	-0.9088033595	-2.9264184204	 0.091427
H	 3.8067566151	-1.7361382631	-1.7467902408	 0.114216
H	 0.6985923166	-1.9513285595	-3.524573229	 0.090924
H	 0.3774275562	-3.5692651571	-2.8429705879	 0.118305
H	-1.0672730014	-1.8286032748	-1.7159039663	 0.084416
H	 0.9102952711	-3.2209737891	-0.338442747	 0.285339
