19
gdb 40298	3.06768	1.42009	1.12572	1.8475	71.69	-0.2528	0.0841	0.3369	1106.6398	0.160464	-460.136816	-460.128969	-460.128025	-460.169108	30.505	
C	-0.2622105884	 1.5662635088	-0.0171120505	-0.239104
O	 1.0614522882	 1.0451758142	-0.1328946183	-0.270188
C	-0.018985087	 0.1199420835	 0.079674116	 0.421985
C	-0.0357670187	-0.5511859511	 1.4411069518	-0.268543
C	 0.6754380503	-1.9084643897	 1.473002687	-0.093965
O	-0.0356657249	-2.8468041184	 0.6681338268	-0.244863
C	 0.4298804979	-2.9704053711	-0.6489076967	 0.000137
O	 0.70158359	-1.7463057308	-1.2755504721	-0.235633
C	-0.3058796969	-0.752406677	-1.1304477952	-0.151917
H	-0.4687909325	 2.135287845	 0.8888158991	 0.111303
H	-0.6813206093	 1.9898704989	-0.9296476095	 0.111017
H	 0.4244637299	 0.1268262283	 2.1676655068	 0.107892
H	-1.0755826094	-0.7153970824	 1.750593085	 0.110554
H	 1.7180403245	-1.8150669733	 1.1451414621	 0.11895
H	 0.6693131824	-2.3055349081	 2.4929858483	 0.107128
H	 1.3797940299	-3.5223096406	-0.6981704163	 0.102377
H	-0.358702214	-3.5319885367	-1.1716411284	 0.098877
H	-1.3038292924	-1.2059937191	-1.0547286772	 0.10394
H	-0.2652427295	-0.1360189404	-2.0327424887	 0.110052
