20
gdb 30694	3.6714	1.02155	0.85014	0.9469	82.29	-0.1983	0.0523	0.2507	1393.7704	0.170981	-403.175233	-403.165844	-403.1649	-403.210202	34.482	
C	-0.3596981021	 1.2610674845	-0.0228085103	-0.230786
O	-0.1048833154	-0.1211848446	 0.0163949717	-0.243821
C	 0.7447345818	-0.5420135199	 1.0797571115	 0.012925
C	-0.0105444935	-0.5933746544	 2.4158703173	-0.392366
C	 1.3067870509	-1.8821888189	 0.6961635915	 0.27216
C	 1.0490761207	-2.5583397462	-0.4744140704	-0.166181
N	 1.7518810177	-3.7367518741	-0.4454712637	-0.246517
C	 2.459263418	-3.8283751003	 0.7252545181	-0.070485
C	 2.2039871582	-2.6922157927	 1.4560217097	-0.265071
H	 0.5724653163	 1.8466239657	-0.0702902955	 0.101943
H	-0.9412513143	 1.4551980053	-0.9280541513	 0.122442
H	-0.9408587034	 1.613580137	 0.8421600436	 0.104253
H	 1.5709983944	 0.1850620036	 1.1764242247	 0.066272
H	-0.8548918683	-1.2839144784	 2.3371875528	 0.124438
H	 0.6499984521	-0.9448907149	 3.2138459134	 0.117287
H	-0.3851629164	 0.3935910783	 2.7038804722	 0.107149
H	 0.4269766416	-2.2874229137	-1.309611355	 0.126968
H	 1.7431464269	-4.4299721636	-1.1722039599	 0.258496
H	 3.079614361	-4.6842360985	 0.9374393036	 0.114863
H	 2.6188592539	-2.4627653441	 2.426100166	 0.086031
