16
gdb 91290	3.13489	1.49148	1.22268	3.6373	65.18	-0.2585	0.0418	0.3003	1015.9522	0.125631	-475.026944	-475.019671	-475.018726	-475.059083	28.181	
O	 0.7071742172	 0.8307677802	-0.7516494967	-0.428132
C	 0.1633185877	-0.2487856113	-0.0588249422	 0.139098
C	 0.1413990396	-0.2357146298	 1.5084653168	-0.312435
C	-1.3583898679	-0.6350189989	 1.4689095528	 0.076092
O	-2.2636173575	 0.3231456925	 2.0112905918	-0.252351
C	-2.5490775947	 1.2550683834	 1.057688602	 0.481988
N	-3.2079498235	 2.3140643878	 1.1955649747	-0.564663
O	-2.0102905687	 0.8981314812	-0.1446783325	-0.255342
C	-1.3866110339	-0.3834058096	-0.0552286028	 0.029725
H	 0.0822383266	 1.5636706534	-0.6752242141	 0.298188
H	 0.6352488892	-1.1567691565	-0.4452434631	 0.100052
H	 0.8188134639	-0.9297937286	 2.0083777594	 0.117834
H	 0.2837692733	 0.7641080009	 1.9257077194	 0.126284
H	-1.6241779816	-1.6215732436	 1.8452056783	 0.106861
H	-3.5077924373	 2.4183585658	 2.1617850861	 0.236441
H	-1.8730740026	-1.0732891469	-0.7472080099	 0.10036
