17
gdb 43153	2.69416	1.69458	1.36886	1.2711	71.78	-0.2364	-0.0184	0.218	975.803	0.13704	-421.800959	-421.793788	-421.792844	-421.832481	28.349	
O	 0.0050384194	-0.0669276493	 0.1556882923	-0.317892
C	-0.0119967117	 1.1240258677	 0.0776348405	 0.433104
C	-1.0901781832	 2.2258644262	-0.0406069882	-0.25452
C	-0.8085365966	 3.0191217988	 1.2614312115	-0.225245
C	 0.7677245035	 3.0401697028	 1.2385238009	-0.225244
C	 1.0324930218	 2.2542071543	-0.0714539111	-0.254518
C	-0.0507387922	 2.8711293162	-0.9827578384	 0.517255
C	-0.0749600838	 3.1283180854	-2.4139903461	-0.298544
O	-0.0751437086	 4.2005516546	-1.4412178979	-0.291757
H	-2.1193054725	 2.0240095273	-0.3266874431	 0.092025
H	-1.2318425527	 4.0242232415	 1.2078113997	 0.124476
H	-1.212344144	 2.5182281297	 2.144065487	 0.115447
H	 1.162310208	 4.0561925439	 1.1730121305	 0.124476
H	 1.2102344961	 2.5505817315	 2.1088609465	 0.115447
H	 2.0578955231	 2.0797886019	-0.3873944053	 0.092025
H	 0.8381273291	 3.03941723	-3.0000382325	 0.126733
H	-1.0019851357	 3.0148584776	-2.9733074664	 0.126733
