18
gdb 47369	2.24737	1.51024	1.20713	2.9616	76.96	-0.2381	-0.015	0.2231	1100.8451	0.148441	-401.935175	-401.926823	-401.925879	-401.968262	32.065	
O	-0.0463701739	-0.0617466028	 0.1523883493	-0.305577
C	-0.0478390288	 1.1425745696	 0.062480603	 0.388611
C	-1.3204495025	 1.9759757587	 0.0907282314	-0.273792
C	-1.3114328737	 3.052774895	-1.0063358739	-0.178399
N	-0.080931124	 3.8409353533	-0.9048089983	-0.285124
C	 1.1308591492	 3.0460447	-1.1516222476	-0.185764
C	 1.235753994	 1.9563252033	-0.0556392582	-0.285478
C	 1.1927384158	 2.4564574061	-2.4999710947	 0.35032
C	 1.2132923345	 1.9956759548	-3.610921471	-0.483156
H	-2.1825244007	 1.3114455767	 0.0011154705	 0.118958
H	-1.3640756085	 2.4749712753	 1.0678696571	 0.124896
H	-1.4254024867	 2.5682311594	-1.9898888347	 0.108502
H	-2.1612659398	 3.7285728741	-0.8719555171	 0.107149
H	-0.1130415772	 4.6105711066	-1.5650264633	 0.228332
H	 1.9869213942	 3.7216191223	-1.0387969521	 0.112365
H	 1.3935042709	 2.4703490553	 0.9004884883	 0.126155
H	 2.0739812739	 1.2826638655	-0.2395276458	 0.128598
H	 1.2419255733	 1.5837138169	-4.5896310628	 0.203404
