18
gdb 87886	3.24163	1.32087	1.29265	3.7917	71.85	-0.2283	0.0571	0.2854	1062.6973	0.147516	-439.002524	-438.994612	-438.993668	-439.035065	30.828	
O	-0.3291341557	 1.3531597271	-0.1770247119	-0.439336
C	-0.0936232061	-0.0198674746	-0.1496360908	 0.073515
C	-0.2270812713	-0.7705264948	 1.1725779603	-0.403455
C	-1.2666921546	-0.8994207168	 0.1009245115	 0.447533
O	-2.553540061	-0.2621931874	 0.2494472299	-0.340673
C	-3.2054179992	-1.3690550753	-0.4170082579	 0.115206
C	-3.3169066496	-1.2321608716	-1.9518238492	-0.19214
N	-1.9483032968	-1.8149653297	-2.1207541337	-0.310971
C	-1.8528091636	-2.0801619146	-0.6614455566	-0.202159
H	-1.286241684	 1.4647856293	-0.257645427	 0.294332
H	 0.6660988087	-0.3458723947	-0.8554427698	 0.102505
H	 0.4278552729	-1.6159415922	 1.3612433954	 0.112647
H	-0.4943061747	-0.1794529177	 2.0426240571	 0.127268
H	-4.0590419082	-1.740847601	 0.1513214846	 0.091548
H	-4.122257506	-1.8455551776	-2.3732787179	 0.102976
H	-3.4141171705	-0.2082070184	-2.3260801123	 0.116325
H	-1.9537617679	-2.6652264396	-2.6713523069	 0.223302
H	-1.5875283225	-3.0898018604	-0.3464710347	 0.081578
