21
gdb 63002	2.39521	1.78318	1.55639	2.1469	81.08	-0.2184	0.0734	0.2918	1002.554	0.183532	-383.22751	-383.219424	-383.21848	-383.259295	33.306	
C	-0.0147137613	 1.5662868859	-0.0656189538	-0.412388
C	-0.0049906608	 0.036606275	-0.0352708595	 0.277836
C	-1.4327396845	-0.5168966297	 0.0893605553	-0.406748
C	 0.6579242445	-0.5967344585	-1.2685679742	-0.065134
N	 2.0679544821	-0.2214432954	-1.4761154707	-0.350999
C	 1.7396467849	-1.500364333	-0.8040805669	-0.047583
C	 1.7734383576	-1.4298864652	 0.7058829665	-0.027993
C	 2.1583446906	-0.1334890909	 1.3213502748	-0.260947
N	 0.7378759683	-0.4798275399	 1.1594006438	-0.12965
H	 0.985666613	 1.9623825996	-0.2518536474	 0.130338
H	-0.6748472914	 1.9301862127	-0.8597802798	 0.107391
H	-0.3794347874	 1.9615603467	 0.8871993469	 0.120034
H	-2.0507505356	-0.2108208033	-0.7617608079	 0.102609
H	-1.4207038309	-1.6105694285	 0.1316964783	 0.113329
H	-1.8976207345	-0.1510769135	 1.0082796742	 0.122592
H	 0.0422629019	-0.8238090646	-2.1349882808	 0.080713
H	 2.3303450181	-0.4019093731	-2.4420748109	 0.231392
H	 1.9761961166	-2.4351273431	-1.3002256399	 0.086246
H	 1.8621279034	-2.3681412616	 1.2471499274	 0.083412
H	 2.484756498	-0.1004407642	 2.357922048	 0.104355
H	 2.6122727875	 0.5980613545	 0.6632046566	 0.141196
