16
gdb 103064	2.46057	1.50583	1.10838	4.5167	69.43	-0.2647	0.0152	0.2799	1089.3274	0.123921	-437.837695	-437.829374	-437.828429	-437.871167	30.473	
O	 0.1042436563	 1.3100483069	 0.3001613662	-0.402904
C	 0.0251704866	-0.0092408598	-0.1965720647	-0.14418
C	-1.3856781195	-0.5764788489	-0.0873821193	 0.06899
C	-2.3936256361	 0.1596457503	-0.8106597624	 0.255608
N	-3.2106266568	 0.7399277763	-1.3885934203	-0.335567
C	-1.7150786101	-2.0752504672	 0.0155556638	-0.172062
C	-0.679441862	-2.7778705181	 0.88674984	-0.119864
O	-0.854416843	-1.7887086466	 1.9442147452	-0.286842
C	-1.9105432003	-1.1844693397	 1.2096543593	 0.073404
H	-0.045796942	 1.2772920574	 1.2510633511	 0.293776
H	 0.3175744671	 0.0430742266	-1.2492670198	 0.130429
H	 0.7241926216	-0.6770055892	 0.3186228298	 0.112691
H	-2.4298752216	-2.5447383175	-0.6449559554	 0.132955
H	-1.023409656	-3.7583053778	 1.2308391546	 0.131074
H	 0.354829211	-2.8464989152	 0.5367469637	 0.124716
H	-2.7834433151	-0.8257328974	 1.7412929583	 0.137777
