19
gdb 5959	3.24864	1.14642	1.05175	5.1211	71.76	-0.278	0.041	0.319	1197.8034	0.163402	-365.078367	-365.068546	-365.067602	-365.112945	34.936	
C	 0.0780747125	 1.5754486835	-0.0057848579	-0.40597
C	 0.0177118159	 0.0310301659	 0.0501382864	 0.066378
C	 0.853962706	-0.4926218042	 1.2411413893	-0.405963
C	-1.4448478391	-0.491797215	 0.0931088449	-0.174355
C	-2.2671107759	-0.0669129424	 1.3077499035	-0.102202
O	-3.5504440536	-0.6496504859	 1.1417404539	-0.416055
C	 0.6206020713	-0.4907057072	-1.1902246657	 0.271199
N	 1.0953666911	-0.8986585616	-2.1620600874	-0.342202
H	 1.1076350278	 1.9159344598	-0.1437612492	 0.134959
H	-0.5232393976	 1.9630592427	-0.832565186	 0.135101
H	-0.2976424417	 2.0036291558	 0.9271874283	 0.123442
H	 0.4813339424	-0.0735666071	 2.1794798805	 0.123426
H	 0.8074875801	-1.5830842762	 1.3052662232	 0.135109
H	 1.9021133539	-0.2015418976	 1.1333509863	 0.134959
H	-1.9709784398	-0.1555726054	-0.8064916298	 0.124847
H	-1.4342182165	-1.5862159068	 0.0573938274	 0.12483
H	-1.793383377	-0.415637617	 2.2378275537	 0.091728
H	-2.3368477418	 1.0299202822	 1.364179078	 0.091751
H	-4.094343798	-0.4013764535	 1.8948623008	 0.289017
