23
gdb 89221	2.86159	1.53376	1.21798	0.2351	88.49	-0.2443	0.0896	0.3339	1140.5737	0.20755	-351.149787	-351.141584	-351.14064	-351.18177	33.924	
C	-0.174991983	 1.5587104273	 0.0164051343	-0.411854
C	 0.0406681025	 0.0459731517	 0.000749831	 0.056329
C	 0.8687663708	-0.4875037001	-1.2015078707	-0.311105
C	 1.6206934107	-1.7023029431	-0.6460469802	 0.372557
C	 1.9290003727	-2.8556299666	-1.5709287499	-0.494352
C	 2.6091514708	-1.4526483624	 0.4882710419	-0.096991
C	 2.3134804379	-0.136265668	 1.2043338284	-0.250828
C	 0.7965094582	-0.5301483134	 1.2120622134	-0.051968
C	 1.2057105569	-1.9646543712	 0.7796115866	-0.125733
H	 0.7777075237	 2.0979151809	 0.0563503161	 0.114801
H	-0.7045020605	 1.8918849901	-0.8826364085	 0.111604
H	-0.7691695797	 1.8670377609	 0.8837051874	 0.108555
H	-0.9427372917	-0.4438639189	-0.0243495036	 0.0657
H	 0.223606172	-0.7749609842	-2.0389187549	 0.089445
H	 1.5564238121	 0.2775005714	-1.5837448218	 0.091377
H	 2.5957837316	-2.5470385597	-2.3848949736	 0.115359
H	 2.4195173276	-3.675909741	-1.0362063812	 0.113395
H	 1.0147327893	-3.2541251027	-2.0263171631	 0.112566
H	 3.5466461511	-1.9977412284	 0.5231951483	 0.072604
H	 2.7275226265	-0.1329163495	 2.2161329725	 0.097585
H	 2.5974132055	 0.799280169	 0.7087503895	 0.086277
H	 0.2803719978	-0.4031018827	 2.1647229587	 0.059553
H	 0.8672324771	-2.9135443997	 1.1761199793	 0.075123
