21
gdb 87399	2.19591	1.42851	1.10143	2.7879	78.95	-0.2371	0.0722	0.3093	1213.4817	0.180212	-424.196506	-424.186816	-424.185871	-424.230859	36.411	
C	-0.313236322	 1.2599674292	-1.2734717332	-0.407703
C	 0.2538575534	-0.0866062497	-0.8736463626	 0.108966
O	 1.6470871231	-0.2450756703	-1.2592275768	-0.326187
C	 2.0503318975	-0.5956436834	 0.0881540616	 0.085845
C	 3.1762110045	 0.2800582849	 0.6022289287	-0.401142
C	 0.6273581536	-0.344388054	 0.5856163641	 0.253389
C	 0.1514908558	 0.3917092549	 1.8110774637	-0.394526
C	-0.1800612186	-1.0695960767	 1.6005865546	 0.024797
O	-1.4691238294	-1.4339589954	 1.1968839689	-0.423145
H	 0.2588091538	 2.077711728	-0.8255931798	 0.116399
H	-0.2823667419	 1.3703974709	-2.3620686253	 0.125043
H	-1.3575988207	 1.3409921229	-0.9533417801	 0.118418
H	-0.3562763671	-0.8949754728	-1.2984131672	 0.08628
H	 2.3427930197	-1.6556015678	 0.1375944117	 0.072045
H	 2.8854024192	 1.3343320054	 0.5935675862	 0.120249
H	 3.4498167724	-0.0010236772	 1.6256267551	 0.109948
H	 4.0618008324	 0.1595372063	-0.0295468706	 0.126991
H	 0.8744284877	 0.6538528145	 2.5777345174	 0.113038
H	-0.654041663	 1.1075271885	 1.6788582357	 0.116796
H	 0.3296819778	-1.7991824303	 2.2323704539	 0.084977
H	-2.0551584583	-1.3509584378	 1.9565043741	 0.289523
