20
gdb 89908	4.45272	0.874	0.81727	2.2713	80.07	-0.2384	-0.0261	0.2123	1449.7912	0.169385	-403.116446	-403.107292	-403.106348	-403.151228	33.702	
C	-0.4301040376	 1.4638239225	 0.0630185733	-0.404663
C	 0.0344749571	 0.019031175	 0.030603494	 0.087432
C	 1.1040625291	-0.4482883747	-0.9975284186	-0.338124
C	 1.9197572198	-0.922281551	 0.2091457326	 0.343577
C	 2.6103709608	-2.2579290562	 0.3138804148	-0.379395
C	 3.95624225	-2.2473395174	-0.3860293653	 0.160561
O	 4.2867033909	-3.0131309492	-1.2533416688	-0.234648
C	 2.1749423134	 0.2131853289	 1.1199691502	-0.289027
N	 0.8649363213	-0.4651430783	 1.203565435	-0.187387
H	 0.401626217	 2.1746494882	 0.0626853635	 0.11686
H	-1.0472199018	 1.6793657085	-0.8157953062	 0.121936
H	-1.0354089602	 1.64904885	 0.9563438143	 0.130237
H	-0.8408688732	-0.6351437617	-0.0081820167	 0.089855
H	 0.7581023751	-1.2587181288	-1.6420311352	 0.11615
H	 1.5743032772	 0.3179575158	-1.6216650721	 0.104381
H	 2.7852413657	-2.4748690101	 1.3765868767	 0.131072
H	 2.0015966525	-3.0638062696	-0.1070333707	 0.12175
H	 4.6457393191	-1.4456527354	-0.0331660006	 0.076161
H	 2.7856480218	 0.0334922979	 1.9999513509	 0.119833
H	 2.2460340719	 1.2244118056	 0.7283233391	 0.113438
