18
gdb 22411	4.9573	0.88526	0.86148	1.7283	76.57	-0.2436	0.0028	0.2464	1369.039	0.146213	-439.013327	-439.004793	-439.003849	-439.047202	31.941	
O	-0.2003267579	 1.1642886088	 0.8386210583	-0.394582
N	-0.051918465	-0.2005456947	 0.5209961361	-0.237801
C	-1.0416572187	-0.6176132462	-0.148180475	 0.418133
C	-2.36395489	-0.0467010616	-0.6173481756	-0.385394
C	-2.8245947418	-1.5121765491	-0.8714424641	 0.447102
C	-4.0017685898	-2.1290805476	-0.0878290159	-0.345833
C	-4.5950563577	-2.4062449096	-1.4824572076	-0.073698
O	-3.4490013178	-1.8097204758	-2.1284926756	-0.311596
C	-1.3607244535	-2.005622446	-0.6582492591	-0.379897
H	 0.5971794517	 1.3399213047	 1.3493546268	 0.305846
H	-2.9293402214	 0.5513286239	 0.1021341371	 0.124175
H	-2.2779928735	 0.5132015959	-1.555020635	 0.136801
H	-3.7537085847	-3.0131287441	 0.5021428834	 0.115203
H	-4.563272866	-1.4280672694	 0.5322073097	 0.115721
H	-4.7111374203	-3.4620349474	-1.7530419534	 0.106495
H	-5.5216740221	-1.8726522457	-1.7233237722	 0.106761
H	-0.8854294415	-2.2255668981	-1.6206129497	 0.133758
H	-1.2009367898	-2.8471980679	 0.0207351919	 0.118807
