22
gdb 101855	6.23876	0.52383	0.50159	3.9994	84.86	-0.2463	0.0267	0.273	2220.8171	0.190766	-441.475361	-441.46387	-441.462926	-441.513562	39.245	
C	-0.0258020391	 1.3635450917	 0.0720329948	-0.314098
N	 0.0195822717	-0.0628077856	-0.168458387	-0.205805
C	-1.0441621479	-0.7114106667	 0.0006120133	 0.134956
O	-1.0744217745	-2.0462391911	-0.1801019676	-0.207406
C	-2.3541817054	-2.6716450185	-0.0748394934	-0.084533
C	-2.1438794608	-4.1809342167	 0.0134564904	 0.01647
C	-1.3431239657	-4.5743254594	 1.2593607943	-0.392411
C	-3.4959333755	-4.8945093007	-0.0418887942	-0.079512
O	-3.2518960492	-6.2902939365	-0.106247917	-0.420425
H	 0.6943366615	 1.6286481096	 0.8547967434	 0.127331
H	 0.2797312716	 1.8998232587	-0.8337872064	 0.12702
H	-1.0177993084	 1.7373971265	 0.3763742585	 0.093401
H	-2.0064215735	-0.2708186798	 0.3089438691	 0.069204
H	-2.878475743	-2.302395855	 0.8192715581	 0.101224
H	-2.96066081	-2.4138536601	-0.9546069628	 0.103486
H	-1.5821477135	-4.4854848755	-0.8787625092	 0.102578
H	-0.3656134424	-4.0874416146	 1.260286809	 0.135455
H	-1.8735140561	-4.2744624279	 2.1721852944	 0.101947
H	-1.2023156341	-5.6562804339	 1.2914381462	 0.13473
H	-4.0886739972	-4.6352651534	 0.851964425	 0.083734
H	-4.0633291307	-4.5524315585	-0.9230468138	 0.084072
H	-4.0975433478	-6.7466536327	-0.0803735352	 0.288583
