21
gdb 100658	2.62705	1.05229	0.92401	1.7075	74.8	-0.2515	-0.0234	0.228	1350.4555	0.178602	-461.367565	-461.356643	-461.355699	-461.403465	39.58	
C	-0.0378935438	 1.617909842	 0.0795857361	-0.432689
C	 0.0334668246	 0.087660348	-0.0065134572	 0.115026
C	 0.5942443391	-0.5074256301	 1.3053133524	-0.433724
C	-1.3731756148	-0.4927268995	-0.1747586011	 0.164824
O	-2.3953886842	 0.1357754875	-0.1012773075	-0.256715
C	 0.8479168497	-0.4294442663	-1.218592151	 0.081051
O	 0.1812150961	-0.1480462603	-2.4563620951	-0.446214
C	 2.2986984056	 0.0516937163	-1.3232824209	-0.080333
O	 2.9184714381	-0.519120148	-2.4558094894	-0.420834
H	 0.9349621948	 2.0502134746	 0.3275127681	 0.120007
H	-0.3887747695	 2.0696285577	-0.8544547216	 0.110772
H	-0.7556808586	 1.9134819916	 0.8479181215	 0.141355
H	-0.0223442815	-0.2048530252	 2.156958121	 0.133783
H	 0.614578422	-1.6019655573	 1.2728211644	 0.125252
H	 1.6132107867	-0.1574210308	 1.4909654639	 0.132521
H	-1.3854588337	-1.5937931063	-0.3480742083	 0.078296
H	 0.8696623634	-1.5256842669	-1.1779841673	 0.099236
H	 0.0376661957	 0.8042111449	-2.5116065368	 0.288131
H	 2.3217023685	 1.1540491436	-1.3679282302	 0.08252
H	 2.8798796189	-0.2551448235	-0.4482868898	 0.110871
H	 2.2634425926	-0.4631818922	-3.1637695815	 0.286868
