15
gdb 18546	4.13427	2.06593	1.55122	3.4291	66.79	-0.2185	-0.002	0.2165	805.5946	0.120847	-362.684256	-362.677946	-362.677001	-362.714832	24.334	
O	-0.0572676305	-0.0416926539	 0.1631691454	-0.320591
C	-0.0923893565	 1.1453573481	 0.0309119302	 0.402298
C	-1.1849685138	 2.2240084405	-0.1397693737	-0.401551
C	-0.0290719895	 3.255688163	-0.0329985647	 0.041591
C	 0.2307559372	 4.0798748669	 1.2535517338	-0.298066
C	 1.5111832911	 3.454254697	 1.7867339171	-0.091841
C	 1.8409335726	 2.3555889432	 1.1044815759	-0.063167
N	 0.9400455713	 2.1201929882	 0.0314917418	-0.109233
H	-1.7381063166	 2.1996141298	-1.0810292982	 0.134965
H	-1.8916242393	 2.2290208512	 0.6936289245	 0.138426
H	 0.1146600394	 3.8587200696	-0.9328044459	 0.094297
H	 0.3439121709	 5.1443274205	 1.026036063	 0.118291
H	-0.5832938229	 4.0028517126	 1.9880148069	 0.114383
H	 2.0586554951	 3.844247082	 2.6342731086	 0.106593
H	 2.6588691517	 1.6699504215	 1.2752672654	 0.133605
