20
gdb 112409	1.93264	1.5707	0.96392	2.5073	76.16	-0.2593	0.0242	0.2835	1254.147	0.1717	-440.309858	-440.30089	-440.299946	-440.34359	33.98	
C	-0.7107569973	 1.3256359573	-0.0260260213	-0.419979
C	 0.1236954275	 0.0460497062	-0.0517251329	-0.006842
C	 1.3128736371	 0.0529082564	-1.0265883341	-0.313059
C	 2.2615191723	-0.9616630097	-0.431790811	 0.407772
N	 3.2098609739	-1.5384230498	-1.0303273787	-0.537734
O	 1.928111367	-1.1764067983	 0.8832506394	-0.263057
C	 0.8078764781	-0.3438475647	 1.2774401642	 0.069074
C	 1.3581152061	 0.8002074925	 2.1289406193	-0.064291
O	 2.0900053915	 0.3023780234	 3.2288015953	-0.421889
H	-0.1001812104	 2.2046180626	 0.2036893164	 0.126619
H	-1.1770742762	 1.4948428915	-1.0013252519	 0.125841
H	-1.5131123946	 1.2665088755	 0.7166584073	 0.124006
H	-0.5304768606	-0.7901363986	-0.3262251325	 0.093941
H	 1.0550877154	-0.2070883126	-2.0537785572	 0.137868
H	 1.8023633385	 1.0342604403	-1.0498968685	 0.129907
H	 3.7022719029	-2.1727145392	-0.3985746999	 0.220429
H	 0.1702692921	-0.9699998103	 1.9088150242	 0.097666
H	 1.9725752892	 1.4710665205	 1.5056863788	 0.088847
H	 0.5330092906	 1.3915668047	 2.5382198048	 0.114079
H	 2.7176375968	-0.3360334679	 2.8694983384	 0.290802
