19
gdb 68456	2.40671	1.92325	1.30162	2.3454	74.78	-0.2433	-0.0153	0.228	1010.3689	0.159401	-423.037491	-423.029404	-423.02846	-423.070118	31.406	
C	-0.0710276051	 1.5338001181	 0.1049013575	-0.480975
C	 0.019521376	 0.0258244247	 0.0093796131	 0.187024
C	 1.0789644337	-0.6586072455	-0.926067562	-0.285806
C	 1.0750192398	-1.8328338591	 0.0822871791	 0.127941
C	 0.6550861269	-0.8170196417	 1.171963956	-0.28582
O	 0.0422511237	-2.7619164596	-0.1965810183	-0.273698
C	-1.2368665276	-2.178340193	-0.410864427	-0.173918
C	-1.3019957809	-0.6461674372	-0.3082821278	 0.350209
O	-2.345924968	-0.0633206695	-0.4755117183	-0.330755
H	 0.9093953025	 1.9621917526	 0.3357940721	 0.107031
H	-0.4263292222	 1.9652731725	-0.8354913561	 0.131338
H	-0.7750123867	 1.8352955465	 0.8860823063	 0.131346
H	 0.8074828706	-0.8768365249	-1.9622701244	 0.109589
H	 2.0203754228	-0.1033922748	-0.9017575264	 0.110049
H	 1.9803260594	-2.4248292664	 0.2204955112	 0.084851
H	 1.5162600054	-0.2917824964	 1.593406165	 0.110044
H	 0.0110689671	-1.1744747183	 1.9797443927	 0.109583
H	-1.6031978168	-2.4573088721	-1.4074077829	 0.135993
H	-1.9511911707	-2.5873861558	 0.3154613501	 0.135975
