18
gdb 90425	2.39809	1.58022	1.2161	3.5538	73.37	-0.2211	-0.0303	0.1908	1080.8341	0.146851	-439.044549	-439.036014	-439.035069	-439.078065	31.769	
C	 0.0917217041	 1.560185368	 0.1381569699	-0.327868
N	 0.0643902239	 0.1185957747	 0.2260250942	-0.09046
C	-1.2165592364	-0.6068941005	 0.3359408934	-0.183434
C	-0.5256245094	-1.6166462612	 1.2621980896	-0.089719
C	 0.4968846003	-2.574070294	 0.5437188149	 0.008745
O	 0.2921270252	-2.9227788909	-0.7968171133	-0.415801
C	 1.6408706289	-1.5596436099	 0.8832590064	 0.392542
O	 2.8257353262	-1.5641113064	 0.7284728261	-0.300933
C	 0.6152549337	-0.5577712252	 1.4374699091	-0.136984
H	 1.1283077984	 1.9110778847	 0.1465347931	 0.137087
H	-0.3629336151	 1.8788202451	-0.8058408549	 0.127689
H	-0.4491772919	 2.0551353464	 0.9652492645	 0.098265
H	-1.9941791614	-0.0307181214	 0.8619789979	 0.094057
H	-1.6245914849	-0.9788080293	-0.610619629	 0.108541
H	-1.0813484801	-2.0464752348	 2.0916971396	 0.085731
H	 0.6289853761	-3.5094350848	 1.0994247385	 0.115932
H	 0.4148521834	-2.1238830452	-1.3230465324	 0.295486
H	 0.7918468388	 0.0630464146	 2.3200486824	 0.081123
