14
gdb 28737	6.72547	0.84686	0.75902	5.2173	67.23	-0.2101	-0.01	0.2002	1394.8397	0.101696	-470.053786	-470.045463	-470.044519	-470.087503	29.31	
N	 0.2019931572	 1.394281163	 0.0407215111	-0.611405
C	-0.0180862913	 0.0080711582	 0.0472919699	 0.274162
C	-1.1247033146	-0.7935563281	 0.1108125377	-0.149743
N	-0.7604655553	-2.130893035	 0.2038469039	-0.342982
C	 0.5387407138	-2.1167946318	 0.172695981	 0.473346
N	 1.0627202021	-0.8661698457	 0.0834859439	-0.347307
O	 1.3930978048	-3.1746420946	 0.223103253	-0.234715
C	 0.9127891985	-4.4012439895	-0.1735584588	 0.162799
O	 1.5887723009	-5.3757226904	-0.0837612678	-0.255673
H	 0.434689278	 1.7524442711	-0.8811941805	 0.250378
H	-0.6152010728	 1.8912811637	 0.3724457575	 0.255104
H	-2.1617374074	-0.4960174816	 0.1096143097	 0.108086
H	 2.0359525315	-0.6128982669	 0.1263131442	 0.277746
H	-0.1148383553	-4.3372755024	-0.556125415	 0.140205
