16
gdb 25610	3.81386	1.04112	0.88504	3.8102	70.58	-0.224	0.0118	0.2358	1271.3177	0.125586	-437.933327	-437.925174	-437.92423	-437.967535	29.204	
O	 0.6982648581	 1.0373353406	-1.4198992299	-0.328718
C	 0.3376169763	 1.4714767127	-0.3442148968	 0.160878
N	 1.0873323358	 1.452988909	 0.7875844672	-0.25643
C	 2.476328047	 0.9907605036	 0.7669499633	-0.30578
C	 3.4599263249	 2.0252847991	 0.2932941346	 0.237126
C	 3.7022954987	 2.3795559218	-0.9995074989	-0.082717
O	 4.636406617	 3.3626387356	-1.0608852605	-0.13691
C	 5.0036191304	 3.6431578438	 0.2171383978	 0.008162
C	 4.3181752291	 2.8602170255	 1.0890757433	-0.294208
H	-0.6644029375	 1.9130961071	-0.1757512257	 0.079245
H	 0.7543712732	 1.96453523	 1.5893113376	 0.24937
H	 2.7325470523	 0.6555216864	 1.7755360088	 0.113699
H	 2.5012502267	 0.1203094168	 0.1076910465	 0.150618
H	 3.2867902148	 2.0464183476	-1.9356596208	 0.163491
H	 5.7546250564	 4.4070559619	 0.3315625355	 0.136364
H	 4.4121434068	 2.8613948285	 2.164613938	 0.105811
