18
gdb 93597	4.56454	0.93481	0.80162	4.2604	80.75	-0.2635	-0.0384	0.2251	1373.4925	0.148992	-401.986996	-401.978571	-401.977626	-402.020036	31.895	
O	-0.1019251517	 1.452218193	-0.0190791629	-0.43573
C	 0.0089828229	 0.0381154214	-0.0004983766	 0.124871
C	-1.4048616079	-0.5331358025	 0.0453194155	-0.212211
C	-1.379726309	-2.0622802929	 0.1576690749	-0.313584
C	-0.3792334594	-2.6810135729	-0.8008948886	 0.163867
C	 0.5701523558	-1.9704559427	-1.4285064016	-0.122958
C	 0.7528848359	-0.4926331707	-1.2349851794	-0.286964
C	-0.4787049584	-4.0911280555	-1.0170656077	 0.216392
N	-0.5885439238	-5.234767241	-1.1662411346	-0.335872
H	 0.7849998858	 1.8264506344	-0.0134485412	 0.283249
H	 0.548412309	-0.292359139	 0.9032204851	 0.073144
H	-1.9473591213	-0.0964936543	 0.8884761057	 0.114077
H	-1.9303200957	-0.2302390924	-0.8682501277	 0.114143
H	-1.1281945798	-2.371325245	 1.1811433129	 0.129393
H	-2.3748059777	-2.474710306	-0.0395891354	 0.130777
H	 1.2459416559	-2.4762224605	-2.1119531555	 0.116799
H	 0.3853337077	 0.0467959462	-2.1201101992	 0.1328
H	 1.8249476617	-0.2628225696	-1.1682781838	 0.107807
