19
gdb 92681	3.09514	1.22515	0.93451	4.245	85.19	-0.2214	-0.0438	0.1775	1261.3346	0.159133	-382.091754	-382.082691	-382.081747	-382.125504	33.382	
C	 0.055439862	 1.5830872875	-0.0480017104	-0.393964
C	 0.0649808956	 0.0579859754	 0.0771688965	-0.063796
N	 0.6783727275	-0.5984102899	-1.0865629111	-0.0743
C	-0.2060027757	-0.8491974511	-2.204770368	-0.326889
C	 1.4618156997	-1.7517521836	-0.6465617392	-0.197853
C	 1.6995647297	-1.4752829605	 0.8062346563	-0.188946
C	 0.9198338477	-0.4713013272	 1.2191426694	 0.216048
C	 0.8343780409	 0.0403252676	 2.5402587384	 0.219486
N	 0.737530432	 0.4798490637	 3.6079111026	-0.34336
H	 1.0725473581	 1.9582526122	-0.1889161578	 0.12625
H	-0.548523121	 1.8943822951	-0.9054258849	 0.120001
H	-0.3732606839	 2.0414871696	 0.8484440139	 0.13406
H	-0.9774979408	-0.2840501879	 0.2362981507	 0.076878
H	-0.6920838571	 0.0797223669	-2.5168388018	 0.126184
H	 0.3709040911	-1.2207338908	-3.057760401	 0.124271
H	-0.9967715667	-1.5903853309	-1.9798652314	 0.096425
H	 0.9218024468	-2.7144430117	-0.7601254286	 0.100419
H	 2.3928780878	-1.8506469955	-1.2226571424	 0.11995
H	 2.3848570462	-2.0417042189	 1.4230351888	 0.129137
