19
gdb 51480	2.99952	1.18916	1.11856	3.8856	75.43	-0.2712	0.0028	0.274	1175.768	0.160472	-423.047536	-423.039331	-423.038387	-423.081218	30.414	
O	 0.4071940493	 0.0335995409	 0.2831987308	-0.277451
C	 0.4326996364	 1.2228847816	 0.3865622622	 0.17763
O	 1.1090993869	 2.0120775701	-0.4750320426	-0.187457
C	 1.032393782	 3.4079909421	-0.2364145986	 0.093932
C	 1.8909294172	 4.0908494039	 0.7984543864	-0.090681
C	 3.0702898962	 3.3329342771	 1.3966158992	-0.220042
C	 3.8603435115	 2.7510031562	 0.1981305101	-0.220903
C	 3.503742626	 3.6420366464	-1.0168075092	-0.208962
C	 2.1594583511	 4.2814457718	-0.6901616613	-0.094387
H	-0.0833417208	 1.7984292619	 1.1783629932	 0.082315
H	 0.0272892668	 3.7958949208	-0.3796319159	 0.108996
H	 1.4199833534	 4.8630141534	 1.3978235708	 0.088924
H	 3.6828229996	 4.0468085048	 1.9585589515	 0.106375
H	 2.7652275708	 2.5543677907	 2.1046528231	 0.105073
H	 4.936203425	 2.7344610977	 0.3907681795	 0.097752
H	 3.5495677611	 1.7229609018	 0.0068227236	 0.131167
H	 4.2398838708	 4.443738944	-1.143536099	 0.102877
H	 3.4835674316	 3.0717424294	-1.9503978362	 0.113874
H	 1.8917761951	 5.1980791155	-1.2046407275	 0.090967
