19
gdb 86976	2.94935	1.22193	0.94105	2.8466	77.67	-0.2519	-0.0268	0.2251	1258.0817	0.158132	-423.043569	-423.034761	-423.033817	-423.077461	32.627	
C	-0.4456891913	 1.3732399177	 0.0535685568	-0.395029
C	 0.0004906085	-0.0926954339	 0.153638179	 0.083001
O	 0.5301739025	-0.557257119	-1.0900075363	-0.285623
C	 1.9106902771	-0.3049006928	-1.2758890527	 0.022252
C	 2.7688245061	-1.0187099946	-0.2302810286	-0.254033
C	 2.1889595585	-0.7763280721	 1.13635159	-0.095441
C	 0.9434726679	-0.3379138683	 1.302397452	-0.055806
C	 2.2292103765	-0.710940524	-2.7055507792	 0.139106
O	 3.3259723083	-1.0254456115	-3.087110015	-0.248114
H	 0.407317897	 2.037153104	-0.1171747786	 0.121218
H	-1.1558512498	 1.493046371	-0.7690112112	 0.12517
H	-0.932332735	 1.689350076	 0.9818619824	 0.118571
H	-0.8960961411	-0.7087371913	 0.3061584829	 0.097072
H	 2.1139591995	 0.7809513837	-1.2149241931	 0.095514
H	 2.8137115234	-2.0932399447	-0.4514219697	 0.124065
H	 3.7989095347	-0.6533782426	-0.2955706153	 0.124158
H	 2.8232983479	-0.9701035917	 1.9969780664	 0.095632
H	 0.5442453482	-0.1451653923	 2.2946439423	 0.094582
H	 1.3468788311	-0.6797756635	-3.3817385821	 0.093704
