23
gdb 41799	2.19507	1.90167	1.45469	0.3096	88.56	-0.2305	0.0249	0.2554	1046.3038	0.210912	-351.183163	-351.175632	-351.174687	-351.214719	31.632	
C	 0.0024564493	 1.6404384836	-0.0183482172	-0.214713
C	 1.4929142467	 2.0215745355	-0.246898129	-0.21502
C	 2.2533954315	 0.6860416143	-0.550478361	-0.028398
C	 1.1134842007	-0.2909155496	-0.9229804832	-0.216832
C	-0.0431162362	 0.0936000649	 0.0172463823	 0.022966
C	 0.0899005895	-0.4967669055	 1.4365062753	-0.200548
C	 1.2089442614	 0.0590205127	 2.3386806432	-0.250636
C	 2.6285805173	-0.093600038	 1.8412812173	-0.05041
C	 3.0773360325	 0.1834920909	 0.615858111	-0.069261
H	-0.4108279738	 2.0900462076	 0.8899995324	 0.091808
H	-0.6079658206	 2.0024311088	-0.8517903664	 0.09256
H	 1.5874874354	 2.7105990131	-1.0911513969	 0.093754
H	 1.9279966595	 2.5251507659	 0.6195544322	 0.103262
H	 2.9262918566	 0.8255481752	-1.4007237118	 0.06068
H	 0.8074120901	-0.1138131873	-1.9618691486	 0.084859
H	 1.4118988809	-1.339989965	-0.8402262097	 0.090842
H	-0.9948186679	-0.2689313864	-0.387099924	 0.059839
H	-0.8609350491	-0.3342497355	 1.9608321474	 0.088051
H	 0.212263776	-1.5839431432	 1.3517857389	 0.092848
H	 1.0116421429	 1.1226865601	 2.5393429767	 0.110632
H	 1.1238453804	-0.4335021777	 3.3135747216	 0.096014
H	 3.350801951	-0.435054439	 2.5800440841	 0.079725
H	 4.1384481257	 0.0412606648	 0.4213964255	 0.077978
