19
gdb 39980	3.61314	1.5579	1.40783	2.6121	77.86	-0.2371	0.0721	0.3092	975.0942	0.162549	-382.002938	-381.996216	-381.995272	-382.033817	28.199	
C	 0.0193033357	 1.5161462398	-0.0104322331	-0.310986
N	 1.2610633661	 0.7129360359	 0.0378826187	-0.369744
C	-0.0447489784	 0.0391850602	-0.0068158727	 0.38183
C	-0.4441846941	-0.8255775618	 1.1952020938	-0.235331
N	-0.6268093798	-2.1978722851	 0.6709689833	-0.097925
C	-1.6648865334	-2.3834140775	-0.3566662274	-0.038075
C	-2.0143407379	-1.0841692857	-1.0949788481	-0.256112
C	-0.4805853508	-0.7869575765	-1.1982681348	-0.149408
C	-0.2227839286	-2.2527437243	-0.7276659632	-0.060108
H	-0.1943398533	 2.0769428641	 0.8961268896	 0.118323
H	-0.2291347591	 2.0409984779	-0.9302178466	 0.10862
H	 1.6977443177	 0.6993533419	-0.8815494848	 0.226054
H	 0.3529267206	-0.8327479726	 1.9429139426	 0.124657
H	-1.3658814266	-0.4818783504	 1.6756394055	 0.106431
H	-2.2920006516	-3.2637521494	-0.2703236579	 0.091206
H	-2.4475322016	-1.3000866762	-2.074793698	 0.106615
H	-2.6377925356	-0.3428428498	-0.5835800657	 0.097079
H	-0.1079185606	-0.4493715932	-2.1656689206	 0.064578
H	 0.5148431513	-2.9666399572	-1.0734330705	 0.092298
