17
gdb 75267	2.33331	1.62092	1.37745	3.1917	78.01	-0.2376	-0.0054	0.2321	1026.7977	0.136662	-380.869743	-380.861763	-380.860819	-380.902256	30.102	
C	 0.030362639	 1.484805054	 0.057283393	-0.503781
C	-0.0168563783	-0.0068927198	-0.0204505054	 0.33787
C	-0.0856666645	-0.7930046521	-1.0979932105	-0.177056
C	-0.1159956183	-2.2522867589	-0.714149642	-0.219572
N	-0.0379189139	-2.2792706515	 0.7697026322	-0.115443
C	 1.2283997235	-1.7772141091	 1.350108949	-0.168685
C	 2.4083628733	-1.5892249135	 0.5468114194	 0.309233
N	 3.3743673885	-1.4829640523	-0.0811896264	-0.34818
C	 0.0316107281	-0.8743882184	 1.1976186378	-0.136376
H	 0.9731950355	 1.8279748529	 0.5001691911	 0.142547
H	-0.0651132214	 1.9378222204	-0.9321622111	 0.134259
H	-0.7766524478	 1.8736724322	 0.6904212629	 0.130502
H	-0.0885167777	-0.4536465487	-2.1270747253	 0.107922
H	-1.048999228	-2.7460067691	-1.0127608946	 0.124834
H	 0.707973963	-2.8285307233	-1.1516647931	 0.139365
H	 1.4382517394	-2.2019486291	 2.3284777036	 0.137578
H	-0.5066962203	-0.5883322038	 2.0987632993	 0.104983
