17
gdb 85656	2.78804	1.19736	0.89225	2.6692	74.83	-0.2409	-0.0245	0.2164	1266.3615	0.134109	-421.818534	-421.809706	-421.808762	-421.852375	33.099	
O	 0.0108493573	 1.3869031361	 0.202281553	-0.430255
C	 0.0505904069	-0.0092211152	-0.0194387446	 0.105627
C	-1.3862794367	-0.5465259165	-0.0745863162	-0.231639
C	-1.2529861993	-1.921107975	-0.7639506582	-0.298776
C	-2.4575741823	-2.4430937585	-1.3795165672	 0.31868
C	-3.4630484127	-2.8515954794	-1.8946835307	-0.424651
C	-0.0579616183	-1.7310335784	-1.7470663035	 0.396065
O	 0.2482148561	-2.4860968145	-2.6258372106	-0.295762
C	 0.6504948556	-0.4292271626	-1.3718998374	-0.355377
H	 0.9133502884	 1.7046412134	 0.3053981484	 0.2865
H	 0.5945438328	-0.5140907899	 0.7954476265	 0.075642
H	-1.8552694562	-0.6032306903	 0.9090434262	 0.119965
H	-1.9842935511	 0.1274724881	-0.6966170606	 0.12953
H	-0.8813175702	-2.6519759011	-0.0275371333	 0.134264
H	-4.3457856494	-3.2218592987	-2.3541388306	 0.197963
H	 0.3766970665	 0.3238462098	-2.1231137235	 0.146896
H	 1.7367870525	-0.5455993074	-1.3966441477	 0.125329
