19
gdb 94233	2.99246	1.02752	0.95985	2.9879	72.52	-0.2656	0.0072	0.2728	1299.4043	0.15674	-460.17711	-460.167598	-460.166654	-460.211409	34.885	
C	 0.0139681572	 1.6688526498	 0.1156843046	-0.421404
C	-0.0185205913	 0.1516176841	 0.0223810226	 0.333055
C	 1.0514784468	-0.4750918219	-0.9193449288	-0.282699
C	 1.9460294113	-0.7142293501	 0.3287178915	-0.25821
C	 0.6876113325	-0.5699939796	 1.2070543012	 0.107068
O	 0.8827625139	 0.1141393859	 2.4152733662	-0.424449
O	-1.3800646059	-0.3067784603	-0.1167675116	-0.239662
C	-1.9619359477	-0.2226291418	-1.3246749613	 0.15606
O	-3.0971000428	-0.5459194856	-1.5186894418	-0.2808
H	 1.0286712307	 2.0249878985	 0.3092606666	 0.13492
H	-0.3390874869	 2.1236284039	-0.815423686	 0.118813
H	-0.6242543458	 2.0108009712	 0.934472191	 0.130435
H	 0.6991219927	-1.4132843465	-1.3546430962	 0.11948
H	 1.4480931263	 0.1612767406	-1.7127237122	 0.111104
H	 2.4950991611	-1.654315522	 0.3906829162	 0.112618
H	 2.6356033813	 0.1138624711	 0.508544666	 0.122906
H	 0.2002750558	-1.5424473736	 1.3571278659	 0.087823
H	 0.0810670948	 0.0423471472	 2.9433930626	 0.292255
H	-1.2857644238	 0.161103769	-2.1113856163	 0.080688
