23
gdb 100466	3.47334	0.6188	0.5802	0.9626	93.37	-0.2404	0.0471	0.2875	2078.6302	0.201923	-388.261787	-388.249975	-388.249031	-388.300734	41.071	
C	 0.0552570721	 1.3838011998	 0.1328094448	-0.229391
O	-0.0516395387	-0.0148825129	 0.002955262	-0.240849
C	 0.608333068	-0.5456120982	-1.1450942729	-0.038938
C	 2.1263462205	-0.6625917189	-0.9287952276	-0.389542
C	 0.0141092746	-1.8481764506	-1.4465886167	-0.000887
C	-0.4514226286	-2.9271057317	-1.7110090916	 0.159258
C	-1.010166198	-4.2445365557	-2.0174947492	-0.127881
C	-0.2825675255	-4.8886610023	-3.2144721198	-0.373719
C	-0.9748469297	-5.1622474778	-0.7793032729	-0.373119
H	 1.0861307587	 1.7199791545	 0.3188244709	 0.104796
H	-0.3202222939	 1.9056760991	-0.7618869964	 0.103535
H	-0.5596119915	 1.6705335264	 0.9894988421	 0.12873
H	 0.4259872846	 0.1287852344	-2.0000329026	 0.086986
H	 2.3286686694	-1.3130423392	-0.0743003216	 0.132444
H	 2.6023003369	-1.0893980929	-1.8158704216	 0.124119
H	 2.5714177554	 0.3185706534	-0.740790403	 0.114012
H	-2.0628313102	-4.1062577956	-2.3018173881	 0.104361
H	-0.7368700947	-5.8542827474	-3.4585577169	 0.111615
H	-0.3351249428	-4.2481342686	-4.0987875604	 0.122122
H	 0.7731286931	-5.0557677392	-2.9790447793	 0.122537
H	-1.5099913751	-4.7103380855	 0.0597170103	 0.127359
H	-1.4391746281	-6.1268562133	-1.0087436845	 0.109969
H	 0.0574309335	-5.3436600178	-0.464289465	 0.122483
