16
gdb 23439	3.82693	1.2125	1.05996	1.903	73.21	-0.2367	-0.0102	0.2265	1120.5459	0.12585	-434.004163	-433.996689	-433.995744	-434.0365	28.224	
O	-0.3156522862	 1.3682187592	-0.2151719783	-0.389319
N	-0.1485125164	-0.0173423084	-0.3640232831	-0.22528
C	-1.1651871486	-0.6435473269	 0.0486876594	 0.406794
C	-2.518995914	-0.2964462195	 0.6401149714	-0.285881
N	-2.8615428004	-1.7661568739	 0.5868928031	-0.11588
C	-3.6957991362	-2.1506732342	-0.4823631422	 0.036582
N	-3.1956914568	-2.7979345649	-1.4567804946	-0.217815
C	-1.7465120505	-2.9187989643	-1.2169551834	-0.186957
C	-1.4812307785	-2.1236563762	 0.0875084141	-0.10079
H	 0.5098572134	 1.7151992221	-0.5707370685	 0.312087
H	-2.489180093	 0.0955551896	 1.6609343631	 0.139866
H	-3.1566976894	 0.3471901329	 0.0254580558	 0.138982
H	-4.7504793355	-1.8929179727	-0.4260924536	 0.127656
H	-1.4793991591	-3.973731629	-1.0951905364	 0.12093
H	-1.190236627	-2.5360605307	-2.0782622897	 0.128943
H	-0.8946986818	-2.6847809831	 0.8194751529	 0.110085
