21
gdb 82381	2.61097	1.75626	1.3422	1.3826	80.52	-0.252	0.0724	0.3244	1029.5709	0.185427	-387.068733	-387.061137	-387.060192	-387.100292	31.95	
O	-0.0265675175	 1.4715235782	-0.0806403531	-0.426076
C	-0.0096303047	 0.0498054349	 0.023790619	 0.051585
C	 0.7182403569	-0.4484883992	 1.2853381202	-0.035924
C	 1.1964725703	 0.4945227178	 2.3666757283	-0.316581
C	-0.0383808676	-0.3411720592	 2.5882381791	-0.002867
C	-1.4291207085	 0.2832510715	 2.4741335588	-0.256614
C	-2.2121526936	-0.350105588	 1.3254384632	-0.010754
C	-2.6305490429	 0.470853983	 0.1318421147	-0.299661
C	-1.4525943261	-0.4630755546	 0.0224057841	-0.006479
H	 0.8849026943	 1.771889087	-0.0049544994	 0.281506
H	 0.5030514344	-0.3691390833	-0.8536468902	 0.061895
H	 1.3126156484	-1.3432195087	 1.1266354036	 0.078815
H	 2.1063277345	 0.2363786482	 2.8983461689	 0.106225
H	 1.0502916475	 1.5601206516	 2.2211317741	 0.108634
H	 0.050019851	-1.1755283623	 3.277713588	 0.077201
H	-1.9740052405	 0.1715254499	 3.4160373972	 0.094661
H	-1.3309864345	 1.3579338964	 2.2951867113	 0.112166
H	-2.8473854906	-1.1887150519	 1.5952824702	 0.073759
H	-3.5409189355	 0.1977115345	-0.3913975429	 0.101035
H	-2.4193517304	 1.5333318064	 0.1499450144	 0.130034
H	-1.5924756647	-1.3678575425	-0.5600377598	 0.077441
