19
gdb 81450	2.65389	1.69128	1.38195	1.8748	74.74	-0.244	0.0653	0.3093	1002.4534	0.160083	-422.984	-422.976354	-422.97541	-423.015788	30.89	
O	 0.0270731376	 1.4974129155	-0.0775253218	-0.427233
C	 0.013982557	 0.100203431	 0.0119499469	 0.119196
C	 0.0625664403	-0.6314273931	 1.3858122543	 0.018857
C	-0.9967101697	 0.1072027358	 2.2303957642	-0.315988
C	-2.1089997821	 0.1125067372	 1.1607187366	 0.443472
C	-3.56460488	-0.1213612148	 1.4367963056	-0.347378
C	-3.0886316766	 1.2233139072	 0.9320831392	-0.318973
C	-1.3633787802	-0.5951787096	 0.0363820771	-0.048687
O	-0.7070543649	-1.6962571957	 0.747201596	-0.29814
H	 0.9370181697	 1.7891611503	-0.1864440845	 0.289816
H	 0.6805431787	-0.3870260196	-0.7069011068	 0.084365
H	 0.9828221287	-0.9716890927	 1.8613539859	 0.073647
H	-1.2617309197	-0.4605059243	 3.1256334388	 0.104745
H	-0.6706617771	 1.1113164213	 2.5148443231	 0.105083
H	-4.1235961626	-0.7585090513	 0.7582055376	 0.110102
H	-3.8779356825	-0.1964017916	 2.4732662066	 0.11006
H	-3.0789700662	 2.0588121678	 1.6241906982	 0.110947
H	-3.3240890745	 1.5019492209	-0.0901551686	 0.111508
H	-1.9091662658	-0.8926858141	-0.8593210486	 0.074602
