15
gdb 73075	3.55625	1.13849	1.01139	3.7095	62.21	-0.2559	0.0055	0.2613	1151.5566	0.11042	-494.854743	-494.84651	-494.845565	-494.887959	29.769	
O	-0.118774156	 1.4212670222	-0.4063010233	-0.451872
C	 0.0077111656	 0.1057661869	-0.0290275649	 0.275811
C	 0.666031672	-0.9915422398	-0.8683535081	-0.143329
O	-0.3527207908	-1.9518860809	-0.4606273818	-0.278651
C	-1.0498781497	-0.9497020623	 0.2654177846	-0.014525
C	-0.1835699396	-0.3982505552	 1.3736172134	-0.006457
O	 0.8276104946	-1.1409669863	 2.0089683897	-0.196012
C	 0.512625775	-2.3969482493	 2.4229226244	 0.184374
O	 1.3076988494	-3.0966303351	 2.9693662867	-0.272027
H	 0.5577838379	 1.9399177219	 0.0442207727	 0.298791
H	 0.5952480573	-0.7930739566	-1.9416043013	 0.128546
H	 1.6744035541	-1.3117841752	-0.591216117	 0.13003
H	-2.1334669092	-0.9653252481	 0.2659332772	 0.126849
H	-0.6880519214	 0.3105848362	 2.0268561142	 0.122012
H	-0.5337486092	-2.6677249984	 2.2037907736	 0.09646
