15
gdb 45959	3.06446	1.50537	1.17498	2.1572	68.13	-0.2398	-0.0471	0.1927	1019.942	0.113832	-453.94764	-453.9401	-453.939156	-453.97997	28.351	
N	-0.2168375184	 1.3107594641	-0.164329757	-0.536376
C	-0.01674262	 0.0486727177	-0.097781909	 0.399135
N	 1.1766931261	-0.6200661028	-0.2253310397	-0.371474
C	 1.3589661172	-2.0617544606	-0.1180660658	-0.273797
C	 0.1401241912	-2.8217158343	-0.6439707994	 0.41125
O	 0.2273104893	-3.7919093854	-1.3554317089	-0.30316
C	-1.1694817562	-2.2683518117	-0.17839903	-0.085434
O	-1.1420862766	-1.7740132337	 1.1666000103	-0.237066
C	-1.2206431339	-0.8148087667	 0.1165618393	 0.008593
H	 0.6527049638	 1.8246678673	-0.3238744211	 0.202704
H	 2.0117102863	-0.0564420674	-0.2396284119	 0.246402
H	 2.2203064685	-2.3675700527	-0.7151605376	 0.139768
H	 1.5276206284	-2.3833682582	 0.9215134587	 0.14276
H	-2.0650743017	-2.8036858464	-0.4830975392	 0.122059
H	-2.164036824	-0.2841605294	 0.0326153314	 0.134637
