20
gdb 77745	1.99169	1.53829	1.40205	2.5976	80.3	-0.2234	-0.0179	0.2055	1112.2478	0.168456	-403.124809	-403.115246	-403.114302	-403.1587	35.467	
C	-0.3490508999	 1.5084282407	-0.1147455508	-0.432816
C	 0.0490948358	 0.0369527414	-0.0846320879	-0.151457
C	 1.125977636	-0.5840051166	-1.0171840486	 0.395085
O	 1.2676023707	-0.5979114822	-2.2067513704	-0.315684
C	 1.8164688661	-1.2786480088	 0.144614694	-0.235577
N	 2.2146287235	-0.2875874673	 1.1373284681	-0.116732
C	 2.8250259592	 0.9856913384	 0.7624830653	-0.325683
C	 0.8117165972	-0.6159199473	 1.0966662644	 0.303854
C	 0.1574263147	-1.1830264067	 2.3226104147	-0.483659
H	 0.4728366912	 2.1754717386	 0.1506013401	 0.124262
H	-0.6919295141	 1.7796008388	-1.1185739552	 0.13667
H	-1.1724819666	 1.7017288931	 0.5806875616	 0.121528
H	-0.8464002015	-0.5717796047	-0.2824838875	 0.106797
H	 2.2825057411	-2.2586459501	 0.1522686271	 0.105861
H	 2.5060219412	 1.3968823095	-0.2034008651	 0.125605
H	 2.6175897716	 1.7215638181	 1.5454368747	 0.12672
H	 3.9083942363	 0.8369031421	 0.7186270697	 0.13069
H	-0.2284406991	-0.3817664376	 2.9638372322	 0.126443
H	-0.6852890472	-1.8292351871	 2.0553767525	 0.121786
H	 0.8794526735	-1.7598440621	 2.9055949611	 0.136306
