19
gdb 93983	2.81205	1.35796	1.03135	5.1969	79.1	-0.2333	-0.0135	0.2198	1197.6559	0.160412	-419.255351	-419.24639	-419.245446	-419.289531	32.427	
C	 0.432347864	 1.5642672904	-0.0726061071	-0.398752
C	-0.0419222515	 0.1049191631	 0.0191333073	-0.101002
C	 0.4653653049	-0.799531005	-1.115635093	-0.243683
C	 1.7695163984	-1.398702035	-0.5611650084	-0.176754
N	 1.5599609732	-1.4093801796	 0.8887077235	-0.096625
C	 2.4108334267	-2.1442106903	 1.7089364396	 0.079721
N	 2.355160123	-2.1580884293	 2.9758613367	-0.412902
C	 0.5292111562	-0.5419062203	 1.2886513302	 0.421032
O	 0.1770053275	-0.3195657128	 2.4168941025	-0.339536
H	 1.5217962605	 1.6277250449	-0.1713327266	 0.118991
H	-0.013944998	 2.060050924	-0.9399672356	 0.118305
H	 0.1443698688	 2.1116139662	 0.8286046679	 0.146027
H	-1.1318287316	 0.0936828372	 0.0988115496	 0.104697
H	-0.2528342242	-1.6020850232	-1.3078181531	 0.11675
H	 0.6293567563	-0.2658702317	-2.0546697325	 0.109802
H	 1.9564873318	-2.4107869314	-0.9319593488	 0.120207
H	 2.6405799694	-0.7825911712	-0.8216083432	 0.117495
H	 3.1305511617	-2.7130287444	 1.1048473056	 0.088824
H	 3.0764481231	-2.7799390317	 3.3389262855	 0.227403
