21
gdb 39985	3.90715	1.38354	1.28919	0.1013	86.81	-0.2534	0.1051	0.3585	1073.9457	0.18537	-349.907038	-349.900131	-349.899187	-349.938049	29.577	
C	-0.029269564	 1.5043647166	-0.0077254621	-0.329041
C	 1.2967461701	 0.7751991702	 0.0071473652	-0.329041
C	 0.0074800098	 0.0011220807	 0.0102513792	 0.391756
C	-0.4747130321	-0.8515511168	 1.1976325362	-0.338938
C	-1.1028570089	-2.0097212444	 0.4196094561	 0.000305
C	-0.2037049326	-2.3503968273	-0.816470306	-0.055228
C	-1.4726500624	-2.7237345747	-1.6169627618	-0.245392
C	-1.850722425	-1.4447145703	-0.8349393345	-0.055228
C	-0.4433150185	-0.8425559682	-1.1612250754	-0.069673
H	-0.3374244887	 2.0194684213	 0.8967661061	 0.107222
H	-0.3268851386	 2.0030988527	-0.925137153	 0.106554
H	 1.8930364346	 0.7823870811	-0.900233939	 0.106554
H	 1.8811116765	 0.7995071919	 0.9216541401	 0.107222
H	 0.3457707124	-1.183358765	 1.843816147	 0.096241
H	-1.2053739443	-0.3303975137	 1.8264224752	 0.096241
H	-1.5600844589	-2.8298328803	 0.9774160323	 0.058112
H	 0.7579674411	-2.8679600628	-0.7982089449	 0.063424
H	-1.4125657146	-2.6366751004	-2.7058581472	 0.085442
H	-1.9833615437	-3.6465449605	-1.3258080416	 0.086571
H	-2.8030211983	-0.9097980801	-0.8381393805	 0.063424
H	-0.2356996542	-0.4856283299	-2.1728470315	 0.053471
