19
gdb 72939	2.79242	1.717	1.49337	3.0358	74.01	-0.2332	0.0526	0.2858	973.8312	0.159565	-422.960712	-422.953084	-422.95214	-422.993111	29.86	
C	-0.3247601602	 1.4018491292	-0.0381140901	-0.484988
C	 0.0658946583	-0.0497370297	 0.0367290897	 0.451077
O	-1.0577823387	-0.9426205892	 0.147398775	-0.314723
C	-0.4786264222	-1.6093925794	 1.2938402525	-0.095632
C	 0.8015306299	-0.7574405126	 1.2178773844	-0.159963
C	 1.9467805975	-1.2033503732	 0.2556806955	-0.093571
C	 1.7729711157	-2.5034436801	-0.5490333382	-0.09296
O	 0.9734151974	-1.8301614954	-1.5514760877	-0.279713
C	 1.1974408746	-0.5525930576	-0.9393515414	 0.054626
H	 0.5610614441	 2.0446391809	-0.0841637319	 0.116936
H	-0.9210207692	 1.5797563838	-0.9404051013	 0.135376
H	-0.9227466433	 1.6931525317	 0.8304582761	 0.123429
H	-1.0750770713	-1.4311600141	 2.197497069	 0.101209
H	-0.3846002629	-2.6901001227	 1.1437939637	 0.105963
H	 1.1123994335	-0.2408428993	 2.1256761385	 0.078359
H	 2.9552301213	-0.9283849972	 0.561338751	 0.079832
H	 2.7098595927	-2.8798905287	-0.9795780641	 0.102025
H	 1.2411865537	-3.3378493156	-0.079019512	 0.10643
H	 1.618539099	 0.1838975593	-1.6323896487	 0.066289
