17
gdb 29758	4.69237	1.26284	1.16104	3.7006	78.56	-0.216	0.0092	0.2252	1089.9754	0.138197	-380.842617	-380.835575	-380.834631	-380.873979	27.805	
C	-0.0620595816	 1.3991021128	 0.1362838416	-0.428646
C	 0.1248862939	-0.090158667	-0.0456544257	-0.009374
C	 0.8274592491	-0.5758347818	-1.29089918	-0.040828
C	 1.5407924172	-0.6630299066	 0.0574474287	-0.209452
C	 1.4157781838	-2.1597814895	-0.1124102484	 0.288474
N	 1.168296853	-3.2928973377	 0.4955266666	-0.33031
C	 0.3813099551	-3.9678085703	-0.4308555909	-0.074268
C	 0.0845953356	-3.1944876453	-1.5343250517	-0.170289
N	 0.8424384958	-2.0529758116	-1.3540250144	 0.004117
H	 0.7788463487	 1.9620927058	-0.2826968536	 0.121605
H	-0.9765016934	 1.7421579629	-0.3585227369	 0.129577
H	-0.1373188662	 1.6536899294	 1.1980958267	 0.134852
H	-0.6837493298	-0.7102162858	 0.3332679882	 0.117743
H	 1.0537379799	 0.028709085	-2.1592957713	 0.11785
H	 2.383573955	-0.0859186694	 0.4113417682	 0.114012
H	 0.0927328369	-4.9954451632	-0.2614607943	 0.108322
H	-0.469143693	-3.4133595977	-2.4321895027	 0.126614
