22
gdb 115155	3.07247	1.10674	0.90521	3.207	83.19	-0.2526	0.0314	0.2841	1367.5779	0.195029	-404.38249	-404.37302	-404.372075	-404.416826	35.463	
C	-0.1468492891	 1.6634723026	 0.0997421718	-0.390079
C	-0.0164951239	 0.1363185616	 0.1494440945	-0.206694
C	-1.3486649359	-0.590390685	-0.046230827	 0.009692
C	-1.9958579974	-0.394185384	-1.4265450337	-0.095973
O	-2.9004155976	-1.4973625506	-1.5876609851	-0.241189
C	-2.5540948244	-2.5223539342	-0.7511391327	 0.408
N	-3.1536737939	-3.6321047599	-0.693680886	-0.546117
C	-1.3374658014	-2.1346731699	 0.0708751673	-0.108498
C	-0.084806471	-2.8375830528	-0.4803824177	-0.401307
H	 0.8179289413	 2.1457898112	 0.2824907207	 0.118357
H	-0.5060324361	 2.0074108192	-0.8760618786	 0.120229
H	-0.8497121185	 2.0260845939	 0.8579829571	 0.118901
H	 0.7004358798	-0.192823772	-0.6120966654	 0.103203
H	 0.4083213885	-0.1583016493	 1.1170140608	 0.103527
H	-2.0587856464	-0.2130749158	 0.7018297104	 0.08444
H	-2.5754811625	 0.5268948217	-1.5191114123	 0.118705
H	-1.2502265235	-0.4181563585	-2.2335814478	 0.106149
H	-3.9215281337	-3.6604972961	-1.3670812248	 0.218381
H	-1.4898773331	-2.4581194732	 1.1031294678	 0.102075
H	 0.1196212912	-2.5565290186	-1.5191202041	 0.117813
H	 0.7993689745	-2.5957336992	 0.1160693086	 0.117129
H	-0.2367167469	-3.9192180911	-0.4522999236	 0.143256
