15
gdb 47327	3.3717	1.18567	0.89742	3.9601	79.6	-0.2695	-0.0826	0.1869	1213.4919	0.114718	-416.84679	-416.839173	-416.838228	-416.879233	28.258	
N	-0.0601002335	 1.2808479748	 0.22583473	-0.508913
C	-0.000263283	 0.039431482	-0.0409783846	 0.394815
O	 1.1855861023	-0.6146968722	-0.1981694205	-0.256756
C	 1.1527828575	-1.8742576482	-0.8837772378	-0.097946
C	 0.1106060725	-2.8199667034	-0.2986482084	-0.314032
C	-1.2115673705	-2.0913449692	-0.2019049721	 0.134721
C	-1.2341389164	-0.7504343149	-0.1148693877	-0.180662
C	-2.4125937576	-2.8596482428	-0.1893894031	 0.226461
N	-3.3652767822	-3.5186613778	-0.1840887778	-0.32073
H	 0.8814613233	 1.6778153939	 0.2614903601	 0.230426
H	 0.9438240739	-1.6980786415	-1.9469086379	 0.12323
H	 2.1612243732	-2.281226581	-0.7916138562	 0.132318
H	 0.0184026947	-3.7048647598	-0.9358914063	 0.140999
H	 0.4147773117	-3.1720952779	 0.6949533108	 0.146721
H	-2.1553148657	-0.1875956119	-0.0395464485	 0.149347
