17
gdb 15921	3.3571	1.8887	1.52291	4.254	72.34	-0.2831	0.021	0.3041	880.8067	0.143793	-326.721559	-326.714341	-326.713397	-326.75407	27.133	
N	-0.0351308245	-1.1556431601	-0.3260749214	-0.351256
C	-0.0262313527	-0.0111332952	-0.1526535846	 0.188382
C	-0.0017117617	 1.4149266998	 0.0626197396	 0.220562
C	-0.5139544847	 2.3233322531	-1.0993702105	-0.280638
C	 0.8037297096	 3.1513086764	-1.0473297964	-0.219383
C	 1.335775454	 2.2710748435	 0.1115101951	-0.063177
C	 0.960382567	 2.759181072	 1.5333544451	-0.219388
C	-0.3564819488	 1.9292261602	 1.4935049839	-0.280637
H	-0.6523989247	 1.7805126237	-2.0356116899	 0.128089
H	-1.4384447897	 2.8588932617	-0.8699404915	 0.110517
H	 1.3941787051	 3.0698881601	-1.9622164759	 0.115137
H	 0.6943486175	 4.2118050696	-0.8052470749	 0.105182
H	 2.3172494298	 1.8161635447	-0.0171830291	 0.087686
H	 1.6533738361	 2.4213758108	 2.3066114867	 0.115137
H	 0.84208971	 3.8416598769	 1.6306554358	 0.105183
H	-1.2919070445	 2.4918757381	 1.544015361	 0.110516
H	-0.3927945778	 1.1311665946	 2.236573987	 0.128088
