18
gdb 102852	1.7632	1.34468	0.83609	3.1568	76.09	-0.2574	0.0206	0.278	1374.224	0.144791	-439.041817	-439.031701	-439.030757	-439.077799	35.711	
O	 0.1548315505	 1.522135519	 0.0257528951	-0.416287
C	 0.1624307773	 0.1196043995	 0.1869200681	-0.075194
C	-1.2397015728	-0.4759967184	 0.0420966904	 0.074519
C	-2.21643611	 0.0823633161	 1.0950656852	-0.345101
C	-3.5489724351	-0.497954093	 1.009876233	 0.283243
C	-4.6395538311	-0.9969017705	 0.9282764994	-0.429312
O	-1.6717231202	-0.1096853041	-1.2724845803	-0.208824
C	-2.3934015565	-0.9954100159	-1.9940382278	 0.133856
N	-2.777508195	-0.6849047319	-3.1538752327	-0.445053
H	-0.2147841984	 1.6954980607	-0.8486455038	 0.300898
H	 0.825643065	-0.3702152286	-0.5416142628	 0.102052
H	 0.5513132803	-0.0848570948	 1.1897918337	 0.113143
H	-1.1846586958	-1.5693213793	 0.1268795504	 0.092686
H	-1.7923116589	-0.1061265085	 2.0894420282	 0.13403
H	-2.2570703807	 1.1695454623	 0.9728184896	 0.156096
H	-5.6121261585	-1.4184197285	 0.8642512814	 0.200416
H	-2.5711676687	-1.9416521938	-1.4695181713	 0.098216
H	-3.2970816913	-1.4571010702	-3.565537126	 0.230614
