21
gdb 89254	2.46495	1.76063	1.31827	1.7385	81.35	-0.2482	0.0736	0.3218	1065.1119	0.18176	-387.037421	-387.029047	-387.028103	-387.069692	33.526	
C	-0.2366817529	 1.5773431291	-0.0222615584	-0.417724
C	 0.0579165197	 0.0833736706	 0.0055179268	 0.046566
C	 1.1905705009	-0.4890886977	-0.9136064854	-0.310148
C	 1.8129771076	-1.2373496863	 0.3078267138	 0.33343
C	 1.9851251831	-2.7378034802	 0.2550289037	-0.497948
C	 2.922737739	-0.4531556624	 1.0645281288	-0.034514
O	 2.6567494436	 0.9459935201	 0.9430445309	-0.237635
C	 1.9256360383	 0.2042289725	 1.9306345373	 0.013768
C	 0.7600699499	-0.5497422556	 1.2471746239	-0.130096
H	 0.6736050324	 2.1608546476	 0.13042307	 0.140569
H	-0.6715573588	 1.8686456043	-0.9851443988	 0.108633
H	-0.9556121067	 1.8505711192	 0.7589101399	 0.105407
H	-0.8710419914	-0.4683930308	-0.1762941651	 0.069372
H	 0.8384082368	-1.1523184447	-1.7083789448	 0.089803
H	 1.8412405906	 0.2728822666	-1.3466605919	 0.107945
H	 2.7761514029	-3.0203797924	-0.4508609333	 0.118338
H	 2.2562395668	-3.1441808431	 1.2367213619	 0.114956
H	 1.0618445458	-3.2315678074	-0.0662224254	 0.118264
H	 3.9541603969	-0.7423991056	 1.2427320714	 0.095555
H	 1.9949559625	 0.5658727259	 2.9508866525	 0.100987
H	 0.1585930732	-1.1435140297	 1.9386482424	 0.064473
