17
gdb 81875	2.95908	1.42893	1.11925	2.5421	67.7	-0.2521	-0.035	0.2171	1075.7791	0.13499	-458.970757	-458.962607	-458.961663	-459.003231	31.834	
O	-0.0467667853	 1.4951478655	-0.0155348661	-0.438496
C	-0.0381351822	 0.0910597427	 0.0118908519	 0.048186
C	-1.3974907659	-0.5723650692	 0.023628733	-0.1309
C	-2.191898932	-0.5384364442	-1.268795527	-0.32126
C	-1.3704041494	-1.7477794606	-0.9508452651	 0.402074
O	-2.0732466928	-2.9247144175	-0.7177179847	-0.466406
C	 0.0124622591	-1.8326978189	-1.5873575687	-0.394552
C	 0.6284658648	-0.4809359177	-1.2527460074	 0.340933
O	 1.4390290504	 0.140928591	-1.8927613086	-0.3194
H	 0.6714281214	 1.7494402714	-0.6140384756	 0.291655
H	 0.5433137058	-0.2757779663	 0.8795413267	 0.087073
H	-1.9436339887	-0.6533155869	 0.9555351181	 0.0983
H	-3.2632506426	-0.6658260745	-1.171097308	 0.131695
H	-1.8845325126	 0.1362072296	-2.0620606464	 0.127873
H	-1.5844680537	-3.4507296818	-0.074151074	 0.281951
H	 0.6037278439	-2.6272237067	-1.1093350445	 0.121849
H	 0.0180866696	-2.0179247259	-2.6646637534	 0.139425
