14
gdb 79497	2.29273	1.92711	1.23191	5.5578	66.6	-0.2576	0.008	0.2656	970.3615	0.100222	-436.591646	-436.584357	-436.583413	-436.623453	27.623	
O	-0.0441951375	 1.4657134071	-0.0868770786	-0.427922
C	 0.0482539086	 0.0677433834	-0.0482364733	 0.045926
C	 0.056017136	-0.6150488527	 1.3368867358	-0.15767
C	-1.4746943288	-0.3660203084	 1.5373400171	 0.060574
O	-1.7785376973	-1.7500379326	 1.8509233575	-0.312672
C	-0.7663342804	-1.8314738863	 0.8126679923	 0.040279
C	-1.3289047868	-0.6170320343	-0.0147792554	 0.200509
C	-2.3623015786	-0.6318320017	-1.0094489624	 0.149139
N	-3.1888902537	-0.6462442074	-1.8180868533	-0.340875
H	 0.8430305146	 1.8365967655	-0.115524535	 0.296166
H	 0.7531885577	-0.3282480718	-0.7894170416	 0.092005
H	 0.8161192555	-0.6346768933	 2.1147277201	 0.10327
H	-2.0081051921	 0.4294586966	 2.0506114807	 0.130006
H	-0.4475254871	-2.8075015641	 0.452908466	 0.121266
