18
gdb 22403	5.7922	0.62801	0.60219	1.0243	87.18	-0.243	0.0063	0.2493	1849.433	0.145019	-401.874562	-401.86462	-401.863676	-401.912046	34.766	
C	 0.6524364626	 1.5807840006	-0.5841375737	-0.497545
C	 0.3346748062	 0.1951001175	-0.2700732325	 0.071552
C	 0.0764315088	-0.9540849569	-0.0157481351	 0.0669
C	-0.2522220451	-2.3260240767	 0.3097755963	-0.167458
C	-0.1279290646	-2.7742393407	 1.8170086053	-0.316056
C	-1.511288786	-3.3714097156	 1.6866390922	 0.412002
C	-1.773010546	-2.7338672086	 0.3392061623	-0.32069
N	-2.1187219318	-4.1852083809	 2.4416885489	-0.230711
O	-3.3786801047	-4.5203713154	 1.9078198102	-0.395173
H	 1.3708013933	 1.6481142262	-1.4087096762	 0.148108
H	-0.2434958177	 2.1379624347	-0.8799130035	 0.147988
H	 1.0906227695	 2.0946187272	 0.2787662907	 0.147856
H	 0.3063893129	-3.0144487204	-0.3314646531	 0.106302
H	 0.6888341658	-3.4574099786	 2.0598349802	 0.125574
H	-0.0917099685	-1.9195789993	 2.4987490527	 0.130626
H	-2.4428807567	-1.8709822384	 0.3958620605	 0.133816
H	-2.1231201781	-3.3992137878	-0.4530519423	 0.130652
H	-3.71402267	-5.1447684769	 2.5599121972	 0.306258
