14
gdb 43161	2.83196	1.5416	1.25629	4.2779	66.38	-0.2535	-0.0469	0.2066	982.8814	0.101586	-436.673503	-436.666405	-436.665461	-436.705269	26.695	
O	-0.0007943973	-0.0605513478	 0.2021684769	-0.289323
C	-0.0049518347	 1.124292905	 0.1279366398	 0.442984
C	-1.0667018126	 2.2573590981	 0.0163419354	-0.1899
C	-0.6834930733	 3.0391574264	 1.2803054438	-0.103528
O	 0.7735732235	 3.0335830017	 1.1765492894	-0.27279
C	 1.0105774441	 2.288833813	-0.0138294509	-0.014848
C	-0.0493989136	 2.9080539794	-1.0037984535	-0.191079
C	-0.0700464892	 2.3599753573	-2.3449043184	 0.273237
N	-0.0763710385	 1.926329387	-3.4165698084	-0.311348
H	-2.1148053607	 2.0891373076	-0.2130329454	 0.123543
H	-1.0409205395	 4.0737665457	 1.2896332843	 0.126142
H	-0.9969445481	 2.5372864541	 2.2013413173	 0.135758
H	 2.0707383847	 2.2022536247	-0.2315694809	 0.128433
H	-0.0379761948	 3.9999713277	-1.0171603494	 0.142718
