19
gdb 71118	2.8916	1.86071	1.60236	1.3207	78.02	-0.2255	0.0205	0.246	912.5748	0.162231	-385.906709	-385.89995	-385.899006	-385.937109	29.598	
O	-0.0506480401	 1.3859525161	-0.0200821455	-0.508275
C	 0.0311664756	-0.0238435688	-0.0133979031	 0.350758
C	 0.6733898462	-0.6335120894	 1.2737086665	-0.266487
C	 0.1705532868	-2.0622751607	 1.2395986462	-0.064144
C	-1.11746545	-2.0657031285	 0.4588440215	-0.068655
C	-1.3930303457	-0.6399157118	 0.0229284269	-0.233607
C	 0.1422276284	-2.6842625381	-0.1622190905	-0.08375
C	 0.8002680163	-1.9415095085	-1.2586331794	-0.058166
C	 0.7526957561	-0.6066410282	-1.2045088405	-0.16411
H	 0.8458503536	 1.7334913985	-0.073625703	 0.273946
H	 1.7654330687	-0.5466574207	 1.2675248166	 0.088176
H	 0.2819854954	-0.1053336966	 2.1500754955	 0.103017
H	 0.3377755977	-2.7196737473	 2.0845490565	 0.084478
H	-1.9402220987	-2.7267574778	 0.7030696276	 0.084462
H	-1.9905051743	-0.1136454185	 0.7753207002	 0.105929
H	-1.8948071493	-0.5555429123	-0.9451001417	 0.101771
H	 0.1694246809	-3.767046565	-0.2002282896	 0.080178
H	 1.2829192045	-2.484007141	-2.0647576223	 0.090924
H	 1.1726740479	 0.0519876488	-1.9576803118	 0.083553
