19
gdb 63006	2.47276	1.76077	1.54943	3.1384	73.14	-0.2582	0.0571	0.3154	973.7177	0.158437	-422.99379	-422.98583	-422.984886	-423.025655	31.749	
C	 0.0928301511	 1.5139625279	 0.0122460316	-0.423115
C	-0.0164760048	-0.0167809048	 0.0018101789	 0.210771
C	-1.4806689306	-0.4835485388	-0.0010943984	-0.43767
C	 0.7007838887	-0.6364816412	-1.2114981043	 0.010981
O	 2.0918119241	-0.3426094512	-1.3340830743	-0.241547
C	 1.7211357324	-1.6018657541	-0.7694029221	 0.000145
C	 1.7214222385	-1.612237363	 0.7506707906	 0.000142
O	 2.0923207379	-0.3608035698	 1.3323401226	-0.241549
C	 0.7012437029	-0.6529748064	 1.2062777427	 0.010986
H	 1.1430397171	 1.8121617543	 0.0139949239	 0.151634
H	-0.3919041056	 1.9462527183	-0.8695948561	 0.110672
H	-0.3913909013	 1.9341353479	 0.9002066042	 0.110675
H	-2.00790712	-0.1045955298	-0.8826694483	 0.120561
H	-1.5553718557	-1.5766833811	-0.0084649793	 0.117847
H	-2.0076134324	-0.1165396343	 0.8856944105	 0.120561
H	 0.1617352698	-0.7205891427	-2.154510797	 0.090881
H	 2.0139036318	-2.4857242937	-1.3287228565	 0.098572
H	 2.0143927748	-2.5036484119	 1.2977651086	 0.098573
H	 0.1625425111	-0.7499311855	 2.1482552726	 0.090881
