17
gdb 10802	4.72595	1.51236	1.20046	3.5102	72.55	-0.2472	0.0118	0.2589	1005.7081	0.142756	-363.887757	-363.879931	-363.878987	-363.920521	28.595	
C	 0.0257407458	 1.5579104906	 0.0483009122	-0.482766
C	-0.0203911779	 0.060033334	-0.0451020281	 0.28829
C	 0.0065381307	-0.6294188261	-1.18220264	-0.163677
C	-0.1046994845	-2.1272874099	-1.1872900919	-0.338216
C	 0.3891983565	-2.7673393404	 0.0907001159	 0.389955
N	 0.8272090887	-3.9560093797	 0.0904570273	-0.515473
O	 0.3548718146	-2.0305216836	 1.2342609196	-0.248546
C	-0.1419057589	-0.6886114642	 1.2546879172	-0.150903
H	 0.9098093691	 1.8962378072	 0.6033503161	 0.130953
H	 0.0479170062	 2.0157011697	-0.9437205966	 0.129571
H	-0.8487396087	 1.9522917897	 0.582229298	 0.128073
H	 0.0802571509	-0.1209495314	-2.1395332667	 0.092753
H	-1.1543427807	-2.4245560414	-1.336153833	 0.138119
H	 0.4486744474	-2.5814862286	-2.0118964492	 0.144761
H	 1.1041416573	-4.2258976767	 1.0367105675	 0.215233
H	 0.4265109305	-0.1858750507	 2.0452179105	 0.122468
H	-1.192744237	-0.7082486385	 1.5850967212	 0.119405
