17
gdb 67870	2.76566	1.64184	1.36039	3.1333	75.23	-0.2385	0.0056	0.2441	990.1797	0.137143	-418.00837	-418.00059	-417.999646	-418.040284	30.646	
O	 0.2125263016	 1.3008480653	-0.2183171856	-0.483564
C	 0.1325643637	-0.0840083831	-0.0348041582	 0.313571
C	 0.8243060155	-0.8845529188	-1.1052316561	-0.121419
C	 0.0332372851	-1.8098427734	-1.647657443	-0.057421
C	-1.3612639536	-1.8305863504	-1.0581922438	-0.279274
C	-1.269078321	-0.8107638971	 0.0828034184	-0.040291
N	-0.7745681079	-1.3549722112	 1.368450303	-0.337139
C	 0.3388974195	-0.5342569037	 1.4179131371	 0.307105
N	 1.1775557607	-0.1222476672	 2.2712106783	-0.565154
H	 0.5982091694	 1.6621832157	 0.5903566208	 0.295578
H	 1.8544617742	-0.6861555167	-1.3752501025	 0.105148
H	 0.3353217396	-2.499597752	-2.4286031036	 0.099525
H	-2.119930989	-1.5588123915	-1.803150193	 0.11209
H	-1.6331338089	-2.8220202478	-0.6756600792	 0.111491
H	-2.1226117161	-0.1373773467	 0.1865554471	 0.088474
H	-1.3330556473	-1.6597356517	 2.1529108948	 0.239022
H	 1.0066122147	-0.4957988898	 3.2060318554	 0.212257
