18
gdb 74623	3.00228	1.44654	1.39352	1.2914	77.09	-0.2117	0.017	0.2287	1028.8909	0.148229	-401.894019	-401.88632	-401.885376	-401.925704	31.041	
C	 0.0166287829	 1.5196914309	 0.0714553892	-0.503814
C	-0.0745801678	 0.030658992	 0.0043493369	 0.356661
C	-0.032977023	-0.769446592	-1.0728233329	-0.175569
C	-0.0641023242	-2.1941922988	-0.6538281678	-0.172624
C	 0.862553449	-2.6317742807	 0.5482244865	-0.088724
N	 1.4152196106	-1.4392371238	 1.2063396749	-0.316764
C	-0.0127147187	-0.8594516006	 1.2253500682	-0.231746
C	-0.5633813226	-2.269842151	 0.7652910607	 0.362074
O	-1.6248785521	-2.9955446051	 1.2518119855	-0.461326
H	 0.9423072794	 1.835378604	 0.5693219773	 0.135707
H	 0.0026607573	 1.966949062	-0.926488107	 0.122
H	-0.813069775	 1.9488777409	 0.6481206514	 0.117654
H	 0.0767036723	-0.4438909678	-2.1009117608	 0.09146
H	-0.3026822275	-3.0024254245	-1.3360562117	 0.085711
H	 1.392685653	-3.5758445707	 0.5107597369	 0.100852
H	 1.6243993965	-1.7159478825	 2.1649290762	 0.220646
H	-0.3110313104	-0.4409467933	 2.186463148	 0.070216
H	-2.4235668096	-2.7165114288	 0.7878567387	 0.287585
