19
gdb 47895	2.75374	1.42658	1.03901	4.2872	81.1	-0.2082	-0.0374	0.1708	1157.3951	0.161834	-419.201424	-419.193253	-419.192308	-419.234132	31.851	
O	 0.0093966097	 0.1865188788	 1.1292728512	-0.33479
C	 0.1506311809	 1.156593189	 0.4067603425	 0.339933
C	-1.0941338992	 1.6139789287	-0.4152714457	-0.292871
N	-1.2328391907	 3.0301181313	-0.7481134482	-0.268371
C	-1.0384590321	 3.4315135466	-2.135307541	-0.17108
C	 0.4409012532	 3.7265133137	-2.448812996	-0.143907
N	 1.2870993839	 2.6520416475	-1.9291308063	-0.275507
C	 1.7531559103	 2.76226723	-0.6222994466	 0.009227
C	 1.3861159221	 1.9532222658	 0.3872144581	-0.184757
H	-1.14620679	 0.9819719618	-1.3189743817	 0.105032
H	-1.9316685013	 1.2922545426	 0.211320012	 0.126581
H	-2.1142581837	 3.3777912432	-0.4030561372	 0.230451
H	-1.3900307411	 2.6517590021	-2.8373912525	 0.087193
H	-1.63599237	 4.3273300439	-2.3374467613	 0.103765
H	 0.5790332086	 3.8329885336	-3.5316239093	 0.103005
H	 0.7522035779	 4.6604818545	-1.9718105015	 0.116632
H	 0.8831985697	 1.7417243076	-2.1114426034	 0.234828
H	 2.511699731	 3.5324971875	-0.482822818	 0.110932
H	 1.9651644008	 1.9271255919	 1.3044684949	 0.103705
