13
gdb 46346	4.21472	0.75855	0.67987	6.5434	79.74	-0.2686	-0.0499	0.2186	1542.8068	0.089585	-415.611676	-415.60346	-415.602516	-415.645606	28.597	
O	-0.0702579112	 0.0029458101	 0.0252801691	-0.329228
C	-0.0644576106	 1.1971200146	 0.0200642127	 0.433071
N	-1.0328036341	 2.1582926594	-0.0579372974	-0.31164
C	-0.1510503963	 3.3219405664	 0.0334295351	-0.16766
C	 1.0536325051	 2.3205074476	 0.0782090525	-0.36299
C	 1.898391716	 2.3401596531	 1.2406460443	 0.163347
C	 2.5965921335	 2.3468680226	 2.2274744618	 0.006294
C	 3.385367091	 2.363967548	 3.3407212365	 0.212867
N	 4.0566165905	 2.3841017893	 4.2888994597	-0.334463
H	-2.0362332745	 2.0782957396	-0.1298175395	 0.267045
H	-0.1659124323	 3.973185449	-0.8446462337	 0.132101
H	-0.2769590055	 3.9125762509	 0.9440574627	 0.13941
H	 1.6461330384	 2.3244799593	-0.8412347839	 0.151844
