16
gdb 98032	6.16375	0.60468	0.57522	1.5285	81.17	-0.2544	-0.0399	0.2145	1900.9836	0.123186	-437.851771	-437.842298	-437.841354	-437.888013	31.818	
C	 0.1236689762	 1.3688699096	 0.1083353467	-0.241277
O	 0.1535197973	-0.0638827605	 0.0481938197	-0.217481
C	 0.5163353118	-0.5729158057	-1.144676515	 0.252549
O	 0.8019239176	 0.090856525	-2.112261582	-0.360843
C	 0.5189083525	-2.0133950022	-1.113888202	-0.075677
C	 0.5414367791	-3.2189868563	-1.1719006345	 0.27294
C	 0.5917751592	-4.6470016362	-1.2325215954	-0.183311
C	 0.0912420957	-5.3415124061	-2.4632751038	-0.222254
N	 1.5227196703	-5.3116310389	-2.1799550566	-0.298618
H	 1.1111811605	 1.7843795032	-0.1074347511	 0.144397
H	-0.5919204152	 1.770195933	-0.6137248618	 0.143848
H	-0.1809311929	 1.6127393272	 1.1257819173	 0.136742
H	 0.5043859805	-5.1627037598	-0.2803845345	 0.128668
H	-0.3817866659	-6.3124649626	-2.3495864676	 0.1344
H	-0.306572695	-4.7196480227	-3.2593221127	 0.135682
H	 1.9752972184	-4.6017777869	-2.7516697667	 0.250237
