13
gdb 61697	2.20433	1.26563	1.03885	3.7333	65.05	-0.3144	-0.0535	0.2608	1162.0984	0.085795	-452.765122	-452.755892	-452.754948	-452.799596	31.284	
C	-0.095929512	 1.6192299434	-0.0317107954	-0.403738
C	 0.029679425	 0.0837958411	 0.0161535013	 0.063422
O	 0.6827130755	-0.3329734893	 1.2251797006	-0.218534
C	 2.0461874321	-0.2468095756	 1.3132795094	 0.175606
O	 2.6054580456	-0.4645595804	 2.3382247675	-0.238898
C	-1.3118548407	-0.5312460454	 0.0643016116	 0.322521
N	-2.3788491313	-0.9690555469	 0.0900125167	-0.30055
C	 0.7273128563	-0.4141526898	-1.1932867923	 0.279277
N	 1.2791732212	-0.7670117867	-2.144103138	-0.30145
H	 0.899120087	 2.0662239938	-0.0868023386	 0.154757
H	-0.6740004809	 1.9262243771	-0.9056014504	 0.170432
H	-0.5985929939	 1.9554155997	 0.8768240736	 0.172316
H	 2.5348161063	 0.017360029	 0.3612814641	 0.12484
