20
gdb 53119	2.13289	1.24148	0.88783	2.2933	84.36	-0.2172	0.0336	0.2508	1383.8175	0.168899	-403.096484	-403.086273	-403.085328	-403.132515	36.31	
C	 0.1970871311	 1.5114619941	 0.1313142426	-0.500625
C	 0.1282248667	 0.0574524292	 0.0780546147	 0.041963
C	 0.0775157045	-1.1459874227	-0.002493933	 0.099452
C	 0.0047751366	-2.6046317908	-0.0449472861	-0.230241
C	 0.2927865242	-3.2409356181	 1.368318982	 0.140263
O	 1.0375697005	-2.5234367718	 2.2981281185	-0.425311
C	-1.2480082974	-3.3418157548	 1.5108457663	-0.208944
N	-1.3523076134	-3.2031369794	 0.048237418	-0.061094
C	-2.4960595446	-2.5276549584	-0.5240339837	-0.318669
H	 1.2104715955	 1.8506301635	 0.372082773	 0.154665
H	-0.0808026041	 1.9546576741	-0.8311385358	 0.154536
H	-0.4789800978	 1.9169155644	 0.8917660438	 0.151304
H	 0.5914074444	-2.9878684228	-0.8878498247	 0.09529
H	 0.759228901	-4.2220528179	 1.2637891958	 0.104802
H	 0.8079090756	-1.5903578662	 2.1922586712	 0.279834
H	-1.6783649593	-4.2619879975	 1.919786746	 0.101779
H	-1.6452249269	-2.4780072223	 2.0710040862	 0.082105
H	-2.6399208883	-1.5025564324	-0.1414116486	 0.099096
H	-2.3897921239	-2.4732236923	-1.6126949756	 0.119897
H	-3.3983625645	-3.1076311577	-0.3033947806	 0.119898
