17
gdb 65489	3.00922	1.21623	1.01932	1.3445	73.03	-0.2734	0.0192	0.2926	1179.1334	0.13558	-417.979375	-417.970874	-417.96993	-418.012694	32.106	
N	 0.297348161	 1.5328059016	-0.3924741043	-0.541858
C	-0.056056367	 0.1900916337	 0.0479392929	 0.130063
C	 0.0779078224	-0.0434516407	 1.5942132293	-0.347397
C	-1.3373821016	-0.6210837867	 1.5775448638	 0.484612
C	-1.8340748316	-1.8547634253	 2.185716738	-0.261559
O	-2.2456358858	-0.5573589809	 2.6512070808	-0.265899
C	-1.5990162901	-0.0669374388	 0.1770271701	-0.347394
C	 0.6120855615	-0.8692209172	-0.7251153045	 0.233591
N	 1.157311705	-1.6706296818	-1.3569425501	-0.342181
H	 1.3032979341	 1.6676964368	-0.3241339874	 0.243879
H	 0.0603344537	 1.6502551774	-1.3747320963	 0.243879
H	 0.8938529958	-0.6809881042	 1.9374591563	 0.126405
H	 0.1142602838	 0.9244854419	 2.1001064642	 0.135069
H	-2.6055332153	-2.4345730887	 1.6813675547	 0.123659
H	-1.1988549246	-2.4148717435	 2.8701653548	 0.123659
H	-2.1196384331	 0.8932007563	 0.2122033143	 0.135069
H	-2.0629243183	-0.7224019397	-0.5613447565	 0.126403
