13
gdb 15108	6.48014	0.79563	0.73933	2.5946	67.74	-0.2733	-0.0016	0.2717	1436.0782	0.094285	-361.413852	-361.405815	-361.404871	-361.448346	26.923	
N	-0.0711191567	-0.9370276193	-0.8152124642	-0.297018
C	-0.0003212728	 0.0729804064	-0.2606495291	 0.279992
C	 0.0760201291	 1.3560357798	 0.4513734232	-0.475218
C	 1.3719072943	 2.0140556237	 0.311547683	 0.099103
C	 2.4348291487	 2.563207809	 0.1894943084	 0.120186
C	 3.7097245302	 3.2189538448	 0.0738623481	-0.116462
C	 4.4724402818	 3.2031966652	-1.1908518143	-0.157544
O	 3.7820912196	 4.3739910765	-0.7757332495	-0.210799
H	-0.7227405115	 2.0076121183	 0.0741031044	 0.189145
H	-0.1505082177	 1.1762437816	 1.5101211688	 0.18609
H	 4.2692455224	 3.3180889848	 1.0031267078	 0.123568
H	 5.5594717181	 3.2534726854	-1.1494029803	 0.126126
H	 4.0518750944	 2.6884900436	-2.0521695564	 0.132832
