18
gdb 68639	2.50525	1.63565	1.37551	3.3222	71.51	-0.2368	-0.0324	0.2044	999.9138	0.147845	-439.05006	-439.041945	-439.041001	-439.082939	30.794	
O	-0.0649508862	 1.3715030829	 0.0646680572	-0.481736
C	 0.0353843258	-0.0115502709	 0.0038447863	 0.373094
C	 0.3384870708	-0.8191270216	-1.2913781182	-0.226142
N	-0.3811674859	-1.9598641632	-0.5997325758	-0.136862
C	 0.5862191316	-2.2067224504	 0.5267496723	-0.165222
C	 0.9056883448	-0.7641839723	 1.0298389662	-0.30956
C	-1.2659221026	-0.8870530183	-0.0071896651	-0.096006
C	-2.0551462228	-1.1022349327	 1.2514074818	 0.134835
O	-2.024027269	-2.0742819679	 1.9650191968	-0.251341
H	 0.7385232269	 1.7286633744	 0.455521516	 0.290738
H	-0.2225811178	-0.4733884759	-2.1616968119	 0.113566
H	 1.3786354078	-1.0309537991	-1.5555729524	 0.098356
H	 0.1158169312	-2.830851372	 1.2827332962	 0.145398
H	 1.461592532	-2.7206407507	 0.1238298714	 0.105666
H	 1.9626664389	-0.4926031332	 0.9378601544	 0.096709
H	 0.5904841877	-0.5831857217	 2.0610973707	 0.115436
H	-1.9545144165	-0.5155614634	-0.7751607683	 0.105015
H	-2.7080895868	-0.233215074	 1.4986035825	 0.088056
