20
gdb 105378	2.61841	1.16112	0.91924	2.0368	75.01	-0.2498	0.0552	0.305	1306.3111	0.170375	-440.223441	-440.214139	-440.213195	-440.258066	34.31	
O	 0.745923878	 0.0705833053	-0.4463757023	-0.416263
C	-0.1519441971	-0.0848374915	 0.6444550008	-0.162826
C	-1.5531388017	-0.4931356528	 0.2165282256	 0.316672
C	-1.7720291409	-1.9637901803	-0.1067091927	-0.29362
C	-0.9684771545	-2.4405482575	-1.2976445488	 0.07891
C	 0.2746650292	-3.2269658298	-1.1592413362	-0.197671
O	-0.9540832927	-3.8480355134	-1.5272018679	-0.234008
C	-2.6909749024	 0.3195333323	 0.7254818865	-0.290536
N	-2.270430714	 0.4323838303	-0.6791308156	-0.339965
H	 0.8474786019	-0.786441307	-0.872795187	 0.290553
H	 0.2372174558	-0.8014745118	 1.3849255153	 0.091716
H	-0.1853803863	 0.8962115363	 1.1295602219	 0.106841
H	-1.5320468653	-2.5859664256	 0.7639275959	 0.103027
H	-2.8325050988	-2.1169513481	-0.333739662	 0.12052
H	-1.0962561818	-1.8444079752	-2.2020760428	 0.117762
H	 1.0348891335	-3.1983046865	-1.9399304161	 0.121747
H	 0.6435065755	-3.4771219612	-0.1643930555	 0.118588
H	-3.6617693385	-0.1448642885	 0.8773040726	 0.118098
H	-2.4721889307	 1.1368002729	 1.408095447	 0.11251
H	-1.7096493792	 1.2693540423	-0.8225331285	 0.237946
