23
gdb 59475	2.91917	0.99501	0.81355	1.3926	86.89	-0.2435	0.0759	0.3194	1503.0405	0.204411	-388.262394	-388.252248	-388.251304	-388.29827	37.911	
C	-0.0504395546	 1.5553938092	-0.1322643422	-0.396904
C	 0.0142623042	 0.0573865501	 0.1775567663	 0.12841
O	 0.6546518153	-0.1790599184	 1.4317521197	-0.432956
C	-1.3555825733	-0.5874429798	 0.1089841555	-0.026962
C	-1.8678704398	-1.185500225	-1.1825415813	-0.319374
C	-1.5440022961	-2.0837024561	-0.0123799958	-0.016746
C	-0.3974324644	-3.0445958021	-0.0543559369	 0.041512
C	-0.0899391857	-3.9080509569	 1.1416196024	-0.259831
C	-0.6631482704	-4.5307063295	-0.1081917854	-0.284581
H	 0.9458882004	 2.0003924225	-0.0645842606	 0.119961
H	-0.4508582451	 1.7340215738	-1.1353232407	 0.117119
H	-0.7032574138	 2.0697832087	 0.5841631737	 0.102853
H	 0.6751857687	-0.4215496201	-0.5536730954	 0.082084
H	 0.0661320224	 0.1416665937	 2.1237809569	 0.272824
H	-2.0996351422	-0.0711450214	 0.7156777086	 0.069218
H	-2.9042624891	-1.028702786	-1.4610727914	 0.107482
H	-1.1825771464	-1.2040132426	-2.0253274464	 0.109463
H	-2.405857274	-2.4751624309	 0.5245640541	 0.074735
H	 0.4639911382	-2.7040507044	-0.6205209062	 0.078907
H	 0.9489262814	-4.0968275174	 1.3874436655	 0.112337
H	-0.7390927289	-3.8184117216	 2.0065856171	 0.105739
H	-1.6974242457	-4.859109695	-0.0836877694	 0.106998
H	-0.0178175812	-5.1499393207	-0.721718978	 0.10771
