18
gdb 8079	3.66215	2.2275	1.77544	1.5644	71.77	-0.2311	0.0106	0.2417	809.5861	0.154958	-347.799646	-347.792881	-347.791937	-347.829934	27.791	
C	-0.0613556949	 1.5361099742	 0.0142186245	-0.490673
C	 0.060997812	 0.0334176724	-0.0254152557	 0.383798
C	 0.7679794539	-0.6840597533	-1.2075508949	-0.276056
C	-0.3750294596	-1.6965842097	-0.9884182157	 0.088455
C	-0.0534304775	-2.7045303634	 0.1259677689	-0.26117
C	 0.4571444465	-1.9462334247	 1.3334309862	-0.075339
C	 0.5235790513	-0.617140633	 1.2711480776	-0.080038
O	-1.1899652715	-0.6308305866	-0.4250741122	-0.326798
H	 0.9105424803	 1.9918869404	 0.2327286401	 0.118658
H	-0.4218594191	 1.9186670942	-0.944039702	 0.122122
H	-0.7640619016	 1.8428327251	 0.7964254099	 0.129077
H	 0.6430617905	-0.1396935908	-2.1461503543	 0.10102
H	 1.802715712	-1.0057473735	-1.0754152799	 0.096643
H	-0.8459229519	-2.1598372601	-1.8596235872	 0.071981
H	-0.954909736	-3.2755914704	 0.3845109736	 0.115118
H	 0.688923166	-3.4366238825	-0.22066733	 0.104662
H	 0.7465720264	-2.5023118563	 2.2204343093	 0.092425
H	 0.8847882831	-0.001377352	 2.0889488017	 0.086114
