17
gdb 90314	2.55894	1.73249	1.21077	2.3324	73.78	-0.2357	-0.0306	0.2052	1030.9073	0.136871	-418.002608	-417.994871	-417.993927	-418.034945	29.665	
C	-0.2413375965	 1.4216329184	-0.3034428274	-0.402361
C	-0.0779250406	-0.0665055339	-0.0447227759	 0.014669
N	 1.1399905212	-0.6943684861	-0.7018118446	-0.365743
C	 1.7878365557	-0.6675718063	 0.5291494637	 0.364301
N	 2.9369095103	-0.3658177608	 0.9882177398	-0.306035
C	 2.6842131056	-0.005371843	 2.39929368	-0.268589
C	 1.1635658897	 0.3685761021	 2.4727809319	 0.357703
O	 0.6419840858	 1.1397296241	 3.2250262183	-0.289236
C	 0.5494119039	-0.4804172466	 1.3394758111	-0.239042
H	 0.673523006	 1.9703679112	-0.0578780947	 0.134761
H	-0.4835913968	 1.6083296833	-1.354777697	 0.124971
H	-1.0536104782	 1.8246088092	 0.3086413072	 0.144305
H	-0.9898602387	-0.6158583471	-0.2899190164	 0.097595
H	 1.5808511667	-0.2466143597	-1.4998127294	 0.240054
H	 2.8947276753	-0.8264176886	 3.0993944379	 0.12943
H	 3.3038864315	 0.8448839619	 2.6994935117	 0.13565
H	 0.0857208892	-1.3726684583	 1.7679080337	 0.127568
