21
gdb 64440	2.18179	1.67792	1.22673	4.1837	78.1	-0.255	0.0147	0.2697	1120.6525	0.182819	-424.281462	-424.272406	-424.271462	-424.315069	34.682	
C	 0.1464395022	 1.5287520809	-0.044218505	-0.413408
C	 0.0146180991	-0.0041029457	-0.0257411817	 0.118884
C	-1.4839203799	-0.3780738576	 0.0810225789	-0.410734
C	 0.6345036774	-0.6070454691	-1.3038874778	-0.229945
C	 0.930551037	-2.0953743794	-1.1376913226	-0.238896
C	 1.8805819638	-2.2704952402	 0.0332209896	-0.057856
O	 1.4020544505	-1.6685363969	 1.2470537072	-0.237836
C	 0.6711601178	-0.5269844985	 1.2683377448	 0.413677
O	 0.4909961621	 0.0097615657	 2.3295889313	-0.338399
H	 1.195790449	 1.8361519104	-0.0995442812	 0.114219
H	-0.3721601844	 1.9368725142	-0.9182277481	 0.107502
H	-0.2851679126	 1.9626670111	 0.8590722834	 0.142333
H	-2.0303738408	 0.0441077802	-0.7688625065	 0.114414
H	-1.6418691174	-1.4607070379	 0.0807429355	 0.118796
H	-1.9085198766	 0.0233887437	 1.0039346467	 0.142858
H	-0.036543738	-0.4247884356	-2.1506584044	 0.099984
H	 1.5729125598	-0.0849405812	-1.5333352952	 0.098758
H	 0.0105026314	-2.6634717955	-0.9609015128	 0.114328
H	 1.3962093348	-2.5101625532	-2.038195987	 0.10751
H	 2.0398944618	-3.3228341992	 0.2820184968	 0.121352
H	 2.8587274431	-1.8288114861	-0.2006459619	 0.112461
