17
gdb 69817	3.1732	1.63108	1.28696	1.167	72.71	-0.2427	-0.0024	0.2403	981.2069	0.136649	-421.799907	-421.792654	-421.79171	-421.83115	29.594	
O	 0.0046257441	 1.3783250697	 0.0582475305	-0.472939
C	 0.0505927073	-0.0238897594	-0.0162857391	 0.354654
C	-0.5372360243	-0.6652565073	-1.2560382422	-0.349629
C	-1.2987027432	-0.7220056353	 0.0464040411	-0.102857
C	-1.3876570004	-2.0159432452	 0.796401013	 0.026521
O	-0.711969418	-3.1431139085	 0.2445517886	-0.255704
C	-0.1852588864	-2.5647202371	 1.4632013832	-0.007407
C	 1.0789534969	-1.8024001159	 1.3861218752	-0.075356
C	 1.1743172797	-0.6491908029	 0.7140616019	-0.130774
H	 0.580585851	 1.7311279762	-0.6288589456	 0.284246
H	-0.9091722793	 0.0176119935	-2.0121324647	 0.113196
H	-0.1030493532	-1.5915952049	-1.6115368909	 0.140189
H	-2.1482950053	-0.0575768954	 0.1505564376	 0.100822
H	-2.3620158632	-2.2424778058	 1.2268528296	 0.093963
H	-0.3087671748	-3.2144551116	 2.3278911602	 0.092217
H	 1.9366035381	-2.1941078759	 1.9243943238	 0.095297
H	 2.1072116309	-0.0906477442	 0.7152629079	 0.09356
