19
gdb 55137	3.46068	1.28695	1.19859	3.3445	75.34	-0.235	-0.0165	0.2185	1115.4258	0.159307	-423.02057	-423.012541	-423.011597	-423.053605	30.79	
C	 0.2465421648	 1.5050443731	-0.0435711645	-0.48631
C	-0.0809321849	 0.0252753899	 0.0526767557	 0.365261
O	-0.2999284994	-0.5233441073	 1.1058968981	-0.291684
C	-0.1358580769	-0.7168868331	-1.2843757632	 0.027157
O	 0.1318325784	-2.1180538341	-1.1520096468	-0.277782
C	-1.0696197798	-2.7122030601	-1.6869856879	 0.113526
C	-1.3249270355	-1.8869019651	-2.9709563561	-0.236234
C	-1.5578815436	-0.7715585162	-1.9020834311	-0.084935
C	-2.1978453671	-1.8939634467	-1.0191581026	-0.238806
H	 1.3034463105	 1.6290534767	-0.3088096049	 0.147606
H	-0.336666474	 1.990027799	-0.8342759175	 0.134248
H	 0.0577492301	 1.9908738707	 0.9141672753	 0.144765
H	 0.5841326463	-0.2595957465	-1.9775232347	 0.079397
H	-0.9837182993	-3.7962675923	-1.6515074668	 0.084498
H	-0.4936217488	-1.7734299342	-3.6712461461	 0.10063
H	-2.2437147149	-2.1630674062	-3.4908829725	 0.105032
H	-2.0532212428	 0.1727735324	-2.1245684856	 0.078277
H	-3.1953671037	-2.1672261916	-1.3663843423	 0.100352
H	-2.1590045995	-1.7915554783	 0.0649450637	 0.135001
