18
gdb 10964	5.08668	1.24811	1.13124	2.0631	67.9	-0.2472	0.078	0.3252	1068.4546	0.153116	-384.896571	-384.888411	-384.887467	-384.928912	30.956	
O	-0.0416223097	 1.4037831352	-0.1721226993	-0.421976
C	 0.0419686279	 0.0123926143	 0.1091627976	-0.093786
C	-1.3549641811	-0.5635909183	-0.0197629966	 0.043692
C	-2.0231336825	-0.601098248	-1.4382513007	-0.311135
C	-2.21322581	-2.1153317247	-1.2713500398	 0.408225
O	-3.3704401783	-2.7968477686	-1.6078292665	-0.464231
C	-0.8945112324	-2.8047819317	-1.082106644	-0.343351
C	-1.5375225544	-2.084365918	 0.0910243767	-0.143023
H	 0.8444305193	 1.7742493695	-0.1259885209	 0.285679
H	 0.7305816748	-0.4902202782	-0.5877907136	 0.080985
H	 0.4214168446	-0.168183529	 1.1285762947	 0.083829
H	-2.0072219676	-0.0403109064	 0.6851672421	 0.085595
H	-2.9725071118	-0.0631700029	-1.4604937305	 0.111008
H	-1.4070178112	-0.2731864416	-2.2820278467	 0.091798
H	-3.2849564254	-3.1074836742	-2.5159162122	 0.283566
H	-0.9673201879	-3.8860031534	-1.017316045	 0.111647
H	 0.0161179848	-2.4408100666	-1.5522897672	 0.101293
H	-1.7969187992	-2.6219969172	 0.9950156117	 0.090185
