21
gdb 76443	2.76589	0.98582	0.90624	1.991	79.82	-0.2412	-0.0238	0.2174	1406.3542	0.178417	-424.224429	-424.213544	-424.2126	-424.26104	38.444	
C	-0.1024360733	 0.9537605316	-1.9480203648	-0.430986
C	-0.0128120992	-0.2136527963	-0.9882418472	-0.07568
C	 1.3046940993	-0.6786785642	-0.3807006271	-0.071208
C	 2.6276955968	-0.0087790899	-0.6823824625	-0.408987
C	 0.2656772439	-0.0086293349	 0.4880461698	 0.343794
O	 0.5905001031	 1.2863490416	 0.9325277841	-0.464381
C	-0.4812091842	-0.8330191745	 1.5314824726	-0.324156
C	-1.8760178174	-0.3071698567	 1.7854115745	 0.157474
O	-2.8843616866	-0.9619587907	 1.7135254896	-0.23899
H	 0.549765583	 1.7788179041	-1.6530173204	 0.125258
H	 0.1836540841	 0.6507323802	-2.960622448	 0.125734
H	-1.1275511659	 1.3386096162	-2.0015171341	 0.117976
H	-0.7179724464	-1.0120398982	-1.2086152142	 0.092302
H	 1.3802606316	-1.7550190521	-0.2454933498	 0.084809
H	 2.5513160224	 1.0781090198	-0.629530282	 0.133059
H	 3.3858646191	-0.3174475389	 0.0450242117	 0.119342
H	 2.9911341543	-0.2847881902	-1.6781195406	 0.114991
H	-0.1292971727	 1.8824513412	 0.7012268105	 0.289514
H	-0.55725408	-1.8809342892	 1.230020913	 0.118097
H	 0.0817886175	-0.7781304502	 2.4738932834	 0.126412
H	-1.9197169593	 0.7758599313	 2.0489774916	 0.065628
