16
gdb 76004	2.62808	1.20093	1.07739	2.6133	75.88	-0.2612	-0.0151	0.2461	1164.4251	0.123451	-396.939579	-396.930097	-396.929153	-396.973832	33.728	
C	-0.1424694026	 1.5358742836	-0.0448965953	-0.457986
C	-0.0273415903	 0.0227372693	-0.046182234	 0.092644
C	-1.1388828455	-0.6779123877	 0.5416152446	 0.251305
N	-2.0375109464	-1.2498508761	 0.9942960397	-0.33492
C	 0.7024435286	-0.7172414039	-1.1908733342	-0.003478
N	 1.3234427769	-0.0773495731	-2.2968937913	-0.519096
C	 1.3452146529	-0.6588093322	 0.1754605676	-0.245637
C	 2.4927639062	 0.1805287664	 0.3717862885	 0.309066
N	 3.4109237349	 0.8733407472	 0.4982409978	-0.334684
H	 0.6776132127	 1.990669828	-0.6025759812	 0.134167
H	-1.0845959706	 1.8386866942	-0.509958976	 0.144794
H	-0.1205426713	 1.9304673272	 0.974224806	 0.155775
H	 0.2685718767	-1.6824660995	-1.4358455736	 0.136924
H	 0.6532070026	 0.2858714785	-2.9642343672	 0.250545
H	 1.9692797798	 0.6560437173	-2.0311583503	 0.259218
H	 1.3485242155	-1.5689999791	 0.7642888689	 0.161363
