15
gdb 23195	3.20078	1.20235	0.9521	3.0552	72.	-0.245	-0.0511	0.194	1183.8052	0.110845	-453.85499	-453.846759	-453.845815	-453.888063	30.083	
O	-0.2468742779	 1.4201193659	 0.0912935008	-0.386126
N	 0.0168146964	 0.0486627602	-0.0493170773	-0.255934
C	-1.0614112171	-0.6112911898	-0.1261292433	 0.370227
C	-2.539780478	-0.3590983845	 0.0744347615	-0.260806
N	-2.7870622795	-1.8520285489	 0.1753088314	-0.138302
C	-2.3909358828	-2.4083534641	-1.1028760997	-0.264296
C	-1.2740754562	-2.0770809138	-0.1615091426	 0.125369
C	-0.4616547796	-3.1316573447	 0.498732836	 0.07517
O	-0.7820702127	-4.2938423296	 0.5307795407	-0.25018
H	 0.6383486978	 1.7951146113	 0.154530495	 0.313
H	-2.7644167275	 0.1395857603	 1.0198016354	 0.150266
H	-3.092495526	 0.1229718395	-0.7374289964	 0.13444
H	-2.5984599176	-3.4705457539	-1.1907108639	 0.159631
H	-2.5055967586	-1.8182103267	-2.0101660556	 0.127711
H	 0.4735512791	-2.7628458209	 0.9678151479	 0.099828
