18
gdb 85269	2.8881	1.33763	1.01084	2.6436	72.94	-0.2473	-0.0296	0.2177	1167.9567	0.148155	-439.090254	-439.082015	-439.081071	-439.123095	31.632	
O	-0.034332179	 1.4057457757	-0.0392747485	-0.428452
C	-0.0017688969	-0.0081929893	-0.016972332	 0.112635
C	 0.6647218264	-0.6147426348	 1.2364831915	-0.366828
C	-0.0514285015	-1.9443953184	 1.4519558998	 0.350528
O	 0.2680565171	-2.8419012645	 2.1952926347	-0.342026
C	-1.285444512	-1.9409369732	 0.5894144504	 0.254192
C	-1.5992666268	-3.217174103	-0.1305483487	-0.273359
N	-2.4245036582	-2.7720376863	 0.9873315193	-0.359149
C	-1.4450418292	-0.5449015502	 0.0215644638	-0.32044
H	 0.8662230301	 1.728399105	-0.1445418448	 0.285232
H	 0.5018883909	-0.3970520647	-0.9158534586	 0.076856
H	 1.7493051042	-0.7371769044	 1.1830669749	 0.123554
H	 0.4418506602	 0.0297141823	 2.0978791481	 0.143516
H	-2.0687720489	-3.1526667437	-1.1086570666	 0.125898
H	-0.9248433774	-4.0556426042	 0.0199762511	 0.132177
H	-2.1484175617	-3.2883701498	 1.8239740779	 0.246055
H	-2.0285940473	 0.0819368072	 0.7059731231	 0.125534
H	-1.9306870899	-0.5169568839	-0.9555656653	 0.114078
