14
gdb 48095	3.78692	1.04777	0.90016	1.8478	64.7	-0.2631	-0.1136	0.1495	1233.9396	0.098706	-473.827259	-473.81887	-473.817926	-473.861828	28.947	
N	 0.0681809363	 0.8830009397	 0.8325608934	-0.528111
C	-0.0321688287	-0.1768913573	 0.1788234855	 0.445853
C	-1.1148587123	-1.2222873186	-0.0003478185	-0.373649
C	-0.0734097094	-1.8723048777	-0.9537165054	 0.020906
O	 0.8636371336	-0.8040272152	-0.6738018618	-0.241602
C	 0.4471886483	-3.2283501326	-0.5281930244	 0.269475
O	 1.4444918622	-3.4093927729	 0.1232710854	-0.255017
C	-0.4097181662	-4.4280149619	-0.9516718761	 0.07817
O	-1.4323926981	-4.3096106231	-1.5747380536	-0.212982
H	 0.9765134517	 1.3288025839	 0.6953757544	 0.237615
H	-1.357209135	-1.7867436235	 0.9016272216	 0.149422
H	-2.0317689847	-0.8733530318	-0.4746122983	 0.157024
H	-0.3689437412	-1.8861398637	-2.0057643873	 0.130657
H	 0.0034742535	-5.4024736652	-0.619018825	 0.122238
