15
gdb 49776	2.12925	1.73487	1.0906	4.2399	71.53	-0.2401	-0.0273	0.2128	1075.917	0.111913	-416.780268	-416.771888	-416.770944	-416.814214	30.08	
O	-0.8490034137	 1.3297613671	 0.8988377247	-0.243753
C	 0.0651560695	 1.0020405672	 0.1908537027	 0.158664
C	 1.3258747619	 1.8374085553	-0.004174974	-0.057049
N	 2.5017104988	 0.9794610363	-0.1978518641	-0.255121
C	 3.1539919475	 1.4788833903	-1.1738339879	 0.06906
N	 2.6620261205	 2.637721255	-1.7541474703	-0.293623
C	 1.2699131544	 2.7801667078	-1.2749407952	-0.189588
C	 0.2947675831	 2.386202825	-2.2913561274	 0.342514
C	-0.4940043399	 2.0705426124	-3.1418600361	-0.471515
H	 0.0654920147	 0.0491503995	-0.3792663587	 0.093632
H	 1.4534029195	 2.4550699207	 0.891485171	 0.11604
H	 4.091488297	 1.0686684221	-1.5385320545	 0.13525
H	 2.8200598173	 2.7778083044	-2.7430106207	 0.25216
H	 1.0742878496	 3.8108253875	-0.9682283879	 0.130618
H	-1.2010040202	 1.7897599395	-3.8836942816	 0.212711
