21
gdb 90240	3.4853	1.3928	1.32124	1.7614	82.56	-0.2417	0.0567	0.2984	1072.6492	0.184239	-386.985988	-386.978559	-386.977615	-387.017333	31.155	
C	-0.1123745207	 1.567003648	 0.0153998091	-0.420484
C	 0.0731881837	 0.0501523458	 0.0040449385	 0.060125
C	 1.1020027007	-0.5008029896	-1.0298532139	-0.243725
C	 2.0559822943	-1.3180152182	-0.1130611143	 0.230471
C	 2.229847512	-2.7616641624	-0.6651737301	-0.202041
O	 0.8798840884	-3.0741800414	-0.1306164813	-0.32806
C	 1.1441791575	-1.998435622	 0.8475795685	 0.150912
C	 0.706013829	-0.5502020028	 1.2643701581	-0.108441
C	 2.2916886616	-0.2861538155	 1.0481099583	-0.335137
H	 0.8317500883	 2.0926677155	 0.1939685926	 0.112602
H	-0.5064133913	 1.9161540564	-0.9450563662	 0.116233
H	-0.8177606774	 1.8764405766	 0.7944096353	 0.112257
H	-0.9042167043	-0.4160677251	-0.1617212787	 0.079745
H	 0.62719913	-1.1229668728	-1.7897581832	 0.108431
H	 1.6510076696	 0.3010434345	-1.5356908976	 0.089124
H	 2.2724464116	-2.900867996	-1.748700011	 0.112427
H	 2.9895442035	-3.3715118746	-0.1628534946	 0.106937
H	 1.6592712246	-2.4685366522	 1.6946601948	 0.07628
H	 0.2328864804	-0.3418581491	 2.2266825935	 0.065357
H	 2.8929886075	-0.6577763993	 1.8781508331	 0.111948
H	 2.589236631	 0.7327499141	 0.7883063491	 0.105038
