18
gdb 78913	3.47284	1.83762	1.62858	1.8215	72.73	-0.2169	0.0827	0.2996	880.0622	0.150692	-401.901829	-401.895606	-401.894661	-401.932117	26.572	
C	 0.0024796575	 1.5062669194	-0.1305452467	-0.325519
N	-0.0047775644	 0.0509590925	-0.0353306574	-0.062534
C	-1.3221667601	-0.5213281591	 0.1642440941	-0.024451
C	-1.1746765794	-1.8705448569	 0.8033090998	-0.108444
C	-1.6207010521	-0.6850978145	 1.6574376436	-0.104514
C	-0.3019701853	-0.4564439206	 2.4111896082	 0.047613
O	 0.1947513449	-1.7826302726	 2.7479041007	-0.293922
C	 0.2798946039	-1.9700458568	 1.3122708072	 0.042327
C	 0.6441510905	-0.4692961667	 1.1351042517	-0.042589
H	 1.0323824321	 1.8589508166	-0.2398461577	 0.122402
H	-0.5557853198	 1.8170735042	-1.0188166974	 0.12144
H	-0.4447191432	 2.0042421546	 0.7473804432	 0.10139
H	-2.0906047192	-0.2923733477	-0.5646004331	 0.094061
H	-1.7933220409	-2.7246696523	 0.5683431728	 0.095508
H	-2.6012774888	-0.5905062667	 2.1014596762	 0.091982
H	-0.2635261296	 0.2497870101	 3.2381467903	 0.077563
H	 0.9029210991	-2.806793276	 1.0025586732	 0.081168
H	 1.6808039348	-0.1774107976	 1.2817857815	 0.086521
