20
gdb 11914	4.56338	1.43663	1.25419	1.5368	75.26	-0.2218	0.0872	0.309	1046.428	0.177452	-349.002046	-348.994082	-348.993138	-349.035165	30.602	
C	-0.2300737603	 1.4966963889	-0.030936062	-0.411909
C	 0.0830759491	 0.005122198	 0.039275203	 0.027852
C	 0.9299138433	-0.530037294	-1.1234879473	-0.086914
O	 1.4550267824	-1.7688040338	-0.6714660262	-0.29332
C	 1.6468563129	-1.6855963014	 0.7315249372	 0.463572
C	 1.6783035693	-2.9909721793	 1.4634713319	-0.329234
C	 2.9534929555	-2.179891995	 1.281157026	-0.330403
C	 0.9475251673	-0.4274462127	 1.2409803589	-0.318158
H	 0.6911715835	 2.0899533081	-0.0597564787	 0.115941
H	-0.8134322294	 1.7404615577	-0.925404222	 0.116021
H	-0.8088606264	 1.8224595901	 0.8392056513	 0.118222
H	-0.85402179	-0.5648746743	 0.0588850719	 0.08119
H	 0.3582532457	-0.7187826221	-2.0370204028	 0.104284
H	 1.7406585522	 0.1793970514	-1.3647027661	 0.082009
H	 1.2323258962	-3.0452823648	 2.4514171338	 0.108035
H	 1.5730934436	-3.8889429145	 0.8645919985	 0.120788
H	 3.6776344178	-2.5520746733	 0.5650692617	 0.119072
H	 3.3788890527	-1.6785763322	 2.1451900398	 0.10626
H	 1.6801909899	 0.3551040561	 1.4743003963	 0.101101
H	 0.3593819646	-0.6097603928	 2.1441582046	 0.105591
