16
gdb 8026	3.3457	1.96015	1.53169	3.3263	64.6	-0.2383	-0.0204	0.2179	849.8023	0.12941	-383.729868	-383.722493	-383.721548	-383.761628	28.154	
O	 0.0497869708	 1.4335981594	-0.2763963857	-0.476784
C	 0.0167452292	 0.0614456764	-0.0188752957	 0.41168
C	 0.4806838387	-0.9168393655	-1.1292710699	-0.288837
C	-0.8443923486	-1.7190025215	-0.9687959228	-0.228997
C	-1.37655447	-0.6661820354	 0.0636829626	-0.200326
C	-1.0386690904	-1.0735307159	 1.4958341919	 0.422863
O	-1.6191901645	-1.6851444241	 2.3455103879	-0.301946
C	 0.3436900244	-0.3885731611	 1.4410335761	-0.423321
H	 0.9680202532	 1.7260857651	-0.2570683881	 0.281106
H	 0.5415463579	-0.4085749405	-2.0944360897	 0.111948
H	 1.4149532413	-1.4565637859	-0.951901074	 0.097483
H	-1.4480066384	-1.7661308811	-1.8759997428	 0.120883
H	-0.7439927767	-2.7319536824	-0.5726491788	 0.118946
H	-2.3365516472	-0.1941946571	-0.1428851386	 0.098595
H	 1.2163159479	-1.0245532238	 1.6163658799	 0.119819
H	 0.3793245623	 0.4691331635	 2.1212046577	 0.136887
