17
gdb 20011	4.40125	1.26371	1.10371	3.7021	70.73	-0.2489	0.0053	0.2542	1090.5774	0.141927	-363.840105	-363.83227	-363.831326	-363.872932	28.391	
O	 0.6297884931	-0.1065322202	-0.5889637901	-0.291983
C	 0.2963632005	 0.9979608887	-0.2327416187	 0.136845
N	 1.0849687812	 1.8671567255	 0.4977138862	-0.068402
C	 2.5009946369	 2.0587649467	 0.2859682181	-0.254036
C	 1.5309117151	 3.1923467657	 0.0867654428	-0.019262
C	 1.2270943978	 3.7098232775	-1.280640332	 0.011895
C	 0.1265241527	 4.7268781963	-1.4783243776	-0.269713
C	 1.5668999798	 5.1401107828	-1.6243438162	-0.274106
H	-0.7187572843	 1.4076391136	-0.3952426746	 0.085999
H	 3.1268703773	 2.0276259813	 1.1735213115	 0.12727
H	 2.9299242424	 1.5961551211	-0.5996853699	 0.136384
H	 1.4657015657	 3.941130096	 0.8763540741	 0.098193
H	 1.3559235903	 2.9766890125	-2.072692075	 0.100045
H	-0.4843002626	 4.6492028347	-2.3705094936	 0.121874
H	-0.4109726076	 5.0663995135	-0.5990013413	 0.119164
H	 1.9993257989	 5.7579693297	-0.8440671103	 0.118422
H	 1.9514637928	 5.3465345446	-2.6164502335	 0.121412
