18
gdb 66839	2.71823	1.93003	1.45702	1.0564	74.81	-0.2086	0.0692	0.2778	946.916	0.147906	-401.849598	-401.842202	-401.841257	-401.880932	29.952	
C	-0.1428440271	 1.528661087	-0.0411957354	-0.531054
C	-0.0267864814	 0.0424121258	 0.0418480816	 0.281166
C	 0.0422258356	-1.0403701097	-1.0126701748	-0.172604
N	 1.1784017982	-1.7907992962	-0.3987675452	-0.152821
C	 0.5187320273	-2.95673791	 0.3054832922	-0.185277
C	-0.2860283349	-1.9288266441	 1.1237554897	-0.14935
C	 0.8835597758	-0.9221660649	 0.8452106521	-0.067262
C	-1.046874219	-1.0785945571	 0.0707164946	 0.33675
O	-2.398523153	-0.9678899192	-0.1601892827	-0.465154
H	 0.7906635795	 1.9851083673	-0.3883248857	 0.126007
H	-0.9370261114	 1.8102710665	-0.7399858538	 0.132592
H	-0.3910476843	 1.9648289857	 0.9330040436	 0.124034
H	-0.1527636457	-0.9991240278	-2.0780343644	 0.087495
H	-0.0127548107	-3.6574475266	-0.3477089891	 0.091691
H	 1.2698778146	-3.4922487394	 0.8933104829	 0.106775
H	-0.7453426774	-2.1097838316	 2.0950258061	 0.072906
H	 1.6986208519	-0.6754403589	 1.5240304308	 0.077508
H	-2.680541738	-1.7015558967	-0.7186043824	 0.286598
