23
gdb 60048	2.28974	1.29046	0.94746	1.7115	82.72	-0.2234	0.0738	0.2972	1348.2431	0.202193	-425.407945	-425.39728	-425.396336	-425.443248	40.334	
C	-3.337411068	 1.3189739594	-0.3919494096	-0.400157
C	-2.3545417176	 0.4428313808	-1.1659356275	 0.129958
C	-1.2515310147	 1.2726714197	-1.8236833465	-0.378567
O	-1.7619569986	-0.4889779568	-0.2371315525	-0.321623
C	-1.7116490552	-1.8364737158	-0.6440976897	 0.385591
C	-0.9563731476	-2.1494776355	-1.9154287633	-0.463367
C	-1.5986598968	-2.7882118832	 0.5266298196	-0.389485
C	-2.9111470636	-2.6557024378	-0.2168100172	 0.088312
O	-3.9952288103	-2.0204925654	 0.3895976345	-0.434896
H	-3.7393050749	 2.108607824	-1.03430264	 0.115757
H	-4.1791680025	 0.7280811208	-0.0208599397	 0.123149
H	-2.8340928454	 1.7908714302	 0.4580303196	 0.124453
H	-2.9071389654	-0.117180376	-1.9305564959	 0.086497
H	-0.6904470518	 1.8210547858	-1.06021572	 0.123451
H	-0.5487047119	 0.6401386883	-2.3708978495	 0.117965
H	-1.6784273053	 1.997480683	-2.5245166507	 0.112093
H	 0.0924277019	-1.8441867389	-1.828910206	 0.124726
H	-0.978996186	-3.2263725159	-2.1066049676	 0.118868
H	-1.3891990386	-1.6537767197	-2.7902520301	 0.120311
H	-0.9991244563	-3.6848741714	 0.4089868513	 0.11004
H	-1.5554422002	-2.3360229869	 1.5121004698	 0.118807
H	-3.2483183106	-3.4753185727	-0.8434781967	 0.100774
H	-3.6470806408	-1.2037091762	 0.7686598079	 0.287341
