16
gdb 5908	4.0326	1.2702	1.21395	4.6399	71.03	-0.2587	0.0194	0.2781	1035.4829	0.128431	-342.761297	-342.752211	-342.751266	-342.794556	33.129	
C	 0.0257025531	 1.5536294075	 0.0443383342	-0.404268
C	 0.0426401685	 0.0154094247	 0.0224266048	 0.020932
N	 0.7411175517	-0.4576399914	 1.2273821931	-0.502817
C	-1.4085218985	-0.5521736735	 0.0645071753	-0.337381
C	-2.170611968	-0.1050374686	 1.2281167374	 0.281511
N	-2.7996549607	 0.2530646463	 2.1285118815	-0.316771
C	 0.668191685	-0.4653322353	-1.2228928786	 0.321163
C	 1.1938961775	-0.8833177779	-2.2206859143	-0.462435
H	 1.0467966553	 1.9405564873	-0.0157206185	 0.12604
H	-0.5341834825	 1.9480548091	-0.8071324744	 0.129877
H	-0.4313189986	 1.9031476313	 0.9729762981	 0.156313
H	 0.8891942799	-1.4618446618	 1.1685184004	 0.234994
H	 1.6657144225	-0.0379108959	 1.2660547469	 0.237416
H	-1.9410616565	-0.2576753029	-0.8451322481	 0.159787
H	-1.3667369313	-1.6466132677	 0.0671470725	 0.153237
H	 1.6653989225	-1.2450946711	-3.1013158905	 0.202403
