19
gdb 29716	2.34159	1.61349	0.97264	2.2542	79.66	-0.1863	0.0573	0.2436	1220.1831	0.158636	-419.267425	-419.257541	-419.256597	-419.302143	35.229	
C	 0.0122878202	 1.4676325953	 0.0240226174	-0.347506
N	 0.0505124204	 0.0211016564	 0.0394042112	-0.101964
C	 0.1278520073	-0.8011991262	-1.0365816657	 0.418199
O	 0.1787417401	-0.2756962607	-2.2770942676	-0.433642
N	 0.1449286265	-2.0678007149	-0.7322810732	-0.432567
C	 0.0731959673	-2.0956189471	 0.6580945952	 0.20074
C	 0.0693412281	-3.399507445	 1.3865622964	-0.489447
C	 0.0139754628	-0.823612259	 1.160919447	 0.190607
C	-0.0724124588	-0.2821164239	 2.5460466696	-0.507152
H	 0.8628614708	 1.8908907177	 0.5687441383	 0.136729
H	 0.0572877972	 1.804492604	-1.0116594188	 0.162928
H	-0.911859126	 1.8429953784	 0.4761191026	 0.136733
H	 0.2291918708	-1.0290690052	-2.8783364627	 0.311907
H	 0.9773684454	-3.9741325676	 1.1708265487	 0.128276
H	 0.0096554594	-3.2572191932	 2.4688057969	 0.112262
H	-0.7805576073	-4.0198014903	 1.0797623626	 0.128263
H	 0.7820826028	 0.3582693572	 2.8021253875	 0.124082
H	-0.9808177312	 0.3126942385	 2.7099304214	 0.124064
H	-0.0888009757	-1.1042516043	 3.2646875432	 0.137489
