19
gdb 108753	2.21375	1.3089	0.86663	5.3937	80.12	-0.2288	-0.0353	0.1935	1328.6736	0.158272	-423.064661	-423.055341	-423.054397	-423.099412	33.901	
C	-0.1060375593	 1.5516844153	 0.0469855589	-0.404156
C	 0.0349955328	 0.0200910707	 0.0332253649	-0.082299
C	 0.8220559989	-0.5167794594	-1.1815980194	-0.353047
C	 1.9658928319	-1.3647177579	-0.600876854	 0.389432
O	 2.7886783196	-1.9751833152	-1.2444849493	-0.33774
C	 1.8556375642	-1.2839127063	 0.8684818994	-0.290243
C	 0.8050124693	-0.5312869928	 1.225095322	 0.312798
C	 0.3640808846	-0.2425751484	 2.6222759122	-0.172451
O	 1.1710417476	-0.9508719264	 3.5399249968	-0.40895
H	 0.8779614785	 2.0328291924	 0.063183406	 0.125275
H	-0.6335751241	 1.8931307571	-0.8487718422	 0.124597
H	-0.6704152867	 1.9034906244	 0.9164453274	 0.115731
H	-0.9775085421	-0.4072933419	 0.0490437291	 0.088797
H	 0.2145337041	-1.1294190494	-1.8535857685	 0.129314
H	 1.2483551785	 0.2892688445	-1.787990577	 0.127932
H	 2.5364147283	-1.7843815529	 1.5425666953	 0.126256
H	 0.4148469439	 0.8462271242	 2.7950998127	 0.110268
H	-0.7023798881	-0.516538645	 2.7179576858	 0.104609
H	 0.9069844182	-0.701626713	 4.4300234899	 0.293876
