21
gdb 72430	2.47607	1.95211	1.64395	1.4871	80.48	-0.2392	0.0865	0.3256	955.9686	0.185262	-387.085459	-387.078326	-387.077382	-387.116283	30.828	
C	 0.0039116771	 1.4583652676	 0.1113246242	-0.479387
C	-0.0135333417	-0.0479442358	-0.0227779703	 0.411088
C	 0.6779750533	-0.7068172937	-1.2374125222	-0.246697
C	 0.4499812091	-2.1318353084	-0.6693513686	-0.061338
C	 1.1303141327	-1.9425388572	 0.6899132045	-0.094358
O	 0.7213824312	-0.6198181528	 1.0863544607	-0.312553
C	-1.0884074562	-2.1366056212	-0.4984889943	-0.048015
C	-1.7241808625	-1.8320751773	 0.8405915015	-0.307811
C	-1.4155913947	-0.7060082444	-0.1056335973	-0.053616
H	 1.0307887379	 1.8340784191	 0.1058169687	 0.12036
H	-0.5438410088	 1.9244818267	-0.7134547764	 0.113079
H	-0.4660352989	 1.7634278996	 1.0510235508	 0.12825
H	 0.1450347646	-0.5316884474	-2.1751567388	 0.093691
H	 1.7304145695	-0.4235234275	-1.3453635366	 0.091026
H	 0.8406098478	-2.9671540565	-1.2512599829	 0.064298
H	 0.8123780993	-2.6710728886	 1.443522626	 0.099376
H	 2.225053702	-1.9838515527	 0.6077133542	 0.091727
H	-1.67522548	-2.6715101407	-1.2369562373	 0.081454
H	-2.7689505898	-2.1092486513	 0.9421227268	 0.10313
H	-1.1548515567	-1.9045585457	 1.7582096303	 0.130986
H	-2.2202638552	-0.1398781418	-0.5634139231	 0.075311
