21
gdb 20070	4.81679	1.32129	1.11784	0.9938	78.76	-0.2298	0.0804	0.3102	1121.4369	0.190649	-329.11225	-329.104211	-329.103267	-329.147232	29.948	
C	 1.4295091398	-0.0364715147	-0.2866202917	-0.224494
C	 0.6435793701	-1.1353135964	-0.9108332039	-0.224496
N	-0.0082320696	-0.1453029414	-0.0588816626	-0.064607
C	-0.4220755911	-0.5995551919	 1.2618305548	 0.079271
C	-0.5625677568	 0.5558975702	 2.2641730722	-0.210764
C	-1.4521673044	-0.0151555552	 3.3901583146	-0.206569
C	-2.2745079564	-1.1690328851	 2.736202782	-0.206572
C	-1.8292813817	-1.2152687149	 1.2582167208	-0.210764
H	 2.0972369053	-0.3065971716	 0.5304663615	 0.107149
H	 1.7537384346	 0.8168346349	-0.8754323004	 0.113877
H	 0.3823448648	-1.1005578961	-1.9646380449	 0.113877
H	 0.7875398606	-2.1377447558	-0.5097528566	 0.107147
H	 0.294004819	-1.3420389325	 1.6671975016	 0.045002
H	 0.4000704554	 0.9295132249	 2.6250028788	 0.089083
H	-1.0632423618	 1.3848841567	 1.7510286935	 0.106457
H	-0.8367796152	-0.4040209209	 4.207560244	 0.097078
H	-2.0936651284	 0.7556532895	 3.8255087337	 0.098411
H	-2.0563339349	-2.1192728114	 3.2337542489	 0.097075
H	-3.3527123725	-1.0126730419	 2.8268358088	 0.09835
H	-2.4704558704	-0.581103512	 0.635337268	 0.10642
H	-1.8551573664	-2.2227645343	 0.833064607	 0.089071
