23
gdb 85895	2.54593	1.35912	1.19367	1.3907	84.44	-0.2522	0.0762	0.3284	1188.4519	0.205935	-388.29703	-388.287855	-388.286911	-388.330011	36.891	
C	 0.023328321	 1.5468750876	-0.012601738	-0.424503
C	 0.0002334911	 0.0125075313	-0.0039368559	 0.29454
C	-1.4581686996	-0.4822355546	 0.0157439143	-0.421781
C	 0.7618904668	-0.5934080225	-1.2138041709	-0.309067
C	 1.3154438302	-1.9617005487	-0.7450799778	 0.12058
O	 2.534124125	-2.3324790541	-1.379642223	-0.438464
C	 1.5232896964	-1.8005582945	 0.7474556527	-0.037478
C	 2.24981945	-0.5580815192	 1.1995154398	-0.308331
C	 0.7433667157	-0.5861904081	 1.1981472938	-0.038268
H	 1.0489093617	 1.9280034186	 0.0166040701	 0.111857
H	-0.4595488291	 1.9450568052	-0.9123567107	 0.106956
H	-0.5093112357	 1.952376382	 0.8551547781	 0.107623
H	-2.0083643399	-0.1152885138	-0.8577867946	 0.107268
H	-1.511458347	-1.5756314298	 0.0147271736	 0.113058
H	-1.9795106433	-0.1257094817	 0.9111644717	 0.109303
H	 0.1245401732	-0.6794848748	-2.0999324941	 0.08563
H	 1.6132126228	 0.0367541005	-1.4912303613	 0.103375
H	 0.561600374	-2.7480555188	-0.9087262713	 0.062443
H	 2.3475729932	-2.4834208168	-2.3117182654	 0.278206
H	 1.5936168262	-2.6956951641	 1.3546266281	 0.080163
H	 2.7415307865	-0.605146919	 2.1648682506	 0.10771
H	 2.782652691	 0.0366174038	 0.4658393398	 0.116316
H	 0.2325117099	-0.5777820384	 2.1563392304	 0.072863
