15
gdb 19423	4.25016	2.03282	1.64086	1.4103	66.58	-0.2429	-0.0044	0.2385	788.9177	0.12028	-362.614242	-362.608084	-362.607139	-362.644302	24.704	
C	 0.0188958297	 1.5067067735	-0.0229953147	-0.241158
O	 1.195052337	 0.6964778867	 0.0012953715	-0.288299
C	-0.0853235928	 0.042283787	 0.0047642046	 0.476753
C	-0.4798074091	-0.7670654705	 1.1933972902	-0.166807
C	-0.9737523613	-1.9533148459	 0.8219387395	-0.057997
C	-1.0123783295	-2.0702653005	-0.6670233545	-0.091897
N	-1.9073984216	-1.051450892	-1.2983803768	-0.33584
C	-0.4536929557	-0.7981346444	-1.1950616581	-0.168121
H	-0.1750130417	 2.0790103613	 0.8835630978	 0.114958
H	-0.1728482275	 2.0366192977	-0.9551912561	 0.115955
H	-0.3854993765	-0.3942676396	 2.2058313776	 0.107116
H	-1.3440262463	-2.7217885204	 1.4891117725	 0.107658
H	-0.8809121075	-3.0250988945	-1.163498722	 0.095726
H	-2.1073289262	-1.3456946488	-2.2542926805	 0.230107
H	 0.1592937391	-0.7379305796	-2.0872789108	 0.101845
