13
gdb 25169	3.16237	1.55174	1.04095	2.219	81.29	-0.2295	-0.0833	0.1462	1053.5623	0.089208	-415.58824	-415.580844	-415.5799	-415.620356	27.821	
N	-0.0428095506	 1.2618306168	 0.3883504144	-0.516526
C	-0.0242689876	 0.0561150259	 0.0094852581	 0.346677
O	 1.1438694526	-0.5450594818	-0.4416579613	-0.219335
C	 1.131540422	-1.8373096738	-0.8404990155	 0.053431
C	 0.010543714	-2.5758885243	-0.8164205043	-0.09998
N	-1.1940900953	-2.0591645958	-0.3832465588	-0.304574
C	-1.2199338838	-0.8214193736	 0.00732738	 0.062671
C	-2.4434866782	-0.2530783306	 0.4607079263	 0.322065
C	-3.482875839	 0.2176556715	 0.842064627	-0.352713
H	 0.8824603737	 1.6859045284	 0.3107713174	 0.229991
H	 2.1066718394	-2.1758107691	-1.1663403636	 0.147599
H	 0.0151248275	-3.6090460038	-1.1385777203	 0.125457
H	-4.3975169247	 0.6392170903	 1.1797668806	 0.205238
