14
gdb 33723	6.25332	0.9423	0.94157	1.9045	73.93	-0.2893	-0.0284	0.2608	1198.7038	0.102363	-395.679396	-395.672012	-395.671068	-395.71141	27.679	
N	-0.0114937077	-1.062453347	-0.0897873206	-0.332432
C	-0.0195772443	 0.0916717242	-0.0327090154	 0.173407
C	-0.0045410124	 1.529934364	 0.0478211537	 0.215905
C	-0.6589554038	 2.4393734701	 1.1277440125	-0.253837
C	-0.0482774208	 3.3553311919	 0.0278843396	 0.215909
C	 1.2360771823	 2.4730745685	 0.055231771	-0.291088
N	-0.6913846105	 2.4154697901	-0.989869341	-0.347173
C	-0.1322368039	 4.7891166126	-0.0839567869	 0.173404
N	-0.1788623241	 5.9407960527	-0.1663614158	-0.332431
H	-1.7466216777	 2.413637639	 1.1571502894	 0.149318
H	-0.1859115099	 2.4614223367	 2.1083781432	 0.133315
H	 1.8537224574	 2.4977113684	 0.9558832866	 0.133032
H	 1.8331250548	 2.4773890596	-0.8590082091	 0.131962
H	-0.1307531095	 2.4195156993	-1.8490445271	 0.230709
