19
gdb 40892	3.73506	1.27851	1.26485	1.5536	80.33	-0.2097	0.0192	0.2289	1083.2433	0.160668	-385.864126	-385.856708	-385.855764	-385.896082	29.464	
C	 0.0275385385	 1.3168647744	-0.3001483552	-0.077609
C	 1.4640991198	 1.5468522581	 0.2185248305	-0.356705
C	 1.3019947247	 0.1473519833	 0.7987193064	 0.475271
O	-0.0067672422	-0.0206553559	 0.2522277011	-0.316228
C	 2.2250529073	-1.0210978547	 0.8853456916	-0.147596
C	 3.7320790816	-0.7601450855	 0.9075729815	-0.273243
C	 3.9271862908	 0.0799218299	 2.1543022146	-0.07943
C	 2.7924002134	 0.2429266026	 2.8409992941	-0.072738
C	 1.6323824168	-0.399681512	 2.1645127633	-0.18285
H	-0.743729283	 1.956775746	 0.1437741673	 0.105292
H	-0.0946886349	 1.3061792191	-1.3885993436	 0.106175
H	 2.22490702	 1.6414816465	-0.5595933024	 0.112005
H	 1.5905859911	 2.3491892344	 0.9464495829	 0.1159
H	 1.8422976543	-1.9614889751	 0.5053800595	 0.09565
H	 4.3079749102	-1.6944238484	 0.9544819719	 0.108212
H	 4.0745858073	-0.2372217652	 0.0037550602	 0.106834
H	 4.8893540155	 0.4984941973	 2.4270760203	 0.092715
H	 2.6955566386	 0.8002841653	 3.7660088928	 0.094269
H	 0.8341960802	-0.8735858299	 2.7259475732	 0.094076
