21
gdb 106499	2.41427	1.65534	1.27699	2.2921	78.12	-0.2405	0.0751	0.3156	1083.5261	0.183141	-424.203582	-424.194992	-424.194047	-424.236665	33.633	
C	 0.0217584166	 1.3459414498	 0.0916942322	-0.263186
O	-0.0269515389	-0.0665718863	 0.0748010619	-0.300842
C	-1.298672339	-0.6156731569	 0.0413846123	 0.460646
C	-2.1870611924	-0.6570296336	-1.2507354911	-0.298597
C	-2.832600252	-1.8552959627	-0.4978466197	-0.026402
C	-1.4143814	-2.158153595	 0.0628619404	-0.279738
C	-3.5029263925	-1.1451566041	 0.6952543869	-0.253877
C	-2.3346536924	-0.1920798353	 1.1095994639	 0.067386
O	-1.7971218879	-0.4250384179	 2.3994431559	-0.442308
H	 1.0731888736	 1.6266400243	-0.0042591461	 0.12557
H	-0.5369412931	 1.7866165951	-0.7472647122	 0.104078
H	-0.3674944527	 1.7562054091	 1.0328926701	 0.12008
H	-2.8216712502	 0.2018953045	-1.4911359584	 0.08363
H	-1.6037715688	-0.9602338097	-2.1224276221	 0.102585
H	-3.4123356093	-2.6123578335	-1.023598068	 0.063902
H	-0.7552597193	-2.6167513018	-0.6766541667	 0.10006
H	-1.3267620479	-2.656561026	 1.0299531604	 0.10568
H	-4.4121513354	-0.606341364	 0.4110122113	 0.091918
H	-3.7435160888	-1.8308491775	 1.5137468398	 0.096729
H	-2.6160539405	 0.8646049332	 0.9995558169	 0.060792
H	-2.4798596292	-0.2281849916	 3.0481642624	 0.281891
