18
gdb 126527	5.79788	0.75015	0.70255	1.9336	75.77	-0.2454	0.0012	0.2466	1621.312	0.147449	-439.096928	-439.088068	-439.087124	-439.13146	32.286	
C	-0.1811102092	 1.5573017049	 0.0476569005	-0.383617
C	-0.0629500857	 0.0330369911	-0.0052353992	-0.162652
C	 0.8071949345	-0.5280076609	 1.1373073896	-0.302149
C	 0.9212064411	-2.013744902	 1.1128021755	 0.47104
C	 1.9525529294	-2.8684584215	 0.8759264201	-0.450259
C	 1.3455052512	-4.148363108	 0.9924974295	 0.473286
O	 1.9778572099	-5.3224220131	 0.8404780555	-0.419237
N	 0.0665954695	-4.082138494	 1.2727231473	-0.261224
O	-0.2074480021	-2.7103147511	 1.3507198133	-0.224377
H	 0.8013801024	 2.0361407249	-0.0305943575	 0.115732
H	-0.8005631022	 1.9326595951	-0.7722290063	 0.11865
H	-0.6364900717	 1.8876981674	 0.9877651063	 0.118835
H	-1.0564627469	-0.4243751826	 0.0508727726	 0.122464
H	 0.3671719835	-0.2774414993	-0.9647786343	 0.10632
H	 1.8156376348	-0.1048880603	 1.0841527191	 0.116838
H	 0.3817669169	-0.2184924677	 2.1004653661	 0.126388
H	 2.9807650169	-2.6384227134	 0.6562134789	 0.122918
H	 1.3260608977	-6.0234915293	 0.9753757231	 0.311046
