15
gdb 129751	3.13292	1.42281	1.04274	3.1372	69.01	-0.2115	-0.012	0.1995	1092.1384	0.113473	-453.904035	-453.896354	-453.89541	-453.936725	28.563	
N	-0.4168079065	 0.9351439806	 0.9988668011	-0.617072
C	-0.1168002908	-0.1596185643	 0.1873561965	 0.050721
C	-0.8950990018	-0.7993082087	-0.7368923328	 0.374127
O	-0.1642006927	-1.7372280468	-1.3889608265	-0.2267
N	 1.1210012241	-1.7458483464	-0.8785216821	-0.137723
C	 1.1428602215	-0.8129706493	 0.0412328158	-0.007567
C	-2.3062622255	-0.6472078934	-1.1298310176	-0.055103
C	-3.4107973038	-0.9948645066	-0.2130341941	-0.167927
O	-3.0265329518	 0.3671324763	-0.4188409481	-0.230142
H	-0.0461522622	 0.86096183	 1.9366022237	 0.246691
H	-1.4090533218	 1.1347487979	 1.0109330651	 0.261352
H	 2.0606080736	-0.6219059635	 0.5802647572	 0.128423
H	-2.5073182071	-0.6881388912	-2.2003643239	 0.12447
H	-4.3816048126	-1.2673224347	-0.6230434574	 0.130404
H	-3.1746883726	-1.4049872101	 0.7663898129	 0.126044
