15
gdb 23087	3.19686	1.30547	1.17107	3.0891	69.49	-0.2233	0.0185	0.2418	1062.1568	0.112347	-453.803915	-453.796379	-453.795435	-453.835791	29.576	
O	-0.1669402977	 1.3247080148	 0.0453117671	-0.401978
N	-0.0235475878	-0.082461666	 0.0701630756	-0.307427
C	-1.1529552848	-0.6508888446	 0.0831299488	 0.55366
C	-1.5446299497	-2.0713267843	-0.0650759098	-0.210323
C	-2.9466809133	-2.1624665899	 0.6067500905	-0.133857
N	-3.1687134061	-0.8483124167	 1.2422177518	-0.302652
C	-2.6136940201	-0.2379976152	-0.0167279639	-0.248965
C	-2.8204595045	-1.6476169739	-0.7963999742	 0.340564
O	-3.1938520731	-2.031837054	-2.0505778324	-0.434898
H	 0.7509569702	 1.6150055346	 0.0411991307	 0.304861
H	-0.9377405173	-2.9480677382	-0.2390185578	 0.113609
H	-3.304876018	-3.1010346879	 1.0107121267	 0.109914
H	-4.1741373967	-0.6778445588	 1.2557159189	 0.217642
H	-2.9204287346	 0.7660011493	-0.2911756042	 0.103509
H	-4.1451089865	-1.9024050892	-2.1457235878	 0.296338
