17
gdb 55227	3.86001	0.97235	0.89383	4.6102	69.1	-0.2609	-0.0352	0.2257	1311.2373	0.13529	-459.031301	-459.02258	-459.021636	-459.066481	30.852	
C	-0.3294528331	 1.4903905722	-0.1108697116	-0.484348
C	 0.3973014472	 0.1700698837	 0.0229924515	 0.376548
O	 0.9442584497	-0.1712197185	 1.0464999436	-0.301315
C	 0.3874518411	-0.7473090325	-1.2013479176	-0.121313
C	 1.7126113398	-1.5111997259	-1.394967973	-0.09434
O	 1.369131218	-2.7677498592	-1.9979481186	-0.215128
C	 0.0535452195	-3.0579255341	-1.8165597276	 0.434327
O	-0.4461225919	-4.0702375665	-2.2077001417	-0.329662
C	-0.6090401348	-1.9134119142	-1.0519912108	-0.373189
H	 0.1671111619	 2.1115677561	-0.8660840954	 0.147681
H	-1.355110534	 1.3299395996	-0.4625872648	 0.145217
H	-0.3395261834	 2.0140306187	 0.8453543334	 0.149645
H	 0.1440159649	-0.1749939317	-2.1015309384	 0.091498
H	 2.4102116825	-1.002161373	-2.062613609	 0.127496
H	 2.1920145974	-1.6903392281	-0.4281998914	 0.143946
H	-0.700547396	-2.2200788943	-0.0036564491	 0.15855
H	-1.6090048988	-1.7219265022	-1.4413326094	 0.144388
