19
gdb 127155	4.24746	0.9357	0.83649	3.0647	78.45	-0.217	-0.0119	0.2051	1408.5393	0.159206	-419.182676	-419.173855	-419.172911	-419.217013	32.185	
C	-0.0049187566	 1.4571707094	-0.0437676964	-0.313491
N	 0.0601438857	 0.0079763714	 0.0621470634	-0.048311
C	 0.7934628336	-0.4037352012	 1.2478869987	-0.320437
C	-1.2758825228	-0.5800022288	-0.0193665307	-0.262873
C	-1.2687834281	-2.0708849029	-0.2209963484	 0.389835
N	-1.3513337748	-2.55773712	-1.4379480179	-0.189695
O	-1.339134992	-3.9410180565	-1.3000662459	-0.160456
C	-1.2579488346	-4.2460530883	 0.0021673408	 0.079006
C	-1.2134312733	-3.1159340054	 0.7498647365	-0.326215
H	 1.0087985686	 1.8690845846	-0.0488548362	 0.119962
H	-0.492227372	 1.7407764325	-0.9816629791	 0.122645
H	-0.5599553488	 1.9328530858	 0.7885621687	 0.089407
H	 0.2969844062	-0.1029138662	 2.1924576316	 0.084567
H	 0.9194444189	-1.4892389918	 1.2591257705	 0.126472
H	 1.7896941085	 0.048307357	 1.2342008132	 0.121396
H	-1.883968851	-0.3469268961	 0.8779415812	 0.084555
H	-1.7833830567	-0.134921817	-0.8794644213	 0.129156
H	-1.2469181014	-5.2986085416	 0.2395376832	 0.151423
H	-1.1583953392	-3.0283869149	 1.8220045482	 0.123053
