16
gdb 49689	2.92125	1.32237	1.12806	2.9609	75.85	-0.2603	-0.0523	0.208	1095.1825	0.124275	-400.743392	-400.735318	-400.734374	-400.776364	29.592	
O	-0.9525664429	 1.2205458624	 0.5504273981	-0.258616
C	 0.1911968696	 0.9062391468	 0.3230334802	 0.138194
C	 1.3582322939	 1.8327145968	 0.2664644312	-0.151889
C	 1.3387811034	 3.2691308779	-0.2105361417	-0.119318
C	 0.0375759214	 4.0010333411	 0.1410170606	-0.224463
C	 0.2837598257	 3.6941465232	 1.6514740942	-0.28493
C	 1.592580561	 2.9728692323	 1.2697308769	 0.187481
C	 2.8106158373	 3.02231474	 2.0105852317	 0.197961
N	 3.7933340967	 3.0749693869	 2.6205508655	-0.34474
H	 0.4585840886	-0.1565393868	 0.1324955334	 0.095359
H	 2.2873168441	 1.3275915589	 0.0166684802	 0.12124
H	 2.0650940501	 3.5805657509	-0.9512951274	 0.121028
H	 0.1070006117	 5.0677934413	-0.0786936405	 0.118075
H	-0.8742851171	 3.5947816953	-0.2946600455	 0.137708
H	 0.4873460544	 4.5932129327	 2.2345991906	 0.128509
H	-0.4628464778	 3.0848749204	 2.1591150323	 0.1384
