14
gdb 14811	2.61334	2.09485	1.32501	6.4095	65.83	-0.3212	-0.0015	0.3197	902.4579	0.108326	-341.600395	-341.593042	-341.592098	-341.632499	26.176	
N	-0.6497146749	-0.9188074751	-0.763205978	-0.312673
C	-0.3712851832	 0.1356071125	-0.380544641	 0.286153
C	-0.0328052135	 1.4565800871	 0.115934961	-0.144459
C	 0.1362711812	 1.670724085	 1.651242649	-0.224912
C	 1.3201434884	 2.6251775475	 1.354861029	-0.229431
C	 1.4277390659	 2.0196015744	-0.0860498584	-0.178087
C	 2.4618424466	 1.0050247435	-0.2115955026	 0.292408
N	 3.2981707305	 0.211505262	-0.2946442134	-0.312641
H	-0.738825001	 2.181961417	-0.2973822737	 0.140134
H	-0.7275721748	 2.0722792687	 2.1812989628	 0.128499
H	 0.4649054738	 0.7523475105	 2.141016475	 0.148478
H	 1.0143726842	 3.6724036709	 1.3079153623	 0.126251
H	 2.2064694481	 2.5368044575	 1.9817925831	 0.141422
H	 1.5284991086	 2.7330747685	-0.9063597852	 0.138858
