19
gdb 85643	2.7711	1.18551	0.88706	3.0942	82.21	-0.237	-0.0195	0.2175	1325.0918	0.157653	-385.896317	-385.887222	-385.886278	-385.930376	34.308	
C	-0.1831528357	 1.5345497853	-0.003898701	-0.409821
C	 0.0810641309	 0.0311371783	 0.0280378515	 0.022155
C	 0.8681416202	-0.4947125409	-1.1916436706	-0.227157
C	 1.3478169735	-1.8984770734	-0.7620708479	-0.298576
C	 2.479564178	-2.4387676755	-1.4892917962	 0.320138
C	 3.4270283685	-2.8603849174	-2.0962518035	-0.431
C	 1.5797744905	-1.7541693958	 0.7727446689	 0.394758
O	 2.1622008857	-2.5396144102	 1.4665961415	-0.298302
C	 0.9233324563	-0.4485023812	 1.2223554887	-0.326156
H	 0.7582386885	 2.0956134864	-0.0271508376	 0.117807
H	-0.7613066877	 1.8150793599	-0.8905876064	 0.117947
H	-0.7447421126	 1.8603760183	 0.8776110853	 0.119021
H	-0.8840916851	-0.4938237634	 0.0575377422	 0.081185
H	 0.2721578736	-0.5165917917	-2.1071095543	 0.112334
H	 1.7395081252	 0.1439349962	-1.379478522	 0.113883
H	 0.4995399661	-2.596974137	-0.8435093665	 0.132256
H	 4.2643900822	-3.2436390573	-2.6246638467	 0.195907
H	 1.7360355777	 0.2628804954	 1.4287112198	 0.13371
H	 0.375434664	-0.5856625861	 2.1578361549	 0.129912
