18
gdb 19230	3.00993	1.9742	1.52424	0.8255	76.73	-0.2524	0.0488	0.3012	903.024	0.153094	-310.608085	-310.600225	-310.599281	-310.639904	30.469	
C	-0.1871269112	 1.5787081014	-0.115418763	-0.409905
C	 0.0341781571	 0.0746624876	-0.0638645322	 0.012035
C	 0.7122022839	-0.6303382246	-1.2467663274	-0.054803
C	 2.1572066638	-0.2319246322	-1.3766560285	-0.284761
C	 1.7737455105	-1.2340544178	-0.3294499481	-0.04813
C	 1.1547562076	-0.5271251137	 0.8949457343	-0.215319
C	 1.9963306502	 0.3858778736	 1.6461677859	 0.352469
C	 2.6882781456	 1.1596427213	 2.2550343259	-0.482737
H	 0.7353547523	 2.1190846455	-0.3430917749	 0.124751
H	-0.9254764374	 1.8288598056	-0.8852343485	 0.111188
H	-0.5587518202	 1.9529938422	 0.8440000138	 0.119437
H	-0.9100671233	-0.4236824585	 0.1752223654	 0.077763
H	 0.1816478082	-1.1038430895	-2.0643933879	 0.083692
H	 2.6683292098	-0.6444699262	-2.2406245495	 0.11134
H	 2.5032701721	 0.756772901	-1.0887101608	 0.119536
H	 2.1772322278	-2.2387290728	-0.3090546337	 0.089572
H	 0.7006567603	-1.2497452716	 1.5789766486	 0.10094
H	 3.3034060229	 1.8326975287	 2.7989867506	 0.192933
