17
gdb 32001	3.91843	1.29657	0.99258	2.5514	76.97	-0.1922	0.059	0.2512	1177.3723	0.13793	-418.001781	-417.993771	-417.992827	-418.035004	28.92	
C	-0.0361613969	 1.4541589955	 0.187948325	-0.23257
O	 0.0040341773	 0.0535060029	-0.0864698862	-0.273285
C	-1.1954721996	-0.5389230937	-0.1326615585	 0.465058
N	-2.3794228915	 0.0067893024	 0.04169679	-0.381953
C	-3.321401347	-1.0114515112	-0.1021702599	-0.249637
C	-2.6582755307	-2.1747694554	-0.366653867	 0.294208
C	-2.3948094592	-3.6460134498	-0.667808062	-0.376711
C	-0.8694574704	-3.2436479347	-0.6779013821	-0.171117
N	-1.3178710157	-1.8655021038	-0.3835352619	-0.105414
H	 1.0029563375	 1.7855091299	 0.1921566198	 0.126595
H	-0.6038195723	 1.9845444534	-0.5824516683	 0.138322
H	-0.5030012291	 1.646307575	 1.1586186554	 0.138307
H	-4.375220794	-0.8083294917	-0.0021466551	 0.104993
H	-2.6684736437	-4.3537993675	 0.1183295868	 0.127963
H	-2.769566718	-4.0153763207	-1.6253774756	 0.127947
H	-0.2585145113	-3.6826373588	 0.1140825513	 0.133641
H	-0.3604141354	-3.3410996817	-1.6394658818	 0.133653
