15
gdb 125038	2.34554	1.89993	1.0573	4.0055	75.47	-0.2232	-0.078	0.1452	1064.4374	0.111568	-450.097116	-450.088576	-450.087632	-450.130769	31.354	
C	 0.0213432759	 1.5737086224	 0.047537456	-0.525203
C	 0.0062991724	 0.0736292855	 0.0272619706	 0.127556
C	-1.1385053999	-0.6529882506	 0.0721676727	 0.33794
N	-2.4082715074	-0.1420630653	 0.1692697332	-0.564968
N	-1.13496624	-2.0567102925	 0.0698353034	-0.18023
N	-0.0966330686	-2.7204793486	 0.0180913099	 0.049113
O	 1.1462187653	-2.0458446694	-0.0413450983	-0.282437
C	 1.2530717354	-0.6552841722	-0.0448176071	 0.376101
N	 2.3992508996	-0.1106315218	-0.108027301	-0.543588
H	 1.0334442977	 1.9287896619	 0.2405201318	 0.177327
H	-0.3015642572	 1.9934142364	-0.9147909029	 0.133099
H	-0.6504381232	 1.9637736716	 0.8210685544	 0.130101
H	-2.5606538044	 0.7957754401	-0.1635722588	 0.267678
H	-3.1482984538	-0.7967197131	-0.0320623328	 0.27028
H	 3.1356637383	-0.8147397842	-0.1476801812	 0.227231
