16
gdb 7057	4.96368	0.8235	0.72873	4.0401	71.08	-0.2435	-0.0238	0.2197	1505.8032	0.126469	-383.718727	-383.70885	-383.707906	-383.755398	32.487	
C	 0.0084521898	 1.485479197	-0.036531209	-0.500313
C	 0.0439641496	 0.0306192873	-0.0186757196	 0.106622
C	 0.0836331625	-1.1729598028	 0.0130130763	 0.029195
C	 0.0863674106	-2.6351910558	 0.0092835988	-0.073905
O	-1.1696791129	-3.1781768547	 0.4169866195	-0.417398
C	 0.5054422759	-3.1869071433	-1.3745227522	-0.277016
C	 0.6015164714	-4.6994084442	-1.3892468176	 0.14752
O	 1.4877306742	-5.3126662105	-1.9280030843	-0.242719
H	 0.9325363618	 1.9056805066	 0.37486569	 0.15666
H	-0.1090665537	 1.8710056708	-1.0549546011	 0.152282
H	-0.8245617041	 1.8668319201	 0.5638603975	 0.154916
H	 0.800719097	-2.9969129565	 0.7598072987	 0.126489
H	-1.8591022797	-2.665606419	-0.0196934002	 0.286175
H	-0.2606602495	-2.8868421696	-2.1035112865	 0.122093
H	 1.4595651014	-2.7635825748	-1.6990157925	 0.13164
H	-0.2260899343	-5.2185934004	-0.8614943976	 0.097757
