21
gdb 22272	2.98061	1.01126	0.97198	1.2976	83.09	-0.2262	0.0146	0.2408	1360.3767	0.178738	-420.340336	-420.329514	-420.328569	-420.376919	38.837	
C	-0.2398488794	 1.4943594363	 0.1452356265	-0.315887
N	-0.0747498648	 0.0486777161	 0.163113743	-0.111669
C	 1.1900014906	-0.5038047156	-0.3164265404	-0.281028
C	 0.8321807763	-0.5910457797	 1.1269812023	 0.254862
C	 1.6114974049	 0.2126264437	 2.1560990969	-0.472939
C	 0.2688262524	-1.8805374226	 1.6635449496	 0.314077
C	-0.9289912155	-1.8067900495	 2.5692841619	-0.490602
N	 0.8709073107	-2.948540556	 1.3061863133	-0.17824
O	 0.3066609682	-4.1014281315	 1.8779300071	-0.396045
H	 0.6922415558	 2.0684117324	 0.2623743742	 0.1001
H	-0.6858769027	 1.7791180347	-0.813223604	 0.126744
H	-0.930525683	 1.795774523	 0.939600267	 0.120713
H	 1.1257395137	-1.3827752186	-0.9496276208	 0.123572
H	 1.9769732869	 0.2011322515	-0.5851634923	 0.099002
H	 2.0246942684	 1.1312954669	 1.7351821333	 0.12183
H	 0.982450032	 0.4838034755	 3.0114383554	 0.121526
H	 2.4453271984	-0.3873349924	 2.5334358006	 0.135863
H	-1.5912863589	-1.0041039912	 2.2352956574	 0.138067
H	-1.4703262116	-2.7528664119	 2.5736783413	 0.152002
H	-0.6267706498	-1.5904644804	 3.6012393593	 0.133868
H	 0.8266190074	-4.8005471106	 1.4684450784	 0.304185
