21
gdb 84452	2.79644	1.49493	1.23481	1.879	83.11	-0.2363	0.0137	0.25	1118.8223	0.182736	-387.093223	-387.084674	-387.08373	-387.125946	33.53	
C	 0.0336170282	 1.6609895925	-0.0587150578	-0.403598
C	 0.0126639183	 0.1264292293	-0.0298137631	-0.040827
C	 0.725511348	-0.5320486261	-1.1975306989	-0.07423
C	 1.5085204156	-1.5475857523	-0.8361591545	-0.135209
C	 1.5011109509	-1.7689302565	 0.6585629859	 0.419719
C	 1.178784577	-3.180396192	 1.1047273466	-0.459849
O	 2.724012066	-1.2832279572	 1.2893888383	-0.329528
C	 2.0840245385	-0.0407626994	 1.6464770477	-0.088907
C	 0.6967177498	-0.5432778853	 1.1824598043	-0.142028
H	 1.0540446289	 2.0542518803	-0.085953602	 0.122096
H	-0.4872550383	 2.0355577061	-0.9462410927	 0.115152
H	-0.467910451	 2.0783382624	 0.8206685697	 0.114968
H	-1.0449580019	-0.1779069781	-0.0447497657	 0.081648
H	 0.5802411582	-0.1905570336	-2.2183505252	 0.093041
H	 2.1008854722	-2.162319362	-1.5055960722	 0.095336
H	 1.9514888696	-3.8741366215	 0.7558604777	 0.125125
H	 1.1389906526	-3.2385791805	 2.1961544801	 0.119676
H	 0.2172357206	-3.5069255651	 0.6952726359	 0.118196
H	 2.1871074982	 0.1718433863	 2.7165277854	 0.100313
H	 2.4907686803	 0.8048281335	 1.0783843346	 0.097621
H	 0.0123186382	-0.7435285208	 2.0085087262	 0.071286
