19
gdb 107711	3.48293	1.32666	1.13479	2.5806	76.	-0.2266	0.0801	0.3067	1139.6748	0.157176	-422.926845	-422.91833	-422.917386	-422.95987	32.403	
C	-0.0000278216	 1.3665833229	-0.0047774624	-0.262531
O	-0.0362718758	-0.0446226297	 0.126007805	-0.283185
C	 0.6275399767	-0.521926379	 1.2213761601	 0.4187
C	 0.3458011538	-0.292828886	 2.7286143426	-0.395403
C	 1.5189365045	-1.3009072115	 2.7290735732	 0.30628
C	 2.2384828264	-1.9479073649	 3.8747310215	-0.519853
C	 1.004759894	-2.013324377	 1.4292964415	-0.026574
O	 2.2873967784	-1.9300516223	 0.7425708031	-0.327541
C	 2.1807927729	-0.6661344141	 1.4597560387	-0.037145
H	 1.0312829395	 1.7337193388	-0.0987010228	 0.114665
H	-0.5511911542	 1.6153576546	-0.9135398579	 0.134204
H	-0.4757491712	 1.8647970138	 0.8510719425	 0.115961
H	 0.5620154962	 0.7008380117	 3.1322068842	 0.096907
H	-0.6132966527	-0.6606377747	 3.1052348747	 0.101018
H	 1.552890983	-2.5336022749	 4.4962478243	 0.122456
H	 3.0149741917	-2.6190973048	 3.4935935261	 0.137303
H	 2.7158723717	-1.2007142809	 4.517741544	 0.121228
H	 0.3975038867	-2.9110102072	 1.3128073576	 0.093777
H	 2.9948667199	 0.0549238951	 1.3826674741	 0.089734
