14
gdb 131678	2.71537	1.49412	0.96956	2.2175	67.45	-0.2574	-0.0748	0.1827	1115.6056	0.101805	-470.003387	-469.995578	-469.994634	-470.036178	28.12	
O	-0.0115985137	 1.443830978	 0.0070152484	-0.41941
C	 0.0078679396	 0.0327948251	 0.0020744304	-0.155488
C	-1.3970816615	-0.4820427168	 0.0121509568	 0.087081
C	-2.5059095513	 0.3010147127	 0.0238131931	-0.023521
N	-3.8021152343	-0.1755615607	 0.0331106586	-0.216236
N	-4.006452983	-1.4325199717	 0.0309882116	-0.035361
N	-2.9403338726	-2.2520696996	 0.0195908285	-0.278137
C	-1.5800104073	-1.9205220026	 0.0091044118	 0.425162
O	-0.7139438854	-2.776265175	-0.0004795462	-0.380137
H	 0.8961578207	 1.7589715213	 0.001061306	 0.299942
H	 0.5207964933	-0.3774370293	-0.8831748785	 0.127856
H	 0.5356321545	-0.3834435118	 0.8757102379	 0.127871
H	-2.4231988048	 1.3805826055	 0.0265131779	 0.157288
H	-3.1784007241	-3.2366132252	 0.0186491239	 0.28309
