18
gdb 12260	3.8164	1.42939	1.15579	3.3705	68.41	-0.2453	-0.0277	0.2176	1063.6436	0.152822	-384.95084	-384.942322	-384.941378	-384.984099	30.927	
C	 0.2054113816	 1.626307801	 0.061160835	-0.407329
C	 0.1053976183	 0.1079850136	 0.0297186685	-0.075918
C	 0.5776140389	-0.7072681655	-1.2238904165	-0.284769
C	 1.3154232947	-1.7279673286	-0.29950273	-0.111558
C	 2.774747915	-2.1136844048	-0.5454586145	-0.077289
O	 3.3173174468	-2.765918718	 0.5839049616	-0.422386
C	 1.1286355121	-0.7089024865	 0.8280453517	 0.387754
O	 1.7354997651	-0.5188364013	 1.850216956	-0.327246
H	 1.2061403803	 1.9601947678	-0.2313357708	 0.122874
H	-0.517896282	 2.0837334704	-0.6209372125	 0.12245
H	 0.0100820005	 2.0041267655	 1.0690727651	 0.137106
H	-0.9020090457	-0.2171440601	 0.3208976393	 0.107892
H	-0.2066055395	-1.1089915935	-1.8659508724	 0.11203
H	 1.2796088117	-0.1322708782	-1.8352406808	 0.113567
H	 0.7208762871	-2.6298108949	-0.116690938	 0.110288
H	 2.8588540051	-2.8080754646	-1.3882853914	 0.11085
H	 3.3490487476	-1.2094241415	-0.8089953097	 0.08456
H	 3.1900920424	-2.1693284207	 1.3339803193	 0.297123
