22
gdb 94706	3.16032	1.21995	1.05006	2.3241	81.88	-0.216	0.0724	0.2885	1234.085	0.195124	-404.33448	-404.325643	-404.324699	-404.367431	35.11	
C	 0.0135250343	 1.5294334701	 0.0277835764	-0.447896
C	-0.0829144535	 0.0170736474	 0.0159093914	 0.34164
C	-0.8691536762	-0.6641762868	 1.0796663386	-0.285633
N	 0.5938743661	-0.6419506146	 1.1499405654	-0.133615
C	 1.3020127578	-1.9179538682	 0.9590359186	-0.15108
C	 1.5852291062	-2.3048169114	-0.4959761049	 0.125812
O	 2.0128096039	-3.6596554178	-0.4591707078	-0.43524
C	 0.3467854279	-2.0912542143	-1.3658791292	-0.246919
C	-0.0145619106	-0.6014407189	-1.3766998741	-0.278072
H	 0.9621019685	 1.863451244	-0.408176502	 0.113459
H	-0.7996626445	 1.9763978479	-0.5563413382	 0.110484
H	-0.0413404466	 1.91133053	 1.0498440166	 0.124287
H	-1.3865568174	-0.080978136	 1.8390271719	 0.103896
H	-1.3538698004	-1.6086224284	 0.8374695301	 0.10296
H	 2.2512283864	-1.8650778733	 1.5028343611	 0.108678
H	 0.7253823297	-2.7354792858	 1.4083046919	 0.110464
H	 2.3931325153	-1.6614244607	-0.8853938587	 0.064186
H	 2.2633804338	-3.9170922513	-1.3520985735	 0.279767
H	 0.5419464986	-2.4314258728	-2.390632004	 0.084425
H	-0.4746140569	-2.7075552113	-0.9818131015	 0.105902
H	-0.9619524182	-0.4310824309	-1.9019238138	 0.103462
H	 0.7512298258	-0.061229757	-1.9499937843	 0.099032
