17
gdb 74656	4.6453	1.40883	1.24038	2.1837	72.83	-0.2403	0.0126	0.2529	1016.7191	0.138472	-417.96083	-417.954009	-417.953065	-417.991955	27.269	
C	 0.0053247011	 1.473029478	 0.0627198024	-0.466364
C	-0.0086578916	-0.0168045846	-0.0586538795	 0.400519
N	-0.0303483483	-0.6377034322	-1.1671879729	-0.332086
C	-0.0404473128	-2.0775395841	-1.0627471687	 0.067038
C	-0.9503379671	-2.7222484129	 0.029649931	-0.099741
N	-0.0396251703	-3.9241144717	-0.012667619	-0.317941
C	 0.8913159155	-2.7371820928	 0.0019438587	-0.09974
C	-0.0081985902	-2.0528262186	 1.0675572548	 0.117519
O	 0.0046445309	-0.6352031079	 1.1575195745	-0.273433
H	 0.897405455	 1.802124467	 0.6053216631	 0.141341
H	-0.006025829	 1.9185688943	-0.9311455386	 0.149995
H	-0.864510848	 1.8164803244	 0.6318873412	 0.141337
H	-0.0590420285	-2.5684281361	-2.0344895012	 0.093714
H	-2.0369431869	-2.8010589763	 0.0409086345	 0.089632
H	-0.0294583532	-4.3777974355	 0.9078101157	 0.209908
H	 1.9763474265	-2.8336023691	-0.0194677537	 0.089632
H	 0.0039029271	-2.448589662	 2.0850215478	 0.08867
