17
gdb 12396	3.08725	2.21072	1.36435	5.0219	65.47	-0.2397	0.0551	0.2949	901.2902	0.144105	-401.049534	-401.041881	-401.040937	-401.081765	27.652	
C	-0.061214885	 1.4421126011	 0.0551577655	-0.337378
N	 0.0123290538	-0.0060190641	-0.0275997067	-0.149721
C	-1.2618761337	-0.7083069262	-0.0996289565	-0.14328
C	-1.0610512124	-2.1617519517	-0.5070175441	-0.237555
C	 0.1114600705	-2.7088146466	 0.2849446591	-0.067388
O	 1.2943051179	-1.9601288006	-0.0003168754	-0.247257
C	 1.2538266431	-0.5982423461	-0.0185135438	 0.476678
O	 2.29438231	 0.0151412373	-0.0406912648	-0.396437
H	 0.950610967	 1.8357563168	 0.1258778911	 0.17407
H	-0.5508113486	 1.8574309936	-0.8350701188	 0.119757
H	-0.6382588377	 1.7499186909	 0.937059648	 0.117699
H	-1.7733597757	-0.6546555221	 0.8746970669	 0.106943
H	-1.9063418331	-0.1887115291	-0.820494772	 0.111894
H	-1.9692526605	-2.7396552819	-0.3124083867	 0.112829
H	-0.8356909828	-2.2333978697	-1.5762922828	 0.124711
H	-0.0946689482	-2.6721016212	 1.3640699338	 0.110569
H	 0.3496350253	-3.7413630106	 0.0194492172	 0.123868
