19
gdb 97924	4.20107	0.64337	0.61913	2.6631	80.79	-0.2507	0.0321	0.2828	1837.7041	0.156231	-422.97232	-422.961982	-422.961038	-423.009676	36.175	
C	-0.359570524	 1.5276806736	-0.5164007868	-0.459226
C	-0.1118990141	 0.0924166808	-0.1140776483	 0.427351
C	-1.2875451564	-0.64766173	 0.5257961007	-0.421259
C	-1.8131759461	 0.00991634	 1.7182237801	 0.039806
C	-2.2250162845	 0.5690342781	 2.7029231826	 0.080796
C	-2.7782827044	 1.2271942824	 3.8858618616	-0.193852
O	-3.9208270561	 2.0273699983	 3.6104097445	-0.402598
C	 0.9178663777	-0.7034077194	-0.7969795445	-0.23102
O	 1.1524455832	-0.1629732121	 0.5066275533	-0.264694
H	 0.5503091701	 1.9686692931	-0.9296428362	 0.126866
H	-1.1527609162	 1.588565308	-1.2696917197	 0.118868
H	-0.6722945419	 2.1174501028	 0.3499590275	 0.144725
H	-2.089304667	-0.7476462395	-0.2188633595	 0.130791
H	-0.9624305622	-1.6638162344	 0.7763001098	 0.136122
H	-2.9971398068	 0.4687000898	 4.6546455904	 0.117456
H	-2.0370744095	 1.9079238129	 4.3190171512	 0.141882
H	-4.5464071991	 1.4766563722	 3.1283661099	 0.286002
H	 0.8280593989	-1.7885333161	-0.8442733867	 0.109367
H	 1.4980131984	-0.2545271902	-1.6023455599	 0.112617
