18
gdb 82671	2.72106	1.58533	1.21773	4.5071	80.94	-0.2674	0.022	0.2894	1057.2137	0.148893	-364.785113	-364.77746	-364.776516	-364.817083	30.085	
C	-0.0079637511	 1.6140713245	-0.04892714	-0.428994
C	 0.0908875897	 0.0969773942	 0.0057397865	-0.034482
C	 1.1210379078	-0.6931777162	-0.8585311215	-0.09779
C	 2.5165424825	-0.1404846989	-0.4518991446	-0.241622
C	 2.2556494946	-0.778466192	 0.9089569758	-0.105154
C	 1.2574955734	-1.734862427	 0.3254756685	-0.122714
C	 0.7399528821	-0.6073665322	 1.208168704	 0.230183
C	 0.2330729595	-0.6992317752	 2.5351191407	 0.164589
N	-0.1970075711	-0.7591066274	 3.6088547839	-0.35549
H	 0.950398778	 2.1014034769	 0.1479817026	 0.123395
H	-0.3625068503	 1.9439469078	-1.0316015935	 0.120287
H	-0.7207638941	 1.9754864097	 0.6995804444	 0.134107
H	-0.8978239635	-0.3485292029	-0.1476770371	 0.090769
H	 0.8951848075	-0.9312803056	-1.8950779236	 0.082117
H	 3.3150830849	-0.6759718226	-0.9721554906	 0.112859
H	 2.6929257166	 0.9365138862	-0.5216776522	 0.102754
H	 2.942190232	-0.9500488426	 1.7275412728	 0.110313
H	 1.1188482316	-2.8017894166	 0.4167418838	 0.114871
