17
gdb 83030	2.65983	1.5229	1.23625	3.5296	74.3	-0.2468	-0.0736	0.1732	1054.3186	0.136204	-417.998861	-417.990836	-417.989892	-418.031654	29.738	
C	 0.1956402782	 1.7140784253	 0.010175517	-0.428907
C	 0.0849011463	 0.208769361	-0.0084526121	 0.000348
C	 0.6084606321	-0.658554782	-1.0961486	-0.063155
C	 1.67189003	-0.1189784156	-2.0552892298	-0.202736
N	 2.8246564129	 0.2211457752	-1.2044325763	-0.235129
C	 2.5029227164	-0.081909991	-0.0033783143	 0.227225
C	 3.4451870577	 0.2025592075	 1.1171920318	 0.115975
O	 3.1728567064	 0.0548349021	 2.2807313311	-0.240622
N	 1.2488300851	-0.6984146656	 0.2491028668	-0.161704
H	 1.0814944496	 2.0853662837	-0.5095564177	 0.138949
H	-0.6859419145	 2.1471441208	-0.4742056103	 0.130299
H	 0.2249107405	 2.0828789292	 1.040382392	 0.142714
H	-0.7986888094	-0.1646050731	 0.504375031	 0.108799
H	 0.0519193125	-1.5457932875	-1.3814325607	 0.105473
H	 1.9733717457	-0.8764793127	-2.7876233954	 0.132127
H	 1.3667075833	 0.7670497784	-2.6250370629	 0.127515
H	 4.4228920271	 0.5896208844	 0.7672703397	 0.102829
