21
gdb 73163	2.40468	1.38944	1.26473	0.7431	88.3	-0.25	0.0474	0.2974	1150.6701	0.18174	-349.904217	-349.895328	-349.894384	-349.937514	34.939	
C	-0.3290719822	 1.3268554596	-0.2139928526	-0.501076
C	 0.0132454419	-0.1229028575	 0.0436627486	 0.374872
C	-1.1510438712	-1.0578567914	 0.4969225979	-0.291976
C	-0.3841647208	-1.3892247204	 1.8124138958	-0.219449
C	 0.8548251162	-0.6422942662	 1.2721628852	-0.065373
C	 1.7345684297	-1.4765348282	 0.3011729045	-0.25196
C	 1.0375433933	-0.8010652273	-0.9308822846	-0.216171
C	 0.5457442389	-1.6383424526	-2.0051769334	 0.326579
C	 0.1194737194	-2.3477136452	-2.8793485869	-0.469696
H	 0.5720808894	 1.9379974965	-0.3404145792	 0.111137
H	-0.932129103	 1.4284251382	-1.124868964	 0.123826
H	-0.9078096699	 1.7510246344	 0.6143681616	 0.114315
H	-2.1036776784	-0.5417799408	 0.6405399299	 0.097578
H	-1.3226466913	-1.9062194252	-0.1698914004	 0.113894
H	-0.8230667675	-0.8984442625	 2.6854131214	 0.098006
H	-0.2439898443	-2.4477566258	 2.051135001	 0.095366
H	 1.3892085603	 0.0285167834	 1.9475154241	 0.060161
H	 2.8091108722	-1.2920323527	 0.3569979803	 0.105267
H	 1.5656855094	-2.5544637818	 0.3638328608	 0.10724
H	 1.694123334	-0.0279340343	-1.3462411053	 0.0949
H	-0.2472673761	-2.9682936503	-3.6588196148	 0.192562
