17
gdb 20884	6.81815	1.10424	1.01811	3.3283	69.71	-0.2596	0.0115	0.2712	1170.793	0.144556	-360.07571	-360.068029	-360.067085	-360.108652	27.143	
C	-0.0117088676	 1.5331030228	-0.0268298952	-0.382449
C	 0.127289108	 0.0097763118	-0.064331078	-0.172203
C	 0.6342723731	-0.5514107509	 1.2676213795	-0.146725
N	 0.7400516397	-2.0008912335	 1.2609863598	 0.055204
C	 1.8372450449	-2.7846799022	 1.2706460461	 0.012309
N	 1.4999890197	-4.0614151968	 1.2289280298	-0.278084
C	 0.141816178	-3.9997153701	 1.1916813578	 0.038982
N	-0.3691835834	-2.7782079604	 1.2086209084	-0.254261
H	 0.9487764954	 2.019595374	 0.1770284737	 0.116956
H	-0.3800017849	 1.9146164536	-0.9830636837	 0.124537
H	-0.7158415487	 1.8492459466	 0.7505129949	 0.122807
H	-0.8365280868	-0.4579420607	-0.2882347061	 0.133936
H	 0.8175047107	-0.2901914612	-0.8616641715	 0.107553
H	 1.6281043377	-0.1579235206	 1.5038116976	 0.121038
H	-0.0393275612	-0.2661733163	 2.0821716354	 0.134286
H	 2.839996308	-2.3859055478	 1.3130724789	 0.140026
H	-0.4885806026	-4.8757332283	 1.1551576327	 0.126088
