18
gdb 67001	2.53565	2.00774	1.39111	2.4692	75.28	-0.219	-0.0139	0.2051	960.0743	0.148688	-401.930352	-401.922915	-401.921971	-401.96201	29.46	
C	 0.0216318911	 1.4651969422	-0.0242166116	-0.488907
C	 0.0171409134	-0.0412439154	 0.0141496782	 0.215785
C	-0.3509758998	-0.7963161887	-1.2874258132	-0.11092
C	-0.0612272504	-2.2777725881	-1.1457356959	-0.19667
N	-0.7428088232	-2.2730213887	 0.206981638	-0.129874
C	 0.2813293469	-2.1116603733	 1.2511508872	-0.287648
C	 0.9327802536	-0.7432095139	 0.9776655452	 0.334874
O	 1.9319835868	-0.2910142603	 1.4797295211	-0.328278
C	-1.2344533152	-0.8840279077	-0.0823352571	-0.090808
H	 1.0135976753	 1.8327702268	-0.3034566746	 0.142331
H	-0.7037251074	 1.8501013157	-0.7473943549	 0.117098
H	-0.2196245893	 1.8846438347	 0.9574106814	 0.130964
H	-0.4923915582	-0.2286653342	-2.2000520159	 0.098951
H	-0.6325892711	-2.8919115962	-1.8476500078	 0.117913
H	 0.9823434858	-2.6123569005	-1.137693126	 0.109922
H	-0.1954607243	-2.0874668165	 2.2390945846	 0.131165
H	 1.0059764349	-2.9294367199	 1.2457840708	 0.131841
H	-2.247391919	-0.5624446561	 0.1258457305	 0.102261
