19
gdb 109154	3.0653	1.14073	0.87802	2.0414	79.01	-0.235	-0.037	0.1979	1333.0363	0.158514	-423.066655	-423.057297	-423.056352	-423.101394	33.799	
C	-0.1510800668	 1.5438083617	 0.0389204299	-0.397187
C	 0.0675310778	 0.0300811517	-0.0227039441	-0.086367
C	 0.8482442576	-0.4903563145	-1.250624543	-0.289662
C	 1.9488427243	-1.3408053554	-0.6690783897	-0.144784
C	 1.9691487127	-1.3363848337	 0.6703073981	 0.191781
C	 2.9165921418	-2.0286726434	 1.5915289781	-0.176993
O	 3.8696367403	-2.7486771348	 0.8297545827	-0.422456
C	 0.8767344722	-0.4793214354	 1.183641059	 0.321089
O	 0.6570284435	-0.2152142163	 2.3465588852	-0.349523
H	 0.7986161796	 2.080852141	-0.0613177477	 0.117688
H	-0.8166362008	 1.8825527097	-0.7606940738	 0.11331
H	-0.5915288545	 1.8169270828	 1.0015405364	 0.139558
H	-0.9095680476	-0.4665252587	 0.0328180992	 0.10526
H	 0.2210405262	-1.0652648783	-1.942522604	 0.115995
H	 1.2697155164	 0.3336994027	-1.8419081326	 0.118328
H	 2.6544027818	-1.8855108066	-1.2854495692	 0.126312
H	 3.3919306087	-1.2758631207	 2.2414186197	 0.113759
H	 2.3437168844	-2.6894040526	 2.2628555042	 0.111684
H	 4.4698367525	-3.1862503493	 1.4398351316	 0.292207
