14
gdb 49371	2.32424	1.55547	1.04422	1.4914	69.99	-0.2636	-0.0423	0.2213	1101.1884	0.098133	-436.644089	-436.635556	-436.634612	-436.678095	30.147	
N	 0.0021815714	 1.2711745245	-0.4952812238	-0.538307
C	 0.0169547508	 0.0871107427	-0.0907057428	 0.434241
O	 1.026529675	-0.6862541323	 0.4370288063	-0.252281
C	 0.1173461174	-1.833024913	 0.6548196613	-0.089005
C	 0.0447521933	-2.2218011483	 2.0443921066	 0.38484
C	 0.0213700523	-2.5596420667	 3.1962406977	-0.446119
C	-1.0363078172	-0.9934688394	 0.0233052422	-0.25466
C	-2.2957901038	-0.6669181314	 0.8039281457	 0.135304
O	-2.8619963994	-1.4447493169	 1.5225231112	-0.22812
H	 0.9152013577	 1.7191381612	-0.4046439729	 0.238062
H	 0.4409786483	-2.6693675078	 0.0297594521	 0.131333
H	-0.0191407013	-2.8542704912	 4.2162890098	 0.21521
H	-1.3470661727	-1.3714485563	-0.9570543122	 0.150641
H	-2.6711369017	 0.363105085	 0.6272429288	 0.118861
