20
gdb 12527	3.30201	1.77228	1.21914	0.1154	82.36	-0.2308	0.023	0.2538	1036.1852	0.178486	-311.88133	-311.873386	-311.872442	-311.914051	30.54	
C	-0.3657092646	 1.4938208375	 0.0725101288	-0.400721
C	 0.1014011134	 0.0301096565	 0.0474403944	-0.023486
C	 0.6150786116	-0.3436874326	-1.359125378	-0.237696
C	 0.852494458	-1.8116694467	-1.6032494682	-0.074465
C	 1.4050692429	-2.7147801506	-0.7946552636	-0.034469
C	 2.0058416455	-2.5627888725	 0.5748014558	-0.3054
C	 1.9041140744	-1.2701174735	 1.3358307842	-0.06745
C	 1.1207468968	-0.2107699405	 1.1393112986	-0.038909
H	 0.4661700363	 2.1742483698	-0.1442714059	 0.115611
H	-1.1482551467	 1.6727441575	-0.6714632192	 0.108649
H	-0.7675146988	 1.7622570879	 1.0549191473	 0.112094
H	-0.7751093986	-0.6028787064	 0.2474547074	 0.088812
H	-0.1165394501	 0.0111498919	-2.0952287784	 0.092009
H	 1.5342886238	 0.2255488134	-1.557787288	 0.109796
H	 0.5250676203	-2.1694702361	-2.5778025352	 0.079954
H	 1.4815353467	-3.7331574619	-1.1743596196	 0.08095
H	 1.6023056409	-3.3620763523	 1.2197187328	 0.119423
H	 3.0734997858	-2.8260551314	 0.4940559398	 0.118194
H	 2.5602316973	-1.239912951	 2.2050309342	 0.081859
H	 1.2092826051	 0.5988665109	 1.8627821129	 0.075245
