15
gdb 1254	6.60578	1.40165	1.2301	5.3405	55.11	-0.2709	0.0142	0.2851	945.3283	0.122847	-382.810709	-382.802647	-382.801703	-382.843261	27.823	
C	 0.1996669671	 1.3599890719	 0.0826816536	-0.417173
C	-0.1582701361	-0.1028236326	-0.1693101772	 0.132389
O	 0.4763447435	-0.9792422371	 0.7540937572	-0.423373
C	-1.6730911479	-0.3244591511	-0.1617642947	-0.0953
O	-1.9962883709	-1.6539200999	-0.5629398572	-0.176098
C	-2.0646554739	-2.5991671763	 0.3974116433	 0.191043
O	-2.2284327316	-3.7548861873	 0.1503629269	-0.277004
H	 1.285503304	 1.4820488783	 0.0934955975	 0.138733
H	-0.2140750018	 2.0120934894	-0.6928021857	 0.128329
H	-0.1928129263	 1.7006978658	 1.0495432384	 0.113157
H	 0.2165312965	-0.4136949407	-1.150951605	 0.112774
H	 0.3586879276	-0.6183107428	 1.6402281339	 0.281214
H	-2.0802901179	-0.1149021169	 0.8384958124	 0.100895
H	-2.169221163	 0.3376149389	-0.8766418983	 0.125383
H	-1.9817477294	-2.1808697696	 1.4176047449	 0.06503
