16
gdb 25701	3.56521	0.96742	0.76524	1.9721	84.48	-0.197	0.0037	0.2007	1449.6115	0.124236	-400.752834	-400.743791	-400.742847	-400.787754	32.409	
C	-0.0948593431	 1.4426387355	 0.0099587756	-0.510107
C	-0.0353812672	-0.0109020051	-0.0014538999	 0.209799
C	 0.0352807316	-1.2164969817	-0.0034334511	-0.147913
C	 0.0541071601	-2.6286402067	-0.0103343747	 0.127158
C	 1.1286774545	-3.4729798133	-0.0842338282	-0.134978
O	 0.7349835567	-4.7581915363	-0.078071875	-0.144989
C	-0.6368676587	-4.7645822095	 0.0047447156	-0.074169
C	-1.1116088425	-3.4895066451	 0.0505200399	 0.089453
N	-2.4182582877	-3.0273425292	 0.2007899701	-0.622052
H	 0.8874919913	 1.8734383335	 0.2332971701	 0.152562
H	-0.4177519349	 1.8420579379	-0.9584645649	 0.147379
H	-0.7950254555	 1.8076329423	 0.7698963463	 0.149971
H	 2.1884318555	-3.2912296712	-0.1499998625	 0.138142
H	-1.1035870734	-5.7340317777	 0.0252918998	 0.125396
H	-3.1190712885	-3.6301286414	-0.2074682967	 0.2453
H	-2.5271534782	-2.0784451621	-0.1336386842	 0.249046
