23
gdb 72650	1.9311	1.81911	1.53615	1.5109	84.09	-0.2465	0.0778	0.3243	1073.1633	0.206296	-388.298451	-388.289547	-388.288603	-388.331679	35.275	
C	-0.3303968101	 1.5044069782	 0.0949350391	-0.486334
C	-0.0088454214	 0.0219001259	-0.001612122	 0.295633
C	 1.1765089961	-0.3606451019	-0.9381561953	-0.26449
C	 1.9025633809	-1.0673861456	 0.2363069563	-0.264489
C	 0.7359163455	-0.7031539946	 1.2031501723	 0.295626
C	 1.1191487965	 0.0931299751	 2.4399241296	-0.486331
C	-0.1894333537	-1.8903580777	 1.5035450173	-0.137292
O	-0.9131577456	-2.1413636485	 0.3062392449	-0.254772
C	-1.2481100603	-0.8596792686	-0.2089428825	-0.137298
H	 0.5671810111	 2.0998303638	 0.2908596603	 0.114853
H	-0.7616048878	 1.8684445843	-0.8456377537	 0.116604
H	-1.0526356526	 1.7138658575	 0.8919446992	 0.113344
H	 0.9019788954	-1.0172987441	-1.7679784103	 0.100954
H	 1.7102445693	 0.5023587625	-1.3454753332	 0.092643
H	 2.056533239	-2.1410410717	 0.0994674919	 0.10095
H	 2.8592031954	-0.6160116407	 0.5131832153	 0.092644
H	 1.7385299802	 0.9593936569	 2.1859253132	 0.114853
H	 0.2377785698	 0.4574234699	 2.9795564631	 0.113343
H	 1.6988428395	-0.5269733006	 3.134595453	 0.116604
H	 0.3435838289	-2.8075498083	 1.7723495117	 0.103931
H	-0.8815197297	-1.6354462232	 2.3255033623	 0.077547
H	-2.1107741691	-0.4386736346	 0.3370837644	 0.077547
H	-1.5304581374	-0.9830887339	-1.2590161369	 0.103931
