27
gdb 118472	1.76638	1.16322	0.7538	0.8219	93.32	-0.2404	0.0839	0.3243	1663.5981	0.248854	-390.702057	-390.689885	-390.68894	-390.740075	43.857	
C	 0.5467427967	 1.4515659415	 0.0345370097	-0.388103
C	 0.7345937304	-0.0524470331	 0.1490734697	-0.037205
O	 0.7663948263	-0.595947229	-1.1576871588	-0.267672
C	 0.9344705881	-2.0146851023	-1.2390975857	 0.131899
C	-0.317440508	-2.6152611474	-1.8933398502	-0.176147
C	-1.6159673932	-2.2849378153	-1.153073249	-0.389675
C	 2.2355917585	-2.3158634826	-2.0148582495	 0.041619
C	 3.4400333148	-1.6166923457	-1.3697709214	-0.398632
C	 2.5036898528	-3.8226369838	-2.1481127326	-0.398168
H	 1.3690118547	 1.9001234754	-0.5305545451	 0.125061
H	-0.3882262091	 1.683708405	-0.4837344934	 0.124981
H	 0.5168795362	 1.9093441444	 1.028012343	 0.112203
H	 1.6700017267	-0.2804093022	 0.6846822221	 0.086215
H	-0.088038548	-0.4957511653	 0.7322353048	 0.086979
H	 1.0356427976	-2.4260694615	-0.2209321952	 0.059894
H	-0.3773846787	-2.2428302659	-2.9241619878	 0.099001
H	-0.2028401602	-3.7023382046	-1.9571696582	 0.095572
H	-1.6001090651	-2.6692739099	-0.1265707322	 0.1073
H	-1.7729856978	-1.2041283795	-1.1084825893	 0.128117
H	-2.4783837882	-2.7305289262	-1.6584548284	 0.108249
H	 2.1027141261	-1.895911953	-3.0217583151	 0.076601
H	 4.3458522478	-1.7806896057	-1.9626071621	 0.105768
H	 3.2745003699	-0.5401376149	-1.2930192406	 0.125559
H	 3.6314521132	-2.0091843356	-0.3631321692	 0.103746
H	 1.7373248498	-4.3357391184	-2.7344598887	 0.116098
H	 3.4653263752	-3.9959277273	-2.6419271886	 0.11098
H	 2.5513526033	-4.3028324071	-1.1627224985	 0.109761
