23
gdb 84397	2.99497	1.33626	1.06206	0.3308	91.17	-0.235	0.0259	0.2609	1243.0207	0.207096	-351.168001	-351.159218	-351.158274	-351.200993	35.173	
C	 0.3994541576	 1.5986633927	-0.0389038878	-0.387242
C	 0.0109889362	 0.1104142225	 0.0084007328	-0.048432
C	 0.3738924956	-0.5979279515	-1.2728730335	-0.067076
C	 0.7954159151	-1.8592679319	-1.3492621799	-0.067072
C	 0.9761602638	-2.777711715	-0.1665103146	-0.048431
C	 2.1769457639	-3.7202114101	-0.3610244266	-0.387242
C	 1.069104177	-2.012226763	 1.1471465731	-0.03433
C	 2.0690561956	-0.8909742658	 1.3051274711	-0.290869
C	 0.5917117124	-0.5837031123	 1.2336598504	-0.034329
H	 1.4837074038	 1.7166238196	-0.1338044476	 0.118781
H	-0.0719410293	 2.1013334618	-0.8903827237	 0.107635
H	 0.0838413341	 2.114985027	 0.873543685	 0.109083
H	-1.0863751852	 0.0684804378	 0.102747272	 0.083073
H	 0.2559582025	-0.0191916052	-2.1872264862	 0.079192
H	 1.0147244988	-2.2896748972	-2.3247314724	 0.079192
H	 0.0768486951	-3.4122900297	-0.108056549	 0.083073
H	 3.1113085707	-3.1537290046	-0.4287726286	 0.11878
H	 2.2670631773	-4.4179501784	 0.4779032372	 0.109083
H	 2.0702713795	-4.3089344995	-1.2785932913	 0.107635
H	 0.9076593077	-2.6298567517	 2.0267684603	 0.075968
H	 2.5762589977	-0.779120749	 2.2570149503	 0.103583
H	 2.675482467	-0.6360402435	 0.4419470618	 0.11398
H	 0.124408863	-0.286092943	 2.1687119271	 0.075968
