15
gdb 27217	3.39138	1.65601	1.12047	3.1179	74.61	-0.1943	0.0005	0.1949	1022.4126	0.115374	-416.848833	-416.841638	-416.840694	-416.880645	27.314	
C	-0.0212253454	 1.5330810304	 0.0702065509	-0.510824
C	 0.0079806593	 0.0474988114	-0.0530186119	 0.142296
C	-0.0027742414	-0.820320192	-1.1149601855	 0.256735
O	-0.0415539174	-0.8216035948	-2.4854501154	-0.231362
C	-0.0199552358	-2.1702098662	-2.7808023891	 0.036509
N	 0.0264092894	-2.997784977	-1.7947140969	-0.347054
C	 0.0394329044	-2.1592575142	-0.6753167069	 0.222453
C	 0.0779480344	-2.1410163109	 0.7021387465	-0.214934
N	 0.058177709	-0.8033806354	 1.0463892832	-0.295311
H	 0.8715617926	 1.9265701143	 0.572165032	 0.13041
H	-0.0630790006	 1.98163712	-0.9247907933	 0.146638
H	-0.8968766255	 1.8868897336	 0.6286660717	 0.130311
H	-0.0445891509	-2.4055086405	-3.8343851275	 0.143339
H	 0.1161367614	-2.9127336164	 1.4513681897	 0.129993
H	 0.0776324765	-0.4716470522	 1.9955195823	 0.260799
