19
gdb 115032	2.07053	1.52608	0.97234	0.7732	82.23	-0.2411	0.02	0.261	1225.5944	0.158638	-385.858718	-385.849682	-385.848738	-385.892521	34.151	
O	-0.0748954586	 1.3966942996	-0.3401652148	-0.424614
C	-0.018200648	-0.0200368759	-0.4598731014	-0.092339
C	-1.3331360693	-0.5768922069	 0.0847478498	-0.004367
C	-2.5368114306	-0.0781144391	-0.7608015444	-0.267048
C	-2.8306829962	-1.2369535574	-1.6804397485	-0.074971
C	-2.2214923046	-2.3535961361	-1.2941034751	-0.06208
C	-1.4138068637	-2.1416338258	-0.0193463667	-0.225685
C	-0.1413817561	-2.8577025023	 0.0079870153	 0.32567
C	 0.8904576139	-3.4753010374	 0.029147643	-0.474212
H	 0.7353825526	 1.758579882	-0.7095473987	 0.286451
H	 0.108787214	-0.3281202696	-1.5096390569	 0.093801
H	 0.8239713567	-0.4331447534	 0.1104124395	 0.100539
H	-1.4173037107	-0.2564375125	 1.126627462	 0.084287
H	-3.4079561829	 0.1451963889	-0.1296279746	 0.104171
H	-2.2908012251	 0.8503585438	-1.2845519923	 0.123622
H	-3.4942132051	-1.1553856997	-2.5344618607	 0.095374
H	-2.2910939276	-3.3261631553	-1.7658319593	 0.103368
H	-2.0068654845	-2.5124341091	 0.8312749637	 0.114448
H	 1.8033491358	-4.0172215339	 0.0483813001	 0.193584
