18
gdb 64976	3.50634	1.01311	0.85495	2.1493	75.47	-0.2757	-0.0262	0.2495	1350.8662	0.145629	-439.102779	-439.093487	-439.092543	-439.138157	33.559	
C	-0.1296581915	 1.4360045056	-0.232636043	-0.469668
C	-0.0478622172	-0.069190678	-0.062222376	 0.255419
C	 1.3333895543	-0.724098906	-0.0702285608	-0.276586
C	 0.5674339913	-0.6283405062	 1.2092406109	-0.284846
C	-1.1328047149	-0.8887412756	-0.6690715665	 0.350697
N	-1.324378424	-2.1090756718	-0.39970037	-0.507274
O	-1.8636747598	-0.1568588664	-1.6089514132	-0.200967
C	-3.2154745598	-0.3242975076	-1.6723827239	 0.150928
O	-3.8705558527	 0.155805399	-2.5424821334	-0.25125
H	 0.7265434775	 1.9102227615	 0.2549689216	 0.116387
H	-0.1241772983	 1.7251761353	-1.2866363516	 0.138038
H	-1.0387311217	 1.8447977268	 0.2208804979	 0.122174
H	 1.4074763919	-1.6972937817	-0.5404453749	 0.13538
H	 2.1802996163	-0.0650654168	-0.2276104947	 0.119697
H	 0.8826028728	 0.0988055604	 1.9495384578	 0.116187
H	 0.1287530273	-1.5371006649	 1.6014354143	 0.146156
H	-2.0451431632	-2.5420207298	-0.9734657704	 0.233007
H	-3.6063679184	-0.9153612136	-0.827019724	 0.106522
