20
gdb 61870	2.40012	0.93463	0.77138	3.4023	77.83	-0.2457	-0.0207	0.2249	1541.9487	0.167306	-440.313054	-440.302371	-440.301426	-440.350132	36.953	
C	-0.0434094937	 1.568150488	-0.0730535945	-0.406077
C	 0.0556811152	 0.0466940482	-0.075151535	 0.128261
C	 0.7277254109	-0.5013644253	 1.188195799	-0.285697
C	 0.9642387842	-1.9961412715	 1.1434750166	 0.155549
O	 1.9865158837	-2.5328291083	 1.4867342902	-0.240836
O	-1.2648259925	-0.5436369781	-0.1004967397	-0.261
C	-1.8842898544	-0.6716257517	-1.2960057212	 0.397853
C	-3.2303590896	-1.323142258	-1.1061690035	-0.461499
N	-1.3399491602	-0.277903681	-2.3730634658	-0.517509
H	 0.9568084946	 2.0103563991	-0.0328718386	 0.121621
H	-0.5353732985	 1.9114009297	-0.9847215256	 0.146635
H	-0.6104555631	 1.9161706334	 0.7963274345	 0.118024
H	 0.587203826	-0.2822468215	-0.9731414313	 0.120915
H	 1.6843524691	-0.0031263904	 1.3659497007	 0.124305
H	 0.0712162407	-0.2911571597	 2.0446370912	 0.129218
H	 0.101599471	-2.5891739915	 0.7683168294	 0.083219
H	-3.8424878194	-0.7282384049	-0.4215984656	 0.147985
H	-3.7536683542	-1.4250097577	-2.0579536896	 0.128917
H	-3.1104883216	-2.3127337233	-0.6546083122	 0.147719
H	-1.9425023982	-0.4681072456	-3.1698480192	 0.222396
