21
gdb 91492	2.52434	1.81604	1.4673	1.8529	82.44	-0.2323	0.0587	0.291	1008.9802	0.183806	-386.989249	-386.981723	-386.980779	-387.020601	31.65	
C	-0.0162851896	 1.4944058454	 0.1384248002	-0.417803
C	 0.0952831618	-0.0165952611	-0.0613360526	 0.014272
C	 1.0980808395	-0.462264644	-1.1678650392	-0.231964
C	 2.0558159975	-1.2241920349	-0.2528331445	-0.003712
O	 2.2053503975	-0.2723769908	 0.8991655721	-0.379056
C	 0.7910269182	-0.7136330768	 1.1434532033	 0.40597
C	-0.1636548552	-1.2933859831	 2.2194828361	-0.336862
C	-0.2609687725	-2.5430884467	 1.2097283394	-0.300248
C	 1.1673923533	-2.0830969851	 0.7262781498	-0.002388
H	 0.9680870177	 1.9215075167	 0.3471889793	 0.135489
H	-0.4196037201	 1.9793023693	-0.7566377635	 0.109018
H	-0.6814910226	 1.7372005097	 0.9749766038	 0.108149
H	-0.902765264	-0.4270743958	-0.2402045131	 0.065571
H	 0.6529797251	-1.0952882784	-1.9409558468	 0.09635
H	 1.5952309858	 0.3825481482	-1.651279341	 0.104476
H	 3.017582855	-1.5722995877	-0.631835068	 0.08036
H	 0.3375748553	-1.5903961553	 3.1424609791	 0.122524
H	-1.0789303398	-0.7423696162	 2.4530683809	 0.104244
H	-0.3136008406	-3.5324463247	 1.6673342707	 0.10902
H	-1.0755994824	-2.4327498972	 0.4941414596	 0.121397
H	 1.8704683	-2.4716878914	 1.4676855145	 0.095193
