17
gdb 11732	4.84665	1.38783	1.23324	3.9992	69.22	-0.2432	0.0116	0.2547	1012.0538	0.142245	-363.864589	-363.856934	-363.85599	-363.896627	28.899	
C	-0.1459448851	 1.5214370294	 0.0272208108	-0.380921
C	 0.0338325993	-0.0028919627	 0.0323355055	-0.272532
C	 0.7405667004	-0.5096752127	-1.1908410467	 0.400194
C	 0.1077941544	-0.8844483449	-2.4956693027	-0.319889
C	 0.9215379325	-1.9268833149	-1.7146898708	-0.302321
C	 2.3857766024	-1.5722044407	-1.9057543045	 0.436488
O	 3.3646597674	-2.1104410451	-2.3372067444	-0.344337
N	 2.1882691553	-0.2805003472	-1.3692141145	-0.397714
H	 0.8228944156	 2.0306964953	-0.0065149691	 0.12221
H	-0.7292408584	 1.8485837558	-0.8396078913	 0.119608
H	-0.6647551075	 1.8560188739	 0.9301144038	 0.119663
H	 0.6036603872	-0.3056916471	 0.9183566727	 0.114535
H	-0.9453730616	-0.4914381899	 0.0974844653	 0.104638
H	-0.9654804865	-1.0559656977	-2.4844714929	 0.122952
H	 0.4923022059	-0.4930550516	-3.4332030319	 0.121405
H	 0.4975054994	-2.858558147	-1.3677245908	 0.117784
H	 2.5743398094	 0.550109697	-1.8061226983	 0.238235
