17
gdb 68770	2.56602	1.73939	1.21679	4.594	68.21	-0.2564	-0.0061	0.2504	1036.1813	0.134391	-458.999613	-458.991079	-458.990134	-459.032487	31.654	
C	-0.1059732003	 1.5308655632	 0.0018435495	-0.492414
C	 0.1621417154	 0.0538208539	-0.0044339289	 0.31731
C	 0.4716990754	-0.6701413481	-1.3041815132	-0.137887
O	 1.1284038425	-1.894932108	-0.9396746198	-0.23583
C	 1.4277602814	-1.9287203249	 0.3877006213	 0.452455
O	 2.1004806375	-2.7850716302	 0.8832945622	-0.343465
C	 0.7875359443	-0.7372254958	 1.0689423871	 0.155127
C	 1.2917509383	-0.2979402786	 2.4077467565	-0.495955
O	-0.6427240705	-0.7776535534	 0.8415845853	-0.318363
H	 0.7403747909	 2.082320939	-0.4196355951	 0.133114
H	-0.993107855	 1.7612643363	-0.5979266434	 0.140056
H	-0.2861212419	 1.8855096126	 1.0185943811	 0.142893
H	-0.4348690726	-0.9181581897	-1.8640526358	 0.134471
H	 1.1450227649	-0.0883188913	-1.943434777	 0.121813
H	 2.3422267713	 0.0015643905	 2.3441681164	 0.138052
H	 0.703484639	 0.5383092831	 2.7904598058	 0.132348
H	 1.2269367094	-1.1290643685	 3.1156596179	 0.156279
