15
gdb 98825	3.11245	1.11877	0.90309	3.635	62.46	-0.2815	-0.0515	0.23	1238.2332	0.111037	-494.931844	-494.92328	-494.922336	-494.966225	29.878	
O	 0.2218296489	 1.2992575467	-0.2802752337	-0.417721
C	 0.0070401953	-0.0785823784	-0.2630414368	-0.135684
C	-1.4212169758	-0.4203735295	 0.1169107399	 0.341408
O	-2.2169787743	 0.4564623169	 0.3737055938	-0.311952
C	-1.8009843871	-1.8868638914	 0.1103245694	-0.304555
C	-3.2717877124	-2.2499091228	 0.3381796973	-0.097731
O	-3.3652537667	-2.7704167397	-1.0356716118	-0.227296
C	-2.0672749128	-2.4625854198	-1.3036869445	 0.46089
O	-1.451470113	-2.6120065032	-2.3068372708	-0.308755
H	-0.624884781	 1.700924826	-0.0325949633	 0.297357
H	 0.2082867371	-0.5381593273	-1.2457977891	 0.149908
H	 0.6802090536	-0.5805447651	 0.4531878292	 0.118494
H	-1.0648584368	-2.4838722028	 0.6542453053	 0.140777
H	-3.4717595869	-3.0413040401	 1.0606481116	 0.136256
H	-3.9354022581	-1.3968625794	 0.4752821334	 0.158605
