14
gdb 15758	6.52234	1.13153	1.03541	4.6803	61.78	-0.2612	-0.0422	0.219	1089.6977	0.107516	-415.877084	-415.869368	-415.868424	-415.910012	26.609	
O	-0.3588766877	 0.0170813185	 0.0949644902	-0.244474
C	-0.1087862417	 1.1306796442	-0.2683354886	 0.167752
N	 1.1348277821	 1.7619821331	-0.2168854473	-0.366313
C	 2.3425742901	 1.244306875	 0.2623421953	 0.458126
O	 2.4748786899	 0.1259573396	 0.699543016	-0.330559
C	 3.4863741647	 2.213757446	 0.1864325957	-0.140925
C	 4.349571726	 2.3030213387	 1.4066841797	-0.216891
N	 4.8333462278	 1.6336138445	 0.207031838	-0.297384
H	-0.8623907258	 1.8175591165	-0.7047425877	 0.089781
H	 1.1554087159	 2.7100339529	-0.5642598754	 0.260311
H	 3.3667708698	 3.0883293753	-0.4483662223	 0.095272
H	 4.8272731748	 3.249996178	 1.6399354898	 0.129437
H	 4.0533048385	 1.6966014822	 2.2576382741	 0.141056
H	 4.7177847158	 0.6262776355	 0.3271327024	 0.254812
