17
gdb 80109	2.71595	1.50659	1.26394	5.0261	78.43	-0.2509	-0.017	0.2339	1044.442	0.136517	-380.861421	-380.853506	-380.852562	-380.893605	30.379	
C	-0.2197811855	 1.463926388	-0.0290235251	-0.326993
N	 0.0740536246	 0.040711642	 0.04343108	-0.123525
C	 1.4050678964	-0.5146634437	-0.2112315805	-0.108523
C	 2.5959347804	 0.3805771861	-0.1226945376	-0.077064
C	 2.7283655585	 0.9058606233	 1.0978370658	-0.079101
C	 1.6817052891	 0.3906586089	 2.0584849862	-0.342364
C	 0.7983998342	-0.5139239626	 1.1833894345	 0.162386
C	 0.2137902674	-1.6826157085	 1.7938600473	 0.245308
N	-0.2349494886	-2.6147162374	 2.310619343	-0.347246
H	 0.6089767538	 2.1255009257	 0.2544756757	 0.114957
H	-0.5108748509	 1.6978402631	-1.0572256955	 0.133914
H	-1.0751256952	 1.669877903	 0.6208633609	 0.135852
H	 1.4159668132	-1.3962648879	-0.8449990337	 0.116176
H	 3.2341509492	 0.5846663681	-0.9737329367	 0.112034
H	 3.4737621279	 1.6351552918	 1.3941367483	 0.112639
H	 2.1258283555	-0.1896673847	 2.8749988867	 0.140951
H	 1.10672957	 1.1983551948	 2.5283029006	 0.1306
