14
gdb 131716	2.79056	1.5142	0.9875	1.101	68.95	-0.2703	-0.0991	0.1713	1101.8255	0.100542	-469.972455	-469.964593	-469.963649	-470.005378	28.448	
O	 0.1432210205	 1.3734225561	 0.0086781384	-0.421273
C	 0.0499572437	-0.0195455497	-0.0496735209	-0.115049
C	-1.3637410599	-0.5124998879	 0.0456400962	 0.266814
N	-2.312859038	 0.3493341185	 0.166625784	-0.349535
C	-3.600710002	-0.1569168896	 0.2505967649	 0.103003
N	-3.9733527065	-1.3849560007	 0.2224373837	-0.067829
O	-2.9497991021	-2.3297549934	 0.0907581796	-0.272629
C	-1.6276689007	-1.9582152975	-0.0012498807	 0.385441
N	-0.6933455564	-2.8045020608	-0.1193288853	-0.512108
H	-0.7607534203	 1.7085464092	 0.1011050316	 0.297447
H	 0.4807931979	-0.413282088	-0.9838211333	 0.142602
H	 0.6271910575	-0.4963910464	 0.7582274183	 0.142616
H	-4.4063703046	 0.5619061899	 0.3529305707	 0.157913
H	-1.0521946592	-3.7607453799	-0.1349397571	 0.242588
