16
gdb 83081	2.58595	1.7622	1.55612	3.0135	68.32	-0.2311	-0.0344	0.1967	923.7454	0.125266	-437.882985	-437.875595	-437.874651	-437.914692	28.24	
C	-0.1394316069	 1.5823771791	-0.0014319094	-0.426405
C	 0.0594268334	 0.0756025121	 0.0370113835	-0.018622
C	 1.1604181635	-0.5976037158	-0.8457564755	-0.028323
O	 2.3967559298	 0.1540282607	-0.7440071491	-0.233743
C	 2.7098631475	 0.4243780517	 0.5478861076	 0.114165
N	 2.0322295532	 0.1000479739	 1.5688405537	-0.251613
C	 0.7709860426	-0.6167945291	 1.2585190896	-0.135962
C	 1.1479310834	-1.6991551293	 0.2434969197	 0.437164
O	 1.2287980569	-2.8910217179	 0.2342766158	-0.3098
H	 0.7819863673	 2.127547114	 0.2108109985	 0.139942
H	-0.4973059141	 1.8944576543	-0.9875926668	 0.126637
H	-0.8854895588	 1.8851818436	 0.7394475065	 0.130403
H	-0.886124035	-0.4421641415	-0.1555202328	 0.104054
H	 1.005193678	-0.8240590379	-1.8986279509	 0.110049
H	 3.6397847704	 0.9818599876	 0.6236251563	 0.144246
H	 0.2227921988	-0.8523416156	 2.1686308432	 0.097808
