19
gdb 110534	3.63677	1.19637	1.12317	1.6906	75.43	-0.2319	0.0727	0.3046	1158.6526	0.158965	-422.956353	-422.94813	-422.947186	-422.989101	31.835	
C	 0.0738735889	 1.2554455663	 0.2440695661	-0.241662
O	 0.0065440427	-0.07315169	-0.2244816048	-0.250885
C	-1.2680434043	-0.6441280678	-0.0892472666	 0.188728
C	-1.4309673277	-2.0611501837	-0.595177787	-0.171271
C	-1.0339511873	-3.0212213103	 0.5614709891	-0.150136
C	-0.6000762247	-2.1431988302	 1.7332891086	-0.221845
C	-1.7323282876	-1.17112942	 1.308246304	-0.204458
C	-2.3991656018	-2.3814785751	 0.5063209319	 0.366434
O	-3.6804890177	-2.8482916326	 0.3883814319	-0.451459
H	 1.0891158401	 1.6156925043	 0.0616559659	 0.126086
H	-0.6354768622	 1.9089051785	-0.2880485022	 0.104151
H	-0.1372146513	 1.3260192019	 1.3216962876	 0.10624
H	-2.0361922936	 0.0153723856	-0.5217961418	 0.068048
H	-1.456714916	-2.4115313826	-1.6182929559	 0.09154
H	-0.7580264143	-4.0424446012	 0.3322611765	 0.087477
H	-0.8103368845	-2.6183576851	 2.6955881248	 0.088669
H	 0.4156240466	-1.7377243078	 1.7235063518	 0.105195
H	-2.2217045016	-0.51493077	 2.0248482966	 0.068062
H	-3.9064718738	-3.3298390202	 1.1923844535	 0.291088
