14
gdb 133174	3.11992	1.38338	0.9641	2.6999	67.99	-0.2395	-0.0658	0.1738	1118.1489	0.101188	-478.018487	-478.010902	-478.009958	-478.050715	28.272	
C	 0.0077546528	 1.5450993215	-0.005266154	-0.497169
C	-0.0479804729	 0.0452865645	 0.0014807263	 0.18967
C	-1.1836421812	-0.6822300801	-0.1482736545	-0.30587
C	-1.1739452114	-2.1406756473	-0.1329432303	 0.443312
O	-2.1359611384	-2.8771612725	-0.2586526263	-0.391787
N	 0.1110333681	-2.6602192745	 0.04946197	-0.28045
N	 1.2627436541	-1.9841452679	 0.201935183	-0.253774
C	 1.1655022107	-0.7042700508	 0.1762108281	 0.298861
F	 2.2953347304	-0.0160988774	 0.3255473299	-0.062103
H	 0.6632988094	 1.9054753445	-0.8048495112	 0.15363
H	-0.9866091709	 1.9722564521	-0.1466791341	 0.138433
H	 0.423125374	 1.9222831188	 0.9350145901	 0.15363
H	-2.1501593044	-0.2115456934	-0.286176254	 0.133898
H	 0.1990144098	-3.6670786075	 0.071270617	 0.279719
