25
gdb 118991	3.30608	0.85259	0.83553	1.3482	88.01	-0.2603	0.0699	0.3302	1548.9594	0.22941	-389.506696	-389.496366	-389.495422	-389.542145	38.743	
C	 0.1750788128	 1.406779384	 0.0709280521	-0.426865
C	-0.036072562	-0.1168169315	-0.0350615689	 0.296763
C	-1.5344522895	-0.4628390083	-0.1037796	-0.216933
C	-2.2970275941	 0.0980655534	-1.3001641501	-0.091377
O	-3.631514264	-0.3867402187	-1.2133932809	-0.419813
C	 0.7768291123	-0.7011350262	-1.2179057558	-0.220329
C	 2.2347352366	-0.8065981164	-0.7138004063	-0.212567
C	 2.1407043816	-0.8925932128	 0.8379573672	-0.213128
C	 0.6327610319	-0.8249556001	 1.1696105196	-0.224605
H	 1.2293239804	 1.6581200864	 0.2232637209	 0.112612
H	-0.1534032091	 1.9267791955	-0.8345889785	 0.110451
H	-0.3863798177	 1.8196366224	 0.9164722411	 0.110853
H	-1.6500913402	-1.5536761541	-0.1240389322	 0.098151
H	-2.0356067656	-0.1158388327	 0.8089910233	 0.096666
H	-2.2804373908	 1.1984402297	-1.2887102557	 0.084606
H	-1.8208443358	-0.2267533993	-2.238933232	 0.085044
H	-4.1286129604	-0.0278544133	-1.9540550084	 0.283243
H	 0.3894150495	-1.6996903413	-1.4551907604	 0.09146
H	 0.6931399419	-0.1023352312	-2.1303333126	 0.087956
H	 2.7451705895	-1.6718915241	-1.1455055679	 0.095677
H	 2.8122634899	 0.07247823	-1.0152397835	 0.0983
H	 2.593516691	-1.8084963294	 1.2274193854	 0.095785
H	 2.6806634349	-0.0621152038	 1.3023679686	 0.098497
H	 0.4278548061	-0.3172543203	 2.1178696991	 0.088748
H	 0.2235814407	-1.8386402881	 1.2567700659	 0.090807
