22
gdb 115716	2.68607	1.03523	0.91192	3.1056	78.83	-0.2135	0.064	0.2775	1401.4269	0.193137	-441.433355	-441.423129	-441.422185	-441.469551	36.731	
C	 0.7801820929	-0.9697745886	-2.2397319516	-0.332714
N	 0.2318366387	-0.3182414776	-1.060359221	-0.05625
C	 0.4759677903	 1.1165644397	-1.0908571961	-0.329168
C	-1.1153043599	-0.6816657699	-0.6669229346	-0.025047
C	-2.1404369243	-1.366900907	-1.6190994276	-0.107399
O	-2.444007431	-2.3664046262	-0.6234601465	-0.305773
C	-1.3723054624	-1.9145347146	 0.249406211	 0.099658
C	-0.3230260147	-3.0026687909	 0.4022742753	-0.067778
O	-0.9211379621	-4.1599449989	 0.9592750396	-0.42479
H	 1.8573076697	-0.7782645676	-2.2860999901	 0.121876
H	 0.6404993696	-2.0511293661	-2.1928878383	 0.128778
H	 0.3378414427	-0.6098751124	-3.1871540793	 0.09734
H	-0.0379712423	 1.6369260471	-1.9210264	 0.095521
H	 0.1554601743	 1.573704563	-0.1505540958	 0.122596
H	 1.5497189359	 1.3011618515	-1.2014953094	 0.120145
H	-1.5701779546	 0.1977184886	-0.2069704672	 0.089655
H	-3.025488617	-0.7816462929	-1.8930938155	 0.103367
H	-1.7160250636	-1.8102898194	-2.5275425378	 0.10189
H	-1.7710510736	-1.6757177787	 1.2438424384	 0.081234
H	 0.1472984678	-3.2313129804	-0.5646884114	 0.082795
H	 0.465095574	-2.6771936596	 1.0884129235	 0.112856
H	-1.6960748401	-4.3414167691	 0.4127462843	 0.291209
