17
gdb 92733	3.06996	1.3509	0.97329	3.2425	71.07	-0.2548	-0.025	0.2298	1179.2349	0.136685	-455.203218	-455.194795	-455.193851	-455.236174	31.67	
C	-0.7218314803	 1.4177048918	 0.103960054	-0.478835
C	-0.0810753197	 0.0716266083	-0.0781253177	 0.381621
N	-0.0126270168	-0.4874118217	-1.2171963966	-0.275731
C	 0.6893421996	-1.7659987591	-1.2986285338	-0.190762
C	 0.5169806352	-2.6243681642	-0.0416818581	 0.015535
O	 1.3052288301	-3.7811327767	-0.0880520901	-0.434186
C	 0.8664799445	-1.7953463138	 1.1867677635	 0.393666
O	 1.4374112877	-2.2628259746	 2.1516766289	-0.376165
N	 0.4461138763	-0.4907436958	 1.1043223597	-0.378196
H	-0.0036193059	 2.1390658016	 0.5118106865	 0.137246
H	-1.0765023778	 1.7765119475	-0.8611129533	 0.160824
H	-1.5627832623	 1.3599497057	 0.8039801879	 0.14089
H	 0.3308067554	-2.3152469217	-2.1727201127	 0.125464
H	 1.7616297715	-1.5804032993	-1.459338092	 0.122683
H	-0.5555245381	-2.87758527	 0.0575615798	 0.10035
H	 1.66434989	-3.8866745293	 0.8064143397	 0.296006
H	 0.5539690807	 0.0777580311	 1.9329818841	 0.25959
