14
gdb 133279	5.08997	1.05048	0.87556	2.2996	70.76	-0.2263	-0.0832	0.143	1223.3058	0.101047	-474.146705	-474.139006	-474.138061	-474.179213	28.137	
C	 0.0098997347	 1.4044839215	-0.2459209872	-0.34655
N	 0.0274844489	-0.0425060613	-0.1699758694	-0.31724
C	-1.0685362574	-0.6302258006	 0.1408484215	 0.39557
N	-2.296281924	-0.0400665377	 0.419560999	-0.324546
N	-3.4357190081	-0.707272267	 0.7459636515	-0.252492
C	-3.3156705349	-1.983509528	 0.7865529471	 0.377809
F	-4.3911402401	-2.6781112786	 1.0982516015	-0.052018
N	-2.2006150102	-2.7449995116	 0.5458626104	-0.284927
C	-1.1353751098	-2.0853668107	 0.2387519968	 0.003763
H	 1.0030668378	 1.7680988079	-0.5177577834	 0.135078
H	-0.6988996185	 1.7791412081	-1.0045094647	 0.1129
H	-0.2633880922	 1.8747069089	 0.714513835	 0.112872
H	-2.4070865271	 0.9599337465	 0.3919783445	 0.280998
H	-0.213756789	-2.6253606576	 0.0348427373	 0.158782
