19
gdb 75351	3.381	1.35837	1.06149	2.077	76.51	-0.233	0.0266	0.2596	1152.1144	0.161241	-419.190164	-419.182056	-419.181112	-419.222746	31.229	
C	 0.2409466455	 1.5324903031	 0.0442421607	-0.430904
C	-0.0376592156	 0.055102339	-0.0558570614	 0.391136
N	 0.0484958289	-0.5362082018	-1.1719914282	-0.3071
C	-0.2290977147	-1.9488108999	-1.4155102173	-0.18201
C	-1.5102730587	-2.4705137862	-0.7830213175	-0.027739
N	-1.3993204777	-3.6958942695	 0.0339272652	-0.340043
C	-1.6514354964	-2.3986530949	 0.6897131102	-0.037
C	-0.4958667948	-1.8050375423	 1.4532934671	-0.091179
O	-0.3641524664	-0.3999207092	 1.1974460628	-0.266335
H	 1.0784122601	 1.7147683461	 0.7253908811	 0.133001
H	 0.472433146	 1.9302649728	-0.9423078228	 0.139475
H	-0.6285696068	 2.0519599499	 0.4599518128	 0.132961
H	-0.2861127379	-2.0783766446	-2.501866742	 0.104665
H	 0.6094804608	-2.5723280117	-1.085619078	 0.122615
H	-2.4162726722	-2.3385779986	-1.3696698592	 0.092795
H	-2.2638436578	-4.2289075568	-0.0145802772	 0.235051
H	-2.6409375399	-2.2088284199	 1.0982884933	 0.091729
H	-0.6400059294	-1.8761254399	 2.5346045113	 0.11361
H	 0.4300976068	-2.3291077857	 1.2013026092	 0.125273
