14
gdb 25043	5.62016	1.03656	0.87515	2.4168	85.33	-0.216	-0.0574	0.1586	1236.363	0.101218	-399.549722	-399.542173	-399.541229	-399.581809	28.923	
N	-0.0276843223	 1.3450030222	 0.0106130072	-0.532849
C	-0.0343202113	 0.0771987174	 0.0035127348	 0.387047
O	 1.1775912302	-0.6344177727	-0.0078092628	-0.231066
C	 1.2155921287	-1.9757065716	-0.0155695168	 0.01257
C	 0.1100362396	-2.7599898235	-0.013301125	 0.00797
C	-1.1736017632	-2.0820227707	-0.0017477407	-0.139618
C	-1.2335612309	-0.737058108	 0.0061722088	-0.144355
C	 0.2106432405	-4.1752988041	-0.0218534249	 0.226531
C	 0.2677616215	-5.3782313999	-0.0289582746	-0.416027
H	 0.9260081033	 1.7065626591	 0.0068919995	 0.225513
H	 2.2296744678	-2.3552922606	-0.0238214143	 0.147974
H	-2.0755699198	-2.6830750715	 0.0003162984	 0.125277
H	-2.1698859739	-0.1946208793	 0.0148716353	 0.132739
H	 0.3256651898	-6.4383629168	-0.0352759149	 0.198294
