17
gdb 27350	1.89002	1.81194	0.93208	7.1271	80.68	-0.2037	-0.002	0.2017	1217.4898	0.137546	-418.077371	-418.068875	-418.067931	-418.110176	32.503	
C	-0.0133280974	 1.5068414908	 0.0855627436	-0.493959
C	 0.0002457348	 0.0109444494	-0.0346959163	 0.40665
C	-0.0408906127	-0.6746911264	-1.1983756254	-0.342626
C	-0.0101359236	-2.1430182578	-1.2507131144	 0.40871
O	-0.0477601094	-2.7696331922	-2.3071189335	-0.414489
C	 0.0462212476	-2.7798225165	 0.0602389575	-0.352269
C	 0.0909075919	-2.0539893969	 1.2080827384	 0.430041
N	 0.2304799243	-2.5784990149	 2.4958296761	-0.589227
N	 0.0539351188	-0.6795352708	 1.1628734674	-0.42985
H	 0.8824580871	 1.8729431768	 0.6027029769	 0.13413
H	-0.0444073349	 1.9666072428	-0.9027524381	 0.150879
H	-0.8851677781	 1.8529598674	 0.6536070447	 0.136429
H	-0.099951179	-0.1431819003	-2.140407344	 0.101009
H	 0.0358026156	-3.8626787459	 0.1010465877	 0.090901
H	 0.1832563914	-3.5882421971	 2.5034747943	 0.261475
H	-0.4269994739	-2.1969780105	 3.1663222586	 0.249456
H	 0.2632152174	-0.1733169178	 2.0086677665	 0.252741
