15
gdb 28744	5.61792	0.97255	0.82994	4.2098	74.18	-0.1825	0.0111	0.1936	1310.7066	0.114508	-450.15777	-450.149491	-450.148547	-450.190881	30.385	
N	-1.0028956182	 1.0245350865	 0.9311539516	-0.588547
C	-0.300800835	 0.0452390706	 0.2629957199	 0.444188
N	-0.4969702674	-0.4285099489	-0.9199527839	-0.330794
C	 0.4350340454	-1.4712308881	-1.0374142473	-0.182715
C	 1.1502289936	-1.5406840293	 0.1075210221	 0.405583
N	 2.1922615282	-2.2959791536	 0.6136446741	-0.402088
C	 2.8412347461	-3.2995571957	-0.0590948335	 0.070206
N	 2.5403094908	-3.6254448882	-1.2545277312	-0.448402
O	 0.690241124	-0.5683842998	 0.971714096	-0.228576
H	-0.4343389455	 1.6052229781	 1.5324804903	 0.259293
H	-1.5701889736	 1.56914295	 0.2967395287	 0.269629
H	 0.5338131965	-2.0781576144	-1.9176310686	 0.14886
H	 2.4523339164	-2.1085972226	 1.5671541491	 0.263264
H	 3.6225264944	-3.7560800793	 0.5584862527	 0.095174
H	 3.1387993542	-4.3828622954	-1.5741484199	 0.224925
