13
gdb 5178	7.4733	1.20659	1.07486	3.2759	62.07	-0.2164	-0.0081	0.2083	1023.7409	0.096318	-398.649298	-398.642393	-398.641449	-398.681011	24.894	
O	 0.3440245418	-0.0917657586	-0.1584287487	-0.253713
C	 0.5169807069	 1.0643181652	-0.3770261948	 0.156545
O	 0.4258335966	 2.0069807735	 0.6110780703	-0.217011
C	 0.7357349566	 3.2983627905	 0.2764406051	 0.363205
C	 1.8610157554	 3.8674617444	-0.2651258986	-0.257074
C	 1.5988190408	 5.2679607489	-0.3467008672	-0.130291
C	 0.338864915	 5.4915851124	 0.1506457425	-0.089153
N	-0.186996042	 4.2756276757	 0.5252459759	-0.289132
H	 0.76687559	 1.5178367253	-1.3518478814	 0.103212
H	 2.7642746194	 3.3488012812	-0.5436654406	 0.109513
H	 2.2718897945	 6.0221369065	-0.7232758648	 0.104023
H	-0.2258944898	 6.4002541497	 0.2773032674	 0.126214
H	-1.089544235	 4.1110397253	 0.9366382848	 0.273663
