16
gdb 126063	3.09174	1.5952	1.16405	3.6263	69.56	-0.2536	-0.0455	0.2081	1029.5033	0.126336	-434.017003	-434.009685	-434.00874	-434.049042	27.792	
C	 0.2616199219	 1.539886239	-0.1094802053	-0.363187
C	-0.0981067281	 0.0621734527	 0.0853236608	-0.124888
N	 0.3463364035	-0.7732197873	-1.0772264263	-0.31188
C	 1.5847561001	-1.5294749891	-0.7331275068	-0.297144
C	 1.6141286854	-1.4781947629	 0.7667146913	 0.317116
N	 2.2537535768	-1.9962601574	 1.7681504267	-0.201316
O	 1.6754596387	-1.4086806054	 2.88228439	-0.159143
N	 0.6727999571	-0.5185754613	 2.5326486344	-0.211669
C	 0.6391169995	-0.5664705948	 1.2374307264	 0.341781
H	 1.3409458857	 1.6629443952	-0.2397273501	 0.124855
H	-0.2369059751	 1.9272470241	-1.001193444	 0.128375
H	-0.048334792	 2.1280096034	 0.7594671309	 0.131803
H	-1.1828557584	-0.0308181352	 0.1956381503	 0.1094
H	-0.3843649309	-1.4413785212	-1.2885040971	 0.232577
H	 1.5469764454	-2.5424542735	-1.1411192718	 0.139907
H	 2.4694793904	-1.0397041664	-1.1579000294	 0.143412
