18
gdb 48817	3.09786	1.40381	1.13777	3.0038	77.75	-0.2384	-0.0233	0.215	1095.3607	0.148246	-401.943111	-401.935273	-401.934329	-401.975548	30.18	
O	-0.4812808775	 0.2501134976	 0.3688282998	-0.265929
C	-0.1470772055	 1.344990891	-0.0096655159	 0.12767
C	 1.2666740818	 1.8264547642	-0.05554759	 0.198526
C	 1.499310656	 3.2712576279	 0.295349066	-0.278939
N	 1.4656609178	 2.8641889772	-1.0917455616	-0.130541
C	 2.7302258293	 2.8593324138	-1.8377334938	-0.20133
C	 3.8643982491	 2.0810166066	-1.226614195	-0.069963
C	 3.687317252	 1.1586301174	-0.2846250104	-0.063275
C	 2.3384558423	 0.8006637541	 0.2699042391	-0.339137
H	-0.8826623369	 2.098941525	-0.3665778987	 0.082464
H	 0.6763805264	 3.9023235695	 0.6233938635	 0.119695
H	 2.4609496352	 3.4854680994	 0.7584247853	 0.126347
H	 2.510913595	 2.4618540253	-2.8386572392	 0.126266
H	 3.0213523517	 3.9064550211	-1.9894723732	 0.118307
H	 4.8580448258	 2.289331344	-1.6147324023	 0.093347
H	 4.5380990166	 0.6087014115	 0.1081057859	 0.09569
H	 2.3942516595	 0.6624980613	 1.3569475303	 0.122588
H	 2.0139415114	-0.1728238168	-0.1205617997	 0.138216
