20
gdb 58830	3.00702	1.27766	1.22596	2.0956	77.66	-0.2231	0.0554	0.2784	1136.0901	0.169918	-403.055996	-403.047299	-403.046355	-403.089333	33.973	
C	-0.0613017904	 1.5523303402	 0.2764030819	-0.411719
C	-0.0278392016	 0.0340701303	 0.0981783238	 0.018533
O	 0.8702419566	-0.5892104305	 1.016218368	-0.425087
C	-1.3932390444	-0.6099418318	 0.1735434968	 0.33413
C	-1.7951163981	-1.7430208247	-0.6834566346	-0.29922
N	-2.4098508583	-0.414392321	-0.9209860026	-0.189993
C	-3.4320993953	-0.1109302014	 0.1590319173	 0.012936
C	-3.6472382181	-1.1271830996	 1.2437615099	-0.310701
C	-2.4237733987	-0.2510096301	 1.2747656512	-0.140187
H	 0.9425535871	 1.9646744487	 0.1457736204	 0.123965
H	-0.7321890357	 2.0090780547	-0.4569468329	 0.136047
H	-0.4118340089	 1.830174715	 1.2774125863	 0.105017
H	 0.3825537649	-0.1923823004	-0.8922655147	 0.094722
H	 0.578003899	-0.3674227582	 1.9071701553	 0.278581
H	-1.1086018432	-2.013069119	-1.4809456526	 0.123926
H	-2.3882847329	-2.5742144349	-0.3221997089	 0.11917
H	-4.1431296385	 0.6755468867	-0.058704397	 0.103658
H	-4.411676564	-0.820671706	 1.9522444831	 0.118547
H	-3.6109139728	-2.2004677287	 1.097820155	 0.117801
H	-2.2113797467	 0.4232562309	 2.0936756944	 0.089874
