23
gdb 107630	2.15605	1.49191	1.17917	1.796	84.38	-0.2497	0.0804	0.3302	1214.5324	0.205976	-388.305685	-388.296397	-388.295453	-388.339513	35.864	
C	 0.6625825945	-0.4054107971	 1.388340484	-0.385474
C	-0.005279752	-0.1590883537	 0.0293160293	-0.286087
C	 0.8539423721	-0.5330409151	-1.1547903841	 0.430925
O	 0.1353857792	-0.8004048872	-2.3787139596	-0.31646
C	 0.8758573832	-1.8698355367	-1.7658168447	-0.01377
C	 2.2200623807	-2.1212236598	-2.4171832693	-0.248922
C	 2.8139983851	-0.7018869293	-2.5683030841	-0.226593
C	 2.1979414362	 0.1459464403	-1.4251581937	-0.032663
C	 2.0918301124	 1.6352735134	-1.7601035785	-0.410198
H	 0.9540402872	-1.4548276302	 1.5028002163	 0.116849
H	 1.561573981	 0.2055859645	 1.5171986608	 0.121238
H	-0.0224434294	-0.1575070718	 2.2044793824	 0.116914
H	-0.9362485658	-0.7314412402	-0.0418719219	 0.108646
H	-0.2898048622	 0.897737364	-0.0547558034	 0.105247
H	 0.2719262424	-2.6938867939	-1.3908528082	 0.08294
H	 2.8264762586	-2.7459201378	-1.7489541228	 0.09916
H	 2.1388258915	-2.648618212	-3.3729307363	 0.106204
H	 3.9068101227	-0.6968484323	-2.5427112845	 0.093108
H	 2.5070885411	-0.280006	-3.5288781017	 0.11444
H	 2.8109398537	 0.0256920251	-0.5210938304	 0.071612
H	 1.4221554374	 1.7859927716	-2.6132147235	 0.129978
H	 1.7030185001	 2.2165377219	-0.9173286131	 0.111029
H	 3.0713752204	 2.0488905765	-2.0212643932	 0.111877
