14
gdb 32360	5.0638	1.07831	0.89401	3.6336	70.79	-0.2253	-0.0869	0.1384	1217.287	0.100372	-473.851887	-473.844033	-473.843089	-473.885138	28.089	
C	 0.0109616582	 1.4180274871	 0.0089718517	-0.23557
O	 0.0048110797	-0.0083078487	 0.0037359145	-0.273663
C	-1.1972024736	-0.6236702091	 0.0118045128	 0.359258
C	-1.2496713678	-1.9794579276	 0.0086133494	-0.026981
O	-2.4305348184	-2.630659189	 0.0161563879	-0.193853
C	-3.6401971365	-1.9458293576	 0.0275611008	 0.395179
O	-4.6722903967	-2.5606815089	 0.0340282016	-0.335712
C	-3.479574213	-0.4912869912	 0.0303302416	-0.128378
N	-2.3407193281	 0.1229627626	 0.0229562868	-0.274374
H	 1.0644376632	 1.7000343713	 0.0013838922	 0.136094
H	-0.4914785269	 1.8239028067	-0.8743234528	 0.135305
H	-0.4768951611	 1.8172987707	 0.9033926576	 0.135264
H	-0.389989813	-2.6353117846	 0.0000824412	 0.157623
H	-4.3971315662	 0.0907810284	 0.0392699746	 0.14981
