21
gdb 112851	2.79364	1.33308	1.04621	1.2311	79.07	-0.2545	0.0901	0.3445	1231.393	0.182434	-424.220811	-424.211878	-424.210934	-424.254491	33.731	
C	-0.1915328281	 1.3483948637	 0.0859280743	-0.23897
O	-0.0536697481	-0.0599417799	 0.0249046107	-0.237441
C	 0.6824003054	-0.5979417418	 1.0729671335	 0.222742
O	-0.0355114003	-0.4400388367	 2.2972169341	-0.295794
C	 0.2624162613	-1.5283176218	 3.1751721922	 0.128096
C	-0.9059523251	-1.7219959812	 4.1295633427	-0.396768
C	 0.5858028623	-2.6965637966	 2.2509494889	-0.058702
C	-0.3566852355	-2.9201644612	 1.0976796481	-0.286313
C	 0.8852500868	-2.0893306513	 0.9051512223	-0.088329
H	 0.7904103717	 1.8440493402	 0.1309385451	 0.102709
H	-0.703032578	 1.6581939048	-0.8280619568	 0.124487
H	-0.7815113676	 1.6576457741	 0.9562437659	 0.128427
H	 1.6528982226	-0.0704823264	 1.1519923953	 0.052085
H	 1.168025246	-1.290846531	 3.7593596984	 0.066617
H	-1.8120108159	-1.9954325145	 3.5820122775	 0.123892
H	-0.6793981934	-2.5153883441	 4.8488433511	 0.112824
H	-1.1012211162	-0.8004904869	 4.6852597439	 0.123472
H	 1.1644784536	-3.5233159941	 2.6458711797	 0.086251
H	-0.365272911	-3.9062257958	 0.6479144534	 0.109107
H	-1.3112318665	-2.4061458511	 1.091866407	 0.131207
H	 1.6905210058	-2.4334953484	 0.2686599128	 0.0904
