19
gdb 110361	3.12435	1.08028	0.9608	2.4907	71.6	-0.2446	0.0605	0.305	1268.7953	0.15861	-460.109566	-460.100523	-460.099579	-460.143597	34.137	
O	 0.252845719	 0.5130974214	 0.9577786748	-0.418548
C	-0.0901518654	 0.2005117976	-0.386253905	-0.110864
C	-1.4436139169	-0.4679356186	-0.3690441908	-0.012816
C	-1.9496650407	-1.4417685771	-1.3980895228	-0.100061
C	-1.7045349822	-1.8877397504	 0.0519870632	-0.10678
C	-0.5716965769	-2.8241697812	-0.4015514563	 0.113059
O	-0.8016233917	-4.1929337779	-0.1985935936	-0.444118
C	-0.849064055	-2.3758018012	-1.8974525157	 0.058465
O	-1.4443941774	-3.4254322777	-2.6441626205	-0.437504
H	 1.0778180154	 1.0077399254	 0.9482968892	 0.286135
H	-0.1481563634	 1.1112223678	-1.0036059956	 0.087261
H	 0.6699893803	-0.4481713555	-0.8450967753	 0.087619
H	-2.2246511028	 0.2067468326	-0.0243780383	 0.098448
H	-2.878156288	-1.2869743968	-1.9347871152	 0.094011
H	-2.4174847011	-2.1334913376	 0.8298894775	 0.091397
H	 0.4186081838	-2.6076067629	 0.0098824345	 0.083677
H	-1.5222283028	-4.4300521228	-0.7998711671	 0.277998
H	-0.0187435139	-1.929910856	-2.4614987222	 0.061599
H	-0.7414719703	-4.032209039	-2.9020982507	 0.291023
