13
gdb 16789	3.50945	2.08616	1.48373	2.9727	58.88	-0.2508	-0.037	0.2138	801.3873	0.095915	-398.612764	-398.606379	-398.605434	-398.643449	24.229	
O	 0.0561647821	-0.0146555449	-0.1063335015	-0.308812
C	 0.0005797451	 1.1852368789	-0.0588905708	 0.443071
C	-1.2629213521	 2.052613668	-0.0837346106	-0.450814
C	-0.8034899163	 3.3485104223	-0.7612096164	 0.443071
O	-1.4683349628	 4.0868660605	-1.4378878183	-0.308812
C	 0.6818409354	 3.4710793903	-0.5240167182	-0.159078
N	 1.0165674303	 3.217551592	 0.8947681061	-0.326066
C	 1.1831176027	 2.122440137	-0.0861814195	-0.159079
H	-2.0980140377	 1.5756283591	-0.5968626243	 0.153839
H	-1.5613022193	 2.2764282541	 0.9472689724	 0.174176
H	 1.2737994812	 4.1585656299	-1.1166919008	 0.121713
H	 1.9325416184	 3.6199265963	 1.0854889404	 0.255078
H	 2.1695405729	 1.7486551965	-0.3343154986	 0.121713
