20
gdb 57066	2.76021	1.15061	0.88113	4.6575	80.35	-0.2316	0.0218	0.2534	1336.0296	0.171286	-399.308812	-399.299213	-399.298268	-399.343561	35.019	
C	-0.0388242823	 1.5396843686	 0.1080716057	-0.330557
N	 0.0240264926	 0.0915378054	 0.1183537113	-0.084856
C	-1.2417634232	-0.6338167013	 0.3738660749	-0.162095
C	-0.4810617691	-1.614459295	 1.2967552593	-0.262675
C	 0.6790398443	-0.5883723016	 1.25599938	 0.052192
C	 2.0914269319	-1.1117316672	 0.921861153	-0.134919
N	 3.0695115825	-0.0988034124	 0.5231860423	-0.512506
C	 2.6079815658	-1.8826843914	 2.0641853784	 0.294892
N	 2.9694412998	-2.475122962	 2.9879281347	-0.320948
H	 0.964852237	 1.9654167898	 0.0169646875	 0.110159
H	-0.6232960862	 1.8752934072	-0.7549738315	 0.12771
H	-0.5053393057	 1.9579576825	 1.0198084876	 0.097499
H	-1.9768058346	-0.0266366275	 0.9242340055	 0.093209
H	-1.723124003	-1.0385519295	-0.5221751214	 0.108494
H	-0.9205298006	-1.8172370083	 2.2723307413	 0.122311
H	-0.2274341435	-2.5615005425	 0.8151739727	 0.117134
H	 0.7270141458	 0.0344529108	 2.1645004449	 0.06858
H	 1.9870554399	-1.8033878013	 0.0767364863	 0.130517
H	 2.7201477481	 0.3689154829	-0.3077532444	 0.248611
H	 3.1695803604	 0.6033931428	 1.2510684721	 0.237248
