19
gdb 80945	2.44772	1.32889	1.24159	1.3449	82.94	-0.2424	0.0455	0.2879	1143.9469	0.157572	-385.80896	-385.800082	-385.799138	-385.841957	34.71	
C	-0.1053084993	 1.6270572859	 0.0411052227	-0.448514
C	 0.0324864107	 0.113015795	 0.0379350525	 0.012609
C	 1.1790828749	-0.6189946183	-0.7383294056	-0.070852
C	 2.176037661	-0.1671204901	 0.3655280617	-0.317244
C	 0.8822370433	-0.6300690754	 1.1053380776	 0.385737
O	 0.594433743	-0.5956889833	 2.4512179941	-0.465002
C	 0.8925588284	-1.8870998523	 0.1387264238	-0.253591
C	-0.3066768738	-2.6694115226	-0.0634198377	 0.312637
C	-1.2830226077	-3.3551998805	-0.2203625188	-0.443085
H	 0.8411148907	 2.1583474486	 0.1672904165	 0.116634
H	-0.5531708772	 1.9677701592	-0.8986583879	 0.117396
H	-0.7698469538	 1.9398902716	 0.8532839189	 0.12927
H	-0.9466865272	-0.3478510792	-0.11759535	 0.086977
H	 1.3498447918	-0.6254795159	-1.8122313906	 0.086153
H	 3.0662583823	-0.78928234	 0.4979834904	 0.086922
H	 2.4264162529	 0.8914474445	 0.4132391259	 0.101262
H	 1.2687290412	-1.0917242224	 2.9283116715	 0.285489
H	 1.7647931656	-2.5367689296	 0.2674363775	 0.087061
H	-2.1496814467	-3.9526633552	-0.3589632828	 0.19014
