25
gdb 118998	3.20409	0.86966	0.85932	1.4798	88.28	-0.2445	0.0766	0.3211	1553.1567	0.229054	-389.507031	-389.496757	-389.495813	-389.543142	38.171	
C	-0.0892795479	 1.6337250497	-0.081732471	-0.377272
C	 0.0143747561	 0.1079496812	 0.00647487	-0.182611
C	-1.3617904315	-0.5715008594	 0.0394440326	-0.2293
C	-1.3571254255	-2.1109720784	 0.0628599005	 0.318559
C	-0.6557299732	-2.6715080065	 1.3126537011	-0.437884
C	-2.8037706699	-2.6878970135	-0.0280206478	-0.290266
C	-2.6954419871	-3.8533248698	-1.0426596001	-0.074221
O	-1.3109520194	-4.0158714265	-1.3287020693	-0.24998
C	-0.7268707268	-2.7313512615	-1.2050677931	-0.111792
H	 0.9001283527	 2.1012012137	-0.1001082054	 0.111176
H	-0.621310805	 1.9433840421	-0.9882210416	 0.113528
H	-0.6352222852	 2.0430294073	 0.7757950929	 0.113874
H	 0.5911933691	-0.2651563451	-0.8497125502	 0.099742
H	 0.5876874701	-0.1616836506	 0.9009139625	 0.100846
H	-1.9179191551	-0.2053371697	 0.9137446118	 0.09102
H	-1.9341161246	-0.2419502024	-0.8392284064	 0.087658
H	-1.1558014195	-2.3350799309	 2.2277029441	 0.107234
H	-0.6750544976	-3.765379517	 1.2976289872	 0.125005
H	 0.3920319287	-2.3604868355	 1.3681589319	 0.112358
H	-3.154752973	-3.0273822537	 0.9500227085	 0.102461
H	-3.5085202417	-1.9292603228	-0.3803170503	 0.096412
H	-3.0695955562	-4.8069461293	-0.6602210859	 0.105959
H	-3.2480258722	-3.6177675876	-1.9657259086	 0.088148
H	-0.9526263154	-2.1103622019	-2.0905385664	 0.075293
H	 0.3566097801	-2.8640387719	-1.143859247	 0.104055
