18
gdb 99222	3.92795	0.83805	0.82731	2.8248	69.26	-0.2547	0.0177	0.2725	1484.2418	0.145269	-476.294674	-476.284385	-476.28344	-476.331885	35.437	
C	-0.521983066	 1.095364519	-0.1949128861	-0.373728
C	 0.5420229359	 0.0114522257	-0.04156403	-0.305691
C	 0.9286510117	-0.6215931522	-1.3577899091	 0.467588
O	 0.3935290321	-0.4367986632	-2.420871625	-0.363071
O	 1.9931199616	-1.4490239079	-1.1957794864	-0.227385
C	 2.3436368665	-2.2055271299	-2.3407614888	-0.185505
C	 1.337323	-3.3443072009	-2.5731006168	 0.401944
N	 1.5134616296	-3.9956592652	-3.7618207309	-0.524109
O	 0.5108951556	-3.6629850843	-1.7481696433	-0.343929
H	-0.1608543155	 1.9170124235	-0.8194735709	 0.126802
H	-1.4198274104	 0.6930394164	-0.6697448362	 0.138489
H	-0.7969144078	 1.501527933	 0.7822824857	 0.112418
H	 1.4521202065	 0.3941889765	 0.4335572415	 0.128623
H	 0.1925582878	-0.8020756835	 0.6060070975	 0.14801
H	 2.4013554108	-1.5639939541	-3.225744222	 0.132192
H	 3.3302713688	-2.6281272112	-2.1328266639	 0.140914
H	 2.0264755735	-3.5674276714	-4.5143831085	 0.260477
H	 0.8198902894	-4.6835405303	-4.0107576269	 0.26596
