19
gdb 38320	3.46747	1.61635	1.42394	1.8721	72.9	-0.2399	0.0832	0.3231	960.1818	0.163158	-423.007376	-423.000882	-422.999937	-423.03812	27.124	
C	-0.0703106443	 1.5894423679	 0.1240615386	-0.236917
C	 1.4546769011	 1.3552916762	 0.0384121925	 0.054583
O	 1.2565404674	 0.1004260418	 0.7772370203	-0.304063
C	-0.0059842195	 0.0549842373	 0.0334899492	 0.045053
C	 0.5185393965	-0.2106052915	-1.3954149513	 0.114394
O	-0.3762897047	 0.201902482	-2.4140619642	-0.268368
C	 0.3768109267	 0.9161160021	-3.3888580754	-0.06846
C	 1.4322893314	 1.7173656372	-2.6016348204	-0.269817
C	 1.7048521133	 0.8108444925	-1.3857237552	-0.018343
H	-0.3659007883	 1.9189981224	 1.1200005229	 0.112027
H	-0.5887637295	 2.1462225081	-0.6571937956	 0.107114
H	 2.1903786655	 2.0242526304	 0.4851022574	 0.080713
H	-0.7564389879	-0.6120135304	 0.4556134027	 0.082007
H	 0.8259110029	-1.2534538828	-1.5358916024	 0.074499
H	 0.8659965815	 0.2159212463	-4.0851150706	 0.092589
H	-0.3188276722	 1.5361137598	-3.9611333689	 0.109188
H	 2.3289456354	 1.9106204964	-3.1953642748	 0.104189
H	 1.0244593222	 2.6850295865	-2.2935946714	 0.106696
H	 2.6802696323	 0.3249231779	-1.4337762032	 0.082916
