21
gdb 58482	2.19003	1.28221	1.06044	1.745	85.12	-0.2562	0.0223	0.2785	1276.8493	0.178419	-387.04945	-387.038962	-387.038018	-387.084671	39.006	
C	-0.4841074877	 1.3219549954	 0.1140356993	-0.402959
C	 0.2109857213	-0.0184761733	-0.1689955829	-0.028871
C	 1.1717806453	 0.0755561782	-1.3634038333	-0.403163
C	 0.9035096216	-0.5561510296	 1.0799915185	 0.416018
C	 2.0645619688	 0.2315106935	 1.6521252491	-0.472607
O	 0.004760205	-1.0745478491	 2.071750802	-0.292179
C	 0.8486917325	-2.0116740001	 1.3792037679	-0.238255
C	 0.2185111674	-2.9788522113	 0.5203679398	 0.339064
C	-0.2735591417	-3.8193818831	-0.185047581	-0.419121
H	 0.237961656	 2.1237543118	 0.3029176495	 0.112338
H	-1.089859141	 1.6244830418	-0.7459045829	 0.113055
H	-1.1436852813	 1.2424753459	 0.9830833649	 0.13132
H	-0.5661087718	-0.7483543274	-0.4180934694	 0.095348
H	 1.9544742151	 0.8233400585	-1.1962284483	 0.114649
H	 1.6553876594	-0.8859161211	-1.5630558354	 0.121287
H	 0.6265042549	 0.3697660105	-2.2656126566	 0.116186
H	 1.757837831	 1.2527253399	 1.8976244981	 0.131851
H	 2.4248203532	-0.2400450228	 2.5694912328	 0.129042
H	 2.8946894166	 0.2891598673	 0.9418759048	 0.128195
H	 1.6483146203	-2.4201924066	 1.9983385507	 0.108194
H	-0.7171471449	-4.5567661284	-0.8076477275	 0.20061
