18
gdb 11116	5.39303	1.07106	1.02965	0.9078	74.76	-0.2463	0.0504	0.2967	1189.7421	0.152063	-347.749126	-347.740527	-347.739583	-347.782566	31.384	
C	-0.7574686162	 1.4733264443	-0.0953873178	-0.241938
O	-0.3286775158	 0.2576604571	 0.4770737113	-0.23862
C	-1.0687725508	-0.8499957797	 0.0463622555	 0.179149
C	-0.7889674386	-1.4382446744	-1.3670085559	-0.263132
C	-0.8214956296	-2.8690668853	-0.7241238843	-0.189874
C	-0.6232836973	-2.1829941102	 0.6722331029	-0.264993
C	-2.0872055191	-3.5618249334	-0.8768029176	 0.346742
C	-3.1425596395	-4.1259318856	-1.0003233346	-0.4916
H	-0.1365764282	 2.268136383	 0.3246460048	 0.127593
H	-0.6431905348	 1.477088398	-1.1898705942	 0.108396
H	-1.8125795967	 1.6829810366	 0.140766477	 0.106003
H	-2.1460754731	-0.6744315765	 0.1887025505	 0.074434
H	-1.4996980908	-1.2397446719	-2.170093233	 0.109222
H	 0.2236641985	-1.1839923105	-1.6915537998	 0.109599
H	-0.003019824	-3.5255589759	-1.0303318874	 0.10504
H	 0.4365195737	-2.1362726152	 0.9340684093	 0.115636
H	-1.1960890022	-2.5757890882	 1.5126556456	 0.112921
H	-4.0690628454	-4.632202512	-1.1118231022	 0.195424
