16
gdb 26598	2.29972	1.85488	1.03323	5.1848	76.2	-0.2055	-0.0214	0.1841	1091.8891	0.125324	-437.969536	-437.961228	-437.960283	-438.003073	31.	
C	-0.0413790225	 1.5237674428	 0.0228011252	-0.481513
C	-0.0518881492	 0.0223959775	 0.0136060753	 0.020861
C	-1.1951262829	-0.7297964889	-0.0844974107	 0.337618
O	-2.3924132497	-0.0910196424	-0.1793024211	-0.429477
C	-1.1601498906	-2.1597945736	-0.0895718666	-0.296586
C	 0.0441094455	-2.7777809133	 0.0059375059	 0.044208
N	 1.1814922414	-2.0453596961	 0.1034546786	-0.372523
C	 1.2356761129	-0.6351862112	 0.1157514352	 0.37943
O	 2.3203226068	-0.0771772772	 0.207974408	-0.398875
H	 0.5672534517	 1.9077890828	-0.8030354459	 0.13745
H	-1.049546213	 1.9302530739	-0.0584377868	 0.129443
H	 0.4227184653	 1.898171577	 0.9416940117	 0.137428
H	-3.0980692628	-0.74218982	-0.2409683383	 0.299948
H	-2.070711945	-2.7412233489	-0.1676059779	 0.095939
H	 0.1577128265	-3.8546716016	 0.0092910537	 0.136623
H	 2.0832953255	-2.4943220309	 0.1750575138	 0.260027
