21
gdb 32890	5.46192	0.74654	0.69585	3.6026	87.22	-0.2124	0.0357	0.2481	1711.4186	0.183391	-383.320884	-383.311212	-383.310268	-383.356423	34.531	
C	-0.0639158676	 1.5749102826	 0.0347102757	-0.381068
C	-0.1600962391	 0.0532443042	-0.0933239407	-0.149142
C	 0.7669459271	-0.5162110403	-1.1820893702	-0.295142
C	 0.7221099234	-2.0098415512	-1.2671287537	 0.285254
C	 0.2610821868	-2.8018843685	-2.2892154049	-0.223266
N	 0.4231574871	-4.1067434439	-1.8695342135	 0.025023
C	 0.0851283844	-5.305093663	-2.607611876	-0.336893
C	 0.9697265725	-4.0401222063	-0.6229359933	-0.005109
N	 1.1635361196	-2.8036444244	-0.2274373714	-0.323699
H	 0.9549394299	 1.8869413005	 0.2908753361	 0.113305
H	-0.3336751509	 2.0725497122	-0.9041162454	 0.107669
H	-0.7327527412	 1.9528068372	 0.8145434084	 0.108484
H	 0.0937068201	-0.4231620569	 0.8598332182	 0.11849
H	-1.1939583433	-0.2384670647	-0.3173311275	 0.089181
H	 0.5013551822	-0.0874667491	-2.1562707015	 0.089131
H	 1.7963602149	-0.1986020875	-0.9696483518	 0.106951
H	-0.1550641176	-2.5683539145	-3.2559826941	 0.118737
H	 0.6452075534	-5.3595135596	-3.5465487104	 0.143243
H	 0.33798798	-6.1776199431	-2.0019729155	 0.144647
H	-0.9851974456	-5.3381484773	-2.8348181825	 0.143079
H	 1.2037958741	-4.9330058362	-0.060421536	 0.121123
