15
gdb 15536	3.74192	1.96146	1.31409	2.0778	65.2	-0.2201	-0.0099	0.2102	884.7578	0.121208	-396.031822	-396.024464	-396.02352	-396.063675	26.807	
N	-0.0274258856	 1.3479941891	 0.1768083644	-0.583594
C	-0.0776979287	-0.0019000675	 0.0628701543	 0.468715
N	-1.1303269005	-0.7272144808	 0.0212473757	-0.336726
C	-0.7152487604	-2.1254728306	-0.0760077441	-0.16756
C	 0.8324023895	-2.1482338675	 0.0883875583	-0.199973
N	 1.153864123	-0.7163339321	 0.0293934718	-0.117016
C	 2.406946549	-0.2010802306	-0.0946738708	 0.159538
O	 2.6887370194	 0.9819476493	-0.1730806176	-0.342743
H	 0.8593587047	 1.7887937581	-0.0269447711	 0.28448
H	-0.885884029	 1.8365182048	-0.0141967981	 0.264311
H	-1.2039479526	-2.7285586596	 0.6961988329	 0.113907
H	-1.0193579988	-2.543100529	-1.0444459073	 0.110896
H	 1.1383828666	-2.569193658	 1.0519172511	 0.126117
H	 1.3433673937	-2.6963757148	-0.7071189992	 0.125779
H	 3.1778481895	-0.9926963508	-0.1230201802	 0.093869
