12
gdb 20530	5.1065	1.73855	1.30739	3.2453	56.53	-0.3003	-0.0796	0.2207	851.9087	0.083785	-410.84593	-410.839094	-410.83815	-410.877538	23.534	
C	-0.0235517961	 1.5081283326	-0.0420941239	-0.490008
C	-0.02751582	 0.0118974046	 0.0813368305	 0.43642
O	-0.0495334889	-0.623885009	 1.0989256793	-0.283499
N	-0.0015377232	-0.6968078129	-1.1660953972	-0.050619
C	 0.002293163	-2.0375632102	-1.3787638623	 0.094463
N	 0.0292281239	-2.2647500529	-2.6643898438	-0.220957
N	 0.042645735	-1.0250450947	-3.2592140228	-0.076308
N	 0.0249294984	-0.0892547943	-2.3853668274	-0.115651
H	 0.8671698012	 1.8425739726	-0.5809962115	 0.175768
H	-0.8868495072	 1.8442299763	-0.6228600612	 0.175784
H	-0.0468054182	 1.935184186	 0.9595826423	 0.159171
H	-0.0150089977	-2.763548608	-0.5840100919	 0.195437
