19
gdb 74458	3.27308	1.25223	1.05679	3.0461	82.24	-0.2251	-0.0253	0.1998	1187.1985	0.158879	-385.874385	-385.866169	-385.865224	-385.907278	31.605	
C	-0.0520939744	 1.4797053404	 0.091608877	-0.515777
C	-0.0069749726	-0.0058835744	 0.0051824495	 0.344855
C	-0.0349742665	-0.8392172873	-1.0400813064	-0.265719
C	 0.0457098572	-2.2293597642	-0.3992596696	 0.226607
C	-0.9623805148	-2.049928694	 0.8037748647	-0.252581
C	 0.0898587516	-0.967341741	 1.2117708715	-0.119648
C	 1.1623137974	-1.978912864	 0.6899510709	-0.252543
C	 0.0414165945	-3.4545811316	-1.2489439671	 0.047868
O	-0.022286543	-3.4589320678	-2.4540348812	-0.252741
H	 0.8416303967	 1.8798891422	 0.5878264137	 0.127591
H	-0.1204053085	 1.9334364933	-0.9010129061	 0.130022
H	-0.9125075816	 1.8211683703	 0.68170524	 0.127592
H	-0.0982101547	-0.6436009064	-2.1000405197	 0.117584
H	-1.9688011806	-1.7133193098	 0.5467926289	 0.105581
H	-0.9929757231	-2.9104457442	 1.4801778085	 0.097704
H	 0.1293221791	-0.5410811014	 2.2144801726	 0.064278
H	 1.3221482823	-2.8330881555	 1.3561181591	 0.09771
H	 2.1108762079	-1.576956071	 0.3281775511	 0.105598
H	 0.1035240132	-4.4105447937	-0.6774191174	 0.066019
