15
gdb 18338	3.3855	2.47056	1.62071	5.0461	60.32	-0.2549	0.0355	0.2904	778.4954	0.121694	-399.824772	-399.81844	-399.817496	-399.855629	23.606	
O	-0.1766968975	 0.2549979344	 0.8213113273	-0.371555
C	-0.1165120717	 1.3190174189	 0.2760483986	 0.448476
O	-1.2243683962	 2.0655077908	-0.0320870983	-0.237052
C	-0.8596035659	 3.3882013255	-0.443759374	-0.10747
C	 0.6774204031	 3.4142785188	-0.3754560149	 0.009884
C	 1.442120445	 3.8345854423	 0.9107212137	-0.255588
C	 1.9987579651	 2.381335717	 0.9479589958	-0.176617
N	 1.0349891655	 1.999341165	-0.1297393776	-0.159989
H	-1.2289546742	 3.5511471378	-1.4604319541	 0.126114
H	-1.334871818	 4.1130932833	 0.2255790088	 0.123091
H	 1.1212505687	 3.8106571216	-1.2926384989	 0.097789
H	 2.1687215532	 4.6418093055	 0.8054288074	 0.115388
H	 0.7760366132	 4.0565258622	 1.749088575	 0.121444
H	 3.0323056249	 2.2877958964	 0.6068282832	 0.12403
H	 1.8648940747	 1.8046767707	 1.8652534678	 0.142056
