21
gdb 79964	1.83008	1.73191	1.54937	1.3401	83.09	-0.2227	0.0182	0.2409	1073.3724	0.18192	-387.086876	-387.077856	-387.076912	-387.119669	35.575	
C	 0.2189229896	 1.7710090909	-0.3816273461	-0.420131
C	 0.3012431192	 0.2697424953	-0.2164411402	-0.06839
C	 1.5802308165	-0.5548300101	-0.4167112478	-0.162955
C	 2.8755027875	 0.1581390674	-0.2274306895	-0.08345
C	 3.0319411946	 0.5757408389	 1.0320785175	-0.091148
C	 1.8851019589	 0.1432367524	 1.9255640243	-0.082389
C	 1.3026120555	 1.2272761415	 2.8436374472	-0.410701
C	 0.9015724889	-0.5024758856	 0.937143481	 0.362616
O	 0.2104906129	-1.6307458229	 1.3966811934	-0.472958
H	 1.1523888374	 2.2639366177	-0.1029089815	 0.126356
H	 0.008944252	 2.0251248359	-1.4269419047	 0.112676
H	-0.5858912727	 2.1974749647	 0.2274181731	 0.111689
H	-0.5657572258	-0.2602119223	-0.606867842	 0.085985
H	 1.5206519444	-1.4349953225	-1.047391205	 0.092489
H	 3.579907836	 0.3240179075	-1.0351307705	 0.093618
H	 3.8772933914	 1.1417516067	 1.4089569767	 0.091213
H	 2.2353445195	-0.6753179944	 2.5736265026	 0.09302
H	 0.9522039067	 2.0969123983	 2.2825904627	 0.123188
H	 0.4576149357	 0.8306199567	 3.4178004434	 0.105906
H	 2.0517763366	 1.5727998561	 3.5638265045	 0.113637
H	-0.5867907148	-1.3288425021	 1.8449883508	 0.279727
