11
gdb 23759	3.37727	2.39925	1.40273	1.0266	55.03	-0.2626	-0.0386	0.224	772.0163	0.073935	-438.739759	-438.733906	-438.732961	-438.769805	21.983	
O	 0.1089678589	 1.3410405075	 0.101225305	-0.396591
C	 0.0737653219	 0.0051231277	 0.0468132319	 0.331193
N	 0.0886779576	-0.600580954	-1.1307444038	-0.335577
C	 0.0518455937	-1.9378719616	-1.1273576478	 0.07018
N	 0.001674534	-2.7307426061	-0.0652570475	-0.255028
C	-0.0131545191	-2.1092173942	 1.1249367325	-0.084125
C	 0.0215596726	-0.7366532226	 1.2352064245	 0.151893
F	 0.0067444034	-0.1248477931	 2.4152157095	-0.054121
H	 0.1420329026	 1.6506144882	-0.815848506	 0.309004
H	 0.064823584	-2.4187768849	-2.1015247741	 0.127406
H	-0.0539879896	-2.7225773969	 2.0212135858	 0.135764
