21
gdb 96129	2.13849	1.8467	1.25305	1.8865	77.92	-0.2456	0.0846	0.3302	1091.6871	0.182671	-424.220843	-424.212211	-424.211267	-424.253546	33.892	
C	-0.0576970319	 1.5152256074	-0.0742009146	-0.405036
C	 0.0381610345	-0.001065728	 0.0154554118	 0.062068
O	 0.676000973	-0.4547523651	-1.1805098135	-0.248499
C	 0.903637921	-1.8351462911	-1.146220251	 0.010164
O	 1.9267049639	-2.1836406998	-0.248478315	-0.247199
C	 1.7166306916	-1.6733971384	 1.0413957179	 0.057966
C	 2.2703000024	-0.3051287903	 1.3513598106	-0.345409
C	 0.7712484375	-0.51145493	 1.2553359084	 0.279864
C	-0.0378891574	-0.4824461493	 2.5363641068	-0.471975
H	 0.9395558022	 1.9630843988	-0.0880324762	 0.127305
H	-0.5794626194	 1.8027940793	-0.9909880373	 0.12469
H	-0.6094087205	 1.9191360292	 0.7794529826	 0.117431
H	-0.9813948326	-0.4264169254	 0.0398239737	 0.063247
H	-0.0329694283	-2.3619459322	-0.8855833618	 0.075128
H	 1.2452565727	-2.1386121459	-2.1379115554	 0.115602
H	 1.7662232961	-2.4478422239	 1.8032549905	 0.092338
H	 2.7026719738	-0.1177027089	 2.3285975069	 0.106166
H	 2.7654962822	 0.1878429179	 0.5221736122	 0.127569
H	-0.2777679327	 0.5439549653	 2.836628819	 0.121885
H	-0.9819408145	-1.0285195977	 2.4243938198	 0.117998
H	 0.5163995663	-0.941193452	 3.3608697545	 0.118697
