14
gdb 23197	3.24789	1.18725	0.94073	3.623	68.06	-0.2625	-0.0516	0.2109	1179.9226	0.098028	-473.733777	-473.725594	-473.724649	-473.766978	29.518	
O	-0.2241463494	 1.4350523367	 0.0229946736	-0.379675
N	 0.012003763	 0.055980833	 0.0013087875	-0.24802
C	-1.0703075492	-0.5952444175	-0.0681194263	 0.382836
C	-2.5699421249	-0.2951436862	-0.0071593076	-0.351308
C	-2.7713485147	-1.8254252381	 0.0513528352	-0.018824
O	-2.2011501514	-2.3851141636	-1.1067333206	-0.247552
C	-1.2892012066	-2.0792039311	-0.032971876	 0.22649
C	-0.483612063	-3.1627162569	 0.5826228015	 0.045319
O	-0.7208489539	-4.3359750898	 0.4530807676	-0.248841
H	 0.6673017306	 1.7973555478	 0.0780655004	 0.314259
H	-2.8424673954	 0.2362304528	 0.9088926856	 0.141661
H	-3.0195415302	 0.1981731036	-0.8711833677	 0.145237
H	-3.5114841178	-2.4042551388	 0.5909475207	 0.138407
H	 0.3583386728	-2.789271232	 1.201857196	 0.100012
