19
gdb 40031	3.50121	1.53237	1.42913	2.0476	77.64	-0.2281	0.0735	0.3016	980.2893	0.162662	-382.010117	-382.003351	-382.002407	-382.041103	28.241	
C	 0.0403607804	 1.5356181911	-0.0056092623	-0.29526
N	 1.2566122953	 0.7007686749	 0.0304572475	-0.373899
C	-0.0601236183	 0.0550075347	 0.029695458	 0.369839
C	-0.459796715	-0.7831008753	 1.246140977	-0.287481
C	-1.484630769	-1.7447670334	 0.6538996084	 0.000646
C	-2.7180399183	-1.0154954812	 0.0557320898	-0.25476
C	-1.9886096406	-1.0967659303	-1.2756548599	-0.035622
C	-0.548527667	-0.7381661736	-1.1565893914	-0.121745
N	-0.9797690672	-2.0975894929	-0.7559666474	-0.153598
H	-0.1400857591	 2.1181297389	 0.894400626	 0.116939
H	-0.2206831819	 2.0439480313	-0.9312674637	 0.110035
H	 1.6786276886	 0.6537546189	-0.8944542117	 0.229168
H	 0.4169190995	-1.3248746182	 1.6159346579	 0.120636
H	-0.8673382256	-0.1879518772	 2.0687094697	 0.105116
H	-1.6850363744	-2.6307514082	 1.2547779474	 0.082538
H	-3.6071344585	-1.6496488486	 0.0594337101	 0.111708
H	-2.9795127238	-0.0289109966	 0.4521622297	 0.099131
H	-2.4576806074	-1.2230624216	-2.247391661	 0.090023
H	 0.0272828224	-0.6999176929	-2.0782245339	 0.086586
