17
gdb 84066	2.44324	1.56919	1.06788	2.1344	71.13	-0.2568	-0.0587	0.1981	1124.133	0.135108	-458.996209	-458.987405	-458.986461	-459.029795	32.524	
C	-0.1194089961	 1.5261566198	 0.0458250994	-0.496974
C	-0.0497875396	 0.037483621	-0.0490820633	 0.211021
C	-0.1789352827	-0.7623639652	-1.1204530872	-0.157387
C	 0.0655534988	-2.2321127584	-0.826752204	 0.055475
O	 1.3390276893	-2.616615042	-1.3079471423	-0.442641
C	 0.0251128271	-2.2647894042	 0.7219690857	 0.00584
O	 0.9656652741	-3.1545148774	 1.2735862409	-0.44297
C	 0.3091218987	-0.8127297705	 1.1094378497	 0.291084
O	 0.8140157461	-0.4859065488	 2.1618117186	-0.344618
H	 0.7950714831	 1.9159994173	 0.504989336	 0.153295
H	-0.2489404749	 1.9890045255	-0.9351138845	 0.129947
H	-0.9486918624	 1.838973223	 0.6904404361	 0.141908
H	-0.3806250006	-0.4181953035	-2.1297496716	 0.119644
H	-0.7115956082	-2.8682431363	-1.2734626339	 0.075239
H	 1.7407354559	-3.1183544253	-0.5819341017	 0.293334
H	-0.9922592644	-2.5160518497	 1.0587800746	 0.105836
H	 1.3841568659	-2.6769365653	 2.0061569473	 0.301967
