18
gdb 13981	5.52705	1.18249	1.09759	2.1991	68.59	-0.2321	0.0749	0.307	1129.2889	0.152246	-384.881475	-384.873367	-384.872422	-384.914542	29.698	
C	 0.0771310055	 1.531276431	-0.0245135335	-0.387115
C	 0.1954851876	 0.0203269092	 0.0579588586	-0.057942
O	 0.4215565615	-0.4803238936	-1.2602901405	-0.283099
C	 0.594511842	-1.8391257927	-1.3202951778	 0.363633
C	 1.8592460749	-2.5523520764	-0.8777469867	-0.353096
C	 1.3750369613	-2.6674320094	-2.30055024	 0.012727
O	 0.343471956	-3.6540113408	-2.3988466948	-0.284947
C	-0.5223597091	-2.8646690529	-1.5359268453	-0.141123
H	 0.9948245244	 1.9664691562	-0.4302223763	 0.128278
H	-0.754110192	 1.8175541905	-0.6749227683	 0.129414
H	-0.098291754	 1.953027095	 0.969602954	 0.117368
H	 1.0276838185	-0.2764658678	 0.7127657448	 0.097746
H	-0.7235201733	-0.4193251373	 0.4744042614	 0.094538
H	 2.704882117	-1.8834921363	-0.7461458729	 0.118793
H	 1.8356706708	-3.4207808942	-0.2244956161	 0.113658
H	 1.9499856544	-2.4306917565	-3.1874807101	 0.11461
H	-0.8869367379	-3.4358218372	-0.6744841478	 0.103195
H	-1.3641855975	-2.4533750568	-2.1044472388	 0.113361
