18
gdb 75530	2.14331	1.68406	0.98305	3.5913	77.12	-0.2197	-0.007	0.2127	1188.423	0.148652	-439.12165	-439.1132	-439.112256	-439.154981	31.628	
C	 0.0246632922	 1.5293839894	 0.1350090532	-0.480245
C	-0.0503213403	 0.031183514	-0.0214862428	 0.351206
C	-1.2060859985	-0.6287083178	 0.1201538771	-0.153816
C	-1.4975287238	-2.0904010591	-0.0528164246	-0.14476
O	-0.4759925504	-2.8427422535	-0.6698922427	-0.233043
C	 0.7178066243	-2.9279849	 0.0724989972	-0.201183
C	 1.7065916257	-1.8049992645	-0.2251660546	 0.380053
O	 2.8923773732	-2.0194431083	-0.379915739	-0.353215
N	 1.2106317252	-0.5206517045	-0.3092352661	-0.384925
H	 0.705615118	 1.8080566093	 0.948417972	 0.134682
H	 0.4040786707	 1.9993512429	-0.7813098588	 0.134542
H	-0.958126142	 1.9515413943	 0.3467798902	 0.136997
H	-2.0726251179	-0.0302472969	 0.3854970094	 0.088672
H	-1.7669717569	-2.5419624279	 0.920507404	 0.098213
H	-2.374679808	-2.2085378026	-0.7009286748	 0.122721
H	 0.5183240096	-2.9524708103	 1.1562341562	 0.113575
H	 1.2221764069	-3.8565582259	-0.202714068	 0.141521
H	 1.9508683121	 0.1429064913	-0.4932017981	 0.249004
