17
gdb 8324	5.85594	1.30087	1.29138	3.8865	69.24	-0.2466	0.0381	0.2847	988.4671	0.142932	-363.879177	-363.871924	-363.870979	-363.910848	27.91	
O	-0.4584588328	-0.0324002439	 0.0097670034	-0.36168
C	-0.2689062444	 1.1534254219	 0.0133451151	 0.437313
C	-1.1444929289	 2.4306767343	 0.0332154464	-0.468267
C	 0.2017461159	 3.2162767633	 0.0177015252	 0.423441
C	 0.4451102228	 4.2965535821	-1.0655237708	-0.281429
C	 0.2113559017	 5.3740078251	 0.0295605404	-0.208723
C	 0.4771573173	 4.2844793085	 1.1052153673	-0.281434
N	 0.8728462063	 1.920036865	 0.0005595053	-0.392207
H	-1.7734756886	 2.5550463922	-0.8503568381	 0.129781
H	-1.7470736624	 2.5452169855	 0.9363051829	 0.129782
H	 1.4865706594	 4.286891298	-1.4026190975	 0.103408
H	-0.2060687331	 4.2901757066	-1.9431990115	 0.103962
H	 0.8700542993	 6.2438167438	 0.0246775982	 0.104469
H	-0.8250409963	 5.720651437	 0.0467927664	 0.110756
H	-0.1478176806	 4.2682371373	 2.0016148836	 0.103962
H	 1.5281172345	 4.2712456205	 1.411283618	 0.103404
H	 1.8499756601	 1.6649489727	-0.0148365643	 0.243461
