20
gdb 105196	1.88907	1.51205	1.04321	2.2877	75.86	-0.2441	0.0295	0.2736	1231.3696	0.169216	-440.308136	-440.297962	-440.297018	-440.343023	37.742	
C	-0.1415313663	 1.4222054123	-0.7049070379	-0.383005
C	-0.0746793528	 0.1251078182	 0.1130610287	-0.295942
C	-1.4147146558	-0.5748162359	 0.2802332245	 0.208101
C	-1.9854750135	-1.3223395771	-0.9250669078	-0.350824
C	-1.4532787105	-2.0991451302	 0.233718708	 0.07417
O	-0.2239931181	-2.7565225398	 0.1401802136	-0.424998
C	-2.4724049197	-0.0064764024	 1.1937271688	 0.358461
N	-2.1119734921	 1.0651181696	 1.9622829762	-0.544279
O	-3.5971140422	-0.4778230847	 1.246669665	-0.379296
H	 0.8516872103	 1.8714056352	-0.8034790447	 0.112395
H	-0.5222284947	 1.2255195815	-1.7122125986	 0.121774
H	-0.8034308869	 2.1624203833	-0.2450203374	 0.119526
H	 0.6112367451	-0.5789533143	-0.3650760526	 0.121457
H	 0.370796654	 0.3205463603	 1.0987320075	 0.089118
H	-3.0593332636	-1.2821782152	-1.0604697915	 0.139886
H	-1.3802787434	-1.2972513607	-1.82541148	 0.109752
H	-2.1826278354	-2.5627516043	 0.8944739437	 0.114072
H	-0.328190659	-3.4884581389	-0.4763256863	 0.29174
H	-1.1559174311	 1.3556905246	 2.0613677815	 0.258877
H	-2.7755373243	 1.3638859087	 2.6586265495	 0.259015
