20
gdb 18342	3.11281	2.0517	1.34866	0.2237	83.2	-0.2112	0.0302	0.2413	971.0964	0.178428	-311.865481	-311.857904	-311.85696	-311.897029	29.656	
C	-0.0645194942	 1.4692215802	-0.0464765647	-0.494383
C	-0.0116984811	-0.0206101306	 0.0677965736	 0.147619
C	-1.0081006521	-0.8919477176	 0.2121117201	 0.231212
C	-2.4574263079	-1.1651880131	-0.1280358391	-0.321772
C	-1.9267692748	-2.5034596922	-0.7689371807	-0.236611
C	-0.5985758354	-2.329191109	 0.0537615828	-0.020952
C	 0.8313728147	-2.2319946436	-0.5139321525	-0.239727
C	 1.2962338299	-0.8118676074	-0.0560413531	-0.285011
H	 0.4804907158	 1.9534591174	 0.7748320149	 0.124088
H	 0.4053278553	 1.8173019435	-0.9758449723	 0.118875
H	-1.0939642419	 1.8381287793	-0.023877203	 0.119923
H	-3.0854363654	-1.3655144417	 0.7473206405	 0.106972
H	-2.9766179377	-0.4518899675	-0.7736450219	 0.104203
H	-2.5174301081	-3.4051767528	-0.5879598898	 0.095031
H	-1.7556187853	-2.3898043284	-1.8427641043	 0.102983
H	-0.6449787688	-2.9149963233	 0.9810616593	 0.067388
H	 1.502633778	-3.0286203965	-0.1793830065	 0.089466
H	 0.802076073	-2.2642678205	-1.6093139801	 0.097077
H	 1.9809752997	-0.3480233736	-0.7764879154	 0.094709
H	 1.8415955162	-0.8548347329	 0.8982606422	 0.09891
