17
gdb 44892	3.9373	1.18071	1.09941	2.6985	79.17	-0.2381	-0.0144	0.2238	1123.5808	0.136465	-384.663317	-384.65584	-384.654896	-384.695155	29.831	
O	 0.0262352547	 0.0576142883	 0.0439099554	-0.328938
C	 0.0216334055	 1.2577746754	 0.0193277071	 0.425084
C	-1.1891869617	 2.220871153	 0.0488647329	-0.34605
C	-0.4045028056	 3.5431478481	-0.0106154786	-0.027244
C	 0.6563041194	 3.2442447732	-1.1074660355	-0.250468
C	 1.19558223	 2.224309366	-0.0503099485	-0.124659
C	 0.7338229344	 3.2763889691	 1.0415460528	-0.196179
C	 1.6567034366	 4.3670376556	 1.2738812407	 0.296109
C	 2.4188305619	 5.2726956643	 1.4873519851	-0.420914
H	-1.8429990382	 2.0599848232	-0.8135215727	 0.127891
H	-1.781487445	 2.0865704302	 0.9592208487	 0.126907
H	-0.9664469578	 4.4751556542	 0.0085786896	 0.084577
H	 0.3087238107	 2.8492865811	-2.065634168	 0.106251
H	 1.3517494493	 4.0692576862	-1.2615664766	 0.130938
H	 2.1980392665	 1.8044493826	-0.0676873554	 0.093285
H	 0.4064584603	 2.8513029805	 1.996754207	 0.106889
H	 3.092145039	 6.0715467289	 1.6776061161	 0.196521
