18
gdb 116699	8.27279	0.58891	0.57251	5.1688	80.21	-0.2345	-0.0142	0.2203	1896.3464	0.144726	-439.083851	-439.074314	-439.07337	-439.11976	33.178	
C	 0.0074854549	 1.5828143664	 0.2804423725	-0.251051
O	 0.0481204973	 0.1891068455	-0.0065599237	-0.19106
C	 0.6044920972	-0.5853354021	 0.940738613	 0.125535
N	 0.6888664227	-1.8324733877	 0.7826150262	-0.214161
C	 1.2947501619	-2.6040809461	 1.8332640914	 0.037012
C	 0.4561795652	-3.8300122374	 2.3213299773	-0.349468
C	 1.7125105431	-4.6937320574	 2.1407956296	 0.394414
O	 2.037291217	-5.7794433151	 2.5241182002	-0.290892
C	 2.4289800177	-3.5755619065	 1.3705152861	-0.349469
H	 1.0152219133	 1.9951565849	 0.4107415731	 0.129844
H	-0.4644082734	 2.0585667538	-0.5796740271	 0.15027
H	-0.5883635837	 1.7904347011	 1.1773386726	 0.129876
H	 0.9624426684	-0.0404967357	 1.8288716033	 0.076649
H	 1.6260999048	-1.9901997907	 2.6850492007	 0.06543
H	 0.0092065869	-3.7959777426	 3.3176090918	 0.1244
H	-0.3140372764	-4.0907301465	 1.5877534605	 0.144137
H	 2.3797562654	-3.7432925845	 0.2894074881	 0.144138
H	 3.4596997977	-3.3509048892	 1.6545176344	 0.124397
