19
gdb 51864	4.26173	0.90324	0.7816	3.7248	78.85	-0.2412	-0.0181	0.2231	1441.7459	0.158906	-423.04091	-423.032194	-423.03125	-423.075536	31.737	
O	-0.0576101759	-0.0606942106	 0.0417632096	-0.243647
C	-0.006856597	 1.1369864119	-0.0826485082	 0.151557
C	 1.2823412545	 1.933032543	-0.1017214048	-0.291781
C	 1.3415975293	 2.9420005284	-1.2605653972	 0.071979
O	 0.2563586189	 3.8375856997	-1.0700360643	-0.268152
C	 0.3313845658	 4.9933954603	-1.8914407566	-0.07796
C	 1.5408499515	 5.85114638	-1.515958226	-0.256762
C	 2.7628802731	 4.9789829051	-1.4001010042	-0.072932
C	 2.6697815702	 3.6543508077	-1.3132188507	-0.066066
H	-0.9279285001	 1.747251822	-0.1896798613	 0.097365
H	 1.3472458203	 2.5015577691	 0.8357229023	 0.131399
H	 2.122571427	 1.2349221789	-0.1451161799	 0.118624
H	 1.1965822978	 2.3902392833	-2.2095829469	 0.084273
H	 0.3956132925	 4.7013268358	-2.9519397146	 0.095261
H	-0.6088235184	 5.5316751883	-1.7452394674	 0.109903
H	 1.6949368359	 6.6279350613	-2.2755995596	 0.107557
H	 1.3557685787	 6.3781141255	-0.5700867157	 0.118535
H	 3.7368596532	 5.4609576286	-1.4041670417	 0.094941
H	 3.5558748827	 3.0265169219	-1.2722743628	 0.095906
