16
gdb 125978	3.79873	1.26422	1.06812	2.0949	71.03	-0.2378	-0.0173	0.2205	1119.1838	0.125222	-434.039436	-434.03176	-434.030816	-434.072214	28.194	
C	-0.2923316112	 1.3377732903	 1.0156928558	-0.406514
C	-0.0120567017	-0.0616218055	 0.5260729448	 0.011277
C	 0.2411450208	-0.3345580953	-0.9225170743	-0.24547
N	 1.3190008831	-0.4498684521	 0.0499064698	-0.14962
C	 2.395326037	 0.405818924	 0.0353387025	 0.42218
N	 2.8849891302	 0.9604544682	 1.1237430426	-0.215937
O	 4.019340804	 1.6452645021	 0.6418758739	-0.154046
C	 4.0630648676	 1.4150076155	-0.6665024966	 0.119987
N	 3.1087756825	 0.6698600737	-1.1210270426	-0.315741
H	 0.1217213047	 2.0921300785	 0.3413176885	 0.126892
H	-1.3738169929	 1.4938815341	 1.0814088649	 0.124494
H	 0.1416377829	 1.5011438777	 2.0063884555	 0.150779
H	-0.4845711098	-0.8511731438	 1.1067916781	 0.106366
H	-0.0723181764	-1.2700942763	-1.3763616138	 0.127463
H	 0.2655805022	 0.5182937454	-1.5961456253	 0.133817
H	 4.8762866268	 1.8637838736	-1.2187711436	 0.164073
