16
gdb 78786	2.6943	1.77815	1.34627	4.0349	68.07	-0.2432	0.0028	0.246	957.548	0.123036	-437.840298	-437.832288	-437.831344	-437.872581	30.263	
C	 0.0715426037	 1.6012509237	-0.0158437356	-0.519258
C	 0.0795116757	 0.1023025393	-0.0792564334	 0.133482
C	 0.6290797228	-0.8866100095	-1.195174302	-0.080776
C	 0.8845557119	-1.854623635	-0.1289513421	-0.085312
C	 0.8729718294	-0.7603193712	 0.9516425659	 0.079258
O	 2.1401179428	-0.1851468031	 1.161897744	-0.431982
N	-0.4615602665	-1.8861248461	-0.8128714507	-0.212442
C	-1.1748739071	-0.7492921624	-0.2292334006	 0.403563
O	-2.3481437185	-0.5802025732	-0.1230489926	-0.319202
H	 1.0878997535	 1.9898973526	 0.0858135774	 0.143466
H	-0.3869210386	 2.031572196	-0.9109275459	 0.132628
H	-0.5105564576	 1.935315445	 0.8492613138	 0.139186
H	 0.9422654716	-0.7638974134	-2.2208222262	 0.127893
H	 1.440638554	-2.7840459517	-0.1470053185	 0.11325
H	 0.3640571841	-0.9782386028	 1.9016409003	 0.083554
H	 2.6423360487	-0.7577410084	 1.7507615162	 0.292693
