22
gdb 75470	2.66138	1.36725	0.95262	1.035	89.31	-0.2248	0.0316	0.2565	1285.7994	0.194781	-367.200149	-367.191238	-367.190294	-367.233863	34.122	
C	-0.5268494139	 1.5634649462	 0.6138198505	-0.499184
C	-0.2425339988	 0.1514424341	 0.2105464607	 0.347202
C	-0.336606621	-0.3754882507	-1.0113019926	-0.171294
C	-0.0068934453	-1.8467309997	-1.0468707417	-0.258705
C	 0.6378652165	-2.0824364965	 0.3399671046	-0.222585
C	 0.1571034205	-0.909481828	 1.2252916504	-0.039884
N	 1.21395595	-0.4571282454	 2.1339287986	-0.069831
C	 0.7868850801	 0.127230964	 3.4023782116	-0.224045
C	 1.3774990243	-1.2364732662	 3.3584835645	-0.219298
H	 0.3527488274	 2.0223372347	 1.0794068825	 0.138183
H	-0.817734657	 2.173151874	-0.2460881388	 0.118361
H	-1.3365786611	 1.6139241346	 1.353813811	 0.117
H	-0.6510645007	 0.1750067339	-1.8927163956	 0.08188
H	-0.9160548957	-2.4503283877	-1.1811778486	 0.101476
H	 0.6615759556	-2.1173306638	-1.8723792738	 0.101238
H	 0.4028382936	-3.0613265648	 0.7656666514	 0.090007
H	 1.7265257414	-2.0049333111	 0.2609981136	 0.115268
H	-0.739013665	-1.2058537371	 1.809797509	 0.049744
H	 1.3702183462	 0.9731484568	 3.7545640516	 0.114551
H	-0.2817932281	 0.197330215	 3.6009729564	 0.108172
H	 0.7007832929	-2.0736082702	 3.5248317206	 0.107505
H	 2.4011787278	-1.4090449123	 3.6777182941	 0.114241
