17
gdb 18333	3.22085	2.30509	1.57176	3.754	67.55	-0.2349	0.0331	0.268	829.5588	0.145415	-363.900792	-363.894086	-363.893142	-363.931796	25.983	
O	-0.1531046381	 0.1601325265	 0.6283953087	-0.387576
C	-0.0824760602	 1.3108837924	 0.2533950486	 0.398183
N	-1.1416132156	 2.1706423903	 0.1078526145	-0.302527
C	-0.8366313238	 3.4806544059	-0.4420951588	-0.186463
C	 0.695674813	 3.5434681507	-0.3230779619	-0.006332
C	 1.2848006846	 3.894709895	 1.0773254462	-0.228268
C	 2.026882074	 2.5274391568	 1.1016654016	-0.219893
C	 1.1841642129	 2.0814330185	-0.1239267915	-0.134508
H	-2.0808676031	 1.8348887691	 0.2516022042	 0.248993
H	-1.1700629071	 3.5674618931	-1.4859748976	 0.104614
H	-1.3232597514	 4.2796649644	 0.1306682446	 0.109891
H	 1.1535292083	 4.0987797509	-1.1420930315	 0.076016
H	 1.909931929	 4.7888131599	 1.1247976663	 0.102557
H	 0.5108223256	 3.9755069408	 1.8460291589	 0.107996
H	 3.0871338548	 2.621499531	 0.8553193639	 0.105181
H	 1.9308193978	 1.9146418459	 2.0005317794	 0.118905
H	 1.7057794391	 1.5608605687	-0.9294045156	 0.093231
