16
gdb 103405	2.48794	1.52415	1.3247	3.0484	64.85	-0.2346	-0.03	0.2046	1014.0742	0.123294	-474.973606	-474.96527	-474.964326	-475.006505	31.439	
O	 0.0335019836	 1.3927435213	-0.0861356382	-0.432158
C	 0.0925429528	-0.0334273135	-0.1162518453	-0.147686
C	-1.3293620516	-0.5640499108	-0.0230110374	 0.31975
O	-2.1411914667	-0.0028280788	-1.0268082075	-0.483899
C	-1.6251129667	-2.0643187753	 0.113370384	-0.113878
N	-0.95288925	-2.4941123236	 1.3431239896	-0.343682
C	-2.3306998555	-1.8894717126	 1.4329338244	-0.194872
C	-2.0558341498	-0.403744439	 1.3732324427	 0.401833
O	-2.3810563863	 0.5585087472	 2.0076882989	-0.327606
H	-0.3089483603	 1.649769995	 0.7794336508	 0.302446
H	 0.5359309721	-0.2987074888	-1.0818912305	 0.11639
H	 0.7163838962	-0.4429836149	 0.6857413727	 0.121965
H	-1.8596764697	 0.9218692769	-1.0877921757	 0.294219
H	-1.8800978122	-2.7377503952	-0.6937027629	 0.118351
H	-1.0847234461	-3.5007022907	 1.4395385058	 0.247754
H	-3.1480334495	-2.4406329472	 1.8795779487	 0.121074
