16
gdb 2691	9.32709	1.0204	0.96464	2.6277	62.32	-0.2554	0.0191	0.2745	1201.8264	0.13495	-362.899954	-362.891472	-362.890528	-362.933845	28.43	
C	 0.0227768641	 1.3071318034	 0.1231037626	-0.315118
N	 0.0261396387	-0.1206075432	-0.1167776811	-0.202365
C	-1.0571601794	-0.7367989187	 0.0413483629	 0.135373
O	-1.1225919862	-2.0714250157	-0.1542783152	-0.220923
C	-2.4069754122	-2.6823867428	 0.004123466	-0.088665
C	-2.1608020497	-4.1813465322	 0.0639964914	-0.059628
O	-1.3432442817	-4.531772141	 1.1594047731	-0.417749
H	 0.7476291794	 1.5493718176	 0.908560986	 0.129841
H	 0.3483737592	 1.832113497	-0.7820604436	 0.129742
H	-0.958697797	 1.7101285656	 0.4225954728	 0.096608
H	-2.0100899688	-0.2751939823	 0.3444782761	 0.075997
H	-2.8735385129	-2.3399396423	 0.9365432507	 0.11522
H	-3.0595896719	-2.4248260553	-0.8411616921	 0.107561
H	-3.1166484977	-4.6989696349	 0.1945703644	 0.114491
H	-1.7260026577	-4.511173747	-0.8923356251	 0.103488
H	-0.5351157562	-4.0127438382	 1.0722621212	 0.296128
