15
gdb 61095	3.84504	0.76652	0.66281	3.2262	70.72	-0.2896	-0.0448	0.2448	1596.1719	0.110047	-453.975911	-453.966404	-453.965459	-454.011489	31.859	
C	 0.4271345689	 1.0745025101	-0.7740049081	-0.377994
C	 0.0721209244	-0.3013110009	-0.1826629298	-0.067703
N	 1.2288370561	-0.8433261836	 0.5189801771	-0.254467
C	 1.152987668	-1.1633229411	 1.7343720695	 0.152599
O	 2.2075802322	-1.6608671144	 2.4376106434	-0.198087
C	 3.2916514025	-2.1849635939	 1.7600180639	 0.184786
O	 4.2817418809	-2.4827612183	 2.344805625	-0.238842
C	-1.1575365081	-0.2161134046	 0.6320897093	 0.251834
N	-2.0972097405	-0.1602275926	 1.3028523949	-0.319894
H	 1.3229975974	 0.9734692541	-1.3898905556	 0.143626
H	-0.3943849701	 1.4513239835	-1.3877442658	 0.141437
H	 0.6285456572	 1.7915201276	 0.0253521974	 0.144639
H	-0.1437630123	-0.9856093181	-1.0129424723	 0.147919
H	 0.279448735	-1.0759219185	 2.3839252954	 0.156298
H	 3.1001345885	-2.2957736892	 0.6855918158	 0.133851
