21
gdb 60131	2.84973	1.02061	0.90711	2.0281	74.98	-0.2379	0.0406	0.2784	1379.8697	0.180561	-461.335823	-461.32573	-461.324786	-461.370705	38.09	
C	-0.0589489248	 1.5254630953	 0.1813661471	-0.387718
C	-0.061394296	-0.0052874319	 0.1579494037	 0.154088
O	 0.2819234672	-0.5256451678	 1.4370065257	-0.448721
C	-1.39985955	-0.556434179	-0.3619017154	-0.241569
C	-1.4855072931	-2.0686979297	-0.3380875402	-0.079694
C	-1.8147062143	-2.8110269886	 0.9330459588	 0.009867
O	-2.1437880713	-1.9932819589	 2.0414926393	-0.425108
C	-2.8198023952	-2.7878828363	-0.1930991782	 0.073516
O	-3.994495342	-2.0616654885	 0.0009063849	-0.428426
H	 0.8969718055	 1.8918556682	 0.5649746964	 0.11929
H	-0.2142826896	 1.9413700569	-0.8204115225	 0.104151
H	-0.8537102246	 1.90204839	 0.8355423141	 0.107146
H	 0.73785429	-0.3426121133	-0.5185184018	 0.07193
H	-0.5313637451	-0.7398001683	 1.911141244	 0.28741
H	-2.217191466	-0.1251680792	 0.2260524625	 0.097868
H	-1.5524322277	-0.2048226373	-1.3894102933	 0.104828
H	-0.7539373535	-2.5722256162	-0.9657094702	 0.091474
H	-1.2620981824	-3.7113045722	 1.1877188564	 0.099139
H	-2.4881006035	-2.5565805843	 2.7425748334	 0.303308
H	-2.9928643113	-3.6871661168	-0.7768271864	 0.101937
H	-3.9317128924	-1.6746767621	 0.8845109215	 0.285286
