19
gdb 2294	7.80496	1.31416	1.21047	0.9383	68.71	-0.2429	0.0879	0.3308	1043.0122	0.171288	-310.906553	-310.898654	-310.89771	-310.939067	28.476	
C	 0.2585461768	 1.4137516821	-0.1438642661	-0.384102
C	-0.0119796218	-0.0404846431	 0.2038856404	-0.039885
O	-1.2910235141	-0.3908739066	-0.2901388439	-0.25144
C	-1.6385658634	-1.7279311738	-0.060030648	 0.183428
C	-2.0883989406	-2.1687081528	 1.3647820775	-0.245526
C	-3.2132076905	-2.9975512337	 0.6844768842	-0.217649
C	-3.0270052698	-2.1316230062	-0.5923303374	-0.249787
H	 1.243964466	 1.7179096056	 0.2217490338	 0.112448
H	 0.2280914237	 1.560309719	-1.227291134	 0.125693
H	-0.4958594288	 2.0629034903	 0.309774125	 0.125371
H	 0.7568760855	-0.694866096	-0.2416997007	 0.083503
H	 0.0329220391	-0.1898057253	 1.2949746128	 0.088488
H	-0.8511091278	-2.3991583392	-0.4405604249	 0.058885
H	-1.3722923373	-2.6922333445	 2.002466985	 0.09238
H	-2.4957368863	-1.3102340778	 1.9074578169	 0.106007
H	-2.9124312069	-4.0361225533	 0.5215862249	 0.103021
H	-4.197387149	-2.9931455976	 1.1564403282	 0.101008
H	-3.6872725876	-1.2598633991	-0.5861632256	 0.112066
H	-3.0825019771	-2.6161338479	-1.5694631582	 0.096092
