23
gdb 64484	2.54552	1.42139	1.18927	0.6673	82.	-0.2404	0.0921	0.3325	1187.3377	0.205253	-425.446028	-425.436647	-425.435702	-425.479382	36.824	
C	 0.0174573153	 1.5109254689	 0.0411697356	-0.412778
C	 0.0296291995	-0.019972729	-0.0046978427	 0.399787
C	-1.3940304613	-0.5843318792	-0.030056269	-0.412811
O	 0.6386902773	-0.5098967665	-1.1889683102	-0.277584
C	 2.055789	-0.408716532	-1.2936059617	-0.075944
C	 2.733999169	-1.6885162801	-0.7987293934	-0.187132
C	 2.6085729526	-1.9070655744	 0.713744949	-0.187129
C	 1.1776291837	-1.7674634339	 1.2387764972	-0.075952
O	 0.7359775695	-0.4153496395	 1.1607163058	-0.277582
H	 1.034669573	 1.9088460762	 0.0530915854	 0.119073
H	-0.5083007696	 1.9044259867	-0.831954793	 0.118324
H	-0.4866960779	 1.854688545	 0.9477511947	 0.12319
H	-1.919843777	-0.2348882579	-0.9220439534	 0.123206
H	-1.3803030489	-1.6762610089	-0.0564829943	 0.119072
H	-1.9392452765	-0.2568071507	 0.8582471911	 0.11833
H	 2.2688523277	-0.2604564223	-2.3578120169	 0.099557
H	 2.4382118141	 0.466232104	-0.7536986692	 0.100245
H	 2.2829466119	-2.5314925907	-1.3369780745	 0.102652
H	 3.7935565944	-1.6613309562	-1.0828832991	 0.090509
H	 2.987775064	-2.9024975742	 0.97730438	 0.090509
H	 3.2302211308	-1.1789002154	 1.2495597156	 0.102652
H	 0.5005255055	-2.4440859009	 0.703065095	 0.100249
H	 1.1414212729	-2.0347631091	 2.3004487879	 0.099559
