23
gdb 118499	1.86767	1.24761	0.90746	2.171	82.29	-0.2453	0.0722	0.3175	1430.6407	0.204106	-425.402504	-425.391951	-425.391007	-425.438991	38.159	
C	-0.4582150504	 1.39342261	 1.178640194	-0.386811
C	-0.6317403696	-0.1129436792	 1.2732125587	-0.041242
O	-1.1300563123	-0.5842185807	 0.030516902	-0.269955
C	-1.3463565108	-1.9946174351	-0.0448417634	 0.057444
C	-2.7601106823	-2.3074138437	 0.4687401928	-0.061053
O	-3.7425622538	-1.5578396744	-0.214512898	-0.420321
C	-1.1321574155	-2.4381966023	-1.4795642407	 0.025203
C	-1.4162567118	-1.5266579102	-2.6430027735	-0.243631
C	 0.0070191372	-1.8944478892	-2.3022528163	-0.28288
H	-0.0572938355	 1.7886601603	 2.1166859884	 0.118877
H	 0.2311314843	 1.6505980043	 0.369494386	 0.129351
H	-1.4166283015	 1.8820277892	 0.9801010163	 0.124838
H	 0.3302848385	-0.6013989518	 1.4945189684	 0.095308
H	-1.3209180963	-0.3672216061	 2.0927198101	 0.095539
H	-0.617636781	-2.5115054224	 0.6013496259	 0.066563
H	-2.9872003152	-3.3680269366	 0.3126589084	 0.103168
H	-2.8016781981	-2.123676538	 1.5558241823	 0.078525
H	-3.3819533827	-0.6654150988	-0.2853252769	 0.28496
H	-1.3711439161	-3.4880601607	-1.6261855029	 0.082405
H	-1.8710877203	-1.9573730501	-3.5277092737	 0.107597
H	-1.7271060557	-0.5135474475	-2.4215736746	 0.117782
H	 0.6186659546	-1.1207797136	-1.8523032583	 0.112991
H	 0.5419342344	-2.5776985334	-2.952672555	 0.105341
