25
gdb 88973	3.17514	0.8091	0.72715	0.1767	93.39	-0.2533	0.0895	0.3428	1708.7596	0.228299	-352.336409	-352.326048	-352.325103	-352.372412	38.887	
C	 0.0095097465	 1.4915654041	-0.2663103199	-0.402498
C	 0.1462289974	-0.0052919807	-0.0865453972	-0.009275
C	 1.5038425686	-0.661675514	 0.0099062213	-0.286569
C	 0.5881241178	-0.6445339533	 1.211922	 0.023989
C	 0.9283509001	 0.1519485532	 2.4589841662	-0.241693
C	 1.7542587578	-0.6523857478	 3.4470065656	 0.023929
C	 3.2639011946	-0.6747232779	 3.3824720307	-0.286548
C	 2.5695244367	-0.0216646539	 4.5549117491	-0.009281
C	 2.6444906748	 1.4738127481	 4.7774221751	-0.402509
H	 0.8004177233	 2.0415649123	 0.2516184104	 0.114103
H	 0.0681600569	 1.7611098497	-1.3268376284	 0.114185
H	-0.9513980232	 1.8562845839	 0.1147119145	 0.114035
H	-0.6024976549	-0.5732770072	-0.6340370112	 0.078122
H	 1.6794292325	-1.5974209955	-0.5098919432	 0.104223
H	 2.3691136953	-0.0053541946	 0.0369984642	 0.103448
H	 0.1030708359	-1.5929859214	 1.4350917828	 0.075014
H	 1.4645990093	 1.0648511993	 2.1824047321	 0.090633
H	-0.0017584993	 0.4797036339	 2.945437831	 0.093532
H	 1.2904394685	-1.6004808439	 3.712776791	 0.075023
H	 3.7873550809	-1.6131479521	 3.5307851982	 0.104219
H	 3.7386011716	-0.0165126431	 2.6602566916	 0.103462
H	 2.5887600087	-0.594398279	 5.4793323837	 0.078124
H	 2.6731851411	 2.0285219897	 3.835211816	 0.114104
H	 1.784217603	 1.838793511	 5.3503594159	 0.114035
H	 3.5494710964	 1.7371703693	 5.3364107404	 0.114191
