20
gdb 78274	2.51134	1.41822	1.12317	2.7092	79.54	-0.2161	0.0657	0.2818	1180.8259	0.169196	-403.051243	-403.042207	-403.041263	-403.084307	35.017	
C	 0.0779609135	 1.3475392089	 0.8875965825	-0.415983
C	 0.1316988336	-0.1132306338	 0.5047594538	 0.011457
C	 0.9789438744	-0.5143984961	-0.6457358145	-0.139017
N	 1.4407676725	-0.7447620003	 0.7710006977	-0.146329
C	 1.4159971024	-2.2288854921	 0.4780152375	-0.104422
C	 0.1848195105	-2.907086593	-0.1390011404	-0.083125
C	-1.3129849159	-2.8411823081	 0.148112714	-0.44118
C	 1.0687499618	-2.0260095789	-0.9721939607	 0.344834
O	 1.7677482822	-2.4533046935	-2.0875860039	-0.451592
H	 1.0237964147	 1.8434654606	 0.6529433038	 0.129937
H	-0.7278701127	 1.8595610792	 0.3510797272	 0.115433
H	-0.1019366474	 1.455705562	 1.9618798447	 0.124997
H	-0.7631594106	-0.6696518679	 0.7424625242	 0.089565
H	 1.4942140413	 0.2097764623	-1.2706377594	 0.09863
H	 2.1905558362	-2.8214678607	 0.948692156	 0.107016
H	 0.5111030414	-3.9327826886	-0.3168952414	 0.101572
H	-1.8057805589	-2.0161503028	-0.3722189426	 0.128417
H	-1.7901210462	-3.7657290526	-0.1925101087	 0.112891
H	-1.5261737731	-2.7454919312	 1.2179384813	 0.131261
H	 1.1387544704	-2.5855641635	-2.8059133709	 0.285637
