18
gdb 52112	5.49578	0.72599	0.69118	0.9103	73.48	-0.2308	-0.0304	0.2004	1587.2772	0.145898	-439.025391	-439.016596	-439.015651	-439.060153	31.74	
O	-0.3768841051	 0.1278105285	 0.3551346945	-0.233942
C	-0.0790928402	 1.1976936649	-0.1060040527	 0.147865
C	 1.33420517	 1.756246201	-0.1419233526	-0.239914
N	 1.5311556878	 2.5809438754	-1.3284919078	-0.398326
C	 2.623318376	 3.4817506242	-1.2886420133	 0.294703
C	 2.5201522999	 4.8127168984	-0.5659306543	-0.315188
C	 2.8531957168	 4.7815545869	-2.0274258652	 0.029804
O	 4.243539631	 4.5145802248	-2.2204334787	-0.281838
C	 4.1045565768	 3.2100444036	-1.5966401639	-0.132229
H	-0.8351837143	 1.886521524	-0.5467887464	 0.084833
H	 1.4351180866	 2.4095198207	 0.7365648415	 0.141138
H	 2.046232751	 0.9274452171	-0.0122593165	 0.1169
H	 1.5564981218	 2.0105317532	-2.1671921863	 0.227744
H	 1.4988195958	 5.09831871	-0.3351198993	 0.1214
H	 3.2753213204	 5.1258692992	 0.1495997919	 0.116919
H	 2.3117131062	 5.2931004596	-2.8140941006	 0.112724
H	 4.7963220418	 3.0691261169	-0.7577061329	 0.10608
H	 4.2511887377	 2.4127681818	-2.3370273375	 0.101325
