16
gdb 34240	3.36556	1.59851	1.38041	3.3522	73.21	-0.2652	0.0132	0.2784	938.9081	0.126745	-400.721423	-400.71495	-400.714006	-400.752209	26.374	
N	 0.0270729915	-1.174338102	 0.0143718939	-0.346461
C	-0.022756169	-0.0178146751	 0.0200714488	 0.170349
C	-0.0772515918	 1.41441983	 0.0210779708	 0.190741
C	-1.0852045862	 2.2678878975	 0.8116803563	-0.290083
C	-0.5516764107	 3.3843647682	-0.1111089515	 0.05307
O	 0.7948662952	 3.5452403741	 0.3654480488	-0.259971
C	 1.2895636867	 2.2668168654	-0.028188083	 0.04287
C	 1.1761325644	 2.3139475526	-1.5663429627	-0.25044
C	-0.3257202203	 2.315879731	-1.2615101747	-0.097304
H	-2.1091328457	 1.9694033272	 0.5753303141	 0.1225
H	-0.9455907157	 2.4001620941	 1.8859757506	 0.122114
H	-1.0419256543	 4.3441894485	-0.2532861967	 0.096951
H	 2.1856020501	 1.9894371993	 0.5221077465	 0.10376
H	 1.6294213959	 3.1749029367	-2.0613043456	 0.113836
H	 1.4787091707	 1.3780739513	-2.0420712845	 0.128098
H	-1.1220657207	 2.120900171	-1.9755379711	 0.099971
