18
gdb 51318	3.6924	1.09756	0.87466	2.3018	77.68	-0.2172	-0.0159	0.2013	1294.3271	0.150596	-435.29925	-435.291062	-435.290118	-435.332532	30.525	
O	 0.3968983947	 2.6501301061	-0.9099743169	-0.305374
C	 0.0597194814	 1.8069872826	-0.1098434942	 0.157256
N	 0.8602109098	 0.851268522	 0.457884439	-0.33939
C	 2.2354482439	 0.6034863044	 0.2866011037	 0.377728
N	 2.6989943842	-0.3589282356	 0.9778362101	-0.29592
C	 4.1035659164	-0.7234511443	 0.8301009948	-0.149615
C	 4.7573570186	-0.1719198681	-0.4401637381	-0.177594
N	 4.4508017693	 1.2439993936	-0.6419862103	-0.285037
C	 3.0107867949	 1.4733675441	-0.6909589257	-0.262392
H	-0.9791256859	 1.7145699147	 0.2624426466	 0.09114
H	 0.4302148444	 0.2089446119	 1.1115369441	 0.25505
H	 4.6439100385	-0.3663557947	 1.719725838	 0.104204
H	 4.1705230887	-1.8185201078	 0.8598390008	 0.107016
H	 5.843422461	-0.3070459701	-0.4093631364	 0.104145
H	 4.3880120113	-0.7221904519	-1.3154937166	 0.110616
H	 4.8461327338	 1.7805967021	 0.1242292442	 0.219232
H	 2.6315728911	 1.278958397	-1.703296763	 0.140793
H	 2.7925942737	 2.5261721339	-0.5052991901	 0.148141
