21
gdb 59736	2.52865	1.34239	0.92645	4.0679	78.31	-0.2605	0.014	0.2745	1295.5766	0.182791	-424.286494	-424.277318	-424.276374	-424.320529	34.392	
C	 0.009550906	 1.5557078153	-0.015450237	-0.395117
C	 0.0747456302	 0.0248930123	 0.0915862128	 0.024763
C	 0.6957993964	-0.3903559674	 1.4336236127	-0.403136
C	-1.3178143833	-0.6052960963	-0.1109885369	-0.136449
C	-2.1058111169	-0.1583659426	-1.3526801166	-0.257694
C	-3.0270018565	-1.3561419497	-1.6009858165	-0.092743
O	-2.292443841	-2.502278303	-1.1411041036	-0.217495
C	-1.3043608876	-2.1312893767	-0.2814586653	 0.445344
O	-0.5772409732	-2.9410642436	 0.2201159161	-0.338727
H	 1.0020624909	 1.9903632999	 0.1393654469	 0.11669
H	-0.3503260963	 1.8914531435	-0.9925545879	 0.11215
H	-0.6558171461	 1.9738792794	 0.7497628255	 0.111828
H	 0.7210921966	-0.3467741379	-0.7158743339	 0.081414
H	 1.7019592608	 0.029376274	 1.5337785144	 0.106838
H	 0.0955643239	-0.0092459312	 2.269404196	 0.104146
H	 0.7571714158	-1.4753252036	 1.5216942135	 0.15653
H	-1.9231602528	-0.4075690567	 0.7875257869	 0.104566
H	-2.6600625636	 0.7715890311	-1.2151337103	 0.116868
H	-1.4246266152	-0.025789155	-2.2009082403	 0.118646
H	-3.9596356775	-1.2834844475	-1.0281068697	 0.11567
H	-3.2745058904	-1.5188624643	-2.6519939969	 0.125908
