17
gdb 29530	3.04476	1.57968	1.06137	0.9755	75.54	-0.1809	0.0343	0.2152	1097.2043	0.139441	-418.01212	-418.004464	-418.00352	-418.044151	29.695	
N	 0.0231164007	 1.4384419447	-0.1712919317	-0.614909
C	 0.0255681276	 0.0420127073	-0.0413507772	 0.084396
C	-1.0342369116	-0.8289079026	-0.005345224	-0.110781
O	-0.6089885636	-2.1434919138	 0.0507703031	-0.209108
C	 0.7382288116	-2.0772706599	 0.0482510315	 0.323859
C	 1.1810235777	-0.8041249713	-0.0107397448	 0.183411
N	 2.5950891537	-0.6872457349	 0.034305952	-0.426766
C	 3.0449036306	-2.0994295465	 0.2842569495	-0.161403
C	 1.8375888503	-3.0838587008	 0.0455203182	-0.360961
H	 0.7654085038	 1.8662296797	 0.3693633904	 0.249718
H	-0.860957973	 1.8565504461	 0.0890525261	 0.242325
H	-2.1011791366	-0.68305559	-0.0053484171	 0.116451
H	 2.9649544069	-0.3462285764	-0.8489402946	 0.228102
H	 3.9106748496	-2.3372884594	-0.3378080025	 0.106849
H	 3.3573543664	-2.1702625833	 1.330882782	 0.120378
H	 1.7839574016	-3.8290839393	 0.845193802	 0.117941
H	 1.9098241045	-3.6319302096	-0.904811143	 0.110499
