15
gdb 14313	5.51523	1.73093	1.43144	3.8214	71.32	-0.2383	-0.0316	0.2067	854.939	0.120989	-362.654558	-362.648378	-362.647433	-362.684746	24.47	
N	-0.0705066298	 1.2560842955	 0.2053815156	-0.543818
C	-0.03401893	 0.0142106869	-0.0286277385	 0.404722
O	 1.124590888	-0.688528904	-0.3641977578	-0.262092
C	 0.7591930519	-2.0324118705	-0.6172579521	 0.075504
C	 0.9291894228	-3.2330401266	 0.3893525492	-0.258251
C	-0.5912808862	-3.5816798055	 0.1377538139	-0.30875
C	-0.6920816095	-2.1402448794	-0.3035552383	 0.224549
C	-1.1497066335	-0.9510967137	 0.0909850989	-0.28744
H	 0.8603536289	 1.6661641407	 0.121364115	 0.22369
H	 1.0822844356	-2.3134837224	-1.6251109938	 0.103779
H	 1.6682521136	-3.9928015039	 0.1276124877	 0.114926
H	 1.0888912999	-2.873942541	 1.4069105403	 0.132617
H	-0.7088459355	-4.306414409	-0.6726409789	 0.12683
H	-1.1972787321	-3.8887295491	 0.9905491588	 0.128661
H	-2.079316934	-0.6848641678	 0.57184313	 0.125073
