20
gdb 47092	2.71257	1.64276	1.10009	4.0053	79.39	-0.233	0.0359	0.2689	1117.4523	0.174993	-403.216774	-403.209111	-403.208167	-403.249179	29.763	
O	 0.1494498584	 0.0598213695	 0.3053981111	-0.388351
C	 0.0215097078	 1.2410472029	 0.0579082007	 0.380723
C	-1.2798095145	 2.0521443344	-0.0272721947	-0.329271
C	-0.8275086179	 3.5007569674	 0.2487451589	-0.250637
C	 0.6395590061	 3.525922327	-0.2329092499	 0.049468
C	 1.7154291741	 4.2042861058	 0.6286456957	-0.229432
C	 2.974203345	 3.3637886814	 0.3234300437	-0.224793
C	 2.4451247346	 1.9200059403	 0.1356202253	-0.162942
N	 1.038900708	 2.1188244941	-0.1932089948	-0.059776
H	-1.7025295953	 1.9399531346	-1.0326468048	 0.125617
H	-2.0130503745	 1.6648922768	 0.6818677533	 0.127832
H	-1.4441534061	 4.2530650237	-0.2477844581	 0.106098
H	-0.861570821	 3.7016425707	 1.3251429594	 0.109307
H	 0.6973288513	 3.9106422316	-1.2631251297	 0.07543
H	 1.8466688996	 5.2652577406	 0.4022443329	 0.104442
H	 1.4444101877	 4.1141393139	 1.6872267261	 0.104693
H	 3.4386997696	 3.7129306759	-0.6047473976	 0.110216
H	 3.7303106907	 3.4278509758	 1.1092069019	 0.110346
H	 2.9790552934	 1.3860862782	-0.6573650611	 0.116726
H	 2.522168923	 1.3138774053	 1.0453673415	 0.124303
