19
gdb 9825	3.71949	1.43081	1.15764	2.5696	72.42	-0.2502	-0.0197	0.2305	1093.2996	0.163947	-365.06858	-365.059536	-365.058592	-365.102361	32.742	
C	-0.1712234056	 1.6032431644	 0.3342822722	-0.378242
C	-0.3475537425	 0.1163856976	 0.6320155856	-0.293789
C	-1.2953111254	-0.5825165254	-0.3275143978	 0.331611
O	-1.8059227936	 0.004543401	-1.2614980762	-0.333895
C	-1.6086832078	-2.0418040172	-0.0890378443	 0.238308
C	-0.6598292986	-2.8888575957	 0.731010083	-0.478781
C	-3.0826556788	-2.3348938076	-0.0713953508	-0.24941
N	-2.2682163827	-2.7230649868	-1.2163855204	-0.338883
H	 0.5234062049	 2.0585081745	 1.0455178246	 0.110316
H	 0.2160527661	 1.7546942589	-0.6761554468	 0.134362
H	-1.1267070437	 2.1302510261	 0.3966489771	 0.131184
H	 0.6155257664	-0.4108564266	 0.5974646722	 0.129942
H	-0.7185050035	-0.0455148888	 1.6534353321	 0.126065
H	-0.5615846289	-2.5178185045	 1.7560248372	 0.118906
H	-1.032016527	-3.9149437727	 0.7730510366	 0.13512
H	 0.3388017643	-2.9188649119	 0.2818482406	 0.125883
H	-3.4384511812	-3.151998026	 0.551257122	 0.118983
H	-3.7636424806	-1.4952441236	-0.178629615	 0.126602
H	-2.3970516021	-2.0227467156	-1.9481050116	 0.245718
