17
gdb 18234	4.47218	1.61724	1.32564	4.1123	69.83	-0.2262	0.0324	0.2586	930.7036	0.144294	-363.883918	-363.876874	-363.87593	-363.91563	26.577	
O	-0.0983160666	 0.0246426009	 0.0503338127	-0.347623
C	 0.0023221103	 1.2358965157	 0.0325365161	 0.135723
N	 1.1727602085	 1.9151931815	 0.0947157218	-0.026774
C	 2.4731673784	 1.25128146	 0.2030770365	-0.182603
C	 3.4026180638	 2.3266570477	 0.8164426114	-0.234994
C	 2.7249518436	 3.6578586671	 0.5117434676	-0.055891
C	 2.2792184533	 3.9314238127	-0.9101331948	-0.310485
C	 1.3129963985	 3.3468487897	 0.0945129051	 0.018836
H	-0.870326296	 1.9171596225	-0.0240777269	 0.067259
H	 2.371917378	 0.3511479283	 0.8119279912	 0.141553
H	 2.8247729265	 0.9346925139	-0.7861465034	 0.119579
H	 3.4650312539	 2.2000350508	 1.9020533544	 0.115683
H	 4.4184596967	 2.2545791923	 0.4176783057	 0.11203
H	 2.9403219195	 4.5030874316	 1.1546074526	 0.096837
H	 2.1365125015	 4.9694403285	-1.1902433342	 0.120102
H	 2.6375819206	 3.2957083758	-1.7132116576	 0.121562
H	 0.4463245693	 3.9042993009	 0.4285300319	 0.109207
