21
gdb 68857	2.39742	1.79241	1.33697	1.6835	81.2	-0.2478	0.0904	0.3382	1060.3956	0.182143	-387.090786	-387.082261	-387.081317	-387.123201	34.015	
C	-0.2151681591	 1.5200316445	 0.012537774	-0.485683
C	 0.1312375907	 0.0556191946	-0.0178846407	 0.346603
C	 0.3849192818	-0.6220565271	-1.3677027745	-0.298884
C	 1.2868618366	-1.8116854477	-1.0458231142	-0.023175
C	 2.6616921889	-1.5064124633	-0.5013366625	-0.296575
C	 1.5380672645	-1.860265	 0.4434725717	-0.104752
C	 0.8121498546	-0.6963929886	 1.0611223615	 0.354097
C	 1.2793762699	-0.1401235321	 2.37912507	-0.486538
O	-0.6156574051	-0.7942268278	 0.8729773514	-0.346588
H	 0.57466601	 2.1176783634	-0.4551156099	 0.118243
H	-1.1422373587	 1.7013564933	-0.5432472065	 0.127499
H	-0.3652436236	 1.8739668145	 1.034553602	 0.127431
H	-0.5677959185	-0.9448501961	-1.8020807818	 0.108903
H	 0.8502033755	 0.0731408641	-2.0770930117	 0.095919
H	 1.1539205174	-2.7301595985	-1.604996019	 0.084944
H	 3.4412014488	-2.245002401	-0.6529698838	 0.111275
H	 3.0123685727	-0.478116154	-0.5281491889	 0.105521
H	 1.5722815992	-2.7995927393	 0.9857829076	 0.086572
H	 2.3380229368	 0.1348449832	 2.3276566804	 0.122728
H	 0.7002533916	 0.7373977368	 2.6741356901	 0.125662
H	 1.1693703461	-0.8939228888	 3.1667919149	 0.126798
