9
gdb 21980	5.55328	1.70752	1.30596	3.0014	49.41	-0.3176	-0.1063	0.2113	801.411	0.047686	-466.533735	-466.527697	-466.526753	-466.564531	20.718	
O	-0.0896829191	 0.0048710663	 0.0038339813	-0.327974
N	-0.0376224686	 1.221229347	 0.007083007	 0.36925
O	 0.9753386696	 1.9138953896	 0.0028117822	-0.371862
C	-1.2795269483	 1.9494711718	 0.0169558763	 0.323877
C	-1.4635758311	 3.3004109736	 0.0220338481	 0.052053
O	-2.7508062945	 3.5457490173	 0.0309696608	-0.162109
N	-3.4120924885	 2.2154947899	 0.0308247377	 0.02468
N	-2.5111158652	 1.3581411037	 0.0229881363	-0.122905
H	-0.7660089342	 4.1219379307	 0.0201112702	 0.214989
