18
gdb 4542	3.77115	1.70485	1.20057	3.4364	75.94	-0.2027	0.0387	0.2414	1031.3012	0.153685	-344.041032	-344.032184	-344.03124	-344.074948	30.975	
C	-0.0200925439	 1.4668651957	 0.0147979031	-0.3411
N	-0.0301399077	 0.019052828	 0.000033634	-0.018812
C	-0.0338323331	-0.7785255193	-1.1300089027	-0.216339
C	 0.0249252634	-2.0720931775	-0.6852081672	 0.272852
C	 0.0354966652	-3.3354946655	-1.4829121383	-0.487618
N	 0.0700815379	-2.0863128015	 0.6932716863	-0.354104
C	 0.0403601159	-0.8260300739	 1.0755199959	 0.327071
C	 0.0749828577	-0.359160825	 2.4933001771	-0.502894
H	 0.996630126	 1.8684232492	-0.0704979601	 0.138736
H	-0.6152964901	 1.8480633092	-0.8184905165	 0.142731
H	-0.4598189721	 1.8329526463	 0.9445389643	 0.1437
H	-0.0827725466	-0.3508830221	-2.1185705683	 0.114779
H	 0.9385089101	-3.9221314132	-1.2809633254	 0.129107
H	-0.8209680118	-3.9702625239	-1.2300377076	 0.129012
H	-0.0014042661	-3.1252677945	-2.5555539029	 0.111829
H	 0.947640863	 0.270345178	 2.703817342	 0.127468
H	-0.8182534467	 0.2169460366	 2.7637094064	 0.128097
H	 0.1220087789	-1.2377459668	 3.13765287	 0.155485
