23
gdb 114739	2.7046	1.25938	0.98508	1.8073	84.36	-0.253	0.078	0.331	1302.3556	0.206383	-388.29111	-388.281966	-388.281022	-388.325062	35.318	
C	 0.0231142425	 1.5750360889	 0.0926061692	-0.388301
C	 0.0964719769	 0.0438333594	 0.0785085039	-0.192153
C	 0.7331543624	-0.5218933586	-1.1947097757	 0.040124
C	 2.2150158563	-0.0990548385	-1.4186606975	-0.252949
C	 2.8366907198	-1.2455348258	-2.1966561843	 0.033133
O	 3.1366504571	-2.3773872864	-1.3693427771	-0.253511
C	 1.9397725166	-2.4094262868	-2.1598688995	 0.036184
C	 0.6783562002	-2.0842505263	-1.3616579734	-0.051556
C	 0.6090862367	-2.9045951231	-0.0658952641	-0.390244
H	 1.0191879877	 2.0273304999	 0.0492475237	 0.11937
H	-0.5488039199	 1.9517758258	-0.7631925325	 0.111928
H	-0.4641575174	 1.9376376797	 1.0029704672	 0.111704
H	 0.6576849306	-0.3010383579	 0.9558847113	 0.101786
H	-0.9178149891	-0.3618161083	 0.1846760444	 0.094006
H	 0.1693436971	-0.1155116973	-2.0457565308	 0.07034
H	 2.2869660681	 0.8458872457	-1.9652868673	 0.099042
H	 2.7509098431	 0.02969713	-0.470793093	 0.110691
H	 3.5446475774	-1.0633901117	-3.0019744943	 0.090774
H	 1.9235186409	-3.1747519821	-2.9333741041	 0.087977
H	-0.1963659423	-2.3392807177	-1.9720369032	 0.069221
H	 1.4871497386	-2.7246313925	 0.5586473073	 0.133633
H	-0.2880588118	-2.6686642894	 0.5127760843	 0.110069
H	 0.5822221987	-3.9748667969	-0.2968546645	 0.108731
