23
gdb 96554	2.2544	1.47458	1.03262	1.8593	81.07	-0.2515	0.0754	0.3268	1249.342	0.207165	-425.42782	-425.418737	-425.417793	-425.461261	35.426	
C	-1.0469358256	 1.1185152318	 0.1429927712	-0.403326
C	-0.0676137593	-0.0509383393	-0.0460205812	-0.005226
C	 0.7167548603	 0.1958569458	-1.3549574416	-0.090123
O	 1.9423117218	-0.5092663618	-1.4683598052	-0.235953
C	 3.0494854386	 0.1588081589	-0.9225515115	 0.006634
O	 3.1897138748	 0.0275392477	 0.461368267	-0.230855
C	 2.1179908154	 0.5616614773	 1.2287201805	-0.097279
C	 0.8563445168	-0.3234057541	 1.1742446941	 0.038232
C	 0.0931983427	-0.2785116668	 2.5056465929	-0.420436
H	-0.5204256	 2.0481574138	 0.3896701392	 0.115311
H	-1.6104103676	 1.299690564	-0.7792527778	 0.114217
H	-1.7733730149	 0.9234403323	 0.9353720044	 0.119713
H	-0.6659379886	-0.9615539869	-0.1805524478	 0.076446
H	 0.1023449538	-0.1082770406	-2.2092511924	 0.107347
H	 0.9100541953	 1.2748816689	-1.4679745795	 0.085108
H	 3.9404837906	-0.3018855065	-1.355941253	 0.11301
H	 2.9998546958	 1.2292319543	-1.1991618721	 0.073451
H	 2.4965606097	 0.5995126618	 2.2546802066	 0.104807
H	 1.9041612617	 1.5990825018	 0.9212249211	 0.084605
H	 1.2449401036	-1.3399634546	 1.0498242697	 0.096819
H	-0.209281222	 0.7391805589	 2.7752068651	 0.117249
H	-0.8127338459	-0.8922173249	 2.4647209619	 0.115105
H	 0.718029813	-0.6622738218	 3.3184307786	 0.115143
