20
gdb 111631	2.49712	1.47771	1.19472	1.3577	80.11	-0.2153	0.0114	0.2268	1129.3612	0.170979	-403.123876	-403.115146	-403.114202	-403.156913	33.714	
C	-0.0851515912	 1.4226503084	 0.0717654659	-0.480087
C	-0.0347448218	-0.0864473707	 0.0129146056	 0.28312
C	-0.6676016302	-0.7888952878	-1.1456847243	-0.138401
C	-1.3288288734	-1.8709910708	-0.7352078439	-0.085723
C	-1.2098178851	-2.0231786043	 0.7645035986	-0.221517
N	-0.3985829169	-0.8693333002	 1.2227069689	-0.153708
C	 1.0070591085	-0.8584981423	 0.7745826642	-0.07375
C	 1.7339999648	-2.0822596618	 0.2663905224	-0.102415
O	 1.8200119353	-3.1140347154	 1.2474413993	-0.412317
H	 0.5140222955	 1.8642758951	-0.7326992293	 0.115655
H	-1.1139053171	 1.7824248014	-0.0363141239	 0.123677
H	 0.3035190321	 1.7848518213	 1.0268340179	 0.127075
H	-0.5894710124	-0.4294971215	-2.1648775675	 0.097843
H	-1.8612835224	-2.5740469996	-1.3658113389	 0.101574
H	-2.1897581565	-1.9869630805	 1.2585376213	 0.109214
H	-0.7305172259	-2.9627918701	 1.0622733352	 0.139666
H	 1.6207472597	-0.2618813117	 1.453965142	 0.078887
H	 1.2222462232	-2.5312117488	-0.5859896965	 0.117421
H	 2.7371015356	-1.7776635928	-0.0722923148	 0.089328
H	 2.1912486381	-2.7299097679	 2.0486376978	 0.284457
