16
gdb 71435	3.8997	1.22701	1.21081	3.1136	69.8	-0.2253	0.0166	0.2419	1051.8977	0.12413	-437.832262	-437.824862	-437.823918	-437.864136	28.854	
O	 0.0603767069	 1.2638086402	 0.0075278785	-0.452047
C	 0.064946192	-0.1102915321	 0.0163803512	 0.358964
C	 0.8933000338	-1.0706722401	-0.8455561711	-0.303167
C	-0.1378032689	-2.1481655218	-0.3905907216	-0.037691
C	-1.1581960424	-0.9867538223	-0.0648873892	-0.148449
C	-0.4176729996	-0.9409007022	 1.2443390201	-0.121536
N	 0.1020399441	-2.2904145998	 1.0691929008	-0.040539
C	 1.1755971342	-2.8963776415	 1.6544918099	 0.131419
O	 1.8571336882	-3.7496132982	 1.1268120281	-0.324092
H	 0.8091934265	 1.5786674981	 0.5267778793	 0.292649
H	 0.7750256766	-0.8308252896	-1.9048833598	 0.11774
H	 1.9435668404	-1.2615219512	-0.6061267032	 0.114555
H	-0.3235314876	-3.0531885861	-0.9599436769	 0.110567
H	-2.192584177	-0.8126640201	-0.3195795868	 0.1141
H	-0.7025617747	-0.5051453474	 2.1925870338	 0.117885
H	 1.3136991972	-2.5658385758	 2.7052240568	 0.069644
