21
gdb 123234	8.37368	0.40184	0.39483	3.8194	78.81	-0.261	0.0085	0.2695	2675.8914	0.179686	-461.374499	-461.363466	-461.362522	-461.413168	36.435	
C	-0.141537545	 1.3478659081	-0.2015609542	-0.229491
O	-0.0032089973	-0.0465567661	-0.0715645697	-0.231063
C	 0.66475627	-0.6370993847	-1.1628838834	-0.049142
C	 0.7588271473	-2.137059827	-0.9148216571	-0.203843
C	 1.47352338	-2.8760935439	-2.0499047288	-0.192628
C	 1.5705554382	-4.3738496066	-1.7850714606	-0.090428
O	 2.3162750491	-5.0233513803	-2.8235432575	-0.174255
C	 1.6452789976	-5.7860668643	-3.7048323701	 0.170547
O	 2.1744284736	-6.3335616049	-4.6244298044	-0.274286
H	 0.8358838588	 1.8522148042	-0.2658881978	 0.104538
H	-0.7252690037	 1.619873739	-1.0955344826	 0.104139
H	-0.6667946743	 1.7091512497	 0.6858084532	 0.12852
H	 0.1209816	-0.4364340201	-2.1031236522	 0.0858
H	 1.673898994	-0.2037469996	-1.2791662487	 0.087124
H	 1.2841070455	-2.2990032373	 0.034289174	 0.112425
H	-0.2562049328	-2.5308540438	-0.7814771528	 0.110022
H	 0.9457347145	-2.7177952687	-2.9990865686	 0.10801
H	 2.4870828746	-2.4808670056	-2.1859372109	 0.120283
H	 2.1048330227	-4.5738596827	-0.8512238542	 0.127668
H	 0.5720368471	-4.824119296	-1.7041738333	 0.111685
H	 0.5622897701	-5.8521241395	-3.4766074404	 0.074375
