18
gdb 99618	2.24166	1.30965	1.05834	4.1238	72.59	-0.2835	0.009	0.2924	1220.4236	0.144535	-439.062766	-439.052877	-439.051933	-439.097965	34.673	
C	 0.4583861199	 1.576381504	 0.5597318914	-0.248025
O	 0.8512410001	 0.2516611287	 0.2357637161	-0.236334
C	 0.6549142111	-0.680760755	 1.2706944368	-0.07044
C	-0.7870243984	-0.8630404207	 1.57047002	 0.279418
N	-1.9151562781	-0.9830161577	 1.7891773033	-0.32944
C	 1.2936757082	-2.0012532646	 0.8392663573	 0.400068
C	 0.7240370116	-2.6457144556	-0.399589667	-0.476983
C	 2.6783777084	-2.2372303484	 1.2658613872	-0.228663
O	 1.5804273566	-2.8607369777	 1.9422877132	-0.271748
H	 1.0115423648	 1.9526648971	 1.4324696925	 0.115734
H	 0.6957440346	 2.1925577624	-0.30900091	 0.14123
H	-0.6177055852	 1.6402461257	 0.7663175268	 0.139941
H	 1.139889073	-0.3528105348	 2.2030930106	 0.117723
H	 0.7997103579	-1.9608615763	-1.248283471	 0.144957
H	 1.2664279965	-3.5650224465	-0.6302055838	 0.130494
H	-0.3316303868	-2.8941791079	-0.2521928415	 0.150178
H	 3.3055035492	-2.9060755359	 0.6794379297	 0.123944
H	 3.2129414267	-1.4797734969	 1.8373643785	 0.117948
