15
gdb 44169	5.56429	1.05165	0.96075	3.9161	74.71	-0.2426	0.0006	0.2432	1184.1986	0.112205	-416.726469	-416.718724	-416.71778	-416.758894	29.441	
N	 0.208753987	 1.0625204581	 0.6748551048	-0.541075
C	 0.1079735271	-0.0473741947	 0.0860986455	 0.383162
N	 0.9867591075	-1.0170234658	-0.4282920029	-0.334637
C	-0.0654079009	-1.954637833	-0.8018168546	-0.055551
C	-0.6521985921	-2.8200961738	 0.3582714517	-0.096718
O	-1.5554404837	-1.7442645244	 0.7378149466	-0.285922
C	-1.0993097846	-0.8931794222	-0.3358286994	 0.027349
C	-1.3536512388	-4.0231378779	-0.049903329	 0.336532
C	-1.9164760043	-5.0179297482	-0.4215712436	-0.427845
H	 1.1809329346	 1.3074036488	 0.8724943873	 0.213468
H	 1.9077730632	-1.2490846308	-0.079975915	 0.242041
H	 0.0087511985	-2.4042644692	-1.7901458854	 0.111091
H	 0.0644169751	-3.0398791365	 1.1593854058	 0.110174
H	-1.908279868	-0.4535721127	-0.9173679224	 0.110963
H	-2.4192788908	-5.9001279477	-0.7340881593	 0.206968
