15
gdb 29611	3.22885	1.15245	0.88411	5.0801	69.74	-0.1939	0.0077	0.2016	1239.92	0.112966	-453.986078	-453.977472	-453.976528	-454.020186	31.016	
N	 0.3512714993	 1.3389368607	 0.2682505234	-0.617054
C	 0.1131333844	-0.0292918847	 0.0699822086	 0.171177
C	-1.0537075324	-0.7454788475	 0.2375655697	-0.152744
N	-0.7716572297	-2.0773060769	 0.0034507223	-0.238255
C	 0.5463175242	-2.2369329921	-0.3127902954	-0.169453
C	 1.112387998	-0.9818195702	-0.2755687544	 0.248169
O	 2.4191336295	-0.6406171053	-0.5817471341	-0.232449
C	 3.3766167389	-0.9686989823	 0.3284030821	 0.151893
O	 4.5319337912	-0.7434889367	 0.1440653102	-0.26505
H	 1.1479351433	 1.6586585359	-0.268924156	 0.252796
H	-0.4507413562	 1.9163628661	 0.0525811258	 0.244071
H	-2.0448154325	-0.4223332137	 0.5089294104	 0.116505
H	-1.4429352227	-2.8213718598	 0.0557909275	 0.267991
H	 0.9720262676	-3.1949404514	-0.5590916994	 0.132829
H	 2.9444522971	-1.4602397221	 1.2187539892	 0.089574
