15
gdb 1780	5.02384	1.84645	1.66535	2.6666	58.73	-0.2538	-0.034	0.2198	791.4555	0.121864	-345.653983	-345.646061	-345.645117	-345.686105	27.548	
C	-0.013063476	 1.3768595437	-0.2707889609	-0.426113
C	 0.3435852957	-0.0756130041	-0.0866279748	 0.038013
O	 1.7095806348	-0.4175511426	 0.1106110312	-0.283113
C	 0.7980713792	-0.6660585507	 1.2011900031	 0.27385
C	 0.9788959987	 0.1095552977	 2.4797039714	-0.471989
C	 0.505717742	-2.1310354121	 1.354057616	 0.126815
O	 0.1839348132	-2.6565820259	 2.3885469173	-0.253424
H	 0.5380079219	 2.0240748649	 0.4128891575	 0.135007
H	 0.2220135423	 1.6865633413	-1.2943355917	 0.138065
H	-1.0862294077	 1.5264877533	-0.1134924591	 0.131711
H	-0.1742556345	-0.7505433389	-0.7734687795	 0.093594
H	 1.1506616126	 1.1692250305	 2.2910837834	 0.127093
H	 0.0944124656	-0.0073052338	 3.1115301695	 0.143766
H	 1.8333940733	-0.2853331361	 3.0370443548	 0.141707
H	 0.6208795788	-2.7019177772	 0.4053816219	 0.085019
