21
gdb 97992	6.3202	0.40501	0.39764	2.8463	90.87	-0.2455	-0.0225	0.223	2729.3528	0.179312	-387.08413	-387.072883	-387.071939	-387.123827	37.657	
C	 0.0479627487	 1.3009982528	-0.6939759395	-0.363598
C	-0.0672903185	 0.2520657858	 0.4271564189	-0.313735
C	-1.39159768	-0.3561784833	 0.5099585814	 0.139361
C	-2.4957285463	-0.8352003499	 0.5647884047	-0.003386
C	-3.8155385476	-1.4530952667	 0.6262755244	-0.354093
C	-3.8144288882	-2.9188532751	 0.1468981136	-0.181327
C	-5.2109346097	-3.5578891865	 0.2218059818	-0.273621
C	-5.2206498541	-4.9536500427	-0.3582912295	 0.157036
O	-5.581713783	-5.9433995539	 0.2236538969	-0.23597
H	 1.0553637579	 1.7273098147	-0.7162276158	 0.114054
H	-0.1578411313	 0.851456817	-1.6692364121	 0.126381
H	-0.6671459921	 2.1137082077	-0.5402907724	 0.127484
H	 0.6844712268	-0.5326402632	 0.2719044253	 0.127789
H	 0.1807992172	 0.7172032241	 1.3899969488	 0.128174
H	-4.1986996732	-1.4097932568	 1.6545758235	 0.129887
H	-4.5248904671	-0.876006154	 0.0173422881	 0.12555
H	-3.4402900651	-2.9565205116	-0.8829084078	 0.114187
H	-3.1094068491	-3.4947672657	 0.7560055424	 0.124147
H	-5.5816409528	-3.6041213193	 1.250175309	 0.122957
H	-5.9153863919	-2.9519907013	-0.3678245355	 0.117995
H	-4.8484324607	-5.0118714219	-1.4090598361	 0.070726
