22
gdb 53584	3.45615	0.83705	0.78267	1.5784	91.78	-0.2196	0.0478	0.2674	1602.918	0.190869	-367.164472	-367.153445	-367.152501	-367.201859	39.229	
C	 0.5777900507	 0.473690214	-1.2549944994	-0.498752
C	 0.1959816916	-0.5475531492	-0.2891013409	 0.036584
C	-0.1064132085	-1.3918691775	 0.516558655	 0.08255
C	-0.5101133623	-2.3848725636	 1.5174355314	-0.292278
N	-1.5488899756	-3.3655478767	 1.1629927149	-0.120634
C	-2.3123234126	-3.2346020936	-0.0744848992	-0.290388
C	-1.3556701297	-4.368292315	 0.1057876634	 0.345965
C	-0.0797670176	-4.4059409285	-0.7148368792	-0.468629
C	-1.8943137823	-5.7387626753	 0.4728118392	-0.431906
H	 1.6015166051	 0.8215675213	-1.077763131	 0.15018
H	 0.5338067682	 0.0895986887	-2.2800974498	 0.148393
H	-0.0829731418	 1.3457583207	-1.1987906506	 0.148749
H	 0.3702218281	-2.9430606277	 1.860013469	 0.129867
H	-0.8832799233	-1.8441928269	 2.3970461203	 0.134923
H	-3.3854798174	-3.3905991443	 0.0162170902	 0.102423
H	-2.0222459208	-2.4451775737	-0.7647034795	 0.114358
H	 0.2619535348	-3.4096047197	-0.9984537412	 0.136335
H	 0.7254616121	-4.8993255063	-0.1565964528	 0.113207
H	-0.2399396949	-4.9867920509	-1.6298744105	 0.116294
H	-2.1463510808	-6.3124053177	-0.4266217976	 0.109313
H	-1.1491602683	-6.3121496043	 1.0367721222	 0.111368
H	-2.7895441946	-5.6475710039	 1.0922193661	 0.122077
