18
gdb 47762	1.96534	1.66481	1.23169	3.9014	75.7	-0.2593	-0.039	0.2203	1093.104	0.149413	-402.003928	-401.99575	-401.994806	-402.036949	30.729	
O	 0.032738049	-0.0400685752	-0.1005304962	-0.295712
C	-0.0237621926	 1.1576592237	 0.0013478419	 0.402499
C	-1.3091377896	 1.9584937804	 0.0435696519	-0.30352
C	-1.3296059315	 3.0195152159	-1.0807728271	-0.20592
C	-0.0768426372	 3.9051115248	-1.0504291853	-0.201913
C	 1.2044276497	 3.0660361666	-1.1245804641	-0.224318
C	 1.2712180728	 2.0159353379	 0.0206203272	-0.229737
C	 1.4293574359	 2.6612720473	 1.3233051435	 0.267462
N	 1.5337857902	 3.1777621965	 2.3528542539	-0.328549
H	-2.1516043594	 1.2677785446	-0.0301634366	 0.127345
H	-1.361723578	 2.4649681484	 1.0162814783	 0.144183
H	-1.3948474507	 2.5100715698	-2.0505788093	 0.112632
H	-2.2329473426	 3.6296785972	-0.9851253204	 0.113295
H	-0.0971150865	 4.6123769351	-1.885808354	 0.109247
H	-0.0669215784	 4.5039484354	-0.1312811928	 0.126445
H	 1.2377996999	 2.5158882806	-2.07256133	 0.119031
H	 2.0956619043	 3.6989886478	-1.0867704551	 0.125957
H	 2.1087368246	 1.3292085133	-0.130620586	 0.141574
