16
gdb 27657	3.16614	1.21348	0.88244	2.074	83.83	-0.1716	0.0308	0.2024	1259.9808	0.124774	-396.930292	-396.921094	-396.92015	-396.963819	34.477	
N	 0.1644672182	 1.4159068969	-0.1004207093	-0.616499
C	-0.0079103819	 0.0175175795	-0.0274495064	 0.283902
C	-1.0978612733	-0.8075408793	-0.0822381473	-0.350093
C	-0.621334601	-2.1668676799	-0.0366644046	 0.142617
C	-1.3657811152	-3.3635794166	-0.0793256099	 0.182941
C	-1.9815679897	-4.401456387	-0.1164877482	-0.436255
C	 0.7621522202	-2.1041463881	 0.0688514049	 0.199339
N	 1.7086702806	-3.1193050797	 0.2371330216	-0.620896
N	 1.1198703919	-0.7859583987	 0.0682583844	-0.299976
H	-0.5979733434	 1.8444119197	-0.6112146631	 0.247094
H	 0.1962759887	 1.8500721876	 0.8182902424	 0.243499
H	-2.1298581567	-0.5012964461	-0.1501072635	 0.090922
H	-2.5350804405	-5.3062502048	-0.1444860049	 0.173796
H	 1.2383975651	-4.016022522	 0.2934170552	 0.256429
H	 2.3856348074	-3.1611838623	-0.5189137598	 0.244397
H	 2.0598489595	-0.4332545592	 0.1296263087	 0.258782
