14
gdb 836	6.99764	1.96734	1.55044	1.9591	60.27	-0.1793	0.0498	0.229	767.312	0.113818	-324.612179	-324.605034	-324.60409	-324.643156	26.021	
C	-0.0343886771	 1.4928981625	 0.0385791898	-0.501845
C	 0.0119610772	 0.0022826144	-0.0386017621	 0.340822
C	 0.042010311	-0.8412480583	-1.1322233419	-0.370151
C	 0.0829077081	-2.1767427615	-0.6403396935	 0.32884
O	 0.1211149785	-3.3363599382	-1.363351375	-0.450608
C	 0.0777026542	-2.1247083444	 0.7325798868	-0.18126
N	 0.0345174815	-0.7862130471	 1.0791677763	-0.294939
H	 0.8411491132	 1.9099255124	 0.5523599008	 0.125803
H	-0.0568393491	 1.9166544997	-0.967949564	 0.135744
H	-0.9252861702	 1.8537294751	 0.5681352948	 0.125497
H	 0.034921879	-0.5313796883	-2.1673955442	 0.080433
H	 0.117566192	-3.1078748629	-2.296800839	 0.293873
H	 0.100122542	-2.9085770594	 1.4696972947	 0.113203
H	 0.0214741297	-0.4424910138	 2.0228122165	 0.254589
