18
gdb 14028	3.37393	1.57683	1.29677	0.4763	68.12	-0.2233	0.0665	0.2898	993.4651	0.153143	-384.895847	-384.887648	-384.886704	-384.928834	30.009	
O	 0.4309445373	 0.5409836058	 0.741084909	-0.415939
C	-0.1704026669	 0.2027027352	-0.5046145702	-0.075709
C	-1.4976090435	-0.501630471	-0.3508557072	-0.123394
C	-1.8951741753	-1.6292076058	-1.3029779525	-0.374163
C	-1.5357120227	-1.9207886391	 0.1156655275	 0.471446
C	-0.4176733364	-2.7649647843	 0.7190125607	-0.360392
C	-1.5074195822	-3.1860448905	 1.7289691854	-0.073989
O	-2.503869003	-2.3733374068	 1.0617035701	-0.310661
H	-0.1992730157	 1.0751810482	 1.2350325643	 0.28243
H	-0.282375167	 1.092406268	-1.1442693595	 0.092426
H	 0.54764029	-0.4584815426	-1.0016755478	 0.105322
H	-2.3200738429	 0.1199372932	-0.0008299641	 0.090094
H	-2.942183644	-1.7065751744	-1.5756042088	 0.12335
H	-1.1985512943	-1.9122019984	-2.0871552755	 0.112312
H	-0.038708471	-3.5676837029	 0.0835172332	 0.10995
H	 0.412153683	-2.1903422041	 1.1321316681	 0.135024
H	-1.7832746256	-4.2462768039	 1.724131646	 0.105583
H	-1.3463569999	-2.8592245868	 2.7625014711	 0.106309
