16
gdb 28748	3.36341	1.05129	0.84538	2.3249	75.35	-0.1878	-0.0235	0.1643	1309.6621	0.123756	-437.928283	-437.919544	-437.9186	-437.963079	31.463	
O	 0.3131578551	 1.2637880156	 0.3142894739	-0.43164
C	 0.1375755147	-0.0473002556	 0.0187229249	 0.372882
C	-0.1234467474	-0.7274590775	-1.1479311466	-0.290392
C	-0.1962145419	-2.1107424247	-0.7968613585	-0.218011
C	 0.0102262262	-2.2249363592	 0.555729616	 0.276822
C	 0.068684337	-3.4081098671	 1.4705599015	-0.379427
C	 1.4753717958	-3.495973538	 2.0415858401	 0.152158
O	 1.7830251738	-3.0925997663	 3.1354175744	-0.251551
N	 0.2186517961	-0.940703472	 1.0443924043	-0.330025
H	 0.2416241876	 1.7702653649	-0.500294384	 0.309314
H	-0.2561096101	-0.2918029479	-2.1259440752	 0.089496
H	-0.394725073	-2.9314610721	-1.4696210077	 0.094893
H	-0.6397410985	-3.3281539282	 2.3035245925	 0.121981
H	-0.1575559492	-4.3096650237	 0.8931879866	 0.124233
H	 2.2360988645	-3.9003922291	 1.3373016515	 0.08398
H	 0.4464716694	-0.703193989	 1.9957821665	 0.275287
