20
gdb 63431	3.93719	0.79877	0.78103	5.2213	79.9	-0.2682	0.0357	0.3039	1524.7428	0.169407	-403.161288	-403.151713	-403.150769	-403.196006	35.795	
C	 0.0195512628	 1.5490292559	 0.1563806319	-0.454675
C	 0.0413817412	 0.0348482328	 0.0271309974	 0.412061
O	-1.261345787	-0.4797861907	-0.224649994	-0.476325
C	 1.1004135104	-0.6116673515	-0.9228181661	-0.302789
C	 1.3091202311	-1.7269471977	 0.1374950725	 0.044468
C	 2.7445777676	-2.2016376329	 0.3851149482	-0.366641
C	 2.8426905734	-3.1390399741	 1.5036047247	 0.260718
N	 2.8993429606	-3.8768503946	 2.3913061279	-0.308208
C	 0.6341108131	-0.8057512691	 1.189029113	-0.251229
H	 1.0105589307	 1.9444500962	 0.3993047571	 0.113599
H	-0.3025725628	 2.0154559935	-0.7834679789	 0.107386
H	-0.6797056073	 1.8522680943	 0.9418205356	 0.13006
H	-1.5800290994	-0.0877199237	-1.0453165844	 0.275767
H	 0.7484416815	-0.9115134608	-1.913375007	 0.098074
H	 1.988867879	 0.0191132671	-1.0342970616	 0.095141
H	 0.6716157373	-2.5868563499	-0.0782167469	 0.105426
H	 3.145545133	-2.688763255	-0.512116933	 0.150572
H	 3.3956016333	-1.3438226315	 0.5949739571	 0.143192
H	 1.3682891032	-0.2367822797	 1.7674574747	 0.099521
H	-0.0943495016	-1.2534048586	 1.8662106419	 0.123883
