19
gdb 62587	2.90681	1.59378	1.34063	3.4985	78.68	-0.2334	0.0105	0.2439	1024.0305	0.158385	-385.868748	-385.860736	-385.859792	-385.90069	32.117	
C	 0.0859748423	 1.5333521913	 0.056462304	-0.458295
C	 0.0547148304	 0.0072244405	 0.0221443232	 0.303301
C	-1.3715661654	-0.5207776165	 0.1775557268	-0.439972
C	 0.7908138058	-0.7130817654	-1.1290108638	-0.092073
C	 1.3158568632	-1.7747170556	-0.2258506907	-0.086342
C	 2.2938964396	-0.7270703279	-0.8095538265	-0.210684
C	 2.4386380426	-0.1864763916	 0.5786725438	 0.436641
O	 3.3491218824	 0.2783515815	 1.2062656377	-0.351349
C	 1.0585865707	-0.7561198126	 0.9580627421	-0.217696
H	 1.097096203	 1.9260674705	-0.0842420025	 0.130701
H	-0.5504607465	 1.9500284357	-0.732244397	 0.114087
H	-0.2881418074	 1.909642045	 1.0151662661	 0.120603
H	-2.0074250055	-0.1691553168	-0.6433416896	 0.113733
H	-1.3965440126	-1.6148711168	 0.1788106182	 0.117223
H	-1.8159457975	-0.1685944257	 1.1147494861	 0.116873
H	 0.4695331337	-0.8136970052	-2.1598232845	 0.093524
H	 1.3943239407	-2.8492610125	-0.2725657098	 0.11422
H	 3.0456590595	-0.8703695047	-1.5734948376	 0.110685
H	 0.8122109412	-0.989299833	 1.9911061941	 0.084817
