14
gdb 133757	1.87302	1.61121	1.06631	3.1247	51.83	-0.2689	-0.0472	0.2217	1105.9225	0.093861	-605.318363	-605.308943	-605.307998	-605.354049	31.46	
C	 0.1632925297	 1.4002128956	 0.0965836257	-0.247771
O	 0.051874941	-0.013287101	-0.0024028647	-0.243576
C	-1.2507074636	-0.5221543649	-0.0378342226	-0.118844
C	-1.2005482718	-1.8186283076	-0.8629236987	 0.142546
O	-2.172051316	-2.4277415336	-1.2107374991	-0.229432
C	-1.7815426739	-0.8192058049	 1.3749549872	 0.277478
F	-1.7452088971	 0.2810406422	 2.1439028596	-0.076801
F	-3.0442112961	-1.2464130435	 1.3288840582	-0.054946
F	-1.0405435173	-1.7569833978	 1.9752991565	-0.074906
H	 1.2225851673	 1.6344306043	-0.0246015203	 0.141008
H	-0.4062234547	 1.8961486678	-0.7022594097	 0.11802
H	-0.1818085486	 1.7720141807	 1.0662145712	 0.135049
H	-1.9646812155	 0.1661259151	-0.5136462812	 0.12082
H	-0.1623823335	-2.1206426324	-1.1138061419	 0.111355
