15
gdb 15539	3.01749	2.13209	1.46277	2.773	65.58	-0.2477	-0.0028	0.2449	854.4623	0.120609	-358.86797	-358.860597	-358.859652	-358.899786	26.928	
C	-0.2181821899	 1.5613665624	-0.073196977	-0.398931
C	 0.0811971108	 0.0681527785	-0.0597351206	 0.040361
N	 0.9981224659	-0.3279227709	-1.1421414378	-0.236372
C	 1.8305794293	-1.1481769166	-0.6401330947	 0.064059
N	 1.6729125254	-1.4861473692	 0.7025516108	-0.29891
C	 0.7470270023	-0.4908440015	 1.2624824357	-0.153298
C	 1.4590826693	 0.5216292185	 2.0586798202	 0.276772
N	 2.0367596711	 1.2928080566	 2.6975265723	-0.324706
H	 0.6956660267	 2.1461428992	 0.0598790409	 0.14346
H	-0.6611789957	 1.8304156504	-1.0349466138	 0.135038
H	-0.9206008155	 1.8318180178	 0.7213315192	 0.120521
H	-0.8561129362	-0.4861055179	-0.2011602738	 0.103364
H	 2.6189083404	-1.6337871383	-1.2078021244	 0.135994
H	 2.4961964113	-1.7192394414	 1.2405731184	 0.256971
H	 0.0026838848	-0.9627014876	 1.9093258546	 0.135677
