15
gdb 50650	3.30954	1.19654	0.91382	3.764	62.47	-0.2757	-0.0529	0.2228	1190.7997	0.111812	-494.948142	-494.940008	-494.939064	-494.982285	28.359	
O	-0.8465941909	 0.9342362283	 0.5726447252	-0.236921
C	 0.212271985	 0.8260019309	 0.0154191649	 0.131596
C	 1.2878042925	 1.9056157646	 0.0776295014	 0.044108
C	 1.4894300109	 2.4815813899	 1.4684856574	-0.246078
C	 2.6879580738	 3.4054999736	 1.3934478124	-0.079718
O	 3.8325005497	 2.7249725432	 0.8507072185	-0.254842
C	 3.730430611	 1.738088088	-0.0613618022	 0.480897
O	 4.7004199784	 1.2298027516	-0.5323327427	-0.350983
O	 2.4916874455	 1.3112404798	-0.4216133383	-0.275156
H	 0.4915609228	-0.0594845677	-0.5931911593	 0.11788
H	 0.9844761429	 2.7050385297	-0.6167231396	 0.12612
H	 0.5904253048	 3.0170154614	 1.7814409776	 0.144883
H	 1.6716955568	 1.6750528792	 2.1863706263	 0.134956
H	 2.4731030403	 4.2795959496	 0.7658434894	 0.125112
H	 3.0032701765	 3.7590192378	 2.3771825791	 0.138147
