19
gdb 91675	3.30593	1.26083	1.12163	4.8578	79.46	-0.2491	0.0169	0.2659	1145.5794	0.161678	-382.049473	-382.041726	-382.040781	-382.081534	30.52	
C	-0.0993662275	 1.5368316385	 0.0283351155	-0.421985
C	 0.0590064866	 0.0178941158	 0.0416872421	 0.010461
C	 1.0442221239	-0.572505969	-1.0351668385	-0.189417
N	 2.019474584	-1.3601498145	-0.2206539324	-0.120591
C	 1.0599437202	-2.0193987474	 0.7607130862	-0.205191
C	 0.768573332	-0.5880319124	 1.2711791807	-0.029183
C	 2.2657743505	-0.3475124152	 0.8928573498	-0.128322
C	 3.2500078677	-0.7946603501	 1.8697804998	 0.290164
N	 4.0255309327	-1.1118763046	 2.665913709	-0.329386
H	 0.8591968783	 2.054954252	 0.1408384913	 0.11879
H	-0.5397392457	 1.8712834366	-0.9168369566	 0.124159
H	-0.7563553948	 1.8740626145	 0.8366466034	 0.122793
H	-0.9326447837	-0.4374931662	-0.0561586661	 0.080789
H	 0.5574109777	-1.2393737079	-1.7498009787	 0.115256
H	 1.5734858829	 0.2045433095	-1.5939854678	 0.112758
H	 0.2479155994	-2.5840111777	 0.2952642062	 0.107825
H	 1.6113814658	-2.6493345834	 1.4598435474	 0.139337
H	 0.3702309122	-0.365096464	 2.261706779	 0.08444
H	 2.5542964179	 0.6443636256	 0.5352076396	 0.117304
