15
gdb 17760	3.07662	2.69738	1.86601	1.2363	63.81	-0.2061	0.0614	0.2675	744.5988	0.117767	-362.532633	-362.52588	-362.524936	-362.563106	26.492	
C	-0.1055479625	 1.4892602974	 0.0279977616	-0.527491
C	 0.0001640556	 0.0027820142	-0.0237269064	 0.2799
C	 0.9024357197	-0.9877407237	-0.811454336	-0.101881
C	-0.1751589147	-2.0131811117	-0.8379101367	-0.145637
N	 0.8250912031	-2.0138496467	 0.2876566132	-0.170733
C	-0.0738291294	-1.0584496176	 1.0681361483	-0.165867
C	-1.108247864	-1.0483984603	-0.0362641052	 0.312142
O	-2.4508999521	-0.7985789597	-0.0459956164	-0.448078
H	 0.8195133502	 1.9487325669	 0.3943389888	 0.124638
H	-0.322889746	 1.9086760464	-0.9610589807	 0.127309
H	-0.9186979783	 1.7880436315	 0.697488681	 0.132903
H	 1.7870984068	-0.8582405391	-1.426020959	 0.092485
H	-0.3342740167	-2.8787172325	-1.4716360922	 0.096532
H	-0.123998011	-0.9938447169	 2.1486123574	 0.099382
H	-2.9000898207	-1.4930823781	 0.4506466922	 0.294395
