20
gdb 66456	2.89317	1.71484	1.51529	1.643	81.88	-0.2214	0.0907	0.3122	994.1266	0.171353	-365.948511	-365.940792	-365.939848	-365.980082	31.322	
C	-0.0869665497	 1.4137053056	-0.0279781912	-0.516622
C	 0.0560168907	-0.0689433363	 0.096005436	 0.366327
C	 0.9989970446	-0.934395851	-0.6697458814	-0.092705
C	 1.0824430255	-2.1780943857	 0.232193708	-0.124581
C	 1.0995100552	-1.6623186107	 1.693006791	-0.254085
C	-0.2361845407	-0.9767693003	 1.3128311314	-0.17753
C	-0.4845363585	-2.0598412854	 0.205557499	 0.416895
C	-1.4860945105	-3.1675561986	 0.2156502093	-0.527788
N	-0.4815729428	-1.0266227959	-0.9340530753	-0.252418
H	 0.6213641308	 1.9335619817	 0.6275666946	 0.119181
H	 0.1052618407	 1.7305044245	-1.0578269923	 0.129789
H	-1.0982858171	 1.7388408922	 0.2394626557	 0.122977
H	 1.6906748963	-0.5785189461	-1.4245576784	 0.088023
H	 1.6412684425	-3.0498950539	-0.1041203834	 0.069582
H	 0.951021895	-2.4736224112	 2.4131351196	 0.097995
H	 1.9352510939	-1.0313794412	 2.0113133348	 0.092827
H	-0.9779648643	-0.6585381662	 2.0443969244	 0.066521
H	-2.50555787	-2.7667197229	 0.2367065399	 0.127596
H	-1.3873842709	-3.7868772549	-0.6826042227	 0.128346
H	-1.3520012505	-3.8103807935	 1.092854171	 0.119667
