19
gdb 92490	2.58921	1.63193	1.62365	2.1775	69.32	-0.2486	0.0719	0.3206	952.723	0.162219	-460.169896	-460.162447	-460.161503	-460.201848	29.619	
O	-0.0403050612	 1.4288000816	-0.0885341733	-0.445069
C	 0.0160244501	 0.0129827131	 0.0062882456	 0.137454
C	 0.7062520744	-0.4946126745	 1.3040943452	-0.283694
C	-0.2919643718	-1.3877617048	 2.0547731937	 0.205743
O	-1.4159075185	-0.6408126902	 2.4606838298	-0.26972
C	-2.0897825479	-0.0446383336	 1.3389370853	-0.067062
C	-1.424708118	-0.5128346014	 0.039811683	-0.087568
C	-1.3681794503	-2.043668303	 0.0670746761	-0.071949
O	-0.6683441408	-2.481728608	 1.2391838212	-0.271093
H	 0.8550627278	 1.7709765016	-0.0036837838	 0.283838
H	 0.5241238457	-0.4006571613	-0.8777744013	 0.067111
H	 1.6159741939	-1.061551885	 1.0876242952	 0.106459
H	 0.9693223746	 0.3567079464	 1.939994566	 0.1074
H	 0.1333150695	-1.8197793802	 2.962401806	 0.087119
H	-3.1414903229	-0.3553272015	 1.3712385611	 0.099048
H	-2.0424979428	 1.0460973876	 1.4247319922	 0.117584
H	-1.9829493624	-0.1573555457	-0.8303373624	 0.082279
H	-2.3822374553	-2.4638774218	 0.0853795513	 0.104552
H	-0.8531309341	-2.4400533192	-0.8189171409	 0.097568
