16
gdb 124316	4.75227	0.98001	0.88499	7.7205	70.27	-0.248	-0.0416	0.2064	1297.7754	0.12401	-434.093416	-434.084894	-434.08395	-434.128371	29.538	
C	 0.19568867	 1.4886920045	 0.0698109784	-0.48032
C	-0.1007089633	 0.0050533799	 0.1348113554	 0.378119
O	-0.507195477	-0.5477737345	 1.1242071925	-0.263229
C	 0.1309366426	-0.7619522813	-1.1796324366	-0.29329
N	 0.0972189809	-2.1960856553	-1.0327822608	 0.003697
C	 1.1077790841	-3.0856842934	-1.2853455489	 0.022242
N	 0.7271008694	-4.3096130215	-1.0400526361	-0.223284
N	-0.5835738005	-4.2475273843	-0.6018642456	-0.226194
C	-0.9327388154	-2.9882184294	-0.6014031473	 0.036573
H	 1.279512753	 1.643645733	 0.007756789	 0.154391
H	-0.2441204966	 1.9424081419	-0.8248570614	 0.143244
H	-0.184924868	 1.9801579735	 0.9653007637	 0.159268
H	-0.6334192076	-0.4277288468	-1.8947007783	 0.15541
H	 1.0960527183	-0.4751029927	-1.6079307825	 0.146722
H	 2.0775729616	-2.7808701718	-1.6487190596	 0.137938
H	-1.8881120014	-2.5943673718	-0.2956113318	 0.148712
