18
gdb 16811	3.53684	1.849	1.386	3.2471	71.48	-0.2339	-0.0072	0.2266	923.8011	0.154892	-347.8331	-347.82584	-347.824896	-347.864392	28.467	
C	 0.0522257229	 1.5939348689	 0.0032758221	-0.396781
C	 0.019527676	 0.0649163888	 0.0315355416	 0.018001
C	 0.6599791256	-0.6182129034	-1.1982631574	-0.357806
C	 1.2198606088	-1.9544163128	-0.68223487	 0.417622
O	 1.3762885004	-2.9536822284	-1.3392696621	-0.332729
C	 1.4591138919	-1.8173368551	 0.7869933314	-0.148114
C	 2.2345464553	-0.5725572601	 1.2085431964	-0.289959
C	 0.7421203373	-0.5530047583	 1.2358626009	-0.03605
H	 1.0825106615	 1.9642384776	-0.0358181653	 0.115769
H	-0.478250906	 1.9845619806	-0.8712468642	 0.117286
H	-0.4200321521	 2.0159879685	 0.896767089	 0.114614
H	-1.0278460883	-0.2586271071	 0.0864099599	 0.084181
H	-0.0358613964	-0.7941424176	-2.0205862717	 0.1273
H	 1.4872421061	-0.0222477998	-1.6053392846	 0.123505
H	 1.5375814499	-2.7164148714	 1.3846013699	 0.104491
H	 2.7560463462	-0.6482332572	 2.1559090726	 0.124851
H	 2.7729879374	-0.0101487792	 0.4528057632	 0.121126
H	 0.2447766137	-0.5229362638	 2.1991986085	 0.092694
