16
gdb 125036	2.33654	1.89894	1.05519	1.4436	78.76	-0.2064	-0.0538	0.1527	1079.2205	0.125631	-430.242783	-430.234382	-430.233438	-430.275907	31.573	
C	 0.009170803	 1.5567764905	-0.0265482206	-0.527936
C	 0.0247558478	 0.0564449285	-0.0244857724	 0.170575
C	-1.1167837785	-0.6949499411	-0.0660747868	 0.338174
N	-2.381481586	-0.1635071045	-0.1407557163	-0.559612
N	-1.1363644736	-2.0916523465	-0.0809525252	-0.276214
N	-0.0428120035	-2.7295393463	-0.0552315044	-0.043544
N	 1.1039752727	-2.0436060321	-0.0119547445	-0.307235
C	 1.2858425912	-0.6451167977	 0.0167502788	 0.356202
N	 2.4326967735	-0.0704279138	 0.0705220106	-0.566857
H	 1.0197563539	 1.9323472073	-0.1889426178	 0.172085
H	-0.6487340185	 1.9447181861	-0.8133526626	 0.127445
H	-0.3476812276	 1.9620840421	 0.9304722758	 0.125544
H	-2.5206155307	 0.7644963368	 0.2237066313	 0.261541
H	-3.1206214024	-0.8202122539	 0.0587510183	 0.264468
H	 1.9161055102	-2.644024437	 0.0109694087	 0.268256
H	 3.1992884185	-0.7428556483	 0.0851593472	 0.197107
