18
gdb 77049	3.40621	0.96864	0.80096	2.2626	79.6	-0.2376	-0.026	0.2116	1410.2648	0.144165	-401.903281	-401.893778	-401.892834	-401.938086	34.358	
C	 0.0206949042	 1.6086334772	-0.0443339064	-0.397725
C	 0.0788452401	 0.0919717474	 0.0256062828	-0.057335
N	 0.7271246458	-0.6133250728	-1.1138876596	-0.097138
C	-0.155765398	-1.2502855609	-2.080038706	-0.318506
C	 0.5854873331	-1.9624683106	-3.1167069901	 0.302059
C	 1.1938916168	-2.5677969537	-3.9571324418	-0.421605
C	 1.5257434674	-1.4950964876	-0.2290858258	-0.290752
C	 1.1238183592	-0.5790796154	 0.9343351389	 0.383151
O	 1.4883312611	-0.4166879526	 2.0592379238	-0.287917
H	 1.0067078345	 2.0195702638	-0.2754563229	 0.131741
H	-0.6802802454	 1.940485108	-0.8167640613	 0.122215
H	-0.3131519127	 2.0137513143	 0.9158208944	 0.134813
H	-0.9183780603	-0.3240218297	 0.2621613604	 0.087133
H	-0.8581535033	-1.9579192302	-1.5932476331	 0.10896
H	-0.7734237998	-0.4707490381	-2.5436375728	 0.139057
H	 1.7314049442	-3.0950854647	-4.7060300723	 0.200929
H	 1.113541875	-2.509994317	-0.1020512824	 0.120619
H	 2.5882736979	-1.5728648374	-0.4762952559	 0.140301
