17
gdb 37681	3.06615	2.41849	2.07583	1.4713	71.43	-0.2217	0.0811	0.3028	756.5362	0.140548	-384.655671	-384.650556	-384.649612	-384.684766	23.647	
O	-0.0000458755	 1.4672154266	-0.0802876662	-0.257804
C	 1.3289834765	 1.8928262066	 0.0619426413	 0.096292
C	 2.4238730758	 1.1461233758	-0.6741727246	-0.118657
C	 2.0452522712	-0.11941682	-1.4227601408	-0.061746
C	 0.6180807853	-0.618679933	-1.2723140299	-0.094364
C	 1.7448061393	-1.2428598422	-0.4616081616	-0.089027
C	 1.3315564009	-0.4040719494	 0.7825610493	-0.11181
C	 2.1638178493	 0.8788640185	 0.8064209739	-0.119048
C	 0.0498238944	 0.0545198694	-0.0316924163	 0.080281
H	 1.4018942231	 2.9626823263	 0.2191946618	 0.098599
H	 3.2945245668	 1.7035663275	-0.9999472285	 0.083179
H	 2.5330349168	-0.3405645095	-2.3642084134	 0.086931
H	 0.051299875	-1.0139674553	-2.1065967325	 0.082264
H	 2.16036809	-2.2409157383	-0.4964940676	 0.087775
H	 1.1745795603	-0.8988836658	 1.7381468547	 0.070256
H	 2.8480076142	 1.1275849998	 1.6076820688	 0.086159
H	-0.9127689934	-0.327615617	 0.3099952818	 0.080719
