19
gdb 114585	2.57095	1.20507	0.96134	1.2225	83.48	-0.2302	0.039	0.2692	1272.3076	0.15801	-385.822533	-385.813476	-385.812532	-385.856297	34.476	
O	-0.0429566718	 1.4126522963	-0.1906553938	-0.422116
C	 0.036215508	 0.0263634053	 0.1128490022	-0.1025
C	-1.3608022354	-0.5469050602	-0.030614575	-0.035168
C	-2.0136960206	-0.6339739855	-1.4488017514	-0.243948
C	-2.2329427419	-2.1371106577	-1.2489245272	-0.104761
C	-0.9274508408	-2.8261368112	-1.0230652139	-0.326962
C	-1.5449620904	-2.0713609219	 0.1402923632	 0.184673
C	-1.8962401779	-2.7106276552	 1.3618782856	 0.182058
C	-2.1928936833	-3.224339029	 2.4101160011	-0.420418
H	 0.8408516046	 1.7861595175	-0.1279468892	 0.28737
H	 0.7344282256	-0.4868134963	-0.5667190782	 0.081634
H	 0.3954228115	-0.1426293839	 1.1408986334	 0.094439
H	-2.0249729655	-0.0137091731	 0.6539197346	 0.090671
H	-2.9370628367	-0.0574011232	-1.5173613896	 0.110903
H	-1.3699658141	-0.3622565187	-2.2914566505	 0.102577
H	-3.1317988677	-2.6855269282	-1.5013824179	 0.101624
H	-0.9729262174	-3.9048440257	-0.9216606548	 0.126771
H	-0.0206682866	-2.4582338678	-1.4964134453	 0.110037
H	-2.4563771797	-3.6825982113	 3.3305822668	 0.183114
