19
gdb 72882	3.16912	1.4033	1.18233	2.6347	75.33	-0.244	0.0626	0.3066	1098.8031	0.15806	-422.975217	-422.967064	-422.96612	-423.007874	31.66	
C	-0.1786011221	 1.515065273	 0.2620181228	-0.476147
C	 0.0570643335	 0.0401764246	 0.078592128	 0.449798
C	-1.1531535138	-0.9383052819	 0.0132104495	-0.368965
C	-0.4101162218	-1.854153397	 0.9999385583	 0.461099
C	-0.9510023798	-2.7355728538	 2.0347214839	-0.273015
O	-0.3039268924	-3.2612347696	 0.8670468079	-0.268852
C	 0.799586776	-0.9233371312	 1.0700494462	-0.237443
C	 1.7841738858	-1.1193576962	-0.0934803148	-0.088921
O	 1.0176162281	-0.2540363083	-0.9648386758	-0.328147
H	 0.7630165249	 2.0401724152	 0.4467081874	 0.124602
H	-0.6310283769	 1.93785993	-0.642183875	 0.132038
H	-0.8566637626	 1.702134746	 1.1008487893	 0.116682
H	-2.0939689027	-0.5349417259	 0.3994786393	 0.104061
H	-1.3142270814	-1.3603944483	-0.9809670493	 0.12422
H	-0.4093942911	-2.873438954	 2.9702530564	 0.11476
H	-2.0255571098	-2.9083568163	 2.0900708749	 0.116247
H	 1.1934589589	-0.6434327462	 2.0469251182	 0.078125
H	 2.7869243827	-0.7131310393	 0.0856154618	 0.100996
H	 1.8696701645	-2.1408361305	-0.4804004391	 0.118863
