18
gdb 42398	5.11832	0.74809	0.72987	1.71	73.26	-0.2588	-0.0308	0.228	1565.6014	0.146686	-439.049223	-439.040297	-439.039353	-439.084524	31.558	
O	 0.0947643312	 0.2273638295	-0.8271724584	-0.334842
C	 0.0417777969	 1.2454129303	-0.1654621291	 0.380966
C	 1.2156457183	 1.745349002	 0.6570757567	-0.358713
C	 2.4774834827	 0.9455547822	 0.445645953	 0.110124
C	 3.5458726941	 1.4047407966	-0.4473697598	-0.169453
O	 3.673053475	 1.5223463257	 0.9722192093	-0.243551
C	-1.2096131857	 2.0649062319	-0.1181449016	-0.101633
C	-1.8482798571	 2.3694589321	-1.4416278873	-0.217001
N	-2.4597018819	 1.4124486776	-0.5332131271	-0.301693
H	 1.3891848988	 2.8067136451	 0.4393987975	 0.134194
H	 0.9190029895	 1.7105703152	 1.7158849071	 0.143225
H	 2.379328942	-0.1258175566	 0.611125536	 0.111862
H	 4.2055748811	 0.6789758338	-0.9195931052	 0.122209
H	 3.4307251365	 2.3455879624	-0.9847772005	 0.111258
H	-1.2984772561	 2.7859801761	 0.6891250007	 0.101507
H	-2.3775860666	 3.3105102515	-1.5596857109	 0.129158
H	-1.3394723017	 1.9974387554	-2.3266008052	 0.132949
H	-2.2076388968	 0.4709326493	-0.8380859353	 0.249435
