17
gdb 74190	2.4892	1.66922	1.08421	5.5132	77.5	-0.2139	-0.0049	0.209	1089.3951	0.138783	-418.047825	-418.040121	-418.039177	-418.079795	30.789	
N	 0.099906582	 1.3537858437	 0.1774192981	-0.574901
C	-0.0044676374	-0.0134071983	 0.0234047983	 0.374779
C	-1.1787638171	-0.6826929918	-0.0017064946	-0.318964
C	-1.2733523175	-2.1438522375	 0.0007335209	 0.406699
O	-2.3334059027	-2.7503458864	-0.0508491988	-0.404275
N	-0.0724666967	-2.8300972854	 0.0858965191	-0.352285
C	 1.2199114624	-2.2466582543	-0.040473188	 0.029183
C	 1.650479368	-1.528147178	-1.2948039732	-0.314876
C	 1.2877322339	-0.7379001482	-0.0411832073	-0.145226
H	 0.8993893387	 1.795443597	-0.2513336742	 0.254218
H	-0.7536258823	 1.882039454	 0.0710051831	 0.256606
H	-2.1295130268	-0.162193558	 0.0035355148	 0.088454
H	-0.1640096016	-3.8301285755	-0.0097066924	 0.242555
H	 1.9888315447	-2.7723205629	 0.5173745111	 0.106621
H	 2.6969853228	-1.5645930437	-1.5768158764	 0.117802
H	 0.9437753976	-1.4938635217	-2.116007612	 0.131735
H	 2.102191082	-0.2693879928	 0.5025858914	 0.101874
