10
gdb 1022	9.42679	2.00693	1.65466	7.3289	54.88	-0.2538	-0.0199	0.2339	670.6291	0.070003	-318.40967	-318.404343	-318.403399	-318.438795	19.222	
N	 0.0281611933	-1.1409478111	-0.0039120673	-0.338675
C	 0.0171016757	 0.0164485973	 0.0025257979	 0.220017
C	-0.0286077009	 1.436170677	 0.011032811	 0.184588
C	-1.1597083466	 2.2217426683	 0.0306812347	-0.1602
N	-0.6960736367	 3.5081407617	 0.0315561495	-0.226045
C	 0.6707557602	 3.4535970815	 0.0127692598	 0.018922
N	 1.1090197142	 2.2214437854	 0.0000358377	-0.290714
H	-2.2081502712	 1.9777548738	 0.04349332	 0.161142
H	-1.263124916	 4.340161711	 0.0438316982	 0.281895
H	 1.2828806181	 4.342683485	 0.0094252985	 0.149068
