17
gdb 64923	2.12241	1.55293	1.07435	3.0565	71.42	-0.2475	-0.0519	0.1956	1134.9248	0.131519	-458.968123	-458.958431	-458.957487	-459.002594	34.759	
C	-0.0390338197	 1.4811746849	 0.0208112069	-0.469784
C	 0.0578984703	-0.0299333859	 0.0159980732	 0.141654
C	 1.3894703668	-0.6993271572	-0.2381997727	-0.350286
C	 0.8887767053	-0.6904519717	 1.1730117363	 0.25275
O	 1.5488328226	 0.1653170507	 2.053338636	-0.449436
C	 0.4621913711	-1.9822508592	 1.7957171684	 0.106763
O	 0.0340927504	-2.9416591993	 1.2030644334	-0.260206
C	-1.1634091228	-0.7340041945	-0.4835834763	 0.093656
O	-2.1845486419	-0.1477736085	-0.7563774848	-0.263573
H	 0.8526191373	 1.9333671412	 0.4566324335	 0.129101
H	-0.1544756316	 1.84743168	-1.0032735756	 0.14079
H	-0.9212272365	 1.8091215278	 0.5775841072	 0.136153
H	 1.3810954254	-1.662596237	-0.7383885453	 0.147942
H	 2.237020147	-0.0572507857	-0.448566718	 0.143893
H	 0.9001178037	 0.5866645791	 2.6289825065	 0.297927
H	 0.6062805705	-1.9899337413	 2.8989186741	 0.088836
H	-1.0700650778	-1.8281144736	-0.6067480928	 0.11382
