23
gdb 100883	2.27638	1.02049	0.74377	1.6813	88.5	-0.2551	0.0522	0.3073	1603.5552	0.20187	-388.263722	-388.252118	-388.251174	-388.30113	41.758	
C	 0.0868935084	 1.6231041686	 0.0998715555	-0.384823
C	 0.0276730632	 0.0942598323	 0.038821186	-0.192407
C	 0.6552037311	-0.471145977	-1.2438656703	 0.137056
O	 1.9946596435	-0.0174368754	-1.3900651824	-0.422911
C	 0.5804376315	-2.0241136449	-1.3283867218	-0.215381
C	-0.8710498001	-2.5614483699	-1.3960841623	-0.181255
C	-0.9589926457	-4.089505903	-1.3962144398	-0.388683
C	 1.3618243249	-2.5090279257	-2.4663734356	 0.353945
C	 1.9704343239	-2.9216877025	-3.4175796203	-0.465955
H	 1.1164489247	 1.9746722983	 0.0007231016	 0.130198
H	-0.4956588452	 2.0701672182	-0.7132703166	 0.115286
H	-0.3196559811	 1.9948785122	 1.045138043	 0.108336
H	 0.5555805388	-0.3362052771	 0.903099401	 0.08418
H	-1.013660149	-0.2344047824	 0.1211747834	 0.102427
H	 0.1319116557	-0.0587529622	-2.1158581973	 0.094205
H	 2.525293079	-0.4279691269	-0.6977859397	 0.276746
H	 1.03940043	-2.4180583408	-0.4063412706	 0.088489
H	-1.4315191263	-2.1703252893	-0.541735389	 0.101558
H	-1.3469493832	-2.1606952446	-2.2991516044	 0.107601
H	-0.5216463516	-4.5100623325	-0.4835985159	 0.111914
H	-2.0016885253	-4.4172960012	-1.4469404911	 0.111986
H	-0.424518902	-4.5144462132	-2.2497847616	 0.135684
H	 2.5250956746	-3.2731339908	-4.2519279617	 0.191806
