20
gdb 70578	2.54479	1.81842	1.32028	2.7553	78.43	-0.2307	0.0735	0.3042	1029.7622	0.172645	-403.112843	-403.105164	-403.10422	-403.144425	31.446	
C	-0.0835709753	 1.4931298584	 0.017311293	-0.486209
C	 0.005116529	-0.01674244	 0.0214391829	 0.323724
N	-0.2235321615	-0.733074966	 1.2945584541	-0.364242
C	 1.1320450844	-0.6943281847	 0.7154125382	-0.083896
C	 1.6416882761	-2.0065858713	 0.1519531221	-0.086165
O	 0.6103001987	-2.7777264182	-0.4423134823	-0.246171
C	-0.1023237936	-2.1288458257	-1.4539766054	 0.087865
C	-1.5433582118	-1.8084973582	-1.1736021567	-0.318426
C	-0.5182082294	-0.6968373543	-1.2228938299	-0.097972
H	 0.4247446902	 1.918909634	-0.854971645	 0.123864
H	-1.1286600036	 1.8226283749	-0.0154932532	 0.127252
H	 0.3801232236	 1.917413571	 0.914391057	 0.109713
H	-0.2972069434	-0.0600291595	 2.0536326947	 0.225192
H	 1.8886781433	-0.0767257486	 1.1969172163	 0.078231
H	 2.4500576295	-1.7962537647	-0.5691078584	 0.085769
H	 2.0545293843	-2.6367091792	 0.9464979858	 0.112197
H	 0.1886225639	-2.4329177948	-2.4587345705	 0.082299
H	-2.2611542447	-1.882469772	-1.982980317	 0.104404
H	-1.9008238547	-2.0877898003	-0.1898132911	 0.142834
H	-0.533080665	-0.0531707606	-2.0972896845	 0.079737
