25
gdb 120633	4.50694	0.66746	0.64084	1.2976	90.56	-0.2495	0.0708	0.3203	1917.6054	0.226481	-389.49031	-389.479056	-389.478112	-389.52693	41.392	
C	 0.0430729687	 1.5228138425	 0.2320973266	-0.379203
C	-0.0755274979	-0.0014016751	 0.3130199082	-0.155824
C	-1.3640712939	-0.5358491603	-0.3259977162	-0.19183
C	-1.4775081798	-2.0444900793	-0.2597519126	-0.049678
C	-1.9748449327	-2.727327644	 1.006213082	-0.355575
C	-2.8083732559	-2.7425307557	-0.2556979248	 0.390352
O	-3.9268338423	-1.888225779	-0.3005376624	-0.469681
C	-2.9877271717	-4.0354844546	-1.0303209825	-0.219129
C	-4.1201750132	-4.9149030216	-0.487071786	-0.393625
H	 0.9695648432	 1.8783052291	 0.694219278	 0.107971
H	 0.0371828255	 1.8660060328	-0.8086116712	 0.112413
H	-0.7935183737	 2.0123049499	 0.7433198398	 0.112624
H	 0.7924201164	-0.4630004413	-0.1767119967	 0.089495
H	-0.0348801414	-0.3210311566	 1.362164881	 0.094877
H	-2.2372161632	-0.0884529296	 0.1600232863	 0.105205
H	-1.4068556163	-0.2153102456	-1.3761581151	 0.092114
H	-0.68884152	-2.5744437693	-0.7908687522	 0.078146
H	-1.4986268849	-3.6445434473	 1.3375234368	 0.104212
H	-2.3150710394	-2.0780959585	 1.8072002673	 0.106019
H	-4.5905677165	-2.2389263372	 0.3020565535	 0.282547
H	-3.186812788	-3.7868951411	-2.0802860815	 0.102991
H	-2.0444030526	-4.5936551592	-1.0100707612	 0.093061
H	-4.214657403	-5.839083696	-1.0646623814	 0.115463
H	-3.9431970746	-5.1890599325	 0.5588731183	 0.115157
H	-5.0832103228	-4.3961028405	-0.5440398939	 0.111899
