25
gdb 118463	1.688	0.99662	0.74504	1.8956	85.79	-0.2582	0.0691	0.3273	1682.7686	0.226085	-426.624944	-426.612974	-426.61203	-426.662672	42.833	
C	 0.4423901728	-0.1339634135	 1.6728689116	-0.391827
C	 0.0599581822	-0.2111507397	 0.1910183737	-0.184475
C	-1.3866884737	-0.6833069185	-0.0794184118	 0.0378
C	-1.85126563	-0.2730256746	-1.49177777	-0.178102
C	-2.275204322	 1.1880234522	-1.5867216185	-0.083452
O	-2.650696767	 1.4437541466	-2.9330228194	-0.42124
C	-1.5162641805	-2.2023471306	 0.1507030032	 0.117592
C	-2.9603680635	-2.7012268677	 0.2401388405	-0.416278
O	-0.8103137347	-2.8417346013	-0.9124980209	-0.43341
H	 1.4737788107	 0.2127488674	 1.7930582572	 0.111637
H	-0.2070032704	 0.5642962555	 2.2136846875	 0.109526
H	 0.3680341788	-1.1057563269	 2.1719005991	 0.115805
H	 0.2032779795	 0.7790658665	-0.2558729706	 0.089437
H	 0.7405892495	-0.8869205031	-0.3391462455	 0.115948
H	-2.0472629681	-0.2026886743	 0.6579665268	 0.058115
H	-1.0501636612	-0.4589821818	-2.2139903707	 0.116675
H	-2.7005052447	-0.8810099633	-1.8176090854	 0.102078
H	-3.1177818812	 1.3728190758	-0.8987432765	 0.078403
H	-1.4540019854	 1.852938227	-1.2752288871	 0.084024
H	-2.8971554891	 2.3703467462	-3.0048199928	 0.282985
H	-1.0259105755	-2.4381468964	 1.1091502443	 0.061129
H	-3.5118188553	-2.512169565	-0.6847279542	 0.130001
H	-2.9790464631	-3.7818236015	 0.4254370969	 0.102253
H	-3.4896704303	-2.2174635249	 1.0678231803	 0.114519
H	-0.8677561476	-3.7926672042	-0.7796974277	 0.280858
