19
gdb 82117	3.04309	1.14989	0.9581	5.464	79.02	-0.2454	0.0345	0.2799	1259.509	0.159824	-382.038484	-382.02986	-382.028916	-382.072144	32.31	
C	-0.2934630673	 1.5851612208	 0.118800969	-0.414667
C	-0.0033906749	 0.0881254675	 0.100836751	-0.032357
C	 0.4458426782	-0.5678996911	-1.2069226126	-0.027261
C	 1.7932799281	-0.1308980244	-1.6105422518	-0.247518
N	 1.692763839	-1.1793363019	-0.5772320003	-0.129115
C	 1.3078067623	-0.5083889022	 0.7151934027	 0.037069
C	 2.346818834	 0.4190267062	 1.3583225161	-0.364426
C	 3.5399290176	-0.3028708972	 1.7975503511	 0.272148
N	 4.4792241311	-0.873117548	 2.1542849812	-0.302198
H	 0.5249714706	 2.1767805071	-0.3016439629	 0.116926
H	-1.1907628731	 1.8046526939	-0.4693362471	 0.126069
H	-0.474983829	 1.9410015047	 1.1388176222	 0.120645
H	-0.8622247367	-0.4441387484	 0.5185832943	 0.091769
H	-0.1940802594	-1.1513817681	-1.8609055884	 0.101024
H	 2.1866576223	-0.5191523684	-2.5445334152	 0.131916
H	 2.15711463	 0.8618592494	-1.3598245833	 0.109219
H	 1.0764879842	-1.301827891	 1.4293749354	 0.107096
H	 2.6553483138	 1.2196705487	 0.6794252455	 0.14837
H	 1.8974917993	 0.9076575424	 2.2311366131	 0.155293
