15
gdb 20907	5.02902	1.41137	1.19821	1.7061	64.08	-0.2288	0.0026	0.2314	998.4394	0.120338	-395.991231	-395.983758	-395.982814	-396.02375	26.917	
C	-0.0724871857	 1.5221213548	 0.1178557647	-0.378194
C	 0.0411906491	-0.0017902254	 0.0709076882	-0.125455
N	 0.7511567047	-0.5439584166	 1.2173843477	 0.146359
N	 2.0167867207	-0.9224057712	 1.1563973487	-0.218599
C	 2.3164157091	-1.2776424458	 2.4089205913	-0.134825
C	 1.1705716352	-1.0800951668	 3.1939161619	 0.368737
O	 1.0319384391	-1.3181922845	 4.5108971484	-0.423952
N	 0.1876599317	-0.6117433026	 2.4310754288	-0.343069
H	 0.9186641459	 1.9840581226	 0.1176337652	 0.135975
H	-0.6228136128	 1.8817055822	-0.7566963926	 0.122623
H	-0.6054936726	 1.8396624829	 1.0175682059	 0.141214
H	-0.9495135939	-0.4643613044	 0.0492165088	 0.131867
H	 0.5997372185	-0.3319186717	-0.8066241069	 0.14113
H	 3.2898242038	-1.6494005426	 2.6805834501	 0.128125
H	 0.127502457	-1.0860322508	 4.7545415297	 0.308063
