21
gdb 37781	2.56296	1.91918	1.40973	0.4286	86.44	-0.2285	0.0224	0.2509	1000.9662	0.186512	-349.936683	-349.929614	-349.92867	-349.96768	30.004	
C	 0.0241971053	 1.5029021807	-0.2013218534	-0.252297
C	 1.5460927921	 1.5235716816	-0.0372638248	-0.067272
C	 1.9385764181	 1.0158983382	 1.3376298026	-0.053316
C	 1.1565511929	 1.3169058356	 2.5627748145	-0.053588
C	 0.1732430863	 0.5717754541	 3.0703714398	-0.072492
C	-0.2742097332	-0.7576276102	 2.5083688125	-0.247279
C	-0.879103023	-0.6884236704	 1.0935288983	-0.223164
C	 0.0360291555	-0.0496189969	 0.0344508936	 0.030616
C	 1.5589677242	 0.0240651603	 0.2626788223	-0.118218
H	-0.5389951602	 2.0957737992	 0.5256279062	 0.096628
H	-0.3098456548	 1.7674621063	-1.2069060101	 0.095491
H	 2.2370932103	 2.1000764644	-0.640513431	 0.080961
H	 3.0176388222	 1.0765701002	 1.4788218108	 0.086435
H	 1.4184323969	 2.2499363766	 3.060826568	 0.077411
H	-0.3413874277	 0.9305408064	 3.9590180424	 0.082179
H	 0.5842166585	-1.4408197909	 2.4793849902	 0.111757
H	-1.0039110804	-1.2161361094	 3.1839017798	 0.091071
H	-1.1354927019	-1.7107109273	 0.788646157	 0.088726
H	-1.8261144217	-0.1341988585	 1.1203354418	 0.096691
H	-0.153345296	-0.5343294539	-0.9279772853	 0.073581
H	 2.2701593366	-0.723577886	-0.0711187253	 0.076079
