13
gdb 9569	4.73142	1.32083	1.22134	3.9593	66.33	-0.285	-0.019	0.2661	975.9101	0.092545	-361.41715	-361.409091	-361.408147	-361.449465	28.791	
C	-0.08011027	 1.545556594	-0.0850891677	-0.4677
C	-0.0335443711	 0.0420899687	 0.0513578571	 0.237576
O	 1.2253357309	-0.5943224312	-0.1614723693	-0.249779
C	 0.6852752985	-0.6425780526	 1.1676963456	-0.209185
C	 1.3571003586	 0.0967535143	 2.1989051053	 0.327866
C	 1.9094532359	 0.6881857017	 3.0872465658	-0.385385
C	-1.1691075834	-0.6679422379	-0.5211564776	 0.2616
N	-2.0860056171	-1.2097400427	-0.9696521136	-0.325056
H	 0.7702087827	 1.9898783404	 0.4338015452	 0.15335
H	-0.0428563511	 1.8251229177	-1.1414775077	 0.151969
H	-1.0070714503	 1.9375536733	 0.3429040881	 0.148252
H	 0.3230467973	-1.6274370022	 1.4587506761	 0.141981
H	 2.401841949	 1.2114451666	 3.8702847928	 0.214509
