23
gdb 118512	2.21363	0.91276	0.6841	0.5367	82.19	-0.2566	0.0768	0.3334	1674.4068	0.20452	-425.400302	-425.389594	-425.38865	-425.436743	38.812	
O	-0.2176927954	 1.4055509387	-0.3498556709	-0.421212
C	 0.0015029896	 0.0288400475	-0.0758758795	-0.086947
C	-1.3664904586	-0.6378603902	 0.0292374541	-0.175019
C	-1.3317144988	-2.1702575141	 0.1697213571	-0.027743
C	-0.7061394274	-2.609895041	 1.505951991	-0.064575
O	-0.5789305782	-4.0146916712	 1.6343535765	-0.427934
C	-2.7310718056	-2.7467512623	 0.017005289	 0.010667
C	-3.3278988826	-2.957828956	-1.3489621613	-0.280761
C	-2.9498565383	-4.1515961886	-0.5087366252	-0.292155
H	 0.6367675461	 1.8456194181	-0.3786725706	 0.28501
H	 0.5844383752	-0.4497846554	-0.8807361587	 0.084849
H	 0.5721692032	-0.096999459	 0.8568141477	 0.088901
H	-1.9107479331	-0.1951708317	 0.8736735873	 0.100775
H	-1.9306899789	-0.3745444939	-0.8722348856	 0.111075
H	-0.7076734855	-2.5852715148	-0.6353426015	 0.071997
H	 0.3096648839	-2.2147664565	 1.6019476086	 0.103866
H	-1.2976756378	-2.1836042411	 2.3354548037	 0.081067
H	-1.4553304378	-4.3911764981	 1.5054416145	 0.288149
H	-3.4281578721	-2.4167890656	 0.785767488	 0.083131
H	-4.3807769593	-2.7432897805	-1.492741079	 0.114089
H	-2.7073431974	-2.7316764277	-2.2102412011	 0.114892
H	-2.0754691756	-4.7198712113	-0.8074722626	 0.124831
H	-3.7471412857	-4.7507779854	-0.0813803214	 0.113048
