18
gdb 40578	3.95142	1.41003	1.32092	1.3933	74.59	-0.2156	0.0736	0.2893	1008.8805	0.148591	-401.835078	-401.828073	-401.827129	-401.866843	28.101	
C	 0.7603417043	 1.2182137164	 0.3038886137	-0.228836
C	 0.5845990646	 0.1396284505	-0.7097259978	-0.224721
N	-0.4626779384	 0.424996941	 0.2688505872	-0.107153
C	-0.737831287	-0.4633963676	 1.3715399859	 0.085803
C	-1.6621981954	-1.6594128762	 1.1702642446	-0.153428
C	-0.7367687201	-2.8649269866	 0.9433443602	 0.094567
O	 0.612647852	-2.401341578	 0.8972622709	-0.282091
C	 0.2551857001	-1.5165033191	 1.9986143415	 0.006081
C	-0.9990995415	-2.4015314393	 2.3322150609	-0.14658
H	 1.4718676116	 1.0303043864	 1.1068316282	 0.105134
H	 0.6569739639	 2.2647444568	 0.0289845121	 0.111697
H	 0.3289352107	 0.4035616897	-1.7329912469	 0.108637
H	 1.166862925	-0.7662977872	-0.5918822661	 0.143422
H	-1.1248408881	 0.1489484714	 2.1938361225	 0.088029
H	-2.7060772087	-1.6591256553	 0.8851095606	 0.09633
H	-1.0045082032	-3.762033879	 0.401744177	 0.113321
H	 1.0969840796	-1.2580334147	 2.6372325999	 0.086362
H	-1.3910740195	-2.8564391291	 3.2300803356	 0.103424
