22
gdb 122720	3.29059	0.54273	0.48915	2.0253	84.05	-0.2424	0.0309	0.2734	2278.6586	0.191518	-441.473173	-441.46189	-441.460946	-441.511419	38.607	
C	 1.0429525061	 1.042732981	 0.4929850129	-0.374818
C	 0.291728194	-0.1456794042	-0.0933057606	-0.070375
O	-0.2008232677	-1.0181495173	 0.924619058	-0.203223
C	 0.641352258	-1.9864636142	 1.3475618403	 0.126838
N	 0.3282949049	-2.7083128365	 2.3274207898	-0.2393
C	 1.2005014676	-3.7812109161	 2.7708694679	-0.129066
C	 2.5298143992	-4.010429978	 2.0397462716	-0.182802
C	 3.3133046683	-5.1705410753	 2.6400253636	-0.083414
O	 4.5213385342	-5.3079733492	 1.9061446697	-0.423583
H	 1.9425295599	 0.7171506222	 1.0248168042	 0.124727
H	 1.3470808672	 1.7292785024	-0.3038184378	 0.119698
H	 0.4073001472	 1.5862984422	 1.197294049	 0.13731
H	-0.5929730479	 0.1866332296	-0.6433355634	 0.120876
H	 0.9271725094	-0.7060862915	-0.7928967	 0.105802
H	 1.5593936932	-2.0636025743	 0.7498317305	 0.07752
H	 1.401645178	-3.6079411471	 3.8376726149	 0.109222
H	 0.6089035019	-4.7073433891	 2.7406835105	 0.109764
H	 2.3570156567	-4.2264259778	 0.9784801645	 0.108186
H	 3.15730038	-3.1120455681	 2.086016439	 0.106929
H	 3.5152464941	-4.9720666685	 3.7054298772	 0.086957
H	 2.710634035	-6.0922646302	 2.5903402127	 0.087238
H	 5.0174921207	-6.0422020101	 2.2796019853	 0.285514
