21
gdb 102412	1.78526	1.43163	1.09029	0.1992	70.16	-0.2458	0.0483	0.2941	1237.7656	0.180189	-498.467468	-498.456648	-498.455704	-498.50303	39.265	
C	 0.5208926104	 0.8062780622	-0.466823769	-0.261176
O	-0.4729917328	 0.5356987657	 0.5121595782	-0.304521
C	-1.4991567051	-0.4129688849	 0.1929022058	 0.280297
C	-0.8793539878	-1.809079946	-0.023964839	-0.136217
O	-1.8001846707	-2.7280268668	-0.6146276499	-0.429204
C	-2.3737848726	-0.3932596418	 1.4585998565	-0.081805
O	-1.6155207789	-0.6213086047	 2.6256335538	-0.426647
C	-2.3539161652	 0.0208043026	-1.0190486601	-0.117361
O	-1.8485016449	-0.3969563814	-2.2736140804	-0.425996
H	 1.2910639154	 0.0240326056	-0.5009513352	 0.113591
H	 0.0925938341	 0.9166384343	-1.4674939014	 0.146655
H	 0.9982347279	 1.743649977	-0.1695831685	 0.125096
H	-0.0518378641	-1.741463017	-0.7317628074	 0.118796
H	-0.4914705047	-2.1810245131	 0.9307887434	 0.12005
H	-2.4475972474	-2.9824338561	 0.0499121181	 0.294935
H	-2.9083167196	 0.5693362584	 1.5039696366	 0.095074
H	-3.1315190948	-1.1841214849	 1.4036252095	 0.090073
H	-0.8511497225	-0.0357215728	 2.5450451849	 0.291112
H	-3.3841502442	-0.3378365442	-0.8736455944	 0.08974
H	-2.3902408868	 1.1145357844	-1.0360688579	 0.119943
H	-1.9365616155	-1.3589170463	-2.2837948639	 0.297563
