25
gdb 100684	2.77242	0.94045	0.86131	0.3042	84.83	-0.2569	0.0694	0.3263	1515.3323	0.225328	-426.629456	-426.617501	-426.616557	-426.666045	44.015	
C	 0.0058143143	 1.6291920206	 0.0736806456	-0.376925
C	-0.0033370955	 0.0987851842	 0.0003734661	-0.212875
C	 0.6764711896	-0.5530588552	 1.2127586232	 0.113745
O	 0.0368613177	-0.1431739441	 2.425325053	-0.441786
C	 0.8280320545	-2.1018226342	 1.1390433865	 0.250928
C	-0.5388732496	-2.8105530711	 1.1143364233	-0.433281
C	 1.6505472502	-2.5043159525	-0.0998809951	-0.426912
C	 1.5981163911	-2.5361949565	 2.4025884301	-0.093544
O	 1.7709119265	-3.9490347335	 2.3804223104	-0.430506
H	 1.0308430415	 2.0161260829	 0.0603751104	 0.113636
H	-0.5276821367	 2.0681253299	-0.7748118018	 0.107409
H	-0.4651642687	 1.9776810894	 0.9962663603	 0.125053
H	-1.0394593752	-0.2607049068	-0.068413751	 0.089212
H	 0.4946804804	-0.227943937	-0.9180071658	 0.103759
H	 1.6894839248	-0.1349320196	 1.2975269737	 0.07877
H	-0.8967543371	-0.3693733514	 2.353082106	 0.278316
H	-1.096010724	-2.587775753	 0.1995334519	 0.108785
H	-0.3966010494	-3.8916493906	 1.1716685852	 0.138256
H	-1.1570116006	-2.5216560208	 1.97232504	 0.095041
H	 2.5676142267	-1.9079961982	-0.1771306886	 0.103853
H	 1.9411583653	-3.5545688596	-0.024867265	 0.135997
H	 1.0854338285	-2.3752845653	-1.0270371111	 0.1092
H	 2.5751640669	-2.0253621066	 2.4202858173	 0.077244
H	 1.0409790794	-2.2171260275	 3.291658098	 0.099535
H	 2.1727754092	-4.2125375235	 3.2124509473	 0.287089
