18
gdb 40540	4.6186	1.04482	0.96893	3.0132	79.14	-0.2283	0.0013	0.2296	1239.8222	0.149024	-401.903734	-401.896209	-401.895264	-401.936225	29.239	
C	 0.2936197815	 1.391655941	-0.0431853407	-0.188738
O	 1.1841688068	 0.2997335064	-0.2369078311	-0.232143
C	-0.2014580989	 0.0018417032	 0.0152017807	-0.02041
C	-0.5248345866	-0.6829101975	 1.2800357567	 0.338685
C	-1.4716307505	-1.6179853008	 1.4359845485	-0.180447
C	-1.4652598425	-2.1589570627	 2.8238339053	-0.078922
N	-0.1767574383	-2.841558374	 3.1540885141	-0.331038
C	-0.3840358861	-1.4313055585	 3.5430849755	-0.048055
C	 0.2319427963	-0.4264203085	 2.5752169966	-0.315943
H	 0.4352756003	 1.9566154687	 0.8765984024	 0.114273
H	 0.0818258169	 1.9917154118	-0.9277428663	 0.116293
H	-0.736525246	-0.3679745634	-0.8597573998	 0.090682
H	-2.1272413424	-1.9807569448	 0.6528621212	 0.09462
H	-2.3745440853	-2.5026691237	 3.304947721	 0.088046
H	-0.3238358954	-3.4200758178	 3.98039848	 0.226075
H	-0.4567841636	-1.1874848876	 4.5973792382	 0.0871
H	 1.3077175678	-0.5807597902	 2.4436620525	 0.138379
H	 0.091868726	 0.6028835083	 2.9307506653	 0.101545
