22
gdb 101799	3.27694	0.74966	0.74643	1.2425	81.36	-0.2496	0.0368	0.2864	1702.8897	0.190964	-441.489405	-441.478159	-441.477214	-441.527176	38.849	
C	 0.0754081444	 1.3103136153	-0.0840873827	-0.232255
O	 0.0075137697	-0.0727695467	 0.1658560773	-0.245767
C	-1.2830182532	-0.644356306	 0.0114474784	 0.12293
C	-1.6980469794	-0.7750605773	-1.4575020506	-0.402259
C	-1.2681409067	-1.9810010307	 0.7390381206	-0.059295
O	-0.4271798332	-2.886017176	 0.0179073886	-0.237227
C	-0.3065278506	-4.1312757901	 0.5183513905	 0.404567
C	 0.6300015437	-4.9433423543	-0.3400988744	-0.461321
N	-0.9292602715	-4.4830633016	 1.5684050436	-0.523567
H	 1.0832121548	 1.6359328228	 0.1862930137	 0.126878
H	-0.0972701077	 1.5634566764	-1.140414007	 0.10592
H	-0.6514398103	 1.8707382216	 0.526219135	 0.100376
H	-2.021613581	-0.015731806	 0.5402874161	 0.06345
H	-0.9794699691	-1.3966886891	-1.9955107646	 0.137398
H	-2.6865994708	-1.2394672	-1.5328789568	 0.114678
H	-1.7542852244	 0.2021120293	-1.943996117	 0.114027
H	-0.883918117	-1.8561612894	 1.7554303793	 0.122866
H	-2.2798227543	-2.3948708074	 0.8082045151	 0.113343
H	 1.6168290524	-4.471455704	-0.3681397112	 0.149191
H	 0.7293866975	-5.9604580783	 0.0421092108	 0.12456
H	 0.2609383979	-4.9810505632	-1.3695432818	 0.143896
H	-0.7202298613	-5.4518675152	 1.7978490971	 0.217612
