18
gdb 65465	4.31485	0.7628	0.733	1.1348	75.04	-0.2524	-0.0368	0.2156	1540.2987	0.143379	-439.07073	-439.060859	-439.059915	-439.106592	34.233	
C	-0.0484149288	 1.6070649466	-0.1879424315	-0.473571
C	-0.0619242201	 0.1107306388	 0.0299589791	 0.205579
C	 1.194853611	-0.7053264702	-0.1325738629	-0.28847
N	 0.5986994726	-0.543611123	 1.1764012181	-0.126943
C	 1.2886392938	 0.2679767776	 2.1665924702	-0.231803
C	 2.0296716928	-0.6356606048	 3.144256824	 0.157884
O	 3.0141275345	-0.3021543875	 3.7477166054	-0.233234
C	-1.3433958019	-0.582455427	-0.3247819973	 0.143533
O	-2.263710332	-0.0557301102	-0.8958609398	-0.257504
H	 0.9479641617	 2.0339664169	-0.0613667865	 0.12163
H	-0.3945990865	 1.8260350869	-1.2008607264	 0.149745
H	-0.7350979832	 2.1080947865	 0.5017680008	 0.136346
H	 1.1632246737	-1.7063307812	-0.5559990629	 0.128193
H	 2.093013013	-0.1358817909	-0.3687176371	 0.12748
H	 1.9998533396	 1.0020215355	 1.7637746745	 0.122408
H	 0.5389927643	 0.8194924842	 2.7517496385	 0.141786
H	 1.5654593443	-1.6386488708	 3.266966561	 0.094172
H	-1.3714350186	-1.6478590375	-0.0066453274	 0.082769
