21
gdb 9848	3.38352	1.42098	1.15377	1.7455	74.42	-0.2366	0.0563	0.2929	1125.3249	0.187322	-366.241398	-366.231793	-366.230849	-366.275478	35.433	
C	 0.01782954	 1.548504933	-0.1688933206	-0.383094
C	-0.0089672621	 0.016383973	-0.1809647566	-0.214519
C	-1.3958866347	-0.5706661772	 0.1135730592	 0.057632
O	-2.3613789119	-0.0964498276	-0.8269634687	-0.436498
C	-1.4075453186	-2.1050035726	 0.1835149327	 0.33682
C	-0.4498201913	-2.7249713566	 1.1813390339	-0.456345
C	-2.6895346392	-2.7955845422	-0.1001110942	-0.279691
N	-1.5702507922	-2.8678422538	-1.0672933557	-0.357399
H	 1.0180508914	 1.9243823661	-0.40313112	 0.115625
H	-0.6806255083	 1.9728201495	-0.8960927502	 0.116325
H	-0.2646703076	 1.9354451545	 0.8160426377	 0.121401
H	 0.3336610529	-0.3650581285	-1.1546012636	 0.096632
H	 0.7040592765	-0.3636504179	 0.5568042297	 0.112312
H	-1.7318727023	-0.1953083858	 1.0912311221	 0.086412
H	-1.9069590431	 0.0994232934	-1.652135274	 0.284605
H	-0.5892211499	-2.2935583497	 2.1797936785	 0.111132
H	-0.6228323897	-3.8015474537	 1.2481844693	 0.12678
H	 0.5947603482	-2.5785492311	 0.889693011	 0.120803
H	-2.9166712917	-3.7305537587	 0.4051111408	 0.106294
H	-3.5461649843	-2.1865303939	-0.3673124848	 0.124034
H	-1.7835249517	-2.2182790804	-1.8222758265	 0.210738
