15
gdb 25789	4.15477	1.11575	0.88051	2.3863	72.73	-0.1967	-0.0188	0.1778	1236.7667	0.114977	-450.208628	-450.200168	-450.199223	-450.241709	31.314	
N	-0.0751735468	 1.3059417426	 0.0026150194	-0.536749
C	 0.0067533966	-0.0477507792	-0.020002777	 0.334457
O	 1.0497687246	-0.6856171051	-0.0653279292	-0.397987
C	-1.3032611462	-0.7265510391	 0.0128094665	 0.278196
N	-2.5113170105	-0.1782882482	 0.0521898522	-0.375501
C	-3.3858059803	-1.2262393888	 0.071138683	 0.287271
N	-4.7589905396	-1.0075667975	 0.1801301073	-0.59919
C	-2.6975946274	-2.4286349044	 0.0408429544	-0.170796
N	-1.3699632528	-2.0753171166	 0.0018612814	-0.263256
H	 0.7702488343	 1.8495205767	 0.0014445686	 0.263083
H	-0.9760125004	 1.7514057315	 0.0593787838	 0.276284
H	-5.0023463161	-0.069839926	-0.1106910043	 0.250207
H	-5.3216536986	-1.6884530257	-0.3111478754	 0.244637
H	-3.0253937502	-3.4538142777	 0.0511484249	 0.127678
H	-0.5547758465	-2.6668968827	-0.0313515756	 0.281665
