11
gdb 21738	5.55462	2.242	1.59729	3.0238	57.87	-0.2379	-0.0331	0.2048	705.4598	0.074936	-397.383542	-397.378455	-397.377511	-397.412665	19.86	
O	-0.0555408526	 1.3827911249	 0.0099945373	-0.196176
C	 1.2569665713	 1.7838312285	-0.0004402413	 0.014634
C	 2.14283613	 0.7414718935	-0.0144519073	-0.360793
C	 1.2985483807	-0.4066875496	-0.0124792201	 0.36497
C	 0.0039646538	 0.0278092806	 0.0022039872	 0.211838
C	-0.782959704	-1.139359027	 0.0035018181	-0.109013
N	-0.0012402784	-2.2025450554	-0.0094995213	-0.136967
O	 1.3395763851	-1.7429054171	-0.0199769252	-0.229478
H	 1.4056620433	 2.8515187434	 0.0038019409	 0.151794
H	 3.2174335324	 0.8139434341	-0.0243516708	 0.141018
H	-1.8528641818	-1.282138276	 0.0129727924	 0.148173
