18
gdb 99304	4.86598	0.73602	0.71681	1.3187	70.58	-0.2542	0.0609	0.3151	1625.9878	0.146268	-476.236343	-476.226491	-476.225547	-476.272924	33.382	
C	 0.287116217	 1.0277393327	 0.1775137952	-0.329591
N	-0.4015221738	-0.005088837	-0.5657002135	-0.353401
C	-1.3613885303	-0.7859790444	-0.009576259	 0.523838
O	-1.7765975171	-0.7069882169	 1.1277434825	-0.422785
O	-1.8058828225	-1.6859963876	-0.9304661684	-0.277302
C	-2.835756012	-2.5729052547	-0.4712138505	-0.090072
C	-2.2728112407	-3.7347847303	 0.3023349961	 0.079703
C	-2.9225469202	-5.0502878245	 0.2602645897	-0.179576
O	-1.7191912233	-4.807324285	-0.4651231588	-0.228563
H	 1.3588007713	 0.8148198783	 0.2652665435	 0.127328
H	 0.1630720352	 2.0086619191	-0.29464234	 0.127013
H	-0.1488936946	 1.0593572941	 1.176550653	 0.170233
H	-0.1457514821	-0.2014651949	-1.5187551285	 0.256285
H	-3.542528817	-2.0166962097	 0.1507893409	 0.132317
H	-3.3297538062	-2.930917783	-1.3772275859	 0.114076
H	-1.6983779347	-3.4643330959	 1.1866009066	 0.117811
H	-2.835062919	-5.7189272464	 1.1150832653	 0.119462
H	-3.81519618	-5.1935125238	-0.3484434381	 0.113224
