21
gdb 91705	2.4629	1.76372	1.56897	1.2834	82.42	-0.2348	0.0205	0.2554	998.6499	0.18553	-387.118385	-387.110892	-387.109947	-387.149846	31.056	
C	-0.2775519563	 1.5330740426	-0.0618092099	-0.408041
C	 0.0263443475	 0.0467264607	 0.0211347407	 0.166315
O	 0.823785135	-0.3461950223	-1.1105180814	-0.296218
C	 1.841183911	-1.2653125632	-0.6860909463	 0.107751
C	 1.3366163088	-1.7933377099	 0.6623312927	-0.244182
C	 0.8388163293	-0.4553131672	 1.2415899892	-0.091637
C	 2.0452964403	 0.4189592349	 1.5181557601	-0.064955
C	 3.1134245042	 0.3795658407	 0.7190276068	-0.04887
C	 3.1677370821	-0.5070808481	-0.5016232539	-0.251802
H	 0.6403874326	 2.12306315	-0.0057082187	 0.12421
H	-0.7779337835	 1.7593871037	-1.0076433538	 0.122859
H	-0.9424944299	 1.8336784672	 0.7552033164	 0.106324
H	-0.9240393366	-0.5117180914	-0.0086352213	 0.063295
H	 1.9392591425	-2.0370855917	-1.4557425522	 0.070361
H	 0.5150609836	-2.5029493364	 0.523814868	 0.0975
H	 2.1175476184	-2.2619821034	 1.2648423671	 0.100939
H	 0.2076508194	-0.5652360514	 2.1264619544	 0.064078
H	 2.0198291743	 1.0836473383	 2.376798682	 0.084557
H	 3.9822295096	 0.9985801018	 0.9292007004	 0.085789
H	 4.0085344604	-1.2129280866	-0.4291262646	 0.097105
H	 3.3500408671	 0.0946501516	-1.4010993558	 0.114622
