12
gdb 133259	3.43492	1.46351	1.03288	3.0128	59.99	-0.2789	-0.1058	0.1731	1028.0333	0.077074	-510.094118	-510.086871	-510.085926	-510.126298	25.812	
C	-0.033720434	 1.4305536994	-0.024967708	-0.31933
N	-0.0085743875	-0.0293550188	-0.0007142298	-0.044995
N	-0.0519377036	-0.641632465	-1.1667559244	-0.030744
N	-0.032827116	-1.9257057711	-1.2109088348	-0.254627
C	 0.0332641375	-2.5621292779	 0.0013462278	 0.405993
F	 0.0487550457	-3.8639701047	-0.1239660072	-0.027807
N	 0.0793096646	-2.0666893366	 1.1852668708	-0.366795
C	 0.060585147	-0.6909592982	 1.2711027998	 0.484814
O	 0.0958278703	-0.0341001806	 2.2785613723	-0.35337
H	 0.8677825997	 1.8167204524	 0.4548546831	 0.171103
H	-0.0863132346	 1.7408683393	-1.0670865288	 0.164662
H	-0.9000754192	 1.7876336317	 0.5353841492	 0.171096
