21
gdb 103361	3.05244	1.49434	1.30978	1.0435	82.83	-0.2191	0.0137	0.2328	1072.9766	0.182285	-387.044987	-387.036515	-387.035571	-387.077633	33.757	
C	 0.0336883459	 1.355470714	-0.0980565597	-0.251478
O	-0.0910707707	-0.0216651523	 0.1878816954	-0.298109
C	-1.3944654491	-0.5715589448	 0.1007714709	 0.478706
C	-2.3100832278	 0.0720676696	 1.1369690416	-0.479937
C	-1.8940098204	-0.8033083299	-1.4012881435	-0.141156
C	-0.7933569919	-1.9166472174	-1.4715769395	-0.212916
C	-1.2548082384	-2.1467149545	 0.0086365391	-0.121127
C	-2.7114551884	-2.545459513	-0.2261735513	-0.096387
C	-3.1293268314	-1.665515402	-1.1439722763	-0.089995
H	 1.1045387681	 1.5706846723	-0.1390340536	 0.126101
H	-0.4128532567	 1.6197514297	-1.0672550713	 0.106416
H	-0.4175939069	 1.9901825158	 0.6766145711	 0.110142
H	-2.5087063561	 1.1201131526	 0.8910888276	 0.113654
H	-3.2692643671	-0.4384087169	 1.2055653848	 0.127103
H	-1.8224919052	 0.0453653081	 2.1169683362	 0.120093
H	-1.9623682786	 0.0070201839	-2.1275039641	 0.055637
H	-0.9826577449	-2.7352912026	-2.1682800141	 0.087138
H	 0.2222691029	-1.5342831649	-1.5616172588	 0.110069
H	-0.6559291361	-2.6968988013	 0.7340294413	 0.061166
H	-3.2525775499	-3.3338632432	 0.2775367913	 0.097943
H	-4.1053989775	-1.5391691832	-1.5911178872	 0.096938
