21
gdb 65963	2.23873	1.4453	1.27811	2.7686	82.8	-0.2414	-0.0165	0.2249	1139.1692	0.180752	-387.08088	-387.071571	-387.070627	-387.115139	35.163	
C	-0.3902317311	 1.5270489708	 0.1982791567	-0.463553
C	 0.0066441094	 0.0706310144	 0.0211677947	 0.143211
C	 1.2828191485	-0.2341438956	-0.8419283102	-0.269486
C	 1.8459994978	-1.149644777	 0.280589732	-0.306328
C	 0.728459069	-0.6493257973	 1.2010254944	 0.342073
C	 0.9060925991	-0.0945843455	 2.5846253511	-0.324901
C	 0.1059441496	-1.3567218993	 2.3719932385	-0.328578
C	-1.1573341721	-0.7809627677	-0.4331427781	 0.144111
O	-2.2989659233	-0.4067055604	-0.5284678333	-0.269032
H	 0.4548498276	 2.1158854111	 0.5657577095	 0.110628
H	-0.7238168268	 1.9541336515	-0.7525919787	 0.125163
H	-1.2209201978	 1.6280713155	 0.9028911094	 0.129108
H	 1.104972311	-0.7064636519	-1.8117536862	 0.105837
H	 1.8751253931	 0.6692480888	-1.0014320701	 0.112335
H	 1.7701642194	-2.2157888885	 0.045302411	 0.105758
H	 2.8698719697	-0.9423852779	 0.6035522655	 0.104146
H	 1.8911831882	-0.178953328	 3.0333850904	 0.113741
H	 0.369453414	 0.808804011	 2.8550639918	 0.119535
H	-0.9713261446	-1.2993482471	 2.4952144455	 0.123684
H	 0.5393465302	-2.3028513423	 2.6808676595	 0.114253
H	-0.8830600709	-1.8358041645	-0.6714092635	 0.068296
