16
gdb 47317	3.28988	1.2954	0.98994	1.8686	65.68	-0.2488	-0.0368	0.2119	1134.7137	0.125672	-475.075713	-475.067737	-475.066792	-475.109027	29.19	
O	-0.0677635663	 0.0040971542	-0.5484295245	-0.291443
C	-0.0610102635	 1.1447282912	-0.1527859932	 0.399518
C	-1.3338733332	 1.9455066266	 0.0493531554	-0.302746
C	-1.3809213202	 2.7408368557	 1.3549100562	-0.094687
O	-0.4224034154	 3.8074049184	 1.4089017345	-0.234541
C	 0.8124140931	 3.5475827032	 1.9303855956	 0.416491
O	 1.3295343394	 4.2949675021	 2.7171499308	-0.355133
N	 1.3903729928	 2.3760287484	 1.483136353	-0.350878
C	 1.2575971467	 1.8778041666	 0.1098621856	-0.263737
H	-1.4204656705	 2.653622506	-0.7861423289	 0.138833
H	-2.1826738188	 1.2583962307	-0.0046199253	 0.133016
H	-2.3525708225	 3.232495205	 1.4446391928	 0.134791
H	-1.2506739044	 2.0824815639	 2.2201245251	 0.132599
H	 2.3098950365	 2.2570994998	 1.8822758482	 0.26408
H	 2.0597680922	 1.1607955583	-0.0666173855	 0.141001
H	 1.3568194242	 2.6936033699	-0.6220317198	 0.132836
