15
gdb 43056	3.40576	2.00011	1.76302	3.682	67.39	-0.2387	-0.0197	0.219	796.0395	0.11569	-416.750587	-416.744844	-416.7439	-416.780547	23.889	
O	 0.0578170377	 0.0460157868	 0.3150430474	-0.321225
C	-0.0400372472	 1.2070599569	 0.056122119	 0.438143
C	-1.1191091607	 2.238651664	-0.1199413164	-0.147087
C	-0.0296193801	 3.2146152359	-0.6172350355	-0.027847
C	-0.3941511845	 4.172138697	 0.5210911783	-0.047288
C	 0.1355464396	 3.4638604003	 1.6910601821	-0.038331
C	 1.3517065252	 2.6366963787	 1.2846425867	-0.21709
N	 0.9957003196	 2.219986976	-0.0891311266	-0.166085
N	-1.2331498695	 3.1033121168	 1.1773359315	-0.166733
H	-2.1112346565	 2.0637509351	-0.531795927	 0.103012
H	 0.1290017038	 3.5319386485	-1.6438462982	 0.099575
H	-0.7040168759	 5.2075762003	 0.4555533331	 0.109141
H	 0.0817229257	 3.9130850797	 2.6770555935	 0.116551
H	 2.259083291	 3.2512502328	 1.3106394421	 0.118717
H	 1.5186276217	 1.7440597812	 1.89241429	 0.146547
