17
gdb 56937	2.17296	1.27983	0.97198	3.0443	79.08	-0.2575	0.0241	0.2816	1249.7546	0.135118	-380.827188	-380.817813	-380.816869	-380.86188	34.287	
N	-0.397313815	 1.2504098786	 0.1352312518	-0.496365
C	 0.1257156019	-0.09175647	-0.1409145814	-0.15883
C	 1.0074912596	-0.1334443671	-1.3311912419	 0.259835
N	 1.6926807312	-0.1048495455	-2.2621785191	-0.325128
C	 0.8611593366	-0.6417701472	 1.0684483225	 0.02123
C	 0.0801204043	-1.0964870337	 2.2617392789	-0.302431
C	 0.7968270356	-2.1286426607	 1.4035453024	-0.191643
C	 0.0429955755	-3.0359836546	 0.5881149648	 0.322379
C	-0.5862349935	-3.7984835629	-0.0975754372	-0.454389
H	 0.3735878348	 1.8937488557	 0.2951220857	 0.239577
H	-0.8931999207	 1.5994505115	-0.6802808262	 0.2447
H	-0.7276272163	-0.7459855234	-0.3504408997	 0.14035
H	 1.8223470533	-0.171672978	 1.2553101972	 0.108166
H	 0.4787173686	-0.8968576374	 3.2494857234	 0.126211
H	-1.0007599449	-1.0639172808	 2.1918748817	 0.139534
H	 1.7095115259	-2.5457490468	 1.8182289	 0.123597
H	-1.134832957	-4.4770306177	-0.7027809129	 0.203207
