17
gdb 11114	6.12849	1.06518	0.9839	4.4542	69.41	-0.2769	0.0033	0.2802	1194.6071	0.141745	-363.862563	-363.854283	-363.853338	-363.896054	29.314	
C	-0.3365652549	 1.4807169992	 0.0676101376	-0.384076
C	-0.105447454	-0.0332661971	 0.0522395581	-0.193306
C	 0.9008715199	-0.4554989076	-0.9999422287	 0.171073
C	 1.0305428352	-1.9583511068	-1.3346892138	-0.324509
C	 0.6359769103	-1.5272911856	-2.7703824593	 0.005718
O	 0.4405370872	-0.1660277014	-2.3564608302	-0.292001
C	 1.6871516155	-1.6658709012	-3.7860945107	 0.271916
N	 2.5174440586	-1.7900519257	-4.5802881922	-0.3168
H	 0.586695918	 2.0198491811	 0.305656732	 0.118957
H	-0.6840994232	 1.8248845767	-0.9104736902	 0.141067
H	-1.0873137374	 1.7562726099	 0.8134579545	 0.117534
H	 0.2619633692	-0.375178969	 1.029157127	 0.103484
H	-1.0507949014	-0.5581311525	-0.1338419434	 0.100402
H	 1.8667211128	 0.0373287586	-0.8257640988	 0.091361
H	 2.0205093885	-2.3995659211	-1.2276915756	 0.136413
H	 0.2865900118	-2.5944174791	-0.8527705803	 0.123987
H	-0.2866696863	-1.9691389983	-3.1637741659	 0.12878
