17
gdb 7758	3.29943	1.93829	1.30933	3.1137	72.21	-0.2519	0.011	0.2629	943.5944	0.142771	-363.886708	-363.878997	-363.878053	-363.919824	28.452	
C	 0.1591424497	 1.5289210811	-0.1295231391	-0.386919
C	 0.0043919343	 0.0258667779	 0.1051510037	 0.086949
O	 0.3412977367	-0.6241283828	-1.1349810127	-0.26898
C	 1.0259488413	-1.7998154697	-1.2047294114	 0.377028
N	 0.9509396699	-2.5406526007	-2.2290602004	-0.50655
C	 1.9637720957	-2.1606328742	-0.0738501995	-0.330146
C	 1.6841460759	-1.4370503429	 1.2068694534	-0.083416
C	 0.7943770319	-0.4556822369	 1.2819474637	-0.069371
H	 1.2096676595	 1.7821707078	-0.2974362822	 0.128762
H	-0.4205984437	 1.8330992473	-1.0047047405	 0.130579
H	-0.2015463556	 2.0881358659	 0.7390526499	 0.11851
H	-1.0619171934	-0.1873589413	 0.2819574184	 0.099424
H	 0.2933815253	-2.1385844852	-2.9005527683	 0.215607
H	 1.9203798942	-3.2458583065	 0.0617843025	 0.145352
H	 2.990099115	-1.9539210112	-0.4093765299	 0.143457
H	 2.2429995235	-1.7460971347	 2.0855927522	 0.10054
H	 0.5936588099	 0.0565409161	 2.2186721303	 0.099174
