16
gdb 124126	7.05835	0.72802	0.66543	3.372	88.58	-0.2341	-0.0321	0.202	1680.0817	0.122879	-400.736949	-400.7278	-400.726856	-400.77319	31.462	
C	-0.1183514331	 1.4658505223	 0.033079877	-0.512438
C	-0.0164735546	 0.0169191798	 0.0144312864	 0.267927
C	 0.0651602125	-1.1864716618	-0.0010515585	-0.116455
C	 0.1647855093	-2.5895109597	-0.0187177872	 0.293538
C	 1.2284318136	-3.4445521489	 0.0321008271	-0.433617
C	 0.6402729593	-4.7377108079	-0.0257957678	 0.378184
C	 1.3136029304	-6.0724959048	-0.0069733003	-0.504494
N	-0.6698382555	-4.6593406544	-0.1049046544	-0.184586
O	-0.9822237484	-3.3081834635	-0.1013051546	-0.216832
H	 0.8725847634	 1.9298380224	-0.0134583538	 0.15815
H	-0.7006546529	 1.8304785524	-0.8201898994	 0.160899
H	-0.6102073613	 1.8153415685	 0.9475875954	 0.160282
H	 2.2712519102	-3.1847496787	 0.100505102	 0.120769
H	 1.8956451763	-6.2045197338	 0.9108448966	 0.138601
H	 0.5678653601	-6.8673919541	-0.0656788248	 0.151461
H	 2.0030546509	-6.1751820079	-0.8511956938	 0.138613
