17
gdb 47380	2.31097	1.48053	1.19003	2.8014	73.67	-0.237	-0.0267	0.2103	1095.3981	0.135237	-421.808258	-421.79993	-421.798986	-421.841498	31.317	
O	-0.0732460156	-0.0563777735	 0.2946336535	-0.29538
C	-0.0457414054	 1.1264948206	 0.0579306798	 0.382482
C	-1.325959862	 1.9622296931	 0.0020133557	-0.171402
O	-1.304619559	 2.9831042865	-0.978788473	-0.232915
C	-0.1770824319	 3.8256140893	-0.8853758599	-0.08066
C	 1.1296679763	 3.0489793222	-1.1512307085	-0.201791
C	 1.2502943453	 1.9075718872	-0.1083906842	-0.322082
C	 1.1748724356	 2.5321717829	-2.5163574226	 0.349102
C	 1.2157940076	 2.0955155759	-3.6350086467	-0.47086
H	-2.1694108012	 1.3069569977	-0.2219244677	 0.140947
H	-1.4814285858	 2.3928391983	 1.0096766622	 0.107919
H	-0.3171029649	 4.6108063206	-1.6314646619	 0.126111
H	-0.1182526073	 4.2952684333	 0.1118406612	 0.088629
H	 1.9692682874	 3.7420923727	-1.009006945	 0.111532
H	 1.4674061151	 2.3587462262	 0.8704979952	 0.126147
H	 2.0600994254	 1.2144125208	-0.3421814042	 0.138842
H	 1.2486811906	 1.7128686863	-4.6251582039	 0.203379
