19
gdb 94773	3.75998	1.1337	0.9963	2.7657	76.76	-0.2558	-0.0345	0.2213	1230.8279	0.158728	-423.041857	-423.033382	-423.032437	-423.074936	32.028	
C	 0.0609970317	 1.5733160121	 0.0547382634	-0.40545
C	 0.0466168062	 0.0440298372	 0.0012833572	 0.00468
C	 0.7920524963	-0.5560304515	-1.2187824557	-0.23668
C	 1.2722122196	-1.9581532804	-0.7808102385	-0.298962
C	 1.4543763796	-1.8246965802	 0.7167718213	 0.31046
O	 2.1479378633	-0.6279299159	 1.1319577715	-0.29025
C	 0.7262954777	-0.6207690003	 1.1889132053	-0.012985
C	 1.6484667645	-2.9948139249	 1.6107258689	 0.088024
O	 1.4990628939	-4.1401404865	 1.2638669174	-0.259347
H	 1.0887478094	 1.943963091	 0.1227503958	 0.132033
H	-0.3946025318	 1.9991365354	-0.8448433838	 0.119971
H	-0.4940243663	 1.9507221095	 0.919917697	 0.115541
H	-0.9950197599	-0.306846858	 0.0020082109	 0.082188
H	 0.161988469	-0.5877672376	-2.1107983787	 0.104213
H	 1.6568758434	 0.0710055681	-1.4514279486	 0.118155
H	 0.5180693707	-2.7309818455	-0.9632535843	 0.125684
H	 2.1884948549	-2.273308708	-1.2875469751	 0.118322
H	 0.3019794643	-0.5463788193	 2.1888921475	 0.099575
H	 1.9467973936	-2.7178365052	 2.6458562885	 0.084828
