15
gdb 125833	2.98181	1.26567	0.98593	3.7473	71.57	-0.2828	-0.0394	0.2434	1170.4106	0.110773	-416.744153	-416.73563	-416.734685	-416.777991	30.506	
C	 0.3126806816	 1.4586308516	 0.0754483013	-0.504647
C	 0.0882534025	-0.0160378522	 0.0622185682	 0.269822
N	-0.0737693435	-0.6944511791	-1.041795137	-0.13329
O	-0.2543587101	-1.9980575834	-0.6656926324	-0.156725
N	-0.2020492887	-2.1311524439	 0.6913505943	-0.140983
C	 0.0061981793	-0.9324729522	 1.160447638	 0.279768
C	 0.1114699398	-0.6717397029	 2.6378469417	-0.455313
C	 1.3812185743	-0.0575157265	 3.0201246518	 0.297127
C	 2.4248824099	 0.452217932	 3.3263290304	-0.444871
H	 1.2414920048	 1.7014709293	 0.5993739747	 0.158674
H	 0.3640439028	 1.8389702833	-0.9458566781	 0.156291
H	-0.5008369339	 1.973034743	 0.5983728633	 0.14242
H	-0.7162782677	-0.0223024008	 2.9528533782	 0.153109
H	-0.0223380201	-1.6240150658	 3.1613203192	 0.169941
H	 3.3498074689	 0.8922406474	 3.6076118364	 0.208678
