14
gdb 25257	3.37391	1.66942	1.12469	1.3233	69.2	-0.2377	-0.0168	0.2209	987.5331	0.105172	-432.939651	-432.932792	-432.931848	-432.971331	25.736	
O	-0.0458137408	-0.0845715566	 0.0048569499	-0.397456
C	 0.018238835	 1.1266771787	 0.0102157025	 0.351735
N	-1.0536750954	 2.0116625279	 0.0284182874	-0.35687
C	-0.7127402068	 3.4366049492	 0.030227375	-0.286734
C	 0.7840813971	 3.3474114358	 0.0091918031	 0.280191
C	 1.1717121639	 2.0408630191	-0.002059986	 0.198694
N	 2.5405300424	 2.0595424849	-0.0215117195	-0.395258
C	 2.8939701219	 3.384299778	-0.0200410469	-0.00123
N	 1.8500126799	 4.1982655203	-0.0016337277	-0.344057
H	-1.997924317	 1.6656187977	 0.0391950031	 0.256294
H	-1.121040345	 3.9523075224	-0.8485773804	 0.135291
H	-1.0966779247	 3.9442245934	 0.9245765893	 0.135279
H	 3.1623489337	 1.2680186896	-0.0339934438	 0.283509
H	 3.927869176	 3.6959292096	-0.0330087859	 0.140611
