18
gdb 67781	2.74998	2.34562	1.65377	1.737	77.93	-0.2295	0.0014	0.2309	862.2789	0.149581	-364.751828	-364.745339	-364.744395	-364.782094	27.828	
C	-0.0147235683	 1.485110459	 0.0175258569	-0.498706
C	 0.0505796483	-0.0286482477	-0.0108705111	 0.304808
C	 0.9621101558	-0.6998198195	-1.0054600102	-0.137683
C	 1.202872371	-1.9530909807	-0.5958798763	-0.083277
C	 0.4589176548	-2.1634169512	 0.6856838345	-0.029516
C	 0.3109934656	-0.7782308306	 1.3461112479	-0.126291
C	-1.2169630196	-1.0573164997	 1.4962846484	-0.068199
C	-1.3449629771	-0.7494152135	 0.0596424477	-0.085631
N	-1.0901427247	-2.1519276175	 0.4928172646	-0.16128
H	 0.9761792665	 1.9196626778	 0.1870421896	 0.119386
H	-0.3962725687	 1.8833228983	-0.9295591397	 0.117767
H	-0.6801031246	 1.8331957618	 0.8148294087	 0.12
H	 1.2766619392	-0.2515538919	-1.9413706908	 0.097775
H	 1.7434667827	-2.7212964627	-1.1346192726	 0.101748
H	 0.722523441	-3.0170206818	 1.3080961213	 0.074036
H	 1.0180776312	-0.378873038	 2.0733177163	 0.068059
H	-1.909730613	-1.0733231676	 2.3261647712	 0.09594
H	-2.21591272	-0.5673583947	-0.5574971564	 0.091065
