16
gdb 130202	3.16799	1.24776	0.98243	1.7984	76.35	-0.2001	0.0296	0.2297	1178.3067	0.12537	-396.915868	-396.907317	-396.906373	-396.949146	32.239	
N	 0.1323519862	 1.3028265442	 0.2728421918	-0.597226
C	 0.0825873503	-0.0782568437	 0.1008153669	 0.305931
N	-1.0701583394	-0.725126071	-0.038465958	-0.308724
N	-0.7012603393	-2.0140172631	-0.255792011	-0.196662
C	 0.637860978	-2.1888461033	-0.2409043195	-0.123956
C	 1.2009350316	-0.9503045919	-0.016584681	 0.174949
C	 2.6581231092	-0.5813188361	 0.0534782003	-0.480311
C	 3.0191798073	 0.122500394	 1.2864904779	 0.30644
C	 3.2872239428	 0.7237744959	 2.2930543845	-0.462111
H	 0.8456742642	 1.5876041665	 0.9332939511	 0.251778
H	-0.7710704457	 1.6798513982	 0.5292732569	 0.247747
H	-1.4152554488	-2.7055114512	-0.397703845	 0.271832
H	 1.0906585012	-3.1569267206	-0.3915600878	 0.129355
H	 3.2717511594	-1.4851932396	-0.0390229175	 0.135591
H	 2.930137272	 0.0568488014	-0.7994520459	 0.146533
H	 3.5438573411	 1.2355253404	 3.1874023564	 0.198832
