17
gdb 86519	3.38205	1.01901	0.83001	5.8142	76.46	-0.2658	-0.0468	0.219	1366.0904	0.135508	-418.031655	-418.022463	-418.021519	-418.066988	31.76	
C	 0.271691455	 1.533568484	 0.1150321049	-0.405541
C	-0.0761522781	 0.060311412	-0.0281033561	 0.005418
C	 0.850611506	-0.7913157897	-0.9524800869	-0.189238
N	 1.164553633	-1.6290853428	 0.2049065241	-0.084884
C	 0.3407940243	-0.8714585291	 1.1555784313	-0.195576
C	 1.9840142237	-2.6914204199	 0.2908748237	 0.312749
O	 2.617547876	-3.1702511534	-0.6285910219	-0.350502
C	 2.0484457963	-3.2533958993	 1.6598756679	 0.221379
N	 2.1171348772	-3.7085774638	 2.7198253871	-0.32862
H	 1.3274808145	 1.6671579926	 0.3751527596	 0.126755
H	 0.0854301434	 2.0724940322	-0.8195566634	 0.129155
H	-0.3299221939	 2.0054910401	 0.8986498707	 0.128643
H	-1.1303263946	-0.0606520439	-0.2857821898	 0.096737
H	 0.3623260094	-1.3368215111	-1.7653624018	 0.134207
H	 1.7244372154	-0.2660033913	-1.3531383184	 0.131289
H	 0.9210894269	-0.3820757376	 1.9452892058	 0.132415
H	-0.4611274646	-1.4583399887	 1.6129808132	 0.135613
