18
gdb 90209	3.18613	1.72201	1.52867	0.6992	76.55	-0.218	0.0274	0.2454	938.1825	0.146901	-401.757441	-401.750211	-401.749267	-401.788559	29.524	
C	-0.4612897802	 1.4400516192	-0.022487842	-0.40446
C	 0.0344906504	 0.0120983088	 0.0505834334	 0.034791
O	 1.1390118801	-0.273957215	-0.9245136297	-0.351689
C	 2.0396911481	-0.3961990327	 0.1955603864	 0.300433
C	 2.7493145381	 0.7246860566	 0.9363863729	-0.226769
N	 2.2417972195	-0.1442882941	 2.0900716258	-0.197353
C	 2.5645165763	-1.4387969504	 1.2795984202	-0.051944
C	 1.1695515119	-2.0185850361	 1.4818679025	-0.286955
C	 0.9446668013	-0.528895482	 1.1996031994	 0.15936
H	 0.3302122024	 2.1667935221	 0.1659620302	 0.132147
H	-0.8737348763	 1.6355752233	-1.0171129681	 0.13522
H	-1.2560243652	 1.5915189553	 0.7153713872	 0.129368
H	-0.7884294748	-0.6882719418	-0.1307382581	 0.10326
H	 3.8413632494	 0.7722869751	 0.888286056	 0.105097
H	 2.3175401485	 1.727703383	 0.9289587833	 0.110362
H	 3.5526672554	-1.8908914072	 1.4081352395	 0.086426
H	 0.8198443475	-2.7069018046	 0.7090233914	 0.113783
H	 0.9310242278	-2.3779036494	 2.4858887498	 0.108922
