20
gdb 12698	3.21814	1.70005	1.32381	2.6744	69.87	-0.2557	0.067	0.3227	982.6495	0.17721	-386.149077	-386.140285	-386.13934	-386.182003	33.11	
C	 0.4132748424	 1.6617231532	 0.03534252	-0.386585
C	 0.0788611931	 0.1660412111	 0.0038715437	-0.03025
C	 0.6870874084	-0.5643745734	-1.2073461644	 0.137684
O	 0.5115535812	 0.1943673618	-2.3910868474	-0.439034
C	 2.1669420878	-0.8108434083	-0.8169758071	-0.247015
C	 2.1830345803	-0.8488901198	 0.7335306291	-0.247055
C	 0.7120558421	-0.6198802719	 1.1665711791	 0.137602
O	 0.56321656	 0.0835037564	 2.3876060246	-0.439009
H	 1.4928271015	 1.8429734429	 0.0291950652	 0.108171
H	-0.0105388775	 2.1590688211	-0.839467614	 0.125685
H	 0.0067042231	 2.1177873042	 0.9403106884	 0.125675
H	-1.0100066645	 0.0514694715	 0.0126054556	 0.072546
H	 0.1782716119	-1.5369638206	-1.3115487029	 0.060596
H	 0.8920380015	-0.3016796117	-3.1222206308	 0.281058
H	 2.5603221011	-1.7261117005	-1.2697419132	 0.08884
H	 2.7669013127	 0.0213303491	-1.197028659	 0.110263
H	 2.5831922987	-1.7860309496	 1.1323934273	 0.088911
H	 2.7930236763	-0.0374779714	 1.1414518512	 0.110228
H	 0.2041967434	-1.5959751522	 1.2368417261	 0.060633
H	 0.9583416664	-0.446133252	 3.0867116485	 0.281055
