19
gdb 40032	3.44811	1.56339	1.44675	0.5215	77.79	-0.2242	0.0746	0.2988	970.1349	0.162621	-382.002016	-381.995291	-381.994347	-382.032908	28.219	
C	 0.0578429422	 1.5284424383	-0.0448550719	-0.29343
N	 1.2781977683	 0.7062137371	 0.0545625244	-0.384133
C	-0.0338199568	 0.0477179245	 0.0357986815	 0.365402
C	-0.4727241494	-0.7427661026	 1.2741636677	-0.283593
C	-1.5256027569	-1.7007796347	 0.7022834503	-0.073501
C	-2.6192319661	-0.8989471667	-0.0473063945	-0.15335
N	-1.9225034747	-1.0732402621	-1.3690740252	-0.159753
C	-1.0112553539	-2.0770664888	-0.7150640099	-0.050988
C	-0.4688939696	-0.7764863075	-1.1520212155	-0.107889
H	-0.1544656257	 2.1347860088	 0.8320529338	 0.117068
H	-0.1789740576	 2.0051565632	-0.9932143271	 0.114964
H	 1.7269075063	 0.6341458754	-0.856210866	 0.229631
H	 0.3852324057	-1.2905206698	 1.6798802652	 0.112127
H	-0.8743172811	-0.1037248552	 2.0670898709	 0.101021
H	-1.8521232625	-2.4909991292	 1.3771691139	 0.073679
H	-3.5788616662	-1.417958354	-0.1030293393	 0.109368
H	-2.786451866	 0.1407675512	 0.2562582729	 0.100889
H	-0.801606197	-3.053255355	-1.1362643056	 0.093231
H	 0.0646211111	-0.6712413229	-2.0922596456	 0.089258
