17
gdb 65340	3.71246	1.02831	0.97281	2.3101	74.47	-0.2537	0.0158	0.2695	1241.5892	0.13567	-417.974567	-417.965853	-417.964909	-418.008228	32.287	
O	-0.0241397201	 1.3301310494	 0.2910721402	-0.455267
C	 0.0541243172	-0.0517784275	 0.1204075839	 0.373318
C	 1.0267485138	-0.4921799548	-0.9258297545	-0.318469
C	 1.356729856	-0.7445986194	 0.5436146534	-0.250593
C	 2.3499644158	 0.0425018213	 1.2111497558	 0.2791
N	 3.1174256806	 0.696869015	 1.7791365823	-0.334552
C	-1.2358336081	-0.7949840318	 0.3128891603	-0.030685
C	-2.2473174134	-0.3145444075	 1.2860478038	-0.250902
N	-2.4873282805	-0.1949393404	-0.163031493	-0.320256
H	 0.1352572559	 1.5465823149	 1.2175181454	 0.305154
H	 0.7949935275	-1.3640990473	-1.5263543076	 0.138
H	 1.5839592373	 0.291040319	-1.4243657801	 0.153262
H	 1.2749947832	-1.765684559	 0.9011703999	 0.140406
H	-1.158013819	-1.8648045087	 0.1270218749	 0.093273
H	-2.881063697	-1.0286999922	 1.803252691	 0.125433
H	-2.0299936323	 0.5908182798	 1.8457059593	 0.107673
H	-2.295716607	 0.7653353793	-0.4442994449	 0.245106
