19
gdb 69815	3.10144	1.57283	1.25988	1.1153	80.17	-0.2258	0.0197	0.2454	1034.9712	0.160756	-385.872399	-385.864867	-385.863923	-385.903834	31.285	
O	-0.0389765497	 1.3926967897	 0.139608537	-0.472223
C	 0.0425293584	-0.0028482192	-0.0146377748	 0.373785
C	-0.5061632639	-0.5868571825	-1.3026233334	-0.359914
C	-1.2762399572	-0.7387731686	-0.0073241863	-0.085063
C	-1.3965601825	-2.0352191235	 0.7486354501	-0.034969
C	-0.7582712832	-3.318123901	 0.2927989302	-0.302168
C	-0.1731253481	-2.5691038692	 1.4789090906	-0.077081
C	 1.0839075446	-1.8011078313	 1.3505321118	-0.064682
C	 1.182180025	-0.6498309587	 0.6774101337	-0.146197
H	 0.6200676027	 1.7920292998	-0.4392235212	 0.279336
H	-0.9030979513	 0.1237559438	-2.0200610127	 0.110329
H	-0.0098463275	-1.4488166634	-1.7338087781	 0.113301
H	-2.1360123257	-0.0848908088	 0.0834833912	 0.09908
H	-2.3382684081	-2.1418731597	 1.2757755698	 0.08744
H	-1.2837544198	-4.2450284857	 0.4954451399	 0.110772
H	-0.1890344666	-3.3203126761	-0.6298373211	 0.114841
H	-0.3289669637	-3.0357606338	 2.4474904085	 0.086593
H	 1.9603887384	-2.2020175019	 1.8537767084	 0.08766
H	 2.1303747882	-0.1180776498	 0.6399010263	 0.079162
