21
gdb 89922	2.86544	1.29652	1.0608	0.8285	89.61	-0.2415	0.0433	0.2849	1224.2249	0.181882	-349.903393	-349.894474	-349.89353	-349.936794	35.003	
C	 0.2431959208	 1.7018753744	-0.0349712677	-0.416557
C	 0.0570252915	 0.1927665545	 0.0119582046	 0.054951
C	 0.8710037063	-0.7084272264	-0.963319747	-0.309735
C	 1.1620750232	-1.7211668258	 0.2003069501	 0.210845
C	 2.5719814869	-1.5467628058	 0.8340030439	-0.280564
C	 2.0452105946	-0.3511805365	 1.6788034319	-0.239274
C	 0.5890097734	-0.635056881	 1.2092538581	-0.086427
C	 0.6222474407	-3.0465694008	 0.0612304105	 0.175226
C	 0.1680519397	-4.156606056	-0.0468984871	-0.413291
H	 1.296676147	 1.9869287094	 0.0556888247	 0.114606
H	-0.1235880994	 2.108344076	-0.9841228701	 0.116486
H	-0.3075675254	 2.1968597103	 0.7727852866	 0.115049
H	-1.0075035699	-0.0390525242	-0.1058140503	 0.079688
H	 0.3142488804	-1.12019174	-1.8063700008	 0.111942
H	 1.7850215871	-0.241917941	-1.3447161737	 0.095684
H	 2.8464913147	-2.4054567453	 1.4503637721	 0.112539
H	 3.3849075375	-1.3479201582	 0.1297554529	 0.097832
H	 2.1968778457	-0.4604944725	 2.7543852088	 0.106452
H	 2.436409657	 0.6262577642	 1.386257157	 0.101756
H	-0.1202934528	-0.8950815821	 1.9958362492	 0.069675
H	-0.2308332389	-5.1355964231	-0.1436932835	 0.183115
