23
gdb 92365	2.13176	1.79735	1.4515	1.2989	83.43	-0.2501	0.0707	0.3208	1064.0826	0.20838	-388.320417	-388.312127	-388.311183	-388.352525	34.427	
C	-0.2644346455	 1.5280590981	 0.0405542871	-0.428702
C	 0.0297050458	 0.0298381768	 0.0079966189	 0.05372
C	 0.7595895564	-0.4892304441	-1.2717385111	-0.238488
C	 1.9324351322	-1.3289799889	-0.7061896444	-0.005027
C	 2.9946032858	-0.3584463017	-0.1307394536	-0.21132
C	 2.3030708544	 0.2025299738	 1.1480169539	-0.26711
C	 0.929544861	-0.5112122527	 1.1472243195	 0.418762
O	 0.2238054801	-0.4526097576	 2.3650090113	-0.511844
C	 1.3130655101	-1.903112725	 0.5823173282	-0.281033
H	 0.629243877	 2.1297154666	-0.1573133152	 0.109275
H	-1.0058932623	 1.7915516946	-0.7210727858	 0.10853
H	-0.6636930152	 1.8213281297	 1.0163342213	 0.12698
H	-0.9254676055	-0.4965766182	 0.1194859573	 0.075832
H	 0.0939814946	-1.1014533027	-1.8876300896	 0.09305
H	 1.1178057469	 0.3317131237	-1.9021308199	 0.089586
H	 2.3405300329	-2.0509834943	-1.4158852553	 0.055864
H	 3.9148752133	-0.8942256124	 0.1213548465	 0.093199
H	 3.2622837603	 0.4252823319	-0.8456817293	 0.093699
H	 2.8555813429	-0.0774209308	 2.0534260267	 0.08014
H	 2.2120844306	 1.2905827476	 1.1559245681	 0.103073
H	 0.8266855902	-0.6979270745	 3.0744407876	 0.272028
H	 0.4402357624	-2.5405795087	 0.4138721847	 0.092703
H	 2.0322374215	-2.438984971	 1.2120138431	 0.077081
