16
gdb 1698	4.37718	2.11946	1.87211	4.1171	64.59	-0.3031	0.033	0.3361	748.5932	0.137225	-288.653529	-288.646408	-288.645464	-288.684349	26.425	
C	-0.0824195042	 1.5679559811	-0.0021627027	-0.441462
C	-0.0242539669	 0.0341168726	-0.0006938301	 0.17153
C	 1.1257889295	-0.5389740589	-0.9023638209	-0.245924
C	 2.0064482547	-0.7024333327	 0.3642493046	-0.215779
C	 0.735893855	-0.5517175444	 1.2414893171	-0.245923
C	-1.3483784823	-0.526681018	-0.2448424365	 0.233295
N	-2.3931376353	-0.9842667098	-0.4375801276	-0.348412
H	 0.9139958656	 1.980939283	 0.1814715934	 0.123321
H	-0.4378272672	 1.9445285526	-0.9656151397	 0.136171
H	-0.7550180051	 1.9341737021	 0.7787713972	 0.13617
H	 0.8519376872	-1.4976261836	-1.3469417856	 0.125263
H	 1.4807460298	 0.1277275578	-1.6914325935	 0.111349
H	 2.5581738785	-1.6389130471	 0.4590227313	 0.111851
H	 2.708504711	 0.1240702772	 0.496844189	 0.111939
H	 0.7889176123	 0.1050985651	 2.1126362646	 0.111349
H	 0.3250665874	-1.5148552871	 1.5501064095	 0.125263
