16
gdb 50284	3.24487	1.19749	1.0616	2.335	70.9	-0.2518	-0.0527	0.1991	1135.4938	0.122413	-437.848826	-437.840479	-437.839535	-437.882537	29.698	
O	-0.8015666973	 1.0500787442	-0.693372121	-0.241927
C	 0.1252694271	 0.8754005338	 0.0567777548	 0.143794
C	 1.3386307424	 1.7669450615	 0.1349469803	-0.175975
C	 1.4079583929	 3.0262774006	-0.7536814312	-0.182613
N	 1.533792379	 3.95004842	 0.436242236	-0.134523
C	 0.3191471103	 3.7742779686	 1.2192375016	-0.272207
C	 1.3586899592	 2.7164626256	 1.3496426302	 0.207176
C	 2.1707681865	 2.5546242462	 2.5793694189	 0.071614
O	 2.2484509767	 3.387432725	 3.4475675345	-0.245208
H	 0.1215125509	 0.0361494173	 0.7898476515	 0.085594
H	 2.2464076775	 1.1551097555	 0.0975872766	 0.10801
H	 2.3041551985	 3.0893639551	-1.3705891966	 0.126308
H	 0.5195899885	 3.2146932815	-1.3612299187	 0.139222
H	 0.2539772135	 4.4572051379	 2.059670737	 0.155097
H	-0.6155183374	 3.5360624333	 0.715767926	 0.140912
H	 2.7203440117	 1.5882787739	 2.6483342902	 0.074726
