17
gdb 11236	5.14461	1.2525	1.06181	4.3281	75.11	-0.2479	0.0129	0.2607	1102.3645	0.143071	-326.767307	-326.759504	-326.75856	-326.799617	28.742	
C	-0.0690741247	 1.477060933	 0.0635767044	-0.493276
C	 0.0155437291	-0.0143376708	-0.005872892	 0.33038
C	-0.0345992568	-0.7837372876	-1.094920019	-0.166599
C	 0.0205506366	-2.2575621885	-0.782601877	-0.264112
C	 0.4903090383	-2.263018283	 0.705532066	-0.137269
C	 0.1182605764	-0.8531014898	 1.2521730773	-0.309144
C	-0.0489952915	-3.3661543647	 1.4933758706	 0.262076
N	-0.4840656905	-4.2374826552	 2.1164608348	-0.329294
H	 0.8193795644	 1.903379194	 0.546234594	 0.128698
H	-0.1641610175	 1.9214762159	-0.9304855268	 0.128185
H	-0.9309903401	 1.7960187434	 0.6634797996	 0.131362
H	-0.1495768508	-0.4134305618	-2.107913533	 0.094885
H	-0.9652897806	-2.7284781524	-0.8898827199	 0.129383
H	 0.7078233676	-2.8209919229	-1.4216514897	 0.119491
H	 1.5817023876	-2.3534041088	 0.7148322383	 0.129474
H	 0.8661800417	-0.4833227609	 1.9617505146	 0.11704
H	-0.8395145892	-0.87039372	 1.7890111578	 0.128719
