15
gdb 79229	2.75744	1.66502	1.34566	4.6934	69.43	-0.2514	-0.0007	0.2506	953.0123	0.114242	-416.74509	-416.738134	-416.73719	-416.776387	27.646	
O	 0.0435063234	 1.4253554886	-0.0123980203	-0.432628
C	-0.026350705	 0.0438674082	-0.0000442272	 0.169306
C	-1.3720641396	-0.6837126567	-0.0847698072	-0.145684
C	-1.703423078	-0.7698887609	-1.5714603718	-0.024574
N	-0.6437503726	 0.0011707017	-2.2743713562	-0.372172
C	 0.3137238533	-0.7043645863	-1.339749986	 0.163032
C	 1.6587016233	-0.9334268406	-1.7873092012	 0.137715
N	 2.7404447387	-1.1397110313	-2.1406256526	-0.333207
C	-0.781348096	-1.7817079982	-0.9596696175	-0.153338
H	-0.3231393519	 1.6980763908	-0.8676008012	 0.2935
H	 0.5809249725	-0.3342639538	 0.8246969407	 0.113179
H	-2.1292619301	-0.7791104452	 0.6812933712	 0.109223
H	-2.7111709466	-0.8635197126	-1.951149409	 0.117374
H	-0.5226575798	-0.3981850757	-3.2042199661	 0.23808
H	-0.7654496417	-2.8580058581	-0.8712228653	 0.120195
