16
gdb 31841	5.08083	1.03619	0.86612	1.226	77.79	-0.1979	-0.0292	0.1688	1288.352	0.125724	-434.123588	-434.115169	-434.114225	-434.15683	30.702	
C	 0.0360771712	 1.452576551	-0.0399053974	-0.309596
N	-0.0287269643	 0.0132821778	 0.0843764877	-0.348841
C	 0.6029205513	-0.6750418218	 1.0797579551	 0.454561
N	 1.1229697561	 0.0232789834	 2.0984574196	-0.314494
C	 1.6943094874	-0.6882497468	 3.0701612918	-0.110658
C	 1.7663158849	-2.0749427955	 3.0468804602	 0.288526
O	 2.3422955127	-2.845024531	 4.0166131546	-0.445004
C	 1.2051651649	-2.6966923734	 1.9282468284	-0.041862
N	 0.6282066551	-2.0177317311	 0.9486340602	-0.32403
H	 1.0501578374	 1.8173962096	-0.2555656883	 0.120832
H	-0.6283055784	 1.7634801572	-0.8493553867	 0.119809
H	-0.2944042703	 1.9267503453	 0.8874679035	 0.146207
H	-0.251875681	-0.539098392	-0.7262994178	 0.250339
H	 2.1177562726	-0.1245297515	 3.9032073	 0.096796
H	 2.68110591	-2.2737375787	 4.713987921	 0.298542
H	 1.2370198206	-3.7807834723	 1.840883608	 0.118873
