23
gdb 89447	2.30324	1.67239	1.21799	0.1275	90.25	-0.2327	0.0267	0.2594	1152.0197	0.206615	-351.170263	-351.161589	-351.160645	-351.203001	34.927	
C	-0.9902939427	 1.0092809884	-0.0109658727	-0.413371
C	 0.0361106386	-0.1134447974	-0.0002046063	 0.050401
C	 1.3054308067	 0.030142339	-0.8864034701	-0.289079
C	 2.1930807628	-0.515468047	 0.2782135875	 0.367984
C	 2.6580788763	-1.951284515	 0.080901326	-0.478879
C	 3.3029481533	 0.4508550972	 0.7532466751	-0.327628
C	 2.5906869274	 1.3447041309	 1.7408581858	-0.06918
C	 1.3477284768	 0.9374403	 2.0047646186	-0.076665
C	 0.9682078129	-0.3024685328	 1.2430724235	-0.112295
H	-0.5222681284	 1.972263238	 0.2192084232	 0.116107
H	-1.4657575083	 1.095078322	-0.9946576507	 0.110463
H	-1.7832632566	 0.8370492379	 0.7260345763	 0.108849
H	-0.4634557405	-1.06447583	-0.2165024811	 0.066057
H	 1.3216903127	-0.5449195407	-1.816886093	 0.089488
H	 1.5294204877	 1.0748256641	-1.1235928485	 0.093493
H	 3.4235642245	-2.0140557072	-0.7019564076	 0.111804
H	 3.0895698478	-2.3585737178	 1.0025084939	 0.111609
H	 1.8298956802	-2.6045468465	-0.2161418392	 0.110351
H	 4.1382855424	-0.0802875458	 1.2331348589	 0.095983
H	 3.7404611904	 1.0113145308	-0.0839656147	 0.098894
H	 3.0691819172	 2.2079864224	 2.1924135402	 0.087891
H	 0.6735327491	 1.4266965791	 2.700549856	 0.088616
H	 0.6871417	-1.1276501697	 1.9087119187	 0.059108
