25
gdb 98183	2.88434	0.94973	0.86672	2.3734	89.07	-0.2351	-0.0062	0.2289	1537.1916	0.22523	-389.526676	-389.514935	-389.513991	-389.563992	42.713	
C	 0.0486936867	 1.5572435727	 0.0644767953	-0.377208
C	-0.0938166652	 0.0807889808	-0.2996282204	-0.28843
C	-1.441499931	-0.5100128981	 0.1096723682	 0.371631
O	-2.3261695038	 0.2110779377	 0.5148414955	-0.317761
C	-1.6352235284	-2.0461626875	 0.0366573437	 0.160482
C	-0.8565614808	-2.6624329664	-1.140721543	-0.431111
C	-1.0804060644	-2.6010556832	 1.3719509052	-0.417004
C	-3.152845606	-2.3302875978	-0.0916138759	-0.172809
C	-3.5771509857	-3.8013152875	-0.0293134338	-0.410436
H	 1.0115916121	 1.9472885924	-0.2775207395	 0.106308
H	-0.7498244141	 2.1477160615	-0.390166096	 0.134346
H	-0.0181844892	 1.7027355294	 1.1461221944	 0.126047
H	 0.0128348598	-0.0609321194	-1.383682449	 0.126823
H	 0.7124909552	-0.5165993417	 0.1434991092	 0.118408
H	 0.2193630783	-2.4854247954	-1.0620185527	 0.11467
H	-1.0007612003	-3.7463345826	-1.1655028485	 0.119728
H	-1.1974718294	-2.2616971887	-2.1015995325	 0.115582
H	-1.6522899958	-2.2176114672	 2.2223749897	 0.128927
H	-1.1334866187	-3.6934402535	 1.3865715685	 0.121591
H	-0.0307460236	-2.3253986625	 1.5171183747	 0.113318
H	-3.6656895561	-1.7667250675	 0.6918455864	 0.118868
H	-3.4995965962	-1.898016275	-1.0388429564	 0.091877
H	-4.6627878886	-3.8794867332	-0.1447676006	 0.11627
H	-3.1242988908	-4.4033270355	-0.8236900341	 0.113251
H	-3.3206670938	-4.2648355119	 0.9282960816	 0.116632
