17
gdb 105159	2.56761	1.16513	0.97294	2.1004	77.09	-0.259	-0.0468	0.2122	1258.7756	0.131676	-421.782802	-421.773173	-421.772229	-421.817614	34.449	
C	 0.3040753824	 0.4374026235	 1.2205624717	-0.38912
C	-0.2267950211	-0.4690892652	 0.1019521025	-0.271997
C	 0.7521420373	-0.5977443727	-1.039746172	 0.284229
O	 1.9975990472	-1.2671659076	-0.7860610556	-0.269345
C	 1.0891951913	-1.9108739479	-1.6783680822	-0.229281
C	 0.4644544338	-3.1341857918	-1.2585861821	 0.323348
C	-0.0577384732	-4.1712487293	-0.948048521	-0.384719
C	 0.9207887471	 0.5851065795	-1.9536164431	 0.131309
O	 0.1669615246	 1.5222224434	-1.9946828823	-0.251045
H	 1.2471848993	 0.0501234853	 1.6170875432	 0.132056
H	 0.473270026	 1.4550913705	 0.8578316664	 0.135122
H	-0.4152498149	 0.4892116969	 2.0424005025	 0.118725
H	-0.4493062224	-1.465623908	 0.491619833	 0.12036
H	-1.1558316626	-0.0567964167	-0.305670674	 0.125329
H	 1.4142199065	-1.8998913517	-2.7196162597	 0.123615
H	-0.5164546612	-5.0873952591	-0.66671697	 0.209682
H	 1.82408319	 0.515222281	-2.6001885773	 0.091732
