20
gdb 11828	3.09799	1.79407	1.45696	1.4267	74.75	-0.2485	0.0711	0.3195	960.7348	0.176725	-348.982056	-348.973741	-348.972797	-349.014463	32.231	
C	-0.3376023244	 1.425327296	 0.0365406713	-0.410716
C	-0.0274857924	-0.0675037404	-0.0168109829	-0.014284
C	 1.2036872775	-0.4379417245	-0.9045085234	-0.324767
C	 2.0362503292	-0.6023658321	 0.3736775914	 0.342351
C	 3.3180841498	-1.3401247766	 0.5983006406	-0.336677
C	 3.2801375622	 0.1655074359	 0.7295808449	-0.324877
C	 0.7594619985	-0.6093855401	 1.227499844	 0.0684
O	 0.7328691498	 0.1015412298	 2.4403552153	-0.426819
H	 0.5700900126	 2.0230750465	 0.1856495346	 0.108514
H	-0.7907465964	 1.7604864849	-0.9019315177	 0.117516
H	-1.0323133717	 1.6565292746	 0.8503543278	 0.124671
H	-0.9417036672	-0.6243683062	-0.2412387216	 0.066987
H	 1.0702504512	-1.3756636025	-1.4523524201	 0.099931
H	 1.5333061755	 0.3320908031	-1.6087853442	 0.095848
H	 3.4175292558	-1.924896237	 1.5077183397	 0.115769
H	 3.8212718294	-1.764707562	-0.2648336179	 0.110231
H	 3.7549687425	 0.7640058678	-0.0415816772	 0.110206
H	 3.3501427127	 0.5806879522	 1.7308752877	 0.111241
H	 0.4462460872	-1.6267329242	 1.4837268841	 0.086014
H	 1.043445218	 0.996290175	 2.2648070836	 0.280461
