20
gdb 22134	3.36157	0.93564	0.85632	1.3906	78.8	-0.2411	0.0115	0.2526	1413.7186	0.167326	-440.234794	-440.224463	-440.223519	-440.270941	37.164	
C	 1.7156264631	-2.1588350512	-0.5778060401	-0.482738
C	 0.7267871216	-1.063977052	-0.2791210107	 0.360435
C	 0.1335649358	-0.9494073004	 1.1044309892	-0.344819
C	 1.1457915074	-0.5467619126	 2.173034503	 0.417696
C	 1.8051848934	 0.8032212252	 2.0004175475	-0.453548
C	 1.0305324781	-1.1385731929	 3.5143778349	-0.234183
O	 2.0265725937	-1.6026512644	 2.5988621834	-0.270342
N	 0.3196010974	-0.2020609401	-1.1324310464	-0.171688
O	 0.9082208882	-0.3999901369	-2.3930804216	-0.398417
H	 1.2426879722	-2.9334861454	-1.1933278806	 0.139821
H	 2.5553022342	-1.7690893842	-1.1591068684	 0.145734
H	 2.0811843712	-2.6133844322	 0.3431038741	 0.150737
H	-0.67210731	-0.2093665284	 1.075209929	 0.118194
H	-0.3005396375	-1.9153799815	 1.389294831	 0.10857
H	 1.0580988159	 1.6033774663	 2.0308505079	 0.125078
H	 2.5374689194	 0.9744201504	 2.7927656096	 0.124944
H	 2.3160246879	 0.8661757313	 1.0350080002	 0.136362
H	 1.4106329659	-0.59469802	 4.3782495728	 0.11239
H	 0.2276512858	-1.842948966	 3.7300315815	 0.111043
H	 0.5208206563	 0.3144352849	-2.9093143563	 0.30473
