18
gdb 102938	2.11989	0.94065	0.67917	3.7756	74.02	-0.2688	-0.0395	0.2293	1613.0969	0.143794	-439.09535	-439.084918	-439.083974	-439.132468	34.946	
C	-0.0573975033	 1.5944117354	 0.0686031035	-0.395181
C	 0.0164112429	 0.067349764	 0.0186743309	-0.192142
C	 0.701350162	-0.4396534078	-1.2570212584	-0.006457
O	 2.0369574319	 0.0186996895	-1.2568011395	-0.247715
C	 2.7451543625	-0.2009039246	-2.4603974074	-0.164133
C	 4.1472855966	 0.3567542911	-2.2826963591	 0.143593
O	 4.9347682828	 0.461123524	-3.183235953	-0.230696
C	 0.6522834548	-1.9180486253	-1.3366749629	 0.270613
N	 0.6256059906	-3.0712777791	-1.4039940619	-0.31867
H	 0.9412300387	 2.034531421	 0.0233844594	 0.139275
H	-0.6427503336	 1.9908792773	-0.7682667814	 0.119539
H	-0.5357399507	 1.9228644082	 0.995130234	 0.126202
H	 0.5732235277	-0.3224345038	 0.8770451097	 0.131049
H	-0.9860356876	-0.3711315309	 0.060346947	 0.12481
H	 0.1682382133	-0.0490088101	-2.139924462	 0.116757
H	 2.8213188487	-1.2743823281	-2.6957951787	 0.151307
H	 2.2622320739	 0.2943833774	-3.3165588363	 0.130742
H	 4.3825472986	 0.6530772017	-1.2372136639	 0.101107
