20
gdb 87911	3.73267	1.09314	0.99056	3.2083	81.46	-0.2411	0.0318	0.2729	1276.4755	0.171372	-403.166337	-403.157749	-403.156805	-403.19961	33.043	
C	 0.2763770511	 1.5711523673	-0.4553862087	-0.410861
C	 0.0912166449	 0.1072224579	-0.1231097273	-0.07502
C	 1.2825661706	-0.8148138638	 0.1061335026	-0.355952
C	 0.3707926814	-0.4333559506	 1.240064454	 0.438466
C	 0.8065925737	 0.3604934233	 2.4607917395	-0.304614
C	 0.7097015633	-0.7016515248	 3.5673953661	-0.302514
C	-0.3633162767	-1.6377124945	 3.0530131817	 0.403413
N	-1.0173826886	-2.4688933463	 3.7415768363	-0.543518
O	-0.5236177832	-1.4437826093	 1.7072701009	-0.269823
H	 1.1327494468	 1.9997032345	 0.0747173141	 0.115997
H	 0.4522999343	 1.7070592239	-1.5277165915	 0.123774
H	-0.6091730094	 2.1567397849	-0.1853237684	 0.123636
H	-0.7520873371	-0.3697838941	-0.6156702819	 0.102134
H	 1.2154829923	-1.8295242855	-0.2694551828	 0.123984
H	 2.2781161116	-0.3811626555	 0.0853587238	 0.111497
H	 1.8053680873	 0.7861366633	 2.3531040953	 0.113107
H	 0.1058390346	 1.1808436792	 2.6528357036	 0.117056
H	 1.6470769246	-1.261385818	 3.6612468419	 0.134182
H	 0.4545940301	-0.3138998566	 4.5535409637	 0.135485
H	-1.6685308815	-2.9889483254	 3.150646567	 0.219571
