14
gdb 13162	3.78058	1.5794	1.24251	2.0009	58.51	-0.2452	-0.1003	0.1449	944.4932	0.105169	-419.663122	-419.655254	-419.65431	-419.696836	26.294	
O	-1.0467931715	 1.6542331456	-0.0664043003	-0.217108
C	 0.0001684244	 1.1497458108	-0.3801088657	 0.077286
C	 1.3415818055	 1.8933496164	-0.3214879547	 0.261283
O	 2.3518785761	 1.301627969	-0.6106828993	-0.262377
C	 1.2749465547	 3.3354613899	 0.1373613943	 0.052798
C	 1.160794408	 3.5312485525	 1.6756717649	-0.291392
C	 2.5198665323	 4.2450394582	 1.5192406274	-0.061494
O	 2.5366512532	 4.0037043667	 0.0937174216	-0.27108
H	 0.0979262057	 0.1003494223	-0.730333707	 0.113957
H	 0.4999884913	 3.856560216	-0.4397934123	 0.112076
H	 0.3233420129	 4.1504321583	 1.9945388761	 0.132295
H	 1.1781670838	 2.6141786844	 2.2663901961	 0.122865
H	 2.5199425961	 5.3166910938	 1.7480237686	 0.112748
H	 3.3694122375	 3.768519506	 2.0203592702	 0.118142
