13
gdb 128928	3.81115	1.22883	0.95842	3.0437	65.62	-0.2358	-0.0297	0.2061	1122.2226	0.090412	-445.079793	-445.071945	-445.071	-445.112949	27.576	
N	-0.0814353063	-0.4273214961	-1.2172860605	-0.324449
C	 0.0260688892	 0.3766878842	-0.3920664753	 0.239203
C	 0.2157064905	 1.4765597074	 0.5739284608	-0.267748
N	 1.3616122345	 2.3291138554	 0.3445454301	-0.388405
C	 1.7229517262	 2.6450758548	-0.8408512534	 0.563973
N	 1.3113789701	 2.324094659	-2.1249092638	-0.313331
N	 2.1016720713	 2.9203967536	-3.0709323349	-0.073935
N	 2.9502052027	 3.6439857971	-2.4760277635	-0.054863
N	 2.749554881	 3.5194809388	-1.1393135212	-0.302371
H	-0.7210211705	 2.0558392054	 0.5898149801	 0.15425
H	 0.3102142923	 1.0302671884	 1.5699974981	 0.163175
H	 0.7015450394	 1.5676751478	-2.3950371195	 0.308317
H	 3.3446688196	 3.9925178642	-0.4812837071	 0.296184
