14
gdb 131230	2.97965	1.32458	1.05472	4.5457	67.9	-0.2338	0.0078	0.2415	1103.137	0.102074	-432.887515	-432.879476	-432.878532	-432.921276	28.613	
O	 0.1263644327	 1.3440425226	 0.1998766506	-0.429999
C	 0.0815222768	 0.0140343701	-0.0193825419	 0.459793
C	 0.0834002857	-0.7811003666	-1.1450700888	-0.3763
C	 0.0146017103	-2.094580803	-0.6238916676	 0.027051
N	-0.0273265212	-2.120722837	 0.6995294942	-0.273782
N	 0.0061752215	-0.8050643578	 1.0594783407	-0.015535
C	 0.036384537	-0.4298699081	 2.452535159	-0.283957
C	 1.3967323706	-0.1926636268	 2.962902148	 0.277272
N	 2.4582790234	 0.0050114074	 3.3714773269	-0.29716
H	 0.2069175172	 1.8017499513	-0.6427256653	 0.320014
H	 0.1217430302	-0.4637922082	-2.1740873528	 0.108274
H	-0.012405262	-3.0236800537	-1.1745697637	 0.121124
H	-0.5569864155	 0.4770183579	 2.6011731041	 0.177866
H	-0.4241942865	-1.2448986782	 3.0153397766	 0.185339
