12
gdb 2818	4.5235	1.95467	1.49875	4.3155	56.31	-0.2681	-0.0418	0.2263	770.2715	0.089549	-323.385837	-323.379192	-323.378248	-323.416769	23.148	
O	-0.0069895286	-0.0308235614	-0.3500220163	-0.251859
C	 0.0359787683	 1.095583089	 0.0720048544	 0.163302
C	 1.2752092688	 1.9210094495	 0.0833247618	-0.103189
C	 1.1613345798	 3.404546936	-0.1865408722	-0.290243
C	 1.5035338646	 2.9448546164	 1.204758158	-0.165234
C	 0.5446901581	 3.0970683928	 2.2661600908	 0.286436
N	-0.2185614881	 3.2319268278	 3.1246307396	-0.324556
H	-0.8668250629	 1.6048544364	 0.4755646206	 0.099919
H	 2.1593352453	 1.4032730931	-0.270344517	 0.129267
H	 1.9438558813	 3.8735826849	-0.7701038427	 0.14963
H	 0.166835457	 3.808166391	-0.3414525404	 0.154264
H	 2.5339684966	 3.0490728244	 1.5265358833	 0.152264
