15
gdb 15066	3.16956	1.57943	1.18105	3.1927	60.91	-0.2837	0.0204	0.3041	995.2756	0.1179	-399.778401	-399.770154	-399.76921	-399.811666	28.724	
O	 0.2317920658	 1.2704954029	-0.1513129795	-0.416547
C	 0.0277023917	-0.116869071	-0.0402647784	-0.063689
C	-1.4746029413	-0.4887685689	 0.0944039288	-0.197323
C	-2.1981762584	-0.0024573159	-1.0820290734	 0.2779
N	-2.7333140089	 0.4143677251	-2.0179998288	-0.335128
C	-1.6423579939	-1.9859261156	 0.3132844505	 0.077821
C	-2.7067092791	-2.7925844017	-0.2932539473	-0.188176
O	-1.3667641738	-2.8283674634	-0.7990629765	-0.225196
H	-0.0936455604	 1.5562697861	-1.0125059365	 0.300694
H	 0.4531690476	-0.6761909964	-0.8838460468	 0.129312
H	 0.5405750742	-0.4363485509	 0.872189991	 0.121922
H	-1.8706738477	 0.0412144264	 0.9699839068	 0.139453
H	-1.2101813744	-2.3258663358	 1.2559778251	 0.108499
H	-3.0384729546	-3.6991464536	 0.2094124463	 0.125697
H	-3.4350273568	-2.3187543373	-0.9474418311	 0.14476
