17
gdb 83304	2.42983	1.89916	1.5173	2.9255	67.21	-0.2365	-0.0318	0.2047	923.7358	0.137762	-458.979056	-458.971857	-458.970913	-459.010543	28.551	
O	 0.1104541013	 1.3915614783	 0.202604808	-0.445154
C	-0.0059491887	 0.0019385572	 0.0417403418	 0.061945
C	-1.446106929	-0.5280984304	-0.1359830105	-0.092287
C	-2.0460783306	 0.1479207247	-1.3731866005	-0.077977
O	-1.2987061634	-0.4187486368	-2.4773798481	-0.281687
C	-0.3924404305	-1.3945083815	-1.9171726604	-0.004202
C	-1.1560858297	-1.9390423803	-0.7078140785	-0.257272
C	 0.6582518007	-0.4897186378	-1.2633045416	 0.395433
O	 1.7046912444	-0.0771850857	-1.6920326507	-0.340691
H	 0.9269595201	 1.6488809005	-0.2477771422	 0.296162
H	 0.4634338332	-0.5331076722	 0.8859808923	 0.093658
H	-2.0653312406	-0.4767159049	 0.7588920512	 0.086792
H	-3.1094573907	-0.0845701489	-1.5019990252	 0.103859
H	-1.9076865417	 1.2319352633	-1.3613132376	 0.129371
H	-0.0540840023	-2.0654424907	-2.7037966853	 0.098284
H	-0.545792982	-2.5635188056	-0.049166311	 0.113327
H	-2.0579570606	-2.4836221292	-0.9953178718	 0.120439
