17
gdb 106237	2.74042	1.45009	1.25616	1.5983	67.81	-0.2137	0.0142	0.2279	1043.8097	0.13644	-455.120919	-455.112463	-455.111518	-455.153919	31.945	
O	 0.6580113761	 0.1342449333	-0.7919660065	-0.411733
C	-0.1775312682	 0.3142297856	 0.3403849842	-0.173496
C	-1.4931452545	-0.4299538607	 0.2362441807	 0.227827
N	-2.4322385053	-0.1935566207	 1.3185762166	-0.324975
C	-3.0478825762	-1.310216248	 1.5073201286	 0.041491
N	-2.611439131	-2.384979078	 0.7794242053	-0.262292
C	-1.6645324294	-1.9015947731	-0.1881151018	-0.118526
C	-2.1381013838	-0.7704363152	-1.0878842282	 0.063386
O	-3.4932282199	-0.550994456	-1.3080430695	-0.440126
H	 0.3172990349	 0.688450332	-1.5004241447	 0.28841
H	 0.3855620109	-0.063868547	 1.2002897932	 0.118979
H	-0.3889591207	 1.3758921963	 0.5328324683	 0.105811
H	-3.8533022294	-1.4373277123	 2.2239041102	 0.130385
H	-3.2066810297	-3.1764211096	 0.5933279946	 0.256687
H	-0.8605760238	-2.5649410513	-0.484106075	 0.111359
H	-1.518402989	-0.6161810619	-1.9667324213	 0.093899
H	-3.7988570311	 0.0540803265	-0.6192343946	 0.292912
