18
gdb 71812	3.46216	1.65847	1.58506	1.228	74.17	-0.2035	0.0626	0.2661	924.7402	0.148829	-401.87351	-401.8667	-401.865756	-401.904269	28.385	
C	-0.2047594557	 1.5513331793	-0.1165053718	-0.497672
C	-0.0925007509	 0.0679194741	-0.0058842109	 0.447291
O	 0.8140483098	-0.5951796988	-0.897064005	-0.331111
C	 0.0697380527	-1.8395998439	-0.7118423027	 0.05473
C	 0.7444727389	-2.6625162621	 0.3859057621	-0.033058
C	 1.8872063558	-2.0293128847	 1.1028787398	-0.236036
N	 0.5191025451	-1.9201305419	 1.6422853358	-0.115111
C	-0.3045300019	-0.7712305803	 1.264793165	-0.087661
C	-1.0803029566	-1.0651657213	 0.0041348186	-0.214025
H	 0.7512120752	 2.0289254711	 0.1253973058	 0.133951
H	-0.4859978302	 1.8446621457	-1.1330922619	 0.131432
H	-0.9600118973	 1.9315474393	 0.5770597636	 0.128052
H	-0.1147635919	-2.3475147004	-1.6586793051	 0.083606
H	 0.5833970261	-3.7387043606	 0.4054032998	 0.08835
H	 2.5464882093	-2.6495192642	 1.7053304655	 0.110257
H	 2.3433954039	-1.1627687597	 0.6423779349	 0.140708
H	-0.7978486978	-0.2735258817	 2.0929178802	 0.097484
H	-2.1507119345	-1.13234798	-0.1377547237	 0.09881
