16
gdb 44990	3.78658	1.18919	1.02585	3.5141	76.27	-0.2452	-0.0201	0.2251	1145.6971	0.12372	-400.723386	-400.715518	-400.714573	-400.755872	30.529	
O	-0.0688596546	 0.4901085055	 1.1585310386	-0.29803
C	-0.0628570381	 1.361228639	 0.3324029282	 0.392632
C	-1.3131742652	 2.0586036214	-0.2365651577	-0.322947
C	-0.7818409398	 3.2572293128	-0.9840949378	-0.093707
N	 0.0468288251	 4.1264470096	-0.1377551092	-0.370303
C	 0.720539009	 3.1786015987	-1.0687797901	 0.177982
C	 1.1961588349	 1.9338297384	-0.341984489	-0.383594
C	 1.443235496	 3.6889817926	-2.1935561829	 0.16467
C	 2.0716649334	 4.1157764975	-3.126584063	-0.373967
H	-1.8303633109	 1.3605444173	-0.9062949917	 0.133187
H	-1.9992392058	 2.3152594782	 0.5747381776	 0.143993
H	-1.3462557906	 3.6946940559	-1.8000821099	 0.107098
H	 0.0863939026	 5.0618611706	-0.5360580026	 0.243519
H	 1.9668166281	 2.1366945915	 0.4051890408	 0.146033
H	 1.5924798185	 1.1904405614	-1.0432128526	 0.138975
H	 2.6229447576	 4.4922615197	-3.9525549688	 0.194459
