20
gdb 7658	3.03258	2.14701	1.50845	1.5519	74.98	-0.2512	0.081	0.3322	907.2052	0.176718	-348.943292	-348.935095	-348.934151	-348.975353	32.137	
C	-0.1207336102	 1.5421027904	 0.0787227372	-0.473518
C	-0.0270222069	 0.01130678	-0.003680049	 0.388232
C	-1.4709511388	-0.5012581335	-0.1906201171	-0.513927
C	 1.1632924029	-0.5888638478	-0.8629131772	-0.156056
C	 2.1283427001	-0.1430019854	 0.2786572945	-0.237832
C	 0.9023034532	-0.7655903074	 1.0034700955	-0.134374
C	 1.0637589613	-1.9176544826	-0.062456364	 0.182304
O	 0.105085461	-2.9073616493	-0.3305258341	-0.453166
H	 0.8347328561	 2.0663949983	 0.0616688912	 0.114443
H	-0.709834829	 1.9174689005	-0.7664475967	 0.113777
H	-0.6485772434	 1.8406285936	 0.9918292579	 0.11709
H	-1.7626774312	-0.4986632709	-1.2492627115	 0.111669
H	-1.6385738595	-1.4963584268	 0.2201475299	 0.137313
H	-2.1695804881	 0.1695947073	 0.3201285656	 0.114472
H	 1.3219641963	-0.4784505466	-1.9392685315	 0.063335
H	 3.0663220568	-0.6984762192	 0.3514491926	 0.093161
H	 2.3038475269	 0.920356889	 0.4094829982	 0.100565
H	 0.7599535327	-0.8740224572	 2.0806838151	 0.066466
H	 2.0126470646	-2.4514745539	 0.044435085	 0.077752
H	-0.5548189549	-2.5616196885	-0.9344485618	 0.288292
