14
gdb 25196	2.58784	1.83142	1.15092	5.25	76.34	-0.2378	-0.0756	0.1622	1001.8364	0.103734	-432.903407	-432.896146	-432.895202	-432.935807	27.024	
N	-0.0238895481	 1.3933146021	-0.1871167235	-0.497093
C	 0.0307800141	 0.1617108686	 0.1175241752	 0.27956
N	-1.1794461723	-0.4832099252	 0.3943317567	-0.312992
C	-1.4477663192	-1.7503082661	 0.8014970267	 0.037901
C	-0.588251552	-2.6758033167	 1.3001010955	-0.149863
C	 0.7979440674	-2.4383338185	 1.5802005474	 0.01233
N	 1.6108901811	-1.5665557787	 1.0885824702	-0.263042
C	 1.3239427528	-0.6618099853	 0.0851655372	 0.30192
O	 2.1251277097	-0.3870088809	-0.7803434302	-0.305218
H	 0.9036865362	 1.7068490535	-0.4742011506	 0.249903
H	-1.9693236104	 0.1088559665	 0.1728802002	 0.272804
H	-2.5040467246	-1.9928475095	 0.7440528598	 0.138293
H	-1.0150684774	-3.6105168865	 1.6426147165	 0.10969
H	 1.2318145226	-3.0921729332	 2.3417529589	 0.125809
