23
gdb 104002	2.42943	1.39891	1.2591	1.0282	85.82	-0.2372	0.0854	0.3226	1184.4423	0.203959	-388.262673	-388.252934	-388.251989	-388.296428	37.715	
C	-0.0107919922	 1.3250233743	 0.1417126729	-0.248392
O	-0.1118989319	-0.0594345781	-0.1050484164	-0.288331
C	 0.6427312793	-0.5561137704	-1.2006877316	 0.360284
C	 0.1993320738	 0.0583970445	-2.5263377469	-0.461153
C	 2.2094592352	-0.5675829918	-1.02560544	-0.296114
C	 2.1706368175	-2.0960382601	-1.0648933695	-0.096983
C	 1.2997943738	-2.5920703776	 0.0549645396	-0.325758
C	 0.6426966483	-2.0974580112	-1.2055665453	 0.337037
C	-0.2695963496	-2.9640526605	-2.028302733	-0.510189
H	 1.0353113881	 1.6577062415	 0.2158080202	 0.104331
H	-0.5103810141	 1.931655109	-0.6271313475	 0.105573
H	-0.5026865112	 1.5125270465	 1.0999302483	 0.123938
H	 0.4363751848	 1.1257847782	-2.5690524131	 0.114666
H	 0.7114704031	-0.4248068652	-3.3631861706	 0.120097
H	-0.8798651206	-0.0616126884	-2.6649274939	 0.121288
H	 2.7275563864	-0.1069655078	-1.8703743892	 0.095895
H	 2.5891637034	-0.1313235494	-0.0959020493	 0.094266
H	 2.8934518946	-2.7311571394	-1.563287441	 0.079933
H	 1.2679375095	-3.6694542742	 0.1858307804	 0.102782
H	 1.2157155682	-2.022922421	 0.9760805904	 0.11286
H	-1.2948655134	-2.9397795258	-1.6402078208	 0.125552
H	-0.3037384142	-2.6522948515	-3.0777416707	 0.113306
H	 0.0648054912	-4.0064506117	-2.004816963	 0.115113
