19
gdb 92910	2.43043	1.53419	1.11067	1.8814	72.28	-0.2541	0.0027	0.2569	1117.133	0.159764	-460.169381	-460.160511	-460.159567	-460.202753	34.032	
O	 0.0409664612	 1.4287463647	 0.0625518548	-0.449307
C	 0.0510450187	 0.0133330614	 0.03566899	 0.119337
C	 0.7542563553	-0.5814232687	 1.2668075753	-0.267902
C	 0.5978820913	-2.0755535933	 1.3292695361	-0.059232
C	-0.3594107131	-2.7385146809	 0.6803689133	-0.112096
C	-1.4067772883	-2.0763685623	-0.1719564164	 0.079716
O	-2.7228601856	-2.5387704458	 0.1747211993	-0.45173
C	-1.3704918121	-0.5335910188	-0.0898192378	 0.06054
O	-2.0737619193	-0.07246369	 1.0589451989	-0.457106
H	-0.6535238255	 1.6756661586	 0.6861442428	 0.289201
H	 0.6101281139	-0.2708281341	-0.8639322125	 0.088995
H	 1.8126877466	-0.3006474547	 1.2529922711	 0.109709
H	 0.3266051679	-0.1276445033	 2.1705643073	 0.122152
H	 1.3129173286	-2.6276130755	 1.9348801986	 0.095376
H	-0.4275283604	-3.8222472373	 0.7467723659	 0.094647
H	-1.2727123727	-2.3717091851	-1.2208971125	 0.095737
H	-2.7090867961	-2.7194047048	 1.1212018645	 0.283594
H	-1.831387708	-0.1155269606	-0.9967906906	 0.07374
H	-2.9568145024	-0.4551583194	 0.9961052617	 0.284631
