17
gdb 128491	2.03496	1.80023	1.01421	2.9276	72.31	-0.2299	0.0092	0.2391	1163.1559	0.135071	-455.131879	-455.122601	-455.121657	-455.166015	33.177	
C	 0.1398034081	 1.3953599572	 0.1577478636	-0.259897
O	-0.0723278668	-0.0097881638	-0.0033178298	-0.283301
C	 0.5511051042	-0.5447403346	-1.0912388513	 0.05729
C	 0.0022794308	-0.9564772133	-2.2657875195	 0.3561
C	-1.3904543932	-0.936726432	-2.779383141	-0.497866
O	 0.9645024949	-1.4803207031	-3.0455824404	-0.228758
N	 2.2025497383	-1.426018107	-2.3734227616	-0.237931
C	 1.9407007457	-0.8666982196	-1.2155977011	 0.344864
N	 2.9214126339	-0.5861666254	-0.2785865758	-0.597529
H	 1.2081434711	 1.6300657179	 0.2314823479	 0.134507
H	-0.2903260453	 1.9549524923	-0.68199712	 0.120349
H	-0.3638324749	 1.6818438142	 1.0832545655	 0.131332
H	-1.4690319709	-0.3367966683	-3.6921045873	 0.146781
H	-1.7368620632	-1.9479044118	-3.0172180616	 0.149176
H	-2.0492388301	-0.5117131647	-2.0190490458	 0.144818
H	 3.7845598789	-1.084607767	-0.4529362231	 0.261222
H	 2.6028287184	-0.7143291011	 0.6728305014	 0.258844
