23
gdb 101470	3.3721	0.89776	0.74585	1.5332	81.64	-0.2394	0.0736	0.313	1551.1598	0.205677	-425.428109	-425.417967	-425.417023	-425.464007	36.689	
C	-0.0262439553	 1.5572519118	-0.0224272886	-0.40196
C	 0.0154362395	 0.0231085059	-0.0475517664	 0.012203
C	 0.7516107026	-0.4733585703	-1.295866253	-0.083989
O	 0.0635299288	 0.0070016964	-2.4420819455	-0.422151
C	 0.6430676815	-0.562278137	 1.2262640006	 0.005311
C	-0.0647220543	-0.1848286007	 2.5412516266	-0.248375
C	 0.4200657813	-1.2821557712	 3.4883730709	-0.070861
O	 0.5719577305	-2.4546524775	 2.6922064635	-0.26562
C	 0.6223428631	-2.1024813646	 1.3117884656	-0.078716
H	 0.9800525152	 1.9719707164	 0.1163475788	 0.105177
H	-0.4210034492	 1.9400917994	-0.9655190129	 0.135947
H	-0.6557442799	 1.9282533614	 0.7911461333	 0.111785
H	-1.0162185244	-0.3509805768	-0.1191036661	 0.080872
H	 1.7926889646	-0.1078831307	-1.2746445775	 0.082218
H	 0.7897758563	-1.5733285064	-1.3002994636	 0.09037
H	 0.5457090121	-0.275943623	-3.2240070472	 0.287085
H	 1.6870198839	-0.2228451936	 1.2901598256	 0.071631
H	 0.1815202322	 0.818100634	 2.8969493207	 0.104738
H	-1.1522665837	-0.2430363417	 2.4115743562	 0.104642
H	 1.3849308486	-1.0085459927	 3.9443289466	 0.087851
H	-0.2838291698	-1.5004512955	 4.2986415755	 0.102504
H	-0.2653833552	-2.5086637601	 0.8016949027	 0.091703
H	 1.5078518417	-2.5645069036	 0.8591402243	 0.097636
