15
gdb 42746	2.79787	1.59376	1.31807	2.3506	78.13	-0.2418	-0.0053	0.2364	986.6135	0.111731	-383.442616	-383.43517	-383.434226	-383.474343	29.349	
O	-0.0371820731	 0.0116918104	-0.1380744878	-0.284094
C	-0.0486625668	 1.188571438	-0.0523854472	 0.39322
C	-1.0897844713	 2.3710866668	 0.0941359944	-0.204353
C	-0.0266920426	 2.9866449811	 1.0512133671	-0.254099
C	 1.026282457	 2.3970276952	 0.04742995	 0.109926
C	 0.5962622546	 3.0747257583	-1.2491498806	-0.128161
C	-0.7479037551	 3.0587467134	-1.2153904187	-0.099509
C	 2.411412593	 2.2163960631	 0.3636514205	 0.02925
C	 3.5682665043	 2.0385232752	 0.6398359332	-0.32179
H	-2.127214547	 2.214277701	 0.3759577435	 0.094814
H	-0.0305845039	 4.0766563261	 1.1214962103	 0.115408
H	 0.0128411421	 2.5128754013	 2.0362114858	 0.121925
H	 1.2703280282	 3.3663523596	-2.0408114581	 0.123796
H	-1.4517776165	 3.3353011271	-1.9867050288	 0.119326
H	 4.5900702971	 1.8812074033	 0.8820595563	 0.184341
