18
gdb 40072	4.60092	1.18551	1.05691	2.2003	80.16	-0.2261	-0.0076	0.2186	1147.3283	0.149282	-401.88269	-401.875424	-401.87448	-401.91437	29.01	
C	 0.0333679282	 1.5136554762	-0.024478515	-0.294808
N	 1.2668772467	 0.7085650168	 0.0023053447	-0.348621
C	-0.0516360715	 0.0338063749	 0.0034028685	 0.326805
C	-0.4538351742	-0.7826447957	 1.2587510288	-0.319974
C	-0.5027140968	-2.2115588787	 0.70194723	 0.096885
O	-1.7296529142	-3.0269997609	 0.7345978551	-0.306751
C	-1.7046967617	-3.1696236574	-0.7196824672	-0.153988
C	-0.7312492401	-2.0203276219	-0.7641799802	 0.18274
C	-0.5546091802	-0.7658806307	-1.1687376874	-0.296125
H	-0.1611480977	 2.0781874967	 0.8842973178	 0.119018
H	-0.2421734924	 2.0297603446	-0.9414502838	 0.11051
H	 1.6728780815	 0.6637216744	-0.9297302936	 0.229036
H	 0.2442870914	-0.6338904222	 2.0848767121	 0.112844
H	-1.4590341467	-0.4895172869	 1.5796933389	 0.120041
H	 0.3490996953	-2.8320098429	 1.0077652478	 0.086797
H	-1.3093212362	-4.1508725633	-1.0141459841	 0.109413
H	-2.6867831451	-3.0147227011	-1.1781509165	 0.121782
H	-0.8293443464	-0.3201178321	-2.117803946	 0.104395
