20
gdb 61203	3.75788	0.8073	0.76706	2.2389	82.17	-0.2271	-0.0281	0.199	1533.9237	0.16652	-403.10245	-403.091763	-403.090818	-403.138515	38.013	
C	-0.1173661449	 1.4616336659	 0.2954476285	-0.404514
C	 0.0477204842	-0.0311771944	-0.0217086407	-0.052847
C	-1.2817231777	-0.7827822891	 0.042787955	 0.14927
O	-2.291813235	-0.3540570799	 0.5357710655	-0.244208
N	 0.7124838148	-0.3959983714	-1.2715322206	-0.068914
C	 0.0843074714	 0.1466845673	-2.4706138304	-0.342033
C	 2.1600432281	-0.1894317971	-1.2500964873	-0.318285
C	 2.8463844828	-0.9115208601	-2.3206670549	 0.302905
C	 3.4255353721	-1.4906058084	-3.1997496618	-0.419854
H	 0.8525805843	 1.9633320211	 0.3536870818	 0.115444
H	-0.7249340517	 1.9655466741	-0.460729522	 0.130107
H	-0.6280947824	 1.5788349942	 1.2537923092	 0.139129
H	 0.6440713851	-0.4930175094	 0.7828459597	 0.103412
H	-1.2251434626	-1.8004164259	-0.4040640301	 0.090511
H	 0.2166202378	 1.2364503854	-2.5858423975	 0.10334
H	 0.5122016579	-0.3394324138	-3.3507713924	 0.141396
H	-0.9894346384	-0.0637914369	-2.4551187221	 0.128256
H	 2.4383010891	 0.8800776381	-1.3173230939	 0.115344
H	 2.5388214294	-0.5458000509	-0.2844144337	 0.132033
H	 3.9370924858	-2.0101203588	-3.971907642	 0.199509
