17
gdb 81847	2.4404	1.593	1.25224	3.3332	68.68	-0.2444	-0.0415	0.2029	1030.877	0.134613	-458.932054	-458.923746	-458.922801	-458.964679	31.951	
O	 0.461667396	 1.2500318008	 0.1023569247	-0.434623
C	 0.1257891507	-0.0979220657	-0.0266216125	 0.140287
C	-1.3414114448	-0.5412606651	 0.034997521	-0.173043
C	-2.104077984	-0.0789727418	-1.189618061	-0.328666
C	-1.19469104	-1.2506361073	-1.3177172332	 0.393079
O	-1.6733443093	-2.4550681522	-1.780414802	-0.447152
C	 0.2922367554	-0.7980823218	-1.4387043454	-0.247051
C	 0.5929597378	 0.0563691929	-2.6290874357	 0.156448
O	 0.3516238751	 1.2458792702	-2.6809989108	-0.27631
H	 0.2557303417	 1.6818356643	-0.7397827051	 0.298556
H	 0.7176200959	-0.6425081545	 0.7155746518	 0.093958
H	-1.8595100729	-0.862110085	 0.9307142073	 0.094699
H	-3.1531948231	-0.3549471011	-1.1833210267	 0.127521
H	-1.8876739785	 0.8705667423	-1.6689802887	 0.132252
H	-1.2016208199	-3.1677641725	-1.3339862019	 0.288421
H	 0.9712977584	-1.6559145222	-1.4076551411	 0.08099
H	 1.0241291616	-0.4595005113	-3.5134358806	 0.100634
