19
gdb 111912	3.09268	1.15959	0.88703	2.3983	79.94	-0.2243	-0.0249	0.1995	1338.4562	0.157097	-423.04957	-423.040142	-423.039198	-423.084511	33.918	
C	-0.1178633337	 1.4478436169	-0.0510026247	-0.241306
O	 0.1073091477	 0.0537601234	 0.0768061446	-0.24953
C	 0.6861072047	-0.5468876028	-1.0663743499	-0.01414
C	 1.2252593861	-1.9076896	-0.7409595951	-0.195124
C	 0.7144081635	-2.8832038314	-1.5000461488	 0.31002
C	 1.0517528513	-4.3379424868	-1.4339928389	-0.485717
C	-0.2935798579	-2.3546983123	-2.4931536646	-0.415119
C	-0.3676029122	-0.8598901547	-2.1646983877	 0.38496
O	-1.1334255528	-0.0633915817	-2.6412055607	-0.305282
H	 0.8206917633	 1.9826468485	-0.2672750324	 0.100217
H	-0.8417277284	 1.6738537789	-0.840913832	 0.139811
H	-0.5067305346	 1.7912436512	 0.9107122784	 0.123797
H	 1.4587381888	 0.1229381705	-1.4862467671	 0.083424
H	 1.9584785348	-2.0535374029	 0.0441762987	 0.101157
H	 1.7849884946	-4.5456898056	-0.6503526236	 0.129093
H	 0.155007121	-4.9385007038	-1.235216908	 0.13245
H	 1.4583012843	-4.6943158113	-2.3889719965	 0.129951
H	 0.0196697547	-2.4875035515	-3.5379623602	 0.134887
H	-1.2819674954	-2.8252660546	-2.4114153615	 0.136452
