25
gdb 60395	3.59334	0.69634	0.64125	0.9468	91.07	-0.2438	0.0854	0.3292	1901.3232	0.226484	-389.481001	-389.469855	-389.468911	-389.518227	40.545	
C	-0.4851136322	 1.35697373	 0.0267968643	-0.392851
C	 0.114730517	-0.0509368408	-0.0572598553	 0.165432
C	 1.2606822082	-0.1233128892	-1.0610567974	-0.386644
O	 0.6466635406	-0.4817147596	 1.1889979069	-0.257878
C	-0.3124196783	-0.8378051406	 2.1673061717	-0.084611
C	 0.4090505251	-1.5101615792	 3.3054940108	-0.003302
C	 1.0410104006	-0.6957795262	 4.4089878608	-0.284653
C	-0.1510117415	-1.570314506	 4.7106811418	-0.000076
C	-1.4857850235	-0.9745774784	 5.1078556775	-0.406423
H	 0.2772629644	 2.0726576874	 0.3517779435	 0.120525
H	-0.859887959	 1.6718898018	-0.9524675372	 0.112154
H	-1.3212729731	 1.4030099133	 0.7304543875	 0.114435
H	-0.6782206398	-0.7545500062	-0.3669154847	 0.059142
H	 2.0642023328	 0.5600811821	-0.7682198772	 0.121673
H	 1.6708944109	-1.1358630588	-1.0980328077	 0.118655
H	 0.9182090341	 0.1540175421	-2.0625096586	 0.108993
H	-0.860053531	 0.0464078675	 2.5252764225	 0.082681
H	-1.058575733	-1.5221962219	 1.7264080535	 0.08022
H	 0.9652394694	-2.3866231242	 2.9842356845	 0.085394
H	 2.0192684931	-0.98409527	 4.7774292064	 0.108327
H	 0.8756575001	 0.3774099485	 4.384986107	 0.108131
H	 0.0765324293	-2.4953466771	 5.2350130923	 0.082232
H	-1.6674921291	-0.0108557421	 4.6237625225	 0.116625
H	-2.3180828795	-1.639466301	 4.8498819277	 0.114995
H	-1.5223615854	-0.8049531615	 6.1897948967	 0.116824
