17
gdb 94421	2.5701	1.37469	1.25574	4.4181	68.2	-0.2621	0.007	0.2692	1075.8282	0.135757	-458.972173	-458.963831	-458.962886	-459.005473	30.575	
O	 0.3284042244	 0.9980878752	-0.5811408794	-0.427557
C	 0.1110544237	-0.1638280568	 0.1766283527	 0.07942
C	-0.0509747718	-0.0544416836	 1.7174641956	-0.264265
C	-1.265379894	-1.0170452748	 1.6042507687	-0.302409
C	-1.3364190896	-0.7074093032	 0.0879090626	 0.101944
C	-2.4492124275	 0.1522509546	-0.5323663846	-0.134406
O	-2.7354282813	-0.9150407402	-1.5011310838	-0.248774
C	-1.7573452684	-1.7173693152	-0.9720755876	 0.415919
O	-1.4378676245	-2.8109300483	-1.3161510718	-0.340371
H	 1.2743687872	 1.163163635	-0.6365162368	 0.293427
H	 0.8147344606	-0.9632723964	-0.0918382445	 0.095961
H	 0.790023289	-0.3559626835	 2.3455965178	 0.104045
H	-0.3614455875	 0.9581694303	 1.9892004989	 0.114919
H	-0.9963606132	-2.0619573025	 1.7777494163	 0.131081
H	-2.1554719625	-0.7793004727	 2.189739219	 0.115728
H	-3.3207131957	 0.3405395997	 0.0987009082	 0.119316
H	-2.120705039	 1.0582930023	-1.0414609514	 0.146023
