18
gdb 8486	2.98441	1.89465	1.47011	2.0165	67.9	-0.2199	0.0677	0.2876	921.3523	0.151592	-384.903835	-384.89519	-384.894245	-384.936642	32.432	
C	-0.1517926258	 1.5728239605	 0.0459458793	-0.415264
C	 0.044334774	 0.06219062	 0.0006810282	-0.023898
C	 1.1445877995	-0.5424618408	-0.951019597	-0.293416
C	 1.7572333794	-1.2670424615	 0.2403579565	 0.381613
O	 2.262308714	-2.5442844011	 0.082768837	-0.463982
C	 2.1980999851	-0.2706894996	 1.2837004342	-0.425744
C	 0.7258095039	-0.6516409612	 1.1760049725	 0.296485
O	 0.0534510784	-1.2504486701	 2.2290222653	-0.465367
H	 0.786902946	 2.0970459044	 0.2552975167	 0.114038
H	-0.5346275144	 1.9494149504	-0.9086750216	 0.117355
H	-0.8717896819	 1.853810799	 0.8229676722	 0.111129
H	-0.911705877	-0.4325033601	-0.1986842222	 0.083038
H	 0.7287685904	-1.2309926329	-1.6891313001	 0.112553
H	 1.7967909021	 0.1782068044	-1.4551158862	 0.095394
H	 2.4009205707	-2.9283228331	 0.955241783	 0.287397
H	 2.6759265687	-0.72635242	 2.1480742612	 0.10185
H	 2.5801965456	 0.7174446857	 1.0308644687	 0.102138
H	-0.0275104388	-0.611083064	 2.9456673623	 0.284681
