16
gdb 8449	4.36688	1.81165	1.60192	3.1718	64.41	-0.231	-0.0172	0.2138	833.0872	0.130371	-383.741857	-383.735017	-383.734073	-383.772575	26.88	
C	 0.0322945896	 1.5045447369	 0.0536063129	-0.491011
C	-0.0129977756	 0.0068147055	-0.0345230215	 0.408606
C	 0.6412776039	-0.8129538936	-1.1803085632	-0.281634
C	 0.7412843601	-1.8223197871	-0.0152422926	-0.034729
O	 0.8866399462	-0.6964711088	 0.9058435612	-0.328164
C	-0.7387156836	-2.1652967008	 0.2271872093	 0.446947
O	-1.2716680091	-3.228676521	 0.3697009316	-0.321328
C	-1.3384173166	-0.7398981234	 0.2368865015	-0.37753
H	 1.0501102257	 1.8708146218	-0.1063176739	 0.130626
H	-0.6225394091	 1.9490506154	-0.7028070581	 0.127217
H	-0.3069007132	 1.8416477693	 1.0382958867	 0.134771
H	 0.0487593049	-1.0663083557	-2.0637532258	 0.108534
H	 1.6221297039	-0.4198943929	-1.4524595084	 0.119242
H	 1.4909953833	-2.6050441655	 0.0743308101	 0.099355
H	-1.7591781671	-0.4866853557	 1.2134190321	 0.134966
H	-2.1104976134	-0.6173934844	-0.5281559619	 0.124132
