15
gdb 11488	3.51904	1.40194	1.13266	2.5654	68.46	-0.2471	-0.0589	0.1882	1050.2273	0.116457	-362.598097	-362.589837	-362.588893	-362.632235	28.964	
O	-0.4533121559	 1.7186999513	-2.0973931188	-0.277836
C	 0.0018961953	 1.8316392414	-0.9801634412	 0.236759
C	 1.430025716	 2.3191661199	-0.7430394176	-0.25791
N	 2.0499222239	 1.679927719	 0.4035573066	-0.064571
C	 2.7899256077	 0.4488794454	 0.1355818644	-0.220871
C	 3.5074868245	 1.7152520781	 0.450241935	-0.21867
C	-0.796798502	 1.5490377554	 0.1982519312	 0.3133
C	-1.4961775169	 1.3224605472	 1.1511168984	-0.456545
H	 1.9757306632	 2.1842349135	-1.6910814677	 0.111813
H	 1.3714236893	 3.3991486824	-0.5460409169	 0.135537
H	 2.6902695289	-0.3309012955	 0.8843870258	 0.124536
H	 2.8345011691	 0.0940574196	-0.8927891956	 0.120145
H	 4.0339780446	 2.2043631988	-0.3676800288	 0.114668
H	 3.9417805102	 1.8758678449	 1.4326678597	 0.123607
H	-2.111335118	 1.1215841485	 1.9943069453	 0.216036
