20
gdb 79079	2.74446	1.73975	1.47497	0.53	84.16	-0.2013	0.0118	0.2131	1003.6646	0.171393	-365.972018	-365.964092	-365.963148	-366.003779	32.049	
C	-0.0648469208	 1.5427059274	-0.0715393012	-0.323059
N	 0.1020445457	 0.0971911296	-0.0091622845	-0.067337
C	 0.6643908106	-0.5916132333	-1.1336543084	-0.075073
C	 2.2659178004	-0.6141828819	-1.1285113888	-0.153264
C	 2.9500468414	 0.3346724423	-0.2277846875	-0.070596
C	 2.3650540258	 0.3132156835	 0.9828540638	-0.1222
C	 1.1431635294	-0.5606912179	 0.9001704747	-0.107639
C	 1.4283024963	-1.5505161514	-0.2873696826	 0.309043
C	 1.4871866133	-3.0457192629	-0.2452597497	-0.520944
H	 0.8378457452	 2.0938493561	-0.3729326853	 0.10424
H	-0.8563727526	 1.7602809899	-0.7974737765	 0.115627
H	-0.3928407715	 1.9149747926	 0.9046702301	 0.114459
H	 0.1243206004	-0.7116862402	-2.0674414766	 0.094618
H	 2.7224693579	-0.9825610592	-2.0405627739	 0.076725
H	 3.7587816117	 0.9856025538	-0.5387722313	 0.095199
H	 2.5927185014	 0.96293678	 1.8187956693	 0.091843
H	 0.7093731837	-0.931898742	 1.8298215053	 0.068158
H	 0.5774125455	-3.4685632208	 0.1953905778	 0.124607
H	 1.590777514	-3.4573629595	-1.2548138742	 0.12068
H	 2.3424878023	-3.3939435862	 0.3451027096	 0.124914
