24
gdb 113389	2.67467	0.96474	0.8133	1.6889	86.88	-0.2262	0.0679	0.2941	1550.5324	0.215467	-405.519834	-405.508873	-405.507929	-405.556041	40.164	
C	 0.522691955	 1.2308705149	-0.6226088829	-0.37593
C	 0.49581807	-0.1895933769	-0.0609902685	-0.115162
N	-0.8839620791	-0.6478684291	 0.0621063197	-0.112633
C	-1.4577323984	-1.4192822358	-1.032736025	-0.300494
C	-1.2173989388	-2.0595890053	 0.3012907555	 0.284688
C	-0.1325313922	-3.1219854046	 0.4348827114	-0.249715
C	-0.5386005702	-4.514069773	-0.0721591179	-0.389695
C	-2.4080096113	-2.1892215358	 1.2438564241	-0.115461
O	-3.216205361	-3.3360965469	 1.0105471289	-0.411075
H	 1.5505877737	 1.6013796121	-0.6866046713	 0.109916
H	 0.08895175	 1.260008634	-1.6275961952	 0.117687
H	-0.0554438007	 1.9067627288	 0.0133492431	 0.126074
H	 1.1132418572	-0.8415478086	-0.700534469	 0.085723
H	 0.9450966624	-0.2040338804	 0.939279565	 0.103183
H	-2.458012676	-1.1329494929	-1.3543413301	 0.102641
H	-0.7948070899	-1.7160861117	-1.8462172572	 0.104873
H	 0.7636955287	-2.8013536854	-0.1041169215	 0.096361
H	 0.1546837611	-3.1911292439	 1.4927087773	 0.098532
H	-1.4102447484	-4.89204732	 0.4641714198	 0.144309
H	-0.7877948489	-4.4818168792	-1.138812081	 0.106041
H	 0.2863848803	-5.2224981693	 0.0545721214	 0.106092
H	-2.0538613666	-2.2885934285	 2.2764858747	 0.1058
H	-2.9932550644	-1.2615045116	 1.1826300132	 0.096445
H	-3.5436183926	-3.279786571	 0.1066256155	 0.281801
