15
gdb 27714	3.01664	1.26649	0.89373	2.5731	83.09	-0.1713	0.0147	0.186	1226.7182	0.112166	-416.809565	-416.800587	-416.799643	-416.84272	33.792	
N	 0.1247762542	 1.3983404709	 0.1713793161	-0.613359
C	-0.0086615333	 0.0143361202	 0.0305105285	 0.334898
C	-1.1387166287	-0.7829709283	-0.0319736104	-0.302438
C	-0.6839043792	-2.1231792613	-0.0572922884	 0.266092
O	-1.4971115516	-3.2015726256	-0.1396911318	-0.44304
C	 0.7039077215	-2.1296967008	-0.0222834258	 0.0625
N	 1.0958755568	-0.7810943102	 0.0145930903	-0.37569
C	 1.5807080432	-3.2171075253	-0.0550607749	 0.186591
C	 2.3045821546	-4.1864058665	-0.0710615182	-0.461938
H	 0.7394214725	 1.8128479511	-0.5206751632	 0.249252
H	-0.7727815656	 1.8628992776	 0.1355721559	 0.254495
H	-2.1624485232	-0.4492618845	-0.0843108476	 0.09793
H	-0.9414989973	-3.9910895368	-0.1493429717	 0.299089
H	 2.0221532074	-0.473865895	 0.2559395495	 0.26287
H	 2.9445266686	-5.0323372655	-0.1029410484	 0.182749
