17
gdb 14679	3.24525	0.96459	0.75405	3.3416	76.05	-0.2415	0.0251	0.2666	1489.4688	0.139063	-363.828292	-363.818188	-363.817244	-363.865803	32.584	
C	 0.6844226142	 0.9000636906	 0.351843118	-0.249651
O	-0.0012397343	 0.1240660986	-0.6224903242	-0.196052
C	 0.656633463	-0.9709590202	-1.054352398	 0.145307
N	 0.1277435132	-1.7185817441	-1.9174282136	-0.241283
C	 0.8475905544	-2.9007253022	-2.3778377876	-0.262519
C	 2.1729678045	-3.172305456	-1.8098428562	 0.069958
C	 3.2607855588	-3.3876548372	-1.3380435244	 0.02283
C	 4.5776261905	-3.6717852993	-0.7843439163	-0.497364
H	 0.8798709039	 0.321648596	 1.2631829485	 0.126242
H	 1.6330316937	 1.2895245871	-0.037730442	 0.126251
H	 0.0288671775	 1.7371400095	 0.5951007501	 0.14445
H	 1.6425483605	-1.1292701738	-0.5992002019	 0.087943
H	 0.1964829339	-3.7678937391	-2.2023011287	 0.13837
H	 0.9330566015	-2.8254650497	-3.4704325786	 0.13837
H	 4.9977753207	-4.5850624934	-1.2199685312	 0.152233
H	 5.2816706284	-2.8567994119	-0.9853956421	 0.147457
H	 4.5341535753	-3.8143130449	 0.3010586783	 0.147459
