17
gdb 4832	4.60697	1.3221	1.09679	0.807	71.99	-0.1742	0.0604	0.2347	1093.2298	0.142589	-363.903689	-363.89542	-363.894475	-363.936524	30.608	
C	 0.041253032	 1.5084227467	-0.2721829419	-0.364332
C	-0.0359749015	 0.0264075958	 0.1394222103	-0.299071
C	-1.4236551277	-0.5273149055	 0.1765147554	 0.300935
C	-2.2099871469	-0.9482260823	 1.2191365134	-0.213719
C	-3.4749669155	-1.3729523118	 0.6979281586	-0.293004
C	-3.407275502	-1.1913735143	-0.6605721981	 0.362519
O	-4.2768954003	-1.4120177535	-1.6819902542	-0.438011
N	-2.1808472349	-0.6833818134	-0.9789755799	-0.339627
H	 1.0778684718	 1.860787486	-0.2778315503	 0.109807
H	-0.3684458574	 1.667408832	-1.2756299304	 0.106614
H	-0.532088962	 2.1325144429	 0.4196484216	 0.124034
H	 0.5957575588	-0.5659014677	-0.5385778871	 0.098134
H	 0.3966249912	-0.0964374889	 1.1376456594	 0.112718
H	-1.9140696407	-0.9547573848	 2.2576486605	 0.085908
H	-4.3159197074	-1.7619720632	 1.2509163323	 0.081657
H	-5.0883542799	-1.7709176273	-1.3111852261	 0.305963
H	-1.8871754176	-0.4733410108	-1.9172024035	 0.259474
