19
gdb 90390	2.15508	1.52383	1.28318	2.0166	82.49	-0.2281	0.0468	0.2749	1118.7389	0.156549	-385.82001	-385.810812	-385.809868	-385.853364	35.014	
C	-0.2736607701	 1.5003931611	-0.0756329356	-0.423234
C	 0.0423707093	 0.0241257126	 0.0244864822	 0.102953
O	 1.137647963	-0.428801298	-0.8331619607	-0.303044
C	 1.6998541584	-1.1502089773	 0.2522841329	 0.050373
C	 2.1918423513	-0.2235110793	 1.3424453065	-0.303326
C	 2.780801404	 1.0638029068	 1.1104652896	 0.324149
C	 3.3301815051	 2.1225625066	 0.9515314332	-0.425327
C	 0.7076957391	-0.6123951158	 1.2543327542	 0.212735
C	-0.0315774468	-1.2347615373	 2.4020509876	-0.498778
H	 0.5847981946	 2.1150357486	 0.1947473604	 0.148377
H	-0.5751527157	 1.7462601331	-1.0990711296	 0.125906
H	-1.1108478669	 1.7436408084	 0.5881051677	 0.114808
H	-0.8480798864	-0.5690545004	-0.2302422124	 0.081536
H	 2.1084709622	-2.1366251005	 0.0598457693	 0.107851
H	 2.666856551	-0.7784144372	 2.1511397938	 0.113998
H	 3.8037224652	 3.0599061886	 0.7957273763	 0.19264
H	-0.4313519256	-0.4702697291	 3.0786245173	 0.129964
H	-0.8723434796	-1.8409182804	 2.0461461968	 0.123588
H	 0.6224993979	-1.8846860305	 2.9917087607	 0.124831
