20
gdb 56647	2.33349	1.25857	1.03176	5.1164	79.14	-0.2411	0.0281	0.2693	1257.5031	0.170467	-399.317536	-399.307295	-399.30635	-399.352446	37.71	
C	 0.021201201	 1.4697890839	-0.2076349227	-0.418386
C	 0.1480159895	-0.0298246992	-0.068231024	-0.018812
C	 1.506411705	-0.7038642589	-0.0402712784	-0.361892
C	 0.666018644	-0.6722714219	 1.2064690688	 0.312083
N	 1.1292940034	 0.0857354745	 2.3449565204	-0.575924
C	 0.0244661778	-1.9964631328	 1.6539255976	-0.169971
N	 0.883268124	-2.8600148462	 2.4628394025	-0.503155
C	-1.2070784094	-1.6887342804	 2.4093339177	 0.307619
N	-2.1621653574	-1.3923345618	 2.9882076041	-0.332634
H	 0.7982522133	 1.993835874	 0.3571705169	 0.103965
H	 0.1104838022	 1.7762734592	-1.2550169833	 0.125209
H	-0.9490709149	 1.8195253684	 0.1612473462	 0.130649
H	-0.6328944476	-0.5882572401	-0.5801148441	 0.090147
H	 1.6383271876	-1.6460024653	-0.5635560396	 0.113004
H	 2.3853506122	-0.0654882971	-0.0651766841	 0.112661
H	 1.900142965	 0.697613813	 2.1112997313	 0.236865
H	 0.3853286194	 0.6520187045	 2.7417077473	 0.248467
H	-0.2822122218	-2.5563343315	 0.76256	 0.121303
H	 1.649066398	-3.1826490854	 1.8771737459	 0.231809
H	 1.3051046985	-2.2745738767	 3.1815853976	 0.246995
