14
gdb 48516	3.47664	1.70048	1.47079	2.4742	64.07	-0.2538	-0.0514	0.2024	874.7247	0.100835	-436.584098	-436.577636	-436.576692	-436.615535	24.663	
O	-0.513409086	 0.5616643548	 0.6801597	-0.240602
C	 0.0267481762	 1.1198421902	-0.2421026213	 0.014683
C	 1.2632565234	 1.9331313989	-0.1031318556	 0.264256
C	 1.826493412	 2.6626799559	 1.1462166644	 0.005981
O	 2.8575116277	 1.6720945951	 1.353442916	-0.276279
C	 2.7460397363	 1.4059546895	-0.0521493202	 0.01515
C	 3.0483732489	 2.7203108882	-0.8132316998	-0.058752
C	 2.3547736447	 3.6730391982	 0.0939729327	-0.057171
N	 1.6117946567	 3.0725867106	-1.0680227691	-0.211794
H	-0.3601037102	 1.0549842166	-1.2826729284	 0.094311
H	 1.2877180933	 2.9608497396	 2.0413902857	 0.113163
H	 3.1222982756	 0.4380016952	-0.3742834011	 0.109391
H	 3.8416469334	 2.9705642793	-1.5050977809	 0.113183
H	 2.5534638581	 4.7339409277	 0.1653863375	 0.114481
