18
gdb 62872	2.88523	1.88974	1.47185	3.0027	70.11	-0.2415	0.0621	0.3036	926.8501	0.148608	-439.016358	-439.00931	-439.008365	-439.047265	29.723	
C	-0.009574855	 1.5711109831	 0.0174956983	-0.425594
C	-0.1029349935	 0.0507642115	-0.0337704739	 0.402764
O	-1.4144180639	-0.2575424167	-0.3535258151	-0.482761
C	 1.1344857983	-0.6103842371	-0.7624450009	-0.01551
O	 1.909969818	-0.2891489624	 0.4415459686	-0.293048
C	 0.6763251277	-0.6467935891	 1.1517500283	-0.015508
C	 0.6377782676	-2.1652876889	 0.8624004718	-0.04213
N	-0.3631360427	-2.6052327936	-0.1466143152	-0.370082
C	 0.9822751709	-2.1379138333	-0.5766735628	-0.042121
H	 0.9950853025	 1.9110760072	 0.2644242137	 0.131451
H	-0.3062766581	 1.9801129726	-0.95306047	 0.119098
H	-0.7169322657	 1.9474783053	 0.7626718559	 0.119099
H	-1.4546483026	-1.2330212029	-0.3816864516	 0.300557
H	 1.5728917808	-0.2347347651	-1.6865891524	 0.077564
H	 0.6457258531	-0.3084068189	 2.1870821797	 0.077565
H	 1.0358862867	-2.8838640862	 1.5678935304	 0.108861
H	-0.3929617576	-3.6220553684	-0.1731180788	 0.240933
H	 1.6627946535	-2.8340418969	-1.0508697061	 0.108861
