15
gdb 84740	2.06613	1.80865	1.25553	5.0254	67.46	-0.2361	-0.0807	0.1554	1018.9811	0.111358	-457.782726	-457.774309	-457.773365	-457.816649	30.173	
O	-0.0217852798	 1.4293573533	 0.0452029548	-0.422807
C	 0.0179377089	-0.0023364171	-0.0289545699	-0.021481
C	 0.8047016024	-0.5938180265	 1.1090947676	-0.123808
C	 0.2374251802	-1.0903087379	 2.2109626479	-0.055656
C	-1.2459456039	-1.1908633163	 2.4507564599	-0.374447
C	-2.1003783981	-0.5627033706	 1.3542712636	 0.300924
O	-3.2187864859	-0.1569719746	 1.5346823977	-0.278526
C	-1.4243373641	-0.5181800784	-0.0349829037	 0.319569
O	-2.0102028365	-0.8713620704	-1.0252916937	-0.284624
H	-0.051903129	 1.6762557592	 0.9764491251	 0.288424
H	 0.4594714283	-0.238434216	-1.0015328059	 0.116412
H	 1.8869693714	-0.5533335405	 1.024000039	 0.114447
H	 0.8704974798	-1.4612081602	 3.0136011965	 0.114267
H	-1.5388327018	-2.2511362161	 2.5097679973	 0.160241
H	-1.5359043617	-0.7581179581	 3.4154964638	 0.147066
