17
gdb 42776	2.49961	1.92954	1.6053	3.651	71.64	-0.2247	-0.0127	0.212	906.5856	0.137697	-421.769288	-421.762548	-421.761603	-421.8002	27.457	
O	-0.1145516137	-0.0061633108	 0.0818310612	-0.32347
C	-0.0726810626	 1.1844044412	 0.005523169	 0.375264
C	-1.0647370764	 2.3606588714	 0.091172603	-0.155226
C	 0.0836686897	 3.0333282005	 0.971582993	-0.334302
C	 0.9939782134	 2.2909598793	-0.0578286128	 0.334923
O	 2.3434681307	 2.0636901085	-0.4430650633	-0.348359
C	 1.9084483539	 2.217150574	-1.8459542058	-0.163438
C	 0.6645742488	 3.0082147046	-1.3532539226	-0.026284
C	-0.8857072634	 2.8806487038	-1.382657992	-0.283059
H	-2.0676304885	 2.2410583257	 0.4923102094	 0.097193
H	 0.1577496234	 4.1217425427	 0.9594147003	 0.116889
H	 0.071128412	 2.6449126755	 1.9912989082	 0.128606
H	 2.6510787741	 2.758464236	-2.4352659172	 0.119807
H	 1.6984949054	 1.2371678426	-2.2887937289	 0.126848
H	 0.9589101818	 4.0580673486	-1.2730577734	 0.096944
H	-1.2821511529	 2.1524694962	-2.0965132982	 0.125761
H	-1.3741806158	 3.8394927102	-1.5694598799	 0.111902
