18
gdb 111228	3.53518	1.3152	1.22281	2.2896	71.32	-0.2386	0.0135	0.2521	1077.4518	0.149199	-439.060516	-439.052914	-439.05197	-439.092647	29.226	
C	-0.0185454463	 1.292771508	-0.1995935079	-0.245689
O	-0.0870179062	-0.0194142412	 0.3224527175	-0.253963
C	-1.3555911536	-0.6047144894	 0.2025693728	 0.134363
C	-1.616451135	-1.2550888155	-1.1958946634	 0.068846
C	-0.8038401116	-2.4717629651	-0.6916538346	-0.253258
C	-1.3359019634	-2.0706700028	 0.7176039571	-0.034627
N	-2.7259083402	-2.5310583488	 0.8450315494	-0.262229
C	-3.436668308	-2.257016401	-0.1678368855	 0.109964
O	-3.0156566252	-1.6006483847	-1.2800861221	-0.238519
H	 0.9989158912	 1.6521231306	-0.0308052876	 0.133222
H	-0.2311627994	 1.324390425	-1.27787285	 0.110049
H	-0.7245996656	 1.9640668082	 0.3114403458	 0.113763
H	-2.1468395923	 0.0483825016	 0.5954972531	 0.076229
H	-1.362884505	-0.7393390426	-2.1210617285	 0.089528
H	-1.0715079175	-3.4589950418	-1.0714822735	 0.109513
H	 0.2648092818	-2.284700035	-0.7900278283	 0.126568
H	-0.7596861884	-2.3020665368	 1.6122697128	 0.084456
H	-4.4834062353	-2.5387242285	-0.2439183472	 0.131783
