21
gdb 83585	2.5469	1.65905	1.56438	2.3252	76.3	-0.2471	0.0786	0.3258	1004.8952	0.185961	-424.248172	-424.240607	-424.239663	-424.279696	30.837	
C	-0.0366742689	 1.5305001293	 0.0349591206	-0.429815
C	 0.035700069	 0.0038459777	-0.0103073633	 0.000538
C	 0.9230221092	-0.5814217673	-1.131818438	-0.041954
C	 2.3215726789	-0.2847235256	-0.5642027633	-0.094608
O	 2.1743197605	-0.369122034	 0.8642908432	-0.27221
C	 0.8091742329	-0.6071883911	 1.1679397707	 0.21332
O	 0.5217239705	-1.9864838908	 1.28528077	-0.267231
C	 0.9901082658	-2.7471422238	 0.1734276805	-0.069835
C	 0.659767441	-2.1008424876	-1.1849592864	-0.244469
H	 0.9507816569	 1.9834199917	 0.1615564031	 0.131354
H	-0.4769893643	 1.9283392109	-0.8852794141	 0.114112
H	-0.6598498216	 1.8628537237	 0.8718581728	 0.118817
H	-0.9736558258	-0.414860707	-0.0440449209	 0.07721
H	 0.7640088275	-0.1137121124	-2.107284708	 0.066673
H	 3.0783877133	-1.0073565851	-0.890824249	 0.102115
H	 2.6712591812	 0.7195739432	-0.832668391	 0.100544
H	 0.5981087154	-0.17468304	 2.1486036613	 0.082891
H	 2.0763544263	-2.8843722597	 0.2633406449	 0.106809
H	 0.5236929133	-3.7314962366	 0.2651570301	 0.10648
H	-0.391639408	-2.2728466353	-1.4416550284	 0.102859
H	 1.2665994768	-2.5802224501	-1.9621217947	 0.0964
