20
gdb 96933	3.10586	1.22051	1.14896	2.4785	81.44	-0.2354	0.0301	0.2655	1194.6814	0.171013	-403.154034	-403.145108	-403.144164	-403.188039	33.039	
C	-0.3310376574	 1.3495203027	-0.5100677721	-0.329934
N	-0.2717365203	-0.1003141674	-0.4103702372	-0.321816
C	 0.6976659658	-0.7182962397	-0.9199375738	 0.418552
C	 0.8837291148	-2.2293826511	-0.9089062711	-0.333918
C	 2.1008798055	-2.4684605257	-1.7823049377	-0.105148
C	 2.0733316806	-1.9799827751	-3.2263777512	-0.04453
C	 0.8072925795	-1.6776457928	-3.997161838	-0.422231
C	 2.6111476923	-1.095675248	-2.1328770948	 0.069814
O	 1.7445013613	-0.120792462	-1.5910248289	-0.241656
H	 0.2625314891	 1.7628590217	-1.3338619355	 0.120211
H	-1.3749734129	 1.6547120582	-0.6328210418	 0.118874
H	 0.0264211533	 1.7999840233	 0.4245546124	 0.123947
H	 1.0657293419	-2.5694881846	 0.1154776944	 0.133393
H	-0.0302867723	-2.7203640001	-1.2529165812	 0.135232
H	 2.7788962412	-3.2707103193	-1.5183999986	 0.095275
H	 2.8604623052	-2.4237187131	-3.8323905609	 0.091991
H	 0.0475629476	-1.189709239	-3.3827154678	 0.141193
H	 1.0213304387	-1.0133502674	-4.8408368861	 0.124655
H	 0.3697473593	-2.597718673	-4.3988595396	 0.121562
H	 3.6483904868	-0.7862316076	-2.0913541107	 0.104535
