18
gdb 74569	2.58046	1.6419	1.32789	1.4298	79.53	-0.2242	-0.0301	0.1941	1030.9338	0.14722	-401.940946	-401.932807	-401.931862	-401.973498	30.882	
C	-0.0332349339	 1.5164014694	 0.1459972072	-0.497823
C	-0.0411615199	 0.028053999	 0.0428426677	 0.341817
C	 0.0446431524	-0.7332378795	-1.0529349062	-0.189314
C	 0.0645659878	-2.1668088582	-0.6793481984	-0.078081
C	 1.2293363508	-2.6890245168	 0.1653343679	-0.106016
C	 2.5297518143	-1.9864605807	 0.2432634676	 0.150827
O	 2.7293780131	-0.8580244063	 0.6342166051	-0.282108
N	-0.0413389835	-2.258236419	 0.7761884773	-0.123777
C	-0.1142553914	-0.8597938252	 1.2684352006	-0.251093
H	 0.8667802885	 1.8564680617	 0.672252159	 0.148868
H	-0.0510779581	 1.9902693304	-0.8386248843	 0.126628
H	-0.8945141156	 1.8800730836	 0.7201801316	 0.125502
H	 0.107143852	-0.3820325395	-2.0751054694	 0.097439
H	-0.4645739271	-2.9054637371	-1.277239898	 0.103779
H	 1.3435159317	-3.7720276227	 0.1761003789	 0.10267
H	 3.3752701181	-2.6229780916	-0.1051370649	 0.077427
H	 0.6909712124	-0.6476345371	 1.9764357986	 0.140944
H	-1.0680334216	-0.7396046502	 1.7998470899	 0.112308
