20
gdb 93211	2.78379	1.32225	0.93372	3.7815	83.18	-0.2376	-0.0252	0.2124	1280.4052	0.171885	-403.211893	-403.202853	-403.201909	-403.245422	34.152	
C	-0.0455022597	 1.5762889483	-0.0013910439	-0.401875
C	-0.024922095	 0.042871305	-0.0015335703	-0.027609
C	 0.6488652619	-0.5035062457	-1.2644020072	-0.170113
N	 0.8437479503	-1.9408228936	-1.1502952974	-0.345313
C	 1.3678030804	-2.523380117	-0.0223125414	 0.354118
O	 1.8013663847	-3.6644452569	-0.0229984434	-0.375333
C	 1.3246622798	-1.6851395931	 1.2174366234	 0.195039
C	 1.9971100692	-2.2758789826	 2.4226327549	-0.470797
C	 0.665305158	-0.5203223227	 1.2165633723	-0.15684
H	 0.9711663804	 1.9839067685	-0.0075674011	 0.123404
H	-0.5710239089	 1.9632007402	-0.8804139573	 0.117035
H	-0.5545676094	 1.9591916681	 0.8883264025	 0.120985
H	-1.0674992484	-0.3130935556	 0.0081973961	 0.099531
H	 0.0295093276	-0.3031139981	-2.1440111528	 0.110239
H	 1.6084543123	 0.0198457109	-1.4127517771	 0.101486
H	 1.0052998956	-2.4739711523	-1.9924874194	 0.244073
H	 1.5855042445	-3.2648431186	 2.6460174024	 0.145326
H	 3.0663150315	-2.4268049953	 2.2394527344	 0.136637
H	 1.8776568879	-1.6308584237	 3.2967792806	 0.109863
H	 0.5851331772	 0.0528696343	 2.1391909347	 0.090146
