14
gdb 132020	2.31884	1.86685	1.03653	7.288	69.39	-0.2109	-0.0132	0.1978	1049.3449	0.102189	-478.019237	-478.011559	-478.010615	-478.051186	29.366	
N	 0.084953715	 1.414720979	 0.1443164293	-0.586574
C	 0.0180964915	 0.0248086078	 0.043181702	 0.281914
C	-1.1426772882	-0.6866240623	 0.0263371839	 0.073798
F	-2.2922168042	 0.0079913971	 0.0254410172	-0.087565
C	-1.2082874303	-2.1421455363	-0.0033547131	 0.296071
O	-2.2604957052	-2.7708106414	-0.0207824522	-0.401016
C	 0.1244822426	-2.7553970429	-0.0349199551	-0.252489
C	 1.2566823145	-2.0190682993	-0.0175969851	 0.016782
N	 1.2162152347	-0.6473038225	 0.0124297115	-0.384201
H	 0.6521274822	 1.8460662978	-0.5772071017	 0.255096
H	-0.8438352938	 1.817092731	 0.1375537125	 0.269977
H	 0.1736440614	-3.8362016244	-0.0738106148	 0.117607
H	 2.2503982721	-2.4495168088	-0.0315476671	 0.134204
H	 2.0562539377	-0.120823225	 0.1891024226	 0.266396
