14
gdb 30607	4.70906	1.08122	0.88422	2.3362	67.15	-0.2635	-0.0509	0.2127	1235.8121	0.101495	-473.881035	-473.87311	-473.872166	-473.914431	27.272	
C	-0.0644763572	 1.2965987795	 0.0996643792	-0.243277
O	 0.0219827007	-0.1294879317	-0.0250946994	-0.231968
C	 0.6473287454	-0.5643059035	-1.1315714596	 0.358587
O	 1.1181264827	 0.148747712	-1.9857924166	-0.37375
C	 0.701244581	-2.0271731055	-1.1978871072	 0.220756
C	 1.2336806564	-2.863936339	-2.1303463173	-0.141714
N	 1.0300972755	-4.1735810477	-1.7406321191	-0.256105
C	 0.3966977696	-4.0675365242	-0.6131975412	 0.081034
O	 0.1562433434	-2.806830082	-0.2100228893	-0.160631
H	 0.933493298	 1.7407899243	 0.1306904168	 0.145371
H	-0.6137024891	 1.7235123416	-0.7430896244	 0.145494
H	-0.594226674	 1.4779284959	 1.0343545557	 0.138717
H	 1.7427747999	-2.602481426	-3.0435616181	 0.155894
H	 0.0446592276	-4.8585326036	 0.0307323503	 0.161591
