17
gdb 29320	3.25023	1.26654	0.92179	1.5732	87.79	-0.2076	-0.0124	0.1952	1246.0497	0.134067	-384.703855	-384.694724	-384.69378	-384.737511	33.523	
C	 0.0069706614	 1.5243894321	-0.0362500121	-0.504725
C	 0.0044889735	 0.0283990893	 0.0043736464	 0.205206
C	-0.0258292261	-0.8296163892	-1.0525538169	-0.135148
O	-0.0175294936	-2.1208794755	-0.6462286096	-0.184801
C	 0.0189558522	-2.0983142494	 0.7252428041	 0.160716
C	 0.0343494765	-3.325941092	 1.4084984805	 0.265177
C	 0.0483075465	-4.367102329	 2.0158912875	-0.441399
C	 0.034147242	-0.8026064928	 1.1768291979	 0.036703
C	 0.0737392315	-0.3525055741	 2.601211205	-0.520296
H	 0.9033661681	 1.9388579001	 0.4396177396	 0.131558
H	-0.0228883724	 1.8916508365	-1.0656324349	 0.127304
H	-0.8573887871	 1.9431285549	 0.4922029385	 0.131515
H	-0.0542548077	-0.6747314005	-2.1195077814	 0.134235
H	 0.0606844221	-5.2862629844	 2.5471168869	 0.192145
H	 0.9642858378	 0.2536326155	 2.8055970209	 0.130959
H	-0.7967403098	 0.2657393217	 2.8506314428	 0.130847
H	 0.085305265	-1.2095758333	 3.278653895	 0.140004
