20
gdb 32748	3.00776	1.10518	0.85384	1.99	83.31	-0.1882	0.0557	0.2439	1401.8602	0.170236	-403.183793	-403.17402	-403.173076	-403.219438	35.188	
C	 0.1909281146	 1.4982865621	 0.0647992125	-0.387001
C	-0.1035151961	 0.114345667	 0.6119755871	-0.05417
O	 1.1082628586	-0.6551659266	 0.5481752183	-0.280834
C	 1.0171968064	-1.9176943515	 1.0390524717	 0.273472
C	 1.2358827569	-2.4090438249	 2.3063578613	 0.182842
C	 1.6054000178	-1.6010003596	 3.512503849	-0.510459
C	 1.049535187	-3.8245622199	 2.217781768	-0.23635
C	 0.7304096098	-4.1382235529	 0.9195997649	-0.08944
N	 0.7016662512	-2.9651866523	 0.2029094739	-0.296282
H	 0.5381607525	 1.4382272093	-0.9706521648	 0.126391
H	-0.7115138628	 2.1161035281	 0.0935651119	 0.118477
H	 0.9676055988	 1.9887216347	 0.6582277404	 0.131042
H	-0.4495076702	 0.161737999	 1.6526925751	 0.10659
H	-0.887107963	-0.3848266359	 0.0243502695	 0.093875
H	 0.8048283987	-1.5813049344	 4.2623933793	 0.118156
H	 2.4967668942	-2.0022241383	 4.0082588242	 0.122189
H	 1.8228236756	-0.5669633523	 3.2291461072	 0.122362
H	 1.1453211211	-4.52935205	 3.0305167332	 0.086954
H	 0.5275513006	-5.0848027125	 0.4458708048	 0.113628
H	 0.5718620684	-2.874248369	-0.7893883175	 0.258558
