13
gdb 43656	3.13722	1.32758	1.05069	4.1806	68.72	-0.2825	-0.047	0.2355	1095.5389	0.088472	-452.71836	-452.710615	-452.70967	-452.751448	28.284	
N	 0.0289642918	 1.2079290178	-0.2972313803	-0.494734
C	 0.0105750882	-0.0111891431	 0.0043511734	 0.347155
O	 1.0829355939	-0.7620931493	 0.4127475736	-0.234393
C	 0.6704452106	-2.113593462	 0.6113638523	 0.011818
O	-0.741974324	-2.1490548564	 0.4114556216	-0.234404
C	-1.1780160775	-0.9144940326	 0.003608048	 0.347163
N	-2.3572619177	-0.605642655	-0.2989286388	-0.494728
C	 1.3561977994	-3.0150245577	-0.3082927239	 0.343211
C	 1.9313614292	-3.7712120131	-1.041011334	-0.433326
H	 0.9703853	 1.594624058	-0.2143233387	 0.239776
H	 0.8768062958	-2.3861012955	 1.6526042577	 0.141529
H	-2.9819535086	-1.4092309706	-0.2171545655	 0.239777
H	 2.4380801189	-4.4372449805	-1.6964927353	 0.221156
