18
gdb 75336	2.59827	1.66341	1.14392	3.4674	79.37	-0.2341	-0.0427	0.1915	1089.1858	0.148959	-401.966635	-401.958645	-401.957701	-401.99913	30.67	
C	-0.3198405792	 1.4894303821	 0.0407991277	-0.477833
C	-0.0171824647	 0.0186276759	-0.0306182451	 0.206176
C	-0.024055096	-0.6831183728	-1.1744484055	-0.132193
C	 0.2106061307	-2.1607942378	-1.3036608506	-0.276251
C	 0.8118280517	-2.7968389361	-0.0700346721	-0.040926
N	 2.0486002179	-2.1862271276	 0.4144065147	-0.33092
C	 0.8056832726	-2.0436607859	 1.2184516229	-0.152111
C	 0.2278815934	-0.6620217009	 1.2675150075	 0.375421
O	-0.0451879061	-0.1396290912	 2.3328150534	-0.339762
H	 0.5337155666	 2.0448206183	 0.4448838478	 0.137122
H	-0.5630000705	 1.8932633857	-0.9450743745	 0.112609
H	-1.1560603119	 1.6754736515	 0.7215700629	 0.143865
H	-0.2480768824	-0.1620254647	-2.1039479762	 0.096245
H	-0.7430920988	-2.6537782575	-1.5432225118	 0.121447
H	 0.8643949498	-2.3516991806	-2.1655846263	 0.12354
H	 0.7220856678	-3.8789425529	-0.0067205287	 0.093115
H	 2.638430113	-2.8890464841	 0.8528074228	 0.240574
H	 0.7356752462	-2.5814679614	 2.158957371	 0.099883
