19
gdb 10656	2.18428	1.99551	1.2494	2.2389	73.28	-0.2554	-0.0328	0.2226	1048.5825	0.163787	-365.06151	-365.052418	-365.051474	-365.095163	32.725	
C	 0.6317917919	 1.5075014445	 0.4187335683	-0.378648
C	-0.1254258245	 0.2178955665	 0.0769341963	-0.27453
C	 0.3508539309	-0.4024120037	-1.2215614244	 0.228418
N	 1.7071342829	-0.9789361461	-1.2639543903	-0.361933
C	 0.5803316976	-1.8877783032	-1.4201666421	-0.025159
C	 0.3423776099	-2.91988407	-0.3462230978	-0.405207
C	-0.0801890834	 0.2889384764	-2.4741955387	 0.101908
O	 0.4929841862	 0.1781147087	-3.5338680241	-0.277131
H	 1.7037629044	 1.3058160027	 0.4964697848	 0.14004
H	 0.4902357989	 2.2745408894	-0.3510654622	 0.115709
H	 0.2884631772	 1.9248178989	 1.3698155763	 0.115002
H	-0.0118505462	-0.4989785111	 0.8935496822	 0.109667
H	-1.2014206696	 0.4221700042	-0.0070338539	 0.099096
H	 2.0988003582	-0.7656001913	-2.1823938168	 0.244593
H	 0.377894122	-2.231305546	-2.433930251	 0.10299
H	 0.6486881419	-2.5558423696	 0.6361328831	 0.133433
H	-0.711949839	-3.2126360682	-0.3053613458	 0.121451
H	 0.9311780782	-3.8175919125	-0.5638215624	 0.129186
H	-0.9877306875	 0.9240580003	-2.3775324513	 0.081116
