27
gdb 118957	2.2273	0.98922	0.93462	0.0823	96.06	-0.2731	0.081	0.3541	1543.4428	0.250972	-353.563584	-353.552661	-353.551717	-353.599136	41.608	
C	-0.0585835037	 1.5405018421	 0.4496417547	-0.378475
C	 0.0206769023	 0.0510582431	 0.0999374016	-0.180328
C	-1.3546269168	-0.6316192622	 0.1236265798	-0.214566
C	-1.3420176055	-2.1573570311	-0.0815015186	 0.328208
C	-0.6952478353	-2.5492466654	-1.4086842046	-0.464665
C	-0.8250744812	-2.9138146102	 1.1875381155	-0.254868
C	-2.2918610476	-3.1369921433	 1.634956456	-0.235685
C	-2.7491168103	-2.8169057797	 0.1876325159	 0.020729
C	-4.0461519968	-2.051178949	-0.0354275684	-0.418961
H	 0.9287672621	 2.0121073524	 0.4182635135	 0.108947
H	-0.7063059561	 2.0781781494	-0.2520326828	 0.112518
H	-0.4678995631	 1.6904853274	 1.4550513844	 0.111915
H	 0.4759605045	-0.060667374	-0.8908020465	 0.09836
H	 0.6962843229	-0.4517579505	 0.8036624962	 0.096908
H	-1.8354681357	-0.4008103832	 1.0836615812	 0.087783
H	-1.9887014905	-0.1711597545	-0.6467026196	 0.089087
H	 0.3619200021	-2.2668694063	-1.4500514387	 0.114454
H	-0.7503874808	-3.6323392342	-1.5618612066	 0.105163
H	-1.1997933814	-2.0670748025	-2.2553854354	 0.107411
H	-0.3279455988	-3.8523228958	 0.9243806116	 0.092255
H	-0.1717845258	-2.3597451337	 1.8670773595	 0.090473
H	-2.5551168568	-4.1173072338	 2.0402834103	 0.090033
H	-2.6262179225	-2.374727356	 2.3460487733	 0.096181
H	-2.7910785207	-3.7521802164	-0.3842001653	 0.062655
H	-4.0742964395	-1.116568812	 0.533582786	 0.112856
H	-4.1942776443	-1.8035375176	-1.0929024872	 0.111251
H	-4.9044353808	-2.6541141729	 0.2824756643	 0.11036
