16
gdb 15535	3.52222	1.94151	1.28133	2.8498	68.74	-0.2391	-0.015	0.2241	921.6476	0.13147	-379.970592	-379.962791	-379.961847	-380.003545	27.421	
C	-0.0386718585	 1.509157271	-0.0454866803	-0.461523
C	-0.0141581719	 0.0162034067	-0.0572811933	 0.381555
N	-0.0366666128	-0.6868458672	-1.120511573	-0.281854
C	-0.0018141781	-2.1053409382	-0.7494917161	-0.175002
C	 0.0522036858	-2.160832331	 0.8020229346	-0.203609
N	 0.0370743511	-0.7299862339	 1.1463075346	-0.116519
C	 0.0672169255	-0.2665252605	 2.4354921671	 0.146069
O	 0.0550340005	 0.8941615224	 2.7806137949	-0.319446
H	 0.8447314936	 1.9092749877	 0.4579703099	 0.153856
H	-0.0762082928	 1.8569514077	-1.0781030549	 0.140053
H	-0.9024418833	 1.8801257184	 0.5115341479	 0.154049
H	-0.887853959	-2.6106209313	-1.1479584238	 0.122141
H	 0.8700146625	-2.5834783764	-1.208111936	 0.122157
H	-0.8103731727	-2.6740764502	 1.2375074724	 0.127114
H	 0.9615389886	-2.6404299398	 1.1765983348	 0.127074
H	 0.1029421416	-1.1046537753	 3.1591027711	 0.083885
