20
gdb 81445	2.59449	1.68446	1.36339	1.8403	77.82	-0.2364	0.0752	0.3116	1030.6111	0.172491	-403.098324	-403.090593	-403.089649	-403.130205	31.2	
C	-0.1973936835	 1.628681421	-0.0245083929	-0.429641
C	 0.0250769801	 0.1265090651	 0.0199872272	 0.031507
C	 1.1805749547	-0.5975115746	-0.7245604117	 0.056442
C	 2.4735651085	 0.0973538082	-0.2408908729	-0.330502
C	 2.1162090265	 0.0885024232	 1.2600798402	 0.391632
C	 3.0734753271	-0.0683418553	 2.37071174	-0.315063
N	 2.3239218806	 1.1979746864	 2.1928693454	-0.378145
C	 0.7538905576	-0.5987876095	 1.1820600784	-0.003549
O	 1.0548032488	-1.6857200414	 0.2460825647	-0.300397
H	 0.7036204137	 2.1971026091	 0.2151472855	 0.122504
H	-0.5417040738	 1.9368691936	-1.0179911119	 0.115266
H	-0.9672601241	 1.9226174881	 0.6962654805	 0.126113
H	-0.899862547	-0.4168819329	-0.1903821294	 0.086281
H	 1.1154211847	-0.9146491987	-1.7656654593	 0.0775
H	 3.3557303163	-0.502470274	-0.4761145608	 0.113994
H	 2.6079332265	 1.1035299002	-0.6512641999	 0.099593
H	 2.8029243579	-0.638515427	 3.2558424275	 0.119116
H	 4.1342311689	-0.0807558104	 2.1325437996	 0.110944
H	 2.9317556774	 1.8988528875	 1.7750338071	 0.228293
H	 0.2706887391	-0.9075670087	 2.1086054326	 0.078111
