20
gdb 120837	3.98844	0.62183	0.57166	3.9404	77.3	-0.2402	-0.0224	0.2179	1905.8728	0.168065	-440.247398	-440.237097	-440.236153	-440.284368	35.572	
O	-4.9366571579	-0.0275113989	-0.6239759985	-0.41961
C	-4.2126539854	-1.1985632925	-0.2841928609	-0.075792
C	-2.8429437325	-1.1016850142	-0.9498969416	-0.201007
C	-1.9665693202	-2.2864494561	-0.6015328482	 0.011917
C	-1.9444126575	-3.5134626026	-1.4517944444	-0.257783
N	-0.770436154	-2.6480561904	-1.3631453557	-0.106743
C	-0.3911269468	-1.8840463108	-2.5391767984	-0.231575
C	 0.7527956158	-2.5850423136	-3.2583425565	 0.158259
O	 0.9727209452	-2.4823716019	-4.4363095605	-0.239443
H	-5.8051371226	-0.0795309098	-0.2145518333	 0.288121
H	-4.089828591	-1.2910975998	 0.8074488371	 0.08826
H	-4.7289848309	-2.1074837216	-0.6319478518	 0.091897
H	-2.9907231917	-1.0204529398	-2.0309125031	 0.111635
H	-2.3679338767	-0.1690208131	-0.620744699	 0.11414
H	-1.8233698963	-2.4230463598	 0.4707108901	 0.093389
H	-1.8440778646	-4.5025400515	-1.0130273917	 0.119083
H	-2.5259086135	-3.4814240681	-2.3732600779	 0.113825
H	-1.1921549292	-1.6944911114	-3.2682800446	 0.11769
H	-0.0061106842	-0.9058519436	-2.2147346986	 0.134489
H	 1.3900370337	-3.2003609905	-2.5853142525	 0.089249
