21
gdb 40291	2.51057	1.56885	1.18387	0.8669	78.36	-0.2402	0.0774	0.3176	1116.5544	0.184109	-424.199964	-424.191617	-424.190673	-424.23311	32.343	
C	-0.314104732	 1.4250179175	 0.0574781497	-0.284818
C	 1.110764191	 0.9487965905	-0.0423549186	-0.333906
C	-0.0187153678	-0.0547958232	 0.0562800086	 0.324453
C	-0.1491577304	-0.8173550865	 1.3602677949	-0.139909
O	-1.4673764543	-1.0089044641	 1.8579406275	-0.26455
C	-2.5385960844	-1.1192949502	 0.9364785029	-0.061778
C	-2.281382646	-1.9188297535	-0.343657292	-0.097503
O	-1.7001716857	-1.1544640474	-1.383069886	-0.239065
C	-0.3297892583	-0.853328161	-1.1978995962	-0.156126
H	-0.6412559646	 1.8718021811	 0.9900525614	 0.122053
H	-0.7794521146	 1.8477661512	-0.8264868697	 0.120005
H	 1.618697296	 1.0459439683	-0.9962137945	 0.11408
H	 1.7601501504	 1.0732192296	 0.8175493573	 0.115042
H	 0.3475341439	-1.7951597551	 1.244195775	 0.087681
H	 0.3787398873	-0.283726949	 2.1579276836	 0.10089
H	-3.3426518336	-1.6061934631	 1.5003275164	 0.102701
H	-2.8980605063	-0.1244209332	 0.6319623853	 0.100787
H	-1.6800964611	-2.8164294597	-0.1224600504	 0.093734
H	-3.2481064358	-2.2531326842	-0.7350502458	 0.109542
H	-0.0370965611	-0.2879691177	-2.0881011769	 0.10036
H	 0.2606512774	-1.7865926003	-1.1825862627	 0.086328
