20
gdb 111616	2.56992	1.58555	1.30666	1.8914	76.86	-0.218	0.0682	0.2862	1051.5324	0.173466	-403.09001	-403.082221	-403.081277	-403.122137	31.278	
O	 0.6140785886	 0.1845556831	-1.4003751562	-0.421754
C	 0.0260459259	 0.2751587231	-0.109146454	-0.096288
C	-1.2937364216	-0.464502061	-0.0089935468	-0.034572
C	-1.5191257419	-1.9348911519	-0.19421391	-0.065056
C	-0.4653720202	-3.0165012472	-0.0965530816	-0.048917
C	 0.9924196937	-2.7291990222	 0.198724184	-0.324639
C	 0.038015031	-3.0030609453	 1.3323456565	-0.032344
C	-0.6980625155	-1.858461571	 2.0413024022	-0.194992
N	-1.7319739696	-1.3037675131	 1.1285081772	-0.123696
H	 0.5472473695	-0.7343735899	-1.6799960416	 0.28963
H	 0.7272003388	-0.0423283286	 0.6729784537	 0.092416
H	-0.157116061	 1.3415109607	 0.0568570564	 0.112241
H	-2.1226794703	 0.150859039	-0.3588348541	 0.09694
H	-2.4198233204	-2.233805323	-0.7266335003	 0.091185
H	-0.7027991244	-3.94691318	-0.5992208759	 0.092078
H	 1.6835827275	-3.5318543586	-0.0404324185	 0.114843
H	 1.41703577	-1.7485718929	 0.0413173879	 0.13336
H	 0.169656906	-3.9259122304	 1.8873370979	 0.091733
H	-1.2293885494	-2.2612053009	 2.9093363598	 0.114972
H	-0.0318300268	-1.0740866899	 2.4161747034	 0.11286
