15
gdb 28114	5.28113	1.30185	1.05124	4.0337	75.55	-0.194	0.0076	0.2016	1088.1774	0.115187	-416.85498	-416.847768	-416.846824	-416.886879	27.322	
C	-0.0201304617	 1.4665333209	-0.0007969624	-0.501551
C	-0.0015557301	-0.0242025809	-0.0266935649	 0.317103
N	-0.0484230817	-0.769048656	-1.1235413717	-0.388586
C	-0.0055978758	-2.0299903439	-0.6324109723	 0.358884
C	 0.0666418991	-2.1051089024	 0.7357245806	 0.265284
N	 0.0691472573	-0.7824037149	 1.1309180076	-0.439931
C	 0.1031896899	-3.4898513719	 1.0770490889	-0.33963
C	 0.0489650849	-4.1291103478	-0.1323247815	-0.011654
O	-0.0183219819	-3.2597343334	-1.1969282165	-0.199676
H	 0.8864202155	 1.8793455035	 0.4576419934	 0.132756
H	-0.0832961445	 1.8304056744	-1.0267153709	 0.161981
H	-0.879542824	 1.8555466653	 0.5581547775	 0.13255
H	 0.1127880017	-0.4161973978	 2.0660409049	 0.263902
H	 0.1598658062	-3.9691301759	 2.0410838502	 0.113069
H	 0.0494951552	-5.1733493393	-0.3959546529	 0.1355
