13
gdb 132095	3.01921	1.46341	0.99173	2.4312	67.1	-0.2449	-0.0916	0.1534	1079.0287	0.087628	-497.896612	-497.889034	-497.88809	-497.929034	27.583	
C	 0.0909885692	 1.5065772768	 0.0361064641	-0.481116
C	-0.0343286924	 0.0246618177	-0.0019005314	 0.232541
C	-1.1667348519	-0.6921030814	-0.1962235436	 0.220949
F	-2.3326179348	-0.073530761	-0.380096862	-0.068092
N	-1.2077074045	-2.0418710489	-0.2190203197	-0.236488
C	-0.1000935701	-2.6866196223	-0.0450139886	-0.125453
C	 1.1957931647	-2.0413623574	 0.1752762074	 0.392395
O	 2.2555199172	-2.5767967149	 0.3427764518	-0.326158
O	 1.127739426	-0.6463798471	 0.1807440604	-0.238912
H	 0.7812426041	 1.8517426375	-0.7411369708	 0.158644
H	-0.8836002156	 1.9695981464	-0.1183420598	 0.158007
H	 0.4956630436	 1.8312877731	 1.0007173158	 0.15864
H	-0.1042068956	-3.7724236186	-0.0586177836	 0.155044
