16
gdb 30620	4.43313	1.04825	0.85227	2.5955	73.57	-0.215	-0.0213	0.1937	1300.679	0.125571	-434.103482	-434.094782	-434.093837	-434.139053	30.212	
C	-0.082243098	 1.3576468557	 0.0799440533	-0.308372
N	 0.0266912057	-0.0729129871	-0.0858547552	-0.301359
C	 0.6671707054	-0.6237787059	-1.1512204222	 0.260263
N	 1.2024296764	 0.1185044269	-2.0561766711	-0.565916
C	 0.6636394219	-2.1052649068	-1.12736925	 0.242777
C	 1.1944576714	-2.9949035379	-2.0055891411	-0.11476
O	 0.9325489974	-4.2539662323	-1.5516715618	-0.137654
C	 0.2456244194	-4.0623834575	-0.4035375614	 0.070941
N	 0.0536068335	-2.8242424592	-0.0969651706	-0.322656
H	 0.9071101917	 1.8255911745	 0.1389645793	 0.136937
H	-0.6071319652	 1.8150946938	-0.7665051379	 0.137003
H	-0.6333047596	 1.5667997139	 0.9990673737	 0.115459
H	-0.3715717666	-0.7022310968	 0.5894083163	 0.261817
H	 1.6386756995	-0.4478634099	-2.7796754599	 0.202883
H	 1.7443101673	-2.92316481	-2.9273757552	 0.161762
H	-0.0669723303	-4.9456101314	 0.1307218138	 0.160876
