17
gdb 67809	2.40977	1.95771	1.61128	2.0199	71.97	-0.2196	0.0143	0.2339	909.2263	0.135792	-421.783273	-421.775741	-421.774797	-421.814536	30.764	
O	-0.2024594883	 1.3100972525	-0.1271874703	-0.493761
C	-0.0220490343	-0.073571702	-0.0858967296	 0.278806
C	 0.9653759454	-0.7641838539	-0.9628543368	-0.158187
C	 0.5463946376	-2.0189908548	-1.1715233406	-0.087865
C	-0.6881371803	-2.2803950849	-0.3363581508	-0.165001
C	-0.2347745227	-2.274606197	 1.1855537801	-0.226074
C	-0.5110678552	-0.7825495584	 1.233923441	-0.215107
C	-1.2894498752	-0.863042587	-0.0677912382	 0.391292
O	-2.5190983818	-0.4054191952	-0.4685328687	-0.474731
H	 0.3449638523	 1.7218519842	 0.5488372186	 0.291405
H	 1.8740327931	-0.3026971941	-1.3290261402	 0.096266
H	 1.0788844829	-2.7925313233	-1.7110457742	 0.098294
H	-1.3444354426	-3.0918128417	-0.6446546554	 0.081757
H	-0.9532902864	-2.8167216631	 1.8057270677	 0.109376
H	 0.7791622449	-2.6352402041	 1.3858350625	 0.092203
H	-0.6668264355	-0.1693038795	 2.1147059514	 0.084776
H	-2.4250483238	 0.5429772323	-0.6305079065	 0.29655
