18
gdb 108355	2.72973	1.60929	1.29749	1.4441	70.54	-0.2427	0.0404	0.2831	1015.1208	0.148383	-438.994067	-438.986519	-438.985575	-439.026091	29.812	
O	-0.0007405017	 1.3857791889	-0.2586301977	-0.41991
C	 0.048477108	-0.0031914639	 0.0077531624	-0.148289
C	-1.3505681645	-0.5546445905	 0.1344630302	 0.298369
C	-2.150041583	-0.4360979485	 1.441834502	-0.138546
O	-2.5842393579	-1.8218622257	 1.330138675	-0.300138
C	-1.7720155853	-2.0266359778	 0.1520169962	 0.032481
C	-2.4757347221	-1.7888770802	-1.1947569147	-0.043118
C	-3.4881683456	-0.727078132	-1.0886869488	-0.253427
N	-2.0774484096	-0.3096390573	-1.189220194	-0.202403
H	-0.5748643216	 1.4766371256	-1.0310917331	 0.293859
H	 0.5837611428	-0.549217219	-0.7856532302	 0.091434
H	 0.6054195791	-0.134969645	 0.9411136568	 0.108899
H	-1.5203586956	-0.2879605648	 2.3277402294	 0.11073
H	-2.987689813	 0.2688067302	 1.4722567552	 0.113853
H	-1.0988735083	-2.8827560449	 0.230000523	 0.086839
H	-2.3462349152	-2.4036361287	-2.0799171455	 0.100533
H	-4.0451750295	-0.4815135188	-1.9875920271	 0.12742
H	-4.0413336671	-0.6070466578	-0.1640206389	 0.141412
