19
gdb 96223	2.29729	1.65394	1.10132	2.9836	79.45	-0.2404	-0.0537	0.1866	1129.0789	0.159863	-423.046615	-423.038141	-423.037196	-423.080186	31.884	
C	-0.3603596758	 1.5135190832	-0.2294559218	-0.388412
C	 0.0238332788	 0.0465664213	 0.0468067971	-0.084937
C	 0.8678678898	-0.5366699406	-1.0863262283	-0.121807
O	 2.0472995465	 0.2178636591	-1.3179896125	-0.236428
C	 3.1861581986	-0.2474089006	-0.6468830364	-0.134224
C	 3.1178664224	-0.3605267742	 0.8457047918	-0.051525
C	 2.0834443717	-0.2710023846	 1.6912939184	-0.148822
C	 0.6349901249	-0.0551537199	 1.4478070663	 0.35337
O	-0.0995964826	 0.04187391	 2.4146959521	-0.337374
H	 0.5333145555	 2.1341150571	-0.3323317962	 0.132391
H	-0.9323826308	 1.5882895346	-1.1598529676	 0.113408
H	-0.9714974847	 1.9020651843	 0.5878862842	 0.136364
H	-0.9022035879	-0.5393123913	 0.1064171834	 0.100033
H	 1.1146717507	-1.5916315379	-0.8962986733	 0.096984
H	 0.2892127421	-0.4956664975	-2.0162545743	 0.111229
H	 3.4989064515	-1.234765704	-1.0401995726	 0.109562
H	 3.9947178479	 0.4480023953	-0.9068264042	 0.130675
H	 4.0951012725	-0.5651045314	 1.2842050231	 0.111095
H	 2.2820695288	-0.3790582529	 2.754575991	 0.108418
