14
gdb 21176	7.22608	1.27921	1.09778	3.0386	61.88	-0.2063	0.0284	0.2347	1026.3214	0.107696	-415.852228	-415.844682	-415.843738	-415.884153	27.404	
C	-0.1282942386	 1.4614389181	-0.0892950764	-0.330724
N	-0.0115120256	 0.0234854971	 0.1097258158	-0.390781
C	-1.1129246739	-0.779914677	 0.0783758606	 0.566345
C	-1.2670034966	-2.1384900873	-0.0228465972	-0.496418
C	-2.6705520475	-2.2907321758	 0.0767844254	 0.491379
O	-3.3192669329	-3.4658500253	 0.0341811659	-0.423147
N	-3.3239125391	-1.1608473266	 0.2187840407	-0.284679
O	-2.3012918404	-0.1735788113	 0.2146923521	-0.22756
H	 0.8455867547	 1.9172572064	 0.0996978201	 0.130483
H	-0.4587188511	 1.7322348118	-1.101363262	 0.129814
H	-0.8457210748	 1.871188691	 0.6240434754	 0.161107
H	 0.8237477033	-0.40730318	-0.2527697347	 0.25482
H	-0.5174021952	-2.9010765934	-0.1374367646	 0.110873
H	-4.2628514424	-3.2764878777	 0.1246495388	 0.308487
