18
gdb 45163	2.89698	1.78835	1.53668	3.4212	74.81	-0.2354	-0.0205	0.2149	921.1762	0.151463	-401.972895	-401.966416	-401.965472	-402.003654	27.031	
O	 0.0204055697	 0.0136369711	-0.4294924779	-0.3355
C	-0.0094138205	 1.169678141	-0.0708034562	 0.41714
C	-1.3083505176	 1.9331447473	 0.1795120358	-0.330117
C	-1.0001278678	 3.3617303179	 0.6452641892	-0.062026
C	-0.1062330318	 3.2980769319	 1.9033370967	-0.239536
C	 1.2461714724	 2.9579104582	 1.2950520415	-0.032291
C	 1.2406086882	 1.9507963949	 0.1742134487	-0.13649
N	 1.2953391481	 3.4155819459	-0.0942799952	-0.112169
C	-0.035882404	 3.9981053096	-0.3771663959	-0.163819
H	-1.8922813902	 1.9254232234	-0.7481438802	 0.129812
H	-1.8928286989	 1.3762863834	 0.9211305023	 0.129111
H	-1.912599949	 3.9417139839	 0.7977995983	 0.078453
H	-0.0506550228	 4.2697948871	 2.4058300974	 0.111081
H	-0.4508892364	 2.5616138309	 2.6357840236	 0.111417
H	 2.1512720346	 3.066932672	 1.8846008469	 0.102697
H	 2.1568087295	 1.4207730721	-0.0652771313	 0.107322
H	-0.3202288489	 3.809677476	-1.4170286207	 0.112926
H	 0.0489456153	 5.0807326433	-0.237321753	 0.111991
