16
gdb 19125	3.35312	1.79032	1.35038	1.6254	70.68	-0.2599	0.0253	0.2851	931.8485	0.128728	-346.529839	-346.522062	-346.521118	-346.561918	29.405	
C	-0.1632177296	-1.275446458	 0.5710995572	-0.413177
C	-0.1040794808	-0.105949426	 0.3005065074	 0.297067
C	-0.0836414541	 1.3012048582	-0.0319845862	 0.185275
C	 0.7093625741	 2.2208368242	 0.8122334388	-0.209001
O	 1.1895459653	 1.8137090917	-0.4672735438	-0.263354
C	-1.279757347	 1.7976162828	-0.7984781162	-0.083816
C	-1.1849505578	 3.0544459278	-1.6208614414	-0.27927
C	-1.2828036675	 1.7128917213	-2.3037293432	-0.25374
H	-0.2028432386	-2.3094864765	 0.810331595	 0.197785
H	 0.3932408532	 3.2602104267	 0.8846103638	 0.119347
H	 1.2600721567	 1.8260454546	 1.6634956456	 0.124215
H	-2.2213359628	 1.5977052321	-0.2961599952	 0.096337
H	-2.044963466	 3.7141602746	-1.639333595	 0.109754
H	-0.2226084225	 3.551366762	-1.6575520696	 0.129861
H	-0.3848190837	 1.3363965063	-2.7805163256	 0.12891
H	-2.2081402088	 1.4421254381	-2.7989972016	 0.113808
