17
gdb 17452	4.81962	1.54771	1.40302	2.5409	68.23	-0.2182	0.0697	0.2879	932.7683	0.141144	-363.768531	-363.76112	-363.760175	-363.799565	29.311	
C	-0.0580242403	 1.4414823515	-0.0830305185	-0.417299
C	-0.0159158786	-0.0682948272	-0.0842466793	 0.016342
C	 0.7827695062	-0.7718966377	-1.1131581578	-0.131807
N	 1.3021404133	-0.6272852149	 0.2947214209	-0.151854
C	 1.2526439026	-2.1396603967	 0.4129033406	-0.061809
C	-0.0605828423	-2.8383254766	 0.1083897536	-0.374591
C	 0.8025801968	-2.3160497988	-1.0065423064	 0.383423
O	 1.3557254534	-3.1063555833	-1.9938680975	-0.452543
H	 0.8780229063	 1.8552947424	-0.4674284493	 0.13052
H	-0.8827175491	 1.8051865293	-0.705087411	 0.116304
H	-0.2021465808	 1.8204878214	 0.9336779132	 0.125883
H	-0.9125454189	-0.5367459948	 0.3084105266	 0.085464
H	 1.2806938793	-0.260773453	-1.9326368484	 0.098186
H	 2.0391472291	-2.6138269018	 0.9852604691	 0.111546
H	 0.0363559905	-3.9140008268	 0.2273781017	 0.12053
H	-1.0443120589	-2.4588925146	 0.3629683372	 0.114403
H	 0.6494454515	-3.3910099782	-2.5850259547	 0.287303
