19
gdb 113873	5.52761	0.57242	0.56268	2.0433	81.53	-0.2486	0.0514	0.3	2006.3145	0.156358	-422.974067	-422.963487	-422.962543	-423.01258	35.927	
C	-0.1594942992	 1.358532655	-0.5160487539	-0.496893
C	-0.0564719051	-0.037058406	-0.1144810562	 0.096417
C	 0.0365776537	-1.1917756303	 0.2119618557	 0.042688
C	 0.1175116434	-2.5941923842	 0.6102679797	-0.390971
C	-1.2392321101	-3.2819535475	 0.5679723002	 0.073659
O	-1.680843508	-3.8060412543	-0.6842084178	-0.262098
C	-1.4428189203	-4.7292359303	 0.3952368496	 0.025506
C	-0.3558565578	-5.7463019021	 0.148610451	-0.082343
O	-0.7796929489	-6.7130038484	-0.7978992617	-0.419186
H	 0.6485713016	 1.6350119689	-1.2022763384	 0.148828
H	-1.1083896025	 1.554696968	-1.0272800066	 0.150354
H	-0.1038815665	 2.0291307598	 0.3485710255	 0.146632
H	 0.8206052262	-3.1272617305	-0.0373759107	 0.135813
H	 0.5117080372	-2.6683133393	 1.6334796927	 0.131953
H	-2.0141309317	-2.7393512243	 1.1119281365	 0.101029
H	-2.3582167099	-5.1590760256	 0.8064448492	 0.098437
H	 0.5723213042	-5.2541519396	-0.1720026446	 0.091851
H	-0.1432879544	-6.2945647507	 1.0730440728	 0.114345
H	-1.0300018917	-6.2294422286	-1.593550683	 0.293977
