14
gdb 29112	3.16316	1.43533	0.98732	5.9445	69.61	-0.194	-0.0253	0.1686	1095.2685	0.102794	-470.057643	-470.049805	-470.048861	-470.089885	29.847	
O	-0.1185677296	 1.3660185211	 0.0924396522	-0.425036
C	 0.0711059037	 0.028237219	-0.0259362911	 0.438426
C	 1.2177490683	-0.6502642258	 0.1427649643	-0.218214
N	 1.1970242641	-2.0481009038	-0.0285251806	-0.364936
C	 0.0985833879	-2.7887523848	-0.3558765951	 0.378069
O	 0.1181475303	-3.9988379197	-0.495795262	-0.380258
C	-1.1844891055	-2.0014691084	-0.5411612561	 0.274623
N	-2.2940269068	-2.542848174	-0.8470748389	-0.519171
N	-1.0892890849	-0.6308523691	-0.3571893974	-0.394332
H	 0.7154892019	 1.7870287058	 0.3235611389	 0.31233
H	 2.1598662414	-0.1948196665	 0.4024121023	 0.120424
H	 2.0496470358	-2.5739682337	 0.0942669808	 0.262935
H	-2.1327727453	-3.5483338649	-0.9318346022	 0.242813
H	-1.9353449813	-0.0919943655	-0.4771581851	 0.272328
