19
gdb 126168	4.09676	0.98302	0.82349	3.8872	77.81	-0.229	0.0283	0.2573	1399.7926	0.160307	-419.231566	-419.222442	-419.221498	-419.266341	33.259	
C	-0.0198287381	 1.5887632137	 0.0088011595	-0.40842
C	-0.0385188984	 0.0802417605	 0.2658529483	-0.163705
C	-1.3626842912	-0.583154627	-0.1424625107	-0.026748
O	-1.6193849709	-0.4422918881	-1.5425093721	-0.445407
C	-1.3717476546	-2.0575946239	 0.1419082513	 0.407822
C	-1.0161166799	-2.8104548505	 1.2468641901	-0.326174
C	-1.2915476099	-4.1424822062	 0.8724050902	-0.004181
N	-1.7763468724	-4.2232349406	-0.364362668	-0.237399
N	-1.8195354912	-2.943761651	-0.7787204013	-0.23663
H	 0.9262472762	 2.030338965	 0.3338599942	 0.124935
H	-0.1307158645	 1.8121087483	-1.0577452878	 0.115055
H	-0.8260911832	 2.0984550984	 0.5496529571	 0.115289
H	 0.7723388637	-0.4106132086	-0.2832433686	 0.114702
H	 0.1307354919	-0.1191963443	 1.3303200616	 0.106299
H	-2.1788276228	-0.1055255862	 0.4258833391	 0.087944
H	-1.9037653042	 0.4606481254	-1.7062534547	 0.29369
H	-0.6238782063	-2.4521637301	 2.184759864	 0.097125
H	-1.1537943427	-5.0430991635	 1.4528952176	 0.107282
H	-2.1281671415	-2.7108941414	-1.7075851299	 0.278521
