15
gdb 24499	3.94477	1.68157	1.17899	3.38	80.86	-0.2231	-0.0127	0.2103	971.2222	0.118136	-379.773814	-379.767773	-379.766829	-379.803959	25.014	
N	-0.0238319752	 1.3600926998	 0.0099306931	-0.382374
C	 1.2893578273	 1.7648935318	-0.000473081	 0.011804
N	 2.141799325	 0.7770472364	-0.0142833526	-0.330753
C	 1.3556903675	-0.3677440631	-0.0131365302	 0.275147
C	-0.0160247216	-0.0216579265	 0.0020752189	 0.33283
C	-1.0300607599	-0.9767516396	 0.0064942987	-0.252951
C	-0.633170635	-2.3079906871	-0.0048451704	-0.101819
C	 0.7261680057	-2.6708682133	-0.0200328647	-0.108775
C	 1.7308981265	-1.7137448626	-0.0243524836	-0.224863
H	-0.8322865534	 1.9581138433	 0.0211584123	 0.266019
H	 1.5493788488	 2.8144895786	 0.0029281722	 0.133932
H	-2.0789367952	-0.7006360944	 0.0181902947	 0.090669
H	-1.3888938725	-3.0862036858	-0.0019241831	 0.093485
H	 0.9892582879	-3.7231693389	-0.0285081675	 0.092561
H	 2.7798369742	-1.9869701386	-0.0360352269	 0.105086
