21
gdb 8938	2.54857	1.4508	1.18934	3.9071	76.12	-0.2385	0.034	0.2725	1142.7593	0.186942	-366.298534	-366.288456	-366.287512	-366.333864	35.387	
C	 0.0114211099	 1.5807782404	 0.0623681173	-0.39192
C	 0.0018358132	 0.054145405	-0.0340574496	-0.173334
C	-1.404046357	-0.5708738475	 0.054236952	 0.023862
C	-1.3599402275	-2.0915337063	-0.1560304544	-0.398461
N	-2.1032098844	-0.209026718	 1.28922082	-0.026266
C	-1.5685272504	-0.6102782823	 2.5807607896	-0.353311
C	-3.2779653834	 0.4860537438	 1.2521658912	 0.153641
O	-3.9392144317	 0.8190326614	 2.2140627055	-0.349709
H	 1.0290386228	 1.971893913	-0.0281726211	 0.117396
H	-0.5899404107	 2.0317652288	-0.7349023121	 0.116415
H	-0.3966640008	 1.9248919036	 1.0172797428	 0.131589
H	 0.440570492	-0.260214872	-0.9885539782	 0.101707
H	 0.6436109523	-0.3769933405	 0.7444787451	 0.100959
H	-2.007352533	-0.1387144327	-0.754169451	 0.089865
H	-0.7235614487	-2.5854799602	 0.5849767764	 0.122607
H	-2.3625081915	-2.5234280191	-0.0886903951	 0.123667
H	-0.9518963591	-2.3226446493	-1.1446406429	 0.120992
H	-0.5791322821	-0.1745117848	 2.7569770833	 0.125084
H	-2.2589071724	-0.2472635824	 3.3421504112	 0.1698
H	-1.4875038894	-1.6994662442	 2.6607029451	 0.125338
H	-3.577154188	 0.7245249135	 0.2125647347	 0.070078
