22
gdb 116338	2.67373	1.40053	1.10798	1.1817	81.09	-0.2218	0.0772	0.2989	1181.8034	0.196586	-404.327028	-404.318468	-404.317524	-404.360091	33.695	
O	 0.2371440669	 1.3993137387	 0.1318068353	-0.420479
C	 0.0614092092	-0.0071597927	 0.0266515698	-0.0864
C	-1.4036110404	-0.4575048123	 0.0472349695	 0.04709
C	-2.141301346	-0.0540896026	 1.3339461799	-0.211575
C	-3.6080124976	-0.4854901119	 1.2482896629	-0.201452
C	-4.3238925349	 0.2237762437	 0.0869966378	-0.228309
C	-3.4981840824	 0.2470164302	-1.2027960768	-0.006526
C	-2.4888128035	 1.3256953685	-1.4038382102	-0.269382
N	-2.0612714377	-0.0605295668	-1.2066048933	-0.102994
H	 0.0076017436	 1.7817970303	-0.7196930233	 0.29231
H	 0.5412690451	-0.3981770133	-0.8813588136	 0.096708
H	 0.5756501575	-0.4405134679	 0.8917503769	 0.103665
H	-1.3811256959	-1.5579990479	 0.0184685201	 0.075708
H	-1.6471582594	-0.5367315896	 2.1850843172	 0.093727
H	-2.0592541686	 1.0261803308	 1.4994307687	 0.109522
H	-3.648658009	-1.572777418	 1.0980501977	 0.096283
H	-4.1338563156	-0.2791659853	 2.1862640532	 0.092755
H	-5.2828421405	-0.2644306504	-0.1122318418	 0.100709
H	-4.5604268004	 1.251986541	 0.3863303533	 0.104635
H	-4.0089578152	-0.1357153226	-2.0840244972	 0.088329
H	-2.2956776195	 1.7351473958	-2.3934178089	 0.107376
H	-2.3772396854	 2.0381104921	-0.5893919672	 0.1183
