14
gdb 33324	4.73119	0.82303	0.7773	6.226	81.79	-0.2561	-0.041	0.2151	1415.2942	0.101067	-399.484562	-399.476899	-399.475955	-399.517608	27.842	
N	 0.0240210472	-3.7311404398	-0.0531034839	-0.33995
C	 0.0320484991	-2.5690063119	-0.031517319	 0.202132
C	 0.0381394505	-1.2056378952	-0.0033061865	 0.069248
C	 0.0394369785	 0.0041608448	 0.019512675	 0.118753
C	 0.0445632435	 1.4285951185	 0.0507047469	-0.284457
C	 0.4486208086	 2.2422520758	 1.2878078374	-0.143603
C	 1.6382266181	 1.5720675915	 1.967632757	-0.10003
O	 2.3824728971	 1.5587859311	 0.7125423311	-0.27092
C	 1.3278855873	 2.2497023675	 0.0719527805	 0.102333
H	-0.753959654	 1.9066841314	-0.5119813659	 0.13655
H	-0.2080177929	 2.9898751683	 1.7102471006	 0.121318
H	 2.1377117639	 2.2192378061	 2.6946200816	 0.127613
H	 1.4967652657	 0.5687660868	 2.3801552524	 0.132809
H	 1.5691835074	 2.9910419251	-0.6809180772	 0.128205
