17
gdb 125269	5.07582	1.19022	0.97576	2.9157	82.54	-0.197	0.0009	0.1978	1182.9257	0.13902	-380.902884	-380.895511	-380.894566	-380.934502	28.74	
C	-0.0199378236	 1.4715481259	 0.0679554467	-0.485872
C	-0.0007449507	-0.0203723121	-0.020349108	 0.300863
C	-0.0345920461	-0.7842951618	-1.1338898897	-0.323003
C	 0.0022866665	-2.1981148216	-0.7610729593	 0.251673
C	 0.0599079991	-2.2667903964	 0.6179101723	 0.340494
C	 0.0642744094	-0.9022343918	 1.2343459835	-0.465281
N	 0.0934348356	-3.5716653337	 0.9497376581	-0.329674
N	 0.0607712637	-4.3764261709	-0.1449175622	-0.227128
C	 0.0052158302	-3.5418491426	-1.187525978	-0.170306
H	 0.875651223	 1.8622857968	 0.5690026676	 0.122989
H	-0.0688083133	 1.9223910757	-0.9271078905	 0.127003
H	-0.8817041332	 1.8353022569	 0.6431285829	 0.122962
H	-0.0819685049	-0.4013454335	-2.1458658116	 0.096126
H	 0.9662273985	-0.6942767485	 1.8248105412	 0.131399
H	-0.7923050021	-0.7212637005	 1.8968676549	 0.131398
H	 0.1373237031	-4.0013381215	 1.8578205104	 0.269295
H	-0.029469365	-3.9531005405	-2.1856119582	 0.107061
