20
gdb 69162	2.0894	1.74118	1.37327	4.0502	78.7	-0.2376	-0.0054	0.2322	1071.3822	0.16878	-403.145621	-403.136171	-403.135227	-403.179135	35.638	
C	-0.0568823409	 1.5615641824	 0.0938322089	-0.494286
C	-0.0348387799	 0.0649082989	-0.009069985	 0.315388
C	-0.8301920965	-0.8039921653	 0.8710960315	-0.299315
N	 0.657798147	-0.8027683049	 1.0626595488	-0.220923
C	 1.1457514163	-1.6427477401	-0.0175722432	 0.38861
O	 1.8266061619	-2.6196149664	 0.0390776128	-0.314815
C	 0.6027908757	-0.7556837979	-1.1599373832	 0.094808
C	-0.3146883201	-1.4038623371	-2.1958562178	-0.451244
C	 1.7747867187	-0.0381778222	-1.8443931388	-0.443604
H	 0.9055403364	 2.0029895864	-0.1785444184	 0.131919
H	-0.8206701896	 1.980659594	-0.5714413653	 0.128026
H	-0.2947281339	 1.8712705439	 1.1153063071	 0.135465
H	-1.3468179351	-0.344015397	 1.7077998607	 0.134213
H	-1.3010024478	-1.7114402823	 0.5029551513	 0.130103
H	-1.1876601082	-1.8806162298	-1.7430087044	 0.119357
H	-0.6720339766	-0.6580930595	-2.9145696455	 0.119594
H	 0.2327368486	-2.1712052488	-2.7522020332	 0.137325
H	 2.3423537018	-0.7516801015	-2.4482169371	 0.137327
H	 1.4091600794	 0.7543905142	-2.5062835406	 0.119306
H	 2.462835643	 0.4081480729	-1.1207101685	 0.132746
