21
gdb 119415	3.21806	0.94931	0.83113	0.9802	79.57	-0.2398	0.0788	0.3186	1459.7101	0.180369	-424.197012	-424.187187	-424.186243	-424.232071	36.146	
C	-0.2112068314	 1.4497751422	 0.2196562385	-0.499296
C	 0.1709492161	 0.0163842883	 0.0425496204	 0.340836
C	 0.5468737551	-0.7194668565	-1.2566523087	-0.280349
C	 1.3905141376	-1.720027503	-0.3944602267	-0.286354
C	 0.9707419084	-0.9254523287	 0.8573610423	 0.351151
C	 1.6839183091	-0.786844549	 2.1652326329	-0.304523
C	 1.5687967833	-2.0418550054	 3.0287346438	-0.068404
O	 2.3078750763	-1.8097029273	 4.2181325797	-0.421444
O	-0.4720640057	-0.9629944024	 0.8782283031	-0.333082
H	 0.5074220307	 2.1086043583	-0.2786634252	 0.122254
H	-1.1996310909	 1.6422873202	-0.213469376	 0.13041
H	-0.2516320909	 1.7115516204	 1.2804239374	 0.133173
H	-0.2983795387	-1.1357254555	-1.8103414362	 0.105457
H	 1.1648255992	-0.1207015903	-1.9308526816	 0.10126
H	 1.0747449297	-2.7660657395	-0.4077291249	 0.10505
H	 2.4612503586	-1.6596480562	-0.6059195931	 0.102506
H	 2.7456965159	-0.5786803793	 1.987074367	 0.108501
H	 1.2732631444	 0.0609588933	 2.7235271712	 0.113493
H	 0.5075371526	-2.2374944493	 3.2412373929	 0.106367
H	 1.9617529667	-2.9119137555	 2.4780616663	 0.08704
H	 2.2043075639	-2.5756277245	 4.7900259567	 0.285954
