18
gdb 120373	2.8155	1.25402	0.93144	2.9906	75.02	-0.2045	0.0047	0.2092	1249.991	0.147704	-439.125187	-439.116355	-439.115411	-439.159479	32.223	
O	-0.1889790628	 1.5268895261	 0.3440143271	-0.415547
C	 0.0805494365	 0.1645058354	 0.0411049075	-0.074534
C	-1.2525640111	-0.55129789	-0.1359554711	-0.173028
N	-1.9857462112	-0.1307032743	-1.3110357988	-0.082184
C	-2.6061118453	 1.1176006586	-1.5090387188	-0.007863
C	-3.2455069763	 1.1690528466	-2.6813514588	-0.161855
C	-3.0663867136	-0.15262446	-3.3797655283	-0.391358
C	-2.2167319112	-0.9669002194	-2.3939312308	 0.40619
O	-1.8144093982	-2.1059154667	-2.500211538	-0.388856
H	 0.6360139005	 2.0187043701	 0.3045381599	 0.292516
H	 0.672911332	 0.0656004646	-0.8798054814	 0.105262
H	 0.6363106503	-0.3225320915	 0.8576879155	 0.094089
H	-1.0801077996	-1.6243307685	-0.2545109284	 0.144942
H	-1.8614236478	-0.3913503445	 0.7624564342	 0.119074
H	-2.4908255494	 1.8713516407	-0.7455355731	 0.142326
H	-3.7910246048	 2.014563073	-3.0705066929	 0.104833
H	-4.0042044973	-0.6849456662	-3.5769801931	 0.143581
H	-2.5418998109	-0.080664384	-4.3398953005	 0.142412
