23
gdb 63826	2.82199	1.433	1.27785	0.1112	89.73	-0.2312	0.0278	0.259	1135.505	0.206793	-351.167164	-351.158627	-351.157683	-351.199778	34.728	
C	 0.4292821129	 1.3890793348	-0.1947677748	-0.450614
C	 0.0425349986	-0.0822388011	-0.0405570921	 0.356764
C	-1.4783099712	-0.2340350089	-0.0865082211	-0.440676
C	 0.7983581006	-1.030674403	-1.0323050661	-0.283064
C	 1.5518484863	-1.6880838079	 0.160944121	-0.045043
C	 2.9540129012	-1.2046795482	 0.4146799923	-0.0767
C	 3.0295001443	-0.368707195	 1.4509218574	-0.059002
C	 1.6879461943	-0.1278391186	 2.1084143136	-0.282061
C	 0.6976884696	-0.8549876835	 1.1718173267	-0.056938
H	 1.5129400912	 1.5331487233	-0.162007721	 0.119087
H	 0.0749964317	 1.7688391083	-1.1603139018	 0.107619
H	-0.0221313688	 2.011170415	 0.5868342311	 0.107873
H	-1.8852652126	 0.1513373531	-1.0290006301	 0.108051
H	-1.7779101683	-1.2841600884	 0.0006441179	 0.107174
H	-1.9546493642	 0.3178350326	 0.7328870576	 0.108518
H	 0.1328119174	-1.7177904689	-1.5630342446	 0.089151
H	 1.4335002302	-0.5298464716	-1.7690574355	 0.090269
H	 1.4751020914	-2.7797222386	 0.2045035838	 0.065939
H	 3.7961536464	-1.5187124625	-0.1941572661	 0.086957
H	 3.942809563	 0.0931603509	 1.8121366363	 0.087652
H	 1.6663262903	-0.5450287348	 3.1247378029	 0.098973
H	 1.4655951936	 0.9403412771	 2.2193430892	 0.102686
H	-0.0489735078	-1.424022234	 1.7297973735	 0.057387
