19
gdb 62765	3.31832	1.19333	1.16736	2.2957	74.75	-0.242	-0.0181	0.2239	1133.7435	0.158154	-423.046527	-423.03796	-423.037015	-423.079451	33.433	
C	 0.1240470202	 1.6059810289	 0.0802030437	-0.473497
C	 0.0793360563	 0.0945983671	 0.0447638363	 0.400629
O	-1.1808011966	-0.4128175978	-0.326792845	-0.46768
C	 1.2524926783	-0.7694096106	-0.3754885154	-0.132883
C	 2.6507856542	-0.1879969118	-0.384890807	-0.339998
C	 2.9107980014	 0.3147899022	 1.0471083766	 0.382218
O	 3.8288621626	 1.0149819297	 1.3834956186	-0.310058
C	 1.8037890516	-0.2139982503	 1.9767538607	-0.342812
C	 0.7353448325	-0.7873239835	 1.0706285998	-0.095385
H	 1.0836593516	 2.0024860015	 0.4206281833	 0.135888
H	-0.0594228664	 2.0175423513	-0.920190759	 0.111927
H	-0.6562875092	 1.9854076133	 0.7472598253	 0.132749
H	-1.3363139418	-0.1685845035	-1.246309464	 0.279324
H	 1.0207403072	-1.6006706552	-1.0311281263	 0.090277
H	 3.3955886145	-0.9617264946	-0.6113602434	 0.132943
H	 2.8199258034	 0.6267021809	-1.0960823292	 0.128731
H	 2.2395622155	-0.9969666826	 2.6101177015	 0.133809
H	 1.4731749341	 0.5845135368	 2.6480403698	 0.132764
H	 0.1423320204	-1.6254134718	 1.4157581636	 0.101055
