16
gdb 66877	3.1373	1.96936	1.77187	3.86	72.97	-0.2047	-0.0432	0.1615	825.9142	0.125489	-396.784376	-396.777789	-396.776845	-396.814858	27.743	
N	 0.0836608001	 1.4506620269	 0.0069605612	-0.631883
C	 0.0376161506	 0.0402934964	 0.0088291324	 0.322719
C	-0.1673122018	-0.8287356292	-1.2823604941	-0.070306
N	 0.8634856186	-1.8055563989	-1.3316903201	-0.136656
C	 0.8472256801	-2.3221367115	-0.1544291065	 0.078798
N	 1.9056748873	-1.8268130738	 0.7441240412	-0.342052
C	 0.7027044107	-0.892719523	 1.1116582153	-0.045445
C	-0.3754277201	-1.9294685702	 0.7509654657	-0.106228
C	-1.1368767563	-0.9393885595	-0.101688846	-0.15774
H	 0.483292926	 1.8462364947	-0.8340158078	 0.243219
H	-0.8011456862	 1.895629251	 0.2093224436	 0.238662
H	-0.4592315074	-0.3038635135	-2.1856608784	 0.096167
H	 1.985832559	-2.4272003491	 1.5712752518	 0.222815
H	 0.7855910976	-0.4348775055	 2.0972898946	 0.105233
H	-0.7977479877	-2.6438019533	 1.4509006372	 0.085265
H	-2.2011352806	-0.7606410015	-0.1690751701	 0.097433
