21
gdb 79922	2.24234	1.55101	1.20465	1.1434	84.46	-0.2147	0.0233	0.2381	1154.7284	0.182197	-387.066107	-387.057296	-387.056352	-387.098865	34.826	
C	-0.1722599419	 1.6594712472	-0.0670281384	-0.436117
C	-0.0022987181	 0.1519919431	-0.0189126683	 0.065356
C	 1.1719255643	-0.571937009	-0.7746844575	-0.141072
C	 2.4017032801	 0.0229162411	-0.0976541544	-0.205271
C	 2.0816792317	 0.0292519535	 1.2051556902	 0.341368
C	 2.8518169321	 0.4522427456	 2.4080706306	-0.520258
C	 0.6681409919	-0.5665411684	 1.2108946312	-0.157902
C	 0.9164459167	-1.7686484056	 0.2358564322	 0.158321
O	-0.2312886891	-2.5567658002	 0.0406671149	-0.443665
H	 0.7577956719	 2.1847565093	 0.1660710246	 0.114807
H	-0.5000284213	 1.9789129005	-1.0629000654	 0.11019
H	-0.9372557659	 1.9856035079	 0.6468804311	 0.110245
H	-0.9471967497	-0.3437992917	-0.2544960937	 0.087254
H	 1.1737414971	-0.7132872714	-1.856694702	 0.048897
H	 3.3245861882	 0.3245473183	-0.5745327527	 0.090473
H	 3.8456380324	 0.8194736556	 2.1351753668	 0.122784
H	 2.3340801951	 1.2496885925	 2.9568427954	 0.126307
H	 2.9794667131	-0.3767873956	 3.1161270155	 0.126377
H	 0.1557193463	-0.7038145634	 2.1641213867	 0.057318
H	 1.7991350209	-2.3824041626	 0.4567225774	 0.061225
H	-0.0339165758	-3.2099466066	-0.6378641043	 0.283364
