16
gdb 1779	4.10365	2.15717	1.72054	2.2596	62.47	-0.2557	-0.0328	0.2229	779.3233	0.135142	-325.773278	-325.765395	-325.764451	-325.805058	27.971	
C	-0.0997262685	 1.3982033214	-0.1636281331	-0.404588
C	 0.0968056706	-0.0778860176	 0.0766553521	-0.009679
N	 1.4437085585	-0.6215009302	-0.0369628158	-0.360044
C	 0.8060498085	-0.6394100615	 1.2916132764	 0.22128
C	 1.3991958633	 0.2179457271	 2.3866477482	-0.476559
C	 0.2724032151	-1.9672198584	 1.7202674275	 0.103639
O	 0.1061603998	-2.8987027272	 0.9664936453	-0.275251
H	 0.7625717979	 1.9791367257	 0.1686918498	 0.131551
H	-0.2285470185	 1.5824511852	-1.2356871119	 0.130557
H	-0.9946965243	 1.765304493	 0.3494564966	 0.121295
H	-0.7090177579	-0.7108149481	-0.2929174176	 0.103009
H	 1.3931301537	-1.5704344268	-0.4102840977	 0.244623
H	 1.6979698165	 1.1959100302	 2.0085445525	 0.13716
H	 0.6778819018	 0.3690752942	 3.1975860589	 0.121228
H	 2.2900367621	-0.2575030109	 2.8110058681	 0.13114
H	 0.0308384215	-2.0553017262	 2.8018957408	 0.08064
