21
gdb 72228	2.46217	1.89572	1.31476	1.8097	81.65	-0.2335	0.0848	0.3183	1044.1348	0.183176	-387.073239	-387.065046	-387.064102	-387.105303	32.866	
C	-0.0549940831	 1.5224261292	 0.0205666769	-0.504537
C	 0.0205665835	 0.0214480567	-0.0044073694	 0.285915
C	-0.0803512659	-0.8014843472	-1.2967887318	-0.303842
C	-0.5781121007	-2.0055091298	-0.4388701381	 0.083933
O	 0.4886003613	-2.8771054867	-0.0943210305	-0.263487
C	 1.426015493	-2.0850642423	 0.6377934624	-0.148043
C	 0.6659436263	-0.834021906	 1.0913856839	 0.267245
C	 1.0882316183	-0.2013781761	 2.3964911547	-0.499777
C	-0.7861951408	-1.0394337826	 0.7494185619	-0.176352
H	 0.8441609312	 1.9674210931	-0.4232943339	 0.120124
H	-0.9148611645	 1.8745682922	-0.5611125821	 0.117913
H	-0.1545173983	 1.9234343507	 1.0327394618	 0.11861
H	-0.8738929093	-0.4095739887	-1.9412811554	 0.09553
H	 0.8207686784	-0.9697706578	-1.8970993918	 0.091752
H	-1.4056036338	-2.6023020841	-0.8195790149	 0.080677
H	 1.7799125034	-2.6693015063	 1.4962517598	 0.097731
H	 2.2971712694	-1.842883748	 0.0117539427	 0.092135
H	 2.0880571286	 0.2425875607	 2.3230680491	 0.120317
H	 0.4011213894	 0.5865383897	 2.7147575769	 0.122096
H	 1.1181139804	-0.9523793181	 3.1939964797	 0.121469
H	-1.6138618168	-0.9638539085	 1.4434259881	 0.080593
