23
gdb 106621	2.5506	1.42158	1.24631	1.3842	85.12	-0.2331	0.0849	0.3181	1175.1845	0.206325	-388.285423	-388.276476	-388.275532	-388.31867	35.185	
C	-0.0114395415	 1.5533332597	 0.0139985234	-0.380407
C	 0.0888274203	 0.0232742865	 0.0051572776	-0.291372
C	 0.6611684297	-0.5327412086	-1.2737381999	 0.455174
C	 0.0388451888	-0.3691966587	-2.6875513114	-0.278393
C	 1.0995202062	-1.4620176892	-3.019572116	-0.094031
C	 2.3782177436	-0.6707123437	-2.7279307697	-0.083
O	 2.0158471787	-0.056120004	-1.4728802159	-0.316448
C	 0.7860987096	-2.054338837	-1.6015094384	-0.009678
C	 1.7834959334	-2.918331255	-0.8481060667	-0.439047
H	 0.9709472538	 2.00264502	-0.1505051174	 0.136947
H	-0.6810840423	 1.9106796053	-0.7753925608	 0.113345
H	-0.401123451	 1.9138784683	 0.9706070034	 0.107482
H	 0.7204085067	-0.3114473038	 0.837507369	 0.105976
H	-0.9007772423	-0.422702096	 0.1611861049	 0.094431
H	-0.9877490991	-0.733854715	-2.753525107	 0.096893
H	 0.1400221095	 0.6067782853	-3.1685258266	 0.095008
H	 1.0680213859	-2.0624273682	-3.9286355749	 0.065741
H	 3.2700524275	-1.2948749547	-2.6004998275	 0.09641
H	 2.5907540653	 0.0988315583	-3.4799718404	 0.096452
H	-0.2039745385	-2.519879664	-1.6148352432	 0.068882
H	 2.7173359012	-2.3814907637	-0.6633003768	 0.13297
H	 1.3778525698	-3.21846323	 0.1240463358	 0.114855
H	 2.0147598345	-3.8345272317	-1.4029094018	 0.111811
