17
gdb 16901	4.13644	1.80909	1.39223	1.7838	69.56	-0.2177	0.01	0.2277	890.837	0.143524	-363.831183	-363.824098	-363.823153	-363.862296	27.668	
O	 0.0207984499	 1.4321412501	 0.1286859677	-0.429472
C	 0.042126511	 0.0141679133	 0.0065319182	 0.074061
C	-1.423427688	-0.4322413246	 0.0310953339	-0.160438
N	-1.5731618769	-1.8749686874	-0.2264106286	-0.108746
C	-2.1569556395	-2.2534929973	-1.5148464831	-0.243179
C	-0.6988796984	-2.4435724244	-1.2585002554	-0.045436
C	 0.3312637222	-1.5724667457	-1.8767695463	-0.075328
C	 0.6983655104	-0.4410007236	-1.2777477866	-0.102166
H	 0.9246130586	 1.7355484939	 0.258122686	 0.284139
H	 0.5692332647	-0.4318756346	 0.8665856843	 0.084674
H	-1.8616040773	-0.2083551811	 1.008950064	 0.109487
H	-1.9503024639	 0.1785105455	-0.7135801047	 0.106583
H	-2.8342787804	-3.1039513182	-1.4972507483	 0.112804
H	-2.4407071949	-1.4526039328	-2.195067246	 0.113149
H	-0.3630441923	-3.4563222918	-1.0316563626	 0.097818
H	 0.8027112566	-1.9106602738	-2.7960999616	 0.094994
H	 1.4717720282	 0.1988682724	-1.6957270509	 0.087057
