15
gdb 33598	4.00955	1.51973	1.38559	3.5505	73.84	-0.242	0.0098	0.2519	922.8114	0.114989	-379.58877	-379.582593	-379.581649	-379.619314	25.078	
N	 0.0982303769	-1.0667279614	 0.0232040178	-0.354974
C	 0.0339605951	 0.090110368	-0.0014625448	 0.140905
C	-0.0599540407	 1.5027757111	-0.0353011661	 0.256583
C	 0.1382212731	 2.5236605046	 1.0921426898	-0.162501
C	 1.1614990894	 2.4687975777	 0.0104581898	-0.066565
N	 0.67278001	 3.6624261092	-0.7258313265	-0.149834
C	-0.127612407	 3.10845322	-1.8834321322	-0.185388
C	-1.0230850252	 2.4140225407	-0.84256428	-0.14475
C	-0.580297177	 3.5281753387	 0.1646830793	-0.013167
H	 0.1983061342	 2.3819807777	 2.1617882821	 0.122843
H	 2.1856166221	 2.1210631673	 0.0024430197	 0.12247
H	-0.6283314359	 3.9322200443	-2.3995382712	 0.120408
H	 0.4366899783	 2.5002179743	-2.5950903199	 0.121095
H	-2.0443455197	 2.0769653184	-1.0090166404	 0.09498
H	-1.1383590136	 4.4220122793	 0.4304909126	 0.097893
