21
gdb 70742	2.46162	1.6617	1.22472	1.8189	78.91	-0.2344	0.0834	0.3178	1102.2743	0.183043	-424.209408	-424.201104	-424.20016	-424.241667	33.282	
C	-0.0546680125	 1.5219916016	 0.028954503	-0.451038
C	 0.0253537427	 0.0116800094	-0.0083191465	 0.389246
C	-0.8052523263	-0.7997268067	 0.9536216106	-0.36979
C	 0.6891610877	-0.7402512925	 1.1316306531	 0.041071
O	 1.3832616955	-1.9204625829	 0.8845556738	-0.246639
C	 2.5696217879	-1.7484769656	 0.1179829429	-0.073271
C	 2.285926891	-1.713790318	-1.384467947	-0.189637
C	 1.4402102826	-0.5250905901	-1.8432080454	-0.086524
O	 0.1263864559	-0.5368047119	-1.2942778915	-0.283769
H	 0.8313890296	 1.9873795925	-0.4166876304	 0.115781
H	-0.9334042428	 1.8674738551	-0.5256260541	 0.127126
H	-0.1366668002	 1.8834886907	 1.05828716	 0.116261
H	-1.4487879376	-0.2886339756	 1.661008884	 0.10916
H	-1.1818171988	-1.739828137	 0.5681562578	 0.13202
H	 1.0948656429	-0.1439845402	 1.9519000366	 0.07921
H	 3.1031091895	-0.8386979807	 0.4358674463	 0.08638
H	 3.2078715386	-2.6059710147	 0.3563767414	 0.105782
H	 3.2426687318	-1.6920546933	-1.9247526023	 0.090869
H	 1.7736748032	-2.6414411425	-1.6638656654	 0.114539
H	 1.9524728387	 0.4199135208	-1.6084012994	 0.088668
H	 1.3081908505	-0.5623689884	-2.9296659877	 0.104555
