17
gdb 85147	2.08249	1.75321	1.13153	4.0343	68.81	-0.2428	-0.0346	0.2082	1082.4078	0.134291	-458.935187	-458.926617	-458.925672	-458.969102	31.119	
O	 0.2712781866	 1.1257419858	-0.5326887875	-0.427467
C	 0.1317773291	-0.113118551	 0.1169612962	 0.03134
C	 0.0187428713	-0.1063485363	 1.6776451667	-0.394851
C	-1.2744210537	-0.9186152803	 1.5181267331	 0.346347
O	-1.9609293926	-1.5604465873	 2.2604558978	-0.297198
C	-1.3056029628	-0.6879695731	 0.0074786785	 0.149671
C	-2.4489483782	 0.1510630551	-0.6212993471	-0.117252
O	-2.8139856543	-0.9215281705	-1.5092349854	-0.270095
C	-1.7711414347	-1.7644261045	-0.9875466051	-0.135153
H	 1.1729111774	 1.4385465292	-0.4094784914	 0.292594
H	 0.8778568933	-0.8401235091	-0.2335290237	 0.081697
H	 0.8189197337	-0.5576231181	 2.2690660494	 0.128943
H	-0.1886325095	 0.90166322	 2.0540207137	 0.139363
H	-3.263279528	 0.4148875112	 0.0635830359	 0.114226
H	-2.1006838302	 1.039827308	-1.1560545529	 0.131565
H	-1.0323687634	-2.0372456503	-1.7524021927	 0.106116
H	-2.168818964	-2.6717312489	-0.5164257552	 0.120155
