18
gdb 69634	3.51989	1.21437	1.17547	3.7793	77.91	-0.2321	-0.0402	0.1919	1128.0744	0.145809	-401.874839	-401.866548	-401.865604	-401.907531	31.833	
C	 0.2263018587	 1.4460237282	-0.0713704769	-0.47117
C	 0.0289100843	-0.0331950125	 0.0308590963	 0.364556
C	-1.0133629723	-0.7136721256	 0.8767249998	-0.354774
C	 0.4436144451	-1.0477326098	 1.0701514714	-0.182017
C	 1.0091663261	-1.9111269849	-0.0694470376	 0.211262
C	 0.0567855995	-2.1856421076	-1.1796592589	-0.280804
N	 0.6313782156	-0.8478326175	-1.1152576075	-0.187972
C	 2.3742751325	-2.4856517927	-0.0728228989	 0.086518
O	 2.8846644133	-3.0188710249	-1.0285008341	-0.257493
H	 1.2676831768	 1.6822428973	-0.3105264239	 0.133875
H	-0.4026607745	 1.8669984348	-0.8644526639	 0.12979
H	-0.0375260179	 1.9388608478	 0.8690224492	 0.119141
H	-1.4115515776	-0.0603562657	 1.6476110089	 0.122602
H	-1.7423960546	-1.4286925537	 0.5124876051	 0.117332
H	 0.9721667514	-0.895519334	 2.0030785772	 0.0984
H	 0.4772484461	-2.7639023445	-1.9968312694	 0.151508
H	-0.9945541673	-2.3606653486	-0.9836888585	 0.1265
H	 2.915079425	-2.398418616	 0.8966436318	 0.072747
