20
gdb 119323	4.66068	0.99132	0.95869	1.6686	81.91	-0.211	0.0701	0.2811	1327.8962	0.170304	-365.895848	-365.887618	-365.886674	-365.929185	31.626	
C	-0.0047127483	 1.5300636265	-0.014886457	-0.383585
C	 0.1954622416	 0.0136637434	-0.0559548429	-0.160157
C	 0.6093185804	-0.5711308137	 1.3032469521	-0.345033
C	 0.7467681771	-2.0543869234	 1.281073367	 0.430023
C	 1.7745361	-3.0014557526	 0.7042245792	-0.165993
C	 0.6155523046	-3.9804090998	 0.400971935	-0.049401
C	 0.2533213377	-4.0393052497	 1.8405592149	-0.050351
C	 1.3985175644	-3.0612264709	 2.1964621751	-0.194511
N	-0.4059549688	-3.0192442378	 0.9495019066	-0.214401
H	 0.9159982669	 2.045654263	 0.2815186776	 0.110531
H	-0.3026712537	 1.9187209094	-0.9935990441	 0.111961
H	-0.7835872013	 1.8076874095	 0.7041312	 0.115333
H	-0.7289457638	-0.4779860384	-0.3802615293	 0.120489
H	 0.9577137035	-0.2426356476	-0.8021950999	 0.095134
H	 1.5643719079	-0.1358396152	 1.6286930491	 0.099274
H	-0.1332317948	-0.2931644655	 2.0642813627	 0.10657
H	 2.7394157386	-2.8180641566	 0.2527798488	 0.092211
H	 0.3966487937	-4.6434864983	-0.4276686604	 0.0943
H	-0.3180240923	-4.7594708489	 2.4143220699	 0.094553
H	 2.0302409967	-2.9280393833	 3.0634871958	 0.093056
