18
gdb 28046	4.81948	0.80642	0.75268	4.1244	82.07	-0.2025	-0.0088	0.1937	1523.2495	0.146998	-402.003384	-401.994152	-401.993208	-402.039166	32.713	
C	-0.0455251681	 1.5370255885	 0.0209020007	-0.501645
C	-0.0039975281	 0.0462848747	-0.0502104338	 0.330044
C	-0.0350606127	-0.8122240463	-1.1267940911	-0.331463
C	 0.01474044	-2.1516043413	-0.6357884328	 0.251618
C	 0.0519134356	-3.4167185083	-1.4478820277	-0.385286
C	 1.4827956146	-3.8992840471	-1.6246468796	 0.166423
O	 1.8761066782	-5.004483471	-1.3543833257	-0.245176
C	 0.0849646108	-2.0660241746	 0.7380224199	-0.17332
N	 0.0693446641	-0.7364281163	 1.0779948899	-0.291862
H	 0.8473917555	 1.9543700838	 0.503096874	 0.128217
H	-0.1005954464	 1.9547086618	-0.9867950304	 0.139632
H	-0.9177717402	 1.9018906733	 0.5777630651	 0.127788
H	-0.0979732947	-0.5131730111	-2.1631339316	 0.089141
H	-0.5259514552	-4.2264190765	-0.9934247798	 0.120373
H	-0.3611524674	-3.2266819554	-2.4476147151	 0.119486
H	 2.1739161392	-3.1188791862	-2.0186124646	 0.073652
H	 0.1382504981	-2.8365082038	 1.4907558356	 0.124096
H	 0.0945600767	-0.3838364142	 2.0192521972	 0.25828
