17
gdb 43896	2.82567	1.37998	1.10972	2.4491	79.6	-0.2426	-0.0268	0.2158	1114.7292	0.134365	-384.650898	-384.64268	-384.641736	-384.684004	31.55	
O	 0.0449881306	 0.2009334394	-0.6846545472	-0.296789
C	 0.0433432087	 1.287592785	-0.1838568983	 0.417241
C	-1.0659009596	 2.1871436599	 0.3898432416	-0.40995
C	 0.0202102532	 3.2597396317	 0.7345353117	 0.18154
C	 0.6743343485	 3.0533691908	 2.1398730046	-0.278929
C	 1.761065873	 2.1274155524	 1.5239756013	-0.228856
C	 1.1415913722	 2.3120723698	 0.1056115954	-0.20369
C	-0.2190841224	 4.6053126913	 0.287561515	 0.17451
C	-0.4113661068	 5.7336295982	-0.0843691476	-0.399749
H	-1.7526646734	 2.5174358515	-0.3955357826	 0.147475
H	-1.6509905696	 1.7836243201	 1.2210178041	 0.13017
H	 1.0772101517	 3.9780675685	 2.5548385696	 0.122715
H	 0.0133873461	 2.5989875055	 2.8820945064	 0.107987
H	 2.7682604288	 2.5414579949	 1.5931009812	 0.121681
H	 1.7904430055	 1.0971754047	 1.8857945395	 0.120605
H	 1.802617785	 2.5974588456	-0.7125626454	 0.102293
H	-0.5832693815	 6.7287021308	-0.4126670793	 0.191745
