17
gdb 72830	2.74558	1.59466	1.28355	5.3082	67.31	-0.2515	-0.0088	0.2428	1018.1787	0.136465	-458.982537	-458.974702	-458.973758	-459.015169	29.203	
C	-0.2851241754	 1.5382044268	-0.0382156653	-0.488506
C	 0.0458862095	 0.055583005	-0.0190960528	 0.244346
C	-1.0844722603	-0.8985919983	 0.4463947963	-0.11943
O	-0.3141876318	-1.3329495518	 1.5914492544	-0.281352
C	 0.816546203	-0.5396718555	 1.1759686382	-0.062259
C	 1.894082882	-1.4381334108	 0.5608977336	 0.435635
O	 2.7196894872	-2.0932018093	 1.1222872482	-0.328991
O	 1.7533874849	-1.4373411419	-0.7965539297	-0.226467
C	 0.8371465983	-0.4262686286	-1.2454528967	-0.138576
H	 0.6219309872	 2.1457910222	-0.1239135787	 0.128697
H	-0.9325636234	 1.7843459033	-0.8878160032	 0.12857
H	-0.8076915327	 1.8359316812	 0.8756199151	 0.13487
H	-2.0160524093	-0.408660832	 0.7510804924	 0.111695
H	-1.3158544606	-1.7284197715	-0.2325946923	 0.112678
H	 1.2086801894	 0.0947857595	 1.974987358	 0.105591
H	 0.2026668521	-0.8663632608	-2.0201573171	 0.125594
H	 1.41821744	 0.3882589425	-1.6934845103	 0.117906
