19
gdb 104991	2.95668	1.13151	0.97182	1.5404	76.43	-0.2593	0.0452	0.3045	1266.9552	0.156386	-422.966479	-422.956723	-422.955778	-423.001144	36.304	
C	-0.4945481	 1.5838585108	-0.4933234171	-0.389293
C	-0.0373588809	 0.1509210766	-0.1335166322	-0.261034
C	-1.182957382	-0.6596666985	 0.2735769744	 0.33166
C	-2.1420099081	-1.297363215	 0.6180733686	-0.455264
C	 0.7722950776	-0.4659207742	-1.285385869	 0.361655
C	 2.2290541001	-0.0105097588	-1.3559345847	-0.131189
O	 2.8328881169	-0.3766625497	-2.57343765	-0.419279
C	 0.4071612045	-1.7320797644	-1.927909036	-0.223954
O	 0.1274024433	-0.4685435111	-2.5676144049	-0.287171
H	 0.3627749837	 2.2253463085	-0.7145067533	 0.120275
H	-1.1426203574	 1.5533423546	-1.371513032	 0.148196
H	-1.0488765873	 2.024012795	 0.3384318102	 0.128831
H	 0.6468019805	 0.2138860579	 0.7253242981	 0.111164
H	-2.9847647754	-1.8653512266	 0.9263706706	 0.199047
H	 2.2780865259	 1.0790652175	-1.1948615351	 0.094155
H	 2.7988807919	-0.4837908899	-0.5476858197	 0.118327
H	 2.1710078785	-0.1925216471	-3.2545233389	 0.29303
H	 1.1863686344	-2.3185878287	-2.4080466142	 0.12571
H	-0.4714670063	-2.2696609667	-1.584721845	 0.135133
