19
gdb 74146	2.44812	1.39852	1.0979	4.6837	79.22	-0.2334	-0.041	0.1924	1169.9206	0.157135	-423.074143	-423.064764	-423.063819	-423.108062	35.27	
C	-0.14040371	 1.4895669894	 0.0321191546	-0.513551
C	-0.0124405354	 0.0031903809	-0.036402232	 0.320754
C	 0.0500562979	-0.7567723388	-1.1389493093	-0.306109
C	 0.1072352629	-2.1918652473	-0.7943687056	 0.387102
O	 0.2528814728	-3.1235749456	-1.5518139579	-0.335453
C	-0.0701066482	-2.2845299606	 0.7254977415	-0.374273
C	 0.0448945752	-0.8402612044	 1.246367381	 0.29052
C	 1.3472090895	-0.6002617362	 2.0222142603	-0.454415
O	-1.0848056063	-0.5717627144	 2.0824667346	-0.465819
H	 0.7101944263	 1.9424137721	 0.5562334764	 0.136744
H	-0.204786771	 1.9368061049	-0.9619824211	 0.138786
H	-1.0423904742	 1.7628677251	 0.5924805271	 0.141986
H	 0.0521967422	-0.4057999965	-2.1643032477	 0.109843
H	-1.0741941102	-2.6616843225	 0.9413801782	 0.147178
H	 0.648683272	-2.9790770568	 1.1662140855	 0.121483
H	 2.2207129582	-0.857204865	 1.415900483	 0.132424
H	 1.4464976383	 0.4498791013	 2.3218568558	 0.109261
H	 1.3549808669	-1.2159220191	 2.9263718698	 0.133525
H	-0.9015445571	 0.2231915636	 2.5938595659	 0.280015
