22
gdb 120926	3.19637	0.8853	0.8025	2.356	82.95	-0.2203	0.0782	0.2985	1522.8299	0.193641	-404.303322	-404.293616	-404.292672	-404.338111	36.246	
C	-0.1274206384	 1.5237516605	 0.0766831432	-0.510206
C	 0.0994348341	 0.0446626699	 0.0263692992	 0.330995
N	-0.7700483701	-0.9069150329	 0.7649247701	-0.368361
C	 0.6989715228	-0.9081246873	 1.0022221198	-0.105389
C	 1.2969520046	-1.7669373698	-0.113307571	-0.237815
C	 0.6855929366	-0.7560181206	-1.1574236152	-0.02948
C	-0.2797399979	-1.2677495536	-2.2193025187	-0.193764
C	 0.3934458499	-2.1499061591	-3.2629165597	-0.072976
O	-0.5926532549	-2.5433545139	-4.2070397406	-0.420623
H	 0.7446597388	 2.0695458839	-0.3001060442	 0.122373
H	-0.9910662786	 1.8159300137	-0.5327691223	 0.129989
H	-0.3151723282	 1.8598555661	 1.102692532	 0.115447
H	-1.1941302	-0.3819304627	 1.5303389939	 0.220002
H	 1.0937160373	-0.7316309077	 1.9962355581	 0.086944
H	 2.3889391216	-1.7817879969	-0.1252561166	 0.096944
H	 0.915832309	-2.791192839	-0.1531166406	 0.104586
H	 1.4934212802	-0.1782853621	-1.6222212082	 0.064655
H	-1.0851732772	-1.8302280202	-1.7373167116	 0.125334
H	-0.7466730088	-0.420644336	-2.7383825573	 0.096193
H	 1.2106169696	-1.5934293088	-3.7529708018	 0.076204
H	 0.8476723818	-3.0273544229	-2.7745577681	 0.08622
H	-0.1786654523	-3.1307283407	-4.8458376705	 0.282728
