19
gdb 116849	4.72831	0.51116	0.46661	5.0546	84.79	-0.2528	-0.0431	0.2098	2324.1612	0.155545	-423.0104	-422.999341	-422.998397	-423.049286	37.029	
C	-0.0391115635	 1.537041321	-0.0250860175	-0.38312
C	-0.0122384292	 0.0076956003	-0.022716213	-0.159382
C	 0.724168118	-0.5593778235	 1.2081986249	-0.34491
C	 0.7700889435	-2.0135221829	 1.2450339556	 0.043253
C	 0.803284787	-3.2206668341	 1.2673184525	 0.068489
C	 0.8496456644	-4.6699693307	 1.3055435659	 0.222531
O	 1.3843595084	-5.2884403861	 2.1952799718	-0.264999
C	 0.1609298745	-5.3362684177	 0.1186710934	-0.174085
O	 0.2541766354	-6.7289434587	 0.2396086065	-0.395345
H	 0.9745768251	 1.9526038755	-0.0359767993	 0.119888
H	-0.5649955302	 1.9194480686	-0.904642413	 0.119427
H	-0.5479240013	 1.927254947	 0.8632945215	 0.119891
H	-1.0336133739	-0.3884629575	-0.0376596011	 0.112261
H	 0.4772613926	-0.3633024322	-0.9299782278	 0.112253
H	 1.7511446445	-0.1704186189	 1.2363967087	 0.14083
H	 0.2437710473	-0.1954920111	 2.1266580679	 0.140836
H	-0.8809172347	-4.9714285522	 0.1004106314	 0.114246
H	 0.6413736985	-4.947364556	-0.7961299202	 0.114263
H	-0.1851664762	-7.123677511	-0.5190711581	 0.293671
