17
gdb 16311	3.09796	1.94469	1.40412	3.4648	68.68	-0.2416	0.011	0.2526	921.6981	0.142392	-363.863053	-363.855357	-363.854413	-363.895187	28.818	
C	-0.2025791536	 1.518335018	-0.0069751015	-0.37797
C	 0.0438079886	 0.0049212734	 0.0771902877	-0.299801
C	 0.777508763	-0.5130238078	-1.127612652	 0.198765
C	 0.1048300026	-0.9497221637	-2.4382233124	-0.325055
C	 0.9882418718	-1.9060197217	-1.6981517543	-0.067398
N	 2.4069082875	-1.6037348373	-1.9185754819	-0.34584
C	 2.2458449304	-0.2753409917	-1.4723215931	 0.376088
O	 3.0116377422	 0.6451339262	-1.4081225818	-0.345621
H	 0.7437639287	 2.0541622704	-0.1218734752	 0.148278
H	-0.8345378619	 1.7657238187	-0.8661626944	 0.116081
H	-0.6992328195	 1.8844244083	 0.8964271375	 0.111249
H	 0.6262105975	-0.2224232162	 0.9784843476	 0.112847
H	-0.9095128583	-0.5278180665	 0.1809109647	 0.099059
H	-0.9674488796	-1.1086870114	-2.3524520564	 0.121824
H	 0.4264817299	-0.5434281974	-3.3932099468	 0.12116
H	 0.6831940907	-2.8579415613	-1.2839370462	 0.115984
H	 2.9022994199	-1.83629795	-2.7728968716	 0.24035
