20
gdb 66225	4.32345	0.70593	0.67514	1.7078	82.76	-0.244	0.0332	0.2772	1714.5921	0.168036	-403.072489	-403.062341	-403.061397	-403.108455	36.537	
C	-0.0436315317	 1.5481894822	-0.1543829122	-0.463867
C	-0.0216635878	 0.0420580335	 0.0039144846	 0.313952
C	-1.3029047021	-0.5702504787	 0.5204290232	-0.082109
O	-1.6709796969	 0.0878267361	 1.7185650291	-0.250741
C	-2.8600510359	-0.4314117057	 2.276881585	-0.199556
C	-3.2124780781	 0.3105943193	 3.4804689156	 0.28003
C	-3.5272367641	 0.9060288536	 4.4745142451	-0.41449
C	 0.8246854659	-0.772418353	-0.9054790674	-0.28647
N	 1.1990184569	-0.6096856037	 0.5116099717	-0.336147
H	 0.9069919393	 1.9130226707	-0.5565782323	 0.106607
H	-0.8401124083	 1.8603306679	-0.8394317942	 0.119504
H	-0.2272418248	 2.0305904956	 0.8092673782	 0.146781
H	-2.1041948145	-0.4606447907	-0.2322066313	 0.083022
H	-1.1487332217	-1.6451818508	 0.6989419144	 0.096394
H	-3.6885510394	-0.370212477	 1.549372686	 0.115499
H	-2.7367798956	-1.500284177	 2.5224352346	 0.121118
H	-3.7987693655	 1.4355309143	 5.3540214993	 0.199728
H	 0.5275806406	-1.7801252198	-1.1856698167	 0.113324
H	 1.3943764524	-0.2453957115	-1.6668710867	 0.109569
H	 1.9461452112	 0.0754321447	 0.596460384	 0.227851
