16
gdb 46727	3.26988	1.74038	1.31675	4.7183	68.96	-0.2534	-0.0067	0.2467	942.1316	0.127269	-437.845558	-437.839159	-437.838215	-437.876418	25.477	
O	 0.0034110551	 0.0032619317	-0.3301253168	-0.331452
C	-0.0039938963	 1.1493777644	 0.0268193922	 0.43133
O	-1.1518785416	 1.7363772527	 0.4291110999	-0.22922
C	-1.0921734604	 3.0967412737	 0.8792435012	-0.108138
C	 0.256330109	 3.741266251	 0.6855811375	 0.014915
C	 1.0976024402	 3.4580762259	-0.5816296431	-0.088052
C	 2.3039964702	 3.7801705554	 0.3168402812	-0.17055
N	 1.4351840222	 2.9289603356	 1.2604267784	-0.16221
C	 1.2199435511	 2.0304456016	 0.0130131496	-0.121846
H	-1.863456521	 3.6501631514	 0.3322392398	 0.12741
H	-1.3544494199	 3.1055219435	 1.9435150818	 0.13578
H	 0.2374413471	 4.7731318501	 1.050398835	 0.088327
H	 0.9024212682	 3.7428340847	-1.6200266895	 0.084977
H	 3.2618738146	 3.3133127376	 0.0755327559	 0.115142
H	 2.4319516284	 4.8103218494	 0.6602753118	 0.109504
H	 2.0926658529	 1.4327484714	-0.250245405	 0.104083
