15
gdb 33297	6.30911	0.7235	0.68958	1.9508	93.36	-0.236	-0.0297	0.2063	1592.2764	0.110517	-383.396486	-383.388239	-383.387295	-383.429672	30.943	
C	 0.0249719083	-3.7811442828	 0.0712639728	-0.586317
C	 0.0416272288	-2.5738309871	 0.0335860413	 0.23835
C	 0.0571747917	-1.2164429939	-0.0110445221	 0.103858
C	 0.0858555006	-0.0052272635	-0.043553182	 0.192518
C	 0.067620837	 1.4080120339	-0.1382022074	 0.160982
C	-0.7289440537	 2.2946297039	-1.1195154142	-0.325902
C	 0.4226603158	 3.3549459988	-1.0323245533	-0.244366
C	 1.1478857214	 2.4291232975	-0.0489554341	-0.052969
O	 0.2742797842	 2.1992220508	 1.0509202055	-0.276443
H	 0.0137958381	-4.8422349193	 0.1077366996	 0.193851
H	-0.8194926947	 1.8511869311	-2.1124186657	 0.123786
H	-1.7130193342	 2.5940772786	-0.7545200072	 0.120208
H	 0.9515114875	 3.474860259	-1.9801690976	 0.115
H	 0.1635289656	 4.3358670361	-0.6285557037	 0.120031
H	 2.2102916336	 2.3009005469	 0.1249338979	 0.117411
