16
gdb 19886	4.00488	1.90165	1.57879	0.9897	73.97	-0.2137	0.0418	0.2554	837.6115	0.130192	-309.351509	-309.344766	-309.343822	-309.38203	27.455	
C	-0.2927024018	-1.2952751944	-0.21652208	-0.424871
C	-0.0579682878	-0.1273751621	-0.0425847098	 0.289167
C	 0.099046017	 1.2974488829	 0.0826724863	-0.192984
C	 0.5036224109	 2.1439375639	 1.2793097635	-0.089344
C	 1.7332277655	 1.6699674943	 2.1012037226	-0.056802
C	 2.3856262986	 0.4085854193	 1.6055473711	-0.310297
C	 2.5810638454	 1.6875484136	 0.838447234	-0.0568
C	 1.3487620057	 2.1614622387	 0.0205698606	-0.089341
H	-0.4678650948	-2.3340722293	-0.3487206017	 0.191925
H	-0.7029851945	 1.811580536	-0.4486683588	 0.120795
H	-0.1698277528	 2.9084125345	 1.6467543039	 0.093309
H	 1.9624825986	 2.0980147785	 3.0681956562	 0.089915
H	 3.2571096613	 0.1186917455	 2.1866395653	 0.108743
H	 1.8195389033	-0.4239328351	 1.2138764652	 0.14336
H	 3.557262549	 2.1310832855	 0.6929529346	 0.089915
H	 1.423977077	 2.9414621881	-0.7270364636	 0.093309
