19
gdb 36424	4.11002	1.03464	1.01719	3.2436	79.23	-0.2329	0.0268	0.2597	1233.1165	0.161428	-382.070045	-382.061998	-382.061054	-382.103015	30.667	
N	 0.6547018056	-0.3679365778	 1.3899437804	-0.315269
C	 0.3013241263	 0.3909251137	 0.5925407349	 0.252672
C	-0.0845795025	 1.3984571085	-0.429368962	-0.296105
N	 0.9549562276	 2.338090451	-0.7643619198	-0.063385
C	 2.149789382	 1.7890265828	-1.4180399475	-0.179371
C	 3.1464033714	 2.9295280505	-1.3421338497	-0.036449
C	 2.6387887695	 4.3079531153	-1.6858028459	-0.284313
C	 2.6625497616	 3.8552729558	-0.246912702	-0.036388
C	 1.3885030135	 3.2458928033	 0.3053401853	-0.179399
H	-0.3996686203	 0.8604932911	-1.3308264712	 0.151505
H	-0.9626958928	 1.9377920083	-0.0561234277	 0.151502
H	 2.5572401972	 0.9086664743	-0.8903011569	 0.105952
H	 1.8994391978	 1.4812853107	-2.4413950962	 0.10409
H	 4.1966753594	 2.6985116214	-1.4700077258	 0.091499
H	 3.3787359505	 5.0438663508	-1.9806257726	 0.111136
H	 1.6804136972	 4.398489444	-2.1858569923	 0.12079
H	 3.349037946	 4.3212017341	 0.4491020506	 0.0915
H	 0.5955094417	 3.9764665358	 0.510444184	 0.104099
H	 1.6125945984	 2.7165108466	 1.2483000244	 0.105934
