18
gdb 22443	2.1517	1.25137	0.82318	6.7233	80.28	-0.1661	-0.0281	0.138	1374.4423	0.146277	-472.353931	-472.343767	-472.342823	-472.389224	36.3	
C	-0.0378091621	 1.306698962	 0.3147431146	-0.346505
N	-0.1125248664	-0.0625569	-0.1374117966	-0.301561
C	-1.1904979515	-0.8618385786	-0.0328266955	 0.4008
N	-2.3847265285	-0.3317809329	 0.3219838125	-0.568702
H	-3.0698100898	-1.0023594397	 0.6549122768	 0.284255
H	-2.4400657202	 0.6126483307	 0.6610700424	 0.260391
C	-1.0875100928	-2.2406686921	-0.317252446	 0.167141
C	-2.2892919194	-3.1373269997	-0.3468462529	-0.213197
O	-3.1327992659	-3.0075653386	 0.822185816	-0.425393
N	 0.1804427422	-2.66783953	-0.5625449896	-0.106714
O	 0.3566877848	-3.8699273213	-0.8356923326	-0.37709
H	 0.9791122822	 1.6690919456	 0.1583709576	 0.152407
H	-0.7109706957	 1.9610213511	-0.2539166184	 0.138451
H	-0.2708431269	 1.4108696286	 1.3840572922	 0.131747
H	 0.7235448511	-0.5799621816	-0.3841865787	 0.264208
H	-2.959305321	-2.9082141532	-1.1831528212	 0.115734
H	-1.924095542	-4.1621094933	-0.4696379553	 0.138523
H	-2.6031961682	-3.2820507171	 1.5791736147	 0.285505
