12
gdb 24993	4.99712	1.35823	1.08894	3.8364	56.63	-0.2022	-0.0076	0.1947	992.822	0.079069	-509.756493	-509.749986	-509.749042	-509.787441	24.599	
O	 0.0341087205	 0.0543547809	 0.2170543573	-0.347507
C	-0.0349934867	 1.2400208557	 0.1263240163	 0.460406
N	-1.1642234861	 2.067260717	 0.109341386	-0.434881
C	-0.7510165368	 3.3378620318	-0.2840244876	 0.180839
C	 0.5827164025	 3.3054952417	-0.317893559	 0.300585
O	 1.1479533968	 4.491658664	 0.015527437	-0.243885
C	 0.0001337686	 5.3681747718	-0.1273344342	 0.011572
O	-1.1778780704	 4.5866430734	 0.1314055829	-0.253397
O	 1.0915635639	 2.0747605406	-0.0771519189	-0.232384
H	-2.0498269179	 1.6348389234	-0.1059321307	 0.284043
H	 0.0732920773	 6.1835018921	 0.5906740208	 0.151986
H	-0.0269884118	 5.7222160874	-1.16769459	 0.122624
