20
gdb 86626	2.41789	1.43505	1.34923	2.1068	73.7	-0.2437	0.062	0.3056	1078.359	0.172498	-440.237425	-440.228991	-440.228047	-440.270166	33.158	
O	-0.1317822711	 1.0161022641	 1.3091556571	-0.430934
C	 0.0673774508	 0.0605983788	 0.282259769	 0.086909
C	 0.5531701675	-1.2824046506	 0.8692186162	-0.272814
C	-0.8852861156	-1.8750616932	 0.7497466265	-0.075463
C	-1.722122343	-2.0138024789	 2.0015508935	-0.017592
C	-1.1713632092	-2.2458177481	 3.3557883638	-0.251678
N	-1.7639660293	-0.9394090397	 3.0234130715	-0.350283
C	-1.2769579363	-0.6276031588	-0.1235144032	 0.111973
O	-2.4469150352	 0.0900505376	 0.1890820352	-0.444659
H	-0.9325835601	 1.5012480939	 1.0635808972	 0.288308
H	 0.6639802009	 0.4901234894	-0.5322424566	 0.070551
H	 1.2713204027	-1.7988191555	 0.228948537	 0.109449
H	 0.9829429061	-1.1981218358	 1.8698743199	 0.114566
H	-0.9330116717	-2.8208722264	 0.201805012	 0.07892
H	-2.7101586572	-2.4269806663	 1.8021159948	 0.102441
H	-1.7324819609	-2.8408849183	 4.0709320729	 0.119512
H	-0.0922858773	-2.306194474	 3.4692453001	 0.116794
H	-1.0224709467	-0.2644158299	 2.8313211729	 0.247138
H	-1.315118343	-0.8595885004	-1.1913969772	 0.087072
H	-2.6488588813	-0.052754668	 1.1237228774	 0.30979
