15
gdb 18102	4.8437	2.08485	1.50189	2.8545	67.84	-0.214	-0.0042	0.2097	804.4763	0.122616	-358.865809	-358.859511	-358.858567	-358.896612	23.303	
C	 0.0050284736	 1.4212565847	 0.0161651952	-0.169615
C	 1.5128992877	 1.8758749828	-0.0190344276	-0.211859
N	 2.1593615093	 0.5821491388	 0.1476750377	-0.076666
C	 3.4059176183	 0.0007663283	 0.0139956944	 0.051951
N	 3.4125287954	-1.2784172521	-0.0790876248	-0.267091
C	 1.9943297347	-1.7065591957	-0.0494884293	-0.277375
C	 1.2007167727	-0.4208749071	 0.004742061	 0.386031
N	-0.0135563822	-0.0559205343	-0.0933376858	-0.352183
H	-0.4743235524	 1.7216424586	 0.9552506835	 0.119349
H	-0.5729306919	 1.8670903895	-0.7982247284	 0.119942
H	 1.784702706	 2.339888129	-0.9750826751	 0.120752
H	 1.7656787363	 2.5700917758	 0.7867269735	 0.124095
H	 4.3029363333	 0.610787904	 0.0203255303	 0.136701
H	 1.7529707094	-2.3074187868	-0.9316777516	 0.149222
H	 1.8105618598	-2.3366725253	 0.8285558172	 0.146746
