16
gdb 61343	3.11353	0.90727	0.76902	2.7943	79.56	-0.2552	-0.0452	0.21	1452.8327	0.122146	-396.90842	-396.898434	-396.89749	-396.944068	35.056	
C	-0.0360384887	 1.6011775406	-0.0375233071	-0.388652
C	-0.0050301557	 0.0616344679	 0.0160551862	-0.116642
N	 0.7707000323	-0.4297047693	 1.1583658702	-0.323277
C	 2.1240551987	-0.560102387	 1.1002909684	 0.310486
N	 2.8122754393	-0.1987654403	 0.0811556246	-0.530687
C	 2.7114699231	-1.1419993363	 2.2989425412	 0.226919
N	 3.2166341874	-1.599336602	 3.2329889601	-0.318256
C	-1.3479725759	-0.5121558428	 0.0698169114	 0.288301
C	-2.4594324026	-0.9628516249	 0.1376640514	-0.424724
H	 0.9864655511	 1.9789634509	-0.0998582579	 0.148766
H	-0.5917030231	 1.9326768806	-0.9185537389	 0.131902
H	-0.520627956	 2.0065840881	 0.8543744421	 0.125229
H	 0.510160972	-0.2977172104	-0.8831143424	 0.149637
H	 0.2756787475	-0.7677540881	 1.9658781293	 0.271848
H	 3.8015524045	-0.3854659681	 0.2179207049	 0.242084
H	-3.439927924	-1.3696757989	 0.1791765666	 0.207063
