22
gdb 59144	3.08432	1.25834	1.14863	0.7692	86.13	-0.2084	0.0709	0.2793	1205.3639	0.193092	-367.115926	-367.107061	-367.106117	-367.149159	35.148	
C	-0.2562324037	 1.5572827901	 0.4374295741	-0.379919
C	 0.2397306519	 0.1211011617	 0.2266501557	 0.060346
C	 0.9737513505	-0.4073535441	 1.4589114897	-0.381723
N	-0.9355857687	-0.716001692	-0.0421359895	-0.052362
C	-1.4922745567	-1.2453687056	-1.2428064474	-0.072692
C	-0.5582067407	-2.1457246565	-2.1338538096	-0.074098
C	 0.8422295794	-2.3563733248	-1.6149599496	-0.308873
C	-0.3010079157	-3.051886843	-0.9405494262	-0.065485
C	-1.2052121136	-2.1239967558	-0.0534707661	-0.074108
H	 0.5855984993	 2.2397247389	 0.597131975	 0.103175
H	-0.8136649543	 1.9039298028	-0.4381036326	 0.113149
H	-0.9224210923	 1.6095714414	 1.3041770526	 0.116061
H	 0.9266605579	 0.1420093877	-0.6286138325	 0.07653
H	 1.3609502021	-1.4168588341	 1.2929187405	 0.122239
H	 1.8134150951	 0.2453214459	 1.7152800529	 0.112673
H	 0.2934465889	-0.4421600913	 2.3163341982	 0.120614
H	-2.444054542	-0.8764757989	-1.6132550362	 0.090911
H	-0.8438225323	-2.4404117653	-3.1354517284	 0.087305
H	 1.4411621136	-3.0060194043	-2.2482073962	 0.11145
H	 1.4216433241	-1.5877546013	-1.1265051954	 0.117044
H	-0.3870875302	-4.1301885159	-0.8964360404	 0.086525
H	-1.8940793326	-2.5325618157	 0.6792488215	 0.091238
