20
gdb 14756	11.93021	0.56363	0.54735	1.034	78.96	-0.2538	0.0558	0.3096	1990.1095	0.174231	-348.964278	-348.954154	-348.95321	-349.000126	34.821	
C	-0.04391261	 1.3902126048	 0.0575113338	-0.22728
O	-0.0082775443	-0.0151374409	 0.0224887215	-0.230581
C	 0.6418935595	-0.5205881335	-1.1228605184	-0.055564
C	 0.6243575452	-2.0419299365	-1.0605017258	-0.19525
C	 1.3102432179	-2.688624238	-2.2664028561	-0.178103
C	 1.2881506828	-4.2289023394	-2.1956604245	-0.35562
C	 1.9378860763	-4.8620644323	-3.3368309769	 0.291943
C	 2.4790086225	-5.3588977649	-4.2883336154	-0.43607
H	 0.9680979692	 1.8263380145	 0.0679352813	 0.102099
H	-0.5856123434	 1.8087259607	-0.8061382699	 0.102098
H	-0.562693462	 1.6828700663	 0.9737658502	 0.126141
H	 0.1360940052	-0.1676258489	-2.0391851263	 0.08384
H	 1.6813090384	-0.1498178104	-1.1698741881	 0.083839
H	 1.1139959749	-2.3583374281	-0.1312559171	 0.106916
H	-0.4183492386	-2.376001238	-0.9933268223	 0.106914
H	 0.8221251533	-2.3702801993	-3.1951695062	 0.1105
H	 2.351752321	-2.3527272959	-2.3345589257	 0.110505
H	 1.7759282142	-4.5579225547	-1.268590102	 0.130483
H	 0.2484416275	-4.5755173597	-2.1284325971	 0.130493
H	 2.9537850404	-5.8093780257	-5.1240467851	 0.192695
