23
gdb 111002	2.43921	1.38905	1.09432	1.8396	85.21	-0.2313	0.0783	0.3097	1242.8986	0.206249	-388.278027	-388.269082	-388.268138	-388.311399	35.201	
C	-0.0298162336	 1.604699311	 0.0511526263	-0.379627
C	-0.0065552111	 0.0787809964	 0.2085026411	-0.227069
C	-1.3912870578	-0.544807909	 0.06496081	 0.011609
C	-2.0273341902	-0.691762265	-1.3468143017	 0.093705
C	-1.1890124767	-1.9740578294	-1.5429191591	-0.286656
C	-1.4993239182	-2.1182522677	-0.0130397715	 0.271329
C	-0.7569292218	-3.0559563863	 0.9081700663	-0.508101
C	-3.0293956104	-2.242624179	-0.0937363643	-0.111803
O	-3.3386727516	-1.2036797308	-1.0502925321	-0.283482
H	 0.9670052015	 2.0324211368	 0.196352264	 0.111726
H	-0.3767453216	 1.898417642	-0.9451534297	 0.118445
H	-0.7015585989	 2.0669217479	 0.782630773	 0.117508
H	 0.7011274061	-0.3470447092	-0.511057952	 0.096629
H	 0.3879868023	-0.1736882766	 1.2017632044	 0.098192
H	-2.0726294795	-0.0807974517	 0.7890050758	 0.064459
H	-2.1051517112	 0.11212679	-2.0775953647	 0.074228
H	-1.5956511996	-2.7277846616	-2.2223943691	 0.095547
H	-0.1348808237	-1.7991398717	-1.7560922465	 0.10063
H	 0.3194328653	-2.8569120039	 0.8998527192	 0.120057
H	-1.1061319776	-2.9558064206	 1.9426841164	 0.117307
H	-0.903520921	-4.1003510321	 0.6093025713	 0.118727
H	-3.3652893148	-3.2171816372	-0.4707884461	 0.093243
H	-3.529902416	-2.0404158123	 0.861697569	 0.093395
