16
gdb 114164	5.16977	0.90597	0.83834	4.6392	71.08	-0.2785	-0.0043	0.2742	1329.3954	0.123298	-437.84732	-437.838845	-437.837901	-437.880822	30.805	
O	 0.0135286978	 1.3693544052	-0.2198310444	-0.420696
C	 0.0549484268	-0.0178824518	 0.0777468272	-0.094776
C	-1.3722653701	-0.5272051888	 0.0172230866	-0.002004
C	-2.0928172972	-0.5285174731	-1.3793757584	-0.313115
C	-2.2675139604	-2.0492012446	-1.2312208978	 0.311627
O	-0.9604710972	-2.621634228	-1.0792872587	-0.264152
C	-1.5712619263	-2.0510094717	 0.0778832796	-0.072308
C	-3.3203080382	-2.8801013526	-1.726287203	 0.204726
N	-4.1961467067	-3.5139414451	-2.1368401522	-0.335504
H	 0.9168008341	 1.6941913466	-0.277761952	 0.292201
H	 0.6669728326	-0.5716741888	-0.648006066	 0.108063
H	 0.4725987461	-0.2031852479	 1.0809704312	 0.091037
H	-1.9861511	-0.0170463758	 0.7642638525	 0.101653
H	-3.0363458813	 0.0180651388	-1.3699576008	 0.133887
H	-1.4947520636	-0.2251635883	-2.2398854439	 0.131329
H	-1.7098169364	-2.6998330041	 0.93504295	 0.128029
