13
gdb 21321	5.37146	1.38301	1.18806	2.2923	55.73	-0.2811	-0.0772	0.2039	963.3193	0.094438	-431.843426	-431.836092	-431.835147	-431.876309	24.684	
C	-0.5584669089	 0.7054798116	-0.1314472682	-0.245432
O	 0.7839018589	 0.2738789814	 0.0239623312	-0.225568
C	 1.2817919517	-0.4875137229	-1.050499601	-0.177097
C	 0.8531537374	-1.9251642696	-0.9940985061	 0.412118
N	 1.6278780633	-2.9168759542	-0.6573831866	-0.132634
O	 0.8391395972	-4.0107472486	-0.7204701175	-0.135219
N	-0.442360425	-3.6201540044	-1.109139736	 0.051029
N	-0.4281323455	-2.3755518582	-1.274914013	-0.200275
H	-0.6831242703	 1.2894099809	-1.0555532453	 0.112202
H	-1.2665817337	-0.1319732407	-0.1497669944	 0.137005
H	-0.7795490016	 1.3437879456	 0.7263829443	 0.137082
H	 0.9763249361	-0.061942726	-2.0182001587	 0.120021
H	 2.3720171104	-0.4598808648	-0.9847105387	 0.146769
