18
gdb 114607	2.28049	1.44291	1.04279	2.3141	74.05	-0.2428	-0.0401	0.2028	1169.8	0.147057	-439.045016	-439.036225	-439.035281	-439.078908	32.2	
O	 0.313075615	 0.6553289011	 0.8694428639	-0.423215
C	-0.1996884005	 0.3941374282	-0.4300839333	-0.091651
C	-1.5170095402	-0.3673947946	-0.3678312415	-0.068842
C	-2.1130276928	-0.9466466101	-1.7013676944	-0.256039
C	-2.0423970837	-2.3500426153	-1.0923211544	-0.07123
N	-0.6581615653	-2.6230676306	-0.7437724718	-0.361945
C	-1.4530873062	-1.7964401985	 0.1969455849	 0.227148
C	-1.7690916529	-2.3108314616	 1.532757462	 0.041055
O	-1.5996747919	-3.4672187469	 1.8596524516	-0.287239
H	 0.7192014068	-0.1560243892	 1.1897942232	 0.290286
H	-0.3567001001	 1.3701948448	-0.9026119541	 0.108895
H	 0.5200177583	-0.1639841192	-1.0426831405	 0.112338
H	-2.2614900215	 0.2219996443	 0.1755700472	 0.088922
H	-3.1318054456	-0.606714897	-1.8932381378	 0.114704
H	-1.5062742905	-0.8135806329	-2.6010297732	 0.117265
H	-2.7659713236	-3.1522444561	-1.1775802837	 0.118922
H	-0.6198450134	-3.5515139763	-0.316982598	 0.253393
H	-2.200626252	-1.56610477	 2.2344988799	 0.087234
