17
gdb 97288	1.99075	1.14178	0.7821	3.5435	81.72	-0.2443	-0.0226	0.2217	1456.3203	0.135267	-414.19876	-414.189005	-414.188061	-414.234919	33.319	
C	-0.1258440784	 1.3983537789	-0.1286478054	-0.315324
N	 0.0283688564	-0.0389921411	-0.0536613991	-0.233567
C	-1.018305793	-0.7460275326	-0.0690219253	 0.12429
N	-1.0006589221	-2.1389572354	-0.0042735857	-0.086534
C	-2.2601338726	-2.8692164613	-0.0044578209	-0.315992
C	-2.9568051332	-2.809040451	-1.2969714705	 0.269411
N	-3.5158647826	-2.7407588899	-2.3054603832	-0.299279
C	 0.1919387299	-2.8508249578	 0.0424284082	 0.100479
N	 0.2001352785	-4.1204982318	 0.1093943609	-0.474377
H	 0.3382043522	 1.8643559486	 0.7480191209	 0.131744
H	 0.4034823759	 1.7789828786	-1.0094402771	 0.135175
H	-1.1752405603	 1.7286282732	-0.1850219946	 0.103774
H	-2.0370181745	-0.3413877527	-0.1351902671	 0.104454
H	-2.0195840628	-3.9098592878	 0.2289737022	 0.206636
H	-2.9284125743	-2.4848809708	 0.7738531794	 0.16156
H	 1.052791826	-2.1826668358	 0.0182870394	 0.149835
H	 1.154612005	-4.4702579014	 0.1393684679	 0.237716
