19
gdb 58337	2.6529	1.00627	0.77901	3.9234	69.08	-0.2652	0.0147	0.2799	1445.6015	0.155876	-497.312597	-497.302165	-497.30122	-497.348561	36.954	
C	-0.352756677	 1.1931952483	 0.7118278083	-0.406502
C	-0.4462117157	-0.2694579076	 0.287999678	 0.113208
O	-0.5770639257	-1.1435611266	 1.4033451998	-0.426202
C	-1.5559171248	-0.498708488	-0.7585756341	 0.083763
O	-1.2613302552	 0.2016676655	-1.9601365478	-0.421677
C	-1.8239142877	-1.9810983144	-1.0632970899	-0.113076
O	-2.6614489797	-2.5676439875	-0.0664449635	-0.180209
C	-2.1370838911	-3.5186665864	 0.7348862107	 0.180344
O	-2.75180242	-3.9990651889	 1.6382759149	-0.282155
H	 0.4900563021	 1.3410211278	 1.3916417844	 0.126987
H	-0.2306102486	 1.8390454208	-0.1610748219	 0.134778
H	-1.2703404464	 1.500093424	 1.2291933688	 0.114583
H	 0.5039523298	-0.5719662004	-0.1785162834	 0.077086
H	-1.3529694589	-0.8768698715	 1.910219311	 0.291869
H	-2.4971132449	-0.0672140799	-0.3953670725	 0.10406
H	-0.4012945216	-0.0951462957	-2.2795992402	 0.285912
H	-2.359350967	-2.039667501	-2.0148909083	 0.129318
H	-0.8843499788	-2.5440873497	-1.1537565117	 0.103818
H	-1.1083213987	-3.8028353687	 0.4504069373	 0.084096
