19
gdb 52581	2.09807	1.05469	0.73065	1.691	86.73	-0.2468	0.0325	0.2793	1566.5134	0.154887	-385.832995	-385.821928	-385.820984	-385.870774	38.837	
C	-0.0383751631	 1.5239399243	 0.0405500499	-0.500047
C	-0.0067162883	 0.0685681336	 0.0227895091	 0.084726
C	 0.0138322573	-1.1347947218	 0.0194012579	 0.07613
C	 0.0476840424	-2.5979337603	-0.0162615104	-0.36317
C	-1.2994140395	-3.1711833747	 0.085252906	 0.292345
C	-2.3856242799	-3.6861161867	 0.1173473265	-0.433922
C	 0.7480507283	-3.1443847685	-1.3114108922	 0.137352
C	 2.2096505177	-2.7315022537	-1.3821826173	-0.392023
O	 0.7077517644	-4.5560590943	-1.3231750025	-0.432456
H	 0.7294108911	 1.9305432682	 0.707767631	 0.150283
H	 0.1361767455	 1.9379951148	-0.9584965795	 0.150138
H	-1.0096539768	 1.893153066	 0.387431302	 0.152711
H	 0.6411117332	-2.9708425835	 0.8312770035	 0.13462
H	-3.3552862115	-4.1161399367	 0.1730570281	 0.201248
H	 0.2002356603	-2.7268751822	-2.1702580682	 0.081251
H	 2.759822838	-3.1403026629	-0.5283877272	 0.121694
H	 2.6593395571	-3.126469519	-2.2966003522	 0.125327
H	 2.3060973196	-1.6438009204	-1.3792641645	 0.12891
H	-0.2157437458	-4.8209620924	-1.22851313	 0.284883
