20
gdb 78684	3.87184	1.23924	1.14386	2.2506	79.08	-0.2348	0.0778	0.3126	1147.795	0.170069	-403.053889	-403.045583	-403.044639	-403.086149	33.251	
C	-0.107436581	 1.5352367478	 0.0654740312	-0.453302
C	-0.0540926123	 0.0164745399	-0.0471813668	 0.35219
C	-1.4478916451	-0.5750037084	 0.1250177303	-0.453342
C	 0.8898748531	-0.612610556	-1.0907124633	-0.11688
C	 2.112553112	-0.2643986237	-0.1922679171	-0.066566
C	 2.64422765	-1.7002660248	-0.1783557875	 0.150179
O	 3.378327399	-2.1348606513	 0.9289565993	-0.451131
C	 1.1188275168	-1.8300610903	-0.1479781303	-0.066582
N	 1.0141252899	-0.6363555115	 0.8571840786	-0.22988
H	 0.8708684159	 2.0042810416	-0.0594293917	 0.116825
H	-0.7765184432	 1.9500919482	-0.6963238195	 0.117062
H	-0.4985325883	 1.8272924525	 1.0460297458	 0.125458
H	-2.1264514024	-0.1783455096	-0.6380949185	 0.117074
H	-1.4589175235	-1.6642301374	 0.0467432947	 0.116844
H	-1.854687453	-0.3034111811	 1.1050614222	 0.125407
H	 0.8397985142	-0.6118272908	-2.1854938751	 0.061971
H	 2.6597073631	 0.6752807669	-0.1186480972	 0.087139
H	 3.153638055	-2.0491010332	-1.0802654093	 0.086679
H	 2.9081619941	-1.8143410121	 1.7100485629	 0.293736
H	 0.5040404756	-2.7211806066	-0.0225768788	 0.087119
