19
gdb 66374	2.33632	1.39318	1.29833	1.713	76.48	-0.2519	0.0301	0.2821	1100.1082	0.158818	-422.996922	-422.988226	-422.987282	-423.029708	34.125	
O	-0.0849136075	 1.4056839422	 0.0232855053	-0.46099
C	 0.0279836045	-0.0171697869	-0.0320812695	 0.198198
C	 0.7682781559	-0.5612980572	 1.2120497029	-0.244764
C	 0.6159249057	-2.0815112434	 1.3309184383	-0.084369
O	-0.746640386	-2.4664220167	 1.3576103927	-0.243138
C	-1.4311316269	-2.0774715441	 0.1787973052	-0.090864
C	-1.4131348371	-0.5593444074	-0.0145471546	-0.220233
C	 0.7298233588	-0.4166434268	-1.2624052405	 0.329066
C	 1.3321583194	-0.7170276577	-2.2592917611	-0.516917
H	 0.792897781	 1.7762940633	-0.122091653	 0.279475
H	 1.8291307818	-0.2894793035	 1.1712808938	 0.094024
H	 0.3236128302	-0.0767526292	 2.087303229	 0.114263
H	 1.1373660649	-2.5768472121	 0.495468807	 0.098699
H	 1.0566815661	-2.4409530299	 2.2650040016	 0.109264
H	-0.9871775948	-2.5727440276	-0.7002788583	 0.098844
H	-2.4579886588	-2.4372476084	 0.286478799	 0.11006
H	-1.9295679797	-0.0738257465	 0.8198165306	 0.116056
H	-1.9255199051	-0.2810102381	-0.9398947276	 0.110938
H	 1.8535348377	-0.9803388102	-3.1466755809	 0.202388
