19
gdb 50165	3.25842	1.45446	1.24073	2.6874	81.49	-0.237	-0.0226	0.2144	1053.6618	0.159311	-385.77615	-385.768663	-385.767718	-385.808401	29.687	
O	-0.6266759895	 0.5965155979	 0.6349261342	-0.246023
C	 0.0030995446	 1.0721643367	-0.2754541965	 0.149891
C	 1.2043768336	 1.9663279753	-0.1491224587	-0.146749
C	 1.2022350676	 3.33323867	-0.9876683948	-0.368035
C	 1.0422166517	 4.0304761357	 0.3806207193	 0.3011
C	 1.5193644225	 4.9163192369	 1.5747709517	-0.308139
C	 0.7649102767	 3.6497663022	 2.1956944161	-0.073736
C	-0.3226917856	 3.8864437751	 1.1330505077	-0.249229
C	 1.5596285457	 2.805417952	 1.1407790575	-0.009111
H	-0.2580687664	 0.8357931569	-1.3353383302	 0.071911
H	 2.0500192613	 1.3291104862	-0.4416683948	 0.110991
H	 2.1676450996	 3.4960987888	-1.473034393	 0.115223
H	 0.4027275492	 3.4778454515	-1.7204893556	 0.109148
H	 2.5987778161	 4.9700321466	 1.7381404575	 0.097627
H	 1.0363318718	 5.8849221743	 1.7376475595	 0.095159
H	 0.6199636457	 3.4586334787	 3.2620629463	 0.076116
H	-0.9074823979	 4.8059467791	 1.2236910212	 0.086402
H	-0.9611247199	 3.039155681	 0.8914538552	 0.11797
H	 2.6390606331	 2.7738576552	 1.3135412573	 0.069484
