17
gdb 29524	3.0264	1.60749	1.0686	2.311	76.23	-0.1715	0.0483	0.2198	1089.9177	0.138707	-418.019369	-418.01126	-418.010316	-418.051858	30.702	
N	 0.0345974586	 1.4446642709	-0.058095031	-0.617872
C	 0.0261373287	 0.0347886647	-0.0316120157	 0.077047
C	-1.0606257466	-0.8187466773	-0.1626269431	-0.145224
N	-0.6194299156	-2.1363168331	-0.121281015	-0.382047
C	 0.7466872253	-2.1244057292	-0.0263680434	 0.200026
C	 1.148979847	-0.8251140397	 0.0552475236	 0.338285
O	 2.4878779027	-0.6574005514	 0.3103356462	-0.304497
C	 3.049573468	-1.9843046557	 0.1443113088	-0.085231
C	 1.8947324957	-3.0376842859	 0.2635332023	-0.364112
H	 0.8227461627	 1.8177717302	 0.4566201966	 0.246365
H	-0.8150365819	 1.8398886929	 0.3251220187	 0.237149
H	-2.1030516601	-0.5889663144	-0.3137837135	 0.103369
H	-1.1941167948	-2.9287203753	-0.34378991	 0.254963
H	 3.4979345749	-2.04026531	-0.8553136775	 0.110347
H	 3.833630398	-2.1112424551	 0.8936224476	 0.11261
H	 1.8441782391	-3.4836376101	 1.2674648858	 0.110376
H	 2.0486890282	-3.8553597215	-0.4491145304	 0.108446
