16
gdb 75269	2.30552	1.7451	1.44019	3.5274	73.6	-0.2588	-0.0176	0.2412	979.563	0.125133	-396.932055	-396.924199	-396.923255	-396.964537	29.145	
C	-0.0032771724	 1.4630397939	 0.0288314616	-0.472044
C	-0.018540738	-0.0240684404	-0.048595938	 0.331831
N	-0.0436813379	-0.7114364335	-1.1179900486	-0.229775
C	-0.0249627285	-2.1336074933	-0.755246651	-0.203213
C	 0.0562087478	-2.1517219909	 0.7708707526	-0.050689
C	 1.23081504	-1.5105426477	 1.4416027464	-0.183958
C	 2.4315832684	-1.2035835582	 0.708356935	 0.316229
N	 3.4184728918	-0.967087891	 0.153248864	-0.335851
N	-0.0375711577	-0.7516395109	 1.210379572	-0.158627
H	 0.9064286053	 1.8038850887	 0.5357643166	 0.150252
H	-0.0391459904	 1.8906048806	-0.9729080141	 0.153861
H	-0.8534593011	 1.82013019	 0.618498608	 0.147271
H	-0.9445866901	-2.6192088479	-1.09960906	 0.129153
H	 0.8138228409	-2.6336632876	-1.2515337633	 0.141589
H	-0.5076883773	-2.8825708982	 1.3407759433	 0.117925
H	 1.4087551193	-1.7315238236	 2.4899553853	 0.146044
