19
gdb 9260	5.83654	0.77391	0.71458	3.982	72.58	-0.2768	0.0371	0.3139	1530.5518	0.163933	-365.080938	-365.071178	-365.070234	-365.116145	33.881	
C	 0.0872163908	 1.5828039531	 0.0160966629	-0.397276
C	 0.010054008	 0.0501740102	 0.0385031268	 0.032204
C	 0.7508160744	-0.5108985721	 1.2555244051	-0.083634
O	 2.1138125659	-0.1275437309	 1.1620569768	-0.422075
C	-1.4314370117	-0.4831413213	 0.0238539104	-0.190162
C	-2.2000493752	-0.1285301319	-1.2656888983	-0.35117
C	-3.53974839	-0.711588419	-1.2897856668	 0.259148
N	-4.5958523973	-1.1808118437	-1.2911950449	-0.30567
H	 1.1247812927	 1.9050747665	 0.1236911481	 0.142549
H	-0.3001373268	 2.0025548858	-0.9169335542	 0.111096
H	-0.4895481437	 2.0138493893	 0.8438339237	 0.11134
H	 0.5321198267	-0.3376006392	-0.8479151771	 0.08635
H	 0.2886396873	-0.1212664172	 2.1781622916	 0.086907
H	 0.650142241	-1.6078340242	 1.2750006158	 0.087176
H	 2.5647988138	-0.4128770013	 1.9615885346	 0.289904
H	-1.4225479232	-1.5738110129	 0.1301354374	 0.11742
H	-1.9849729991	-0.0902548846	 0.8854149188	 0.117807
H	-2.2970410702	 0.9563248407	-1.3762306562	 0.156222
H	-1.6500534235	-0.4868238675	-2.1441086344	 0.151864
