20
gdb 66168	3.08093	1.03744	0.9515	4.4269	77.28	-0.2455	0.0308	0.2763	1330.0774	0.169505	-440.266689	-440.257086	-440.256141	-440.302029	34.431	
C	-0.3615643927	 1.7561450878	-0.2850153143	-0.438758
C	-0.1954689583	 0.2527146618	-0.1461708334	 0.416229
C	-1.5179345796	-0.5005537854	-0.2926683199	-0.129216
O	-2.523821223	-0.0161017089	 0.588002404	-0.188256
C	-2.5178901665	-0.5010940472	 1.851211805	 0.138392
N	-3.335450497	-0.0424441492	 2.6953675892	-0.446972
C	 0.9645378181	-0.4052863767	-0.9370103517	-0.337776
C	 1.5277326527	-0.7644597196	 0.4506268825	-0.066114
O	 0.4396830236	-0.094221625	 1.121897802	-0.322832
H	-0.7397962016	 2.0103984737	-1.2813932696	 0.116312
H	-1.0719474133	 2.1301315454	 0.4560285083	 0.15401
H	 0.5982464974	 2.2580416661	-0.1376612721	 0.118085
H	-1.9132567858	-0.3648432243	-1.304622868	 0.11974
H	-1.3498171705	-1.5735554972	-0.1302030195	 0.102852
H	-1.767935555	-1.2827709333	 2.0145112984	 0.097562
H	-3.2159830735	-0.5235599205	 3.5844255774	 0.227255
H	 0.6833972328	-1.2501199892	-1.5700333335	 0.109743
H	 1.5662130769	 0.2934401683	-1.519928992	 0.116309
H	 1.5590936432	-1.8354760954	 0.6854977749	 0.103461
H	 2.4965919421	-0.3207788311	 0.7062725121	 0.109975
