25
gdb 122141	2.06109	0.85735	0.66916	2.1357	86.36	-0.2478	0.0753	0.3231	1826.1721	0.226467	-426.628079	-426.616357	-426.615413	-426.666379	41.348	
C	 1.5000955411	 0.2394635566	-1.6406110607	-0.382798
C	 0.7480662662	-0.7250927451	-0.7203054859	-0.183474
C	 1.6175200894	-1.2321600053	 0.4226069536	-0.045022
O	 0.8417382157	-2.1010095248	 1.2311851494	-0.272942
C	 1.5207710689	-2.6538266405	 2.3642072155	 0.099068
C	 0.4713042602	-2.9332386843	 3.4414150321	-0.170073
C	-0.2840328997	-1.68288821	 3.8949339164	-0.38746
C	 2.2571234487	-3.9244294522	 1.9176853021	-0.067235
O	 1.3720034093	-4.8284793818	 1.2849011165	-0.422758
H	 2.3724617562	-0.2413459416	-2.0968136019	 0.117838
H	 0.8552796968	 0.5924447706	-2.4502982989	 0.119521
H	 1.8557205098	 1.1188512217	-1.0923742741	 0.11761
H	-0.1353984787	-0.2358799929	-0.2945092778	 0.108729
H	 0.3825022821	-1.5866239962	-1.2913772055	 0.103495
H	 2.5039423945	-1.7489616262	 0.0212507971	 0.090612
H	 1.9839509971	-0.3871676498	 1.0285839984	 0.090362
H	 2.253365638	-1.9234721888	 2.7449556525	 0.062124
H	-0.2252124266	-3.6830082501	 3.0518996579	 0.112908
H	 0.981588321	-3.3974971498	 4.2942696082	 0.093975
H	-0.7920428968	-1.2123788428	 3.0495276658	 0.128427
H	-1.0350501602	-1.9305875554	 4.6511117232	 0.110934
H	 0.3962315158	-0.9429957584	 4.3327767355	 0.106032
H	 3.0924518722	-3.6546495828	 1.250605854	 0.081443
H	 2.6868943985	-4.437294158	 2.7851327452	 0.103913
H	 0.8320415907	-4.283921302	 0.6973995214	 0.284771
