18
gdb 73096	2.93909	1.45833	1.21857	3.7811	71.81	-0.2422	0.0308	0.2731	1063.6552	0.148368	-439.122725	-439.114727	-439.113783	-439.155396	30.789	
C	 0.2412080392	 1.4124379573	-0.2570662342	-0.455672
C	-0.0768450017	-0.0352771948	 0.0576554651	 0.426643
C	-1.5601920015	-0.3823880787	 0.1788627334	-0.393157
C	-1.6620375666	-1.3622282704	 1.3544203517	 0.404734
O	-2.6442721059	-1.960076551	 1.7275874845	-0.369238
N	-0.4192570396	-1.4233976383	 1.9419731396	-0.305889
C	 0.6335138338	-0.7038688592	 1.2771689071	-0.098147
C	 1.4296251255	-1.4824335366	 0.2086713839	-0.091856
O	 0.6126833898	-0.9435369652	-0.850094622	-0.32127
H	 1.3221395811	 1.579760641	-0.2776737832	 0.122086
H	-0.1624117031	 1.6804294056	-1.2386632534	 0.13507
H	-0.2014993415	 2.0796597935	 0.4897894326	 0.121923
H	-2.1916575358	 0.4874345373	 0.385547783	 0.126968
H	-1.9274325228	-0.85580048	-0.7344552666	 0.147861
H	-0.2645153872	-2.0513069624	 2.7155637597	 0.251636
H	 1.2075183233	-0.0693699483	 1.9572107897	 0.089825
H	 2.480456663	-1.1802885749	 0.1101227893	 0.101346
H	 1.3659050301	-2.5743574248	 0.2704043298	 0.107137
