20
gdb 65378	3.24722	0.97294	0.95187	3.0229	81.98	-0.2395	-0.0214	0.2181	1352.1766	0.168425	-403.116289	-403.106807	-403.105863	-403.151099	34.854	
C	-0.1155177006	 1.6100376804	-0.1520135162	-0.474245
C	-0.0336738245	 0.111426241	 0.0325373943	 0.207687
C	 1.2641303291	-0.6246418427	-0.1922186623	-0.286447
N	 0.7131494141	-0.5292476122	 1.1390964263	-0.119773
C	 1.3758203287	 0.2953976686	 2.1123997905	 0.075606
C	 0.7165593919	 0.4232198012	 3.4582621616	-0.27413
C	 1.9616071884	-0.4164459669	 3.3032999534	-0.277156
C	-1.2834492102	-0.6482663437	-0.2834253179	 0.140583
O	-2.2629218868	-0.1690210848	-0.7971886022	-0.264133
H	 0.8632098147	 2.0885006887	-0.0870605429	 0.117103
H	-0.5444664608	 1.828620412	-1.1330511673	 0.144012
H	-0.7736129172	 2.0590771247	 0.598237048	 0.136662
H	 1.2779802731	-1.615571274	-0.6408674573	 0.120076
H	 2.115405137	 0.0042647233	-0.4505332909	 0.118643
H	 1.9241711022	 1.1618535127	 1.7424191125	 0.079856
H	 0.787559372	 1.3733233534	 3.9753311656	 0.115289
H	-0.2227881861	-0.1007495005	 3.5904078637	 0.124214
H	 1.8429246209	-1.4930169928	 3.3311486469	 0.124477
H	 2.8949373324	-0.045442099	 3.7114194576	 0.113818
H	-1.2315819981	-1.7207719093	 0.0080436767	 0.077858
