15
gdb 20728	6.85376	1.2768	1.09095	3.2623	63.22	-0.2438	0.0234	0.2672	1053.387	0.119752	-396.011894	-396.003765	-396.00282	-396.046543	27.768	
C	-0.0091287109	 1.4431204141	-0.0279032557	-0.482409
C	 0.0008449225	-0.0475151369	 0.0214066506	 0.334078
N	-0.0513999094	-0.7971134427	-1.0710904438	-0.267042
N	-0.0181972411	-2.0532948439	-0.558794692	-0.217875
C	 0.0494905553	-2.0097860052	 0.7830717469	 0.368617
C	 0.1018263496	-3.2387231085	 1.6322689058	-0.194825
O	 0.0280655886	-4.3576266891	 0.7623130529	-0.42882
N	 0.0638849966	-0.7556954965	 1.1919956914	-0.364073
H	 0.8951998126	 1.8523666188	 0.4334143215	 0.136483
H	-0.0648292924	 1.7841753741	-1.0629641258	 0.138153
H	-0.8645376955	 1.843532325	 0.5252907726	 0.136585
H	-0.0475420081	-2.8671937515	-1.1498377939	 0.285844
H	 1.033442881	-3.2332797637	 2.2173576238	 0.126676
H	-0.7325467586	-3.2171212474	 2.3486888147	 0.127365
H	 0.08617709	-5.1592379265	 1.2885498709	 0.301243
