12
gdb 25321	2.32565	1.59607	0.9465	5.5103	71.88	-0.2644	-0.0823	0.1821	1111.0215	0.079299	-431.726168	-431.718855	-431.717911	-431.75849	25.902	
O	-0.0325337068	-0.0547086523	-0.0024964743	-0.24493
C	 0.0145877632	 1.149708782	 0.0074894132	 0.074569
C	 1.2598746479	 1.9366455529	 0.0010119287	 0.097927
C	 1.3440208117	 3.3256429451	 0.0123203979	 0.192393
N	 2.6908177597	 3.6046151396	 0.0000260449	-0.324116
C	 3.3449815858	 2.4080640957	-0.017189662	 0.033816
N	 2.517438459	 1.392252406	-0.0171857877	-0.274783
C	 0.3536299019	 4.3299294766	 0.0317524464	 0.229216
N	-0.4542211333	 5.1606363293	 0.0476612711	-0.331785
H	-0.9052695031	 1.773315628	 0.0227559996	 0.092988
H	 3.100851562	 4.5258681309	 0.0035070502	 0.292973
H	 4.4232450222	 2.3473467461	-0.029302608	 0.161731
