23
gdb 95206	2.42688	1.57953	1.14218	1.3804	84.51	-0.2507	0.0664	0.3171	1169.8425	0.207827	-388.29626	-388.287575	-388.286631	-388.329013	35.194	
C	-0.0085496735	 1.5796896465	-0.0194944953	-0.439708
C	 0.0459524293	 0.0481215944	-0.0289088267	 0.047283
C	 0.688769614	-0.5033334136	-1.308583365	-0.208378
C	 0.4660847814	-2.0180584587	-1.4228408053	-0.229709
C	 0.8391013334	-2.770343588	-0.1566994497	-0.006561
C	 2.1823384085	-2.5911896039	 0.4920276977	-0.27594
C	 0.9510676136	-2.0266761141	 1.1624958692	-0.041216
C	 0.7563640171	-0.513283173	 1.2242321523	 0.084309
O	 2.040614026	 0.0849044574	 1.4233715888	-0.43337
H	 0.9890903869	 2.0163317325	-0.1437762612	 0.116085
H	-0.6261967485	 1.9527216438	-0.842475747	 0.11649
H	-0.4372337473	 1.9643919003	 0.914078338	 0.106518
H	-0.9875188485	-0.3264521235	 0.0170407128	 0.067633
H	 0.2657800217	-0.0054891029	-2.1885031211	 0.085536
H	 1.7589147673	-0.2625652394	-1.3009514902	 0.107697
H	-0.5977450323	-2.1947993379	-1.632225028	 0.09195
H	 1.0191969654	-2.4232725707	-2.2794429525	 0.092815
H	 0.4166541388	-3.7697660356	-0.0952132358	 0.074799
H	 2.6559042068	-3.4545539566	 0.9464350507	 0.101741
H	 2.8782774135	-1.8773244242	 0.0678150603	 0.126484
H	 0.6104411691	-2.5561252349	 2.0460701071	 0.078396
H	 0.1196965219	-0.2903266249	 2.0946296109	 0.056519
H	 1.9041308053	 1.022321027	 1.5922488501	 0.280627
