21
gdb 107977	2.58402	1.45654	1.39841	0.8781	83.46	-0.2436	0.0993	0.343	1098.3431	0.181467	-387.01639	-387.007662	-387.006718	-387.049551	33.671	
C	-0.0069815761	 1.3372744397	 0.0404086437	-0.262009
O	-0.0797914083	-0.0763825988	 0.0031281538	-0.299133
C	-1.3614341949	-0.5752599263	 0.0605354358	 0.429312
C	-2.4112311696	-0.4603090661	 1.188652077	-0.342387
C	-3.0500010487	-1.371442593	 0.1185092371	-0.087678
C	-2.4550138846	-0.5578050968	-1.0763794455	-0.115298
C	-1.8655065527	-1.8162896219	-1.7409757012	-0.314639
C	-1.6844806646	-2.0795965751	-0.2271280024	 0.291425
C	-1.0749320926	-3.2729610633	 0.4558179547	-0.522044
H	 1.0504596665	 1.6052063009	-0.012627053	 0.127673
H	-0.5352052028	 1.7912231198	-0.8098248071	 0.111474
H	-0.430792421	 1.7404930778	 0.970613173	 0.113811
H	-2.1605809217	-0.9204266295	 2.1496869645	 0.094082
H	-2.8828574195	 0.5161062664	 1.3389730728	 0.089527
H	-4.0273823542	-1.8501770659	 0.1293987347	 0.075334
H	-2.9114203801	 0.3216284299	-1.5326175091	 0.065766
H	-2.5690633328	-2.4684317604	-2.2695053685	 0.084437
H	-0.9503568005	-1.6825772692	-2.3256550254	 0.096993
H	-0.0261630681	-3.3936626003	 0.1637603327	 0.127532
H	-1.1075224665	-3.1702781651	 1.5461397977	 0.118801
H	-1.6058749073	-4.1935186528	 0.1894106949	 0.117019
