16
gdb 36463	2.88614	1.09756	0.85418	5.2038	75.2	-0.2721	0.012	0.2841	1302.4821	0.122937	-400.706387	-400.697506	-400.696562	-400.741184	31.44	
C	-0.1922685098	-1.2463500855	-0.1777059052	-0.459135
C	-0.1335363434	-0.049563854	-0.0751004322	 0.335617
C	-0.0504103305	 1.3882828231	 0.0616853507	-0.269005
C	 0.0396821496	 1.9812217025	 1.4966297556	-0.075718
O	 1.2805167859	 2.6464974333	 1.1923624452	-0.275142
C	 1.3365719182	 2.0868201687	-0.1281925557	 0.138195
C	 2.5460311796	 1.1690512727	-0.3287699902	-0.364064
C	 3.8032269605	 1.9119984307	-0.3080011867	 0.268092
N	 4.7941699525	 2.5057425581	-0.3036396349	-0.299549
H	-0.2540318325	-2.3027887928	-0.27107909	 0.209334
H	-0.8251471893	 1.8701500804	-0.539762991	 0.123681
H	-0.7532157356	 2.6880571858	 1.7618081601	 0.119059
H	 0.1513274741	 1.2373003158	 2.2924128806	 0.120766
H	 1.3361923543	 2.8719056291	-0.8930269746	 0.10528
H	 2.5621271194	 0.4014627363	 0.4509205133	 0.162918
H	 2.4516006069	 0.6506549358	-1.2899555549	 0.159671
