14
gdb 44401	3.85828	1.53595	1.50851	2.5628	68.27	-0.26	-0.0446	0.2154	889.4694	0.1001	-436.521628	-436.515145	-436.5142	-436.552265	26.427	
N	-0.016114293	 1.2489203139	-0.2821095512	-0.543169
C	 0.0258912017	 0.0358367204	-0.0067219903	 0.351099
O	 1.144122874	-0.8340013702	 0.2212866309	-0.295259
C	 0.204516091	-1.7130867847	 0.9948391967	 0.093983
C	-0.7547971184	-2.9876170247	 0.8870667418	-0.077284
O	-1.8313592618	-1.9557241075	 1.0935158128	-0.3464
C	-0.9042289448	-1.1631545633	 0.1876827409	 0.245636
C	-0.9438588275	-2.0247256029	-1.085742613	-0.114472
C	-0.8444135509	-3.2615678896	-0.6017557941	-0.052052
H	 0.9163975795	 1.6591502942	-0.3502986323	 0.246511
H	 0.2545614705	-1.3837939906	 2.0322911144	 0.126772
H	-0.7796822232	-3.7806700948	 1.6324869499	 0.103454
H	-1.0320915904	-1.6451188151	-2.0919376851	 0.131682
H	-0.8302385166	-4.2248559652	-1.0882926815	 0.129499
