15
gdb 43159	2.80905	1.52528	1.2518	5.3769	70.23	-0.2458	-0.035	0.2108	1002.6825	0.114497	-416.797124	-416.78992	-416.788976	-416.828916	27.498	
O	 0.0177440806	-0.0504844423	 0.1668471539	-0.29611
C	-0.0032939761	 1.1364272682	 0.1260893739	 0.470664
C	-1.0735391392	 2.2500805418	 0.0211524069	-0.158623
C	-0.7281908862	 3.0313866491	 1.3078940621	-0.195869
N	 0.7743532709	 2.9910266624	 1.2634748329	-0.299065
C	 1.0195009063	 2.294395851	-0.0028539591	-0.131343
C	-0.0630327973	 2.917609927	-0.9908893603	-0.188994
C	-0.0792665641	 2.3875308057	-2.3393821644	 0.271289
N	-0.073663893	 1.9707720717	-3.4181887892	-0.315371
H	-2.1162078218	 2.0651124952	-0.2221232363	 0.116116
H	-1.1179054576	 4.0539996466	 1.2896651772	 0.117491
H	-1.1088079765	 2.5312796754	 2.2036420438	 0.135005
H	 1.1586524825	 3.9290730182	 1.2357455377	 0.234164
H	 2.0623286909	 2.1631386353	-0.2776799211	 0.115998
H	-0.0764116393	 4.0104714145	-1.0023748679	 0.124648
