23
gdb 94319	2.50878	1.35036	1.09477	1.63	86.35	-0.2191	0.0783	0.2974	1253.9504	0.203569	-388.270556	-388.260496	-388.259552	-388.305221	37.925	
C	-0.3517707129	 1.4100830453	 0.0608327005	-0.406769
C	 0.0675441464	-0.0475300141	-0.0668900511	-0.122435
C	 1.4177478162	-0.3336202695	-0.7654711068	-0.086331
O	 1.9614989804	-0.949546766	 0.423082085	-0.311109
C	 0.7457933865	-0.7076372911	 1.1381799874	 0.43704
C	 0.7642864734	-0.3130257079	 2.5834849914	-0.408529
C	 0.2256368005	-1.679038116	 2.1556175794	 0.249866
C	-1.2717062613	-1.9030081318	 2.2391629185	-0.454617
C	 1.076151243	-2.8975139319	 2.4582859164	-0.451877
H	 0.4612866053	 2.018875456	 0.4695503367	 0.124316
H	-0.629332638	 1.8237615751	-0.9147863548	 0.115637
H	-1.2170134114	 1.5191294818	 0.7236032108	 0.118463
H	-0.7545984864	-0.6458029951	-0.4711379583	 0.080706
H	 1.3887303453	-1.032743952	-1.6091405077	 0.101328
H	 1.9867809296	 0.5588174913	-1.0551862176	 0.099063
H	 1.7359941119	-0.2828474232	 3.0666136462	 0.115373
H	 0.061515818	 0.4384465393	 2.9322990083	 0.104825
H	-1.8346875324	-1.0009210886	 1.9788236635	 0.111404
H	-1.591457004	-2.7032380917	 1.5609064537	 0.113773
H	-1.5658707272	-2.1928261786	 3.2549488539	 0.116307
H	 0.9425835577	-3.2199343602	 3.4975132968	 0.109527
H	 0.7975570508	-3.736800939	 1.8102556047	 0.111216
H	 2.1362713584	-2.6931028421	 2.292432833	 0.13282
