19
gdb 93362	2.35992	1.77612	1.36414	4.67	74.79	-0.2396	0.0449	0.2846	1016.4052	0.161948	-419.229462	-419.22147	-419.220526	-419.261815	31.225	
C	-0.1078969776	 1.5900108806	-0.1049610364	-0.408849
C	-0.0003927608	 0.064429782	 0.0125686427	-0.022257
C	 0.7371302235	-0.5612810114	-1.1933422163	-0.15942
N	 2.1531289007	-0.2180585613	-1.1436343562	-0.313038
C	 2.8333237303	 0.0273409527	 0.0250050454	 0.387146
O	 3.9027600043	 0.5982317474	 0.070758549	-0.387338
N	 2.1969840542	-0.5129851539	 1.1640793204	-0.115302
C	 1.597549753	 0.3860849442	 2.1403842811	-0.250215
C	 0.7350729031	-0.4515341313	 1.2489937617	-0.027015
H	 0.8712863226	 2.0681187595	-0.2022055981	 0.13962
H	-0.6930440504	 1.859761612	-0.9903330804	 0.115923
H	-0.6058893635	 2.0165545341	 0.7701310604	 0.124053
H	-1.0144403445	-0.3490819264	 0.0342807332	 0.083311
H	 0.5983432309	-1.6510856329	-1.1798740829	 0.113627
H	 0.3237720726	-0.1942254816	-2.1378966678	 0.10985
H	 2.6009915931	 0.159149361	-1.9627966531	 0.252782
H	 1.727513829	 0.100596484	 3.1805231095	 0.124022
H	 1.6710012529	 1.452338397	 1.9489294402	 0.133294
H	 0.3030383068	-1.3503907257	 1.6853935177	 0.099806
