18
gdb 108448	2.25141	1.73862	1.23533	2.5043	72.34	-0.2221	-0.0288	0.1933	1063.1237	0.14635	-439.043609	-439.034889	-439.033945	-439.077356	31.996	
C	 0.0924521402	 1.4590003283	 0.051863788	-0.272709
O	 0.0678550819	 0.0353233364	 0.001815636	-0.289253
C	 0.6388125367	-0.5678050192	 1.1120229933	 0.315716
C	 2.189447829	-0.5539890617	 1.269251462	-0.245468
N	 2.1768262385	-2.0071306086	 1.6001395536	-0.318305
C	 0.7296408905	-2.1230984172	 1.2787808953	-0.096043
C	-0.1386147576	-2.0756330861	 2.5637277844	-0.330392
C	-0.1578249942	-0.5371256524	 2.4464110731	 0.340238
O	-0.6772769295	 0.3419172011	 3.0725471503	-0.299696
H	 1.1234886472	 1.8405512646	 0.0726461514	 0.111459
H	-0.3954231438	 1.811094976	-0.8591548089	 0.130105
H	-0.4448439653	 1.8367133805	 0.9281448731	 0.146992
H	 2.6476745609	-0.315846078	 0.3017871499	 0.110852
H	 2.6297137562	 0.0807562265	 2.0446329709	 0.11498
H	 2.7701377409	-2.5578669936	 0.9916902842	 0.226346
H	 0.4430928039	-2.8149310304	 0.4872357628	 0.08486
H	-1.1477287699	-2.4832526328	 2.4336910787	 0.13398
H	 0.3122217646	-2.4922196633	 3.4664275719	 0.136337
