20
gdb 93634	1.93224	1.62471	1.32461	4.0352	77.3	-0.2319	0.0184	0.2503	1102.7581	0.173534	-399.33568	-399.326612	-399.325668	-399.369459	34.331	
C	 0.457354416	 1.6483299712	 0.0481345419	-0.417615
C	 0.2396231767	 0.135036943	-0.0427724748	 0.018229
C	 1.0942916929	-0.5231464547	-1.1685396424	-0.193134
N	 1.8152383058	-1.682529009	-0.602006406	-0.279744
C	 1.960487519	-1.3902652421	 0.8232228939	-0.201018
C	 3.1302640127	-0.5300595392	 1.0685780609	 0.315914
N	 4.0107411511	 0.1836278861	 1.2974433743	-0.336126
C	 0.633821273	-0.65430297	 1.24844944	 0.012516
N	 0.6303551647	 0.1377634152	 2.4628372051	-0.515009
H	 1.5131421555	 1.8946865702	 0.2069555846	 0.131992
H	 0.1473282422	 2.1304708484	-0.8846639659	 0.114658
H	-0.1239416288	 2.0803633842	 0.8661993694	 0.133738
H	-0.8231875723	-0.0425914727	-0.2334792457	 0.079154
H	 0.501295981	-0.8453617572	-2.027510473	 0.107727
H	 1.8338853554	 0.1965709033	-1.5386312424	 0.123692
H	 1.2491859601	-2.5194770524	-0.6919447876	 0.227877
H	 2.1080262708	-2.3149230661	 1.3897545757	 0.115291
H	-0.0963181988	-1.4589584568	 1.3909698773	 0.084011
H	 0.7635394326	-0.4539373915	 3.2765026551	 0.231955
H	 1.3924599503	 0.8097635702	 2.4617741397	 0.245893
