18
gdb 85127	2.00559	1.56118	1.4124	2.0687	74.11	-0.2232	-0.055	0.1682	1069.1522	0.143663	-439.082978	-439.073256	-439.072312	-439.117454	34.46	
C	-0.1669474502	 1.5309752876	 0.0878329161	-0.339064
N	-0.0691888986	 0.0861810787	 0.1953520174	-0.108143
C	-1.2681252138	-0.7221954926	 0.4783896852	-0.281473
C	-0.3565278119	-1.6836626936	 1.2378744404	 0.37565
O	-0.4144645559	-2.8012456835	 1.6433484137	-0.283389
C	 0.7722137415	-0.5942848151	 1.2040011859	 0.079514
C	 2.1489663329	-1.0541650198	 0.733010261	-0.452549
C	 0.8329916214	 0.0445880985	 2.5880290774	 0.129049
O	 0.0503258244	 0.8648433954	 2.9975438845	-0.257994
H	 0.835111532	 1.9534676669	-0.0375893	 0.121566
H	-0.7388399093	 1.7757640844	-0.8137932506	 0.122725
H	-0.6411704687	 2.0126709697	 0.9525408794	 0.133616
H	-1.993653306	-0.2501149725	 1.1617210546	 0.135104
H	-1.7991001922	-1.1144445553	-0.3964798668	 0.130357
H	 2.0625715346	-1.5767147229	-0.2212594004	 0.138026
H	 2.8254591606	-0.2030978196	 0.5991997383	 0.129159
H	 2.5953114483	-1.7342998356	 1.4651621195	 0.137602
H	 1.6632225709	-0.3306933208	 3.2279838744	 0.090241
