19
gdb 67713	2.19588	1.96087	1.68089	0.9086	73.18	-0.2358	0.0776	0.3134	937.2741	0.161771	-423.023507	-423.016254	-423.01531	-423.054892	29.611	
O	-0.0535152064	 1.3462417691	-0.0660118129	-0.472874
C	 0.0230485452	-0.0369008524	-0.0114916286	 0.375735
C	-1.1927723376	-0.9110541614	 0.0076494538	-0.089264
C	-1.0701271783	-2.0134210758	-1.0446431689	-0.241228
C	 0.2362438143	-1.671829329	-1.8077625763	-0.212005
C	 1.0688527143	-0.8452551476	-0.8121517571	 0.016978
O	 1.7386099977	-1.689025954	 0.1304343049	-0.275547
C	 0.8885100955	-1.9320007752	 1.2547876185	-0.096609
C	-0.2177133054	-0.8967599457	 1.1952958722	-0.162884
H	 0.6981023162	 1.7096735419	 0.4157912743	 0.284655
H	-2.1615549433	-0.4667890213	 0.2072381672	 0.091559
H	-1.0214304075	-3.0080014432	-0.587258728	 0.106151
H	-1.9383400745	-2.017037384	-1.7091198793	 0.101723
H	 0.7840906616	-2.5478049988	-2.1639962976	 0.103136
H	 0.0007281061	-1.0424047611	-2.6736907472	 0.102507
H	 1.8238138227	-0.2184270378	-1.2937011176	 0.077871
H	 0.5087328399	-2.9643913164	 1.2237065095	 0.095741
H	 1.4845156504	-1.8257066378	 2.1694967894	 0.101478
H	-0.5862828009	-0.4591348596	 2.1160736637	 0.092877
