22
gdb 64446	2.14954	1.65047	1.22517	3.1117	81.91	-0.2201	-0.0104	0.2096	1142.6601	0.194513	-404.380908	-404.371631	-404.370686	-404.414394	36.126	
C	 0.0510384847	 1.5283937478	-0.0548353629	-0.410093
C	-0.0117500205	 0.000299069	 0.0053048849	 0.159755
C	-1.4910512821	-0.4551595356	 0.1098189949	-0.427344
N	 0.6902454846	-0.5298771406	-1.1799648761	-0.319478
C	 0.8895541321	-1.9749585917	-1.2330661718	-0.159946
C	 1.7906624289	-2.3920321863	-0.0723622279	-0.185572
C	 1.1588509269	-1.9657138596	 1.262043944	-0.306299
C	 0.7274446932	-0.5050075817	 1.2657751653	 0.408478
O	 0.9086799337	 0.2099842637	 2.2232957706	-0.320539
H	 1.086855657	 1.8624841371	-0.1461143044	 0.125396
H	-0.5090187772	 1.8939412624	-0.9229990077	 0.0973
H	-0.3766278835	 1.9684313143	 0.8473680901	 0.131945
H	-2.0503122613	-0.0823747974	-0.7556000595	 0.112643
H	-1.5931195948	-1.5433975625	 0.1320495255	 0.116964
H	-1.9601735747	-0.0543972584	 1.0137304207	 0.131396
H	 0.2182303332	-0.2030331492	-2.0167696443	 0.213789
H	-0.0482827075	-2.5603788133	-1.1955846031	 0.078494
H	 1.3690336667	-2.2107092762	-2.1888618566	 0.101255
H	 1.9558211955	-3.4744452968	-0.082562197	 0.097187
H	 2.7652090535	-1.9058052245	-0.1903488984	 0.114411
H	 0.2557852022	-2.5681201981	 1.4387187765	 0.120198
H	 1.8229831797	-2.1232919125	 2.1152805475	 0.120057
