19
gdb 37119	3.62045	1.55799	1.45218	2.0552	76.81	-0.2089	0.0655	0.2745	965.941	0.161092	-385.816201	-385.809414	-385.80847	-385.846849	28.915	
C	 0.0224257361	 1.4551621756	-0.0805112077	-0.382363
C	 1.3464406755	 0.7466745369	 0.0286376493	 0.215122
C	 2.0254558469	 0.5370427738	 1.365170589	-0.289866
C	 0.8870019116	 0.0416879671	 2.3026955477	-0.214363
C	-0.0925129803	-0.7367477398	 1.3780362162	-0.289866
C	 0.0286596445	-0.0458796657	 0.0366388572	 0.215122
C	 0.4821896569	-0.7424862165	-1.2880278523	-0.041575
O	 0.7280461512	 0.2596838089	-2.2811348356	-0.234823
C	 1.737384706	 0.0124425285	-1.295659015	-0.041577
H	-0.3062923647	 2.0105277699	 0.7915703888	 0.113528
H	-0.2506026035	 1.8995594294	-1.0285689846	 0.137061
H	 2.7873627662	-0.2461276522	 1.259139063	 0.098964
H	 2.5337831199	 1.4218489131	 1.7637291538	 0.10142
H	 1.2593164152	-0.5690120337	 3.1302877455	 0.098927
H	 0.3747909046	 0.8979085027	 2.7535893474	 0.108166
H	 0.241206617	-1.7774376756	 1.2746156224	 0.098964
H	-1.1087730106	-0.7688489248	 1.7858509531	 0.10142
H	 0.2180461523	-1.7350631975	-1.635813547	 0.102869
H	 2.7348454249	-0.2213508101	-1.6511143512	 0.10287
