18
gdb 22819	2.58253	1.35612	1.07206	0.9159	76.73	-0.24	0.0035	0.2435	1160.9791	0.147819	-439.05682	-439.048268	-439.047324	-439.09008	32.708	
O	-0.0534300737	 1.3408874862	-0.1949857246	-0.393437
N	 0.0423159541	-0.0575948033	-0.1210351634	-0.211602
C	-1.0949643446	-0.6142619248	 0.0481537416	 0.35483
C	-2.418618934	 0.0937973875	 0.1742573836	-0.342397
C	-3.4234974483	-0.6963361954	 0.9707232503	-0.046273
C	-3.1991714664	-1.9159362546	 1.4523524823	-0.051907
C	-1.911087145	-2.6686348145	 1.2443142907	-0.26706
C	-1.0945580425	-2.1255187152	 0.0691919307	 0.038589
O	-1.7180245831	-2.6147840496	-1.1222628425	-0.43477
H	 0.8701462307	 1.6029300183	-0.2712778961	 0.307121
H	-2.2526190297	 1.0787120537	 0.6238826847	 0.140032
H	-2.8153468696	 0.3030084332	-0.8307098758	 0.133143
H	-4.3770212049	-0.2069782998	 1.1513817133	 0.087574
H	-3.9685920073	-2.4136370655	 2.0367073491	 0.087195
H	-1.3004977573	-2.633381765	 2.157010207	 0.115115
H	-2.1122659553	-3.7280550709	 1.0489543731	 0.118812
H	-0.0561850679	-2.4737920263	 0.1343487788	 0.079962
H	-1.2087662051	-2.2795988841	-1.8681150426	 0.285075
