16
gdb 23601	3.91188	1.22791	1.16386	2.07	71.96	-0.2421	0.0033	0.2454	1073.2548	0.123648	-437.772727	-437.765419	-437.764474	-437.804584	28.737	
O	-0.143874202	 1.3339003579	-0.0312127685	-0.389995
N	 0.023429945	-0.0621338087	 0.0031938955	-0.250092
C	-1.0940839111	-0.6534801451	-0.0461344179	 0.459501
C	-2.5582291747	-0.2364360652	-0.0591554856	-0.342492
C	-2.934438716	-1.7493849949	 0.0454458639	-0.067428
C	-3.0954662067	-2.5188162661	-1.2906255205	 0.016157
O	-2.2128120622	-1.9250856509	-2.2484793406	-0.233598
C	-1.6637138553	-2.8649213903	-1.3218540352	 0.027709
C	-1.4073830591	-2.1348322498	 0.0291989394	-0.183191
H	 0.7653757385	 1.648098124	 0.0167504633	 0.306479
H	-2.8410203581	 0.3598404379	 0.8134111852	 0.124811
H	-2.8854304276	 0.2784255901	-0.9647984484	 0.137377
H	-3.5808732233	-2.0682608568	 0.8607409584	 0.084167
H	-3.9672506175	-3.0333838955	-1.6790176274	 0.107045
H	-1.1308376863	-3.7125269032	-1.7373278007	 0.111758
H	-0.9454019635	-2.7389691136	 0.8095866392	 0.091791
