17
gdb 99403	2.09129	1.34033	0.83762	5.6286	76.2	-0.2338	-0.083	0.1508	1345.1729	0.13233	-455.148323	-455.13772	-455.136776	-455.185448	35.206	
C	 1.3983178293	-0.6934664713	-0.1744976858	-0.311485
N	 0.0513208293	-0.1335117261	-0.1775484418	-0.364973
C	-1.1336862998	-0.8029943444	-0.1940407858	 0.304429
N	-2.3154842807	-0.2913352533	-0.2513159793	-0.277025
C	-2.4456507285	 1.1458246309	-0.3581096944	-0.348676
C	-1.1635405998	-2.3051901567	-0.2013972281	 0.255157
O	-0.212077386	-3.0181571528	-0.4133311785	-0.295382
C	-2.563775409	-2.9144665608	 0.0448753195	 0.111655
O	-2.9364310319	-3.8727737829	-0.5765997579	-0.231626
H	 2.0968785292	 0.1268737122	 0.0057579345	 0.12343
H	 1.5194510701	-1.4322752388	 0.6189233926	 0.153061
H	 1.6539823052	-1.1742850016	-1.1232271321	 0.147079
H	-0.0130914318	 0.864679049	-0.2845729068	 0.250678
H	-2.0248132874	 1.6620412802	 0.520565067	 0.120178
H	-1.937133395	 1.5490628092	-1.2495369288	 0.118159
H	-3.5016861441	 1.4147477292	-0.4271022573	 0.136642
H	-3.157920689	-2.4492924622	 0.8522858628	 0.108698
