20
gdb 99140	3.91052	0.75374	0.70582	3.3096	77.11	-0.2389	0.0402	0.279	1658.1829	0.169365	-440.297554	-440.287173	-440.286229	-440.334845	36.451	
C	-0.0010767307	 1.2726440953	-0.5528579466	-0.332822
N	-0.181162706	-0.1396814825	-0.2822132372	-0.315052
C	-1.3587110715	-0.6579030018	 0.1760438989	 0.425582
O	-2.3528708763	 0.0214057393	 0.3668492886	-0.381647
C	-1.3287858794	-2.1583962032	 0.4633823714	-0.341541
C	-2.6346597854	-2.820144416	 0.0819312781	 0.012362
C	-2.8291856058	-3.3907012969	-1.3100693032	-0.322571
C	-2.7055663393	-4.3037048827	-0.1136358393	 0.073666
O	-1.5179812192	-5.0218254956	 0.0815191931	-0.419727
H	 0.7738955957	 1.7095156871	 0.0874919438	 0.123026
H	 0.2712917695	 1.4478051561	-1.5997945882	 0.122659
H	-0.9528985925	 1.763056704	-0.3454829151	 0.171417
H	 0.5973226607	-0.7625426681	-0.4161060198	 0.243384
H	-0.4882818298	-2.65245031	-0.0318573548	 0.102788
H	-1.1612833689	-2.2721927195	 1.5430899801	 0.131499
H	-3.5012507038	-2.3458526809	 0.528728661	 0.111988
H	-3.792259835	-3.2795913022	-1.7959429568	 0.11375
H	-1.9750168459	-3.3581983738	-1.9797623838	 0.106435
H	-3.6038904968	-4.8146050356	 0.232957734	 0.086926
H	-1.4946264197	-5.7337219131	-0.566048894	 0.28788
