16
gdb 46649	2.37223	1.56739	1.38866	2.8194	74.49	-0.2188	-0.0214	0.1974	1004.7218	0.124462	-400.710798	-400.702983	-400.702039	-400.743216	30.178	
O	 0.0308261562	 0.0054444286	 0.1649471338	-0.321557
C	-0.0166847563	 1.195363458	-0.0164122534	 0.413027
C	-1.2902007551	 2.0029655996	-0.3346465448	-0.298676
N	-0.86529241	 3.3382139801	-0.7893413327	-0.302751
C	 0.560373985	 3.4582728548	-0.5452277414	-0.021345
C	 1.0193353716	 3.3865729213	 0.8859711105	-0.237153
C	 0.1303844815	 3.4505401884	 2.0080056694	 0.345057
C	-0.5952522828	 3.5268545139	 2.9640076102	-0.440498
C	 1.1362690051	 2.1481705259	-0.0390574887	-0.209302
H	-1.8806565847	 1.4803162805	-1.0916755211	 0.132271
H	-1.8959943562	 2.0642811477	 0.5765510014	 0.152794
H	-1.0290349784	 3.4298988934	-1.7840514852	 0.232256
H	 1.0999043099	 4.1077258739	-1.224096336	 0.10916
H	 1.9891034059	 3.8442441943	 1.0618011386	 0.129931
H	-1.2402703282	 3.5954061663	 3.8047667603	 0.201109
H	 2.1253295366	 1.7628277132	-0.2490378309	 0.115676
