14
gdb 10021	3.54062	1.28847	0.98103	3.5342	63.76	-0.2376	-0.0419	0.1956	1119.0381	0.104035	-415.870611	-415.861924	-415.86098	-415.904353	29.638	
N	-0.0979489805	 1.4297694662	-0.1574183198	-0.50141
C	-0.2412819776	 0.0811295578	-0.3175111452	 0.130533
N	-0.8874209096	-0.6353206224	 0.5160028397	-0.254409
C	-0.9652844615	-2.0449947978	 0.2734907539	-0.147655
C	-1.5954173792	-2.7574508902	 1.4690865593	 0.134055
O	-1.7849661483	-3.9454664159	 1.508736549	-0.254068
C	-1.749101896	-2.4393336509	-0.9970452219	 0.151592
O	-1.9780312853	-1.6836351899	-1.9006017351	-0.237441
H	 0.1342098487	 1.979142582	-0.9677618848	 0.262641
H	-0.7182212823	 1.866981903	 0.5081654907	 0.26152
H	 0.2936712321	-0.3112342893	-1.1896764661	 0.104548
H	 0.0154126787	-2.5384662444	 0.1259833177	 0.128195
H	-1.8808921688	-2.0677431202	 2.290451721	 0.105351
H	-2.0645922505	-3.502469348	-1.0054711683	 0.116548
