16
gdb 23456	3.1764	1.25745	1.15835	1.2341	68.37	-0.2354	-0.0001	0.2353	1088.1995	0.12367	-474.952667	-474.94461	-474.943666	-474.985429	30.493	
O	-0.1530002233	 1.3208546918	-0.0478713835	-0.397872
N	 0.00423707	-0.0768787296	-0.1285965153	-0.23636
C	-1.1193824316	-0.6536261189	 0.0264294151	 0.417304
C	-2.4580810732	-0.0032597975	 0.2854667124	-0.173275
O	-3.3922809589	-1.0700580544	 0.5083574319	-0.283847
C	-2.7323185247	-2.3168699782	 0.4848212254	 0.023892
C	-2.3185116926	-2.7396687065	-0.8887780719	 0.095097
O	-2.8030531823	-2.0346109218	-1.9818704055	-0.425265
C	-1.2864922098	-2.1198973263	 0.071191089	-0.239243
H	 0.7488290741	 1.6363583348	-0.1677222613	 0.310092
H	-2.4177560084	 0.6473272268	 1.1678093124	 0.139655
H	-2.7801954098	 0.6037998653	-0.5678672032	 0.136705
H	-3.0710204108	-3.0021742969	 1.2539092054	 0.110326
H	-2.1755065482	-3.8005997559	-1.0791637035	 0.109287
H	-3.590137414	-1.5635892702	-1.6765939198	 0.29884
H	-0.4714609564	-2.7365653424	 0.4266345225	 0.114663
