18
gdb 41122	3.83142	1.94364	1.53336	1.4273	78.59	-0.2254	-0.0017	0.2237	876.0875	0.150908	-364.737576	-364.731646	-364.730701	-364.767369	26.216	
C	-0.0375371039	 1.4835596405	-0.0141315136	-0.157943
C	 1.4891022054	 1.8674339097	-0.0265714782	-0.381718
C	 2.0259284555	 0.4543591633	-0.0048025762	 0.363838
C	 3.3779229321	-0.2236709218	 0.0013699799	-0.249282
C	 3.0643284539	-1.5266356172	 0.0246046948	-0.095457
C	 1.5341752904	-1.5788110904	 0.0314614646	-0.111762
C	 1.0751609945	-0.3929664913	 0.9245295854	-0.029659
N	-0.0677094299	-0.0095560425	 0.0112096663	-0.156136
C	 1.0680429939	-0.4237441121	-0.8975352892	-0.029659
H	-0.5595313229	 1.8701998955	 0.8659321188	 0.105837
H	-0.5664249257	 1.8403196957	-0.9026595308	 0.105837
H	 1.775802721	 2.4258234796	-0.9228751944	 0.103092
H	 1.7827134356	 2.4557248744	 0.8481080481	 0.103092
H	 4.3529533519	 0.2423712445	-0.0103135328	 0.107064
H	 3.727010387	-2.3812445089	 0.0364529994	 0.106045
H	 1.0120977479	-2.5339646362	 0.0496351765	 0.07315
H	 0.9916539119	-0.3467884944	 2.0154614754	 0.071831
H	 0.9760110614	-0.4144271083	-1.9887189739	 0.071831
