17
gdb 26960	3.0538	1.39892	1.03996	2.5135	76.88	-0.1885	0.0394	0.2279	1141.5273	0.138598	-414.187885	-414.179818	-414.178873	-414.220811	30.504	
N	 0.1173607622	 1.4296219775	 0.1436765232	-0.615083
C	 0.0260592062	 0.034123914	 0.0379770273	 0.202716
C	-1.0315061307	-0.8082363382	-0.1974077483	 0.281706
N	-0.5968217994	-2.1120058376	-0.3144869935	-0.313555
C	 0.7020234559	-2.0650559984	-0.1466188989	-0.005416
N	 1.1360030069	-0.7846266666	 0.0662096763	-0.281298
N	-2.3696088819	-0.3778260162	-0.3200941851	-0.206638
C	-3.2182600004	-1.110857928	-1.2728092822	-0.220649
C	-3.409421817	-1.2868127781	 0.1878844938	-0.221685
H	 0.3518488802	 1.7308528607	 1.086261561	 0.242111
H	-0.792396877	 1.8204006136	-0.0814630537	 0.257756
H	 1.3769910038	-2.9075387265	-0.1523927	 0.125675
H	 2.0882171608	-0.471799915	 0.1540662463	 0.264177
H	-3.9041820895	-0.4944666571	-1.8471524587	 0.109743
H	-2.7521033271	-1.9311416293	-1.8102421393	 0.136232
H	-3.0698866468	-2.2237842196	 0.6191217645	 0.135015
H	-4.2370818563	-0.8010260651	 0.6971552774	 0.109193
