12
gdb 128004	4.00051	1.24698	0.97476	2.3843	63.91	-0.2867	-0.1251	0.1616	1121.3731	0.074086	-505.898475	-505.890217	-505.889273	-505.932425	27.96	
C	 0.0428217534	 1.4692945382	 0.2699122893	-0.33503
N	 0.0165612489	 0.031917941	 0.0622284089	-0.28934
C	-1.0554251402	-0.5680288853	-0.1319978081	 0.507952
O	-2.3041600675	-0.050597768	-0.1204381109	-0.284692
N	-3.3082163924	-0.67418358	-1.0640512468	 0.075254
N	-3.1297395961	-1.830401782	-1.3627120213	-0.10726
C	-2.0487655318	-2.6314745417	-0.790178495	 0.498372
O	-2.1185085543	-3.8147686634	-0.7947740592	-0.277585
O	-0.9988591733	-1.9461946788	-0.3178984577	-0.213388
H	 0.8636272695	 1.8878205555	-0.3190167113	 0.143867
H	-0.8907434727	 1.9752792386	 0.0029433114	 0.135553
H	 0.2642897465	 1.6732879359	 1.3231226408	 0.146296
