14
gdb 123708	4.17934	1.74786	1.35579	4.0539	65.15	-0.2391	0.018	0.2571	884.2625	0.104787	-432.858642	-432.852743	-432.851799	-432.888964	23.462	
C	-0.035952419	 1.4587924255	 0.1423274981	-0.336634
C	 1.2788008783	 0.7334006518	 0.0343181329	 0.064582
O	 1.9892350696	 0.4078382189	 1.2328583017	-0.260632
C	 1.1822041518	-0.4285791305	 1.9157955289	 0.487683
N	 1.2198149732	-0.9756703732	 3.1023650493	-0.384809
C	 0.0274889897	-1.6652948679	 3.0925094302	 0.029325
N	-0.7238717479	-1.5519259526	 2.0045034655	-0.278603
N	 0.0689183234	-0.7498663603	 1.2367440495	 0.010546
C	-0.0277353899	-0.0508294349	-0.0031205383	-0.027333
H	-0.3351540044	 1.8748746547	 1.0977574322	 0.152064
H	-0.3251598016	 2.0352801619	-0.7294247632	 0.139651
H	 1.9437914684	 0.8683028934	-0.8070662157	 0.135374
H	-0.2883335456	-2.2741333613	 3.9264513017	 0.130879
H	-0.4225826961	-0.5774232157	-0.8619512328	 0.137907
