17
gdb 31279	1.95572	1.8963	1.00867	1.5736	71.88	-0.1925	0.0286	0.2211	1159.8807	0.134642	-458.957798	-458.948764	-458.947819	-458.99242	31.894	
C	 0.5870000876	 0.5919200367	-0.5208632206	-0.252801
O	-0.1545897812	-0.3447610242	 0.2698906597	-0.266548
C	 0.4999731472	-0.8348022646	 1.3363229665	 0.26182
C	 0.8471135439	-2.1011344787	 1.72033008	 0.216172
O	 0.705372386	-3.3018696068	 1.109922377	-0.27256
C	 0.208968637	-3.2938742955	-0.2194234343	-0.244292
C	 1.4411350921	-1.9746528227	 3.0215646983	-0.279541
C	 1.4195379029	-0.6537284565	 3.3222141929	-0.003311
O	 0.8467327095	 0.059957215	 2.3152517871	-0.182307
H	 1.4994779631	 0.1283504774	-0.9155021866	 0.118449
H	-0.0666121312	 0.8834227836	-1.3446302953	 0.13433
H	 0.853182737	 1.4753815562	 0.0674842101	 0.138963
H	 0.8791508364	-2.7427283097	-0.8918269703	 0.115369
H	 0.1639048975	-4.3387827534	-0.5318205647	 0.128512
H	-0.7892183184	-2.8471589236	-0.2750503667	 0.135816
H	 1.8282619924	-2.7813824068	 3.6229562199	 0.11702
H	 1.7600562081	-0.0806611065	 4.1680994571	 0.134909
