17
gdb 107867	2.71174	1.5026	1.15872	3.1344	73.03	-0.2397	0.0069	0.2466	1069.9283	0.13559	-421.76257	-421.754761	-421.753817	-421.795197	29.725	
O	-0.0888983848	 1.405932608	 0.1436232257	-0.419218
C	-0.046848272	-0.0059416745	 0.0006516369	-0.222903
C	-1.4641614402	-0.4979404814	-0.0416653376	 0.389125
C	-2.5833266883	-0.1684058038	-1.051399155	-0.316024
C	-3.2307492968	-1.1302791455	-0.0397066981	-0.043118
C	-1.9217592335	-2.0063931512	 0.0822303919	-0.254233
C	-1.9732521114	-1.8552645157	 1.6003030437	 0.443018
O	-1.7370825779	-2.4826970162	 2.5880046315	-0.333812
C	-2.4738087648	-0.4788203247	 1.1814285494	-0.225482
H	 0.814658649	 1.7354215136	 0.1471325829	 0.292744
H	 0.4712638936	-0.3009299189	-0.9263620752	 0.093011
H	 0.4790825494	-0.4864317393	 0.8417921576	 0.101873
H	-2.9453798802	 0.8626961963	-1.0588474525	 0.112775
H	-2.4492959352	-0.540256947	-2.0720824912	 0.097424
H	-4.2450305437	-1.5253309899	-0.0010900906	 0.093378
H	-1.6269157514	-2.8282706058	-0.5680110922	 0.091185
H	-2.7805032916	 0.3987099562	 1.7456147329	 0.100259
