20
gdb 116014	1.95375	1.6546	0.98428	1.222	77.6	-0.2401	0.0241	0.2641	1253.1207	0.170811	-440.289317	-440.279808	-440.278864	-440.324162	33.755	
C	 0.0655730378	 1.1272817743	-0.3983907207	-0.239411
O	-0.0756329834	-0.1906481715	 0.0946639339	-0.251469
C	 0.6846636229	-0.4679066924	 1.2607995636	 0.023921
C	 0.2368240836	-1.808794071	 1.8574858401	-0.254862
C	 1.3077929245	-2.8139568069	 1.355709621	-0.156155
N	 2.4755597466	-2.0250168351	 0.9457001718	-0.315826
C	 2.1354930904	-0.8004464761	 0.9229243611	 0.413702
O	 2.9385002082	 0.2151726816	 0.5798245263	-0.25867
C	 4.2693022749	-0.1507451387	 0.2008092002	-0.237582
H	 1.0859320204	 1.3366755496	-0.741135714	 0.123781
H	-0.6246730219	 1.2246295162	-1.2399946733	 0.124603
H	-0.201673728	 1.8713458408	 0.3684588141	 0.102981
H	 0.6074300769	 0.3757178152	 1.9619148323	 0.073681
H	 0.2522470035	-1.7515319593	 2.9493337162	 0.108056
H	-0.7796584054	-2.0500468819	 1.5417127551	 0.117606
H	 1.59927178	-3.5309117076	 2.1299271924	 0.105798
H	 0.9547895662	-3.4006552742	 0.4987616979	 0.113951
H	 4.7725644741	-0.6674473387	 1.0227303463	 0.138933
H	 4.2528867377	-0.8149704401	-0.6676378914	 0.139696
H	 4.780237761	 0.7828594757	-0.0371577028	 0.127266
