19
gdb 91935	2.17799	1.74509	1.32505	2.6067	70.01	-0.2588	0.0647	0.3235	1036.1604	0.157808	-460.147271	-460.138422	-460.137478	-460.180413	34.371	
C	-0.2059005518	 1.5579310468	-0.0249628027	-0.42937
C	-0.0146851441	 0.0422752756	 0.0187682999	 0.324888
O	-1.2727486676	-0.6278123964	-0.0445977685	-0.48192
C	 0.8063696316	-0.4839710018	-1.162455395	 0.017355
O	 1.9490046886	 0.3148628041	-1.4703330521	-0.246786
C	 2.1503358647	-0.8846740965	-0.7135668947	 0.02906
C	 2.2803886619	-0.6244318586	 0.7798712238	-0.294576
C	 0.8133511716	-0.448887949	 1.2484893587	 0.081216
O	 0.6262309262	 0.4141397172	 2.3546784028	-0.438433
H	 0.7548702704	 2.0725608238	-0.0785992245	 0.135704
H	-0.7974452708	 1.8252708767	-0.9050550756	 0.116395
H	-0.7259985081	 1.898444202	 0.8745715966	 0.119813
H	-1.8182414591	-0.2817182661	 0.6696737255	 0.282669
H	 0.2785137609	-0.9221481398	-2.0051794863	 0.103206
H	 2.7391252153	-1.6520718519	-1.2090626815	 0.097978
H	 2.7737996545	-1.4505881583	 1.3013583353	 0.097446
H	 2.8595489535	 0.2872554613	 0.9587182172	 0.121208
H	 0.4094783981	-1.4486861444	 1.4689597947	 0.077211
H	 1.050131634	 0.0197574252	 3.1228686165	 0.286935
