14
gdb 34711	4.51516	1.40735	1.25578	2.7671	68.85	-0.2689	-0.0356	0.2333	950.3573	0.103419	-395.691563	-395.685248	-395.684304	-395.722345	24.728	
N	-0.0930319855	-1.0714645879	-0.1720152151	-0.316243
C	-0.0527520497	 0.0799829317	-0.074465178	 0.273391
C	 0.0049614637	 1.5255193123	 0.0509237915	-0.183362
C	-0.1259181404	 1.960967135	 1.5274162984	-0.035561
C	 1.341872285	 2.1151009849	 1.6641865843	-0.045297
C	 1.4894895919	 2.0857163388	 0.1104376702	-0.044008
N	 1.3821440828	 3.4827782854	-0.3369962683	-0.180152
C	 0.760393385	 4.0681223416	 0.6053178684	 0.035731
N	 0.4910993961	 3.3072446247	 1.7953758759	-0.155756
H	-0.6400843212	 1.9995251699	-0.6940436594	 0.135776
H	-0.885280112	 1.6290366376	 2.2228194041	 0.134451
H	 2.0359336936	 1.8426748438	 2.4492769704	 0.121597
H	 2.2665887474	 1.5141322855	-0.3875059254	 0.115479
H	 0.4307536732	 5.1007143267	 0.570705513	 0.143953
