13
gdb 27516	2.1144	1.87902	0.99489	4.3178	64.91	-0.2483	-0.0261	0.2221	1076.3936	0.090382	-489.953095	-489.945696	-489.944752	-489.985209	27.92	
O	 0.0533627743	 1.3244363271	-0.0842369319	-0.390746
C	-0.063478142	 0.004347787	 0.0434768282	 0.503249
C	-1.2027344266	-0.6771670581	-0.1566313542	-0.418922
C	-1.2021964546	-2.1172346625	 0.0146494413	 0.460583
O	-2.1475049835	-2.8616506046	-0.1314224695	-0.372557
N	 0.0533766901	-2.6355025705	 0.3849521686	-0.40438
C	 1.2179508803	-1.9439323592	 0.589978138	 0.474958
N	 2.3046160253	-2.4901502273	 0.9222333282	-0.551401
O	 1.1135586943	-0.5671290422	 0.401333279	-0.273672
H	 0.9657981261	 1.5754046444	 0.111013038	 0.317836
H	-2.1119798296	-0.1716774944	-0.4409595265	 0.139965
H	 0.1061482129	-3.635658943	 0.5161238629	 0.281441
H	 3.049574063	-1.8065936668	 1.024896438	 0.233646
