20
gdb 84787	2.6792	1.57364	1.22818	1.7742	78.43	-0.242	0.0259	0.2679	1086.9629	0.172185	-403.161669	-403.153521	-403.152577	-403.194801	31.583	
C	 0.1365915266	 1.5861481089	-0.3434979918	-0.38931
C	-0.0010389254	 0.1009312482	-0.0083706381	-0.048173
N	 0.5047566539	-0.7172754424	-1.1306456068	-0.270089
C	 1.4266563496	-1.4373122613	-0.6472795439	 0.092889
O	 1.7310683804	-1.3550422695	 0.6676084913	-0.256194
C	 0.7928503987	-0.4116188425	 1.2401434411	 0.409606
C	 1.4352680594	 0.5941528868	 2.226675742	-0.2845
C	 0.2672849373	 0.3167684842	 3.2121292333	-0.21512
C	-0.0460652321	-0.9783358938	 2.41324764	-0.279377
H	 1.1855544099	 1.8639173128	-0.4855937599	 0.122034
H	-0.3958202708	 1.796629438	-1.2744162484	 0.131223
H	-0.2869841749	 2.2153705863	 0.4455918976	 0.112952
H	-1.066359888	-0.1259726564	 0.1226079472	 0.087824
H	 2.0300176272	-2.1461826143	-1.2045037271	 0.13547
H	 2.3813465465	 0.1907522409	 2.5961616113	 0.115906
H	 1.597662694	 1.6181854625	 1.8870215284	 0.104617
H	 0.522341548	 0.2019779784	 4.2667919722	 0.105931
H	-0.5310758204	 1.0587014849	 3.1268151001	 0.107743
H	-1.0920449774	-1.2193869411	 2.2052453668	 0.102032
H	 0.4445806174	-1.8547212405	 2.8442449647	 0.114535
