23
gdb 97892	3.38765	0.66998	0.64728	1.2364	91.6	-0.2415	0.0347	0.2762	1878.1198	0.201836	-388.267889	-388.256209	-388.255265	-388.306522	41.756	
C	 0.032730898	 1.4991949082	 0.3647668647	-0.399625
C	 0.0172532813	-0.0025545302	 0.0357559831	 0.265939
C	 0.8253163583	-0.778903653	 1.0889085928	-0.402186
C	-1.4335902829	-0.5129030172	 0.0162333162	-0.404728
C	 0.6258321298	-0.2424898914	-1.3783556187	-0.366578
C	 2.0127506962	 0.1832399895	-1.5278644077	 0.024507
C	 3.1600150959	 0.5347595962	-1.6324399028	 0.146625
C	 4.5443942403	 0.9640241321	-1.781149933	-0.218401
O	 5.3353211099	 0.3990681291	-0.7402075858	-0.410031
H	 1.0530699504	 1.8929754534	 0.3584009791	 0.125714
H	-0.5538270981	 2.070124709	-0.3642213116	 0.10384
H	-0.3970146746	 1.6823664921	 1.3553028262	 0.107317
H	 0.4057294856	-0.624257124	 2.0887016927	 0.105871
H	 0.8106652381	-1.8552976681	 0.8835708467	 0.105602
H	 1.8698979476	-0.4546685653	 1.1029073383	 0.134777
H	-2.0346076605	 0.0213203455	-0.7283215998	 0.10694
H	-1.4765054794	-1.5818947085	-0.2209290135	 0.108097
H	-1.9086128	-0.3697028754	 0.9924396485	 0.109797
H	 0.5473383964	-1.3113195898	-1.6188609685	 0.12106
H	 0.0092876379	 0.2815663836	-2.1212193469	 0.120217
H	 4.9136369027	 0.6537247047	-2.7726358393	 0.114137
H	 4.5881620231	 2.0653952214	-1.7579277806	 0.113085
H	 6.238781244	 0.7053210182	-0.8699232201	 0.288024
