18
gdb 121596	3.21654	0.92808	0.86669	12.1634	71.8	-0.1965	-0.0247	0.1718	1399.0262	0.146882	-476.214565	-476.205014	-476.20407	-476.249839	33.437	
C	-0.1995620807	 1.1372118695	-0.5470924448	-0.414463
C	-0.2174688887	-0.3351303567	-0.16996546	-0.168858
N	-1.2166741418	-0.6034325475	 0.9255168999	-0.242648
H	-0.9260967918	-0.178919449	 1.8037269838	 0.292563
H	-2.1612555794	-0.2282009534	 0.6243348913	 0.301612
C	-1.5787267239	-2.0540751693	 1.0480093833	-0.273973
C	-2.7171221668	-2.2089288213	 0.0029453013	 0.269264
O	-3.3993961417	-1.1995895206	-0.1604516007	-0.377052
C	-2.5911419375	-3.4186769933	-0.9419806738	 0.348251
O	-3.3657045981	-4.3478144777	-1.0376505885	-0.42089
O	-1.5124595038	-3.0832887829	-1.5166979026	-0.448662
H	 0.5356974851	 1.2949971515	-1.3399179839	 0.159947
H	-1.1739436227	 1.45911149	-0.9264153372	 0.160142
H	 0.0787976531	 1.7772406125	 0.2974237712	 0.126465
H	-0.518710607	-0.9870379651	-0.9962084511	 0.217942
H	 0.7527400234	-0.6782310369	 0.1988909303	 0.144225
H	-0.7213365491	-2.6862342887	 0.8353495345	 0.176806
H	-1.9613572386	-2.227975721	 2.0574794672	 0.14933
