19
gdb 54155	2.14311	1.43573	1.09385	2.6314	83.35	-0.2403	-0.0156	0.2247	1194.6815	0.155661	-385.870318	-385.860425	-385.859481	-385.904882	36.799	
C	 0.7333964661	 0.5491284063	 0.7176077728	-0.50821
C	-0.3897706843	 0.2864710915	-0.2680686332	 0.341152
O	-1.4471731587	 0.8729140206	-0.1754424576	-0.304735
C	-0.1787565359	-0.672157218	-1.418083078	 0.197129
C	-1.2052411858	-0.5187045715	-2.5249348526	-0.448584
C	 1.2127074187	-1.131438671	-1.789095809	-0.334094
C	 0.2799974059	-2.1260940044	-1.1408664027	-0.222948
C	 0.5237699636	-2.6661552706	 0.163774643	 0.323889
C	 0.7188968569	-3.1756835088	 1.2364128953	-0.440678
H	 1.5454904061	 1.0891776734	 0.216887576	 0.138766
H	 0.3442699988	 1.1679662533	 1.5267366917	 0.140544
H	 1.1508290738	-0.3763484388	 1.1210953923	 0.15478
H	-1.1554595405	 0.4843107458	-2.9595470477	 0.128593
H	-1.0293963893	-1.2463479057	-3.3226627683	 0.107014
H	-2.2163189201	-0.6559441609	-2.1359178464	 0.144195
H	 1.4310236994	-1.2589167229	-2.8438216795	 0.125599
H	 2.0481108093	-0.7838385919	-1.1941093112	 0.130899
H	-0.1891587896	-2.8358546051	-1.8170109558	 0.125786
H	 0.8864556858	-3.6164173813	 2.1878562909	 0.200904
