25
gdb 58524	2.68747	1.22119	1.08591	0.1423	92.62	-0.2344	0.031	0.2654	1294.2057	0.228623	-352.379363	-352.369498	-352.368554	-352.413273	38.952	
C	 0.0275446941	 1.6480018455	 0.1216491653	-0.403224
C	 0.0964424691	 0.1129268823	 0.1637575264	-0.008774
C	 0.763198948	-0.3434759106	 1.4714690285	-0.403225
C	-1.2723502064	-0.5726632323	-0.1017388481	 0.349677
C	-2.3223267149	-0.2322536103	 0.9728803683	-0.441112
C	-1.8542665644	-0.1865716671	-1.5028457051	-0.301067
C	-2.4492715336	-1.4697866863	-2.0243987887	-0.066143
C	-2.0600355799	-2.5234239739	-1.3103250162	-0.06614
C	-1.1363355556	-2.1299807708	-0.1857491748	-0.301066
H	 1.0323008356	 2.0769416487	 0.1981097032	 0.108264
H	-0.4182818956	 2.0152200493	-0.8073417788	 0.113252
H	-0.5591229506	 2.0479274155	 0.9556277797	 0.114672
H	 0.7511772446	-0.2044661525	-0.661351069	 0.066375
H	 0.2003377567	-0.0078866002	 2.3490839854	 0.114673
H	 0.8550715108	-1.4319893584	 1.5291946751	 0.113252
H	 1.7707320417	 0.077955947	 1.5529674517	 0.108264
H	-2.5249452986	 0.8422953346	 1.0182811244	 0.110165
H	-3.267106487	-0.7363083284	 0.7441314328	 0.117166
H	-2.0070132861	-0.55968723	 1.9684383325	 0.110166
H	-2.587895512	 0.6257260078	-1.4329722181	 0.096561
H	-1.0668437356	 0.1724674155	-2.18170943	 0.098631
H	-3.089132774	-1.5048497169	-2.8996753395	 0.087222
H	-2.3320422468	-3.5542504318	-1.5107492566	 0.087222
H	-0.104343462	-2.4329803142	-0.41592986	 0.09863
H	-1.3903258878	-2.6160559823	 0.7640619616	 0.096561
