19
gdb 69838	3.16313	1.53139	1.27243	0.4838	74.29	-0.2329	0.0734	0.3063	1029.025	0.160479	-422.992803	-422.985292	-422.984348	-423.024148	31.164	
O	-0.1215653669	 1.3877184148	 0.2167304917	-0.466757
C	-0.0200510034	 0.0101094214	-0.0065002676	 0.371025
C	-0.4127788363	-0.5748375056	-1.3364944286	-0.369648
C	-1.3032796715	-0.7608701535	-0.1152283414	-0.076643
C	-1.4078587901	-2.0511202447	 0.6578960567	-0.056017
C	-0.9758047288	-3.3951764232	 0.1095505153	-0.319149
C	-0.1107351134	-2.6743106509	 1.1035742095	 0.094093
O	 1.0616679377	-2.0858894604	 0.6088613447	-0.255163
C	 1.0877004623	-0.6733838749	 0.7812918125	-0.145701
H	 0.5976252009	 1.8202987044	-0.2577866457	 0.282513
H	-0.7774791417	 0.1136463652	-2.0906318137	 0.11078
H	 0.1568159281	-1.4170027948	-1.7122589586	 0.124934
H	-2.2035768809	-0.1561278195	-0.1209140506	 0.097358
H	-2.2229797337	-2.0668373832	 1.3742178447	 0.090227
H	-1.513260126	-4.2771599001	 0.4400338136	 0.111397
H	-0.613810919	-3.4393835326	-0.9112342739	 0.123033
H	-0.0152058914	-3.065174727	 2.1156607285	 0.086324
H	 2.0752150482	-0.348629145	 0.433403311	 0.098947
H	 0.9923419158	-0.3973016103	 1.8429531818	 0.098446
