17
gdb 73354	2.58462	2.063	1.65468	1.9457	71.15	-0.2229	0.002	0.2249	872.7463	0.1377	-421.809238	-421.802568	-421.801624	-421.839745	28.195	
O	 0.0927465559	 1.4039281275	-0.1327089103	-0.498305
C	 0.0449303076	 0.002614852	-0.0137545425	 0.356899
C	 0.659382096	-0.6573543482	-1.2662786193	-0.093781
O	 0.1698115807	-2.0016597192	-1.2305489251	-0.258434
C	-1.1045551168	-1.9741246491	-0.6397919607	 0.100268
C	-1.2298354863	-1.8574100593	 0.8951299606	-0.141077
C	 0.0241789581	-1.6467741827	 1.6698308303	-0.052263
C	 0.7148848129	-0.6004462809	 1.2119870351	-0.19062
C	-1.3697200468	-0.6529600137	-0.0189533384	-0.200518
H	-0.1466996549	 1.7781442363	 0.7214656626	 0.278763
H	 0.3236845295	-0.131275678	-2.1731062203	 0.098844
H	 1.7512261469	-0.6954784572	-1.2512748334	 0.111805
H	-1.8512892903	-2.5495960464	-1.177859929	 0.101488
H	-2.0928176793	-2.3300834822	 1.3524258427	 0.086553
H	 0.3398815189	-2.3129374341	 2.4641746775	 0.104998
H	 1.7009102578	-0.2853024078	 1.5341609664	 0.100961
H	-2.26302209	-0.0544617871	-0.147952486	 0.09442
