18
gdb 97694	2.93818	0.80091	0.69367	2.2909	89.85	-0.2328	0.0181	0.251	1687.0272	0.145072	-364.72282	-364.71279	-364.711846	-364.760013	35.794	
C	 0.340609339	 1.2943309398	 0.4302267973	-0.364938
C	-0.3545530377	 0.1669576501	-0.3550663919	-0.319241
C	 0.4544550301	-0.3575501526	-1.449788162	 0.092251
C	 1.1387701058	-0.7689495674	-2.352773248	-0.00598
C	 1.9365449717	-1.2822792365	-3.4399774042	 0.004599
C	 3.3727195251	-1.6347352739	-3.1475526616	-0.257975
N	 2.4035460594	-2.7030029112	-3.3609103966	-0.337058
C	 1.5761946561	-0.825814575	-4.7618975371	 0.299471
C	 1.2874847077	-0.4234570292	-5.8562708787	-0.45529
H	 1.2759159963	 0.9409832702	 0.8727714944	 0.126618
H	 0.574959331	 2.1367270229	-0.2258864445	 0.132047
H	-0.3078187508	 1.6528854761	 1.2350638967	 0.116778
H	-0.613726853	-0.652235481	 0.3280516623	 0.131144
H	-1.307300889	 0.5325334228	-0.7588208141	 0.136244
H	 4.1012986784	-1.5120427606	-3.9429947496	 0.135804
H	 3.7309682354	-1.426039719	-2.1437621141	 0.125999
H	 2.0981105866	-3.0794813888	-2.4659845668	 0.243014
H	 1.0253745078	-0.0769031967	-6.8250652013	 0.196513
