19
gdb 115148	2.51069	1.32654	1.02105	1.1617	70.85	-0.2521	-0.0311	0.221	1200.2207	0.158492	-460.181504	-460.172476	-460.171532	-460.215479	33.417	
C	-0.6245370075	 1.4505938205	 0.1672911981	-0.414129
C	-0.0833115759	 0.0312860526	 0.0168184647	-0.120069
C	 0.4952736217	-0.4085926924	-1.336391533	 0.052599
C	 1.2949432438	 0.6529266353	-2.0947892066	-0.060861
O	 1.9429317392	 0.0760899896	-3.206576235	-0.422845
O	 1.3788288204	-1.5131591106	-1.0205477081	-0.281318
C	 1.9708388952	-1.2902374974	 0.2497690748	-0.189334
C	 1.0665985551	-0.2923196608	 0.9739140264	 0.365542
O	 1.2396566972	 0.1572900128	 2.0751065038	-0.30545
H	 0.1228988378	 2.2001871362	-0.1065886782	 0.132338
H	-1.511026692	 1.6072005266	-0.4535131037	 0.122629
H	-0.8956641095	 1.6260665036	 1.2114231444	 0.143788
H	-0.8749282247	-0.6871206143	 0.2775875101	 0.119252
H	-0.261142766	-0.8233025557	-2.0083204032	 0.098098
H	 0.6276696087	 1.434569802	-2.4722200155	 0.113644
H	 2.0158469741	 1.1397650529	-1.4135776235	 0.084174
H	 2.3094193952	-0.7592973403	-2.8889390745	 0.289341
H	 2.0333466076	-2.2384426643	 0.7942128435	 0.142102
H	 2.9866475796	-0.8752766463	 0.1748091153	 0.1305
