19
gdb 120529	5.9173	0.67169	0.63646	0.8259	78.94	-0.2547	0.0227	0.2774	1732.817	0.156976	-422.964842	-422.95504	-422.954096	-423.000775	34.962	
O	-0.2417696813	 1.5511847138	-0.4199527193	-0.422713
C	-0.0660362736	 0.1794278951	-0.0973957365	-0.074938
C	-1.4489147094	-0.450484337	 0.0184621518	-0.193405
C	-1.3875231322	-1.9245909918	 0.3704827642	 0.153826
C	-2.6813454222	-2.7541182036	 0.2353595323	-0.32397
C	-1.8820204318	-3.5832155898	-0.80715119	-0.029097
O	-0.7299656127	-2.7153390417	-0.6582439857	-0.301808
C	-1.6089871408	-4.971559592	-0.4693627732	 0.334427
C	-1.3962166745	-6.120419349	-0.1865474521	-0.462712
H	 0.6264168815	 1.9369205886	-0.567840203	 0.286033
H	 0.5071117341	-0.3493450182	-0.872428168	 0.109288
H	 0.4774591784	 0.0598872689	 0.8548249715	 0.082602
H	-2.0221930648	 0.0790097113	 0.7903294455	 0.106674
H	-1.9803670082	-0.3178716765	-0.9310769548	 0.106378
H	-0.8756070798	-2.0655287224	 1.3328426235	 0.080706
H	-2.9938825992	-3.3051603741	 1.1214547931	 0.122839
H	-3.5306859021	-2.2112113667	-0.182615853	 0.115587
H	-2.2768827813	-3.5252859948	-1.8291313	 0.108023
H	-1.2030314701	-7.1357242403	 0.0581618735	 0.20226
