18
gdb 114609	2.3322	1.31383	0.98643	1.3697	73.21	-0.2472	-0.0367	0.2105	1220.3193	0.146732	-439.038814	-439.030008	-439.029064	-439.07279	32.155	
O	 0.1884788822	 1.3408137363	-0.2503807226	-0.414345
C	 0.2228841289	-0.0622056628	-0.0366209862	-0.093675
C	-1.1760183059	-0.6531157415	 0.0747228664	-0.093605
C	-2.1243354435	-0.6255222717	-1.1520381573	-0.170562
N	-2.3951640352	-2.1145477629	-1.0775910767	-0.161053
C	-1.1094157651	-2.7633554927	-1.2778081163	-0.279369
C	-1.3534980921	-2.1688340054	 0.06730725	 0.228776
C	-1.5953436992	-2.9992163573	 1.260299389	 0.072858
O	-1.3752448007	-2.6274206613	 2.3884765021	-0.264372
H	-0.1682955869	 1.7522230034	 0.5435642605	 0.286302
H	 0.7504383654	-0.4752199206	-0.9026879919	 0.106306
H	 0.8072064286	-0.327393093	 0.8578407801	 0.106704
H	-1.6705666685	-0.2391230747	 0.9592087738	 0.095183
H	-3.0514360211	-0.0729113503	-0.9992691537	 0.122018
H	-1.6741581612	-0.3214187759	-2.1023320769	 0.118532
H	-1.1812882939	-3.844637937	-1.3570326519	 0.133064
H	-0.3686674731	-2.3092194506	-1.9325217086	 0.126519
H	-2.0125098987	-4.007813562	 1.0430068202	 0.080719
