27
gdb 57483	2.68237	1.10148	0.98017	0.0557	94.95	-0.2958	0.073	0.3688	1418.5682	0.252467	-353.585847	-353.575451	-353.574506	-353.62127	40.497	
C	-0.0805964233	 1.5844710741	 0.1983967506	-0.41097
C	-0.0196356145	 0.0538279514	 0.0316425719	 0.238193
C	 0.7030925542	-0.5537391123	 1.2506384271	-0.404648
C	-1.4597548252	-0.4957434065	-0.0033570929	-0.405554
C	 0.7243127527	-0.3793502144	-1.2632999165	 0.07425
C	 0.116256882	 0.0859671739	-2.6060839719	-0.232061
C	 1.2566444577	-0.1262531456	-3.6104761262	-0.201182
C	 2.4961560472	 0.3775106621	-2.8488220544	-0.202533
C	 2.2295116905	 0.0245916848	-1.3601176769	-0.232483
H	 0.9154164669	 2.036478641	 0.2354728885	 0.110433
H	-0.6367457999	 2.062811556	-0.6135278489	 0.11106
H	-0.5879762937	 1.8409238231	 1.1348854373	 0.107769
H	 0.170114393	-0.3145878938	 2.1775823703	 0.104158
H	 0.7595648905	-1.6454619827	 1.1716365329	 0.104774
H	 1.7242865299	-0.1725741247	 1.3483948337	 0.111212
H	-2.0404728758	-0.0584270255	-0.8213486491	 0.11106
H	-1.4650420187	-1.5840762055	-0.1324032592	 0.104594
H	-1.9841261043	-0.2695819356	 0.9317356665	 0.10408
H	 0.6859871999	-1.47810569	-1.2722810271	 0.061087
H	-0.7937467215	-0.4591977607	-2.8714628895	 0.09158
H	-0.1419463297	 1.1516339965	-2.5675925155	 0.093981
H	 1.3573451699	-1.1958961375	-3.834363812	 0.092978
H	 1.0990490543	 0.3902027972	-4.5620775882	 0.088422
H	 3.4290799534	-0.0524721869	-3.22404796	 0.09134
H	 2.5798939366	 1.4638060464	-2.9667367099	 0.095747
H	 2.4631130815	 0.8768018117	-0.7159730095	 0.096697
H	 2.8689649665	-0.7964887867	-1.0237179912	 0.096014
