15
gdb 48859	4.33545	1.39308	1.20086	2.1859	72.38	-0.248	-0.0598	0.1883	993.6232	0.112506	-416.710365	-416.703429	-416.702485	-416.741766	26.707	
O	-0.2042396916	 0.2023839104	 0.6249117254	-0.250075
C	-0.0040928266	 1.2047923429	-0.0130711146	 0.103605
C	 1.3291850701	 1.8539613238	-0.1184251251	 0.156704
C	 2.4604075945	 1.5516312289	 0.9344491887	-0.29926
C	 2.8538070735	 2.9354631234	 0.4706558007	 0.149759
N	 3.7547000262	 3.0888727831	-0.4152007509	-0.184422
C	 2.9968102849	 3.3504799825	-1.6646982428	-0.188497
C	 1.5866785123	 2.9074915965	-1.2492947581	-0.087651
N	 1.4367643974	 3.3434524144	 0.1218889865	-0.159822
H	-0.8167627221	 1.7246213674	-0.5662204788	 0.089516
H	 1.9808327167	 1.4428710372	 1.9092135103	 0.148416
H	 3.200213577	 0.775740585	 0.750390068	 0.143886
H	 2.9736397599	 4.4000901005	-1.9907050388	 0.131398
H	 3.4597476112	 2.757811582	-2.4588395303	 0.134832
H	 0.7442637265	 3.0820196922	-1.9157974203	 0.111613
