20
gdb 92378	2.04233	1.64055	1.22944	4.244	83.36	-0.2797	0.0219	0.3016	1127.9839	0.171863	-366.0126	-366.004046	-366.003102	-366.045957	32.751	
C	 0.1984228904	 1.6097012399	-0.0702382094	-0.420433
C	 0.0684147428	 0.1023279877	 0.0719805746	-0.009919
C	 0.8515597861	-0.839857836	-0.8910126879	-0.260807
C	 1.2951757247	-1.7276571092	 0.3051000965	-0.060355
C	 2.7230781407	-1.4535470778	 0.8221369565	-0.217817
C	 2.1969517142	-0.2443603038	 1.6485172791	-0.29131
C	 0.7185842536	-0.6289583905	 1.2933771542	 0.194727
C	-0.1417310333	-0.9362530284	 2.4103864392	 0.190107
N	-0.8388884391	-1.1873469693	 3.2999820667	-0.35314
H	 1.2443776852	 1.9324310062	-0.087161724	 0.117913
H	-0.260519703	 1.9427255049	-1.0073207996	 0.12398
H	-0.3040760466	 2.131372162	 0.751212509	 0.130289
H	-0.9913174495	-0.1704386633	 0.0567901758	 0.095688
H	 0.239873791	-1.336643788	-1.6463201441	 0.111551
H	 1.6923665993	-0.356180431	-1.3987859861	 0.101842
H	 0.9272145411	-2.7529675453	 0.3122341494	 0.08745
H	 3.1004003703	-2.2554936428	 1.4611328124	 0.11456
H	 3.4740910971	-1.2386442169	 0.0570605672	 0.103409
H	 2.4154347388	-0.2902814866	 2.7159474701	 0.129375
H	 2.4940723865	 0.7403665283	 1.2830162403	 0.112889
