20
gdb 83902	2.57932	1.41444	1.20474	1.7616	86.22	-0.2245	0.0451	0.2696	1140.9135	0.170561	-365.961364	-365.95239	-365.951446	-365.994831	34.185	
C	-0.1082243381	 1.5254082659	 0.0738539883	-0.32691
N	 0.1324228534	 0.0929631669	 0.0844397895	-0.120782
C	 1.3795341536	-0.5315765565	-0.3067643799	-0.076195
C	 2.6708226283	 0.2685708819	-0.3811625825	-0.234534
C	 2.875366841	 0.919438843	 1.013390692	-0.227859
C	 1.8858515499	 0.2263971747	 1.9866963928	-0.291789
C	 0.9066578037	-0.5840301199	 1.129535704	 0.122563
C	 0.292151839	-1.7363104122	 1.7352866933	 0.238527
C	-0.1986383376	-2.6939564058	 2.2724888451	-0.385358
H	 0.7270536548	 2.1626980688	 0.3930707881	 0.104419
H	-0.3864538116	 1.8192502594	-0.9434745676	 0.127276
H	-0.9623105874	 1.7370102613	 0.7246391077	 0.13125
H	 1.2697374537	-1.3879346127	-0.9682614291	 0.095509
H	 3.4879886114	-0.4204671792	-0.6199425598	 0.109322
H	 2.647142112	 1.0143214243	-1.1836929614	 0.106456
H	 3.9071797001	 0.8017193459	 1.355190003	 0.104268
H	 2.6904986241	 1.9957641069	 0.9709931364	 0.112102
H	 2.4044338345	-0.4683751115	 2.6533973498	 0.117404
H	 1.3628572428	 0.9440152138	 2.6278632858	 0.109135
H	-0.6442638674	-3.5402655052	 2.7331422043	 0.185196
