21
gdb 102725	2.72912	0.94828	0.74511	4.6599	84.	-0.2413	0.0322	0.2735	1551.1532	0.18238	-383.258662	-383.248696	-383.247752	-383.294184	36.029	
C	 0.1667549665	 1.3754889642	 0.2031880332	-0.32823
N	 0.0147131365	-0.0371493395	-0.1290116053	-0.285859
C	-1.3619648262	-0.5160989446	-0.0855237612	-0.116511
C	-1.4762881556	-1.9430133984	-0.6680753874	-0.221011
C	-1.1410094998	-2.0106937946	-2.1435441973	 0.001598
C	 0.2702243117	-2.2934051428	-2.6178065864	-0.259695
C	-0.8048664583	-3.3381092808	-2.7720020881	-0.285298
C	-1.8456887506	-0.509979338	 1.3080429779	 0.304429
N	-2.2463953603	-0.5091395352	 2.3917664974	-0.33203
H	 1.2148910432	 1.6608674585	 0.0812018075	 0.125159
H	-0.4519113967	 2.0505779189	-0.4141750394	 0.097889
H	-0.1047412278	 1.5377420042	 1.2509115521	 0.148792
H	 0.3729149145	-0.2179146671	-1.0595466873	 0.237598
H	-2.0554968746	 0.1397100675	-0.6497649463	 0.0979
H	-0.8129589482	-2.6028544792	-0.0985311995	 0.122831
H	-2.5008137702	-2.2949016841	-0.5038809828	 0.122162
H	-1.7219980499	-1.3318003077	-2.7642537658	 0.088034
H	 0.6278264906	-1.7886401428	-3.5086882531	 0.116904
H	 1.0326202047	-2.463675101	-1.8647366082	 0.12669
H	-0.7619024126	-4.2060746313	-2.1223933576	 0.120314
H	-1.1830675469	-3.5455497063	-3.7664788323	 0.118335
