17
gdb 87105	2.92937	1.19031	0.99648	4.6418	75.86	-0.2536	-0.0883	0.1652	1219.2076	0.133062	-417.993863	-417.984285	-417.983341	-418.028795	33.98	
C	-0.0889829013	 1.4835643818	-0.1954686816	-0.319395
N	 0.0924356013	 0.042991574	-0.0730457294	-0.084616
C	 1.4314058687	-0.4911516223	-0.1154944063	-0.263055
C	 0.6633111166	-0.5102010437	 1.1788422962	 0.167527
C	 1.0779903823	 0.3681734127	 2.342354098	-0.491934
C	 0.0153807818	-1.8281233582	 1.5143565046	 0.295542
O	-0.2294636275	-2.6913399976	 0.7099446252	-0.273736
C	-0.3271662066	-2.045312869	 2.9389575782	 0.223605
N	-0.6038159957	-2.2186693935	 4.0484567243	-0.318614
H	 0.7586658864	 2.0872772072	 0.1601144877	 0.108027
H	-0.2416714117	 1.7091725612	-1.2551599149	 0.141214
H	-0.988699923	 1.7860948189	 0.3478624357	 0.135947
H	 1.5528363423	-1.4188191747	-0.6673891255	 0.142584
H	 2.2698661666	 0.2044314717	-0.1575676844	 0.115078
H	 1.6153322506	 1.2529773783	 1.9994333918	 0.129566
H	 0.2136210822	 0.6969937793	 2.9279848872	 0.146081
H	 1.744141897	-0.1779213662	 3.0170114131	 0.146182
