16
gdb 112395	3.56391	1.1708	0.91115	1.75	66.84	-0.2774	-0.0261	0.2513	1215.382	0.125026	-475.077786	-475.069748	-475.068804	-475.111005	29.738	
O	-0.1131557393	 1.5029191247	-0.2278540382	-0.419981
C	 0.0330372867	 0.1069994674	-0.1658449712	-0.069149
C	-1.3119782402	-0.6057476094	 0.0621748505	-0.174602
C	-1.2828921078	-2.1381596514	 0.1064967649	-0.333802
C	-2.2195657454	-2.487504816	 1.2400801656	 0.408627
N	-2.7177931148	-3.6086834376	 1.4970694304	-0.507773
O	-2.4513637028	-1.3425591142	 2.0058316588	-0.208442
C	-1.8978958125	-0.234087638	 1.4154991952	 0.442996
O	-1.9024350327	 0.8355553501	 1.9551818782	-0.335423
H	-0.5600798707	 1.775027118	 0.5857815729	 0.301429
H	 0.4524002607	-0.2158598422	-1.1243654021	 0.119073
H	 0.7401804907	-0.2041747145	 0.622091181	 0.094702
H	-2.0153704282	-0.2420879158	-0.6966421494	 0.136355
H	-1.5937618582	-2.6281813042	-0.8160093378	 0.154961
H	-0.2800227077	-2.5070421435	 0.3537465511	 0.149175
H	-3.3096058478	-3.5740867036	 2.32835662	 0.241854
