19
gdb 12691	3.15268	1.93234	1.27277	3.4932	72.85	-0.2339	0.0366	0.2706	990.3921	0.16653	-365.122338	-365.113938	-365.112994	-365.155053	30.565	
C	-0.1310457303	 1.5608805326	 0.0009973303	-0.398704
C	 0.0941625342	 0.0518686719	-0.0137513439	-0.094652
C	 0.8891332186	-0.5121993995	-1.2036311224	-0.232357
C	 1.5993044195	-1.7531493446	-0.6261530927	-0.173065
N	 1.726334541	-1.4350161314	 0.784883067	-0.068985
C	 2.5052342246	-2.2359694505	 1.6976388207	-0.344606
C	 0.8852581758	-0.4388489364	 1.2065477255	 0.4165
O	 0.777954841	-0.036874065	 2.3484406226	-0.404559
H	 0.8160052589	 2.098986159	-0.1144796821	 0.116856
H	-0.7987070002	 1.8711716693	-0.8084807032	 0.109648
H	-0.5711306606	 1.8607681217	 0.9554464137	 0.141661
H	-0.8811318454	-0.4528504888	 0.0474898194	 0.099215
H	 0.2690663267	-0.7549142065	-2.0691885281	 0.10682
H	 1.6368898137	 0.2213311727	-1.5241982251	 0.110858
H	 1.0082225698	-2.6710025468	-0.772932276	 0.101187
H	 2.5834002931	-1.9244891656	-1.0776360021	 0.108589
H	 3.5638950578	-2.2429511227	 1.4115486868	 0.12138
H	 2.4010590641	-1.7978471145	 2.6919068039	 0.164432
H	 2.1505254377	-3.2752085149	 1.7237189257	 0.119783
