21
gdb 104094	2.13364	1.55581	1.29904	2.5653	79.07	-0.2427	0.021	0.2637	1125.6703	0.181477	-424.226653	-424.217343	-424.216398	-424.260122	35.99	
C	-0.1377118845	 1.2593144218	 0.1295166887	-0.246795
O	 0.1076936154	-0.1219885939	-0.0095937746	-0.301122
C	 0.7372134382	-0.5781637666	-1.2189723895	 0.352288
C	 0.0416043643	-0.0426958392	-2.4668650907	-0.468353
C	 2.2626037393	-0.2958051368	-1.1430234505	-0.296524
C	 2.8126980629	-1.5136879387	-0.4372003266	-0.065316
C	 1.9298574882	-2.5074162238	-0.3960422293	-0.110613
C	 0.6380831463	-2.1407963673	-1.0947308846	 0.085433
O	-0.5466379567	-2.5743093623	-0.468607942	-0.441628
H	 0.7637087024	 1.8647221154	-0.0407748027	 0.109034
H	-0.9278487536	 1.6151416178	-0.5446888988	 0.115175
H	-0.4647022014	 1.4149191953	 1.1608245251	 0.129607
H	 0.135199384	 1.0430086289	-2.5638921593	 0.114483
H	 0.4855323339	-0.4912681115	-3.3602405321	 0.121014
H	-1.0212614249	-0.3030844336	-2.4459944163	 0.133016
H	 2.6911130899	-0.1911517001	-2.1492668081	 0.105195
H	 2.479427439	 0.6414267717	-0.6183246501	 0.103864
H	 3.8239986089	-1.5498751524	-0.0469265584	 0.093295
H	 2.0833182355	-3.4914396313	 0.0313250821	 0.098016
H	 0.6221382984	-2.5831533789	-2.1004694117	 0.083615
H	-0.7145689758	-1.9229256046	 0.2261872893	 0.286317
