17
gdb 13545	3.64951	1.35733	1.10034	5.4645	69.1	-0.2601	0.0223	0.2825	1085.8102	0.14236	-360.02066	-360.011879	-360.010935	-360.054291	31.379	
C	-0.8016490576	 1.1189383819	 0.2800481705	-0.402197
C	-0.1483259373	-0.2412087172	 0.2028609672	-0.008666
N	 1.2012862226	-0.3104550716	-0.3777074508	-0.326922
C	 1.0135013831	-0.683414517	 1.0267632731	-0.032868
C	 1.6845573122	 0.2030601712	 2.0744554886	-0.129483
N	 1.0533169563	 0.1920273819	 3.3986658762	-0.505717
C	 3.0954829391	-0.1953573815	 2.2144144131	 0.300911
N	 4.1906472501	-0.5496926128	 2.311662287	-0.318797
H	-0.0791262841	 1.9026561939	 0.5185548789	 0.132349
H	-1.2530591745	 1.3746902346	-0.6840548462	 0.131117
H	-1.5973195573	 1.1316982818	 1.033300211	 0.11734
H	-0.8358482923	-1.043836685	-0.0639459986	 0.090962
H	 1.3220602991	-1.1306959587	-0.96406482	 0.240612
H	 1.0487681121	-1.7422893647	 1.2829738759	 0.093036
H	 1.6814291411	 1.2338941228	 1.7055583671	 0.139862
H	 0.0788085805	 0.4606965501	 3.2972647991	 0.239025
H	 1.059031877	-0.7513381197	 3.776979448	 0.239438
