25
gdb 112965	3.27894	0.86323	0.81323	1.4416	89.32	-0.2391	0.0798	0.3189	1613.1662	0.22743	-389.494078	-389.483389	-389.482445	-389.530252	39.436	
C	-0.242418072	 1.6227761276	 0.0876965453	-0.380291
C	-0.1380570249	 0.1638242803	-0.3646821233	-0.188444
C	-1.3211273665	-0.6713614922	 0.0977466193	 0.182814
C	-1.2098135807	-2.2059541981	-0.0225941882	-0.354239
C	-1.291329903	-2.2021259553	 1.5205023691	 0.172069
O	-1.4051343269	-0.7549074455	 1.5449897519	-0.317865
C	-2.4549051848	-2.8992614094	 2.230716093	 0.015019
C	-2.3620329829	-2.6364075708	 3.7415177274	-0.389111
C	-3.8276322572	-2.4787359533	 1.689457349	-0.395188
H	 0.6374813582	 2.1976917033	-0.2158175487	 0.109495
H	-1.1250490149	 2.1088221248	-0.342943327	 0.111394
H	-0.3281765038	 1.6756653844	 1.1767045481	 0.136562
H	-0.0811851552	 0.1042218515	-1.4600991012	 0.092687
H	 0.783969105	-0.2849783249	 0.0261498494	 0.095347
H	-2.2535428202	-0.2545932383	-0.3099680289	 0.068836
H	-2.0328828682	-2.700140684	-0.5405400766	 0.106759
H	-0.2636356675	-2.5652918211	-0.4328697244	 0.103069
H	-0.3528085665	-2.513738874	 2.0011643236	 0.066787
H	-2.3194588762	-3.9771411141	 2.0552344454	 0.069332
H	-3.1737361396	-3.1348007947	 4.2805425095	 0.106937
H	-1.4130659773	-2.9974578037	 4.1520755768	 0.107057
H	-2.4283620262	-1.5624174604	 3.9438611241	 0.133377
H	-3.9510332494	-2.7248244746	 0.6302171403	 0.107085
H	-4.6281708138	-2.9857164063	 2.2369244482	 0.10891
H	-3.9666982154	-1.3999928312	 1.8064376479	 0.131602
