19
gdb 40306	6.40691	0.59221	0.56911	2.174	88.48	-0.2425	0.025	0.2675	1957.3372	0.158923	-385.825141	-385.816146	-385.815202	-385.861544	32.193	
C	 0.7439809714	 1.3908208649	-0.1594754143	-0.160125
O	 1.2930726043	 0.1207356618	-0.4816410844	-0.216023
C	-0.0991704137	 0.1787854094	-0.119461051	-0.118287
C	-0.4947935867	-0.4322468957	 1.119219529	 0.119781
C	-0.8459487558	-0.9608320113	 2.1451220164	 0.070351
C	-1.2867573793	-1.5878179627	 3.3726574683	-0.148646
C	-2.2765379565	-0.8232068121	 4.3138742301	-0.214755
C	-2.9888076978	-2.1723941167	 4.5941907973	-0.217076
C	-2.3363081484	-2.7465533492	 3.309385916	-0.213752
H	 1.0820041683	 1.8254269911	 0.7793476945	 0.122352
H	 0.6352572412	 2.0859844806	-0.9914289798	 0.116699
H	-0.7714977515	 0.0109422684	-0.9606154248	 0.113774
H	-0.4155477986	-1.9161820371	 3.9506608165	 0.104588
H	-1.8413029351	-0.2794714669	 5.1549080531	 0.104054
H	-2.9073354967	-0.1411827347	 3.7384309211	 0.112098
H	-2.6024728494	-2.6555401831	 5.4963095216	 0.10546
H	-4.0792388674	-2.1648112805	 4.6453219771	 0.101879
H	-2.9846773846	-2.6325153807	 2.4371890234	 0.112323
H	-1.9499782434	-3.7675183955	 3.3330311801	 0.105306
