17
gdb 10486	3.24158	1.47088	1.17808	4.6589	68.07	-0.2822	0.0274	0.3096	1049.32	0.140866	-363.862212	-363.85369	-363.852746	-363.895637	30.546	
C	 0.8339853496	-1.7239954513	 0.0693702803	-0.401222
C	-0.0705128731	-0.7663657693	-0.7087089823	-0.256508
C	-1.4942158906	-0.6575222742	-0.1873071907	 0.405809
C	-2.4007012584	 0.3058734401	-0.9583400558	-0.40344
C	-1.8594337704	 1.6630577904	-1.0393471402	 0.2753
N	-1.4238088558	 2.7308489803	-1.1091268016	-0.310597
C	-2.157185549	-1.7397440327	 0.5552079481	-0.231557
O	-1.6540778117	-0.5810209117	 1.2300447994	-0.25784
H	 1.868478448	-1.624524509	-0.2694446215	 0.12212
H	 0.8008019976	-1.4992337572	 1.1385475847	 0.143933
H	 0.54222404	-2.7693200659	-0.0721552111	 0.116537
H	 0.3625518036	 0.2411422606	-0.6904925277	 0.138274
H	-0.1146993396	-1.0570766401	-1.7664490901	 0.105946
H	-2.5564530926	-0.0655463062	-1.9782778663	 0.154756
H	-3.3790619054	 0.348957507	-0.4706113705	 0.159485
H	-3.2427982723	-1.8289098328	 0.5271683693	 0.114613
H	-1.6248882799	-2.6649944281	 0.7604538559	 0.124391
