18
gdb 65525	3.84248	1.18802	1.15561	1.84	71.05	-0.2401	0.067	0.3071	1114.6104	0.147672	-439.010649	-439.002742	-439.001798	-439.043164	30.945	
O	-0.182440581	 1.3320642143	-0.2710678714	-0.490547
C	-0.0685190637	-0.0588718828	-0.1107618539	 0.383141
C	 0.368931292	-0.5590592226	 1.3337784009	-0.329694
C	-1.0101389573	-1.2027972923	 1.4692291166	 0.042464
O	-1.9815925692	-0.1564758697	 1.2814092305	-0.266336
C	-1.4170588472	-0.7846446203	 0.1193471638	-0.04075
C	 0.7659053455	-0.6140516885	-1.2382931616	-0.033496
C	 0.676383275	-0.0298275356	-2.5985766377	-0.24822
N	 1.8855633317	 0.1699802793	-1.7758794847	-0.333961
H	-0.8453626003	 1.6197218021	 0.3698926289	 0.292864
H	 1.189324254	-1.2794347589	 1.2929061853	 0.120362
H	 0.598756655	 0.2257908264	 2.0580549511	 0.111371
H	-1.3220087164	-2.0587687776	 2.0547984058	 0.112199
H	-2.1043719168	-1.2156612667	-0.5999675149	 0.108301
H	 0.9762172104	-1.6774004413	-1.14109804	 0.087579
H	 0.8134226052	-0.665463385	-3.4687552694	 0.113425
H	 0.0092072254	 0.8147324208	-2.7362420088	 0.125734
H	 1.8390349677	 1.1020140482	-1.3681437206	 0.245564
