18
gdb 126628	3.34018	1.04885	0.84638	2.4507	74.26	-0.2175	0.0164	0.234	1375.2393	0.149023	-435.317769	-435.308949	-435.308005	-435.352363	31.688	
C	-0.122524554	 1.5291076494	 0.016917497	-0.380277
C	-0.0973523995	-0.0007170071	-0.0021760979	-0.173849
C	 0.7752009171	-0.5734036224	 1.1193618223	-0.145426
N	 0.7923357598	-2.0210151435	 1.1422833599	-0.072492
N	-0.3157063955	-2.7450584747	 1.5252798291	-0.242434
C	 0.0485092408	-3.9831141495	 1.4103190909	 0.061102
N	 1.3399804561	-4.0994157437	 0.968462211	-0.366
C	 1.863426006	-2.813660321	 0.7780694544	 0.475351
O	 2.9697764848	-2.4918604367	 0.3957875152	-0.436154
H	 0.8825781347	 1.9460203694	-0.1105692379	 0.120611
H	-0.7498211505	 1.9220489865	-0.7882769016	 0.11821
H	-0.5214016491	 1.9087248558	 0.9642013661	 0.117789
H	-1.1121959454	-0.3989171761	 0.1065445016	 0.118441
H	 0.2837072304	-0.3611076104	-0.964883709	 0.109523
H	 1.8186141976	-0.2687927156	 0.9965203751	 0.144459
H	 0.4258679913	-0.2156360277	 2.0945438731	 0.118899
H	-0.5861862957	-4.8249451061	 1.6372960309	 0.152693
H	 1.8659099312	-4.9386455765	 0.7990397797	 0.279554
