19
gdb 105965	4.18554	1.10875	1.10355	1.765	79.31	-0.2205	0.0672	0.2877	1192.7269	0.157748	-385.777594	-385.769163	-385.768219	-385.810527	32.529	
C	 0.0750388483	 1.4945794757	-0.014362294	-0.523124
C	 0.0212763697	 0.0032470572	 0.0127667812	 0.366253
C	 0.1913093261	-1.013929051	-1.1086063602	-0.141131
C	 0.7533446894	-2.0521593994	-0.09455088	-0.140115
C	 0.5875456683	-1.0408332039	 1.030938896	-0.229194
C	-0.5500832217	-1.997944281	 0.6918349182	 0.353519
C	-1.2092896084	-3.0341103608	 1.536414213	-0.214665
O	-1.7553409163	-4.1206769767	 0.794837998	-0.412373
C	-1.1167448057	-0.9520195693	-0.3262661947	-0.237958
H	 1.1087509019	 1.859233548	-0.043830808	 0.121824
H	-0.4389170653	 1.8819480427	-0.9012397793	 0.121097
H	-0.4089932256	 1.9317248164	 0.8672366915	 0.120406
H	 0.3699155333	-0.8502424951	-2.1633361976	 0.08375
H	 1.4553897787	-2.8694318411	-0.1925416698	 0.089362
H	 1.1379236538	-0.9365344429	 1.9576752125	 0.083205
H	-0.4672123192	-3.4783262728	 2.2100013486	 0.110384
H	-1.9813594979	-2.5669802772	 2.1705635861	 0.088452
H	-2.3717039466	-3.7529259492	 0.153516024	 0.282138
H	-2.1185292428	-0.7272038496	-0.6722746153	 0.078169
