22
gdb 59678	2.11285	1.35257	0.98359	3.9211	86.09	-0.2973	0.0317	0.329	1309.6761	0.193859	-367.231502	-367.221701	-367.220757	-367.266197	36.408	
C	-0.039945969	 1.5549016544	-0.0552644209	-0.3974
C	 0.0565876596	 0.0268012473	 0.0564765636	 0.009167
C	 0.797283971	-0.3891982601	 1.3352406979	-0.397331
C	-1.3339310314	-0.5994123234	-0.0083322023	 0.061084
C	-2.198664792	-0.4402036665	-1.2893804402	-0.242518
C	-2.7032241999	-1.892805211	-1.1047893929	-0.228841
C	-1.503051305	-2.1633197693	-0.1361535227	-0.198076
C	-0.3869561835	-2.8404049467	-0.7791245391	 0.287137
N	 0.4997755799	-3.3734283438	-1.2972647819	-0.343302
H	 0.9561476605	 2.0084844736	-0.0495798762	 0.116511
H	-0.5415362997	 1.8625632549	-0.9783017493	 0.116743
H	-0.6009058181	 1.9762834924	 0.7877320203	 0.111159
H	 0.6303868977	-0.3429160359	-0.8041170837	 0.093504
H	 0.9125667621	-1.4753579876	 1.4014836301	 0.125419
H	 1.7994453317	 0.0497622731	 1.3639259972	 0.117358
H	 0.2597519054	-0.0487619185	 2.2286708483	 0.108189
H	-1.9138101026	-0.2862964321	 0.8686105691	 0.079185
H	-2.9454443544	 0.3558772245	-1.2997767376	 0.106182
H	-1.5713334859	-0.3441245454	-2.1810899781	 0.118041
H	-3.6482671125	-1.9418708099	-0.5594125135	 0.114387
H	-2.7691022337	-2.5271893933	-1.9893171424	 0.124144
H	-1.74260147	-2.6929408967	 0.7889760443	 0.11926
