16
gdb 29836	3.96721	1.06709	0.84782	6.9358	81.23	-0.2096	0.0002	0.2097	1297.8335	0.125925	-396.982797	-396.974077	-396.973133	-397.016267	31.654	
C	-0.054648433	 1.4546972184	 0.021005652	-0.346885
N	-0.0137025116	 0.0053291598	 0.0003480411	-0.018334
C	 0.004815802	-0.7763451942	-1.1194919299	-0.195232
C	 0.0213592199	-2.0999443629	-0.7196213616	 0.174364
C	 0.0364078222	-2.112615055	 0.7114566975	-0.361312
C	 0.0169245829	-0.802237439	 1.1235510642	 0.311162
N	-0.0615694266	-0.2145830286	 2.3981214685	-0.609837
C	 0.0304136615	-3.2232083344	-1.5799519804	 0.194338
N	 0.03932451	-4.1494193301	-2.276986267	-0.358124
H	 0.9510193274	 1.888873226	 0.0623341377	 0.138554
H	-0.5543102819	 1.8148049428	-0.880131348	 0.14722
H	-0.6145448692	 1.7784781669	 0.9003105915	 0.164645
H	 0.0070600853	-0.3456449438	-2.1069703645	 0.141327
H	 0.0607786308	-2.9855757639	 1.3436368184	 0.112117
H	-0.3337601993	-0.8990991839	 3.0922662109	 0.255847
H	 0.8135923696	 0.2058363718	 2.6970253796	 0.25015
