14
gdb 26054	3.21242	1.25171	1.03384	2.5845	68.4	-0.2535	-0.0107	0.2428	1130.7565	0.100306	-436.667512	-436.65941	-436.658466	-436.701036	29.326	
O	 0.1551840723	 1.5127356362	-0.0703378581	-0.399803
C	 0.0728292736	 0.1071386101	-0.0034296432	-0.149923
C	 0.6237386595	-0.5547503949	-1.1985588768	 0.331258
C	 1.0747428699	-1.0888101541	-2.1752917033	-0.467515
C	 0.7805457216	-0.3853811093	 1.2345920803	 0.394558
N	 1.6641731198	 0.2753524298	 1.9084545851	-0.324727
C	 2.0447448486	-0.5962426214	 2.923914526	-0.106022
C	 1.3515733302	-1.7493719119	 2.7929283809	-0.043153
O	 0.5287121774	-1.6241915408	 1.7032836357	-0.169829
H	 1.0017616771	 1.7592671623	 0.3281145578	 0.302912
H	-0.9911444173	-0.1518910229	 0.0766343536	 0.138955
H	 1.4719841006	-1.5576217488	-3.0418048527	 0.205344
H	 2.7794940971	-0.3235092788	 3.663954079	 0.133937
H	 1.3019992195	-2.6817814155	 3.3274010857	 0.154008
