16
gdb 31454	5.39988	0.89429	0.81187	1.7348	81.43	-0.2291	-0.0146	0.2146	1410.1274	0.123596	-400.760199	-400.751648	-400.750704	-400.794089	31.16	
C	 0.1811307545	 1.4882708843	-0.1974141173	-0.381359
C	-0.0752823798	 0.0005009297	 0.097396709	-0.298034
C	 0.5942884323	-0.4738423148	 1.3403009082	 0.393651
N	 0.0572939046	-0.911523391	 2.432146631	-0.34582
C	 1.1394579304	-1.2080788914	 3.2709701379	 0.102353
C	 2.2897452312	-0.9172085397	 2.6047397687	-0.123321
O	 1.9592145706	-0.4476421738	 1.3718026036	-0.16976
C	 0.9896333022	-1.7210553638	 4.5798052588	 0.23194
C	 0.8714992344	-2.1576107594	 5.6948308017	-0.413127
H	 1.2503686635	 1.6862315234	-0.311397009	 0.1336
H	-0.3211448671	 1.7833610511	-1.1227167286	 0.122502
H	-0.19743484	 2.1178905747	 0.6129394771	 0.133054
H	-1.1433017256	-0.1922758959	 0.2207612152	 0.140656
H	 0.2721495692	-0.6060731406	-0.7477406335	 0.126367
H	 3.336647594	-0.9822065547	 2.8439471799	 0.155505
H	 0.7610581655	-2.5427791682	 6.6781801775	 0.191795
