18
gdb 78102	2.83055	1.27136	1.05286	4.2288	74.18	-0.2315	0.0238	0.2553	1170.898	0.146298	-439.065155	-439.056248	-439.055304	-439.098792	32.969	
C	 0.2757258329	 1.5752523286	-0.0093082873	-0.43427
C	 0.195629458	 0.0668218811	 0.0527532522	-0.084873
C	 1.361720471	-0.8785063737	-0.1903432309	-0.11429
N	 2.5896731488	-0.3630618807	 0.3980288432	-0.032326
C	 2.0349687171	-0.3097904812	 1.76197239	-0.253361
C	 0.6968599419	-0.8098218464	 1.1778734294	 0.336945
O	-0.0642798558	-1.786965285	 1.7825182447	-0.452376
C	 3.575731158	 0.4031683193	-0.1341176417	 0.132517
O	 4.3588482231	 1.066511849	 0.5134895487	-0.331832
H	 1.230226132	 1.9510412995	 0.3681207618	 0.14615
H	 0.1673909404	 1.9258528932	-1.0410447413	 0.126482
H	-0.5212640338	 2.0365138498	 0.5837695067	 0.120861
H	-0.7168321111	-0.3600516186	-0.3625473093	 0.100399
H	 1.3716881942	-1.6648049613	-0.9350071778	 0.118878
H	 2.4948559713	-1.0492674915	 2.4238402828	 0.132743
H	 2.0675733808	 0.6796058429	 2.227499802	 0.125314
H	-0.799472328	-1.3645581437	 2.2397796634	 0.292715
H	 3.6075368594	 0.3203136288	-1.2402326267	 0.070325
