14
gdb 128567	3.97394	1.19306	0.92296	4.3669	70.03	-0.244	-0.0602	0.1839	1184.5689	0.100066	-473.811067	-473.803174	-473.802229	-473.843995	28.296	
C	-0.0091992743	 1.4368929938	-0.0035149516	-0.248724
O	 0.0133161519	 0.0005917402	-0.0226134099	-0.247709
C	 0.5931477794	-0.6267222208	-1.0374172371	 0.537596
C	 0.6434200817	-1.9828701657	-1.1087529265	-0.418947
C	 1.2879263503	-2.5917054489	-2.2376788509	 0.378506
O	 1.4226494008	-3.7859053633	-2.4593576262	-0.374988
C	 1.8216148718	-1.5779485862	-3.1915731489	-0.041496
N	 1.7608326388	-0.301775533	-3.10086154	-0.057916
O	 1.1087686674	 0.2036834973	-1.9574244391	-0.274136
H	 1.004805685	 1.8435465741	 0.0114359037	 0.151853
H	-0.5471707375	 1.8309424014	-0.8690229029	 0.151851
H	-0.5328102381	 1.6964222082	 0.9157459925	 0.15125
H	 0.2015800681	-2.5779011948	-0.3218989661	 0.132954
H	 2.3299777547	-1.9364623622	-4.083262897	 0.159906
