15
gdb 10749	2.57779	1.95618	1.5733	3.4158	60.88	-0.2849	0.0094	0.2943	876.109	0.116496	-399.781626	-399.773239	-399.772294	-399.81432	30.138	
C	-0.0657349223	 1.4760014191	-0.1751535823	-0.404203
C	-0.014544406	-0.0428195377	 0.0161881831	 0.164722
O	 0.6494724673	-0.277743928	 1.2501550469	-0.431332
C	-1.3913511641	-0.5909917649	 0.0684264967	 0.269303
N	-2.4487582622	-1.0500933295	 0.147029463	-0.346175
C	 0.7781031632	-0.6917098377	-1.1206147206	 0.062895
C	 0.4451335235	-1.991982127	-1.7165572356	-0.20454
O	 0.1550360225	-0.760717626	-2.3914744323	-0.226494
H	 0.9554878238	 1.8657749306	-0.1719874496	 0.135408
H	-0.5434205717	 1.7188377517	-1.1263923164	 0.154828
H	-0.6226222098	 1.93960214	 0.6413370707	 0.146847
H	 0.6698621596	-1.2286916806	 1.4106854596	 0.29487
H	 1.8172491087	-0.3591239282	-1.1236305056	 0.111403
H	 1.2387387817	-2.5889321308	-2.1619348847	 0.127428
H	-0.4274322442	-2.5412252811	-1.3698509328	 0.14504
