16
gdb 43539	2.6536	1.4188	1.04702	1.3843	76.81	-0.2475	-0.0371	0.2104	1128.5913	0.12261	-400.693155	-400.684729	-400.683784	-400.726478	31.441	
O	 0.0603575817	 0.3155285665	-1.1919768595	-0.313611
C	-0.0000869041	 1.2342482812	-0.4240986582	 0.34202
C	-1.1245303522	 1.9032529998	 0.389272441	-0.367719
C	-0.1288268778	 3.0816322276	 0.7143785163	-0.277004
C	 0.0429321837	 3.4458237485	 2.104888917	 0.319748
C	 0.2003319651	 3.7319118211	 3.2622150107	-0.449785
C	 1.0017474543	 2.253903771	 0.0467721901	 0.245023
C	 2.3797231831	 1.9458231125	 0.5162074113	-0.284498
N	 2.1595841186	 2.7609501643	-0.6771589622	-0.357407
H	-2.0211189623	 2.1702351995	-0.1737888437	 0.141063
H	-1.4117341917	 1.3210201965	 1.2684624816	 0.147754
H	-0.3568956346	 3.9655486298	 0.1111267071	 0.123344
H	 0.3304336303	 3.9945361702	 4.2829819129	 0.200669
H	 2.7522857965	 2.4876914922	 1.3806454628	 0.144337
H	 2.7296788878	 0.9226047851	 0.4069488906	 0.134782
H	 2.2889935816	 2.2027061442	-1.5206627179	 0.251283
