21
gdb 84658	2.25074	1.77984	1.31026	1.7487	82.73	-0.2382	0.0028	0.241	1076.6067	0.183524	-387.090664	-387.082297	-387.081353	-387.122994	33.407	
C	-0.4490115876	 1.4811857043	-0.0231854644	-0.3937
C	-0.0134585508	-0.0019517715	-0.0208529965	-0.050772
C	 0.6572039534	-0.3412447725	-1.3311677583	-0.091572
C	 1.9810929018	-0.3515850817	-1.4967715983	-0.048029
C	 2.8958624141	-0.0647633989	-0.3655175439	-0.014079
O	 2.6768881166	 1.1674267973	 0.3716040389	-0.257132
C	 2.3385485482	-0.0705812735	 0.9956266185	 0.059899
C	 0.8726001163	-0.4113418249	 1.1924588277	-0.023106
C	 0.3508665544	 0.1120173862	 2.5381437039	-0.413863
H	 0.4254264041	 2.1339045308	-0.0180713001	 0.147682
H	-1.0368006067	 1.6990787227	-0.9209044828	 0.106664
H	-1.0748493705	 1.7147132635	 0.8430847269	 0.109687
H	-0.9312282751	-0.6019371525	 0.0483561408	 0.075257
H	 0.0053286758	-0.5345702156	-2.1799042034	 0.092938
H	 2.4244958143	-0.576008579	-2.4620860281	 0.08893
H	 3.9498137411	-0.2945387281	-0.5081143938	 0.089542
H	 2.9931504623	-0.3440358205	 1.826132539	 0.083849
H	 0.8466878925	-1.5110152374	 1.233968792	 0.080944
H	 0.4465374111	 1.1988922084	 2.6126618937	 0.132337
H	-0.7029399225	-0.1470508376	 2.6832570487	 0.113087
H	 0.9174601072	-0.3280182894	 3.3654503596	 0.111436
