12
gdb 5363	5.60997	1.65911	1.28043	4.6347	63.96	-0.26	-0.0828	0.1772	865.363	0.085784	-377.577014	-377.570853	-377.569909	-377.607664	22.088	
O	-0.0900507208	-0.007701246	-0.0024524579	-0.23322
C	 0.0065056461	 1.19010217	 0.0061217672	 0.11907
C	 1.3108820607	 1.9430124821	-0.0020293553	 0.247607
N	 2.4500062236	 1.2456930974	-0.020061277	-0.250847
C	 3.5713419131	 1.9639495816	-0.0262473745	 0.011928
C	 3.5642867921	 3.356966291	-0.0146088196	-0.120644
C	 2.3188663011	 3.9742791978	 0.0039967028	 0.009979
N	 1.183369574	 3.2745291289	 0.0104610755	-0.264445
H	-0.8706989154	 1.8694383246	 0.0213110615	 0.097284
H	 4.5057637184	 1.4073020465	-0.0411171055	 0.130493
H	 4.4832639767	 3.9306253011	-0.01976105	 0.123633
H	 2.2259301303	 5.0577975149	 0.0139570928	 0.129162
