17
gdb 20051	5.40443	1.39518	1.19228	2.0063	68.35	-0.2445	0.0268	0.2714	1007.2061	0.14398	-363.863483	-363.856309	-363.855365	-363.895749	26.47	
C	-0.1372759195	 1.3357359022	-0.2331991905	-0.271851
C	 1.2802138822	 0.9633188474	 0.1159947497	-0.269757
C	 0.2095944421	-0.0960892918	 0.1027025555	 0.018303
C	-0.2920559693	-0.6872459981	 1.3892105162	 0.085802
C	-1.6524595877	-1.4359329479	 1.2890501389	-0.20268
N	-1.3657220445	-2.8285848414	 1.6743337197	-0.263699
C	-0.1287307145	-2.8566479684	 1.9450905367	 0.118353
O	 0.6202040446	-1.7348968826	 1.8463438542	-0.232422
H	-0.7067365537	 1.9049210635	 0.4945300261	 0.114911
H	-0.374109588	 1.5745310167	-1.2635077318	 0.118296
H	 2.0206316253	 0.9486773227	-0.6754987917	 0.118143
H	 1.6666965055	 1.2781701381	 1.0795712419	 0.119119
H	 0.2271512011	-0.7993603611	-0.725891676	 0.091865
H	-0.3002398447	 0.079995011	 2.1713006781	 0.085311
H	-2.4113478656	-1.0148202306	 1.9558385675	 0.116601
H	-2.0596492219	-1.4055495517	 0.2722616065	 0.116069
H	 0.4230772986	-3.7347127279	 2.263521989	 0.137637
