18
gdb 26195	4.06753	0.9669	0.92443	2.3374	74.84	-0.2349	0.0048	0.2397	1351.5829	0.146667	-439.127151	-439.117888	-439.116944	-439.161763	33.382	
C	-0.0047646853	 1.5367209145	 0.0688073181	-0.408336
C	-0.0246623929	 0.0039322991	 0.0330959512	 0.024145
O	 0.6588867189	-0.5571298094	 1.1477746697	-0.425507
C	-1.4221393073	-0.5337345191	-0.0654943038	 0.382963
N	-2.0072532711	-1.1222876948	-1.0568485642	-0.34925
C	-3.2976792832	-1.4040182946	-0.6012620663	 0.246713
C	-4.3027642647	-2.0923692801	-1.4604933455	-0.49177
C	-3.4045983236	-0.9570907063	 0.6721917672	-0.122576
O	-2.2092959987	-0.3895355489	 1.0332766642	-0.194383
H	 1.0272162676	 1.8858066608	 0.1560551044	 0.129341
H	-0.4462767066	 1.955038935	-0.8408579733	 0.129916
H	-0.5751907786	 1.9091085933	 0.9264490778	 0.120596
H	 0.5071846137	-0.3532455535	-0.8522744301	 0.123202
H	 0.1570109935	-0.33083594	 1.9390473344	 0.287549
H	-3.9384758953	-3.0764280807	-1.7733775082	 0.141732
H	-5.2483662673	-2.2277293467	-0.9293606052	 0.123802
H	-4.497690793	-1.5158175023	-2.3708242937	 0.139806
H	-4.1816832162	-0.9582182163	 1.416929913	 0.142057
