24
gdb 60381	3.21436	0.85298	0.75544	2.5462	86.65	-0.2333	0.0765	0.3098	1646.3452	0.215092	-405.528974	-405.518059	-405.517115	-405.565621	39.899	
C	 0.034546829	 0.6191426427	 1.5834814676	-0.391324
C	-0.0846554866	-0.0260722196	 0.2075260601	 0.162712
C	 1.1850642989	-0.7864898248	-0.1845814653	-0.393611
O	-1.2218794411	-0.8844554001	 0.2634233055	-0.266599
C	-1.7304559196	-1.3152575659	-0.9801492822	-0.13745
C	-3.0845610145	-1.9749186617	-0.7767958915	 0.318487
C	-3.7587198308	-2.3914878367	-2.0653918433	-0.451115
C	-3.3262939141	-2.7314351955	 0.4757699751	-0.268867
N	-3.9752100505	-1.4189515956	 0.252835692	-0.355388
H	 0.8690966909	 1.3258949152	 1.6067688588	 0.115341
H	-0.8835988935	 1.1556346024	 1.8371583938	 0.121126
H	 0.2079125769	-0.145425306	 2.347460944	 0.124047
H	-0.2772147879	 0.7584441043	-0.5437863271	 0.067729
H	 1.1017465909	-1.2324659684	-1.1795650028	 0.118837
H	 2.0446888799	-0.1090599985	-0.1963520562	 0.116757
H	 1.384805818	-1.5863374507	 0.535872912	 0.123164
H	-1.84331446	-0.4531725859	-1.6613516193	 0.087667
H	-1.0483595768	-2.0278170012	-1.4705731207	 0.095206
H	-3.1636719053	-3.1397355591	-2.6018270217	 0.11122
H	-4.741867029	-2.8179040031	-1.854039783	 0.130508
H	-3.9021597579	-1.5321656279	-2.7309128553	 0.11524
H	-4.0011364792	-3.5835391129	 0.4688417345	 0.105877
H	-2.5215138655	-2.7815840536	 1.2018709081	 0.118861
H	-3.4470428322	-0.7247908973	 0.7789029167	 0.231575
