20
gdb 13291	5.10901	0.94203	0.94056	2.1709	72.26	-0.2555	0.0809	0.3364	1328.6442	0.176842	-386.117916	-386.109191	-386.108247	-386.152268	31.608	
O	 0.293879131	 1.0760520824	-0.2728236512	-0.422153
C	-0.0629823691	-0.1688410266	 0.2943818887	-0.058552
C	-1.5586722679	-0.4184460704	 0.1810882509	-0.081926
O	-1.870118617	-0.3930512152	-1.2025944273	-0.269874
C	-3.2421881428	-0.4922437568	-1.4858207042	 0.181592
C	-4.1621534866	 0.7394937298	-1.2460839794	-0.245739
C	-4.8424430407	 0.4148938858	-2.6053599076	-0.218057
C	-3.5965394035	-0.4337509168	-2.9835575491	-0.250376
H	-0.1263807358	 1.0922918135	-1.1409438353	 0.287419
H	 0.4759378478	-1.0004767403	-0.1873570804	 0.092139
H	 0.2305741083	-0.1429665457	 1.3489873405	 0.106428
H	-1.8299077368	-1.3902406944	 0.6254612507	 0.086848
H	-2.1104610874	 0.3710509659	 0.7133286105	 0.099893
H	-3.6609204208	-1.3909192288	-1.0063494652	 0.065562
H	-4.7828490154	 0.7622032937	-0.3477225121	 0.097063
H	-3.5738587117	 1.66047476	-1.301507921	 0.109035
H	-5.7344535093	-0.2040095266	-2.4773527591	 0.106091
H	-5.0943259084	 1.2551633086	-3.2544297397	 0.1045
H	-2.8499145768	 0.1637503054	-3.5144875983	 0.109994
H	-3.742711337	-1.3767709237	-3.5141774115	 0.100114
