19
gdb 115439	4.5051	0.8989	0.85413	1.9712	76.99	-0.2555	0.037	0.2925	1381.5029	0.158683	-422.986797	-422.977589	-422.976644	-423.021671	33.873	
O	-0.1105977525	 1.3795876885	-0.3370304759	-0.423421
C	-0.0206464712	-0.0339107609	-0.2430265475	-0.086398
C	-1.3717213452	-0.560853856	 0.2332545954	 0.025392
C	-2.4649465034	-0.3316791362	-0.8246331145	-0.101488
O	-2.4196849994	-1.489363899	-1.6543108863	-0.241711
C	-2.2686486836	-2.6059269287	-0.7807428189	-0.064139
C	-1.359483653	-2.1035305762	 0.3841199345	-0.283522
C	-3.5656411494	-3.1003930573	-0.3028518921	 0.351705
C	-4.6280925033	-3.5014499984	 0.0918728715	-0.489371
H	 0.6967669284	 1.7091993246	-0.7416542785	 0.288638
H	 0.2171071622	-0.4877000566	-1.218525442	 0.096774
H	 0.7657378058	-0.3365349913	 0.4669147473	 0.085264
H	-1.6217701928	-0.0612312756	 1.1732049468	 0.085881
H	-3.4551849438	-0.2309540881	-0.3574793455	 0.097453
H	-2.274950684	 0.5415265782	-1.4508299953	 0.123551
H	-1.7826246676	-3.3936788561	-1.3649637638	 0.109018
H	-0.3481260451	-2.505619245	 0.2736419065	 0.105806
H	-1.7418457336	-2.4302616943	 1.3515826092	 0.121041
H	-5.5680561985	-3.8613514916	 0.4308326191	 0.199526
