20
gdb 32525	1.95823	1.51154	0.91524	1.7959	82.31	-0.1882	0.0341	0.2223	1322.6006	0.171294	-403.171355	-403.161971	-403.161027	-403.205709	34.66	
C	 0.0642193736	 1.5479858784	 0.1352678224	-0.36928
C	-0.026095306	 0.0204122115	-0.0369382613	-0.316783
C	 0.6908539334	-0.4928309434	-1.2502967418	 0.166594
C	 0.1575784779	-0.8769061339	-2.4405710496	-0.096042
O	 1.1124668787	-1.2823031976	-3.3095041707	-0.156855
C	 2.3146877467	-1.1476525238	-2.6647924463	-0.097817
C	 2.1177608614	-0.6768411134	-1.3983021939	 0.17344
N	 3.0602166801	-0.4783844961	-0.3901059801	-0.386495
C	 4.4599438921	-0.5431936824	-0.7690484265	-0.325995
H	 1.1035461583	 1.887938709	 0.2054492624	 0.108845
H	-0.3861725699	 2.0616190181	-0.7194102185	 0.123784
H	-0.4536036483	 1.8723563452	 1.0435708205	 0.113146
H	 0.3806080823	-0.4691670403	 0.8574541754	 0.109121
H	-1.080991068	-0.2704609451	-0.0908122271	 0.106175
H	-0.8581688452	-0.9226979259	-2.8003404633	 0.128233
H	 3.1841964153	-1.4427788888	-3.2248538625	 0.122055
H	 2.8473443937	 0.3178300361	 0.1936951748	 0.234142
H	 4.6996648959	-1.5579006641	-1.1062231278	 0.132854
H	 4.7286495943	 0.1526036097	-1.5811471444	 0.109309
H	 5.0824783736	-0.3237891031	 0.1015271683	 0.121571
