21
gdb 108152	3.24276	1.40404	1.2045	1.0476	88.84	-0.2051	-0.0277	0.1775	1125.7408	0.18264	-349.859159	-349.851133	-349.850188	-349.891433	32.437	
C	 0.3370938937	 1.5179210812	 0.0911747873	-0.376133
C	-0.0961456302	 0.0623130976	-0.1282494768	-0.280387
C	 0.5223481549	-0.5769079261	-1.3560311614	 0.356957
C	 0.0823651276	-0.0946383952	-2.7585403044	-0.315063
C	 0.8732052179	-1.0614897048	-3.6279928921	-0.107898
C	 1.3359242784	-2.073800953	-2.8670349979	 0.045459
C	 2.7498002563	-1.8951337892	-2.295435833	-0.269264
C	 1.9372481609	-1.2715103552	-1.0989254958	-0.104025
C	 0.7026803246	-2.0492089213	-1.4643810295	-0.16291
H	 1.4227209115	 1.5893587123	 0.2128709608	 0.118636
H	 0.0568565418	 2.1503632918	-0.7574420497	 0.117693
H	-0.1325737709	 1.9378886244	 0.985980094	 0.110546
H	 0.1516399077	-0.5316114534	 0.7596952896	 0.096061
H	-1.1896485534	 0.0183977286	-0.22618575	 0.096312
H	-1.016224878	-0.115283732	-2.829731831	 0.102855
H	 0.3924572285	 0.9273207926	-3.0107147749	 0.107301
H	 1.4262097424	-0.6888594647	-4.4863410295	 0.092507
H	 3.260103691	-2.7980359143	-1.9388088199	 0.102725
H	 3.4418484195	-1.2735941105	-2.8711866279	 0.098584
H	 2.353519566	-1.1748849523	-0.0983606151	 0.086103
H	 0.1985196299	-2.8502850666	-0.9381249627	 0.083943
