22
gdb 59093	2.00657	1.51802	0.95196	2.6559	83.5	-0.2583	0.03	0.2883	1305.687	0.193014	-404.36555	-404.35563	-404.354685	-404.400224	37.087	
C	 0.1316423743	 1.4649528632	 0.5320795986	-0.396729
C	 0.1328788588	-0.0232828073	 0.1540715698	 0.01152
C	 1.0096838396	-0.8304511839	 1.1240129467	-0.396872
C	-1.292983347	-0.5885064275	 0.1335306639	-0.139004
C	-2.3218023021	-0.2119178395	-0.9798228333	 0.112872
C	-1.8977832197	 0.5706399065	-2.2045823098	-0.40673
O	-2.46983994	-1.6399957606	-1.3038953557	-0.267464
C	-1.5160663411	-1.999312691	-0.3807981862	 0.428033
N	-1.0368897998	-3.1288654297	-0.1119182119	-0.54948
H	 1.1511759761	 1.8635864239	 0.5308045072	 0.11701
H	-0.4622998247	 2.0706332762	-0.1585481959	 0.112377
H	-0.2778597263	 1.6077256026	 1.5392011863	 0.114752
H	 0.5610255986	-0.1274412886	-0.8511401504	 0.077642
H	 0.6469398341	-0.7234256794	 2.153514631	 0.108541
H	 0.9998798421	-1.893614254	 0.8748440324	 0.15751
H	 2.0426039012	-0.4684382525	 1.0970149478	 0.105425
H	-1.7341085705	-0.4709512093	 1.1302943646	 0.101839
H	-3.2720963429	 0.1646410163	-0.5887740806	 0.092241
H	-0.9356142936	 0.2252052613	-2.591523102	 0.130904
H	-2.6462655889	 0.4434366425	-2.9926749248	 0.13336
H	-1.8237536802	 1.6387380045	-1.9802888933	 0.127672
H	-1.4548283279	-3.8545919738	-0.6973615745	 0.224583
