18
gdb 59037	2.78194	1.337	1.08491	4.7894	75.06	-0.2536	-0.03	0.2236	1162.6995	0.148232	-439.140389	-439.131697	-439.130753	-439.173846	32.591	
C	 0.0281588386	 1.5336218126	-0.1260994217	-0.403556
C	 0.0160186968	 0.0096972908	 0.0698813316	 0.016276
O	 0.611484539	-0.359647574	 1.3036178858	-0.441532
C	-1.3854247686	-0.5387043903	-0.0135122756	 0.248024
C	-2.0390036956	-1.1705482014	-0.9913310192	-0.236947
C	-3.4479221064	-1.4990598642	-0.5678398717	-0.206769
N	-3.4964132481	-0.9529858439	 0.7707195854	-0.334319
C	-2.3046001546	-0.4055543945	 1.1617831204	 0.390597
O	-2.0474239887	 0.0853133639	 2.2513586956	-0.418762
H	 1.0514008855	 1.9032822008	-0.0170975059	 0.124405
H	-0.3459632057	 1.811177599	-1.1171457078	 0.107364
H	-0.5982221026	 2.017304358	 0.629862537	 0.132646
H	 0.6289793369	-0.4554260759	-0.7111950926	 0.086914
H	-0.0148454264	-0.0887937683	 1.9938025832	 0.296909
H	-1.6587246773	-1.4306369755	-1.971110203	 0.117238
H	-4.192035454	-1.035467707	-1.2311947351	 0.130611
H	-3.6332610032	-2.582733896	-0.5783997067	 0.132319
H	-4.2705772456	-1.0579524241	 1.4042242403	 0.258585
