18
gdb 77970	3.30956	1.19494	1.02328	2.9399	75.14	-0.2385	0.0104	0.2489	1193.5399	0.146595	-439.027022	-439.018473	-439.017529	-439.060029	32.22	
C	-0.1390893239	 1.7419117348	-0.0496879396	-0.448608
C	-0.0774741546	 0.2242260387	-0.0838777184	 0.059186
C	 1.0878269483	-0.5918011319	-0.7460787671	-0.110061
C	 1.9945510781	-0.3204929579	 0.5209634589	 0.145646
O	 2.5294434923	 0.9353177122	 0.8198205772	-0.428314
C	 0.567024481	-0.6569435772	 1.0433516544	-0.102165
N	 0.5549375688	-1.7666787342	 0.0202062225	-0.067224
C	 1.162075354	-2.9946908374	 0.1233358362	 0.127797
O	 1.7943880788	-3.5335660877	-0.7582790522	-0.316933
H	-0.4288036603	 2.1169128854	-1.0377122478	 0.117906
H	-0.9149513694	 2.0628498246	 0.6543369211	 0.118505
H	 0.8014619988	 2.2047505906	 0.2374821987	 0.149619
H	-1.0457692839	-0.189941875	-0.3781146259	 0.090552
H	 1.3675641576	-0.6788400119	-1.7945885938	 0.106209
H	 2.7261920329	-1.1182569541	 0.6957706348	 0.094648
H	 3.4030453404	 0.9933175926	 0.4201310071	 0.293563
H	 0.2329189305	-0.8178096253	 2.0689743733	 0.095203
H	 0.9171373507	-3.4912999562	 1.0850388705	 0.074471
