19
gdb 128134	1.89669	1.81498	0.98993	2.2775	79.3	-0.1944	0.0453	0.2397	1216.1041	0.160484	-415.399916	-415.390155	-415.389211	-415.43461	35.348	
C	 0.3570820894	 1.4131111808	 0.4114396678	-0.325233
N	-0.2191829889	 0.2093573844	-0.197028611	-0.404004
C	 0.5575241	-0.3870975616	-1.2261008251	 0.018621
C	 0.2257135298	-0.3090266727	-2.5690251504	 0.369229
N	-0.8176098764	 0.3816221122	-3.1795722439	-0.607521
N	 1.1782302586	-0.9965556898	-3.2380345446	-0.272374
N	 2.1190450969	-1.5415276949	-2.4112616093	-0.309673
C	 1.7502992575	-1.1653088571	-1.19254538	 0.313346
C	 2.543174576	-1.590205065	 0.0029172423	-0.499718
H	 1.3416829157	 1.2562728747	 0.8793004363	 0.105554
H	 0.4733969616	 2.1830298921	-0.3569948461	 0.129075
H	-0.3288677486	 1.7953828632	 1.1744618958	 0.111374
H	-0.4442624668	-0.4648185599	 0.5263420283	 0.223112
H	-1.461221785	 0.6950965406	-2.4594461993	 0.25619
H	-1.3203404776	-0.1673668274	-3.8675413864	 0.244972
H	 1.2816695399	-1.1009828468	-4.2319816294	 0.264353
H	 3.0110625537	-0.7355911363	 0.5051191538	 0.126975
H	 1.9149937709	-2.0955927235	 0.7459711858	 0.115566
H	 3.3324315232	-2.2797939931	-0.3041903946	 0.140155
