22
gdb 113832	4.02106	0.82721	0.74165	2.1651	85.	-0.2272	0.0843	0.3114	1623.2681	0.192285	-404.299456	-404.28945	-404.288506	-404.335326	36.439	
C	 2.575972787	 1.6907365668	 2.2010623081	-0.375704
C	 2.0770988967	 0.2479046219	 2.2184985792	-0.114187
N	 0.6153352379	 0.2275244442	 2.2090279594	-0.08294
C	-0.0615453767	 0.0992946661	 0.928607509	-0.263959
C	-0.108203999	-1.0153601434	 1.9236247944	-0.02028
C	 0.5953268913	-2.2976371514	 1.6265234304	 0.051751
O	 0.850712211	-3.1780437027	 2.7344512456	-0.268787
C	-0.0426804225	-3.625174099	 1.7115782759	 0.066859
C	-1.4776937335	-3.8802385137	 2.0983418855	-0.420704
H	 3.6690598852	 1.7217653215	 2.2454647126	 0.110701
H	 2.2595607831	 2.2025737019	 1.2860948451	 0.116046
H	 2.174330415	 2.2456021901	 3.0533270011	 0.127514
H	 2.5202924908	-0.3002143225	 1.3707574217	 0.081724
H	 2.408468487	-0.2564060823	 3.1332058759	 0.117183
H	-0.9297947738	 0.7328916487	 0.7669106001	 0.115492
H	 0.5536245836	-0.0596546583	 0.0416249227	 0.104237
H	-1.0014832436	-1.1250367169	 2.5324923375	 0.092877
H	 1.4385284419	-2.2117652331	 0.940585703	 0.088995
H	 0.3867680513	-4.3992905291	 1.0705262644	 0.086396
H	-1.8656265334	-3.1062776719	 2.7626836335	 0.13318
H	-2.1114676107	-3.9293992975	 1.2062554152	 0.123315
H	-1.5578661285	-4.8405719495	 2.6183263198	 0.130291
