18
gdb 125845	3.02019	1.53822	1.11535	3.9264	77.63	-0.2507	0.0212	0.2719	1102.9661	0.149458	-398.126305	-398.118213	-398.117269	-398.159163	29.996	
C	-0.3760635668	 1.6811272865	-0.0678567121	-0.403425
C	 0.070160933	 0.2369127924	 0.0452624205	 0.03597
C	 0.8342356289	-0.469575211	-1.1809508824	-0.172551
C	 1.0891872189	 0.3362181771	-2.4483272218	-0.402653
C	 1.9746808749	-0.6317638423	-0.1802628251	 0.375827
N	 3.1212213195	-1.1349422277	 0.2429815495	-0.381967
C	 3.0820962744	-0.7388780342	 1.5609083015	 0.021742
N	 2.0008077268	-0.0616168824	 1.9665584004	-0.293985
N	 1.3318490239	 0.0027116683	 0.7920636855	 0.072112
H	 0.4310499954	 2.3259137652	-0.423529724	 0.134548
H	-1.2195966654	 1.760455342	-0.7608694998	 0.129894
H	-0.7046019018	 2.0519648387	 0.9074338147	 0.143527
H	-0.737623305	-0.3919371714	 0.432341548	 0.113338
H	 0.3612809244	-1.4246667048	-1.4298898692	 0.109331
H	 1.5852348078	 1.2864162344	-2.2344789962	 0.130557
H	 1.7352054319	-0.2304731941	-3.1251402504	 0.140552
H	 0.1523067172	 0.5446428308	-2.9745895099	 0.122977
H	 3.887038232	-0.9543446776	 2.2485327308	 0.124206
