15
gdb 127175	4.421	1.09555	0.88745	1.4559	71.69	-0.2377	-0.0283	0.2094	1222.8707	0.112814	-453.960085	-453.951931	-453.950986	-453.994042	28.662	
C	-0.0849788283	 1.4286374241	-0.0879099631	-0.359037
N	 0.0051910542	-0.0306157415	 0.0095479391	-0.205731
C	 0.096700532	-0.628649625	 1.254133329	 0.163908
O	 0.0578212561	-0.0303464297	 2.3014187404	-0.312576
C	 0.0220951554	-0.7917275953	-1.1435863109	 0.554277
C	-0.1145511786	-2.1281990911	-1.4064712688	-0.372017
C	 0.0257000958	-2.1835142393	-2.8152327763	 0.045571
N	 0.2155124647	-1.0097509023	-3.3630978674	-0.146679
O	 0.2174000792	-0.1102544564	-2.2804519141	-0.220187
H	 0.8005037137	 1.8359536694	-0.5814954992	 0.155058
H	-0.9706397475	 1.7143659799	-0.6598034036	 0.15126
H	-0.1541045765	 1.8083947688	 0.9297523408	 0.174692
H	 0.218066453	-1.721986427	 1.1837216784	 0.103794
H	-0.3092221801	-2.9371441066	-0.7254163235	 0.128162
H	-0.0168233129	-3.0539358879	-3.4553711008	 0.139506
