13
gdb 2452	6.12345	2.52555	2.07123	4.1716	52.89	-0.2705	0.0094	0.2799	621.8816	0.103223	-344.483775	-344.478315	-344.47737	-344.513008	20.989	
O	 0.0170602672	 0.037720926	-0.3743754678	-0.323633
C	-0.0394818018	 1.1731801481	-0.009829761	 0.41959
C	-1.2856872329	 2.0463661477	 0.1892858018	-0.373867
C	-0.7573955383	 3.3447625647	 0.7551109532	-0.066759
C	 0.0063136262	 3.2725109403	 2.0656292084	-0.312464
C	 0.740470048	 3.1894132477	 0.7615891578	 0.101238
O	 1.0806374637	 1.892156224	 0.3139996668	-0.213912
H	-1.7721545767	 2.1817969052	-0.78180675	 0.144425
H	-1.9916037237	 1.5147583349	 0.8336117674	 0.145188
H	-1.2220748219	 4.2800516098	 0.4705183874	 0.10569
H	 0.0984472141	 4.1908242986	 2.6348539181	 0.126337
H	-0.0607733373	 2.3691617662	 2.6642298635	 0.130664
H	 1.4470370136	 3.9401009168	 0.4328306743	 0.117503
