22
gdb 107401	3.01426	1.18122	1.09972	1.911	80.85	-0.2311	0.0771	0.3083	1238.9679	0.195261	-404.333044	-404.323996	-404.323052	-404.366802	34.897	
C	 0.609739964	 1.470060162	-0.0010367377	-0.403038
C	-0.0178167294	 0.069681133	-0.0328361107	 0.013314
C	 0.4794497039	-0.8322408023	-1.2051485863	-0.177152
N	 1.3083430676	-1.9300283688	-0.6725453829	-0.138628
C	 2.4741122061	-1.4713072559	 0.1021220015	-0.307028
C	 1.2318796281	-1.8755698645	 0.8069234777	 0.317519
C	 1.1328765593	-3.2230879148	 1.486425094	-0.146774
O	-0.1189152233	-3.8388634361	 1.2291502377	-0.419642
C	 0.2619358796	-0.7823609177	 1.2354493066	-0.301361
H	 1.6963979323	 1.4405948693	 0.1293488177	 0.1189
H	 0.4052683252	 2.0102783211	-0.9317434807	 0.11512
H	 0.1972898476	 2.0623810302	 0.8228476273	 0.116528
H	-1.0986350425	 0.2095628825	-0.1368483999	 0.080188
H	-0.3702139215	-1.2916687701	-1.7209516555	 0.102485
H	 1.0441361829	-0.2668387614	-1.9548733594	 0.103218
H	 3.3262730059	-2.1461896217	 0.0774273875	 0.1117
H	 2.7392688373	-0.4184687694	 0.071225355	 0.111568
H	 1.9665768973	-3.8613920504	 1.158219416	 0.089083
H	 1.2042884112	-3.1133056817	 2.5742958918	 0.10695
H	-0.1860032122	-3.8995007887	 0.2685579268	 0.288808
H	 0.6558788488	-0.1760785739	 2.0580103847	 0.099959
H	-0.6528658583	-1.2655032208	 1.5916427587	 0.118284
