20
gdb 79071	2.24478	1.99204	1.73091	0.3655	83.58	-0.2036	0.013	0.2166	952.1648	0.171035	-365.972563	-365.964713	-365.963769	-366.004102	32.268	
C	-0.0463597173	 1.5420973585	-0.0216422802	-0.328806
N	 0.1210240592	 0.0956062859	 0.013706164	-0.09816
C	 0.6506313876	-0.5723459038	-1.1373157508	-0.021066
C	 2.2498614316	-0.5963374679	-1.1839521457	-0.109341
C	 2.9563465371	 0.3383287045	-0.2841052603	-0.080859
C	 2.4014130647	 0.2952028023	 0.9383123809	-0.159916
C	 1.1815201779	-0.593855829	 0.893205821	 0.302427
C	 0.6244122204	-1.1366396486	 2.1875210757	-0.486182
C	 1.4416437404	-1.5395814061	-0.3315954269	-0.163767
H	 0.8418728365	 2.0941041197	-0.3619443453	 0.104384
H	-0.8736268991	 1.7712254418	-0.7030299493	 0.116109
H	-0.3244360813	 1.9046235121	 0.9734630496	 0.114746
H	 0.0823826773	-0.6811397011	-2.054929808	 0.096716
H	 2.6782972422	-0.9410982825	-2.1177156913	 0.081328
H	 3.7485844388	 1.0035284173	-0.6065011309	 0.095636
H	 2.6398726436	 0.9383401205	 1.7771692859	 0.090043
H	 0.3284469702	-0.320985958	 2.8565279762	 0.116931
H	-0.2569961831	-1.7554872428	 1.999901999	 0.123091
H	 1.3780379758	-1.739030249	 2.7063831499	 0.117157
H	 1.4752127176	-2.622046614	-0.3363335436	 0.089528
