16
gdb 49793	2.70463	1.5723	1.00159	5.2662	76.17	-0.2261	-0.0097	0.2164	1120.927	0.126622	-434.111885	-434.103857	-434.102913	-434.145211	29.501	
N	-0.0700299944	 1.1993031239	-0.5492080328	-0.569951
C	 0.0203718075	 0.0111734999	-0.0867595435	 0.482877
N	 1.1667454248	-0.6207553255	 0.3307614969	-0.381801
C	 1.2770511712	-1.8683063825	 1.0772059018	-0.208233
C	-0.0103025691	-2.624851413	 1.0229987354	-0.148597
C	-1.1090773197	-2.0853942924	 0.5071729464	 0.043513
N	-1.1476640336	-0.7869114922	-0.020779355	-0.175195
C	-2.3655126246	-0.2940851315	-0.5004832923	 0.164235
O	-3.3881936983	-0.936744841	-0.4719635685	-0.323348
H	 0.8311309312	 1.6707603975	-0.5488871361	 0.208796
H	 1.9806055549	-0.0277743381	 0.3315540246	 0.245409
H	 2.0919848	-2.4687625998	 0.6478830863	 0.123596
H	 1.560635206	-1.671198239	 2.1249813002	 0.120043
H	-0.0331339003	-3.628611415	 1.4267616773	 0.110891
H	-2.0674706735	-2.5829414005	 0.451228488	 0.155673
H	-2.264260612	 0.7230995893	-0.8936209588	 0.152093
