21
gdb 81853	2.67091	1.41315	1.05388	1.7651	84.51	-0.2175	0.0191	0.2366	1208.3705	0.181794	-387.094866	-387.085849	-387.084904	-387.127808	35.664	
C	-0.1483931592	 1.5660888555	 0.0245885659	-0.391555
C	 0.0169297955	 0.0379409079	-0.0030697222	-0.093589
C	 0.7964672612	-0.488398769	-1.2091259596	-0.139685
C	 2.2607953012	-0.1100350409	-1.3775132526	-0.312905
C	 1.9035367424	-1.3945080642	-0.6915110599	 0.403734
O	 2.3076990483	-2.5801474845	-1.3048296622	-0.469796
C	 1.784423133	-1.326370855	 0.7958779921	-0.30418
C	 0.7822072167	-0.5339913669	 1.1922317243	 0.331648
C	 0.410672133	-0.1924720588	 2.601193868	-0.492235
H	 0.8236656279	 2.069223681	 0.0297127496	 0.117885
H	-0.6986389305	 1.9088678395	-0.8570693757	 0.116105
H	-0.7023766096	 1.8936186977	 0.9102625829	 0.111633
H	-0.9947293681	-0.3975060262	-0.0095822833	 0.074387
H	 0.2588897606	-0.7476896499	-2.1139113329	 0.083918
H	 2.6459956427	-0.2012619483	-2.3879641964	 0.116088
H	 2.6943122956	 0.6932485614	-0.7908501248	 0.108606
H	 1.6751614323	-3.2652620181	-1.0604020235	 0.277189
H	 2.4721961168	-1.8509479414	 1.4514285258	 0.088635
H	 1.0159493494	-0.751040371	 3.3202423178	 0.123298
H	 0.5451364499	 0.8763330006	 2.8091876399	 0.129268
H	-0.6463413192	-0.4153123492	 2.7977674668	 0.121551
