22
gdb 112427	1.94245	1.45323	0.92615	3.9727	82.6	-0.2346	0.0385	0.2732	1337.7249	0.195068	-404.411611	-404.402149	-404.401205	-404.44584	35.915	
C	-0.3679749904	 1.5063521255	 0.1540917222	-0.39604
C	-0.3258126497	-0.0241321393	 0.2015259671	-0.167314
C	 0.7818733344	-0.5695223475	 1.1188003592	 0.007925
N	 0.6189602024	-0.1578641023	 2.5081862156	-0.298712
C	 0.0815732702	-1.1024525599	 3.3444948801	 0.402229
O	-0.2266068511	-0.9324778282	 4.5035303521	-0.382582
C	-0.0489074019	-2.3827082496	 2.515687702	-0.34467
C	 0.8220279243	-2.1232887121	 1.2739832465	 0.015002
C	 0.449093489	-2.9354507587	 0.0363950149	-0.412922
H	 0.5913518409	 1.920155617	-0.1777886174	 0.115635
H	-1.1377516385	 1.857379827	-0.5392056293	 0.12072
H	-0.5961520668	 1.9326795402	 1.1364771799	 0.117708
H	-1.2982152155	-0.4088513501	 0.5333766577	 0.101093
H	-0.1612333677	-0.4116585287	-0.8104423127	 0.102298
H	 1.746689948	-0.2089940676	 0.7376999889	 0.078062
H	 0.6986468339	 0.7977169565	 2.8180419207	 0.247824
H	 0.2542494491	-3.2534928407	 3.1000754918	 0.126653
H	-1.1060484112	-2.5179840021	 2.2544955722	 0.122827
H	 1.8555964701	-2.3696350904	 1.5459703832	 0.087867
H	-0.5908500801	-2.7707495478	-0.2621853713	 0.121265
H	 1.0891309226	-2.6869084371	-0.8172512176	 0.115798
H	 0.5678892982	-4.0051306141	 0.2361021042	 0.119335
