21
gdb 39877	3.76758	1.49155	1.38002	0.0917	86.44	-0.2523	0.1009	0.3533	1027.1979	0.185752	-349.906497	-349.899739	-349.898794	-349.937215	29.396	
C	-0.001274365	 1.5595497242	 0.0621756795	-0.359208
C	 1.292490862	 0.7610007152	-0.0019987998	-0.360142
C	-0.0325889333	 0.0668957419	 0.004879518	 0.45623
C	-0.5333774562	-0.9733195462	 1.0178913502	-0.139449
C	-2.060719638	-0.8755283706	 0.7966437064	-0.205864
C	-2.0134231876	-1.3608434622	-0.6708910276	-0.047339
C	-1.479415017	-2.8070947017	-0.490265146	-0.240815
C	-0.1888430066	-2.0920165539	-0.0663957607	-0.015603
C	-0.5256023919	-0.9140794112	-1.0419082224	-0.120939
H	-0.2471974813	 2.0475193281	 1.0007588589	 0.107793
H	-0.2960338044	 2.1208814945	-0.8190632943	 0.108755
H	 1.8616254935	 0.7874854283	-0.9263629331	 0.108669
H	 1.9050249987	 0.7202340764	 0.8935065026	 0.109139
H	-0.1507251514	-1.014287989	 2.0377447904	 0.057423
H	-2.6514239764	-1.5418685508	 1.4324410082	 0.085984
H	-2.4276020851	 0.1470492353	 0.9195638327	 0.093533
H	-2.8626497808	-1.1381043765	-1.3161462275	 0.057843
H	-2.0021426892	-3.4624172296	 0.2146114875	 0.085366
H	-1.3394086009	-3.3270254734	-1.4429740646	 0.093404
H	 0.7922558304	-2.5610766146	-0.0129912487	 0.064705
H	-0.2361794193	-0.895269384	-2.0923483997	 0.060513
