17
gdb 16870	4.01819	1.84125	1.38696	3.211	67.77	-0.2324	-0.0164	0.2161	888.0346	0.143685	-363.85933	-363.852512	-363.851568	-363.890424	26.688	
O	-0.0704063828	 0.5887316738	-1.365568929	-0.307089
C	-0.0871542624	 1.3406494304	-0.4212321936	 0.398417
C	-1.3634778732	 2.0094703476	 0.0788003015	-0.296827
C	-1.2143214872	 2.4936048815	 1.5310875576	-0.257249
C	-0.0266012862	 3.435714146	 1.6017182419	 0.015213
C	 1.1841050959	 3.1258976562	 2.4028984103	-0.252687
N	 1.2183881364	 2.9920467404	 0.9455815927	-0.093463
C	 1.1820913187	 1.6388490654	 0.383333935	-0.266873
H	-1.5614763477	 2.8658505401	-0.5800102621	 0.136279
H	-2.1930753601	 1.3103241094	-0.058529899	 0.128035
H	-2.1243425181	 2.9989738498	 1.867103629	 0.11194
H	-1.0719198746	 1.6333062968	 2.1944635367	 0.107944
H	-0.2601729159	 4.4804314896	 1.4017089543	 0.094864
H	 1.7979984106	 3.9227432424	 2.8138217532	 0.119513
H	 1.1700270214	 2.2127605413	 2.9976147015	 0.109269
H	 1.2356385101	 0.8566671703	 1.1604331407	 0.116021
H	 2.0431264153	 1.4896964292	-0.2731328508	 0.136693
