20
gdb 102391	1.70502	1.42521	1.23054	4.2385	75.47	-0.2331	0.0236	0.2567	1211.3811	0.169839	-436.445786	-436.434875	-436.43393	-436.481537	38.596	
C	-0.213448097	 1.273799088	 0.081085227	-0.262646
O	 0.0386580194	-0.1200581312	-0.0219925091	-0.284728
C	 0.6994836764	-0.5828544677	-1.1986128229	 0.210682
C	 2.1799261842	-0.1312832474	-1.2199897315	-0.193151
N	 2.857258003	-0.6021771307	-0.0157538435	-0.515778
C	 0.5652886891	-2.1157492538	-1.1538666976	-0.178325
N	-0.844914863	-2.4889731836	-1.1588641962	-0.50875
C	 0.0376677851	-0.0560087418	-2.4168553695	 0.29065
N	-0.4235634828	 0.4047132087	-3.370781351	-0.350959
H	 0.7121094337	 1.8603379578	 0.1529949501	 0.113015
H	-0.8017830207	 1.6430760332	-0.7672676113	 0.145695
H	-0.7857562084	 1.4092451135	 1.0010979001	 0.136006
H	 2.6594264106	-0.575370287	-2.0989467091	 0.124275
H	 2.2067440051	 0.9602645185	-1.3675319209	 0.100389
H	 3.8178051451	-0.276376397	-0.008078474	 0.234236
H	 2.400065909	-0.2119204875	 0.8023750263	 0.237597
H	 1.043523834	-2.525224562	-2.0497720454	 0.11408
H	 1.1426060932	-2.4538774144	-0.2835225065	 0.119128
H	-0.9358397036	-3.4986835924	-1.1849427346	 0.231468
H	-1.2743144625	-2.1705873732	-0.2965043703	 0.237116
