17
gdb 31797	4.73462	0.99431	0.87643	1.7472	78.56	-0.2425	-0.0346	0.2079	1334.6922	0.136311	-418.057925	-418.048957	-418.048013	-418.093892	31.	
C	 0.0163219755	 1.5117849509	 0.0276453644	-0.500449
C	 0.0125572616	 0.008091589	-0.0065288817	 0.241263
C	-0.1352350848	-0.7195429218	-1.1842798717	-0.056404
N	-0.1151774548	-2.0532234541	-1.2307419081	-0.282369
C	 0.0489804126	-2.6864209517	-0.0671601519	 0.359818
C	 0.102419747	-4.1954017474	-0.0954948191	-0.153633
O	 1.4373289793	-4.5883041558	 0.1968953307	-0.417522
N	 0.1726101036	-2.1006387888	 1.1301847436	-0.262773
C	 0.1570997247	-0.7714858613	 1.1441553654	-0.052941
H	 1.0335390982	 1.9046356746	 0.1405520103	 0.144094
H	-0.3968901428	 1.9290491772	-0.8947760493	 0.132722
H	-0.572787302	 1.8939959778	 0.867102448	 0.136963
H	-0.2778951094	-0.2054525303	-2.1341075129	 0.109204
H	-0.5994238199	-4.5832622525	 0.6573930522	 0.099417
H	-0.2161260734	-4.5343426995	-1.0895509324	 0.103881
H	 1.4420546677	-5.5432395401	 0.3113302607	 0.289211
H	 0.2544095869	-0.2965694461	 2.1201739018	 0.109519
