19
gdb 99199	6.00584	0.55225	0.51213	2.2021	82.86	-0.2549	0.0172	0.2721	2168.0426	0.155455	-423.043194	-423.032025	-423.03108	-423.083187	36.609	
C	 0.0314536895	 1.4257599423	 0.2245517097	-0.370836
C	 0.1491474724	-0.0810106535	 0.009056942	-0.300552
C	 0.8255620454	-0.435093012	-1.2996948935	 0.459926
O	 1.2418851042	 0.3515404064	-2.1136169428	-0.352638
O	 0.9076690132	-1.7745173303	-1.4477009993	-0.244681
C	 1.5408086551	-2.2122958076	-2.6718130115	-0.233892
C	 1.5615407983	-3.6634211582	-2.6998908952	 0.013114
C	 1.5947867633	-4.8647855256	-2.7543014042	 0.132361
C	 1.631800624	-6.3180622522	-2.8139866351	-0.498841
H	 1.0167443469	 1.8985392268	 0.2310321086	 0.132559
H	-0.5484602693	 1.8917089509	-0.5760428086	 0.132557
H	-0.4608824846	 1.6378060466	 1.1775695917	 0.112147
H	 0.7159842192	-0.5607266196	 0.8156792513	 0.13403
H	-0.8333752272	-0.567487914	 0.0167445731	 0.134029
H	 0.988771764	-1.8002091575	-3.5237207693	 0.146593
H	 2.5521466016	-1.79347162	-2.7175169866	 0.146593
H	 2.6606383385	-6.6888524659	-2.875856568	 0.151408
H	 1.1741933139	-6.7568857217	-1.9206578571	 0.154715
H	 1.0863993015	-6.6956913147	-3.6856251952	 0.151406
