18
gdb 45086	2.77395	1.71397	1.26622	3.1591	75.	-0.2289	-0.0133	0.2156	1007.0365	0.150377	-401.939735	-401.932629	-401.931685	-401.971175	28.879	
O	 0.0432802061	-0.056322008	-0.0243517632	-0.327033
C	 0.0083317054	 1.1540202746	-0.0217118657	 0.431022
C	-1.2853132052	 1.9588955692	 0.0250838877	-0.344621
C	-1.3566414138	 3.0218925413	-1.0785881693	-0.036875
C	-1.1236654901	 4.4844676617	-0.79521853	-0.298025
C	-0.0717855603	 3.6849314377	-1.5251492831	-0.016518
C	 1.2040875364	 3.279211198	-0.8380106335	-0.039989
N	 1.2102233143	 3.2712030547	 0.6201741297	-0.338096
C	 1.2612187001	 1.9714090692	-0.0947771978	-0.148553
H	-2.1159589401	 1.2551047003	-0.0518386081	 0.120104
H	-1.3337126146	 2.4343866606	 1.011067233	 0.138257
H	-2.0651376705	 2.7938910899	-1.8680599647	 0.09479
H	-1.6943157551	 5.2167968718	-1.3553970116	 0.110135
H	-0.8947358025	 4.7608697508	 0.2278939767	 0.132458
H	 0.0466502895	 3.8638859602	-2.5889645902	 0.086417
H	 2.1203802452	 3.5809776917	-1.340133939	 0.094652
H	 2.1328859096	 3.4992247354	 0.9788034735	 0.243517
H	 2.1828536755	 1.3979501408	-0.0946257144	 0.098358
