16
gdb 23194	3.13237	1.18674	0.94475	2.5431	75.59	-0.2435	-0.0337	0.2098	1208.8042	0.122662	-437.824201	-437.815833	-437.814889	-437.857353	30.968	
O	-0.254128944	 1.418502912	 0.0550068109	-0.389481
N	 0.0096071678	 0.0378685911	-0.0000427786	-0.259934
C	-1.0671357001	-0.624382243	-0.0897863994	 0.364142
C	-2.5566571797	-0.3065131484	-0.0236425393	-0.331313
C	-2.8185905553	-1.8243235533	 0.0278908435	-0.080522
C	-2.2603612482	-2.5088240558	-1.1547270268	-0.316077
C	-1.262542881	-2.0987858212	-0.0739698275	 0.148673
C	-0.4969086669	-3.1065633269	 0.6816816794	 0.05879
O	-0.7784981779	-4.2828653485	 0.7181338196	-0.274305
H	 0.6307560495	 1.7917392842	 0.1279503245	 0.309668
H	-2.8094222582	 0.224498754	 0.897763641	 0.140295
H	-2.9935625588	 0.2286116494	-0.8719123302	 0.128883
H	-3.4712769824	-2.322407612	 0.7324335863	 0.125672
H	-2.399064882	-3.5842343268	-1.1937274447	 0.155108
H	-2.2151183253	-2.0049562976	-2.1161066709	 0.128172
H	 0.3655416226	-2.6960585872	 1.247254902	 0.092229
