19
gdb 15172	9.60347	0.62891	0.61901	1.9981	83.53	-0.2277	0.0394	0.2671	1850.3227	0.165022	-327.878489	-327.86918	-327.868236	-327.914547	32.31	
C	-0.0306722475	 1.5615381289	 0.0306093729	-0.381916
C	-0.0216121796	 0.0323037384	-0.0064621791	-0.152879
C	 0.7461593858	-0.5199055737	-1.2256871483	-0.336327
C	 0.764979557	-1.9772667386	-1.2795370546	 0.012865
C	 0.75826469	-3.1833383022	-1.2982171036	 0.136841
C	 0.7853506281	-4.6190641977	-1.3244345002	-0.157067
C	-0.0425287564	-5.3664100299	-2.3185882831	-0.227252
N	 1.416105194	-5.332574775	-2.4646689352	-0.308349
H	 0.9872292845	 1.9643515201	 0.0783905896	 0.116563
H	-0.5097719604	 1.9784513966	-0.8623533699	 0.115879
H	-0.5760633883	 1.9316967884	 0.9038008131	 0.115808
H	 0.4343641696	-0.3648433125	 0.9072169287	 0.110331
H	-1.0473997048	-0.3518278004	-0.0311443514	 0.109534
H	 0.2946057796	-0.1247486861	-2.1459606845	 0.124887
H	 1.7755850796	-0.1363204559	-1.2078197746	 0.125939
H	 0.9815035685	-5.0989060763	-0.3687117461	 0.113622
H	-0.4540868287	-6.3340723338	-2.0453695728	 0.122616
H	-0.6550942233	-4.7793649694	-2.9963131202	 0.120827
H	 1.6707320023	-4.6469062309	-3.1718815806	 0.238078
