21
gdb 56035	4.0557	0.82844	0.78468	3.41	79.69	-0.2376	0.0614	0.299	1536.0312	0.184755	-420.469077	-420.459536	-420.458592	-420.50604	34.814	
N	 0.4608946196	 1.218161169	-0.2131372574	-0.569409
C	 0.2974507202	-0.1631565139	-0.1157228024	 0.448433
O	 1.2404582857	-0.9330040217	-0.1078982354	-0.393237
N	-1.0176842192	-0.5580902072	-0.0112924401	-0.356309
C	-1.3698798521	-1.9325833295	 0.2901902117	 0.073686
C	-1.6594983051	-2.2372870622	 1.7721490372	-0.214221
C	-2.3411726395	-3.615323333	 1.7258926099	-0.203464
C	-3.1108501979	-3.6545356657	 0.3688669514	-0.205452
C	-2.6526380813	-2.4031890764	-0.4196683289	-0.218067
H	 1.3917395188	 1.4637188294	-0.5160649082	 0.258056
H	-0.2645008695	 1.7348705036	-0.6888699697	 0.243855
H	-1.6935337724	 0.146335253	 0.2443776429	 0.231391
H	-0.5144230432	-2.5310900023	-0.0342018856	 0.121131
H	-0.7570192509	-2.2146005672	 2.3881910144	 0.110351
H	-2.3490636386	-1.4779863563	 2.1666973821	 0.081676
H	-1.5818076155	-4.4037136289	 1.7482803226	 0.106105
H	-2.9967913938	-3.7866975575	 2.5835196598	 0.096595
H	-2.8782608348	-4.5719697573	-0.1788693348	 0.103534
H	-4.1938429941	-3.6496083324	 0.5188925368	 0.099152
H	-3.4084263155	-1.6099101739	-0.3486217696	 0.084067
H	-2.4931051511	-2.5946810395	-1.4838840165	 0.102125
