17
gdb 91576	2.80133	1.30335	1.04931	1.9962	71.95	-0.2549	0.0171	0.272	1148.5775	0.135897	-417.971154	-417.962685	-417.961741	-418.004905	31.301	
O	 0.1690334106	 1.4582062435	 0.2600187375	-0.425564
C	 0.0390574322	 0.0692266708	 0.0959839057	 0.043574
C	 0.1778241038	-0.7429736711	 1.4024419709	-0.178845
N	-1.1738390229	-1.3907706754	 1.2143483508	-0.179612
C	-2.1347041552	-0.2671382461	 1.2183216869	-0.281055
C	-1.3700295723	-0.5279788235	-0.0151025993	 0.32377
C	-1.972498345	-1.0634726214	-1.2949600818	-0.450258
C	-2.21580869	 0.0278247287	-2.2406532851	 0.257641
N	-2.36635247	 0.9180028745	-2.962206403	-0.309268
H	-0.0366139383	 1.8872569803	-0.5784965407	 0.295163
H	 0.6975562485	-0.3081817047	-0.6985906275	 0.080142
H	 0.968195706	-1.4944298033	 1.3862589614	 0.118659
H	 0.254414732	-0.1420085732	 2.3126201352	 0.123617
H	-3.169775516	-0.5939179229	 1.2430685149	 0.125228
H	-1.9138156971	 0.618658911	 1.8080675978	 0.13463
H	-1.2962753844	-1.7879990358	-1.7649767948	 0.158816
H	-2.9110967817	-1.5883792116	-1.0902446987	 0.163364
