20
gdb 87227	4.31867	0.71248	0.68162	4.5131	80.37	-0.2663	0.039	0.3053	1655.8432	0.169147	-403.152081	-403.142039	-403.141095	-403.187366	36.574	
C	-0.0264681486	 1.6807927587	 0.2064592963	-0.465425
C	-0.0667949275	 0.1690954393	 0.0823702841	 0.331195
C	-1.3797131043	-0.4210889611	-0.4064002524	-0.265182
C	-1.6981863743	-0.0374122893	-1.8692453195	-0.340932
C	-2.9236339518	-0.6657132099	-2.3557961922	 0.258776
N	-3.8946383612	-1.1736155303	-2.723069978	-0.306449
C	 1.213416924	-0.5494271345	-0.3248767995	-0.369769
C	 0.6991792132	-0.6447376156	 1.0924413829	 0.056584
O	 1.350065766	 0.0457128783	 2.1173440656	-0.421642
H	 0.8856024694	 2.0013933178	 0.7117733603	 0.138067
H	-0.0642984196	 2.1686672657	-0.7735765181	 0.112894
H	-0.8762622026	 2.0440520648	 0.7958709243	 0.120129
H	-1.3482904827	-1.5133461889	-0.3345776551	 0.116194
H	-2.2024350352	-0.0875805434	 0.2369531441	 0.122066
H	-1.8046892358	 1.0478330223	-1.9690457122	 0.155251
H	-0.8691944002	-0.3339057568	-2.5221973209	 0.152786
H	 1.1493518452	-1.427087333	-0.9609398582	 0.11064
H	 2.0944800402	 0.0637702554	-0.4836794133	 0.115594
H	 0.2537792005	-1.591887178	 1.3993472354	 0.088153
H	 2.191080395	-0.3921453412	 2.2841008264	 0.291069
