16
gdb 2199	3.82638	2.35032	1.71598	2.5618	61.64	-0.241	-0.0222	0.2188	778.6803	0.135525	-325.779568	-325.771919	-325.770975	-325.811299	27.383	
C	-0.7991511914	 1.3292129649	-0.3843052714	-0.38631
C	 0.0009582844	 0.0429849619	-0.2485509353	-0.061066
N	 1.2778983763	-0.028400554	-1.0179066306	-0.342329
C	 2.058352796	-0.528049132	 0.1520602272	-0.061066
C	 3.3812763444	 0.1689269669	 0.4297020655	-0.386311
C	 0.8423434168	-0.1655636697	 1.0234340319	 0.374711
O	 0.6521985143	-0.0286902092	 2.1950539964	-0.294496
H	-0.1540992665	 2.1987218821	-0.233061052	 0.126744
H	-1.2489404506	 1.4058916914	-1.3790705079	 0.119852
H	-1.6017134111	 1.352914508	 0.359533873	 0.130005
H	-0.6539578437	-0.8303888731	-0.3998869213	 0.091772
H	 1.2536965456	-0.6672646332	-1.8042572717	 0.220121
H	 2.1962570282	-1.6214715154	 0.1550997808	 0.091772
H	 3.2493138015	 1.2540990469	 0.4296223767	 0.126744
H	 3.7703230461	-0.1380907458	 1.4055850007	 0.130006
H	 4.1239649296	-0.0853840396	-0.332851132	 0.119852
