23
gdb 92902	2.018	1.68109	1.24799	1.4847	86.37	-0.2418	0.0208	0.2626	1156.5021	0.206619	-388.311793	-388.302475	-388.30153	-388.345036	36.838	
C	-0.3289080174	 1.5556420984	-0.0629545974	-0.394996
C	 0.021222167	 0.0516720832	-0.0193552354	-0.03952
C	 0.6425475023	-0.3815487166	-1.3268922775	-0.047023
C	 1.8599503036	-0.9105959797	-1.457519481	-0.087946
C	 2.7908774005	-1.1380195943	-0.2929459336	-0.290993
C	 2.394341428	-0.2702178581	 0.9070917849	 0.124336
O	 2.7978479615	 1.0868864949	 0.7140392011	-0.444131
C	 0.8840421048	-0.4015069823	 1.1931179942	 0.014187
C	 0.5028972596	 0.2767965374	 2.512137844	-0.421281
H	 0.5647367497	 2.1837646651	-0.071432669	 0.119264
H	-0.9102257147	 1.780388247	-0.9635436774	 0.107508
H	-0.9317824299	 1.8495286423	 0.8003683742	 0.117916
H	-0.9409506394	-0.4755019267	 0.0662187483	 0.080895
H	 0.028604517	-0.2328409348	-2.2138344225	 0.083203
H	 2.2155798214	-1.201765643	-2.4431478365	 0.08622
H	 2.7860428479	-2.1995593857	-0.0071680825	 0.10968
H	 3.8249966648	-0.9058361579	-0.5740750543	 0.107206
H	 2.9477522439	-0.6006430996	 1.7939843529	 0.075146
H	 2.5847979906	 1.3202957049	-0.1962680189	 0.282174
H	 0.7034908236	-1.4800025119	 1.3081518612	 0.070691
H	 0.7985474049	 1.3290491549	 2.5136876837	 0.135213
H	-0.5746799175	 0.2192692434	 2.699385779	 0.105247
H	 1.0109605678	-0.2104882011	 3.3513052324	 0.107004
