20
gdb 88865	3.3612	1.18061	1.04211	2.4863	74.84	-0.2464	0.068	0.3144	1216.6245	0.172207	-440.2534	-440.244754	-440.24381	-440.28737	31.895	
C	 0.0623322088	 1.560255496	-0.23558312	-0.404526
C	 0.1264757825	 0.0784261246	 0.0463189641	 0.003954
N	 1.452458277	-0.5730381791	 0.0651119153	-0.337561
C	 0.6428661504	-0.5559993951	 1.2908017628	-0.042059
C	 1.2243193839	 0.1424418052	 2.5069437653	 0.0759
C	 2.3132844263	-0.7295267985	 3.2035978945	-0.118053
O	 3.4051396647	 0.1541187546	 3.3963666821	-0.236342
C	 3.2911236026	 1.0925376716	 2.3562055055	 0.019359
O	 1.9102487096	 1.3567964091	 2.2149644703	-0.244811
H	 0.8768768443	 2.086882912	 0.2583480232	 0.1534
H	 0.1221232913	 1.739418639	-1.3147668309	 0.112173
H	-0.8884354392	 1.9743872507	 0.1185136939	 0.110687
H	-0.6681348474	-0.4918224067	-0.4370063522	 0.080144
H	 1.4175598702	-1.4839822693	-0.3830035943	 0.229809
H	 0.1457347431	-1.4859071473	 1.5764976402	 0.079693
H	 0.4095923602	 0.3874010856	 3.1994029042	 0.088332
H	 2.0033662123	-1.1129939518	 4.1783879512	 0.114679
H	 2.5989634017	-1.5727586265	 2.5580654063	 0.098237
H	 3.8038196098	 2.0134566763	 2.6473710518	 0.114661
H	 3.6989593479	 0.6924320195	 1.4142055966	 0.102323
