21
gdb 108862	2.77195	1.13412	0.99426	2.4517	81.02	-0.2435	0.0083	0.2518	1309.7628	0.182351	-424.239538	-424.229969	-424.229025	-424.274165	35.958	
C	 0.2670000175	 1.5989586526	-0.1339406146	-0.376773
C	-0.1030390602	 0.1355884745	 0.1671201492	-0.298255
C	 0.6152115765	-0.4305750389	 1.3550907011	 0.367981
C	 0.1008255845	-0.8251458166	 2.5228625956	-0.221677
C	 1.1364560405	-1.4765447045	 3.4163423289	 0.110757
O	 1.0165313253	-2.8982201611	 3.3957122185	-0.44187
C	 2.4569539545	-0.9722023805	 2.7924013095	-0.265302
C	 2.10210557	-0.7500046848	 1.3110020879	-0.003076
O	 2.2216327562	-1.954169454	 0.5317805432	-0.442992
H	 1.3381196425	 1.7111850698	-0.3300988885	 0.118089
H	-0.2704137679	 1.9597453362	-1.0161690396	 0.115731
H	 0.0119047783	 2.2489573722	 0.7089083116	 0.119765
H	-1.1844073313	 0.0581170203	 0.3238899682	 0.102576
H	 0.1355577757	-0.4821351384	-0.70843674	 0.119872
H	-0.9516091428	-0.7935253914	 2.7849581108	 0.093228
H	 1.0408574726	-1.1996747362	 4.4703458658	 0.079162
H	 1.0983943099	-3.1563446592	 2.4683676975	 0.278908
H	 2.7476451142	-0.0187028898	 3.2468187717	 0.099622
H	 3.2736579108	-1.685375403	 2.9345791772	 0.094251
H	 2.7009286535	 0.0466920385	 0.8492217126	 0.0654
H	 3.1598028698	-2.1358414557	 0.4109571236	 0.284602
