15
gdb 46130	3.32434	1.10737	0.90002	7.1255	65.64	-0.279	0.0188	0.2979	1231.7877	0.114254	-454.009149	-454.001166	-454.000222	-454.042637	28.553	
O	 0.1401005885	 0.0397762803	-0.0602793533	-0.374494
C	 0.0481129778	 1.2308559929	-0.0155382751	 0.477185
N	-1.0527591437	 1.9960159825	 0.3112063222	-0.363959
C	-0.859150112	 3.3857990679	-0.0456214898	-0.208331
C	 0.6866689107	 3.4408704543	-0.0708539334	 0.11018
C	 1.2719356706	 3.9632952567	 1.2543757431	-0.35541
C	 2.7322566462	 3.9691042257	 1.264608379	 0.272063
N	 3.8867435507	 3.9966839939	 1.2669486185	-0.291941
O	 1.092154375	 2.0863682939	-0.2806121836	-0.236839
H	-1.9541644166	 1.5495844982	 0.265676614	 0.269173
H	-1.2825875815	 3.6373287243	-1.026782733	 0.125282
H	-1.2831661774	 4.0672513803	 0.6983575769	 0.125616
H	 1.0665919848	 4.0359379858	-0.9035088067	 0.124945
H	 0.917617936	 4.9866685262	 1.4241441027	 0.156733
H	 0.9037257808	 3.346105307	 2.0813358686	 0.169795
