19
gdb 48362	2.79393	1.24273	1.06489	3.2102	75.5	-0.2505	-0.0275	0.2231	1190.1475	0.158669	-422.997373	-422.988771	-422.987826	-423.0311	31.711	
O	-0.1408979692	 0.1496201227	 0.6069495673	-0.28154
C	 0.1519148706	 0.9902814154	-0.2121307671	 0.076495
C	 1.3322652771	 1.8980052598	-0.0924803932	 0.255286
C	 1.7010426747	 2.283633061	 1.3390183965	-0.294631
C	 2.5398738072	 1.288073922	 0.6171565484	-0.294639
C	 1.5623936016	 2.8974708745	-1.2034344175	-0.133032
C	 1.4974556908	 2.3466775754	-2.6504198721	-0.093998
O	 0.2217738783	 2.9822199326	-2.8780494523	-0.268726
C	 0.3326832435	 3.7290539511	-1.6479942522	-0.093999
H	-0.4646307915	 1.1327034207	-1.1248657899	 0.102288
H	 2.0892977811	 3.2850725983	 1.4899176436	 0.119584
H	 1.0378522297	 1.9143699423	 2.1125489778	 0.142677
H	 2.4422945203	 0.2475171339	 0.9039428587	 0.142677
H	 3.5188579645	 1.5884043801	 0.2596871918	 0.119585
H	 2.453930797	 3.4887581572	-0.9829532404	 0.07807
H	 2.2726433331	 2.7373750533	-3.322606767	 0.102811
H	 1.4441239842	 1.2574671726	-2.7626786882	 0.10914
H	-0.5691079924	 3.6468001769	-1.0300662086	 0.109141
H	 0.5426558894	 4.7905661603	-1.8337405356	 0.102811
