18
gdb 56305	5.67447	0.52406	0.51236	4.5617	74.75	-0.258	0.0332	0.2912	2068.7267	0.147707	-435.325989	-435.315837	-435.314893	-435.36309	35.214	
N	-0.0154707594	 1.3097917884	-0.0618238939	-0.564582
C	-0.0672312872	-0.0662352997	-0.2487766325	 0.452297
O	 0.693743912	-0.6583615674	-0.9909112516	-0.385631
N	-1.0376730093	-0.6927053496	 0.5057815662	-0.344454
C	-1.1347091939	-2.1385518629	 0.5448016491	-0.164561
C	-2.5017377521	-2.6441418454	 0.0690417639	-0.180268
C	-2.5736399951	-4.1830405757	 0.1076811486	-0.338444
C	-3.8791599288	-4.6927200058	-0.3040066262	 0.257406
N	-4.919407951	-5.0771083902	-0.6287045961	-0.302685
H	 0.5404347418	 1.769637808	-0.7670223509	 0.263474
H	-0.8782514193	 1.7878220832	 0.1517898825	 0.247423
H	-1.4617465554	-0.1730283192	 1.2570094875	 0.241188
H	-0.3391655563	-2.5131642295	-0.1045907317	 0.156185
H	-0.9337439303	-2.5068385476	 1.5608117021	 0.103449
H	-3.2984641026	-2.2297610673	 0.6971954473	 0.113575
H	-2.6844085179	-2.291275001	-0.9504653723	 0.133582
H	-1.8076227583	-4.6148649476	-0.5470732745	 0.160397
H	-2.3630599868	-4.5500719007	 1.1196018923	 0.15165
