14
gdb 47786	2.32025	1.72705	1.17698	5.1267	62.16	-0.2826	-0.0266	0.256	1015.4021	0.101607	-473.849431	-473.841727	-473.840783	-473.88233	27.556	
O	-0.0011849326	 0.1267951012	 0.5596727693	-0.305951
C	-0.0524748549	 1.2072669348	 0.0492999029	 0.412295
O	-1.2064509601	 1.7100235469	-0.4150458796	-0.224087
C	-1.250045306	 2.9592334473	-1.1376991697	-0.067497
C	-0.1142200794	 3.8781429268	-0.7469841823	-0.122307
O	 1.115202892	 3.1869718126	-0.9397637017	-0.232028
C	 1.2199170651	 2.0867235883	-0.0661392929	-0.169754
C	 1.6171087573	 2.5172365493	 1.2925603923	 0.293515
N	 1.916890666	 2.9017042259	 2.3395946117	-0.313413
H	-1.2010944094	 2.7273835114	-2.2068256201	 0.137584
H	-2.2245896357	 3.3994947272	-0.9125734028	 0.14021
H	-0.0894969603	 4.7541990092	-1.3987799535	 0.140368
H	-0.2094072104	 4.2168184171	 0.2944901653	 0.134976
H	 2.0021638382	 1.4340715121	-0.4634563389	 0.176089
