20
gdb 60205	3.33953	0.80269	0.75371	3.1396	77.61	-0.2538	-0.0376	0.2162	1573.3268	0.169334	-440.268932	-440.259215	-440.258271	-440.304481	35.47	
C	 0.1062648371	 1.5497130045	-0.0007406965	-0.38431
C	-0.1114611045	 0.0562383463	 0.2106541201	 0.162278
O	-0.0504786611	-0.1875257044	 1.6064574616	-0.44775
C	-1.4561892417	-0.423274539	-0.3665506884	-0.236811
C	-1.5533040443	-1.9380269969	-0.3790090393	-0.01884
N	-1.469805031	-2.6320558584	 0.9097786282	-0.339982
C	-2.7217921607	-2.7367993165	 0.1300946592	-0.136603
C	-3.923929045	-2.0990017991	 0.7416774571	 0.169565
O	-5.0527546163	-2.4014153012	 0.44842807	-0.251292
H	 1.035409598	 1.8607639039	 0.4841879736	 0.126364
H	 0.1708015898	 1.7915256351	-1.0661649717	 0.106422
H	-0.7149665314	 2.1226247167	 0.4419300657	 0.12003
H	 0.6993685603	-0.4908664949	-0.3065050062	 0.053104
H	-0.4601624739	-1.0496095934	 1.7687381754	 0.292442
H	-2.2542718267	 0.0255872305	 0.2324455189	 0.111827
H	-1.5781813987	-0.0616916648	-1.3939371011	 0.106714
H	-1.0296876775	-2.4095825306	-1.2096760316	 0.106011
H	-0.9374751125	-3.4940594963	 0.8405498934	 0.251587
H	-2.937795414	-3.6675954033	-0.3877921382	 0.113303
H	-3.6984903059	-1.3246088084	 1.5053401097	 0.09594
