19
gdb 84294	2.22954	1.87156	1.17715	3.5697	82.24	-0.2364	-0.0418	0.1946	1082.2709	0.1598	-385.922782	-385.914585	-385.913641	-385.955503	31.871	
C	-0.0988911788	 1.5909964182	-0.0630598735	-0.396344
C	 0.0029921216	 0.0586569986	 0.006342927	-0.147865
C	 0.815407131	-0.5082133671	-1.138834804	-0.05803
C	 1.84825373	-1.2627450355	-0.7469534896	-0.191068
C	 1.8889415853	-1.3332019477	 0.7322969217	 0.336094
O	 2.6843203526	-1.930984906	 1.4262476345	-0.359409
C	 0.7290422818	-0.5084684586	 1.2288077105	 0.223042
C	 0.9140844831	 0.2081274662	 2.5524675303	-0.297942
C	 0.0323314607	-0.994725674	 2.4857319275	-0.294211
H	 0.8897228981	 2.0534134747	 0.0138282777	 0.127491
H	-0.5503813089	 1.905143136	-1.0099124256	 0.115872
H	-0.7229111669	 1.9828922355	 0.7457948369	 0.12094
H	-1.0170812437	-0.3479547927	-0.0546710642	 0.09392
H	 0.5537307578	-0.2892809318	-2.1695728729	 0.112544
H	 2.5689213071	-1.7682415148	-1.3766870114	 0.117042
H	 1.8885833688	 0.0926935571	 3.0149475515	 0.135619
H	 0.4557343471	 1.183751409	 2.6677153265	 0.114758
H	-1.0419533348	-0.85284646	 2.5419471393	 0.112953
H	 0.404948278	-1.9212252072	 2.9093838678	 0.134595
