19
gdb 75040	2.5152	1.66962	1.18622	1.7546	84.98	-0.2111	-0.0257	0.1853	1097.1208	0.160207	-385.886306	-385.878274	-385.87733	-385.918767	31.267	
C	-0.1678910724	 1.5196552459	 0.101361433	-0.487773
C	 0.0082294452	 0.0259763389	-0.0096689415	 0.297541
C	-0.0428573396	-0.5895710968	-1.2057705816	-0.18739
C	 0.0731045845	-2.0115135377	-1.5055153606	-0.047013
C	-0.2663417086	-3.0349895498	-0.7135829017	-0.078951
C	-0.8772023943	-2.9157718869	 0.6581575641	-0.319457
C	-0.1091365416	-2.0291923241	 1.6334130745	 0.051844
O	 1.247638239	-1.7183180668	 1.3557136672	-0.244443
C	 0.2854783927	-0.6475402904	 1.291516252	-0.028848
H	 0.7303201355	 1.9973856626	 0.5135748183	 0.131528
H	-0.3814750254	 1.9722940189	-0.8695401145	 0.12395
H	-0.9925508314	 1.7725652051	 0.7808823097	 0.126587
H	-0.1621832276	 0.0521361953	-2.077593849	 0.083925
H	 0.4447440132	-2.2433985654	-2.501787563	 0.085769
H	-0.1113407177	-4.0445783899	-1.0828971894	 0.092825
H	-1.8987395885	-2.5116422643	 0.586457999	 0.120207
H	-0.9762173888	-3.9133307127	 1.0985173893	 0.109349
H	-0.3074901156	-2.2413765302	 2.6873984767	 0.087256
H	 0.3814644512	 0.0478054484	 2.1268609574	 0.083094
