18
gdb 37120	3.65619	1.6146	1.52416	1.9475	73.6	-0.1928	0.0724	0.2652	927.4004	0.149515	-401.844328	-401.83762	-401.836676	-401.874953	28.294	
C	-0.0015579355	 1.4559030391	-0.0944949154	-0.406903
C	 1.3588818762	 0.7815175684	 0.0107649643	 0.186398
C	 1.9801498007	 0.5038961827	 1.3615896976	-0.310714
C	 0.8079849386	-0.1142485092	 2.1808061986	-0.094444
O	-0.0922721322	-0.705746374	 1.2303156057	-0.287837
C	 0.0721113289	-0.0364926987	 0.0248330914	 0.370975
C	 0.5414311151	-0.8079620114	-1.2368971174	-0.133706
N	 0.738719511	 0.2009508124	-2.3045977552	-0.330527
C	 1.7836902509	 0.0007968178	-1.2720519514	-0.114449
H	-0.3344609594	 1.9822456184	 0.7938231028	 0.11614
H	-0.2920552748	 1.9089630924	-1.0331881335	 0.147385
H	 2.786772766	-0.2280597504	 1.2437266579	 0.1081
H	 2.4007565304	 1.3772435876	 1.8699193521	 0.108622
H	 1.1204398009	-0.894185879	 2.8813090857	 0.111465
H	 0.2849920245	 0.663976355	 2.7529314553	 0.104038
H	 0.3348131015	-1.8465330559	-1.4594463233	 0.099609
H	 1.0420166571	-0.3029903008	-3.1375079933	 0.232903
H	 2.79998914	-0.2494719842	-1.5515195118	 0.092946
