18
gdb 91306	2.49986	1.54293	1.12658	2.2757	78.73	-0.2141	0.0216	0.2357	1121.7831	0.146014	-401.852683	-401.84418	-401.843236	-401.885907	31.997	
C	-0.0699140178	 1.58122569	 0.1389448964	-0.328124
N	 0.0861932406	 0.1463134586	 0.1500280179	-0.055131
C	-1.1222648821	-0.7069585483	 0.2352408334	-0.190504
C	-0.4135016417	-1.5784334824	 1.2895328181	 0.105336
O	 0.4956397136	-2.556498756	 0.746709598	-0.310323
C	 1.6455006413	-1.6731977794	 0.9277250444	-0.058833
C	 2.4943537271	-1.5361555566	-0.2378203517	 0.343296
C	 3.2319892531	-1.4248950778	-1.1800009091	-0.439068
C	 0.6974712572	-0.5050274603	 1.3173389052	-0.073186
H	 0.9133955487	 2.0618692802	 0.1587458087	 0.12688
H	-0.5697915724	 1.8874590523	-0.7860087731	 0.12615
H	-0.6631056771	 1.9717399707	 0.988656416	 0.08782
H	-1.9948910535	-0.1850504914	 0.6607421303	 0.087425
H	-1.4089754478	-1.1981805429	-0.7001151127	 0.115681
H	-0.982620494	-1.9568010553	 2.1400226097	 0.086824
H	 2.2381531548	-2.0209129131	 1.7859931723	 0.100562
H	 3.8720208173	-1.3229383547	-2.0212800967	 0.198413
H	 0.9701029527	 0.1317000763	 2.1620325129	 0.076782
