18
gdb 15014	4.297	1.43647	1.14693	1.7038	64.24	-0.2426	0.0785	0.3212	1032.6151	0.155299	-422.066434	-422.058859	-422.057915	-422.098307	28.707	
O	 0.0285648381	 1.3993344817	 0.1001445732	-0.424158
C	 0.0408568136	-0.0076046555	-0.0177141504	-0.070653
C	-1.3732650417	-0.5743584318	-0.0261795273	 0.088251
C	-1.433379539	-2.0985472253	-0.0951072081	-0.094361
O	-2.7707429658	-2.5579864415	 0.0268558556	-0.249811
C	-3.361093063	-2.1047825897	 1.2343455833	-0.077951
C	-3.3187218829	-0.58251629	 1.3111037321	-0.080563
O	-1.9802326211	-0.1238577158	 1.1881698928	-0.280953
H	-0.5774877562	 1.5940249135	 0.825382436	 0.290951
H	 0.5452362308	-0.2510419365	-0.9589242377	 0.108863
H	 0.609076015	-0.4766036062	 0.8023259042	 0.089863
H	-1.9304159209	-0.1543918168	-0.8796482751	 0.080683
H	-1.0652004282	-2.4607997376	-1.0596520042	 0.112697
H	-0.8081515809	-2.5272990627	 0.7059967757	 0.09227
H	-4.3928061228	-2.4689864179	 1.2397228719	 0.110779
H	-2.8312387192	-2.530445463	 2.1025356474	 0.094586
H	-3.9415721092	-0.1539634893	 0.5099844367	 0.099854
H	-3.6907095366	-0.2256183157	 2.276387934	 0.109653
