17
gdb 79510	3.12183	1.59458	1.24547	1.9206	71.32	-0.2334	-0.0241	0.2093	1006.2769	0.136169	-421.78481	-421.777596	-421.776652	-421.816477	28.374	
C	-0.1398007049	 1.5676500197	 0.0622196993	-0.404453
C	 0.0140294853	 0.0464231786	-0.0143720431	-0.137706
C	 0.9080475522	-0.4922121068	-1.1254111696	-0.048325
C	 1.3950223923	-1.9274316099	-0.7722370009	 0.040401
O	 2.6793100952	-1.6951261311	-1.4439232639	-0.308769
C	 2.4044628708	-0.4728462202	-0.6819987394	 0.051289
C	 1.9219479087	-1.2975847598	 0.561280924	-0.157444
C	 0.7853354965	-0.5341413978	 1.1929699658	 0.403532
O	 0.5368505102	-0.3761466777	 2.3596021594	-0.328875
H	 0.8347818587	 2.0676832932	 0.0614302057	 0.119556
H	-0.713761836	 1.9492357097	-0.7873583989	 0.120995
H	-0.6579420147	 1.845020494	 0.9840029269	 0.142671
H	-0.9803722187	-0.418172404	-0.0457433622	 0.10321
H	 0.6914306578	-0.2774427936	-2.1707292731	 0.090441
H	 0.9046526601	-2.8906934607	-0.9145787155	 0.106205
H	 3.1428948953	 0.3281217683	-0.7133666807	 0.106958
H	 2.6408684113	-1.8316645418	 1.1766373059	 0.100315
