18
gdb 14763	11.25124	0.56939	0.55001	5.2593	70.29	-0.2483	0.0223	0.2706	1901.8804	0.153051	-381.112354	-381.102719	-381.101775	-381.147894	32.411	
O	-0.0998439176	 1.4513725247	 0.0074171969	-0.418371
C	 0.0193816712	 0.0386204236	-0.0182163619	-0.071276
C	-1.3887433204	-0.542757279	-0.0083359031	-0.187371
C	-1.3976659612	-2.0692260674	-0.0006841603	-0.126863
N	-2.7669798946	-2.5773019283	-0.0365470111	-0.298402
C	-2.8248762114	-4.0314641358	 0.0282764067	-0.259519
C	-4.2109087232	-4.5076141976	 0.0414243809	 0.25609
N	-5.3017840783	-4.8852410733	 0.0757641365	-0.296923
H	 0.783961191	 1.8297069373	-0.0090451191	 0.28771
H	 0.5560634028	-0.301802541	-0.919128945	 0.087826
H	 0.5834519346	-0.330567759	 0.8543972044	 0.085761
H	-1.9120951565	-0.1606146543	 0.8774919239	 0.107371
H	-1.9366897675	-0.1782403393	-0.8830538672	 0.12567
H	-0.8781286833	-2.449786216	-0.8908576105	 0.108388
H	-0.8308874579	-2.444672459	 0.8733895049	 0.082293
H	-3.3005270124	-2.1837405167	 0.7325342126	 0.231422
H	-2.3277251729	-4.4441842352	-0.8588671281	 0.15639
H	-2.3082021824	-4.4680187938	 0.9038635893	 0.129804
