16
gdb 83196	2.99203	1.45471	1.28404	3.3773	64.91	-0.233	0.0152	0.2482	1005.4333	0.125697	-475.023584	-475.016021	-475.015077	-475.0558	29.178	
O	 0.0585265149	 1.3882624638	 0.0222832626	-0.423909
C	 0.0084380926	 0.0062039012	 0.0391831504	 0.096864
C	-1.3479196359	-0.7056099374	 0.0614707962	-0.100582
N	-2.5489702059	 0.0608720393	-0.0151888855	-0.289496
C	-3.132560592	 0.464893127	-1.1815337949	 0.382061
O	-4.1849793144	 1.0674553751	-1.2356910249	-0.363211
C	-2.3288112267	 0.1066606859	-2.4333167519	-0.201583
O	-0.918465684	 0.162629548	-2.2077266422	-0.263564
C	-0.5014796784	-0.702414546	-1.1911656632	 0.006078
H	-0.1847157459	 1.6611906631	-0.8735730846	 0.298072
H	 0.8175271861	-0.448260033	 0.6032706348	 0.110535
H	-1.4237344153	-1.6401835395	 0.6119703029	 0.108764
H	-2.9721356223	 0.4096655747	 0.8332738937	 0.25807
H	-2.6244344121	-0.888123168	-2.7961516353	 0.12664
H	-2.5617485289	 0.8427859308	-3.2028928058	 0.149169
H	-0.0490156218	-1.627862945	-1.5408539022	 0.106095
