19
gdb 108141	3.57067	1.35189	1.24543	0.8956	74.52	-0.2171	0.0935	0.3106	1077.0005	0.159932	-422.980618	-422.972865	-422.971921	-423.012954	30.14	
C	-0.2700338284	 1.3093893842	 0.0736219064	-0.259881
O	 0.2190347291	-0.015864062	-0.068223166	-0.28139
C	 0.810004097	-0.5030669399	 1.074723969	 0.395804
C	 2.2244965249	-0.1838392712	 1.5616410292	-0.306632
C	 2.2276992388	-1.5837671368	 2.2648663895	-0.073033
C	 1.709780373	-1.4547067276	 3.6973507239	-0.075828
O	 0.4087106181	-0.8662767274	 3.5558338223	-0.268085
C	 0.0033583204	-1.0943823586	 2.2223694991	 0.03449
C	 0.9503204767	-1.969474495	 1.4644799764	-0.211184
H	 0.540810893	 2.0199548675	 0.2852267961	 0.11491
H	-0.7389018597	 1.5789709577	-0.875107177	 0.12745
H	-1.0133594602	 1.3777131867	 0.8796039889	 0.115979
H	 2.9255978627	-0.1552814115	 0.7237042792	 0.107949
H	 2.3706229529	 0.6940504502	 2.2000975063	 0.097024
H	 3.1230614759	-2.1922556345	 2.1480278196	 0.079598
H	 1.6332714106	-2.4356260763	 4.1904457506	 0.092654
H	 2.3200185954	-0.7927642196	 4.3206673413	 0.10672
H	-1.0684779191	-1.1856923195	 2.0927664255	 0.106124
H	 0.721892429	-2.8899146764	 0.9447510698	 0.097333
