18
gdb 71839	2.44495	1.80838	1.5388	1.1839	76.68	-0.2112	0.0114	0.2225	962.6661	0.148134	-401.895321	-401.887631	-401.886687	-401.926825	31.275	
C	-0.098138458	 1.4887249609	-0.0378791692	-0.508865
C	-0.0921008775	-0.0059305091	-0.0694477439	 0.290374
N	 0.8101188631	-0.76202784	-0.951867135	-0.35048
C	-0.1043611343	-1.9903787449	-0.7636438061	-0.163362
C	 0.5441236054	-2.7932252574	 0.3322196054	-0.071105
C	 0.4550378396	-2.0869581454	 1.4678806742	-0.071246
C	-0.3630679623	-0.869868147	 1.2362818104	-0.214728
C	-1.1515272619	-1.0517848417	-0.0391726657	 0.313293
O	-2.5149967349	-0.9680540882	-0.1998482261	-0.462527
H	 0.881641716	 1.8706733669	 0.2682913078	 0.134812
H	-0.3296621922	 1.9050630721	-1.0254200383	 0.121013
H	-0.8489676263	 1.8618116119	 0.6644640299	 0.128903
H	 0.6348960751	-0.4180128989	-1.8961399383	 0.215494
H	-0.3726168519	-2.4901782297	-1.6931161266	 0.073567
H	 1.1214045888	-3.6938947811	 0.1700581464	 0.097554
H	 0.9371613763	-2.3178543234	 2.4101631981	 0.097089
H	-0.8019225428	-0.2965908465	 2.0455049998	 0.082918
H	-2.9316777119	-1.6269710385	 0.3689310072	 0.287296
