21
gdb 77446	1.87505	1.49442	1.4197	3.398	84.4	-0.2323	-0.0024	0.2299	1149.8922	0.18011	-387.101829	-387.09197	-387.091025	-387.136043	36.677	
C	 0.0166097853	 1.5729977997	 0.0009788184	-0.424881
C	 0.1179674792	 0.0625719747	-0.0944591051	-0.097481
C	 0.6935041342	-0.7265473912	-1.2237603454	 0.287081
C	-0.030056719	-1.8407786857	-1.9233092669	-0.494789
C	 1.9028954862	 0.0129304355	-1.8200449388	-0.424172
C	 2.5650563466	-0.098592082	-0.4240798381	 0.371769
O	 3.69567878	 0.0559129015	-0.0482411247	-0.327373
C	 1.3753553533	-0.7569650847	 0.2006744699	 0.150525
C	 1.4408730219	-1.7974688453	 1.2829804698	-0.499132
H	 0.8920763164	 2.081714654	-0.4090065305	 0.130266
H	-0.8653612842	 1.9370899671	-0.5377703353	 0.119505
H	-0.0820798274	 1.8832968613	 1.0464610128	 0.125386
H	-0.7474932432	-0.4377401211	 0.3420974954	 0.088124
H	-0.6492958202	-1.4542477538	-2.7417863516	 0.127722
H	 0.6711333893	-2.564095701	-2.3542336595	 0.123157
H	-0.6925336579	-2.3780921559	-1.236772848	 0.121082
H	 2.4663203536	-0.5903108822	-2.5394792271	 0.124523
H	 1.7394212705	 1.0068818764	-2.2456008902	 0.114682
H	 1.5893102676	-1.334618725	 2.2648542013	 0.134966
H	 0.5141057448	-2.3787618031	 1.3294637541	 0.117877
H	 2.2724578931	-2.4896844793	 1.1172372794	 0.131163
