15
gdb 127178	4.33763	1.09909	0.8818	6.0474	70.47	-0.2299	-0.0152	0.2148	1224.4372	0.114029	-450.144358	-450.13631	-450.135365	-450.177798	28.644	
C	 0.0323464254	 1.4621762667	 0.0019414214	-0.358661
N	-0.0020055936	 0.0082618821	-0.0059456208	-0.187437
C	-0.0462801966	-0.6823258898	 1.1916970929	 0.148018
O	-0.0591896333	-0.1449373654	 2.2765295568	-0.336401
C	 0.011539533	-0.6500671946	-1.2312099356	 0.439607
C	 0.0564453613	-0.1036488272	-2.4970306547	-0.192617
N	 0.0486086127	-1.1980832306	-3.3031337451	-0.157113
N	 0.0026281553	-2.3348855872	-2.6037689615	-0.098532
N	-0.0201194004	-2.0090620353	-1.3409172755	-0.274568
H	 0.9452518251	 1.831011071	-0.4792881744	 0.131358
H	-0.8367535079	 1.8731432762	-0.5241142265	 0.131373
H	 0.0138157673	 1.7812504428	 1.0429803403	 0.177498
H	-0.0682271134	-1.7701723813	 1.0391987334	 0.136171
H	 0.09116977	 0.9029245866	-2.8722411211	 0.152459
H	 0.0721944551	-1.239154864	-4.3094507596	 0.288846
