15
gdb 42679	3.24697	1.66999	1.26416	5.0303	70.5	-0.2253	-0.0761	0.1493	958.2524	0.114237	-420.60885	-420.602395	-420.601451	-420.639769	25.613	
O	 0.0112061274	-0.0090415341	-0.0327929634	-0.301414
C	-0.0371417027	 1.1902158157	 0.0030669134	 0.317986
C	-1.208380717	 2.1272132944	 0.0690088029	-0.143618
C	-0.8755493979	 3.368803561	-0.8424258583	-0.064948
C	-1.6419220394	 4.2783932187	 0.1450689414	-0.233373
C	-0.8132821324	 3.3153032867	 1.0257728874	-0.064948
C	 0.4124519915	 3.5085513255	 0.0545518133	-0.143616
C	 1.1512517837	 2.2030016991	-0.0073814388	 0.317985
O	 2.327247422	 1.9647800807	-0.0534879926	-0.301414
H	-2.2186342314	 1.7237343861	 0.0911312475	 0.099575
H	-0.8927421467	 3.3775554492	-1.9327872543	 0.101706
H	-1.3529200927	 5.3324747936	 0.1656200715	 0.107401
H	-2.7282144578	 4.1603927768	 0.1778988045	 0.1074
H	-0.7578705425	 3.261674536	 2.1135749908	 0.101707
H	 0.971165956	 4.4421840907	 0.0626620949	 0.099574
