17
gdb 31452	4.62445	0.91304	0.81312	4.0794	86.11	-0.2099	0.0091	0.219	1424.2452	0.136138	-380.890489	-380.881692	-380.880748	-380.924734	32.491	
C	 0.1698830947	 1.387994877	-0.4126025325	-0.371802
C	-0.0250244493	 0.0130216627	 0.2518330322	-0.302223
C	-1.4373861787	-0.4748242722	 0.1885953243	 0.338973
N	-2.3493023345	-0.3170927236	 1.119271417	-0.345222
C	-3.5118882209	-0.882580493	 0.6160260317	 0.138665
C	-3.2802527769	-1.3870413177	-0.6440851192	-0.197779
N	-1.9595115218	-1.1204781109	-0.9033617256	-0.270945
C	-4.7287632123	-0.913442139	 1.3388312625	 0.2349
C	-5.7690314059	-0.9444546141	 1.944148052	-0.422705
H	 1.2102160069	 1.7151419544	-0.3249777466	 0.11844
H	-0.0855533158	 1.3581060613	-1.4770195921	 0.110998
H	-0.468516846	 2.1364892753	 0.0644454095	 0.14123
H	 0.6433161632	-0.7223858844	-0.2132893369	 0.101507
H	 0.2486452616	 0.0714451807	 1.308385445	 0.139199
H	-3.9184777474	-1.8990848394	-1.3438187151	 0.137109
H	-1.463105616	-1.3661485639	-1.7437779702	 0.266367
H	-6.6824587609	-0.9683937431	 2.4841904939	 0.183287
