17
gdb 29298	4.52636	1.02484	0.87726	2.21	76.94	-0.1709	0.0522	0.2232	1293.16	0.136613	-417.999156	-417.990704	-417.98976	-418.032637	31.742	
O	-0.6111836689	 1.246105973	-0.2618870957	-0.452768
C	-0.1931445229	-0.0532894138	-0.1900467798	 0.337155
C	 1.0631917156	-0.4776327197	-0.5415878627	-0.184695
N	 1.0983488465	-1.8468145201	-0.3173506259	-0.309692
C	-0.1058871144	-2.2762874736	 0.1591731017	 0.368566
C	-0.9439565991	-1.1815704712	 0.2575408977	-0.383309
N	-0.3095809208	-3.6473826461	 0.3807804605	-0.167411
C	 0.0877693231	-4.2160537174	 1.6821613853	-0.230591
C	-1.3448904521	-4.0394851558	 1.325616521	-0.218591
H	-1.5318174526	 1.2816925856	 0.0109899446	 0.293518
H	 1.9155809965	 0.0635377514	-0.9129203383	 0.114641
H	 1.8617010544	-2.4583976329	-0.5451147424	 0.259166
H	-1.9710464996	-1.1878712226	 0.5888017352	 0.081522
H	 0.551780559	-5.19630866	 1.6345696211	 0.12065
H	 0.5038727274	-3.5334317893	 2.4186540961	 0.125363
H	-1.8841691979	-3.2500688163	 1.8429990671	 0.124522
H	-1.9487375244	-4.8905694012	 1.0257201544	 0.121954
