17
gdb 102425	3.02851	0.75251	0.64846	4.651	83.84	-0.2425	-0.0453	0.1972	1696.5156	0.134866	-417.971942	-417.961874	-417.96093	-418.007923	34.818	
C	 0.0256821169	 1.4788289195	-0.0538118384	-0.32276
N	-0.0112681701	 0.0242498231	 0.060582554	-0.269269
C	-1.3549626933	-0.5491026201	 0.0081075471	-0.207343
C	-1.9499893153	-0.6287096129	-1.4248822765	-0.079528
O	-1.1024820085	-1.3548685673	-2.292005036	-0.41284
C	-1.3389098433	-1.8933113373	 0.5939040262	 0.069143
C	-1.3375458114	-3.023372075	 1.0233697033	 0.105153
C	-1.3336884544	-4.2943213152	 1.5229131521	 0.201514
N	-1.3335980359	-5.3779983579	 1.9414450527	-0.333551
H	 1.0691068095	 1.8044682873	-0.0435103558	 0.132551
H	-0.446865973	 1.8911859299	-0.9607282643	 0.104927
H	-0.468936821	 1.9247792201	 0.816139979	 0.128624
H	 0.5336537359	-0.4025790281	-0.6828589392	 0.233198
H	-2.0178036393	 0.078282368	 0.620332593	 0.121808
H	-2.965988024	-1.0463954915	-1.3885799154	 0.107861
H	-2.0147735425	 0.3832478867	-1.8349783407	 0.12479
H	-1.1423874903	-2.2843453095	-2.0389987311	 0.295721
