15
gdb 49505	2.44209	1.70606	1.36975	2.8239	64.69	-0.2422	-0.0492	0.193	956.8297	0.111981	-457.752117	-457.744807	-457.743863	-457.784411	27.361	
O	-0.6759605195	 0.7174906322	-0.5054697778	-0.237982
C	 0.1572300796	 0.9356863951	 0.3386409754	 0.127316
C	 1.2789406257	 1.9304751556	 0.1988452255	-0.101404
C	 1.4030152064	 2.9163658116	-0.9895524522	 0.056861
C	 0.0570833654	 3.6581136914	-1.0571502779	-0.345921
C	-0.0495326713	 3.9361591536	 0.4575363428	 0.444767
O	-0.9030416531	 4.48564031	 1.0920140108	-0.314079
C	 1.2772156053	 3.3098342054	 0.9397510079	-0.064313
O	 2.1730320819	 3.803271617	-0.0990960786	-0.294398
H	 0.151854962	 0.3831507205	 1.3048728095	 0.093861
H	 2.2361621292	 1.442024201	 0.4077028261	 0.123693
H	 1.9184422916	 2.6579329657	-1.9120799923	 0.104352
H	 0.1352549961	 4.5848855171	-1.6301322761	 0.140049
H	-0.7799603525	 3.0611636141	-1.4219091455	 0.158611
H	 1.605329283	 3.4630658195	 1.9652383722	 0.108587
