17
gdb 53103	2.17885	1.17179	0.96086	1.6924	83.94	-0.2328	0.029	0.2618	1320.4796	0.132187	-384.613828	-384.603643	-384.602699	-384.650015	35.836	
C	 0.0200667136	 1.4612034901	 0.0618794841	-0.501012
C	 0.0034310071	 0.0064274023	 0.0156150873	 0.106822
C	-0.0088190677	-1.1976635044	-0.055592939	 0.050875
C	-0.0303565897	-2.6280100161	-0.0714868618	-0.283647
C	-0.4078756227	-3.3448342901	 1.2091688633	 0.127258
O	-0.6815793245	-2.6364126392	 2.3609449151	-0.412293
C	-1.3863337286	-3.3832455436	 0.0428752817	-0.2849
C	-2.6156408507	-2.6593012749	 0.1111674269	 0.346705
C	-3.6559751118	-2.0593604939	 0.1795408395	-0.451162
H	 0.7139327643	 1.8324626707	 0.8240960993	 0.150567
H	 0.3293556048	 1.8802671111	-0.9018894311	 0.153963
H	-0.9739514889	 1.8600025927	 0.2917076977	 0.1539
H	 0.7062066552	-3.1098074254	-0.707449199	 0.118736
H	 0.1111221592	-4.2708254235	 1.4345326163	 0.118063
H	-0.8011623251	-1.7074564092	 2.1207386758	 0.291574
H	-1.4237168472	-4.3153746388	-0.513960045	 0.119179
H	-4.5762498175	-1.5332218777	 0.2353463089	 0.195372
