20
gdb 104595	2.29466	1.30627	1.01623	4.7459	75.42	-0.2392	0.0191	0.2582	1247.1648	0.170196	-440.307268	-440.297529	-440.296585	-440.342408	36.209	
N	-3.0685462336	-0.0889618145	-2.009457562	-0.515576
C	-2.2178350898	-1.1038736047	-1.6970682349	 0.439373
O	-1.9960954817	-2.0117295578	-2.4842751522	-0.371896
C	-1.5934721083	-1.0107562491	-0.301903125	-0.414737
C	-1.1001488875	-2.3453347671	 0.2387988128	 0.325482
C	 0.3037341978	-2.7451060542	-0.1934042515	-0.10319
O	 0.5485268674	-2.5911251042	-1.5719663338	-0.437294
C	-1.5044932521	-2.7507890431	 1.6381602873	-0.324778
C	-2.1242687796	-3.4361523597	 0.4486508588	-0.282521
H	-3.43331822	-0.0453359586	-2.947223074	 0.265313
H	-3.2070742715	 0.6989239843	-1.401573254	 0.263296
H	-0.7580912586	-0.3012309848	-0.3670043018	 0.141853
H	-2.3276885264	-0.5658645005	 0.379724864	 0.104929
H	 1.0360541484	-2.1136612601	 0.3314137777	 0.088807
H	 0.4861069936	-3.7819542123	 0.1396842918	 0.071781
H	-0.2970866878	-2.7001127342	-2.0382918936	 0.298861
H	-0.7824697398	-3.30388495	 2.2304051934	 0.114895
H	-2.1155062021	-2.0649283018	 2.2159438767	 0.105639
H	-3.1608418231	-3.2180177216	 0.2137376063	 0.110752
H	-1.8281791151	-4.456305476	 0.2293732841	 0.119011
