19
gdb 69512	2.47129	1.62572	1.35294	1.2065	74.7	-0.2341	0.0728	0.307	1046.9787	0.156886	-422.977512	-422.968622	-422.967677	-423.010346	34.396	
C	 0.0278308708	 1.5295579383	 0.118468416	-0.505133
C	 0.0084445256	 0.0327841292	 0.01060315	 0.165403
C	 1.21164053	-0.8139197991	-0.3758077861	-0.379573
C	 0.6142598545	-1.0055333025	 0.9854411307	 0.382376
O	 1.3792935843	-0.7914283362	 2.1134238679	-0.460307
C	-0.6618189179	-1.8087370398	 0.9002928922	-0.167736
O	-1.7658096977	-0.9547054955	 1.2807346479	-0.305497
C	-1.2376038996	-0.841717984	-0.0560780427	 0.387325
C	-2.1717751749	-1.0448012282	-1.2063421978	-0.507265
H	 0.977996428	 1.8739735303	 0.540317657	 0.1262
H	-0.0965317675	 2.0152391092	-0.8563691557	 0.120596
H	-0.776788502	 1.8778170699	 0.7749404431	 0.127519
H	 1.1412190753	-1.5868500273	-1.1372693011	 0.106957
H	 2.1593743053	-0.2829463136	-0.3691382535	 0.123597
H	 0.7855777484	-0.4940273692	 2.8133204249	 0.292888
H	-0.8194460571	-2.878533635	 0.9845220395	 0.099901
H	-2.7845485541	-0.151372911	-1.3702362962	 0.131317
H	-1.6117046727	-1.2390269774	-2.1268085654	 0.127156
H	-2.8431533585	-1.8857939783	-1.0160070207	 0.134277
