18
gdb 82724	2.67993	1.86436	1.36991	3.2834	74.78	-0.2385	-0.0252	0.2133	969.6635	0.149164	-401.930749	-401.923479	-401.922535	-401.962276	28.965	
C	-0.0476205778	 1.6121590128	 0.0312970193	-0.413461
C	 0.0505502142	 0.0908475507	-0.0170651536	-0.091321
C	 0.8174657511	-0.5478853648	-1.1856009711	-0.087045
C	 2.3365786871	-0.2747706762	-1.0492954241	-0.163961
N	 2.559088937	-1.5859193343	-0.3483297349	-0.140162
C	 1.1692826947	-1.9849533776	-0.7089037402	-0.058643
C	 1.5030283086	-1.7413969181	 0.718559554	-0.139147
C	 0.7519600827	-0.532455427	 1.2021340735	 0.403682
O	 0.6663469757	-0.1526622177	 2.3437546959	-0.335457
H	 0.9349204568	 2.083557816	-0.0711650092	 0.12298
H	-0.6902807531	 1.99461818	-0.7670210046	 0.11504
H	-0.4635677427	 1.9218697378	 0.993777748	 0.143672
H	-0.9644178293	-0.3364398164	-0.0092021654	 0.107224
H	 0.3623095463	-0.4138251662	-2.1660947814	 0.081372
H	 2.8714404114	-0.3153667509	-2.0005516589	 0.119784
H	 2.65815761	 0.6098448115	-0.4895383456	 0.114142
H	 0.9155541467	-2.9442060203	-1.144718897	 0.104914
H	 1.7363698605	-2.5376444293	 1.4145418353	 0.116389
