19
gdb 81483	3.22455	1.51907	1.4247	1.2878	73.35	-0.2441	0.0698	0.3139	1000.0178	0.161325	-422.977479	-422.970464	-422.969519	-423.008581	28.735	
C	-0.0335524486	 1.59114345	-0.0198571433	-0.429868
C	-0.049091869	 0.0695246677	-0.0345732919	 0.019117
C	 0.8925832808	-0.5826456186	-1.0847242105	 0.042311
O	 2.0160356736	-0.3455026912	-0.1628101646	-0.305896
C	 1.0056076413	-0.6091462679	 0.8687800446	 0.038618
C	 0.7893336805	-2.1256963836	 0.6342035321	 0.120764
O	-0.5705256107	-2.6139144382	 0.7147968277	-0.300098
C	-0.6568657542	-2.7368433744	-0.7258095863	-0.112012
C	 0.7385474927	-2.108752031	-0.914044597	-0.06721
H	 0.9893058828	 1.9703011705	-0.0833664107	 0.135624
H	-0.6042269868	 1.9942052819	-0.8634732374	 0.113369
H	-0.4885221582	 1.9751286398	 0.8992896959	 0.116594
H	-1.0662536269	-0.3189296759	 0.0413919465	 0.090217
H	 1.0445528808	-0.1691185216	-2.0822916337	 0.078633
H	 1.275566821	-0.2486283835	 1.8615465637	 0.076869
H	 1.4967471111	-2.7657646071	 1.1669272053	 0.084106
H	-0.7181811435	-3.7887846135	-1.0286523938	 0.106637
H	-1.5147620982	-2.1942621785	-1.141127101	 0.102779
H	 1.4729672013	-2.673833235	-1.4857070357	 0.089447
