16
gdb 102008	2.09612	1.24359	0.97466	2.0471	73.77	-0.2335	-0.0735	0.16	1261.9272	0.120198	-437.849804	-437.839702	-437.838758	-437.88681	34.225	
C	 0.2839408482	 1.6512428351	-1.0362468069	-0.327002
N	 0.0468651344	 0.2092790278	-1.1075335162	-0.283001
C	 1.2501189333	-0.5850876938	-1.1086208267	-0.165867
C	 1.7443557452	-0.9804870409	 0.2956504015	 0.148626
O	 1.1653024555	-0.6508999325	 1.2964581896	-0.238789
C	 1.1602607691	-1.887568363	-1.9295883142	 0.197062
O	 2.1485891742	-2.5633695316	-2.1188624605	-0.291282
C	-0.1468584571	-2.2709105884	-2.4180598464	 0.319402
C	-1.2097342876	-2.6539226878	-2.8335136808	-0.434435
H	 0.8747606049	 1.9692448172	-0.1631556621	 0.114266
H	 0.8037813253	 1.9809474983	-1.9423200533	 0.126356
H	-0.6792570317	 2.1672730801	-1.0024358755	 0.12777
H	-0.5169313359	-0.0680755943	-0.3094095117	 0.23297
H	 2.0757812667	-0.0304186533	-1.5751013928	 0.135845
H	 2.6543842131	-1.6127594333	 0.3111230115	 0.118134
H	-2.1510285675	-2.9849904594	-3.2003873854	 0.219946
