14
gdb 130399	2.20507	1.55226	0.94937	4.2873	73.49	-0.25	-0.0464	0.2035	1172.0776	0.099809	-432.803295	-432.794844	-432.7939	-432.837056	30.307	
N	 0.4486537482	 1.4815075867	-0.3121052105	-0.504712
C	-0.0523767812	 0.1521554178	 0.0465078938	-0.290946
C	 0.69272757	-0.3852161121	 1.2223880024	 0.352561
C	 0.2902196661	-0.8195523433	 2.4588975745	 0.062022
N	 1.4403669535	-1.2241360915	 3.1220670823	-0.17631
N	 2.4514100177	-1.0689587246	 2.4085988356	-0.013
O	 2.00791877	-0.5188618821	 1.1345368155	-0.222389
C	-1.0020364037	-0.8758998901	 3.0189438932	 0.278994
C	-2.1097567649	-0.9210418744	 3.4862255295	-0.43834
H	 1.4090523819	 1.409979385	-0.6344846665	 0.245019
H	-0.0936927847	 1.8461209811	-1.0887069038	 0.239304
H	-1.1049808374	 0.2333602185	 0.3328303606	 0.143291
H	 0.0071937625	-0.5968220432	-0.7626952654	 0.120264
H	-3.084745328	-0.9585492779	 3.9060662489	 0.204241
