17
gdb 70067	2.89791	1.51014	1.13632	3.743	74.96	-0.2452	-0.0633	0.1819	1080.0513	0.135547	-421.848652	-421.840757	-421.839812	-421.881037	30.386	
C	-0.057917251	 1.5293590894	 0.0389561768	-0.465747
C	 0.0195786132	 0.0202052965	 0.0668376012	 0.380051
C	-1.0579872193	-0.7216098999	-0.6975298073	-0.398576
C	-1.079217592	-2.2412320089	-0.5191093171	 0.378474
O	-1.58638788	-2.9593199906	-1.3555584858	-0.327031
C	-0.5360258371	-2.7825334267	 0.7456807508	-0.18079
C	 0.2388158862	-2.0517094446	 1.556635505	-0.029401
C	 0.6624393624	-0.6763883173	 1.2032091862	-0.066829
O	 1.3336455494	-0.5242204162	-0.0682786851	-0.284543
H	 0.7758398991	 1.9669083482	 0.5932401111	 0.132091
H	-0.0106737821	 1.8943830034	-0.9927611821	 0.133369
H	-0.9970634265	 1.8816932581	 0.4777189045	 0.12538
H	-2.0427591647	-0.3568768682	-0.3735693275	 0.134362
H	-0.9889768274	-0.5077414919	-1.7688445535	 0.141029
H	-0.7942286378	-3.8129570435	 0.9668829299	 0.11888
H	 0.607650616	-2.4643139633	 2.4917309078	 0.114807
H	 1.0996861817	-0.0808053346	 2.002308205	 0.094474
