23
gdb 63574	2.97833	1.25557	1.06583	0.1964	93.06	-0.2141	0.0299	0.244	1260.5394	0.205777	-351.165924	-351.156685	-351.155741	-351.199442	36.289	
C	 0.0185662575	 1.5139703884	-0.1874035233	-0.450693
C	-0.0055849068	 0.0008168799	-0.0644553885	 0.289254
C	-1.1758754577	-0.6382599353	-0.7908516829	-0.452511
C	 1.3147333574	-0.7302279867	-0.0555275112	-0.383767
C	 0.5036866415	-0.6228160595	 1.229985205	 0.310683
C	 0.9789056957	 0.2305017615	 2.4227666748	-0.296958
C	 0.935900667	-0.7161033915	 3.6538560333	-0.268879
C	 0.1199187388	-1.888848474	 3.165891118	-0.087327
C	-0.0981788956	-1.8350019989	 1.8519109242	-0.127271
H	 0.8902391645	 1.9545685359	 0.3033448178	 0.114791
H	 0.0463670863	 1.8116494432	-1.2423577845	 0.111451
H	-0.8776142759	 1.9642903536	 0.2566758262	 0.112984
H	-1.1788427813	-0.3399593699	-1.8461870168	 0.111446
H	-1.1369126173	-1.7300022705	-0.7616147414	 0.113017
H	-2.1332126418	-0.3257725968	-0.356920052	 0.113967
H	 1.3710022391	-1.6987550468	-0.5437156047	 0.102492
H	 2.2288414512	-0.1467684861	-0.1202022551	 0.102817
H	 1.9723992591	 0.6581480871	 2.2648664465	 0.09739
H	 0.2907780324	 1.0681508198	 2.5792194287	 0.104186
H	 1.9412600382	-1.042823411	 3.9542504226	 0.104985
H	 0.49946269	-0.230540909	 4.5343601799	 0.100854
H	-0.2037876816	-2.6910111904	 3.8196568737	 0.087894
H	-0.6256853105	-2.588853973	 1.2795653996	 0.089195
