18
gdb 71715	2.36253	2.07344	1.76945	1.1857	74.08	-0.2186	0.0641	0.2828	892.0411	0.147729	-401.863756	-401.85641	-401.855466	-401.894916	30.077	
C	-0.0743654582	 1.488764959	-0.021048119	-0.508344
C	-0.0131284043	-0.0149016701	-0.0460292822	 0.277583
C	 0.5938283411	-0.8537357684	-1.2058438528	-0.292763
C	-0.2791876292	-1.9831660849	-0.6393301105	-0.074673
N	 0.1743406688	-2.2236823285	 0.7967795926	-0.146641
C	 0.3492516437	-0.7989322625	 1.2350538495	-0.079927
C	-0.9721744615	-1.4585291703	 1.3771666427	-0.162401
C	-1.2961947154	-0.9431198234	-0.0626028222	 0.340525
O	-2.4656240458	-0.4810393816	-0.6155153924	-0.473476
H	 0.9296130278	 1.9227324337	 0.0540350787	 0.118001
H	-0.5436404356	 1.87861634	-0.9295351959	 0.12736
H	-0.6565450953	 1.8449748858	 0.8359071783	 0.122597
H	 0.2257105196	-0.5158219925	-2.1794787578	 0.107267
H	 1.676775288	-1.0008431529	-1.2388187442	 0.101376
H	-0.5166993392	-2.9036796678	-1.1721231445	 0.07111
H	 1.1123049931	-0.581058305	 1.9737131974	 0.088428
H	-1.5397293619	-1.7938667397	 2.237816663	 0.09467
H	-3.0843613158	-1.2155733808	-0.6993322206	 0.289307
