18
gdb 106650	2.72816	1.30966	1.05553	2.5003	74.8	-0.2564	0.0192	0.2756	1195.2682	0.14579	-439.057853	-439.048806	-439.047861	-439.091647	33.742	
C	-0.1546131113	 1.476567458	 0.0880741017	-0.381543
C	 0.166173988	-0.0187506485	-0.0426109256	-0.289175
C	 0.7749403234	-0.5883792373	 1.1952451035	 0.418984
C	 0.1211428966	-1.0565587354	 2.4584097073	-0.394702
C	 1.0806177085	-1.9811226915	 1.6873464731	 0.178386
O	 0.7138000258	-3.1928434464	 1.1615586022	-0.445025
C	 2.4744887219	-1.4662362301	 1.8898922838	 0.386412
N	 3.5765695089	-1.9746442709	 2.1963911074	-0.565757
O	 2.1348059981	-0.1583574795	 1.5450703327	-0.310024
H	 0.7500094978	 2.0486370595	 0.3132015552	 0.137565
H	-0.5787557744	 1.8631712577	-0.8428468135	 0.117669
H	-0.8757338404	 1.656080594	 0.8915688835	 0.121355
H	-0.7440878123	-0.5877799297	-0.2632255915	 0.11846
H	 0.8549765655	-0.1849964742	-0.8788735044	 0.120598
H	 0.3962761283	-0.6246251236	 3.415627939	 0.126525
H	-0.9163784254	-1.3619764485	 2.3539014906	 0.127776
H	 0.7135825381	-3.8466296355	 1.8701779446	 0.301727
H	 4.3232834229	-1.277769118	 2.1899116605	 0.230769
