13
gdb 1453	7.58711	1.33223	1.21832	2.9146	51.96	-0.2593	-0.0321	0.2272	939.3653	0.099054	-381.630205	-381.622324	-381.621379	-381.663568	25.402	
C	-0.3405306128	 1.3176443192	-0.0666171997	-0.242775
O	-0.0604189845	-0.0903628393	-0.1183204423	-0.223192
C	 0.9106100616	-0.4508329191	-0.9728136667	 0.429428
O	 1.5213917951	 0.3184369526	-1.6726477478	-0.356746
C	 1.13858313	-1.9482785949	-0.9522769531	-0.395223
C	 1.3080508031	-2.5079034001	-2.3595395568	 0.164659
O	 0.9097944158	-3.5915014943	-2.6923395141	-0.234057
H	 0.5496783138	 1.8749177917	 0.2344733957	 0.145285
H	-0.6688495501	 1.6784876985	-1.044176597	 0.1464
H	-1.1338940567	 1.4327974166	 0.6712086786	 0.139451
H	 2.0916189209	-2.1175674541	-0.4309638506	 0.164152
H	 0.3559798184	-2.4861592288	-0.4171996151	 0.149579
H	 1.8464404152	-1.831709018	-3.0544689911	 0.11304
