21
gdb 64307	2.22014	1.69656	1.23325	3.4186	84.62	-0.2336	-0.0468	0.1868	1113.5777	0.182652	-387.140518	-387.131559	-387.130614	-387.173634	34.859	
C	-0.131001193	 1.5287299799	 0.0912742027	-0.416672
C	-0.0129505719	-0.010492905	-0.0127040234	 0.146108
C	-1.4170358009	-0.6284570658	-0.0459433819	-0.417329
C	 0.7808377441	-0.4245366318	-1.2706684644	-0.232664
C	 2.248991784	 0.0179109082	-1.2479272038	-0.28462
C	 2.9028077966	-0.285502351	 0.0679987397	-0.038399
C	 2.210917747	-0.5296051025	 1.1877076299	-0.140629
C	 0.7330813403	-0.4849139378	 1.2495107716	 0.37348
O	 0.1436472377	-0.7606902353	 2.2769729674	-0.350275
H	 0.8453346122	 2.0166877274	 0.1679462695	 0.117961
H	-0.6420894468	 1.9282803626	-0.7914960251	 0.113703
H	-0.7113427649	 1.8044377682	 0.9763850264	 0.132316
H	-1.9881873793	-0.2325823319	-0.8924387581	 0.102637
H	-1.3673048073	-1.7173450203	-0.1489341202	 0.112344
H	-1.955434818	-0.4079723741	 0.8776484784	 0.135183
H	 0.7510038106	-1.5184790452	-1.3530771077	 0.103684
H	 0.2806062997	-0.0309058217	-2.1633019051	 0.096949
H	 2.804971125	-0.4697617635	-2.0576365111	 0.112697
H	 2.3382556255	 1.0961837434	-1.4483262923	 0.123606
H	 3.990709676	-0.2965857985	 0.0947242058	 0.105549
H	 2.7031915537	-0.7620587652	 2.127195042	 0.104372
