13
gdb 1841	6.75586	2.11611	1.62973	5.2991	60.68	-0.2142	-0.0008	0.2134	719.0217	0.103717	-340.662316	-340.65611	-340.655166	-340.692071	23.596	
N	 0.0605870058	 1.3408507976	 0.1546767071	-0.586022
C	-0.0418845735	-0.0219015356	 0.0477847632	 0.341298
C	-1.1185239455	-0.8281220248	 0.0320581443	-0.303936
C	-0.6704004537	-2.2120884357	-0.0138114349	 0.43072
N	-1.3778871192	-3.2625208737	-0.0411958467	-0.565872
O	 0.719452514	-2.2173967346	-0.0305714733	-0.253534
C	 1.197909232	-0.8820586932	 0.0185096619	-0.155969
H	 0.8968581738	 1.7666414758	-0.214930464	 0.257849
H	-0.7735873758	 1.8742354685	-0.0375311449	 0.263632
H	-2.1619099404	-0.5537728077	 0.0491666411	 0.108937
H	-0.7821774189	-4.0902769986	-0.0761410833	 0.215662
H	 1.8245729364	-0.6799531615	-0.862517928	 0.117597
H	 1.817708205	-0.7380144266	 0.9141449575	 0.129637
