17
gdb 7097	7.69879	0.89432	0.81332	1.0984	71.95	-0.2635	0.0315	0.295	1387.7217	0.139738	-363.84278	-363.833555	-363.832611	-363.877327	32.363	
C	 0.0796458267	 1.5473237553	 0.1986868218	-0.390109
C	-0.0045000156	 0.0457795439	-0.0002074216	-0.029244
O	 0.65965294	-0.5755361402	 1.113166089	-0.246856
C	 0.693142795	-1.9208380299	 1.1195979407	 0.412027
N	 0.1729641457	-2.620290094	 0.2030661773	-0.527326
C	 1.4354963472	-2.3814972923	 2.3723801937	-0.456424
C	 1.5400235536	-3.8261096245	 2.4967277264	 0.294438
C	 1.6172369242	-5.0219869107	 2.5837210929	-0.426256
H	 1.1211403118	 1.8795112991	 0.2353085074	 0.126605
H	-0.4164593737	 2.0597666538	-0.6308993405	 0.121549
H	-0.4092259618	 1.8467181498	 1.1302275269	 0.126609
H	-1.0399213757	-0.308053032	-0.0389419838	 0.121026
H	 0.4804193554	-0.2755840672	-0.9277548772	 0.121071
H	 0.3089156494	-3.6110943933	 0.3981378371	 0.232255
H	 2.4316353502	-1.9219612236	 2.3628787588	 0.158443
H	 0.9237704755	-1.9552071165	 3.2441421686	 0.158445
H	 1.6917858121	-6.0777745577	 2.6714191824	 0.203747
