18
gdb 85465	2.38444	1.40909	1.04973	3.5595	77.65	-0.2422	0.0204	0.2626	1177.0991	0.147497	-401.966159	-401.957369	-401.956425	-401.999646	33.305	
C	-0.1998582129	 1.547702125	-0.0808477291	-0.413445
C	 0.0376260386	 0.0434606543	-0.0241077015	 0.01949
C	 0.8901338968	-0.543973325	-1.1592567181	-0.34298
C	 1.5108158582	-1.8096381825	-0.5647574346	 0.408459
O	 2.0845996549	-2.7003886243	-1.1464618774	-0.371357
N	 1.2969297621	-1.7501636894	 0.7958669661	-0.287356
C	 0.7687029801	-0.4725307893	 1.2625326221	-0.20177
C	 1.8205497456	 0.4193227843	 1.7628423208	 0.362311
C	 2.6912307158	 1.1319917702	 2.1866072046	-0.479804
H	 0.745311846	 2.0977272859	-0.0737597804	 0.133555
H	-0.7435257489	 1.8120232685	-0.9930822374	 0.119974
H	-0.7938302031	 1.8901113178	 0.773082956	 0.118823
H	-0.9299005949	-0.471662114	-0.0286394057	 0.094612
H	 0.3289889914	-0.7748689768	-2.0663556363	 0.130704
H	 1.7083120168	 0.1314509973	-1.438242733	 0.134637
H	 1.821527252	-2.3609490893	 1.404168741	 0.253962
H	 0.0384464303	-0.6322737664	 2.0644132531	 0.114293
H	 3.4628153511	 1.7596902736	 2.5597202199	 0.20589
