18
gdb 39343	2.77265	1.90972	1.41533	1.5399	70.23	-0.2517	0.0849	0.3365	941.4831	0.150952	-439.070065	-439.0631	-439.062156	-439.10151	27.543	
C	 0.046207078	 1.3775420585	 0.14892119	-0.070069
C	 1.4730038355	 1.9266338684	-0.0574985817	-0.340799
C	 2.2240500337	 0.6247876082	-0.0130367506	 0.301259
N	 3.6537749385	 0.3810415248	 0.0492620692	-0.41892
C	 2.803594749	-0.0425588952	 1.1795283937	-0.094018
C	 2.2405881388	-1.4485448906	 1.2082169147	-0.117029
O	 1.6328128238	-1.6526633985	-0.0717472253	-0.263986
C	 1.329455359	-0.4138562407	-0.6661699418	 0.186414
O	 0.0144403779	 0.0634647846	-0.436648533	-0.280033
H	-0.1910455233	 1.3097860418	 1.2196901458	 0.101311
H	-0.7258306583	 1.9821009117	-0.334933833	 0.112296
H	 1.5750721855	 2.4124689522	-1.0341249031	 0.11452
H	 1.770278081	 2.6371286031	 0.7159833654	 0.117364
H	 3.9010335101	-0.4155868499	-0.5375337868	 0.238997
H	 2.9817700648	 0.4779999211	 2.1148471799	 0.10317
H	 2.9883208297	-2.2378750015	 1.3443766879	 0.114092
H	 1.5011621752	-1.5322539574	 2.0176345195	 0.111175
H	 1.4577239411	-0.5661323706	-1.7453814708	 0.084256
