17
gdb 79209	2.5595	1.67097	1.30988	4.7963	76.31	-0.2673	-0.0043	0.263	1011.8311	0.137094	-380.829751	-380.82217	-380.821226	-380.861684	29.336	
C	-0.0247698412	 1.6188374289	 0.0158650876	-0.43671
C	 0.1081428773	 0.1049580946	-0.019586557	-0.012087
C	 0.8638037283	-0.6239827791	-1.1185873087	-0.06335
C	 2.3030453333	-0.7459827941	-0.7356959019	-0.046263
C	 2.5161487348	-0.1051147101	 0.6217298767	-0.285633
C	 1.0983716832	-0.6467009843	 0.9192819033	 0.204497
C	 0.7064250914	-1.022950237	 2.2528535181	 0.18041
N	 0.3843823535	-1.3028318213	 3.3277062914	-0.334683
N	 1.2985074262	-1.7353090139	-0.2001768568	-0.176837
H	 0.9331228543	 2.122938654	-0.1374605805	 0.124305
H	-0.7057688609	 1.9565159964	-0.7720938585	 0.129608
H	-0.437874935	 1.9503287293	 0.9742490977	 0.136564
H	-0.8716144023	-0.369961779	 0.0940985232	 0.109798
H	 0.516808875	-0.8443218917	-2.1213857245	 0.106984
H	 3.0619132947	-1.0597587406	-1.4421656669	 0.111503
H	 3.2627495196	-0.6552052675	 1.1979124542	 0.136762
H	 2.6919730277	 0.9699172556	 0.7084560426	 0.115131
