13
gdb 18825	4.47884	2.32636	1.9375	5.1997	56.01	-0.2388	-0.0009	0.2379	681.6807	0.098015	-398.570261	-398.564911	-398.563967	-398.599601	21.594	
O	 0.002434382	 0.0207347475	 0.1792527853	-0.338705
C	 0.027642327	 1.1990751743	 0.0011470732	 0.503205
O	-1.1028791736	 1.9789984767	-0.0604244425	-0.226448
C	-0.7192390077	 3.2901470757	-0.4318925118	 0.106629
C	 0.3558552638	 3.9983499278	 0.3683883357	-0.061165
N	 1.0753047419	 2.9845454949	 1.1608991084	-0.32326
C	 1.2080890396	 2.1653820709	-0.1169312008	-0.203584
C	 0.6752128983	 3.3401826907	-0.9734618673	-0.144121
H	-1.5295155927	 3.856453595	-0.8696200191	 0.125825
H	 0.2790248628	 5.0338841068	 0.6781668617	 0.10889
H	 1.999736388	 3.347949861	 1.3793062877	 0.235499
H	 2.1713407498	 1.697958963	-0.2958305326	 0.107436
H	 0.9896709708	 3.6892668755	-1.948510388	 0.109798
