20
gdb 7829	3.11981	1.6522	1.16078	0.3846	71.02	-0.2414	0.0716	0.3129	1059.5996	0.177994	-386.151422	-386.14326	-386.142316	-386.183493	31.528	
C	-0.0157818156	 1.5425552871	 0.006157634	-0.404941
C	 0.0203487932	 0.0121790316	 0.0129637608	 0.009667
C	 0.7255478428	-0.5348115496	-1.2342388045	-0.067111
O	 0.7844908882	-1.952124986	-1.2435855004	-0.246688
C	 1.4969385878	-2.460857546	-0.132648828	-0.101597
C	 0.8347764667	-2.0648092989	 1.195190318	 0.091482
O	 1.6107062761	-2.4939682357	 2.3053825436	-0.431356
C	 0.7103967529	-0.5457996812	 1.2686149994	-0.195992
H	 0.9973599173	 1.9613239213	 0.0105113154	 0.116277
H	-0.5324155395	 1.9267112615	-0.8800048445	 0.113094
H	-0.5360759558	 1.9270018321	 0.8891532737	 0.117065
H	-1.0114339897	-0.3649828021	-0.0108455206	 0.079163
H	 0.1899632872	-0.2485485514	-2.1446625289	 0.103635
H	 1.7454226626	-0.1135499702	-1.2946250326	 0.081677
H	 1.5199394393	-3.5502032467	-0.250785869	 0.092021
H	 2.538225432	-2.0951963214	-0.1255717531	 0.090345
H	-0.1729077346	-2.5101026296	 1.225087483	 0.069565
H	 1.61803514	-3.4565853129	 2.3129389508	 0.283045
H	 1.7223208854	-0.1255333571	 1.3541460215	 0.101006
H	 0.1692728939	-0.2583836146	 2.1766560513	 0.099646
