15
gdb 132762	2.34626	1.80632	1.02716	3.1813	70.57	-0.2517	-0.0146	0.2371	1071.0963	0.112852	-461.986929	-461.979152	-461.978208	-462.019267	29.285	
C	 0.022080221	 1.5230404159	-0.0195180194	-0.549829
C	 0.0101118927	 0.0170927142	-0.0230775871	-0.017965
C	 0.1329924351	-0.7267299792	-1.2026429278	 0.35375
O	 0.2702604018	-0.1391660493	-2.4140955452	-0.425144
C	 0.1159915381	-2.1233387958	-1.1522233116	-0.210115
C	-0.0242303225	-2.7260443992	 0.0845544888	-0.000221
N	-0.1445048186	-2.048832716	 1.2354004627	-0.339468
C	-0.1234961273	-0.740915649	 1.1416611859	 0.30022
F	-0.2442732479	-0.0773678346	 2.2959117787	-0.077267
H	 0.9611575643	 1.9249116674	-0.4222172924	 0.135599
H	-0.8011377769	 1.9393774801	-0.6149285394	 0.135599
H	-0.085901228	 1.9021156548	 0.9964862095	 0.160319
H	 0.2669813918	 0.8188237333	-2.3120814178	 0.304932
H	 0.2109264039	-2.6998123838	-2.0636082985	 0.111033
H	-0.0420981474	-3.8091554387	 0.1665946837	 0.118556
