19
gdb 39507	2.459	1.76118	1.22358	1.6896	70.99	-0.254	0.0824	0.3364	1042.7635	0.161228	-460.135462	-460.12786	-460.126916	-460.167497	29.791	
C	 0.0475687914	 0.8969417111	-0.4142817922	-0.080373
C	 1.2194288947	 1.8388473261	-0.0973701518	-0.2568
C	 2.5478344984	 1.1195942856	 0.0099471113	 0.066625
O	 3.4515973172	 1.5751158953	 1.0241117905	-0.26085
C	 2.9249417952	 0.2505483191	 1.1371347374	 0.072391
C	 2.0694658957	-0.0851649278	 2.3468554494	-0.121214
O	 0.8282626255	 0.5924051405	 2.4359075378	-0.230095
C	-0.2281116881	-0.0449413773	 1.7601603608	-0.000838
O	 0.0027582474	-0.2676326222	 0.400940255	-0.224464
H	-0.900672032	 1.4509961306	-0.3342623989	 0.09666
H	 0.1239494924	 0.5163642612	-1.4379265603	 0.110954
H	 1.2757054605	 2.5913015873	-0.8937480556	 0.097878
H	 1.040489837	 2.3641155528	 0.8409378052	 0.135574
H	 3.0347817471	 0.9046407294	-0.9442137655	 0.087225
H	 3.6665006996	-0.5276493575	 0.9352751851	 0.086524
H	 1.9119724131	-1.1745007546	 2.3604566601	 0.097869
H	 2.6306888305	 0.1825374623	 3.2494504889	 0.122628
H	-0.4094327161	-1.0433092583	 2.1837395756	 0.101595
H	-1.1010725296	 0.6031166264	 1.9238944972	 0.098711
