22
gdb 59539	2.60238	1.24332	1.11257	2.6432	81.83	-0.2326	0.0706	0.3033	1238.0278	0.193742	-404.300339	-404.290919	-404.289975	-404.334352	36.232	
C	 0.7676039947	-1.2854597462	-1.3398186482	-0.38998
C	 0.0682517754	-0.3968271665	-0.317792676	 0.122542
O	-0.1062509043	 0.8878063051	-0.9056335639	-0.447438
C	-1.3015957347	-0.9426919458	 0.0721050613	 0.06989
C	-1.5326814464	-2.1346849989	 1.0346028953	-0.309219
C	-2.4778546847	-1.2064605348	 1.800503891	-0.046108
C	-1.7926699186	-0.0098542871	 2.320629574	 0.033495
C	-0.400557569	 0.0465696593	 2.9117172959	-0.427945
N	-2.1827281355	-0.0134160337	 0.8845420687	-0.204938
H	 1.7137449098	-0.8303758252	-1.6450576912	 0.125856
H	 0.9797853102	-2.2739632219	-0.9198512812	 0.110891
H	 0.1444048584	-1.4069047979	-2.2315446939	 0.120552
H	 0.7129566415	-0.3152266526	 0.5688918616	 0.061124
H	-0.8226930019	 1.3209065544	-0.4247396257	 0.292985
H	-1.8551517126	-1.1078329679	-0.8585809327	 0.091963
H	-2.0282304405	-2.9828328392	 0.5608320422	 0.113002
H	-0.671818443	-2.5077979201	 1.5982236615	 0.105212
H	-3.4960747992	-1.4636588228	 2.0764515578	 0.096275
H	-2.4715402249	 0.6766892231	 2.8253147867	 0.099514
H	 0.1106041825	 0.9726556858	 2.6287009774	 0.132949
H	-0.4814674419	 0.0351487935	 4.0041699233	 0.121135
H	 0.2327344549	-0.7929803303	 2.6220977458	 0.128242
