16
gdb 78445	3.13533	1.47729	1.26572	3.1252	67.79	-0.243	-0.0128	0.2302	998.0882	0.12521	-437.827174	-437.820105	-437.819161	-437.858432	28.422	
O	-0.0350718966	 1.3436198514	-0.0815549532	-0.436665
C	 0.0430442396	-0.0483782644	-0.0393426941	 0.058642
C	-0.3947965982	-0.7351869731	 1.2438264646	-0.1136
C	-1.2922266991	-0.734810319	 0.0043034205	-0.069283
C	-1.3529179549	-2.2550876975	-0.2730712944	-0.149477
N	-1.4953563933	-2.8888716103	 1.0905950278	-0.316272
C	-0.1565698683	-2.2555042679	 1.3911238248	-0.147335
C	 0.1238197805	-2.6758649003	-0.0730070983	 0.467336
O	 0.9952218292	-3.1877616069	-0.6991157052	-0.321514
H	 0.7590703214	 1.7001489098	 0.3309005979	 0.291462
H	 0.8507794389	-0.4809550053	-0.6298942807	 0.11505
H	-0.6017304953	-0.1240008461	 2.1148707427	 0.101992
H	-2.1849705841	-0.1260417009	-0.0772284245	 0.109936
H	-1.9859122822	-2.6240172113	-1.0774639445	 0.09538
H	-2.2447645608	-2.4516966567	 1.6297320825	 0.221019
H	 0.4041251132	-2.6274429715	 2.2463511441	 0.09333
