25
gdb 116494	2.69661	1.12775	0.88039	1.1448	89.12	-0.2419	0.0815	0.3234	1445.9103	0.230543	-389.508121	-389.498457	-389.497513	-389.542688	36.972	
C	 0.0769776306	 1.5829414139	 0.1753323733	-0.386563
C	 0.0285847807	 0.0627334948	 0.0117010326	-0.180134
C	-1.3947781233	-0.5001824803	-0.0486760143	 0.136843
C	-1.3956004155	-2.0290142873	-0.2228865617	-0.19641
C	-2.6734699285	-2.6603395957	-0.8177046124	-0.206076
C	-4.0109568106	-1.9721279773	-0.4774294291	-0.190663
C	-4.1442106257	-1.4348617828	 0.9557261551	-0.198538
C	-3.4366002302	-0.0928264208	 1.1797967737	-0.061696
O	-2.025383409	-0.1367886456	 1.1790935946	-0.255936
H	 1.1094518542	 1.9399089607	 0.2401078657	 0.106349
H	-0.3962263975	 2.0872184895	-0.6752822875	 0.105696
H	-0.4512030799	 1.887404455	 1.0817770355	 0.131843
H	 0.5536786013	-0.2347979284	-0.9037892889	 0.090458
H	 0.5523781368	-0.4209422133	 0.8461683873	 0.101438
H	-1.9283548872	-0.0170454309	-0.8861146596	 0.057601
H	-0.5436404579	-2.3220680599	-0.8475548034	 0.089593
H	-1.1998433792	-2.4417038761	 0.7734150666	 0.105407
H	-2.5850792948	-2.6978510969	-1.9102240477	 0.094928
H	-2.7150842205	-3.7063527586	-0.4907959532	 0.096845
H	-4.1797579611	-1.1356099744	-1.1686482625	 0.093975
H	-4.8196369018	-2.6843496108	-0.6780701642	 0.091934
H	-5.2070311942	-1.2740347173	 1.1787875561	 0.092652
H	-3.7796225763	-2.167268868	 1.6867959467	 0.100703
H	-3.7939540465	 0.626955138	 0.4218549909	 0.080133
H	-3.7070559639	 0.3067532326	 2.1631837261	 0.099618
