22
gdb 88838	2.99111	1.09923	0.88482	1.8047	82.69	-0.2268	0.0803	0.3071	1378.0201	0.193354	-404.294428	-404.284806	-404.283862	-404.330041	35.218	
C	-2.2460746077	-0.0898677794	 2.05923139	-0.398265
C	-1.4481778088	-1.3656668214	 1.8718255763	 0.143776
O	-1.1053228335	-1.6059372415	 0.4861495265	-0.2911
C	 0.2888272693	-1.7769213286	 0.8018482667	-0.08778
C	 0.0545423365	-1.4342984579	 2.2920513041	-0.080149
C	 0.7009571647	-0.1701532925	 2.7974564321	 0.010256
C	 0.7840920781	 0.1289401203	 4.2589175879	-0.264804
N	 1.9922562265	-0.144401327	 3.4939943843	-0.0898
C	 2.7088148135	-1.3798036373	 3.773059712	-0.314845
H	-1.7164174866	 0.7808988991	 1.6647280591	 0.122256
H	-3.1996030196	-0.1743994115	 1.5283584916	 0.126096
H	-2.4604941972	 0.0795254411	 3.1196992093	 0.117674
H	-2.0214345565	-2.2146277639	 2.2723752222	 0.070907
H	 0.6354036553	-2.7995041582	 0.6041598345	 0.096264
H	 0.9241117178	-1.0744734591	 0.2471708342	 0.102821
H	 0.2549904277	-2.2657337513	 2.968824829	 0.07433
H	 0.5923205997	 0.6768666888	 2.1210383773	 0.094072
H	 0.6652803067	 1.1432591337	 4.6317744442	 0.115024
H	 0.4277849422	-0.6466699709	 4.9380852393	 0.101918
H	 2.0797007987	-2.2139357782	 4.1215166384	 0.101392
H	 3.2433284731	-1.7036260737	 2.8739273287	 0.123861
H	 3.4512602102	-1.1788370606	 4.5520889323	 0.126095
