27
gdb 101612	2.88036	0.79888	0.75101	1.2878	92.58	-0.2552	0.0639	0.3191	1739.4631	0.248729	-390.709916	-390.697938	-390.696994	-390.746799	45.022	
C	-0.3055824051	 1.8158783127	 0.3985992748	-0.392885
C	-0.1727226453	 0.2969717822	 0.2484671524	-0.164287
C	-1.4580514859	-0.4289512362	-0.2021689412	 0.035927
C	-1.9218183894	 0.0423497771	-1.589463209	-0.401873
C	-1.2273274334	-1.9536433964	-0.1398231889	-0.210795
C	-2.4466534722	-2.9038150596	-0.2319200472	 0.33361
C	-1.9705660761	-4.3510758057	-0.0212430735	-0.408011
C	-3.5373051231	-2.5581786856	 0.7853310574	-0.39114
O	-3.0956777608	-2.814093174	-1.510356561	-0.450746
H	 0.6167269947	 2.2491356958	 0.7986310776	 0.109645
H	-0.5101109933	 2.3086585412	-0.5563963698	 0.11897
H	-1.1185508717	 2.0751055499	 1.0866946648	 0.111803
H	 0.6343554131	 0.0690837793	-0.4623740185	 0.088762
H	 0.1464527011	-0.1238486428	 1.2108384585	 0.087378
H	-2.2410214289	-0.1714895093	 0.5246058732	 0.070282
H	-1.1406762233	-0.1440204273	-2.3386047021	 0.096799
H	-2.8201320036	-0.4899942808	-1.9041631827	 0.138185
H	-2.1347069571	 1.1152087845	-1.5978359078	 0.106683
H	-0.5198111353	-2.2365853757	-0.9351298585	 0.075208
H	-0.7134735891	-2.184913153	 0.8027235058	 0.088823
H	-1.5596899457	-4.4993219031	 0.9825377287	 0.112636
H	-2.8066592117	-5.0421531364	-0.1609875209	 0.118968
H	-1.1867800265	-4.6123087539	-0.7424924929	 0.100288
H	-3.9721711135	-1.5783833136	 0.5754606263	 0.126238
H	-4.3409239302	-3.2983334514	 0.7357933518	 0.117389
H	-3.1348976148	-2.5512768206	 1.8027078188	 0.109037
H	-2.4455574131	-3.0393104575	-2.1847271658	 0.273105
