15
gdb 132997	3.91056	1.09942	0.8628	2.5886	74.99	-0.2195	-0.0319	0.1876	1255.2879	0.112067	-461.930506	-461.922599	-461.921654	-461.963673	28.863	
C	-0.1239269366	 1.4276895061	 0.0165170003	-0.322986
N	-0.0505314455	-0.022846679	 0.0031270207	-0.311903
C	 0.6120293938	-0.599369627	-0.9334060578	 0.322149
C	 1.338383625	 0.0374184241	-2.0425697554	-0.240531
C	 1.9906670306	-0.6922400823	-2.9539026252	 0.062186
O	 2.0417360661	-2.0575305181	-2.9400917031	-0.209538
C	 1.3853044507	-2.6677588907	-1.9354891169	 0.398779
F	 1.5210450354	-3.9696479497	-2.0500595832	-0.041768
C	 0.6990951564	-2.0566564896	-0.9665072547	-0.400534
H	 0.8645491361	 1.9028565289	 0.1110222693	 0.110552
H	-0.6005259261	 1.8380763614	-0.8869433958	 0.110526
H	-0.7222691698	 1.745740288	 0.8742984122	 0.121549
H	 1.3583380798	 1.1141413061	-2.1419136349	 0.120334
H	 2.5459475917	-0.3008114838	-3.7955780263	 0.148524
H	 0.2047430824	-2.6392260443	-0.2017937192	 0.132659
