15
gdb 43712	4.85361	1.21004	1.09005	4.641	65.68	-0.2571	0.0034	0.2605	1070.2771	0.11223	-457.710496	-457.703694	-457.70275	-457.741856	26.694	
O	 0.1587224885	 0.1200045416	-0.6906649123	-0.309053
C	-0.0250383524	 1.1503037511	-0.1315987366	 0.428788
C	-1.2029047718	 2.0462832152	 0.2567258789	-0.531572
C	-0.0999177912	 2.9247890469	 0.8556225444	 0.534941
O	 0.9155242495	 1.9858195525	 0.4279251691	-0.271293
C	 0.1520101389	 4.435700215	 0.687257792	-0.037944
C	-0.9307374091	 4.6923769522	 1.7654630091	-0.232135
C	-0.0000485331	 3.5557192794	 2.2579859591	-0.037944
O	 1.1582554115	 4.3412410218	 1.7709746986	-0.3069
H	-1.7514580292	 2.4621418312	-0.5902656836	 0.151561
H	-1.9014517286	 1.592376761	 0.9618858248	 0.151595
H	 0.4114452145	 5.006114077	-0.2033329491	 0.113072
H	-0.8001407351	 5.6301747414	 2.3034956551	 0.12581
H	-1.9751545134	 4.465421586	 1.5372063452	 0.108003
H	 0.078642011	 3.0801439276	 3.2344420152	 0.113072
