21
gdb 13899	2.73028	1.63734	1.24042	1.4865	75.13	-0.2153	0.073	0.2883	1079.0571	0.186108	-366.229833	-366.219841	-366.218897	-366.264384	36.05	
C	 0.3577973792	 0.5058901226	-1.4820827537	-0.400998
C	 0.003334792	 0.2220849726	-0.0207131254	 0.121798
O	 0.0200569125	 1.4200950523	 0.7595425789	-0.43574
C	-1.3423602417	-0.4695824746	 0.0912214647	-0.032084
C	-1.5158322701	-1.9579555434	 0.1564741408	-0.003137
C	-0.3639197935	-2.941083836	 0.1037978735	-0.418143
N	-1.8180725816	-1.113724062	 1.3133424136	-0.109909
C	-0.9825288171	-1.1387948686	 2.5067162059	-0.310323
H	 1.2948423089	 1.0659118001	-1.5394630845	 0.123895
H	 0.4663484958	-0.4233841477	-2.0507034339	 0.118819
H	-0.4272669825	 1.1023770624	-1.9628506285	 0.108116
H	 0.7926019895	-0.3910937256	 0.4208808518	 0.083801
H	-0.7174589779	 1.9679120685	 0.4673783602	 0.2766
H	-2.1268518562	 0.0991008457	-0.4183007497	 0.071679
H	-2.4183641523	-2.3578254388	-0.307682276	 0.085342
H	 0.5667161037	-2.5526094891	 0.5206296582	 0.124013
H	-0.6173704354	-3.8547589165	 0.6528725296	 0.124497
H	-0.1675485876	-3.2281344858	-0.9349813847	 0.12288
H	 0.0756213317	-1.3874002462	 2.3470167683	 0.098993
H	-1.0202167062	-0.1525709483	 2.9761744226	 0.134596
H	-1.3969465311	-1.8728687016	 3.2053544785	 0.115305
