20
gdb 93725	2.40842	1.40554	1.15042	2.4372	79.	-0.2236	0.0299	0.2535	1157.2997	0.172656	-399.331705	-399.322578	-399.321634	-399.365749	34.441	
C	-0.4858888518	 1.4111380949	 0.2767144534	-0.338407
N	 0.0860596682	 0.0910459193	 0.0172419135	-0.050159
C	-0.9067699778	-0.913882738	-0.3697953202	-0.176548
C	-1.5066368262	-1.4489683214	 0.9518593174	-0.246654
C	-0.302473501	-1.4020918051	 1.9354195536	 0.136493
N	 0.2601639654	-2.7482345977	 2.1160337339	-0.53399
C	 0.7515202708	-0.5014682006	 1.1677364682	-0.20943
C	-0.683192294	-0.7912462371	 3.2221331827	 0.23008
N	-0.9616094414	-0.3396089256	 4.2510138928	-0.357253
H	 0.3144971512	 2.1019459302	 0.5566656838	 0.127509
H	-0.9456499083	 1.7889052728	-0.6412810436	 0.123922
H	-1.2470356013	 1.4364666171	 1.0757652626	 0.11104
H	-1.6541863925	-0.4890904952	-1.0436388632	 0.107884
H	-0.397325081	-1.7287218658	-0.8975223081	 0.117418
H	-2.3156369565	-0.8046772715	 1.3032474856	 0.124396
H	-1.8950053694	-2.4663269235	 0.866462484	 0.11334
H	 1.1131686806	-2.694479353	 2.6678218697	 0.240416
H	-0.3852721743	-3.3231580258	 2.6516238734	 0.241372
H	 1.5362173353	-1.1878886909	 0.8286550113	 0.116993
H	 1.2023216537	 0.2618846569	 1.8042826992	 0.121578
