21
gdb 95475	2.56857	1.66064	1.23471	1.4084	84.59	-0.2324	0.0237	0.2561	1090.7626	0.184145	-387.081412	-387.073367	-387.072423	-387.11355	32.296	
C	-0.1445164157	 1.5715599211	-0.1446017429	-0.412689
C	 0.010937185	 0.0546710469	-0.0326224353	 0.09184
O	 0.7205534036	-0.5082637569	-1.1484157565	-0.275935
C	 2.074588224	-0.1101666468	-1.3152781866	-0.101036
C	 2.854303824	 0.0109261771	-0.0288141793	-0.272931
C	 2.2217694919	-0.2139013635	 1.112191939	 0.353529
C	 2.3702167887	 0.0817503957	 2.5883891407	-0.319237
C	 0.8178137768	 0.314489958	 2.6009971646	-0.255871
C	 0.7323953805	-0.4371115306	 1.2301861798	-0.05118
H	 0.8042895579	 2.0956685656	 0.0039578157	 0.120748
H	-0.5295606437	 1.8274232444	-1.1358992369	 0.121966
H	-0.8550024749	 1.9396433114	 0.6020023357	 0.115808
H	-0.9819017101	-0.4003221696	-0.1133629845	 0.078111
H	 2.5144723858	-0.8653765782	-1.9789901625	 0.115978
H	 2.1331738114	 0.8505432283	-1.8577068543	 0.094832
H	 3.8822971	 0.3588081278	-0.0901459018	 0.085918
H	 2.6490998857	-0.8013583506	 3.1741820666	 0.111307
H	 3.0168819383	 0.9125157199	 2.8835041306	 0.107469
H	 0.2561420923	-0.1112945696	 3.4352629712	 0.098724
H	 0.5748080395	 1.3751692283	 2.5109203161	 0.109158
H	 0.4862686691	-1.4926310787	 1.3939243709	 0.083491
