16
gdb 10263	2.26317	1.79066	1.26813	3.0948	67.08	-0.2535	-0.0334	0.2201	1008.3858	0.126389	-383.71275	-383.703435	-383.702491	-383.747488	32.693	
C	 0.0683891717	 1.5392914656	 0.1654604477	-0.415484
C	 0.0198253573	 0.0212079215	 0.0133499591	 0.132497
O	-1.2963969721	-0.4891579626	 0.1206355015	-0.436921
C	 0.6833161957	-0.4642341099	-1.3205821532	-0.258035
C	 0.7826197222	-1.9968867517	-1.2733094976	 0.165637
O	 1.6903988444	-2.5654061967	-0.7302758933	-0.248386
C	-0.0799798156	-0.0207209494	-2.4786886219	 0.288029
C	-0.7627673444	 0.3069739819	-3.4135690321	-0.44561
H	 1.1008903931	 1.9020002998	 0.1906414792	 0.121228
H	-0.4451212207	 2.0305148036	-0.6678450362	 0.125975
H	-0.4256408927	 1.8270931711	 1.0971012547	 0.132015
H	 0.5808581911	-0.4508336098	 0.8263018698	 0.114952
H	-1.8109556598	-0.1136994878	-0.6050886449	 0.28601
H	 1.709102484	-0.0800078191	-1.3526003948	 0.128652
H	-0.0559470803	-2.5407288431	-1.7533896583	 0.10156
H	-1.334965494	 0.6053943765	-4.2575921097	 0.207882
