18
gdb 64932	4.42078	0.69	0.64893	2.6157	84.58	-0.2407	0.0201	0.2608	1749.1403	0.146128	-401.864628	-401.855329	-401.854385	-401.90041	33.286	
C	-0.4252769753	 1.2790306335	-0.5096429459	-0.461412
C	 0.0380976407	-0.0906453895	-0.0429345757	 0.088492
C	 1.1813697994	-0.7438679152	-0.7536209046	-0.258458
N	 1.3717970854	-0.2138545455	 0.6009771234	-0.326041
C	-0.9926549275	-0.9188016786	 0.5354319513	 0.118464
C	-1.8876997645	-1.586908737	 0.9884654696	 0.117706
C	-2.9155773205	-2.4055289925	 1.5698418562	-0.122684
C	-4.349706391	-2.1411324819	 1.3391321731	-0.160831
O	-3.7026616143	-3.2239342407	 0.684981283	-0.2158
H	 0.4003510077	 1.8276980683	-0.9746973367	 0.112885
H	-1.2315998345	 1.1877828374	-1.2436234254	 0.136794
H	-0.802957802	 1.8677108136	 0.3323805385	 0.133695
H	 1.2149257189	-1.8260243418	-0.8290113864	 0.131539
H	 1.6090804509	-0.209380241	-1.5985232957	 0.114995
H	 1.837709029	 0.6902181985	 0.5572018015	 0.231719
H	-2.6405592152	-2.9075527863	 2.4969487816	 0.118877
H	-5.0698541433	-2.413421814	 2.1099928455	 0.11854
H	-4.6339964938	-1.3071357574	 0.7001435167	 0.121519
