18
gdb 106149	2.46033	1.58234	1.23293	0.9774	72.14	-0.2113	0.0692	0.2805	1077.2492	0.146788	-438.992282	-438.983904	-438.98296	-439.02513	32.187	
C	 0.1526455279	 1.3677310321	 0.2257987331	-0.327591
N	-0.0262465357	-0.0494776251	-0.073894059	-0.41309
C	-1.3439837833	-0.502404975	-0.1303417189	 0.275284
C	-2.35463966	-0.8158766135	 0.9360451212	-0.030717
O	-3.42831254	-0.0780038762	 0.3655699726	-0.284541
C	-2.7247920819	-0.1648830768	-0.9041796432	-0.007055
C	-2.8322813696	-1.6601920695	-1.2944988901	-0.295203
C	-1.9291690184	-1.9051889459	-0.0857503212	 0.270996
O	-1.2454080892	-3.0483437015	 0.2608143309	-0.454872
H	 1.2211881562	 1.5904927347	 0.2942398298	 0.119848
H	-0.2962890413	 2.0436540688	-0.5196785798	 0.104834
H	-0.3041838387	 1.5883735669	 1.1953206823	 0.134886
H	 0.5163131521	-0.3377421196	-0.87951998	 0.227338
H	-2.2724809469	-0.9211214634	 2.0103867853	 0.106779
H	-2.9629137143	 0.641576746	-1.5943846581	 0.084877
H	-3.8426630048	-2.082118142	-1.3042100995	 0.095286
H	-2.3094780707	-1.878776049	-2.2296055201	 0.102789
H	-1.8313338815	-3.610799701	 0.7795324947	 0.290153
