13
gdb 131757	2.04347	1.75262	0.99386	2.691	66.15	-0.2865	-0.0531	0.2334	1101.0067	0.089765	-452.743378	-452.735528	-452.734584	-452.776771	27.652	
O	 0.1142320065	 1.2524568567	-0.658927989	-0.398965
C	-0.0213247543	 0.060501011	 0.0917943746	-0.184215
C	-1.427612882	-0.4673421577	 0.0491572536	 0.289179
N	-2.11689997	-0.6329020812	 1.1474447896	-0.183181
O	-3.3718061939	-1.1048599757	 0.7518643677	-0.155211
C	-3.4026832729	-1.2014226097	-0.5745504667	 0.011905
C	-2.207855998	-0.8133692418	-1.1070812924	-0.019194
C	-1.8327744169	-0.7721112524	-2.4704557812	 0.217747
N	-1.5282470745	-0.7496481358	-3.5867142758	-0.334232
H	-0.4008188077	 1.9404694395	-0.2237462657	 0.295638
H	 0.6561912386	-0.6632348626	-0.3719295279	 0.143419
H	 0.2749217352	 0.1792470976	 1.1416873186	 0.131547
H	-4.3210606	-1.5556373879	-1.0163153456	 0.185563
