23
gdb 95145	2.56462	1.66048	1.401	0.1703	88.6	-0.2308	0.0201	0.2509	1069.9431	0.209828	-351.185138	-351.177482	-351.176538	-351.216599	32.436	
C	-0.0079452023	 1.5806957373	-0.0138432621	-0.408286
C	 0.003721121	 0.0495892144	 0.0109427415	 0.047383
C	 0.6051696928	-0.5220411886	-1.2960427629	-0.186365
C	 0.9487388586	-2.0278563833	-1.2403713267	-0.217971
C	 1.5975104698	-2.4187502953	 0.1134632568	-0.039125
C	 0.5976651345	-2.0615808534	 1.2344967619	-0.222473
C	 0.7474831201	-0.5256302776	 1.2543489825	-0.042619
C	 2.2594251365	-0.398797473	 1.0973396674	-0.073273
C	 2.7379113411	-1.4661086564	 0.4546828026	-0.071235
H	 1.0104791601	 1.9830411525	-0.0592857082	 0.113542
H	-0.5499979983	 1.9582452628	-0.8878643466	 0.108807
H	-0.4899318574	 1.9902772611	 0.8806881406	 0.106305
H	-1.0376925843	-0.2933950111	 0.0907649077	 0.064906
H	-0.0795278087	-0.3269848737	-2.1295245672	 0.085551
H	 1.5212832215	 0.0354316761	-1.5199075671	 0.098823
H	 0.0414714031	-2.6310809963	-1.3713560112	 0.09177
H	 1.6117611161	-2.278420887	-2.0767657476	 0.089176
H	 1.8890996647	-3.4731955265	 0.105348413	 0.05629
H	-0.4243842568	-2.3951807654	 1.0255411582	 0.081736
H	 0.9171453884	-2.4924150442	 2.1886584941	 0.088631
H	 0.3593956204	-0.0595785091	 2.1660852881	 0.053341
H	 2.8289707508	 0.4721670538	 1.4004184546	 0.088296
H	 3.7635080882	-1.6161316871	 0.1363506206	 0.086791
