23
gdb 106515	3.08435	1.28496	1.13825	1.4891	84.64	-0.2339	0.0806	0.3145	1201.7479	0.207662	-388.286298	-388.277874	-388.276929	-388.318967	33.955	
C	-0.024217359	 1.4769296464	 0.2924242259	-0.386168
C	-0.1553353202	 0.0030902706	-0.1108290396	-0.270036
C	 0.7327947906	-0.4166699171	-1.275449749	 0.347488
C	 2.2843268173	-0.4283414792	-1.0866739391	-0.260052
C	 2.2879495498	-1.5975355447	-2.1031856701	 0.125312
C	 0.8583434004	-1.9405226965	-1.6060743851	-0.306256
O	 2.2993491	-1.0906704914	-3.4313689817	-0.274969
C	 1.0988237753	-0.4080908309	-3.7818481119	-0.074435
C	 0.4527314012	 0.3386319257	-2.5943964751	-0.269969
H	 1.0114533437	 1.7266402526	 0.547424172	 0.11915
H	-0.3388416279	 2.1481277724	-0.5128308715	 0.118293
H	-0.6439522994	 1.6983351704	 1.1666978263	 0.112297
H	 0.0899665182	-0.6284416144	 0.7533861176	 0.088115
H	-1.2027530392	-0.216520312	-0.3608584429	 0.091117
H	 2.8514347609	 0.4634607053	-1.3659522835	 0.092558
H	 2.5694634775	-0.7560093767	-0.0818215355	 0.089199
H	 3.0741111186	-2.3532439322	-2.0527443911	 0.072257
H	 0.901115607	-2.539377259	-0.6920072615	 0.095364
H	 0.1530512908	-2.4016171626	-2.3021096845	 0.09596
H	 1.359038765	 0.2781026458	-4.5931011849	 0.104613
H	 0.3768330408	-1.1299219544	-4.1900281197	 0.093994
H	-0.6266055701	 0.418782016	-2.7754633112	 0.092486
H	 0.8430996789	 1.3595270358	-2.5188386538	 0.103682
