19
gdb 122617	3.63569	0.83256	0.71137	2.4664	74.07	-0.2284	0.0268	0.2552	1562.6854	0.159436	-456.316979	-456.307588	-456.306644	-456.352281	33.452	
O	-0.1552845689	 1.3248021266	 0.2905259401	-0.425331
C	 0.0338366007	-0.0268013557	-0.122443932	-0.092477
C	-1.3392850611	-0.6676115726	-0.2102531694	-0.12124
N	-2.1389760693	 0.0267376797	-1.2195783414	-0.310809
C	-3.5040103242	-0.4450005454	-1.2974171074	-0.10474
C	-4.3303586385	 0.1127285713	-2.4756040427	-0.107316
O	-4.4534748407	-1.2314558766	-3.0391348621	-0.251906
C	-3.6829094205	-1.7681829578	-2.0311483446	 0.466318
N	-3.2882832859	-2.9426553103	-1.8395506363	-0.54817
H	 0.6761464692	 1.7948502271	 0.1841744092	 0.290938
H	 0.5200498052	-0.073458137	-1.1072033903	 0.100161
H	 0.6541171591	-0.5800994407	 0.5983580424	 0.090924
H	-1.242451462	-1.7190728794	-0.4965912068	 0.139977
H	-1.8075768032	-0.6413224306	 0.7908993132	 0.086602
H	-2.1312170764	 1.016314665	-0.988243512	 0.230006
H	-4.0469755714	-0.4320963196	-0.336478429	 0.086459
H	-5.312079435	 0.5292474464	-2.2400258582	 0.118628
H	-3.7717793129	 0.7678637452	-3.1476297637	 0.124533
H	-3.6014953441	-3.5676340857	-2.5848830789	 0.227443
