20
gdb 11964	2.72653	1.95855	1.71302	1.7049	74.4	-0.2535	0.0821	0.3356	911.535	0.175478	-348.982988	-348.974546	-348.973602	-349.015328	32.46	
C	-0.4007278474	 1.5164820228	 0.0905837241	-0.455925
C	-0.0020113265	 0.0456681913	 0.0245285391	 0.240106
C	-1.189990856	-0.835861431	-0.3729614182	-0.426607
C	 1.2917857637	-0.2864286118	-0.7976942383	-0.263777
C	 1.8223375511	-1.158490006	 0.3794337881	-0.324076
C	 0.7349345663	-0.5344838149	 1.2525522421	 0.442548
C	 0.8456652962	 0.0115913505	 2.6062028611	-0.268258
O	 0.0965772628	-1.1837385017	 2.3380909564	-0.275778
H	 0.4427477277	 2.1474347405	 0.3895014418	 0.108895
H	-0.7529191799	 1.8679237978	-0.8861227438	 0.114114
H	-1.2135890201	 1.6758386382	 0.8085859392	 0.117238
H	-1.5940674627	-0.5225156364	-1.3419066581	 0.108583
H	-0.9021583856	-1.8890349202	-0.4517461589	 0.115504
H	-1.9886769167	-0.7691989389	 0.372260391	 0.124317
H	 1.1342961396	-0.7976130199	-1.7499768967	 0.099477
H	 1.9089086404	 0.5985590792	-0.9726277978	 0.09953
H	 1.6554553727	-2.2284368799	 0.2271148915	 0.116687
H	 2.859176158	-1.0079187955	 0.68867151	 0.104084
H	 1.7654695076	-0.1323935004	 3.1729414495	 0.110769
H	 0.2520843186	 0.8760348562	 2.9011669478	 0.112566
