14
gdb 34219	4.06105	1.39473	1.37654	2.9152	65.12	-0.2717	0.0172	0.2889	930.1424	0.103391	-436.684622	-436.678442	-436.677498	-436.715274	24.661	
N	 0.0979789209	-1.1075143643	-0.0833815341	-0.346699
C	 0.0197056441	 0.0457503958	-0.0135644449	 0.169078
C	-0.0603795594	 1.4618489923	 0.0583846333	 0.113583
C	-1.0651672324	 2.2462190061	 0.8975055218	-0.295495
C	-0.5224086017	 3.6198116945	 0.4509367677	 0.136877
O	 0.8664991538	 3.5386064632	 0.7619420192	-0.239832
C	 1.1752953879	 2.3940638181	 0.0085152636	 0.007094
C	 0.2166690005	 2.3983924627	-1.1435078663	 0.007107
O	-0.5761880778	 3.5450620693	-0.9716998059	-0.239828
H	-2.0988883063	 2.0871233757	 0.587929264	 0.137614
H	-0.9490994307	 2.0819732878	 1.96955138	 0.137615
H	-0.9625795894	 4.540371012	 0.8206591314	 0.120801
H	 2.2050630078	 2.0714243336	 0.0177487406	 0.146043
H	 0.3935563927	 2.0795974232	-2.1592251105	 0.146043
