17
gdb 18581	3.7319	2.07779	1.66173	1.5418	67.13	-0.2429	0.0186	0.2616	821.0848	0.144264	-363.870432	-363.863697	-363.862753	-363.901392	26.058	
C	 0.1152151478	 1.5843828933	-0.0273695456	-0.39934
C	 0.0437770308	 0.0668949189	 0.0364188156	 0.029503
C	 0.9182794567	-0.7633063618	-0.9618535212	-0.269871
C	 1.4175763845	-1.6408692908	 0.2094666888	 0.088546
O	 2.8324076458	-1.5257715993	 0.4838911988	-0.227641
C	 2.9221059545	-0.5094340111	 1.3801311499	 0.111668
N	 1.8731670983	 0.0361522507	 1.8411732185	-0.262862
C	 0.7409558683	-0.6719912238	 1.2235056364	-0.027211
H	 1.1452327004	 1.9339283516	 0.0864053229	 0.125835
H	-0.2695616667	 1.9483802597	-0.9863800143	 0.11014
H	-0.4779786656	 2.0432373543	 0.7702286821	 0.120199
H	-1.0007642367	-0.2576160062	-0.0208966014	 0.074265
H	 0.3815459574	-1.2849725633	-1.7574549334	 0.105386
H	 1.7340226932	-0.1898125215	-1.4103768761	 0.111914
H	 1.1581461082	-2.6991069055	 0.1925176173	 0.090575
H	 3.9381466391	-0.241376831	 1.6491777256	 0.140116
H	 0.080301654	-1.0635196541	 2.0016639462	 0.078778
