17
gdb 636	5.80625	2.85249	2.11206	1.0303	60.85	-0.2299	0.0898	0.3196	650.5166	0.153893	-251.731545	-251.724533	-251.723589	-251.761786	25.853	
C	-0.0404367788	 1.4243917277	-0.1493630554	-0.382081
C	 0.0687878857	-0.0798082122	 0.1047083526	 0.084629
C	 0.7645011949	-0.3843620918	 1.4322349652	-0.382081
N	-1.2772744286	-0.6600079904	 0.1262457676	-0.05579
C	-1.8590428156	-1.004710041	-1.1650422609	-0.22246
C	-1.3859047844	-2.0678914293	-0.2353674085	-0.22246
H	 0.9515177695	 1.8858582598	-0.1763637285	 0.109289
H	-0.5358382598	 1.6270487017	-1.10401284	 0.112171
H	-0.6247998967	 1.9021180078	 0.6433400082	 0.123067
H	 0.6657684058	-0.5292792915	-0.7131437141	 0.05057
H	 0.8395463814	-1.4635272081	 1.5984266283	 0.112171
H	 1.7762409705	 0.0326461455	 1.4441148039	 0.109289
H	 0.2003752017	 0.0478795989	 2.264707094	 0.123067
H	-2.9194950525	-0.7994607703	-1.2813390952	 0.113949
H	-1.2607175577	-0.8299213984	-2.0586866455	 0.10636
H	-0.4746966299	-2.5961744424	-0.5142243544	 0.106361
H	-2.0931535755	-2.656323946	 0.3423499425	 0.113949
