18
gdb 69397	4.1407	1.12301	1.00772	3.7968	81.59	-0.2124	-0.0088	0.2036	1209.8476	0.148024	-401.973833	-401.965741	-401.964797	-402.006354	31.163	
C	-0.0231993133	 1.5397752321	 0.0450404197	-0.480149
C	 0.0294086558	 0.03038396	-0.0024672732	 0.298738
C	-0.8401981988	-0.8082617433	 0.9244251049	-0.33961
C	 0.6595924955	-0.8429718941	 1.0819978368	-0.059988
N	 1.382550448	-1.8837689264	 0.3891381997	-0.046127
C	 2.1819867213	-2.8278344712	 0.9723140124	 0.145302
O	 2.7815806989	-3.692003472	 0.3704745613	-0.32761
C	 1.1733090904	-1.7458315568	-0.9930907678	-0.007347
C	 0.4310026191	-0.6653409174	-1.2655104154	-0.245724
H	 0.9198749627	 1.9814814521	-0.2934599857	 0.126193
H	-0.8235419228	 1.921427	-0.5990426998	 0.125406
H	-0.2201122804	 1.8974438581	 1.0603176634	 0.118172
H	-1.3797158683	-0.2787025964	 1.7028945825	 0.116945
H	-1.3458360052	-1.678779604	 0.5219490857	 0.122104
H	 1.1309663883	-0.4469769395	 1.9738288478	 0.11201
H	 2.2170023439	-2.7096476275	 2.0722576778	 0.076097
H	 1.6006171026	-2.4917067191	-1.6451926297	 0.157256
H	 0.1556284425	-0.3281144946	-2.2547182003	 0.108333
