19
gdb 73137	2.3947	1.81152	1.59953	0.8651	73.36	-0.2483	0.0728	0.3212	953.5636	0.160217	-423.007957	-423.00043	-422.999486	-423.039456	30.668	
O	-0.1011375451	 1.3382325457	 0.5014121966	-0.48078
C	 0.0200486411	 0.0294184741	-0.013064307	 0.374543
C	 0.2731888559	-0.1483815903	-1.5376043438	-0.286443
C	-0.8985143395	-1.1716658187	-1.5843146343	-0.228265
C	-1.3289500091	-0.7361815964	-0.1502036187	-0.036015
C	-1.4141068605	-1.7876022587	 0.9761984576	-0.272637
C	 0.0064601667	-1.9035855399	 1.4986504184	 0.060333
O	 0.9736433021	-2.2067588101	 0.4785015309	-0.259136
C	 0.8504899368	-0.848960448	 0.9154817041	-0.04149
H	 0.7617896049	 1.7647718786	 0.4502090408	 0.276925
H	 0.0424937594	 0.7788255512	-2.0685556708	 0.101695
H	 1.2595140626	-0.5060518618	-1.841276926	 0.101489
H	-1.639990485	-1.0170454802	-2.37101795	 0.093358
H	-0.5482745548	-2.2034313794	-1.6167093207	 0.117795
H	-2.1848593868	-0.0596434918	-0.1608129153	 0.082886
H	-2.068432555	-1.450259815	 1.7884249863	 0.107326
H	-1.7989908502	-2.7507247644	 0.6235171425	 0.110691
H	 0.2104050113	-2.3513280004	 2.4686821813	 0.093829
H	 1.7237519953	-0.4331998344	 1.417069098	 0.083897
