20
gdb 11824	3.62567	1.59996	1.31343	1.3013	75.11	-0.248	0.0723	0.3203	1002.9107	0.176327	-348.979019	-348.970558	-348.969614	-349.011543	32.507	
C	-0.1619050701	 1.4861098729	-0.0075875036	-0.381196
C	-0.0100856135	-0.0331442233	-0.0078966058	-0.105911
C	 1.1509129826	-0.5688520228	-0.8977790199	 0.144324
O	 1.5707566356	 0.3296267464	-1.898549296	-0.431726
C	 2.035298792	-0.7462870875	 0.3711119729	-0.352513
C	 0.7528283782	-0.6104614804	 1.2020222913	 0.396733
C	 0.6117202178	-0.2627201305	 2.6524310303	-0.329628
C	 0.2268174117	-1.6404549346	 2.1588716661	-0.326256
H	 0.7876440077	 1.9863785998	 0.2018038189	 0.118543
H	-0.5151411666	 1.8421620449	-0.979369728	 0.122331
H	-0.8833154177	 1.7974569774	 0.7551474875	 0.104131
H	-0.9792287077	-0.5018489498	-0.2089403717	 0.064514
H	 0.888869409	-1.5451954331	-1.3290504928	 0.065621
H	 2.3297330942	-0.0540221328	-2.3487590798	 0.282531
H	 2.6066291803	-1.6744890609	 0.4648550912	 0.090742
H	 2.7106479238	 0.106642139	 0.4957242887	 0.102644
H	 1.515942078	-0.1647316366	 3.245162873	 0.108519
H	-0.1845996968	 0.4146606145	 2.9448331931	 0.110795
H	-0.829367914	-1.8895630592	 2.1167975011	 0.108731
H	 0.8699637954	-2.4754159233	 2.4203561335	 0.10707
