14
gdb 9450	2.91457	1.78889	1.69069	1.1578	64.69	-0.2532	0.0035	0.2567	851.9398	0.106289	-378.667638	-378.65973	-378.658786	-378.699783	28.975	
N	 0.0677846145	 1.495201122	 0.0986659963	-0.551315
C	 0.0301076253	 0.0427192159	 0.0145246242	-0.015464
C	-1.3967914075	-0.5652818253	-0.1495774874	-0.092539
O	-1.0076832443	-1.1743255728	-1.4169755917	-0.254526
C	 0.25131805	-0.620207911	-1.3651461392	 0.39175
N	 1.1921020677	-0.6169961186	-2.1892968415	-0.540504
C	 0.8252086758	-0.5562825627	 1.0751430573	 0.341783
C	 1.4836655917	-1.0583631708	 1.9448907178	-0.469787
H	 1.0323619162	 1.7995206214	 0.190707762	 0.250173
H	-0.2813328591	 1.8971480465	-0.7677165512	 0.238306
H	-1.6932176472	-1.3170246976	 0.5824027837	 0.136071
H	-2.1812042272	 0.1821001514	-0.2915014444	 0.125356
H	 0.9580629748	-1.1347473181	-3.0381858031	 0.233003
H	 2.0714278495	-1.5016359904	 2.7107197572	 0.207694
