22
gdb 79407	2.15182	1.70154	1.53527	1.1778	87.23	-0.2009	0.086	0.2869	1069.0613	0.192345	-367.127624	-367.118439	-367.117495	-367.160716	35.725	
C	-0.7303188474	 1.4064317501	-0.4179208939	-0.339947
N	-0.4864695474	 0.0046713976	-0.0995877781	-0.140142
C	-1.2284469036	-0.6072252442	 1.039387172	-0.061349
C	-0.127143176	-1.6916064709	 1.2148188462	-0.089736
C	-0.0441655012	-1.4849750577	 2.7318098705	-0.315924
C	-0.3023095523	-0.0555782826	 2.2009850926	 0.284964
C	-0.4226222059	 1.1701840743	 3.0726110982	-0.527724
C	 0.5820411846	-0.3344670281	 0.8975807359	 0.326671
C	 2.040239732	-0.0638290007	 0.6710429697	-0.532976
H	 0.0509497326	 1.7589041653	-1.1001809817	 0.116962
H	-1.6857460971	 1.486903848	-0.9481306661	 0.117204
H	-0.7637669704	 2.0937608291	 0.4406408966	 0.096834
H	-2.3119902041	-0.7448415616	 1.044021073	 0.070368
H	-0.0391972199	-2.5979456351	 0.6165474987	 0.074185
H	-0.8439891413	-1.9305418121	 3.3325790366	 0.088264
H	 0.9269575397	-1.6647340653	 3.2052347092	 0.088217
H	 0.502356495	 1.3255627474	 3.6411185212	 0.119132
H	-0.6249619048	 2.0843741527	 2.5107971306	 0.126044
H	-1.2324388364	 1.0406131854	 3.8006332285	 0.120698
H	 2.641835499	-0.4804833456	 1.4856630897	 0.12485
H	 2.3733157298	-0.5168058037	-0.2685362436	 0.131189
H	 2.243245555	 1.0117421577	 0.6212712643	 0.122216
