21
gdb 94547	2.45844	1.48514	1.18572	2.5344	78.3	-0.2465	0.0595	0.306	1143.5738	0.181229	-424.190276	-424.180875	-424.179931	-424.224491	35.355	
C	 0.0571273721	 1.4941953224	-0.2020747092	-0.474457
C	 0.0143214521	-0.0001259207	 0.0540347231	 0.37577
C	 1.0454907758	-0.8822076794	-0.6129689105	-0.320935
C	 1.1048663467	-0.6329037673	 0.8751014498	-0.288654
C	-1.3893504572	-0.5531435271	 0.1546904684	 0.033307
O	-1.4430785518	-1.9827849881	 0.3871419807	-0.291956
C	-2.1837241544	-1.8184049746	 1.6131859364	-0.100024
C	-2.2101109766	-0.2834325576	 1.4461479399	 0.052422
O	-1.5194762666	 0.4805526198	 2.4060510847	-0.416207
H	 1.0890748259	 1.8389862433	-0.3190827302	 0.111879
H	-0.4841873487	 1.7564725609	-1.1199038385	 0.10712
H	-0.3921456661	 2.0444570485	 0.6301017649	 0.131597
H	 0.7332801994	-1.8692027784	-0.9341453303	 0.124696
H	 1.7795691704	-0.4030738974	-1.2524153453	 0.102075
H	 1.8815419689	 0.0157507238	 1.2656932927	 0.102273
H	 0.8381632133	-1.459734869	 1.5224529636	 0.115398
H	-1.9440909085	-0.2972749583	-0.7601982998	 0.071647
H	-3.152517641	-2.3318158931	 1.5774300134	 0.097293
H	-1.6176075458	-2.1553713625	 2.4905528258	 0.102816
H	-3.2083981341	 0.1278928286	 1.2537912154	 0.075154
H	-2.109526514	 0.6410439762	 3.1486902948	 0.288788
