17
gdb 39977	3.73116	1.63264	1.47638	1.9852	70.99	-0.2112	0.0693	0.2805	923.8169	0.136687	-421.753354	-421.746801	-421.745857	-421.7841	27.3	
C	-0.0646481164	 1.4831334936	 0.0209466584	-0.328556
C	 1.2828903147	 0.7760370604	 0.0022456	-0.3462
C	-0.0028634402	-0.0033712789	-0.0414827058	 0.498489
O	-0.4011090965	-0.7334431149	 1.1130429054	-0.300068
C	-0.6638160361	-2.0499777247	 0.6851017115	 0.05481
C	-1.6895089767	-2.2422195864	-0.4234742363	 0.062529
O	-1.895636348	-1.0045897434	-1.100689162	-0.292811
C	-0.4404605854	-0.845050722	-1.2075117378	-0.044703
C	-0.2103233255	-2.2993156488	-0.7240674751	-0.201235
H	-0.3884097225	 1.9140001782	 0.9612090918	 0.13125
H	-0.3836974469	 2.0265074828	-0.8619658951	 0.120934
H	 1.8944724772	 0.8391826449	-0.8921070734	 0.112648
H	 1.8364423924	 0.7376850891	 0.9335429301	 0.125639
H	-0.5571859846	-2.7943110278	 1.4644642128	 0.109207
H	-2.4812460601	-2.9821668748	-0.4487204822	 0.105903
H	-0.1259074227	-0.5247207551	-2.2003211017	 0.088699
H	 0.4649491972	-3.0516034022	-1.1070310504	 0.103465
