16
gdb 29491	3.24726	1.65321	1.09873	1.0461	78.88	-0.1617	0.0409	0.2026	1043.3324	0.12774	-396.966273	-396.958361	-396.957416	-396.998279	30.547	
N	 0.0796747991	 1.4621352429	 0.1239459239	-0.61944
C	 0.0474085627	 0.0483915061	 0.0178475791	 0.06253
C	-1.0543993336	-0.7862190609	-0.0146455804	-0.146383
N	-0.6443860446	-2.116191577	-0.0395457861	-0.422134
C	 0.7288919299	-2.1436219602	-0.0339626237	 0.337006
C	 1.1722651108	-0.8228296374	 0.0071005249	 0.313372
N	 2.5501384641	-0.8492513636	 0.0092507318	-0.417931
C	 2.9573408839	-2.1709586825	-0.0011650239	-0.066701
C	 1.8589114685	-3.0064842585	-0.0383878231	-0.314586
H	 0.5132820606	 1.8868894929	-0.6909434988	 0.233459
H	-0.857975855	 1.8406208367	 0.1944594543	 0.233686
H	-2.1030330287	-0.5327423059	-0.0149856638	 0.099758
H	-1.2605194112	-2.9071024137	-0.030270708	 0.252903
H	 3.1570827972	-0.0623787105	 0.1493474617	 0.256724
H	 4.0073256488	-2.4174748103	 0.0095029133	 0.110628
H	 1.8890088475	-4.0840679879	-0.0722094813	 0.087106
