17
gdb 73177	2.48609	1.48948	1.34837	5.928	72.51	-0.2516	0.0118	0.2634	1039.3394	0.135903	-417.972083	-417.963868	-417.962924	-418.004968	30.756	
C	-0.343141131	 1.3428877631	-0.1527833179	-0.482161
C	 0.016488293	-0.1020644459	 0.0553945279	 0.436457
O	-1.1182245937	-0.9393520826	 0.3194199813	-0.31523
C	-0.4974929376	-1.515691128	 1.5030975536	-0.07001
C	 0.8135725709	-0.771551196	 1.2099098482	-0.11581
N	 1.6447713573	-1.5165340227	 0.2326929142	-0.313756
C	 1.057347973	-0.7709192221	-0.9147745228	-0.204096
C	 0.5344231784	-1.6007420306	-1.9977502913	 0.319939
N	 0.1232147356	-2.2354105239	-2.8712867695	-0.325224
H	 0.5504395501	 1.9624965166	-0.2749331128	 0.12179
H	-0.9603688225	 1.4457176316	-1.0522229451	 0.148519
H	-0.9195300353	 1.7186170213	 0.6970043441	 0.134785
H	-1.0244645327	-1.2001433745	 2.4116765657	 0.105201
H	-0.4354839251	-2.6061724938	 1.4536519204	 0.124766
H	 1.3353660246	-0.2499846482	 2.0126579839	 0.087718
H	 2.6420640494	-1.373327225	 0.3313702478	 0.233432
H	 1.7300937555	-0.0189678593	-1.3467826975	 0.113681
