13
gdb 27971	3.73061	1.22088	0.91985	2.8299	70.7	-0.2586	-0.0887	0.1699	1152.9151	0.090529	-452.811017	-452.80391	-452.802966	-452.842863	26.248	
O	 0.4982236243	 1.3294625566	 0.3332028831	-0.409632
C	 0.2309350382	 0.0303258093	 0.1232241167	 0.400045
N	 0.3164409234	-0.4538892966	-1.1025252627	-0.393472
C	 0.0373523784	-1.7606379283	-1.2503501982	 0.194976
C	 0.1341456547	-2.3053052292	-2.6328624514	 0.107278
O	-0.0862655672	-3.4562570816	-2.9211340551	-0.248247
C	-0.3222936176	-2.5608098806	-0.1709789754	-0.049277
N	-0.4068888147	-2.0620333444	 1.0700485971	-0.229416
C	-0.1329774033	-0.7753884415	 1.2210833954	-0.056433
H	 0.7257640946	 1.7132413444	-0.5256731107	 0.30734
H	 0.4316674637	-1.5453607256	-3.3853993398	 0.091677
H	-0.5425961608	-3.6121223649	-0.3161187095	 0.146545
H	-0.193921924	-0.3455642076	 2.2164400006	 0.138616
