16
gdb 61143	3.72208	0.86997	0.76494	3.9712	76.44	-0.2817	-0.0754	0.2063	1435.4721	0.121175	-400.747072	-400.737294	-400.736349	-400.782609	34.049	
C	-0.2596857305	 1.4040042431	 0.1719276367	-0.412252
C	 0.0167804944	-0.0992287895	-0.0199554521	-0.105413
C	 0.8010467739	-0.3997465566	-1.3142099563	-0.349175
C	 0.0582483836	-0.0074501975	-2.5084458666	 0.257104
N	-0.5455456445	 0.3077020594	-3.4421286237	-0.310751
C	 0.7830216536	-0.6643289776	 1.1744956066	 0.225212
O	 1.9031469415	-1.1184621112	 1.0838137809	-0.296351
C	 0.0789297918	-0.6252242985	 2.4444321852	 0.260986
C	-0.5192870823	-0.6029876416	 3.4887445014	-0.37681
H	 0.6773789986	 1.9673578666	 0.2316499642	 0.133643
H	-0.8382255609	 1.788691934	-0.6715770886	 0.155829
H	-0.8260932083	 1.5818156422	 1.0887858734	 0.140342
H	-0.9488759945	-0.6200866624	-0.0552366556	 0.124746
H	 1.7619140563	 0.1246180355	-1.297651419	 0.165795
H	 1.0378220078	-1.4662200041	-1.3729472884	 0.165825
H	-1.0334596806	-0.5899117617	 4.4196089321	 0.22127
