17
gdb 29697	2.38576	1.62913	0.98007	1.9418	72.53	-0.17	0.0431	0.2131	1170.0463	0.134483	-455.184203	-455.174214	-455.17327	-455.219294	34.683	
C	 0.0191121679	 1.4647855657	 0.0078039492	-0.343459
N	 0.0295196832	 0.0164626471	 0.0048652454	-0.086438
C	 0.0068036965	-0.8323811754	-1.0738015206	 0.3202
C	-0.0730587156	-0.3683804146	-2.4876501363	-0.500309
N	 0.0673975531	-2.093877211	-0.6838273903	-0.385864
C	 0.1417535912	-2.0655558537	 0.6777655263	 0.205514
O	 0.2099933352	-3.1886649394	 1.4477426621	-0.462347
C	 0.1226968854	-0.7788061054	 1.1320818603	 0.251114
O	 0.1690989186	-0.1988032364	 2.3629278934	-0.456457
H	 1.0286747002	 1.8785328564	-0.0974452339	 0.139259
H	-0.5989557443	 1.8322148556	-0.8138580737	 0.140507
H	-0.4014017511	 1.8144651003	 0.9520306918	 0.159235
H	 0.7823787058	 0.2563374311	-2.7733713049	 0.127214
H	-0.0836615895	-1.2480227096	-3.1328839416	 0.152433
H	-0.9821074089	 0.2126639378	-2.6885422842	 0.127033
H	 0.1752415167	-3.9338698978	 0.8373073302	 0.298486
H	 0.0781360056	-0.9013379806	 3.015403287	 0.313881
