21
gdb 93915	2.58693	1.25235	0.9787	2.407	79.9	-0.2495	0.0048	0.2544	1260.9856	0.183524	-424.229207	-424.220056	-424.219111	-424.26315	35.142	
O	-0.0741901715	 1.5122198159	 0.1308317847	-0.437335
C	 0.025392294	 0.0907011921	 0.0828944347	 0.131368
C	-1.3937996609	-0.4264551065	-0.1387699282	-0.199028
C	-1.5752048865	-1.914191523	 0.1691194706	-0.219637
C	-1.0061532839	-2.9038641252	-0.8552541569	 0.098942
O	-1.7295113548	-2.8387905057	-2.0952833706	-0.437897
C	 0.4800901629	-2.8445421302	-1.1311686352	-0.102465
C	 1.294467073	-1.789143618	-1.2157121667	-0.060521
C	 1.0257534346	-0.3189716408	-1.0058742072	-0.274809
H	 0.8082913763	 1.8702450784	 0.2713376818	 0.278398
H	 0.3855117449	-0.2948115284	 1.0518435959	 0.065083
H	-2.0489514303	 0.1579625105	 0.5151325808	 0.11006
H	-1.7128584759	-0.205735399	-1.1655671976	 0.092266
H	-1.1437506038	-2.1441385942	 1.1522915743	 0.092291
H	-2.6468197246	-2.1303072081	 0.237701234	 0.105221
H	-1.228176324	-3.9075816215	-0.4736517734	 0.083692
H	-1.3087359567	-2.165071469	-2.6384457286	 0.279902
H	 0.9117496466	-3.8101388773	-1.387405149	 0.093158
H	 2.3172931569	-2.0023901341	-1.522962386	 0.092652
H	 0.6911263343	 0.1347394492	-1.9511263773	 0.118103
H	 1.9844565394	 0.1674986448	-0.7793250601	 0.090559
