17
gdb 36326	4.20366	0.82967	0.76312	4.1491	80.17	-0.2428	0.016	0.2588	1468.813	0.134961	-380.816339	-380.807444	-380.806499	-380.850723	32.143	
C	-0.1608836867	-1.268862014	-0.0718458443	-0.468603
C	-0.087735998	-0.0694654366	-0.0417638292	 0.350738
C	-0.0044386754	 1.3762380637	-0.0094336965	-0.203495
C	-0.1454289833	 2.0253205944	 1.4046662389	-0.177102
N	 1.322214241	 2.1528454034	 1.4621196708	-0.062386
C	 1.8708660579	 3.3454638257	 2.0682541295	-0.291895
C	 3.3381611104	 3.3380918324	 2.0360333947	 0.278577
N	 4.4921612929	 3.3457817263	 1.9924262118	-0.300406
C	 1.4412255671	 1.968888614	 0.0025815763	-0.175093
H	-0.2218893033	-2.3286810575	-0.0980050148	 0.202575
H	-0.6591687495	 1.8114425785	-0.7670683111	 0.113941
H	-0.6704246736	 2.992702769	 1.349767465	 0.092068
H	-0.5853884691	 1.4143490917	 2.1969353862	 0.125946
H	 1.5263214649	 4.2804128552	 1.582413226	 0.124572
H	 1.548321429	 3.3931985768	 3.1152556238	 0.158701
H	 2.256536254	 1.3145382613	-0.3125962597	 0.135756
H	 1.4916730317	 2.9165907455	-0.5565508776	 0.096105
