19
gdb 59203	2.93009	1.07271	1.03823	3.1684	71.79	-0.2395	0.06	0.2995	1260.8844	0.15717	-460.081113	-460.07208	-460.071136	-460.114862	34.244	
C	 0.096897984	 1.504348371	-0.1085221487	-0.40701
C	 0.0342401426	-0.0077469292	 0.1094403412	 0.095555
O	 0.6607847928	-0.3844561795	 1.3369960859	-0.434999
C	-1.3915391479	-0.5363781798	 0.0669293811	 0.007621
C	-2.0887867629	-0.7830397286	-1.2998172537	-0.025306
O	-1.1902387132	-1.9302463744	-1.5438432159	-0.312674
C	-1.6067008141	-2.0623222842	-0.1260246083	 0.005199
C	-3.0515562976	-1.8025641767	-0.6051061061	 0.11812
O	-3.9811050865	-1.3975809218	 0.3580968992	-0.426863
H	 1.130850304	 1.8525474681	-0.0376312547	 0.125423
H	-0.2956397745	 1.781034207	-1.0926265078	 0.116545
H	-0.4958100257	 2.03472496	 0.6480292834	 0.103143
H	 0.6151761818	-0.5149123144	-0.6652855482	 0.106393
H	 0.1950555884	 0.0636043736	 2.0522188446	 0.274224
H	-2.0281908658	-0.0754725357	 0.8292797114	 0.081074
H	-2.2669780266	-0.0997176913	-2.1318009376	 0.088978
H	-1.1997644508	-2.8965768735	 0.4441066047	 0.102662
H	-3.4279004432	-2.5693854293	-1.2900000043	 0.08914
H	-4.8147660949	-1.2102726815	-0.0839728263	 0.292776
