22
gdb 7280	3.76736	1.05019	0.87358	2.8603	79.35	-0.2469	-0.018	0.2289	1360.941	0.197046	-350.226754	-350.216433	-350.215489	-350.262676	36.636	
C	-0.0675149252	 1.550486269	 0.081440254	-0.399934
C	-0.0365645989	 0.015202244	-0.0014419046	 0.045776
C	-1.4780315614	-0.5190821706	 0.0037046724	-0.399827
C	 0.7787611353	-0.4850031484	-1.2231512063	 0.033961
C	 2.1910226711	 0.1223558826	-1.2808686825	-0.409713
C	 0.8833654414	-2.0272389105	-1.2591511296	-0.283232
C	 1.453988731	-2.5345559083	-2.5628145092	 0.160591
O	 2.3881435968	-3.2862626797	-2.6731872846	-0.244539
H	 0.9257405444	 1.9816167818	 0.2253185006	 0.118053
H	-0.4943397389	 1.9844297167	-0.8312509041	 0.111876
H	-0.6904978155	 1.8743282286	 0.9212152123	 0.112267
H	 0.4672622189	-0.3589044158	 0.9024255771	 0.07351
H	-2.0078627066	-0.2251265857	-0.9107167838	 0.11262
H	-1.5285817066	-1.6079346631	 0.0852937862	 0.115935
H	-2.0344830838	-0.1074363169	 0.8515990057	 0.114447
H	 0.234497243	-0.1686921884	-2.1271183128	 0.07233
H	 2.1669914454	 1.2029081095	-1.4363237168	 0.120468
H	 2.7376081238	-0.074251694	-0.3507787368	 0.119384
H	 2.7760124601	-0.3124018305	-2.0975654751	 0.125854
H	 1.4974333594	-2.4060373859	-0.4353603248	 0.115913
H	-0.1151513419	-2.4740330005	-1.1711593373	 0.116765
H	 0.9197741681	-2.1530820038	-3.46694005	 0.067493
