17
gdb 78097	3.22268	1.33958	1.14698	2.7087	68.94	-0.241	-0.0226	0.2184	1094.4858	0.132967	-458.921283	-458.912508	-458.911564	-458.954742	32.331	
C	 0.1719614688	 1.5645961635	 0.0937138918	-0.492676
C	 0.116925968	 0.0736473294	 0.0477653695	 0.440696
O	-1.115893526	-0.5185995409	-0.3830333976	-0.325823
C	-0.9562976664	-1.5951743186	 0.5700429107	 0.040184
C	-0.9867241296	-2.9635800662	-0.087705766	 0.125153
O	-0.5523330384	-3.958555269	 0.4352883286	-0.262728
C	 0.3888137052	-1.0553880621	 1.053095028	-0.271033
C	 1.2584851338	-0.8684531311	-0.1698687443	 0.041477
O	 1.23373898	-1.7611798936	-1.241014314	-0.41587
H	 1.1407984226	 1.9033811491	 0.4708419096	 0.127247
H	 0.0345052708	 1.9764761707	-0.9122457009	 0.142366
H	-0.6163064304	 1.9660256402	 0.737521867	 0.132504
H	-1.7403697071	-1.5472835847	 1.3377443689	 0.114276
H	-1.4701177582	-2.9703530166	-1.0879730665	 0.0994
H	 0.7480450319	-1.0596084717	 2.0730587301	 0.10602
H	 2.232559574	-0.4310580048	 0.0541397684	 0.099596
H	 1.6384251809	-2.5872099537	-0.9509729734	 0.299209
