15
gdb 4121	2.85195	1.86506	1.24602	2.1197	60.61	-0.2516	-0.0148	0.2368	942.6517	0.116653	-436.866149	-436.85771	-436.856766	-436.899112	30.436	
O	-0.1574209663	 1.3399042234	-0.0073864342	-0.404761
N	 0.0241430705	-0.0658035176	-0.0038890519	-0.24703
C	-1.0902036209	-0.653844809	 0.0976697653	 0.347864
C	-2.551191857	-0.2378158684	 0.0294962156	 0.05272
O	-2.8834904561	 0.7755527115	-0.8839920051	-0.43548
C	-2.8516950494	-1.6908952391	-0.4497220674	-0.255523
C	-1.4260071175	-2.1340173081	-0.0111964443	 0.039161
O	-0.740073634	-2.9092510045	-0.9596968687	-0.423211
H	 0.7339846015	 1.66636197	-0.1699125363	 0.312679
H	-2.9671764804	-0.0396069946	 1.0296763054	 0.087248
H	-2.2264143048	 1.4735617299	-0.7723156344	 0.29885
H	-3.6983910921	-2.2057900774	 0.0037333396	 0.109467
H	-2.9268698867	-1.7125261033	-1.5381437824	 0.137234
H	-1.432048643	-2.6163817794	 0.9787185853	 0.086173
H	 0.2024488163	-2.8380176533	-0.7735715165	 0.29461
