15
gdb 43444	3.01249	1.46993	1.06421	1.9063	69.14	-0.2631	-0.0227	0.2404	1077.5651	0.113596	-453.976858	-453.969317	-453.968372	-454.00949	28.393	
N	-0.0907760065	 1.2936281401	 0.0209384378	-0.522688
C	-0.0251063967	 0.0291323741	 0.000493486	 0.399402
C	-1.2372614123	-0.8899368541	 0.037164246	-0.398463
C	-0.6516454502	-2.2911347989	 0.0738407098	 0.303058
C	-1.2321961213	-3.4767483359	 0.7195348688	-0.231451
O	-1.2370279505	-3.3326919555	-0.6986169072	-0.253039
C	 0.8574177016	-2.1550708902	-0.0262925708	 0.383191
O	 1.6817712366	-3.0321093084	-0.0631516014	-0.351185
N	 1.106300467	-0.7911934223	-0.0553076822	-0.386068
H	 0.8331858407	 1.7281088036	-0.0108759074	 0.2147
H	-1.8637076772	-0.6500795285	 0.8989475522	 0.148975
H	-1.840997651	-0.7466079571	-0.8632091077	 0.162341
H	-0.5646979938	-4.2450776246	 1.1043350523	 0.142524
H	-2.2018618276	-3.384325259	 1.2066944092	 0.124132
H	 2.0499677312	-0.4340660032	-0.1018325954	 0.264572
