22
gdb 62037	3.87658	0.68918	0.61054	1.3271	89.69	-0.2337	0.0571	0.2909	1848.8686	0.192086	-367.148559	-367.138253	-367.137309	-367.184585	37.785	
C	 0.0869986959	 1.6281858997	 0.2193873259	-0.386609
C	 0.0229572029	 0.1026415552	-0.0044873213	-0.161081
C	 0.6647565543	-0.339683976	-1.3414809542	-0.173778
C	-0.0595107132	 0.18598809	-2.5822174769	-0.156299
N	 0.5749459565	-0.3241052632	-3.7924409908	-0.059859
C	 0.0803058813	-1.6018989777	-4.2943616126	-0.219329
C	-0.2408884792	-0.3304071197	-5.0000277243	-0.221339
C	 0.6504874438	-0.6033684167	 1.1123599254	 0.317212
C	 1.1866387769	-1.1751923224	 2.0241154607	-0.460705
H	 1.1250622617	 1.9743463252	 0.2044828051	 0.127337
H	-0.4668081597	 2.1627306553	-0.5570442359	 0.117676
H	-0.3441096225	 1.8932565073	 1.1880551753	 0.126198
H	-1.037218702	-0.1898014591	-0.0290598382	 0.102388
H	 1.7112460995	-0.0170222975	-1.3689491172	 0.116546
H	 0.6753941173	-1.4345070898	-1.3773322134	 0.109312
H	-1.1315653263	-0.0880064201	-2.5318988801	 0.074203
H	-0.0116746045	 1.279842637	-2.6246848229	 0.106737
H	 0.8302154091	-2.2812497085	-4.6890871063	 0.117706
H	-0.7314444084	-2.08469348	-3.751160828	 0.107839
H	-1.2657620504	 0.0312276798	-4.9269573971	 0.107263
H	 0.2710729052	-0.0619335201	-5.9197873947	 0.116756
H	 1.6504170718	-1.6844042886	 2.8321037613	 0.191827
