17
gdb 46941	2.8808	1.8039	1.37469	3.1993	71.38	-0.2303	-0.0115	0.2189	943.3349	0.137985	-421.817607	-421.810898	-421.809954	-421.848673	27.237	
O	 0.0449110278	-0.0404855388	 0.0539288534	-0.331305
C	-0.0280991222	 1.1691109251	 0.014663451	 0.404293
C	-1.3686424113	 1.8903160728	-0.0614646785	-0.307766
C	-1.3407895006	 3.2081827604	-0.8600395853	-0.237788
C	-0.1135301752	 4.0224281223	-0.4815173275	 0.098181
O	 0.1083395229	 4.0124094376	 0.9713005759	-0.299495
C	 1.3469041709	 3.3475715253	 0.771185998	 0.087551
C	 1.2456945411	 3.3466970658	-0.7137891498	-0.176546
C	 1.2022733279	 2.0150943584	 0.0352237198	-0.162566
H	-2.1087190169	 1.1861041082	-0.4481015625	 0.118785
H	-1.643969334	 2.1252605447	 0.9738945257	 0.144789
H	-1.3071036595	 3.0147304162	-1.9397287137	 0.113664
H	-2.2552803913	 3.779023859	-0.6664606738	 0.112986
H	-0.1539202989	 5.0542759056	-0.8413715123	 0.094145
H	 2.1551088218	 3.5443011861	 1.465275689	 0.120906
H	 1.9601751042	 3.5673770355	-1.4944380124	 0.11087
H	 2.1239184932	 1.4426809859	-0.001627107	 0.109295
