18
gdb 66501	3.43854	1.95852	1.7489	0.7006	80.17	-0.193	-0.0865	0.1065	853.1455	0.14808	-364.645205	-364.638367	-364.637423	-364.675755	28.759	
C	-0.0365526837	 1.4668689841	 0.0043984745	-0.510561
C	 0.0490296089	-0.0257984706	-0.0015592267	 0.385089
C	 0.5035333751	-1.0184284612	-1.0302118744	-0.158213
C	 1.2676050781	-0.8848864956	 0.276332897	-0.136559
C	 0.74087828	-2.0108397506	 1.1742314627	-0.001393
C	 0.1297811765	-2.9801043205	 0.4025053346	-0.127602
C	-0.5290525572	-2.0273171011	-0.5549876816	-0.017551
N	-1.0623605915	-0.8877796192	 0.5259900517	-0.21315
C	-0.4927431206	-1.3831038561	 1.8638655317	-0.197148
H	 0.8692128226	 1.9087635817	-0.424124402	 0.118937
H	-0.8988394547	 1.8142749693	-0.5735757256	 0.12902
H	-0.1438385887	 1.8493819045	 1.0260077995	 0.12313
H	 0.8916560581	-0.8779100172	-2.0301067444	 0.092518
H	 2.274212611	-0.4928252127	 0.333136078	 0.088287
H	-0.4713355914	-3.7570537609	 0.8710619276	 0.106832
H	-1.3330059835	-2.3650398642	-1.2050331237	 0.089969
H	-1.1613181216	-2.0884066678	 2.3556651873	 0.115462
H	-0.3048036375	-0.5160423019	 2.502498024	 0.112933
