18
gdb 58797	3.619	1.10354	0.97586	4.4205	72.71	-0.2455	0.0083	0.2538	1231.2432	0.146688	-439.077932	-439.069184	-439.06824	-439.111364	33.212	
C	 0.0265807401	 1.5057045854	 0.0343506997	-0.421318
C	-0.0001323284	-0.0215728093	-0.03526712	 0.027182
O	 0.762915617	-0.6151861857	 1.0080039751	-0.421592
C	-1.4100328954	-0.5663669629	-0.0337303636	 0.386426
C	-2.1884103173	-1.0226850312	 1.1607374395	-0.334452
C	-1.8781568106	-2.0096586916	 0.025375614	-0.287615
C	-2.796283722	-1.6610124853	-1.1324279863	 0.433421
O	-3.6336520985	-2.2161362593	-1.7827238969	-0.340746
N	-2.2952207103	-0.3369997526	-1.1882276948	-0.410668
H	 1.0592713375	 1.8645370987	 0.0220521623	 0.131075
H	-0.502207663	 1.9463325506	-0.8162390175	 0.13034
H	-0.4566884755	 1.8616876122	 0.9529820023	 0.111204
H	 0.4780664246	-0.3435616158	-0.9680545157	 0.104728
H	 0.5783856066	-0.1315431821	 1.8203815028	 0.284049
H	-1.6206031373	-1.2156547436	 2.0659352182	 0.121961
H	-3.2068549333	-0.6808868344	 1.3213619511	 0.120351
H	-1.3091956915	-2.9137112297	 0.1861148396	 0.127625
H	-2.910630023	 0.4664260166	-1.26588747	 0.238029
