20
gdb 7583	3.11059	1.57776	1.49124	2.9089	70.28	-0.2359	0.067	0.3028	986.2325	0.175083	-386.125478	-386.116344	-386.115399	-386.158894	33.892	
C	 0.6495810745	-0.0440794735	-1.4969397522	-0.422988
C	 0.0412488674	 0.1097252477	-0.1003175094	 0.100614
O	 0.0156999168	 1.4719227747	 0.3053660256	-0.434406
C	-1.3431013019	-0.5493665853	 0.0467018131	 0.4402
C	-2.4384124789	 0.1497057914	-0.7490603152	-0.461577
C	-1.3362158081	-2.0995788822	-0.0344878812	-0.334815
C	-1.8113486226	-2.0419156099	 1.4283109757	-0.069709
O	-1.7168013649	-0.605585048	 1.4553515028	-0.319788
H	 1.6569449648	 0.380311411	-1.5073006497	 0.129229
H	 0.7147720516	-1.0927781734	-1.8022194038	 0.120799
H	 0.0539986154	 0.4850340167	-2.2504089008	 0.11102
H	 0.6920864262	-0.3818225997	 0.6323488593	 0.087262
H	-0.3793035564	 1.9863446744	-0.4062643854	 0.278158
H	-2.2318987679	 0.136662023	-1.8246093859	 0.113429
H	-3.399378586	-0.3442385638	-0.5823816383	 0.122042
H	-2.5378649513	 1.187858482	-0.4179953672	 0.126218
H	-2.0303288384	-2.5376964008	-0.7536847566	 0.106317
H	-0.3482478439	-2.5433133778	-0.1753579992	 0.106652
H	-2.8377247848	-2.389370277	 1.6036272683	 0.098797
H	-1.1524875218	-2.5120101795	 2.1680719402	 0.102546
