20
gdb 111550	2.70697	1.46983	1.14624	2.1706	77.95	-0.2162	0.0695	0.2857	1139.3361	0.170946	-403.066043	-403.057684	-403.05674	-403.098839	32.847	
C	-0.0276401788	 1.5765726659	-0.2150532424	-0.374506
C	 0.0473166153	 0.0880116086	 0.144519649	-0.230775
C	-1.3057347802	-0.6024498772	 0.0621257186	 0.011891
N	-2.0591793526	-0.6416232485	-1.2732219817	-0.188273
C	-1.1231652626	-1.4161802394	-2.1907558719	-0.184877
C	-1.3512890252	-2.6394023522	-1.3305659554	-0.158455
C	-2.6257324868	-2.0088206723	-0.8271942041	-0.07871
C	-1.4843748172	-2.1122963659	 0.1255769996	 0.341704
O	-1.4098028159	-2.9508682519	 1.218063306	-0.464394
H	 0.9536234678	 2.0538945435	-0.1353995605	 0.109031
H	-0.3939616092	 1.7152922144	-1.2364512231	 0.133746
H	-0.7145305492	 2.1064520948	 0.4534467609	 0.118096
H	 0.7843638187	-0.4174167318	-0.4889446826	 0.095102
H	 0.4102058773	-0.0266898073	 1.1747340998	 0.099254
H	-1.9957052579	-0.1287511232	 0.7711312109	 0.08243
H	-1.593876488	-1.4937253705	-3.1750434191	 0.109155
H	-0.1188528282	-0.9967887679	-2.3068182446	 0.096848
H	-1.1559954305	-3.6895491672	-1.5134226442	 0.08916
H	-3.6684614506	-2.2897539964	-0.8057214105	 0.104427
H	-0.502448746	-3.2633473053	 1.3037407555	 0.289148
