15
gdb 79946	2.16389	1.85992	1.5024	3.9588	67.57	-0.2486	-0.0623	0.1862	937.0308	0.111739	-457.762262	-457.754435	-457.753491	-457.794247	30.172	
O	-0.0263061422	 1.4249035437	-0.038916024	-0.403897
C	-0.0134680706	 0.0386001642	 0.0221748719	 0.025625
C	-0.4583394555	-0.759423163	 1.270140523	-0.246667
C	-1.2371016679	 0.0156473554	 2.280880212	-0.045177
C	-2.3927875186	 0.4977494084	 1.7960487511	-0.193682
C	-2.5641984123	 0.0317519626	 0.4041125146	 0.34343
O	-3.5238663495	 0.111948596	-0.3303142158	-0.354191
C	-1.3029789991	-0.7291642732	 0.0174392668	 0.289335
O	-1.493296762	-1.7949741914	-0.8440301558	-0.472122
H	 0.7874637824	 1.7575782737	 0.3559002965	 0.29325
H	 0.7774290837	-0.4521730894	-0.5469789085	 0.110088
H	 0.1371938262	-1.6159867204	 1.5627358273	 0.112166
H	-0.854600026	 0.2040342223	 3.2780855111	 0.121287
H	-3.1145893289	 1.1184129937	 2.3085649637	 0.123464
H	-2.3141097796	-1.5906427927	-1.3176451538	 0.297092
