15
gdb 38515	2.72328	2.64354	2.45035	4.0723	65.68	-0.2206	-0.0642	0.1565	699.6207	0.115328	-416.704754	-416.699584	-416.69864	-416.733866	23.075	
C	-0.0747286524	 1.5463121778	 0.0716484941	-0.197736
C	 1.4055964438	 1.9764236753	-0.0657662152	 0.045941
O	 1.9625115241	 1.6308555381	-1.4560176349	-0.256344
C	 1.6475572986	 0.3162544786	-1.266084342	 0.263914
N	 0.4506978068	-0.1074127158	-1.458027561	-0.25496
C	 0.020033107	-0.0191585967	-0.0232344883	-0.049451
C	 1.2833707575	-0.3020841519	 0.8394679749	-0.057453
C	 2.1247552705	 0.946335511	 0.8292595135	-0.062431
N	 2.3936830802	-0.1641758454	-0.1018975867	-0.10432
H	-0.4077779322	 1.8451644118	 1.0752109411	 0.113864
H	-0.7263925723	 1.9802015476	-0.6882838346	 0.135974
H	 1.6257796751	 3.0305547857	 0.0740000918	 0.115437
H	-0.8835124811	-0.5760203388	 0.2224072501	 0.089205
H	 1.3298056653	-1.0722090867	 1.6003046401	 0.108596
H	 2.8759532191	 1.2150552195	 1.5629968171	 0.109763
