18
gdb 85442	2.59321	1.45585	1.08672	4.1356	72.16	-0.2437	0.0306	0.2743	1131.2576	0.147595	-439.115186	-439.10682	-439.105875	-439.148417	31.791	
C	-0.101204114	 1.5791095513	-0.0502442821	-0.391149
C	-0.006731802	 0.0514793387	 0.0431882624	-0.043066
N	 0.7456793373	-0.5287692571	-1.0607906685	-0.317855
C	 1.9987207274	-0.9986721337	-0.7632452113	 0.415743
O	 2.8006970624	-1.4373537572	-1.5557107177	-0.37682
C	 2.1773350239	-0.8410785752	 0.7512811259	-0.430378
C	 0.7965127194	-0.4602608494	 1.2513290521	 0.413476
C	 0.4656037199	-0.1259531873	 2.6369720265	-0.247563
O	 0.1294836822	-1.4059495112	 2.092252827	-0.267261
H	 0.8928078954	 2.0365927	-0.0219950836	 0.125287
H	-0.5828180263	 1.8771633437	-0.9871691421	 0.120527
H	-0.695320331	 1.9848783164	 0.7740244973	 0.123725
H	-1.012788174	-0.380336372	 0.0950987341	 0.106017
H	 0.4525268881	-0.4558701836	-2.0227230271	 0.25054
H	 2.533930427	-1.767283811	 1.2051323013	 0.149869
H	 2.9248744589	-0.0622117881	 0.9360062169	 0.135893
H	 1.251036677	-0.1277183004	 3.392093643	 0.118165
H	-0.3805609315	 0.5242954061	 2.8571655959	 0.11485
