21
gdb 92377	2.04346	1.62799	1.21986	0.7201	89.18	-0.2409	0.0422	0.2831	1154.4943	0.181805	-349.903824	-349.894864	-349.893919	-349.937308	35.053	
C	 0.1814332767	 1.6015926322	-0.0606689879	-0.419912
C	 0.0673565667	 0.091379928	 0.0696494295	-0.003291
C	 0.8610460179	-0.8335298195	-0.8998328651	-0.263115
C	 1.3004372505	-1.7330022316	 0.2890026503	-0.063798
C	 2.7253837213	-1.4590977918	 0.8100689389	-0.215475
C	 2.1949371337	-0.2491812488	 1.6317404229	-0.291229
C	 0.7136921949	-0.6469897828	 1.2902552414	 0.18124
C	-0.138933975	-0.9561612531	 2.4068279469	 0.187021
C	-0.8615236718	-1.2154972343	 3.3349022625	-0.419875
H	 1.2243575159	 1.9344025992	-0.0801724441	 0.114222
H	-0.2864253334	 1.9430931228	-0.9907329932	 0.116465
H	-0.3194924241	 2.1092986139	 0.770781679	 0.123316
H	-0.98974388	-0.1917301844	 0.0498192089	 0.081919
H	 0.2593920582	-1.3234343276	-1.6682959883	 0.102421
H	 1.7030513992	-0.3376678977	-1.3948626401	 0.094904
H	 0.9372891621	-2.7606171955	 0.28037123	 0.073016
H	 3.0985037937	-2.2602294761	 1.4534069388	 0.105238
H	 3.4825668283	-1.2476752958	 0.0492513114	 0.095157
H	 2.4181630964	-0.2864407422	 2.6986477426	 0.115882
H	 2.4897175937	 0.733350602	 1.256603055	 0.102375
H	-1.4972061048	-1.4447239468	 4.1536258607	 0.18352
