17
gdb 51048	2.38155	1.42264	1.15034	2.7508	68.5	-0.2555	-0.0341	0.2213	1105.6837	0.133032	-458.953923	-458.94487	-458.943926	-458.988586	31.366	
O	-0.9900195433	 1.5731711055	-0.3622983868	-0.241694
C	 0.0569697338	 1.0425631965	-0.0887927469	 0.171908
C	 1.4145638908	 1.6352179035	-0.4007790886	-0.400315
C	 1.3259505351	 2.8688280916	-1.2823651021	 0.186213
C	 0.5477682396	 4.104749431	-0.7566725027	-0.113765
O	 1.6693388851	 4.9788193834	-0.9989710921	-0.268364
C	 2.5245969572	 3.8657670038	-1.293887961	-0.131045
C	 0.927895677	 2.5142938316	-2.6992410345	 0.146168
O	 0.8453418627	 1.3915564652	-3.1254556425	-0.26844
H	 0.0839001472	 0.0664264814	 0.4430096536	 0.093327
H	 1.8996427189	 1.8639289964	 0.5588858961	 0.128422
H	 2.0224650687	 0.8550509419	-0.8745641695	 0.14539
H	-0.3414617222	 4.4014461765	-1.3214759787	 0.123943
H	 0.2907092284	 4.0425769023	 0.3070885679	 0.111193
H	 3.256218104	 3.6721834339	-0.4973844844	 0.106493
H	 3.0579708862	 3.9903175337	-2.2441097795	 0.115107
H	 0.737083111	 3.3972647818	-3.3500352482	 0.095459
