23
gdb 114063	2.72449	1.13015	0.95216	1.0306	86.29	-0.2374	0.0804	0.3178	1369.9508	0.20405	-388.271526	-388.261471	-388.260527	-388.305986	38.288	
C	 0.0323249395	 1.5609520676	-0.0599369567	-0.378419
C	 0.0067095897	 0.043067474	 0.1497061512	-0.195018
C	-1.3891780671	-0.5559703508	-0.0012226341	-0.006202
C	-2.0527983347	-0.6088177605	-1.4257972846	-0.320656
C	-2.2280578131	-2.1199714273	-1.2474882864	 0.363585
O	-3.3655776095	-2.8240389911	-1.6099439085	-0.467982
C	-0.8974901465	-2.7860522753	-1.0351654933	-0.402356
C	-1.5767531734	-2.081508353	 0.1282438258	 0.277699
C	-1.9396730087	-2.7941433346	 1.3991539237	-0.499585
H	 1.0434870586	 1.963268966	 0.0571170383	 0.10979
H	-0.3182536317	 1.8296341893	-1.0624310015	 0.117459
H	-0.6149030002	 2.0709422782	 0.6624936529	 0.112562
H	 0.6955791855	-0.4341264278	-0.5584613863	 0.092535
H	 0.3895046926	-0.1938457237	 1.1513284796	 0.093993
H	-2.0692286478	-0.0499755584	 0.6948814861	 0.067374
H	-3.0070964852	-0.0792059113	-1.4641892552	 0.105363
H	-1.4334329632	-0.2882643002	-2.2720853066	 0.084727
H	-3.2384894633	-3.1697890478	-2.5002249994	 0.282968
H	-0.9500521232	-3.8694027756	-0.9764775977	 0.107331
H	 0.0124330104	-2.4056039126	-1.494628117	 0.099032
H	-1.0815986774	-2.8740597442	 2.0774808393	 0.116207
H	-2.7373428838	-2.2652010126	 1.9336564529	 0.115565
H	-2.2952735874	-3.8084533884	 1.1920580476	 0.12403
