17
gdb 53912	1.99704	1.52065	0.94657	1.4694	73.36	-0.2619	0.0062	0.2681	1225.9266	0.135612	-418.041773	-418.032517	-418.031573	-418.07675	33.319	
N	 0.2076751669	 0.9236201742	-0.2947866754	-0.527835
C	-0.3707013301	 0.1157098954	 0.6287691716	 0.423717
O	 0.038317576	-0.028654833	 1.7609058991	-0.355408
C	-1.5928437595	-0.7109941702	 0.1423972245	-0.294746
C	-2.2493497393	-0.1314870567	-1.0304005421	 0.283659
N	-2.7160441596	 0.349533528	-1.9730178759	-0.332786
C	-1.1783063092	-2.1586222621	-0.1203237064	 0.029541
C	-0.9181829535	-3.065953707	 1.050684909	-0.263469
C	-2.1363057402	-3.2811251614	 0.1885893716	-0.276528
H	 0.9864834992	 1.4904512189	-0.0004792891	 0.269546
H	-0.2266467289	 1.1164398446	-1.1820916635	 0.283434
H	-2.2974662218	-0.6924169923	 0.9800887884	 0.149641
H	-0.5435657275	-2.2768456255	-0.9927975021	 0.104841
H	-0.0957289077	-3.7671580295	 0.9702777168	 0.121945
H	-1.04940471	-2.6476377918	 2.0413529576	 0.139795
H	-3.1057812756	-3.0212118097	 0.600797658	 0.120952
H	-2.1556390493	-4.1296495419	-0.485468422	 0.1237
