16
gdb 35194	3.84971	1.14251	1.06272	2.257	75.69	-0.2393	0.0127	0.252	1151.3025	0.122783	-400.634887	-400.627108	-400.626164	-400.667279	30.036	
C	-0.0806088857	-1.199665078	 0.0095783847	-0.424893
C	-0.0287001329	 0.0014442831	 0.0032217119	 0.344315
C	 0.0266352188	 1.4356361354	-0.0383366337	-0.287762
O	 0.603340376	 2.1143518258	 1.1053320541	-0.277011
C	 1.3155617468	 2.1539092144	-0.1066403456	 0.467804
C	 2.7653214051	 1.6839283764	-0.2235528129	-0.265879
N	 3.1655410357	 3.0003917404	-0.8531873003	-0.122978
C	 2.3698133698	 3.1096118665	-2.0854472925	-0.238872
C	 1.7060311405	 3.4335989208	-0.8024947549	-0.14019
H	-0.1274142836	-2.2607433687	 0.0239630551	 0.205939
H	-0.8562504241	 1.9314365524	-0.4403147162	 0.120525
H	 3.2370168675	 1.5737801702	 0.7548001831	 0.136091
H	 2.9754692092	 0.8059213471	-0.8417077815	 0.119019
H	 2.6728255588	 3.9394225119	-2.7165784825	 0.129737
H	 2.0936455472	 2.2043158014	-2.6230023163	 0.118997
H	 1.402069681	 4.4320113808	-0.5077311324	 0.115159
