23
gdb 80019	2.69037	1.58418	1.26012	0.2109	90.19	-0.2206	0.014	0.2345	1129.4381	0.205403	-351.126184	-351.117237	-351.116293	-351.158816	36.341	
C	-0.2621731988	 1.5095274576	 1.1294543046	-0.434765
C	-0.0838315749	 0.0589422672	 0.709283002	 0.057298
C	 0.9592753842	-0.3620745453	-0.3945384897	-0.12031
C	 2.2507976691	 0.1549975905	 0.2478271501	-0.090453
C	 2.1358721493	-0.2286883376	 1.5234765799	-0.090447
C	 0.7835776209	-0.9486092052	 1.5555998454	-0.12034
C	 0.8869745007	-1.8289740817	 0.2289473036	 0.355731
C	-0.3566624949	-2.6557286868	-0.131761763	-0.461087
C	 2.0932420112	-2.7574306001	 0.0583206482	-0.456823
H	 0.6877563548	 1.9952640862	 1.3615658391	 0.117466
H	-0.7518587367	 2.0804451112	 0.3321189597	 0.109067
H	-0.9043153388	 1.5741401967	 2.0154305532	 0.109061
H	-1.0712102619	-0.3517573733	 0.4967786027	 0.066781
H	 0.7896959036	-0.1779861864	-1.4571235603	 0.0482
H	 3.0510414879	 0.6859448836	-0.2480872558	 0.094455
H	 2.816759523	-0.09621404	 2.3523723481	 0.094454
H	 0.4331430955	-1.3682856727	 2.5004794857	 0.048203
H	-1.3046774162	-2.1233910814	-0.0562747842	 0.115574
H	-0.2708226199	-3.0281811527	-1.1592451488	 0.113921
H	-0.4214211344	-3.5344742983	 0.5204787399	 0.113913
H	 1.9909285349	-3.6335466412	 0.7093660036	 0.10689
H	 2.1420890645	-3.1280836917	-0.9722817582	 0.106886
H	 3.0412890471	-2.2730156285	 0.2891427344	 0.116327
