19
gdb 11043	4.12771	1.72202	1.43495	2.8572	71.71	-0.2339	0.0752	0.3092	940.5235	0.165913	-365.051879	-365.044039	-365.043095	-365.083541	30.187	
C	 0.1907276316	 1.5770217983	-0.0384744421	-0.400923
C	 0.0496780609	 0.0650385905	 0.0426071765	 0.154559
O	 0.6761136899	-0.5081980878	-1.1102099016	-0.272365
C	 1.2178051044	-1.7811465049	-0.7906788979	-0.109237
C	 1.473296398	-1.7749090377	 0.708492806	 0.316576
C	 1.6622849702	-3.0729026553	 1.4457621161	-0.497215
N	 2.2129783256	-0.5546785944	 1.1071606405	-0.362996
C	 0.7368546968	-0.5990790261	 1.222699786	-0.129917
H	 1.2465346499	 1.8510134636	 0.0221133849	 0.139809
H	-0.2166412137	 1.9448811653	-0.984094058	 0.122693
H	-0.353291179	 2.0586107311	 0.7807347275	 0.104673
H	-1.018686858	-0.2136757988	 0.0681596418	 0.061192
H	 0.5124138949	-2.5929514924	-1.0372017059	 0.082301
H	 2.126805571	-1.9165944865	-1.3869643911	 0.108206
H	 2.5957653391	-3.5647056764	 1.148368956	 0.129272
H	 1.7012917611	-2.909470888	 2.5277372577	 0.116967
H	 0.841272026	-3.7683670036	 1.2399671629	 0.126755
H	 2.6168206073	-0.7063605117	 2.0296709824	 0.224261
H	 0.2677541542	-0.587522575	 2.2014532483	 0.08539
