19
gdb 72892	2.98409	1.42651	1.17636	1.5429	75.25	-0.2532	0.0629	0.316	1094.3022	0.158247	-422.975641	-422.967414	-422.96647	-423.00861	32.19	
O	 0.1643349571	 1.4253114154	-0.3774373357	-0.481061
C	 0.0402354017	 0.0751641764	-0.0367623511	 0.415468
C	 0.4566041325	-0.9974873771	-1.0756912066	-0.290802
C	-0.9133608417	-1.7154037985	-0.8685099707	-0.227319
C	-1.3911705977	-0.5661158864	 0.0661027568	-0.173741
C	-1.1191374965	-0.8429794453	 1.5412711977	 0.474049
C	-2.0417647952	-0.8273081591	 2.676165693	-0.270326
O	-1.4747012801	-2.053079491	 2.1896435228	-0.271992
C	 0.3186698153	-0.3078965868	 1.4534727323	-0.394828
H	 1.1000513784	 1.6567517583	-0.3610604056	 0.277741
H	 0.5446984764	-0.5555737107	-2.0715183827	 0.105668
H	 1.3622729577	-1.5716539752	-0.8593700925	 0.092796
H	-1.5019498039	-1.8207361644	-1.7811662426	 0.1057
H	-0.8657602748	-2.6874888837	-0.3733965689	 0.120178
H	-2.30318468	-0.0349087168	-0.2060401311	 0.075311
H	-1.690086846	-0.5071319811	 3.6567841054	 0.113178
H	-3.1111703373	-0.7078539384	 2.5047762476	 0.11512
H	 1.0981604412	-1.0568175192	 1.6199593835	 0.10675
H	 0.5086159329	 0.5650016337	 2.0837160684	 0.108112
