21
gdb 90543	4.14069	0.94156	0.87902	3.2146	83.55	-0.2413	-0.0189	0.2224	1386.7093	0.182075	-387.076405	-387.06753	-387.066586	-387.111152	33.246	
C	 0.4986150639	 1.6264368266	-0.2470121913	-0.411633
C	 0.071656054	 0.1821470248	-0.0292920066	 0.048107
C	 0.7803372864	-0.9467353127	-0.8455061981	-0.262189
C	 0.9776848297	-1.7694464353	 0.4580818821	-0.032655
C	 2.3912393344	-1.6010757065	 1.1000579494	-0.071984
C	 1.8568239513	-0.3433494706	 1.8700870876	-0.267519
C	 0.4319486356	-0.5575020575	 1.2920336269	-0.033036
C	 2.7673211641	-2.7338020909	 2.0129036093	 0.153957
O	 3.788729508	-3.3696054229	 1.9510381918	-0.258998
H	 1.5822348531	 1.7513363829	-0.1496590063	 0.115435
H	 0.222179152	 1.9638800879	-1.2520535432	 0.11784
H	 0.0182273176	 2.298518831	 0.4729304285	 0.115861
H	-1.0113169659	 0.1074582405	-0.1764612308	 0.075473
H	 0.158406282	-1.4247545612	-1.6057933842	 0.103383
H	 1.7186706667	-0.6420236887	-1.3198169993	 0.099443
H	 0.5335982475	-2.7660449633	 0.4817234052	 0.07122
H	 3.2083821549	-1.4338110597	 0.394476477	 0.086747
H	 1.9036320838	-0.4548856434	 2.957355407	 0.108916
H	 2.3535619392	 0.5941657662	 1.6120254904	 0.11092
H	-0.3649853184	-0.647486175	 2.0320304902	 0.064672
H	 1.9984061602	-2.9646570223	 2.7907134643	 0.066041
