17
gdb 101527	2.86535	0.97138	0.8095	1.343	72.88	-0.276	-0.0462	0.2298	1418.6313	0.132534	-458.953605	-458.943633	-458.942688	-458.989221	35.176	
C	-0.0984695817	 1.5451218109	-0.0013491014	-0.400184
C	-0.0398731305	 0.0247948328	-0.0609813363	 0.107088
C	 0.7823667378	-0.516555903	-1.2283069283	-0.07529
O	 2.1181686539	-0.0543927912	-1.2136875641	-0.416481
O	 0.6378868589	-0.4884449974	 1.1265436615	-0.265907
C	-0.1061295252	-0.6545530853	 2.2334229069	 0.307424
O	-1.2850319293	-0.4178844472	 2.3226398823	-0.354846
C	 0.7020936154	-1.1665060765	 3.3198815274	 0.219403
C	 1.3281274693	-1.5894398958	 4.2539967714	-0.358397
H	 0.9107307382	 1.9625823065	 0.0034137398	 0.137379
H	-0.6248523145	 1.9266188149	-0.8818743119	 0.123794
H	-0.6391773509	 1.8735350204	 0.8884228856	 0.14024
H	-1.0475512076	-0.3997792959	-0.0812374928	 0.11265
H	 0.7350226594	-1.6159527607	-1.2194554043	 0.098294
H	 0.3386320516	-0.1695698474	-2.1671637736	 0.116186
H	 2.5025797921	-0.3437497917	-0.3784751145	 0.293668
H	 1.879684443	-1.9631774435	 5.0822292122	 0.214978
