13
gdb 1056	7.33028	1.94003	1.57714	1.3285	55.81	-0.22	0.014	0.234	740.7571	0.102792	-344.473681	-344.467394	-344.46645	-344.504224	22.717	
O	 0.305305462	 1.0720780636	-0.6254882658	-0.405722
C	-0.0000151931	-0.0062304997	 0.2397170498	-0.161615
C	-1.3994895097	-0.4973183595	 0.0448392683	 0.312424
C	-2.2663137601	-0.4240481143	-1.0018626749	-0.264387
C	-3.4685764226	-1.0798752544	-0.5751963289	-0.168062
C	-3.2377326603	-1.4997473104	 0.6943354484	-0.022952
O	-1.9827116114	-1.1477669838	 1.0905818662	-0.175581
H	-0.3553043645	 1.7567970251	-0.4738231735	 0.284531
H	 0.7301665989	-0.7890778585	-0.0000324926	 0.131351
H	 0.1458508421	 0.2482131128	 1.3014246763	 0.108416
H	-2.0657179688	 0.0301613622	-1.9588890638	 0.117155
H	-4.3771932052	-1.2155186327	-1.1405626857	 0.111232
H	-3.8253994074	-2.0308953804	 1.4245142563	 0.133211
