18
gdb 36375	4.97748	0.74745	0.70098	5.2878	77.94	-0.2761	0.0298	0.3059	1596.0375	0.146871	-401.926469	-401.917568	-401.916624	-401.961419	32.055	
N	 0.1846920768	-1.0317908076	-1.0786073819	-0.298077
C	 0.0956654397	-0.0036213125	-0.5596532021	 0.263426
C	-0.0050637136	 1.2926977179	 0.1114994302	-0.371544
C	 1.3444183209	 1.985564753	 0.2245691613	 0.048039
O	 1.7831389915	 2.7395438611	-0.901303075	-0.252361
C	 1.4905007424	 3.4477506244	 0.3133019324	 0.057425
C	 0.3685613434	 4.4279757156	 0.3023751689	-0.011262
C	 0.1553948991	 5.3066585452	 1.5155116633	-0.269945
C	 0.6868752922	 5.9043148592	 0.2422597401	-0.269206
H	-0.7098769863	 1.9198454175	-0.4402199778	 0.161349
H	-0.420733028	 1.1324449454	 1.1138055461	 0.158901
H	 2.1177232592	 1.3653206871	 0.6802419741	 0.110913
H	 2.3827073743	 3.8088919431	 0.8314945531	 0.095063
H	-0.5199949957	 4.1111921971	-0.2324300752	 0.090663
H	-0.8648661014	 5.5259412775	 1.8083482187	 0.121799
H	 0.8406106459	 5.1932340952	 2.3492100183	 0.118823
H	 1.7326435631	 6.1913453207	 0.2125197879	 0.122867
H	 0.0341544065	 6.5381119301	-0.3465740324	 0.123127
