20
gdb 78075	1.98331	1.59265	1.52287	2.2315	80.5	-0.2384	-0.0362	0.2021	1065.4285	0.169795	-403.104807	-403.095705	-403.094761	-403.138354	33.961	
C	-0.2042333863	 1.4198701805	 1.1023438316	-0.433353
C	 0.0821282792	-0.0284525405	 0.7210911957	-0.019552
C	 0.3818255246	-0.4218668167	-0.7292834722	-0.069495
C	 1.6771236043	 0.0694019647	-1.2900582341	-0.073669
C	 2.2160136239	 1.4606815599	-1.2284880149	 0.142142
O	 2.7213233914	 2.065430958	-0.3146520092	-0.260861
N	 1.6896785601	-1.0941487801	-0.3793224626	-0.172659
C	 1.4344018737	-0.7382472658	 1.0742160017	 0.061414
C	 2.5422242565	-0.0930215944	 1.8830033085	-0.430961
H	 0.6173367269	 2.092198904	 0.8559838353	 0.150833
H	-1.105427681	 1.7774304032	 0.591525504	 0.114155
H	-0.3865903973	 1.4971910506	 2.1794851105	 0.117571
H	-0.7471890209	-0.6472234552	 1.0780065402	 0.086408
H	-0.3380744307	-0.8899609601	-1.3957111789	 0.101923
H	 1.8206443429	-0.2998484892	-2.3073364652	 0.111262
H	 2.1114303674	 1.9488943365	-2.2255954222	 0.085647
H	 1.2016604576	-1.7052384712	 1.531148499	 0.092365
H	 2.817181745	 0.8912254088	 1.5089646881	 0.166222
H	 2.2267822905	-0.0058748474	 2.9289946999	 0.109745
H	 3.4304408722	-0.7340825657	 1.8583045751	 0.120863
