25
gdb 101428	2.57606	1.02979	0.82486	1.3856	88.8	-0.262	0.0758	0.3377	1507.0672	0.227981	-389.48276	-389.472142	-389.471198	-389.51818	39.831	
C	-0.1274504116	 1.4815671824	-0.9719799269	-0.397658
C	-0.0634194252	 0.0971981854	-0.3107235615	 0.005976
C	 0.6088341612	 0.1829945482	 1.0609365868	-0.077723
O	 1.9498093577	 0.619306444	 0.8799256082	-0.424819
C	-1.4518565431	-0.530021853	-0.1924554894	 0.053436
C	-2.3055826237	-0.7525522673	-1.4717149597	-0.244478
C	-2.8550769191	-2.0545952205	-0.8324320972	-0.227298
C	-1.6496833523	-2.0495849117	 0.1543242472	-0.003499
C	-0.5248307846	-2.9923270645	-0.269881257	-0.397827
H	 0.8680494253	 1.9286075035	-1.0188266458	 0.130168
H	-0.5272134114	 1.4186238554	-1.9885242235	 0.11043
H	-0.7756913488	 2.1573354606	-0.4000899327	 0.102929
H	 0.5699633211	-0.547678575	-0.9345456406	 0.077532
H	 0.0453977616	 0.8859457011	 1.6980810612	 0.078954
H	 0.5807978739	-0.799897635	 1.5566232665	 0.085158
H	 2.3497801428	 0.7317308596	 1.7467570797	 0.284796
H	-2.0419362111	 0.0622964552	 0.5203947432	 0.061476
H	-3.0234928667	 0.0243835882	-1.7449662171	 0.093811
H	-1.6784212082	-0.960644964	-2.3445847716	 0.099307
H	-3.8074917068	-1.8882090838	-0.3214019432	 0.095802
H	-2.9575703778	-2.9304013224	-1.4793586795	 0.090716
H	-1.9062006484	-2.2469275367	 1.2001774478	 0.059537
H	-0.2532545002	-2.8583963579	-1.3226183651	 0.115895
H	 0.3820653977	-2.8473787451	 0.3262949356	 0.117146
H	-0.8401669125	-4.0341912166	-0.1449546653	 0.110232
