18
gdb 8391	4.63984	1.22511	1.12886	0.2651	68.24	-0.2341	0.0709	0.305	1082.9297	0.152216	-384.900287	-384.891808	-384.890864	-384.933469	31.506	
O	 0.4054589253	 1.2952800692	 0.4536912385	-0.428265
C	 0.1681595367	-0.0803527706	 0.3534042477	 0.083369
C	-0.7211644856	-0.8227759798	 1.3211936363	-0.392158
C	-1.1423721804	-0.6158073637	-0.1202554352	 0.310944
C	-2.3609865813	 0.2068115703	-0.567444629	-0.358643
C	-2.8759077311	-1.0756726729	-1.2880429314	 0.179869
O	-3.4849685837	-0.9702921638	-2.5467889151	-0.432002
C	-1.4562331034	-1.7012061913	-1.158602733	-0.351619
H	-0.4299145797	 1.7367559882	 0.6381822362	 0.285658
H	 1.0753793623	-0.5764238197	 0.0213257726	 0.105349
H	-0.4232670524	-1.8163581499	 1.643494859	 0.114039
H	-1.2363054248	-0.2419813226	 2.0821561242	 0.108392
H	-3.0099291957	 0.6465726461	 0.1952829407	 0.102106
H	-2.0850486951	 0.9859398911	-1.290154579	 0.097064
H	-3.5933151862	-1.6082903546	-0.6582513532	 0.099182
H	-2.8731581398	-0.5186218361	-3.1380731497	 0.27734
H	-0.876905014	-1.572277488	-2.0814807755	 0.094372
H	-1.3935681712	-2.7472600618	-0.8479765742	 0.105003
