19
gdb 38665	2.95069	1.78948	1.46237	1.7824	78.41	-0.2285	0.0307	0.2591	954.3951	0.162321	-385.897757	-385.890908	-385.889964	-385.929045	28.015	
C	-0.0142619915	 1.3594445064	-0.616025461	-0.270321
C	 1.1504144214	 2.0661311332	 0.0308088074	-0.048078
C	 1.8643914499	 1.2661878552	 0.8178592859	-0.062515
C	 1.3415976857	-0.1482991399	 0.8509655613	-0.058232
C	 1.0042564134	-0.7283461306	 2.2585197094	-0.264691
C	-0.5003999807	-0.6202670899	 2.3843284209	 0.05708
O	-1.0050450477	 0.7046634229	 2.1735259557	-0.25595
C	-1.0870346208	-0.2382266555	 1.0945850129	 0.032274
C	-0.0061647894	-0.0481722735	 0.0466195561	-0.051667
H	-0.9608505025	 1.8866717033	-0.4443299676	 0.111664
H	 0.111421768	 1.2963512248	-1.7047123496	 0.10103
H	 1.3610496175	 3.1148175027	-0.1494403103	 0.089307
H	 2.7484472631	 1.5621500518	 1.3733093456	 0.087231
H	 2.0556308467	-0.8165015651	 0.3540802594	 0.078591
H	 1.2952370795	-1.7826850634	 2.3321447123	 0.098061
H	 1.5210599838	-0.1921696371	 3.0611894395	 0.110592
H	-1.037713356	-1.2077244872	 3.1261106127	 0.088803
H	-2.0978033464	-0.5138184329	 0.7996687785	 0.087023
H	-0.0975454939	-0.8434583752	-0.699461339	 0.069797
