19
gdb 120368	3.11578	0.94617	0.76721	3.5146	77.65	-0.2407	-0.0173	0.2234	1472.6288	0.158311	-423.050202	-423.041001	-423.040057	-423.085331	33.224	
O	-0.0609723338	 1.5096605538	-0.1679538593	-0.418222
C	 0.0544631471	 0.0974422866	-0.1028144507	-0.0829
C	-1.3514271112	-0.4730963159	 0.0334506805	-0.171617
C	-1.3808338009	-2.0102070643	 0.1044513828	-0.164685
C	-0.9050553976	-2.6389902296	 1.3913435167	-0.071888
C	-1.8114251378	-3.4474167158	 1.9438763256	-0.078755
C	-3.0792899361	-3.5315020538	 1.139115708	-0.369755
C	-2.82130995	-2.5542507181	-0.0178419471	 0.387812
O	-3.6102432467	-2.242749136	-0.8705144305	-0.310307
H	 0.8221314855	 1.8817163707	-0.247117072	 0.286238
H	 0.5296558398	-0.3086464254	-1.0115711563	 0.085681
H	 0.6767567972	-0.2095727382	 0.7536696576	 0.083985
H	-1.8212935257	-0.0476429578	 0.9275239121	 0.107959
H	-1.949266455	-0.1560506561	-0.8272291162	 0.131124
H	-0.8140076103	-2.3988519291	-0.7570152674	 0.105436
H	 0.0775778871	-2.443463825	 1.8057767129	 0.101364
H	-1.6700958092	-3.9981552918	 2.8667399158	 0.102132
H	-3.2799379665	-4.5353155318	 0.7410070389	 0.137555
H	-3.9822826759	-3.2382266023	 1.6889588586	 0.138842
