21
gdb 120602	4.03565	0.69151	0.66843	3.8185	81.45	-0.2468	-0.0137	0.2331	1726.0978	0.179793	-424.226116	-424.215603	-424.214659	-424.262287	37.34	
C	-0.0363568529	 1.557640411	-0.0801969063	-0.46661
C	-0.0492262311	 0.0527444627	 0.0779636713	 0.212755
C	 1.2443507127	-0.7551465553	-0.0205457852	-0.329561
C	 0.5527546018	-0.6512798784	 1.2999424929	-0.04346
C	 1.1353537157	 0.122008099	 2.4630072558	-0.210606
C	 2.0925759157	-0.7302153695	 3.2923733501	-0.064449
O	 2.572089447	 0.0771237185	 4.3551684407	-0.42
C	-1.2470572922	-0.6277664955	-0.476171486	 0.126024
O	-2.1748471553	-0.0694515852	-1.0081527628	-0.270564
H	 0.9036184419	 1.9954035703	 0.2617656579	 0.115133
H	-0.1747612842	 1.8235042765	-1.131989142	 0.13449
H	-0.8558317552	 2.0180396012	 0.4797850883	 0.133057
H	 1.2248584137	-1.6990375295	-0.5559493789	 0.119649
H	 2.1470087508	-0.172414271	-0.173509127	 0.12455
H	 0.0084490087	-1.544642888	 1.6031659473	 0.090568
H	 1.6797930666	 1.0055139593	 2.1160800095	 0.111544
H	 0.3353215703	 0.4828959168	 3.1201100372	 0.115685
H	 1.5646831116	-1.6206581932	 3.671994344	 0.085664
H	 2.9160983003	-1.0881624976	 2.6538862623	 0.08989
H	 3.1752152068	-0.4498416972	 4.8871763657	 0.287362
H	-1.2335333426	-1.738928375	-0.3630483549	 0.058879
