18
gdb 133874	3.17845	1.97751	1.91188	0.6916	74.29	-0.2264	0.0641	0.2906	827.7783	0.151586	-401.835917	-401.830161	-401.829217	-401.865555	25.762	
C	-0.7755796165	 1.778866908	 0.3941048921	-0.257318
N	 0.6645922207	 1.5695725108	-0.1793265262	-0.19225
C	-0.0039970704	 0.4365028915	-1.0183102865	 0.010694
C	 0.5772531824	-0.939173813	-1.353650094	-0.271502
C	 0.4116007427	-1.6106773775	 0.0359371161	 0.044376
C	 1.4774357961	-0.859713662	 0.8781745137	-0.271503
C	 0.7923119303	 0.506791947	 0.9559857594	 0.010696
C	-0.5835672156	 0.2238214948	 0.3720146557	 0.366392
O	-0.9001890124	-1.1490543949	 0.548596458	-0.354905
H	-1.4613317011	 2.2306955568	-0.3249554707	 0.115497
H	-0.7824357108	 2.2906161773	 1.3582202467	 0.115497
H	-0.6397972454	 0.8578043179	-1.7971219614	 0.076612
H	 1.6107260746	-0.9731622158	-1.7062932186	 0.11254
H	-0.0634921732	-1.3966267295	-2.1128549913	 0.110583
H	 0.4216542568	-2.698429379	 0.0706088515	 0.084858
H	 2.467251883	-0.8975499863	 0.4172933792	 0.11254
H	 1.5532683194	-1.2539185022	 1.8955539905	 0.110582
H	 0.8635967593	 0.990504876	 1.9302675858	 0.076611
