17
gdb 35491	3.18584	1.53261	1.45761	5.0451	74.27	-0.2486	0.0295	0.2781	953.7104	0.139483	-380.847062	-380.840288	-380.839343	-380.87826	27.396	
N	-0.1015554037	-1.1803611721	-0.2606424293	-0.341005
C	-0.0748539432	-0.0357412535	-0.1035067767	 0.329427
C	-0.0215700651	 1.4279528452	 0.0548008779	-0.197195
N	-0.6533516916	 1.8655507525	 1.3237931451	-0.278098
C	 0.4555481366	 2.3440211804	 2.1587333732	-0.03515
C	 1.4321594189	 1.1666498732	 2.472190408	-0.228513
C	 2.292555307	 1.6277791404	 1.2943452484	-0.062913
C	 1.5466907939	 2.9532136188	 1.2197539641	-0.100765
C	 1.4222965089	 1.9693866262	 0.0981867646	-0.036422
H	-0.5549827204	 1.856732735	-0.800750975	 0.121605
H	-1.2838655152	 2.6344911777	 1.1212062224	 0.22568
H	 0.0886723386	 2.9243038238	 3.0038369179	 0.080498
H	 1.9489617823	 1.3244186066	 3.4221444424	 0.107312
H	 1.005730887	 0.1600250417	 2.4516616363	 0.124875
H	 3.3509627706	 1.4382867549	 1.1626940663	 0.093434
H	 1.8937663705	 3.9744945522	 1.136759994	 0.093535
H	 1.9320825651	 2.1463066873	-0.8407049696	 0.103695
