15
gdb 128112	2.7944	1.2822	0.88425	5.2141	74.15	-0.2298	-0.0344	0.1955	1241.5436	0.112077	-453.952235	-453.943582	-453.942637	-453.986238	29.977	
C	-0.0262451436	 1.4812853418	 0.0928947012	-0.333807
N	 0.0863841335	 0.0330359013	 0.0023432761	-0.390306
C	 0.6276028388	-0.7203750541	 0.975787542	 0.4967
C	 0.7295909933	-2.098213213	 1.1556280057	-0.05509
C	 0.2357547375	-3.1655502799	 0.3219066693	 0.054721
O	 0.3673304321	-4.3513623325	 0.5497817262	-0.294894
C	 1.4529605626	-2.1924274307	 2.3803822366	-0.010317
N	 1.760774294	-1.0406060307	 2.8995549567	-0.152959
O	 1.2171166342	-0.0773274421	 1.9824789713	-0.231268
H	 0.941594633	 1.9142688653	 0.354488103	 0.1657
H	-0.3296205828	 1.8657908073	-0.8818833013	 0.141228
H	-0.7602082823	 1.7946837315	 0.8449721147	 0.145911
H	-0.4710424891	-0.4484436713	-0.6827675657	 0.269774
H	-0.3047822202	-2.8264124006	-0.5959480988	 0.033899
H	 1.752231439	-3.0995093224	 2.886790663	 0.160707
