18
gdb 67857	2.49123	1.72653	1.3858	1.982	79.02	-0.2286	-0.0287	0.1999	1006.4377	0.146913	-401.939192	-401.931045	-401.930101	-401.971518	31.228	
C	-0.0182277381	 1.4723253505	-0.0347311751	-0.476644
C	 0.0033400052	-0.0377994494	-0.0211079076	 0.281518
C	-0.489588406	-0.7980663706	-1.2056590764	-0.135683
C	-1.185008767	-1.8627088125	-0.8091188382	-0.055877
C	-1.2291991633	-1.934188716	 0.6971782076	-0.214666
N	-0.4499004089	-0.7612299986	 1.1721894591	-0.15855
C	 0.9978932275	-0.7609572379	 0.8907890217	-0.142529
C	 1.8198536918	-1.9134386852	 0.4536659405	 0.148645
O	 1.4274455901	-2.9994974353	 0.0927276768	-0.277859
H	 0.6816650639	 1.864075592	-0.7805846643	 0.123163
H	-1.0200363874	 1.8356927324	-0.287091142	 0.130725
H	 0.2555911344	 1.874598114	 0.9433520659	 0.132333
H	-0.2935468108	-0.4922860392	-2.2255339065	 0.101661
H	-1.640003023	-2.6068583605	-1.4513220545	 0.108896
H	-2.2510108756	-1.8403946036	 1.0871773894	 0.114659
H	-0.8086923688	-2.8674753941	 1.0790235744	 0.14506
H	 1.5477389753	-0.1092217067	 1.5696164829	 0.099229
H	 2.9110917708	-1.6905584693	 0.4969083764	 0.075919
