21
gdb 33165	3.09229	1.04967	0.842	3.9162	85.17	-0.2093	0.0365	0.2458	1434.7555	0.1833	-383.324262	-383.314712	-383.313768	-383.35943	34.559	
C	 0.0375836848	 1.5653385468	-0.061735193	-0.380568
C	 0.0322671353	 0.0351640314	-0.0819537341	-0.171743
C	-1.3813622121	-0.5411064797	 0.0739815133	-0.167538
N	-1.4182613426	-1.9943134376	 0.0450309556	-0.016142
C	-1.4570594261	-2.7761407118	-1.0935747224	-0.138327
C	-1.4150159058	-4.0705379449	-0.6561713527	-0.102918
N	-1.3478572839	-4.1119512044	 0.7163120184	-0.308537
C	-1.3477730493	-2.8546024272	 1.111888132	 0.333225
C	-1.2921424284	-2.4076620703	 2.5353981865	-0.505754
H	 1.0522693431	 1.9565724562	-0.1767580564	 0.123039
H	-0.5714473897	 1.9768504181	-0.8742812548	 0.119112
H	-0.3633234657	 1.9533842954	 0.8812340459	 0.119199
H	 0.4616866285	-0.3336241438	-1.0206603229	 0.112253
H	 0.6668662757	-0.3560645996	 0.7218223136	 0.112304
H	-1.8221755636	-0.205012581	 1.0176953408	 0.121258
H	-2.0287700425	-0.168305396	-0.7273654607	 0.11947
H	-1.5185388382	-2.3357616604	-2.0755864813	 0.11697
H	-1.4358183647	-4.9737021947	-1.247133884	 0.101647
H	-0.4069533199	-1.7972366197	 2.7493156059	 0.128026
H	-2.1731514521	-1.8207666508	 2.8220152178	 0.129352
H	-1.2548847127	-3.2968406858	 3.1658380227	 0.155671
