23
gdb 85954	2.69963	1.13366	1.00624	2.4735	86.16	-0.2374	-0.0078	0.2296	1348.0471	0.203174	-388.314334	-388.303967	-388.303023	-388.349769	38.622	
C	-0.9249630515	 0.9451111223	-0.408546095	-0.410992
C	 0.1633150924	-0.0836027093	-0.1455952745	 0.066809
C	 1.4251262892	-0.0854422073	-1.0522012264	-0.274554
C	 2.3207643	-0.2911749401	 0.2023507721	 0.224701
C	 3.5606866578	 0.5954205139	 0.3221829671	-0.476672
C	 1.0857813764	 0.1190534083	 1.0876165188	-0.28246
C	 2.6343375325	-1.7690609356	 0.442349828	 0.348757
C	 3.4926194759	-2.1131901454	 1.6516238308	-0.483016
O	 2.2003668093	-2.6432474771	-0.275085783	-0.31046
H	-0.5108712224	 1.9600080305	-0.4356592954	 0.106832
H	-1.4184726966	 0.7619808307	-1.3695756109	 0.117008
H	-1.6956522675	 0.9209073805	 0.3703473602	 0.112794
H	-0.2696876317	-1.0881844739	-0.1229614932	 0.087298
H	 1.4872494744	-0.8655921192	-1.8113882845	 0.117274
H	 1.603048428	 0.8925176739	-1.5109474836	 0.084778
H	 3.2912692311	 1.6404089312	 0.1397274742	 0.117971
H	 4.0141529719	 0.5422105372	 1.3169290114	 0.118014
H	 4.3251848472	 0.3174150545	-0.412734538	 0.122008
H	 1.156831889	 1.1710245693	 1.3846683566	 0.096431
H	 0.8799848023	-0.47738809	 1.9816026645	 0.097439
H	 3.213848035	-1.5261598644	 2.5320254512	 0.134112
H	 3.401095133	-3.178828415	 1.8651106656	 0.140483
H	 4.5429533242	-1.8880521851	 1.4348594038	 0.145445
