23
gdb 122976	2.16605	1.18135	0.86704	2.266	79.83	-0.2312	0.0735	0.3046	1437.7278	0.203493	-462.541069	-462.530067	-462.529123	-462.577951	38.981	
C	 0.6633482296	 0.4770761291	-0.7392610081	-0.244612
O	 0.2027443512	-0.8052142583	-0.3683337338	-0.249494
C	-1.184331114	-0.8862546981	-0.0272232921	 0.130911
C	-2.0795642089	-0.8041541948	-1.2638763773	-0.39761
C	-1.3829005651	-2.190090978	 0.7464428967	-0.098578
O	-1.2358260589	-3.3081353296	-0.1095940922	-0.258852
C	-0.3588714149	-4.3364060718	 0.3281928562	-0.077318
C	 1.1004387824	-4.0726101678	-0.039004252	-0.064273
O	 1.6678324218	-2.9882494582	 0.6648192396	-0.434557
H	 1.747469552	 0.4073078448	-0.8536794152	 0.136947
H	 0.231881229	 0.8144468295	-1.6907321243	 0.11842
H	 0.4344546221	 1.2248722122	 0.0346785998	 0.111212
H	-1.4233264779	-0.0590810373	 0.662321405	 0.066473
H	-1.8605170538	-1.6390175414	-1.9323451136	 0.145237
H	-3.1319894255	-0.8622860351	-0.96857288	 0.118377
H	-1.939146926	 0.1359656679	-1.8037070236	 0.11265
H	-0.6664279551	-2.2265973065	 1.5735683197	 0.116779
H	-2.3993161299	-2.1850749284	 1.1707169689	 0.090351
H	-0.4454845864	-4.4837363347	 1.4145488149	 0.095118
H	-0.6970414661	-5.2549956792	-0.1672884211	 0.097537
H	 1.6866162474	-4.9656805079	 0.2142388605	 0.094922
H	 1.1686765699	-3.9299108449	-1.1288337435	 0.088711
H	 1.289746897	-2.1747655714	 0.2953299054	 0.301652
