19
gdb 110576	3.19699	1.33893	1.10699	2.5395	75.22	-0.2283	0.068	0.2963	1127.9299	0.15782	-422.927054	-422.918648	-422.917704	-422.959977	32.262	
C	 0.0787590661	 1.3478237214	-0.4347869953	-0.524536
C	 0.0716601003	-0.1276631746	-0.1630301423	 0.322647
C	 0.5691018808	-1.3048947323	-1.0404913455	-0.065363
C	 2.0486772856	-1.3854002089	-1.3581188482	-0.109501
O	 2.3455697709	-0.3500085984	-2.2881627382	-0.419107
C	 0.0435170249	-2.0209291591	 0.2241478066	-0.123558
C	 0.4883980515	-0.8591188355	 1.1656849912	 0.037363
O	-0.8164398397	-0.7034779643	 1.7987831799	-0.333419
C	-1.1101810991	-0.9896889088	 0.3991062086	 0.039609
H	 1.0941220955	 1.700905726	-0.6362577755	 0.132275
H	-0.5327625408	 1.5874526315	-1.3112660144	 0.121626
H	-0.3244753885	 1.8920868577	 0.4256341641	 0.127794
H	-0.0200144941	-1.472401321	-1.949635062	 0.073234
H	 2.6409830433	-1.2704577436	-0.4353664261	 0.082784
H	 2.288412024	-2.3761577218	-1.7768432791	 0.087098
H	 3.2733077844	-0.4192702009	-2.5320348642	 0.287513
H	 0.0094788555	-3.0827119054	 0.4683351806	 0.080196
H	 1.3775477998	-0.7510942144	 1.7864169078	 0.091946
H	-2.1509746104	-1.0448135673	 0.0789775123	 0.091399
