19
gdb 97854	5.60455	0.6232	0.59318	1.2968	87.64	-0.2366	0.0207	0.2573	1884.4991	0.159	-385.862703	-385.853251	-385.852306	-385.899185	33.483	
O	 0.1692120383	 1.1656884423	 0.8538451212	-0.409561
C	 0.0095918721	 0.1857418597	-0.1668451028	-0.216603
C	-1.341744926	-0.3564827058	-0.1230045314	 0.093896
C	-2.4543736477	-0.816728125	-0.1019998083	 0.069007
C	-3.8038427211	-1.3705706891	-0.0767821087	-0.19192
C	-4.6161534508	-1.1357754108	-1.3899026307	-0.213401
C	-5.5077518634	-2.3908404622	-1.5493860488	-0.258505
C	-4.7915287114	-3.4253553412	-0.7129851149	-0.069063
C	-3.8699913364	-2.8846050525	 0.0787647618	-0.057549
H	 1.0708614588	 1.4973777264	 0.7920563753	 0.287785
H	 0.1922213136	 0.6191417482	-1.16413707	 0.113415
H	 0.73280686	-0.6372057069	-0.0426575479	 0.113728
H	-4.3326481491	-0.9085333539	 0.7720936673	 0.110553
H	-5.179941747	-0.2007725807	-1.3639518314	 0.104297
H	-3.9122420821	-1.0749483279	-2.2242036592	 0.115388
H	-6.5241629527	-2.2218852001	-1.1658404909	 0.107406
H	-5.622265389	-2.6904574463	-2.5970547696	 0.104921
H	-5.0461279104	-4.4792547101	-0.741147363	 0.094532
H	-3.2465690158	-3.4100274839	 0.7921440422	 0.101675
