16
gdb 44563	3.21058	1.63563	1.46358	3.2534	68.22	-0.252	0.01	0.2619	925.8942	0.126156	-437.861207	-437.854542	-437.853597	-437.892419	26.653	
N	 0.2032578527	 0.9751682566	 0.598655724	-0.544403
C	 0.0658279143	-0.1622264461	 0.0939861611	 0.401847
O	 0.9637599791	-0.961315974	-0.5926742534	-0.263206
C	-0.0212700613	-2.0437799253	-0.7367937314	 0.059064
C	 0.1491089148	-3.2278757187	 0.1822252299	-0.090044
C	 0.6146806847	-2.9317478764	 1.6014037356	-0.328409
C	-0.8483569995	-3.0090011983	 1.3015353566	 0.107412
O	-1.5724114185	-1.8171618068	 1.0994915556	-0.251748
C	-1.0901171332	-1.1548126053	-0.0454394253	-0.019673
H	 1.1543251164	 1.3283294014	 0.4748527699	 0.230597
H	-0.1402568691	-2.3065265943	-1.7873948021	 0.100811
H	 0.3272025077	-4.2043345167	-0.249260058	 0.099989
H	 1.0553627351	-3.7585218695	 2.1474882186	 0.122736
H	 1.0594201729	-1.9654093075	 1.8066068271	 0.147218
H	-1.4678725767	-3.7952816083	 1.7167321881	 0.110309
H	-1.9325522594	-0.7768337509	-0.6290002865	 0.117499
