17
gdb 39290	2.69514	2.23555	1.56984	2.5832	66.05	-0.2567	0.0675	0.3243	862.5562	0.139218	-458.957696	-458.951365	-458.950421	-458.988593	25.321	
C	 0.10230464	 1.4946619879	 0.3085890421	-0.098743
O	 1.4831927096	 1.829948788	 0.3019236207	-0.274625
C	 2.2355254176	 0.9125719757	-0.4888420976	 0.219487
O	 3.343325688	 0.4387625982	 0.2182320608	-0.246688
C	 2.9476645427	-0.664043384	 1.04210431	-0.101867
C	 1.6569812102	-1.2242854742	 0.4286309635	 0.095111
O	 0.4514431605	-0.8136955599	 1.1231048493	-0.312188
C	 0.0264337686	 0.0069420154	 0.0089050558	 0.107579
C	 1.322703988	-0.3020879043	-0.7573062019	-0.182354
H	-0.3113047379	 1.7410205519	 1.2912499052	 0.123849
H	-0.4471738534	 2.0628139999	-0.4592751161	 0.092451
H	 2.6230711665	 1.4272179523	-1.3737485498	 0.087261
H	 3.7715173693	-1.3839082179	 1.0409027973	 0.108089
H	 2.750336397	-0.3404838444	 2.0707908186	 0.121341
H	 1.6717487325	-2.3059777712	 0.2689523115	 0.087507
H	-0.9335892854	-0.3229632476	-0.3977503262	 0.084697
H	 1.3127981661	-0.676074726	-1.7775225134	 0.089095
