19
gdb 124636	4.29569	0.94237	0.86693	1.568	78.23	-0.2005	0.0218	0.2224	1392.8767	0.160893	-415.421282	-415.41228	-415.411336	-415.455407	33.294	
C	-0.0060229661	 1.5281111143	 0.0299911287	-0.399414
C	-0.0024469521	-0.0009684647	-0.0035724453	 0.071526
C	 0.6522738239	-0.6023185873	 1.2496959687	-0.386016
N	-1.372084106	-0.4695213021	-0.2090477691	-0.382767
C	-1.6304505705	-1.7636387917	-0.5784519208	 0.450128
N	-0.720793072	-2.5741476173	-1.113085016	-0.315227
N	-1.4689954769	-3.6930343851	-1.3611271882	-0.189127
C	-2.7367701485	-3.5048511484	-0.9663378107	 0.023701
N	-2.8886614636	-2.2963978936	-0.4607739011	-0.341068
H	 1.0119601394	 1.9137117063	 0.135959097	 0.1174
H	-0.4430664809	 1.9380272402	-0.8844051149	 0.124113
H	-0.5890433558	 1.8986462309	 0.8825844171	 0.109479
H	 0.5641567029	-0.33414485	-0.8797293095	 0.111504
H	 0.6412102777	-1.693848801	 1.2003348548	 0.133236
H	 1.6932832924	-0.2742827335	 1.3389913757	 0.109843
H	 0.1200298093	-0.2881640733	 2.1553197094	 0.104345
H	-2.0680762837	-0.0967607754	 0.4207521104	 0.239826
H	-1.0368687552	-4.4994492208	-1.7778120697	 0.27678
H	-3.5055445043	-4.2572579674	-1.0618781266	 0.141737
