15
gdb 3038	10.31662	1.15692	1.11966	4.2414	62.18	-0.2382	0.024	0.2622	1026.7322	0.125443	-304.679494	-304.672165	-304.671221	-304.711474	25.874	
N	-0.0475948532	-1.0919354393	-0.0481481403	-0.297841
C	 0.0342589866	 0.0498309124	 0.1054460829	 0.253849
C	 0.1583258521	 1.4929682915	 0.325839258	-0.257758
N	 1.2203061017	 2.0614905024	-0.4996198563	-0.299741
C	 1.3888317627	 3.4772289829	-0.2975904646	 0.067725
C	 2.0193925353	 4.0559495249	 0.9559219418	-0.276095
C	 2.7570198182	 4.0781760725	-0.3669044867	-0.288135
H	-0.7917325271	 1.9670938811	 0.049565377	 0.156558
H	 0.2883055514	 1.6657554414	 1.4087894787	 0.134254
H	 2.0900123483	 1.5660726868	-0.3366238478	 0.232201
H	 0.5793738563	 4.0538860615	-0.7394999568	 0.101656
H	 1.6364112052	 4.9892863247	 1.3540585549	 0.118147
H	 2.3745757594	 3.3596741563	 1.7091411085	 0.112597
H	 3.5991741236	 3.4029379672	-0.4834666731	 0.118471
H	 2.8789816695	 5.0230310637	-0.8838021762	 0.124114
