21
gdb 58698	1.91195	1.71992	1.13473	1.6276	84.12	-0.2516	0.0275	0.2791	1185.6612	0.179842	-387.042811	-387.03282	-387.031876	-387.077677	37.306	
C	 0.1886700639	 1.562854205	-0.0386912639	-0.39693
C	 0.0512348069	 0.0334461114	 0.0261591065	-0.016914
C	 0.6545396338	-0.6049943229	-1.232479772	-0.419062
C	 0.6909610076	-0.5043788573	 1.32720392	 0.21927
C	 0.9036866425	-2.0450162336	 1.4745187632	-0.345543
C	 2.4012454736	-1.6977106261	 1.5223970086	-0.064127
O	 2.1362669743	-0.2923910951	 1.3293196434	-0.312953
C	 0.0644948443	 0.0860117665	 2.5107173336	 0.319397
C	-0.4619940871	 0.5348960769	 3.4943724244	-0.435689
H	 1.245655814	 1.8471909478	-0.0424617197	 0.133614
H	-0.2715148091	 1.9495189932	-0.9529189025	 0.106653
H	-0.2897405112	 2.0451986466	 0.8168454078	 0.127299
H	-1.0155906517	-0.2233257302	 0.0805971668	 0.081676
H	 1.7346439658	-0.434644132	-1.2673280021	 0.133486
H	 0.472332993	-1.6817051457	-1.2925465263	 0.109901
H	 0.2138019888	-0.1527823317	-2.1259728372	 0.112879
H	 0.4864573727	-2.4696937988	 2.3865112911	 0.122351
H	 0.583900556	-2.6367338861	 0.6177776776	 0.115887
H	 2.8951256065	-1.888780498	 2.4823384807	 0.108853
H	 3.0183821484	-2.1072999029	 0.7146983004	 0.10495
H	-0.9193110228	 0.9421242429	 4.3623041197	 0.195003
