19
gdb 126342	2.02608	1.52672	0.93162	3.4611	78.65	-0.2178	0.0116	0.2294	1288.9433	0.159634	-419.205856	-419.196627	-419.195682	-419.24011	33.533	
C	 0.1322424168	 1.5392156842	 0.1344976687	-0.372014
C	-0.0426151828	 0.020623593	-0.0460018774	-0.324085
C	 0.6665448505	-0.5183773025	-1.2508464155	 0.073267
C	 0.1644461887	-0.97855393	-2.4226154921	 0.000638
O	 1.134904203	-1.3430220771	-3.2707708642	-0.186672
N	 2.3750487794	-1.134532824	-2.6481200022	-0.239337
C	 2.0851719092	-0.6387157726	-1.4624851103	 0.383998
N	 3.0701460991	-0.2512746376	-0.5807943021	-0.378753
C	 4.4465321405	-0.636734191	-0.8589814421	-0.31953
H	 1.1912291152	 1.8065570465	 0.1974127497	 0.129261
H	-0.2947934555	 2.0808308092	-0.7146970599	 0.124851
H	-0.3646017068	 1.883820925	 1.0466535204	 0.112673
H	 0.3166252393	-0.4936029473	 0.8569088344	 0.100409
H	-1.1083561428	-0.2219589516	-0.1183169418	 0.110875
H	-0.8463235052	-1.0987816262	-2.784054333	 0.14269
H	 2.7977160684	-0.3263661119	 0.3877074956	 0.241813
H	 5.0921921051	-0.2244347886	-0.0804416784	 0.118776
H	 4.5867424047	-1.7254640497	-0.9084943889	 0.125298
H	 4.7479631531	-0.2206994778	-1.8231557909	 0.155844
