21
gdb 106492	2.37057	1.57159	1.22612	1.8566	77.51	-0.2372	0.0612	0.2984	1108.9754	0.183083	-424.20434	-424.195766	-424.194821	-424.237273	33.766	
C	-0.0107482539	 1.5676175034	-0.0550455476	-0.426239
C	 0.0693574654	 0.0541610185	 0.0497000631	 0.140555
O	 0.9199603358	-0.5019572285	-0.990309707	-0.300209
C	 1.8405178709	-1.2958474568	-0.230593129	 0.11094
C	 2.2656570552	-0.3562019343	 0.9224004894	-0.291683
C	 0.7579163529	-0.5448673879	 1.299666039	 0.257015
C	 0.2010052769	-0.2033613261	 2.6610422385	-0.18843
O	-1.1861443758	-0.4977281721	 2.7767771041	-0.416088
C	 0.9366983596	-2.0221723895	 0.7944535814	-0.292934
H	 0.9542016099	 2.0467844424	 0.1329668438	 0.115102
H	-0.3351751474	 1.8502848696	-1.0607623644	 0.127852
H	-0.7427884372	 1.9575182146	 0.6596907979	 0.125518
H	-0.9389690182	-0.3632371658	-0.060948803	 0.076329
H	 2.5363990598	-1.7995154538	-0.8996864559	 0.078746
H	 2.935663021	-0.8282831525	 1.6439908636	 0.098736
H	 2.6242926171	 0.639438065	 0.6549438304	 0.102326
H	 0.7850889641	-0.7145680862	 3.4427950132	 0.087795
H	 0.2895078629	 0.8732095334	 2.8462310662	 0.114699
H	-1.2943496606	-1.4461232091	 2.6509295053	 0.286337
H	 0.0638963152	-2.5481189349	 0.3975092169	 0.09703
H	 1.4879208563	-2.6479034095	 1.5000443341	 0.096602
