16
gdb 16184	4.30941	1.64353	1.41366	0.7714	59.77	-0.2365	0.0799	0.3164	890.5491	0.130549	-420.841553	-420.834215	-420.833271	-420.873322	27.389	
O	-0.0058779473	 1.4663940364	 0.3660883398	-0.412936
C	 0.0733468307	 0.0960932808	 0.0129024682	-0.146691
C	-1.2775878851	-0.543166551	-0.1147225893	 0.383739
C	-2.0999314323	-1.0560980274	 1.053361827	-0.388741
C	-1.6257493691	-1.9942557385	-0.0426129989	 0.021339
O	-2.4949301215	-2.2618050283	-1.1155200685	-0.25422
C	-2.9611338953	-1.0073010586	-1.5759065214	 0.009314
O	-1.9980314809	-0.030366047	-1.2207343135	-0.305494
H	-0.5468521905	 1.8957677461	-0.3056891662	 0.292967
H	 0.6218910087	-0.0434590121	-0.9314985296	 0.09867
H	 0.6391682875	-0.3977896997	 0.8087171226	 0.110591
H	-1.5866082084	-1.1278811077	 2.0065905566	 0.12594
H	-3.1517021187	-0.8037052044	 1.1266808515	 0.126935
H	-0.9325073468	-2.8052984899	 0.1413168658	 0.116661
H	-3.0671705103	-1.0364174635	-2.6648371002	 0.124141
H	-3.9315291406	-0.7677963251	-1.1119636539	 0.097784
