21
gdb 58220	2.86079	0.95387	0.85673	2.2057	75.91	-0.261	-0.0359	0.2251	1442.4387	0.178831	-461.373464	-461.36269	-461.361746	-461.40948	38.994	
C	-0.1358337548	 1.5398767851	-0.1204592925	-0.42115
C	 0.0535861213	 0.0167977788	-0.0483370556	 0.027126
C	 0.7931621137	-0.5088711595	-1.2858904972	-0.398248
C	 0.7811866414	-0.4357371103	 1.2336228342	 0.085505
O	 2.0945982468	 0.0979868126	 1.3618288293	-0.437648
C	-0.0216421973	-0.1295075547	 2.5270270568	 0.019751
O	-1.3566916597	-0.5356923029	 2.4234069597	-0.433931
C	 0.6381927968	-0.8034223622	 3.7138085096	 0.136587
O	 0.011807668	-1.5393701941	 4.4405673189	-0.268718
H	 0.8229596381	 2.0724829817	-0.1702935551	 0.10324
H	-0.6851583908	 1.8079733924	-1.0277088746	 0.12484
H	-0.7033508469	 1.928164536	 0.7305459505	 0.129613
H	-0.9388588683	-0.4438829655	-0.0030547782	 0.107102
H	 1.8185219446	-0.1271854771	-1.3171220708	 0.122002
H	 0.8455163753	-1.6025963378	-1.2820208974	 0.113992
H	 0.2852399676	-0.2004502656	-2.2049100501	 0.110631
H	 0.9219074908	-1.521932789	 1.1729706183	 0.095743
H	 2.0343829805	 1.0562979322	 1.2807456808	 0.285332
H	 0.0456311686	 0.9603850163	 2.70747458	 0.083131
H	-1.506939103	-1.1218007693	 3.1838813098	 0.296208
H	 1.7122761075	-0.5949933272	 3.8645866336	 0.118891
