16
gdb 28809	3.058	1.46336	1.15124	5.358	81.2	-0.2507	-0.0819	0.1687	1080.4144	0.125589	-396.946864	-396.939114	-396.93817	-396.979158	29.196	
C	 0.0712880348	 1.3637564575	 0.3960017827	-0.492019
C	 0.0002367715	-0.0791240091	-0.0266019257	 0.262279
C	-1.1795290461	-0.7442158393	-0.1046781027	-0.171611
C	-1.3549268872	-2.0895507041	-0.625877202	-0.005983
N	-0.5089708397	-3.0550179335	-0.6386832805	-0.232711
C	 0.715887133	-2.8779709437	 0.0397436702	 0.333968
N	 1.1025988702	-3.5813132431	 1.0188953157	-0.48031
N	 1.5758221944	-1.920564797	-0.5296504299	-0.189485
C	 1.2483664358	-0.6858357106	-0.5022335921	-0.03272
H	 0.5055996703	 1.9839228773	-0.3968196911	 0.144558
H	-0.9160231566	 1.7604032341	 0.6414721426	 0.135259
H	 0.7165908735	 1.4782165853	 1.2748789416	 0.152758
H	-2.0946764772	-0.2001652466	 0.1188127521	 0.109315
H	-2.3301192657	-2.2959344986	-1.0742318155	 0.122816
H	 0.3750706578	-4.2573709621	 1.2588142587	 0.223337
H	 1.9806134711	 0.0182066335	-0.9084509641	 0.120548
