23
gdb 86425	2.23549	1.68425	1.15858	1.219	85.06	-0.2454	0.0781	0.3235	1176.0374	0.206739	-388.300775	-388.291861	-388.290917	-388.334719	34.626	
C	-0.0140650053	 1.600599459	 0.0585106507	-0.41573
C	 0.2250240036	 0.1024770605	-0.0120337326	 0.142273
O	 1.2354981132	-0.1674659791	-0.9838309831	-0.277578
C	 1.6238043263	-1.5268053122	-0.7914466965	 0.134828
C	 2.8781454976	-1.8156307806	-1.5973688665	-0.415405
C	 1.7005048949	-1.6878438323	 0.7351169905	-0.031268
C	 2.8587414382	-0.9519815921	 1.4712864713	-0.225237
C	 1.8388575684	 0.0352055617	 2.0996538571	-0.225505
C	 0.6926600972	-0.6144710032	 1.2736909479	-0.04582
H	 0.899153194	 2.1356638276	 0.3310426508	 0.124802
H	-0.347195935	 1.975505188	-0.9132634626	 0.1242
H	-0.7870935203	 1.8297966827	 0.7986960542	 0.113285
H	-0.7107556741	-0.3891955739	-0.3346694924	 0.058045
H	 0.8111224627	-2.1826250953	-1.155276456	 0.056691
H	 3.7135915381	-1.1884213945	-1.2759752569	 0.124093
H	 3.1680267882	-2.8650996501	-1.4852922473	 0.113211
H	 2.6977967071	-1.6210483359	-2.6582652794	 0.124903
H	 1.5418185361	-2.721041255	 1.0501872599	 0.062226
H	 3.4140622535	-1.56660812	 2.1833652018	 0.095149
H	 3.5772283237	-0.4737258738	 0.8019156427	 0.103945
H	 1.7086649881	-0.0971511723	 3.1765130242	 0.097084
H	 2.0287022629	 1.0945856224	 1.9127685313	 0.098778
H	-0.158980919	-0.9646260119	 1.8607677007	 0.06303
