20
gdb 122098	3.33784	0.68617	0.59199	2.6451	76.84	-0.2645	0.0239	0.2884	1865.9169	0.168876	-440.283936	-440.273139	-440.272195	-440.321025	36.788	
C	-0.0689961068	 1.3852239794	 0.0371271459	-0.231977
O	 0.0140451399	-0.0210572439	 0.0198290642	-0.231237
C	 0.6383270378	-0.5198519051	-1.1395288878	-0.063737
C	 0.6305629836	-2.0417173846	-1.0531926829	-0.216675
C	 1.3284009702	-2.7285750272	-2.2420144887	-0.162037
C	 1.3981396643	-4.2661161425	-2.0592518851	-0.070042
O	 2.0786486181	-4.910815156	-3.1085448564	-0.416009
C	 0.6604309282	-2.4386594414	-3.5153669124	 0.26747
N	 0.1282119686	-2.265197099	-4.5274949857	-0.334161
H	 0.9276202516	 1.8534842376	 0.0097324829	 0.105901
H	-0.6522492832	 1.7698022578	-0.8139823364	 0.110286
H	-0.5678603902	 1.6707708872	 0.9660914823	 0.130457
H	 0.1067512417	-0.1824904555	-2.044863513	 0.109931
H	 1.6748471216	-0.1452248098	-1.214952034	 0.087492
H	 1.1407990027	-2.3445402599	-0.1325807077	 0.120244
H	-0.4053483239	-2.3883891949	-0.9772458097	 0.127293
H	 2.359845451	-2.3640063919	-2.3277336689	 0.13513
H	 1.9641760223	-4.4746302227	-1.1465660561	 0.123742
H	 0.3792933538	-4.6576807504	-1.9211617756	 0.108606
H	 1.5511214887	-4.8211717873	-3.9105896148	 0.299324
