14
gdb 43315	3.1068	1.82226	1.29671	2.2428	66.85	-0.248	-0.0661	0.1818	915.5581	0.103607	-436.72492	-436.718449	-436.717505	-436.756198	24.623	
O	 0.0166722005	 0.0406605546	 0.2969715032	-0.312734
C	-0.04244174	 1.2239868834	 0.0754065037	 0.369063
C	-1.2497263827	 2.0653828708	-0.0889828852	-0.179503
C	-0.918019647	 3.3309191109	-0.3695010979	-0.045793
C	 0.5802032842	 3.5559385974	-0.4282757881	-0.068845
N	 1.0326148482	 4.4383883459	 0.6666676703	-0.271421
C	 1.6699354715	 3.6817675288	 1.4608474028	 0.125299
O	 1.8432904714	 2.3706348452	 1.1662174655	-0.217414
C	 1.1760329135	 2.1658773701	-0.1018158406	-0.034678
H	-2.2488755576	 1.6621330478	 0.0139549961	 0.128272
H	-1.6099535026	 4.151113559	-0.5223800166	 0.134523
H	 0.8862840034	 3.9737411426	-1.3926003911	 0.104905
H	 2.1187321996	 3.9883188563	 2.3991506022	 0.151947
H	 1.8995775177	 1.7573937171	-0.8094762641	 0.116381
