18
gdb 112463	2.45436	1.47669	1.03148	4.2591	74.37	-0.2255	0.001	0.2265	1179.4818	0.148449	-439.144702	-439.136121	-439.135177	-439.178489	31.854	
C	 0.012848904	 1.5903249818	 0.0782949726	-0.388723
C	 0.0174834827	 0.0617572547	 0.156141468	-0.17483
C	-1.3745825886	-0.5637872851	-0.0179254712	 0.068685
O	-1.9378333314	-0.1478218387	-1.2947058303	-0.26278
C	-1.7993562468	-0.876161673	-2.4228271004	 0.470705
O	-2.029077935	-0.4064288584	-3.5068227568	-0.382102
N	-1.42207011	-2.1956798961	-2.2400700135	-0.384002
C	-1.3661146564	-2.8011080235	-0.9861326326	 0.010881
C	-1.3689981413	-2.0579753659	 0.1171305257	-0.144515
H	 1.0244143353	 1.9892385065	 0.1966048071	 0.114465
H	-0.3795532452	 1.930597044	-0.8830835268	 0.145632
H	-0.611951539	 2.0232981957	 0.8675340098	 0.114041
H	 0.684191109	-0.3629829659	-0.6041619226	 0.109494
H	 0.4059564499	-0.2698113055	 1.1273797272	 0.099869
H	-2.05612096	-0.1146810399	 0.7141710914	 0.103434
H	-1.4447819088	-2.7504644111	-3.0793336868	 0.267425
H	-1.3335704767	-3.8837331694	-0.9913357406	 0.125141
H	-1.3394086217	-2.5025122501	 1.1024890595	 0.10718
