19
gdb 47035	3.41677	1.41336	1.11802	3.5069	77.37	-0.232	0.0314	0.2634	1106.339	0.162536	-419.201643	-419.194116	-419.193172	-419.233852	29.784	
N	-0.0879872461	 1.2741651183	 0.4961134675	-0.515901
C	-0.0153660563	 0.0782045326	 0.0888544784	 0.413552
C	-1.2572368839	-0.7773426474	-0.0282319976	-0.250577
N	-1.1439932405	-1.6735712984	-1.174460403	-0.30859
C	-0.0668971078	-2.6234694156	-0.9588065601	-0.025131
C	 0.5208891354	-3.1422473089	-2.2978519277	-0.242042
C	 1.5024047715	-1.935089188	-2.2973742298	-0.241767
C	 1.2377228699	-1.8102868125	-0.7786354971	 0.15838
O	 1.1783617119	-0.5052785869	-0.2132281009	-0.260897
H	 0.8474983824	 1.6833775594	 0.5487647469	 0.216339
H	-1.3937182279	-1.3161432178	 0.929722359	 0.100997
H	-2.104939558	-0.1028613105	-0.1510058046	 0.138449
H	-2.021334864	-2.1521975039	-1.3444322031	 0.226442
H	-0.2860288131	-3.3676551151	-0.1757213483	 0.055405
H	 1.0325931221	-4.0997883939	-2.1726108166	 0.104971
H	-0.1812174582	-3.2150314838	-3.1299912729	 0.108266
H	 2.5322405001	-2.1028966234	-2.6164153885	 0.10227
H	 1.0839956517	-1.0810591853	-2.8313240716	 0.128023
H	 1.9775345906	-2.3676876988	-0.1974343699	 0.09181
