25
gdb 111139	3.22209	1.06781	0.94105	0.0814	93.99	-0.2797	0.0921	0.3718	1419.1539	0.228624	-352.30679	-352.296911	-352.295967	-352.341446	38.312	
C	 0.1558531009	 1.2200226038	 0.7532236567	-0.371314
C	-0.0524836683	-0.2827376899	 0.982354178	-0.241388
C	-1.4108371878	-0.7566019099	 0.4712088193	 0.076192
C	-1.7177386492	-0.9506735645	-1.0557785759	-0.096796
C	-0.8468136849	-2.2394728246	-0.983396946	-0.247479
C	-1.7551476952	-2.2723925628	 0.2823985637	-0.113659
C	-2.9620030095	-1.8324593686	-0.6390659098	 0.375555
C	-4.1864457427	-1.1546671838	-0.006701025	-0.471469
C	-3.5156511977	-2.8462662622	-1.6512674521	-0.468573
H	 1.1067832995	 1.5588746585	 1.1761560798	 0.109349
H	 0.1614375146	 1.4602430681	-0.3154159473	 0.116542
H	-0.6435277749	 1.8078239798	 1.2184309358	 0.111769
H	 0.7805687373	-0.832056095	 0.5346626175	 0.096782
H	-0.0047252375	-0.4924632506	 2.0595684186	 0.093513
H	-2.1694069931	-0.1872040947	 1.0093123988	 0.055255
H	-1.6959627212	-0.1855900649	-1.8363530385	 0.057682
H	-0.9953667408	-3.0029275008	-1.7433558831	 0.08934
H	 0.2194310459	-2.0990804336	-0.8145815609	 0.0907
H	-1.7740339945	-3.041619347	 1.0593019545	 0.056582
H	-3.9659150423	-0.3768750372	 0.7235553588	 0.116862
H	-4.8039545551	-0.6991051687	-0.7894384366	 0.112704
H	-4.810503859	-1.9041556012	 0.4937847312	 0.113104
H	-4.1866248982	-3.550020636	-1.1450681703	 0.112285
H	-4.1129155784	-2.329107015	-2.4112951532	 0.112413
H	-2.7635462877	-3.4355330393	-2.174346644	 0.114051
