18
gdb 102361	1.93868	1.42641	1.15228	2.2527	75.37	-0.2325	-0.0401	0.1924	1175.5919	0.144525	-439.035879	-439.025694	-439.02475	-439.070932	36.593	
C	 0.2253895076	 1.435073596	 0.156367966	-0.325518
N	-0.0516048861	 0.0276264582	-0.1291713035	-0.31888
C	-1.4345361643	-0.4315356241	 0.0731825952	-0.053487
C	-2.3433994838	-0.1699883587	-1.16001582	-0.106662
O	-1.7409721367	-0.6637421276	-2.3379577984	-0.426451
C	-1.2476362317	-1.9509777767	 0.2906935962	 0.166936
O	-1.6018263681	-2.7956784606	-0.4936446417	-0.273613
C	-2.0459270533	 0.1048550077	 1.2833550528	 0.318679
C	-2.6063262941	 0.4890354879	 2.2752250175	-0.442763
H	 1.2654640187	 1.6391040915	-0.1117937739	 0.125992
H	-0.4149837261	 2.145787506	-0.3898714533	 0.107569
H	 0.1069154941	 1.6266151461	 1.2253559226	 0.138893
H	 0.1566568194	-0.1735315545	-1.1041243774	 0.237391
H	-3.3327239303	-0.612122294	-0.9836552577	 0.110576
H	-2.4710007144	 0.9086589483	-1.287601226	 0.121262
H	-1.7589978035	-1.6271256782	-2.2554580848	 0.29996
H	-0.6966291905	-2.1973211132	 1.2184240647	 0.112752
H	-3.093316137	 0.8446476861	 3.1500811817	 0.207365
