21
gdb 119783	4.35129	0.87251	0.84118	2.0112	84.18	-0.2238	0.0088	0.2326	1483.9519	0.182883	-387.049567	-387.041001	-387.040057	-387.083486	32.75	
C	 0.08822131	 1.5346843176	 0.0759092653	-0.378586
C	 0.1446982525	 0.0053819196	 0.0648628665	-0.162601
C	 0.5516753564	-0.5652209371	-1.3088224418	-0.33596
C	 0.6466251543	-2.0519687004	-1.3283496624	 0.384431
C	-0.0300738392	-3.0008550519	-1.9836996164	-0.222056
C	 0.6569017582	-4.2820318816	-1.4809522174	 0.030724
C	 0.7144022716	-4.0291581588	 0.0560462792	-0.216353
C	 1.6452580542	-2.9226257173	-0.5223439802	-0.029942
O	 2.075108888	-3.8966314503	-1.5297812091	-0.286582
H	 1.0629078977	 1.9684812451	-0.1735121132	 0.116103
H	-0.636340223	 1.9091627484	-0.6557048498	 0.116269
H	-0.2044364479	 1.9150829672	 1.0593601496	 0.113497
H	 0.8538793007	-0.3419097507	 0.8270763073	 0.100279
H	-0.8318111767	-0.4074432423	 0.345571971	 0.101863
H	-0.1670556419	-0.2334128411	-2.0678219148	 0.103604
H	 1.5231156126	-0.1324895002	-1.5906744439	 0.107489
H	-0.8411227004	-2.9247014239	-2.6933374788	 0.103236
H	 0.4312089876	-5.2457904011	-1.9351993435	 0.078714
H	-0.200007642	-3.734326216	 0.5751323183	 0.095138
H	 1.2662646734	-4.8042391836	 0.5934719258	 0.105253
H	 2.4575765038	-2.4519833316	 0.0317142981	 0.07548
