16
gdb 67411	2.72909	1.54637	1.27773	3.9108	74.44	-0.2532	0.0131	0.2663	1017.9049	0.124342	-400.702446	-400.694826	-400.693882	-400.734506	29.088	
C	-0.1630310174	 1.5344452099	-0.0507231067	-0.528731
C	-0.0134421141	 0.0518691512	 0.0040438913	 0.230807
C	 0.0886515359	-1.0447578994	-0.9874051608	 0.017259
O	 1.2169895514	-1.6752315469	-0.4162685633	-0.286142
C	 0.8905538897	-0.9658114791	 0.8152353763	 0.009995
C	-0.3805846809	-1.6859806833	 1.322924267	-0.29167
C	-1.0572456398	-1.087599012	 0.0874919765	 0.128229
C	-2.4327046648	-1.0373286887	-0.257491264	 0.164468
N	-3.5530850421	-0.9820732769	-0.5484162474	-0.353647
H	 0.7733960337	 2.0128929124	-0.3561660019	 0.139179
H	-0.9377586127	 1.8114977152	-0.7725657253	 0.148364
H	-0.4540989153	 1.9433379643	 0.9225394854	 0.13627
H	-0.0953499631	-1.1098883982	-2.0516348945	 0.134586
H	 1.7526195155	-0.7551884801	 1.4427726058	 0.104469
H	-0.3206123652	-2.7735619348	 1.4125848157	 0.122475
H	-0.7671697307	-1.2377399537	 2.240749416	 0.12409
