13
gdb 16136	4.85573	1.79943	1.54889	2.227	58.4	-0.2535	-0.0343	0.2192	789.3759	0.095746	-398.601837	-398.595476	-398.594531	-398.632415	23.694	
O	-0.8657612874	 1.1405792085	-0.1934691195	-0.272729
C	 0.2531361782	 0.8999746561	 0.1933616399	 0.082621
C	 1.3931212927	 1.8326346024	 0.0369350274	 0.220375
C	 1.1349060604	 3.3330812342	-0.0701751815	-0.340096
C	 1.6730769159	 2.6317523525	-1.2591997417	 0.044619
O	 3.0805162687	 2.5856148288	-1.3965748678	-0.206066
C	 3.5348766857	 1.910271204	-0.3053067269	 0.095113
N	 2.6914834919	 1.4334768753	 0.5188080063	-0.307119
H	 0.5175888443	-0.0555086138	 0.6925115145	 0.095315
H	 0.0844691245	 3.5971702066	-0.1202399039	 0.156165
H	 1.7809683946	 3.9889740417	 0.5029216409	 0.136679
H	 1.1348750025	 2.5273043223	-2.1918193044	 0.140075
H	 4.6123161877	 1.8266553513	-0.2407168132	 0.155047
