19
gdb 101605	3.35085	0.77233	0.69482	3.2735	69.09	-0.2623	-0.0249	0.2374	1623.3804	0.155896	-497.301664	-497.29111	-497.290165	-497.338542	37.128	
O	 0.0011570276	 0.8205065701	 0.8187168731	-0.404944
C	-0.1850674097	 0.2173571779	-0.4480308804	-0.101365
C	-1.4698992808	-0.6186619598	-0.5338251929	 0.102926
O	-1.6404763057	-1.1437818669	-1.8426121197	-0.429432
C	-1.5121282865	-1.7171071051	 0.5451453493	-0.309247
C	-2.8844353282	-2.3521166866	 0.6073039439	 0.369087
O	-3.8462319561	-1.7686878808	 1.0645145019	-0.335168
C	-3.0628481272	-3.7411139127	 0.0240222101	-0.136618
O	-4.3787684869	-4.1858120772	 0.1394742931	-0.419786
H	-0.6631926688	 1.5097092045	 0.9226037234	 0.293044
H	-0.1957048628	 0.9536447451	-1.2642497114	 0.108286
H	 0.6859515103	-0.4334115438	-0.6028413004	 0.103162
H	-2.3330280376	 0.0401725632	-0.3777843015	 0.110345
H	-0.8648294998	-1.6753065204	-2.0567726293	 0.283692
H	-0.7379621998	-2.4661550074	 0.3349533866	 0.095269
H	-1.2892764399	-1.2537092411	 1.5106231936	 0.1471
H	-2.7352085688	-3.6820400511	-1.0293769956	 0.118209
H	-2.3619377835	-4.4265234228	 0.5298296476	 0.112198
H	-4.8582214956	-3.440946955	 0.5375270786	 0.293241
