14
gdb 66069	2.81565	1.2903	1.08673	3.9748	63.22	-0.2916	-0.0708	0.2208	1093.128	0.098913	-473.808676	-473.800327	-473.799382	-473.842186	29.664	
O	 0.0770561883	 1.465114645	-0.2590700423	-0.447961
C	 0.0210766738	 0.1066569055	-0.0673152304	 0.268851
C	-0.0339317171	-0.4147769891	 1.3924125605	-0.133125
O	-1.1470476246	-1.2822626089	 1.0780943188	-0.262739
C	-1.3763601854	-0.6323005605	-0.1804949917	-0.128874
C	-2.5280465677	 0.2708335221	-0.1755100433	 0.322222
N	-3.4447682741	 0.9736732756	-0.1794191244	-0.309838
C	 1.0571885414	-0.6100018683	-0.9108825572	 0.120638
O	 1.7747239161	-0.0023037003	-1.6643714687	-0.263921
H	 0.7180491942	 1.6176804286	-0.9737440536	 0.304655
H	 0.8247853145	-0.9739862979	 1.776546354	 0.125575
H	-0.3094996501	 0.3854531261	 2.0878104811	 0.144946
H	-1.4919550448	-1.3567011702	-0.9949274298	 0.135451
H	 1.1095809754	-1.7105998679	-0.7957700629	 0.12412
