23
gdb 117714	3.40455	0.68175	0.64811	1.3938	78.48	-0.2567	0.0618	0.3185	1807.3354	0.202243	-462.550909	-462.539187	-462.538243	-462.588201	41.959	
C	 0.0739884611	 1.6738320922	 0.1304517899	-0.402951
C	 0.0069644091	 0.1468606963	 0.0116651977	 0.310115
O	 0.6811079965	-0.3451380312	 1.1821192998	-0.459082
C	-1.4490784957	-0.363829445	-0.0080539077	-0.191053
C	-2.2783211438	-0.0131824081	 1.2228827516	-0.092688
O	-3.4831075887	-0.7662823163	 1.1440054355	-0.424569
C	 0.7218679143	-0.3620262134	-1.2576750605	-0.191048
C	 2.2024796852	-0.0100229567	-1.3560093265	-0.092675
O	 2.7400152595	-0.7612734223	-2.4383965236	-0.424562
H	 1.1115474987	 2.0135351807	 0.1686368363	 0.123583
H	-0.4173045534	 2.1510427069	-0.7226688312	 0.114289
H	-0.4148858064	 2.0121825184	 1.0469187505	 0.123586
H	 0.6609247855	-1.3082014189	 1.1463407031	 0.277083
H	-1.9584502502	 0.0027655428	-0.9067029305	 0.102997
H	-1.434664907	-1.4590423461	-0.0902755586	 0.09588
H	-1.7060529241	-0.2590794841	 2.1286650277	 0.096937
H	-2.494813118	 1.065272437	 1.2498359146	 0.085014
H	-4.018656447	-0.5511360934	 1.9130532914	 0.284171
H	 0.6444756622	-1.457276833	-1.2875058391	 0.095875
H	 0.2004656811	 0.0049162587	-2.1492590655	 0.102993
H	 2.3336382179	 1.0687639495	-1.5282690661	 0.085005
H	 2.6985117951	-0.2567366193	-0.4065452461	 0.09693
H	 3.6737898981	-0.5451229747	-2.5150673926	 0.284171
