16
gdb 5580	3.35706	1.81822	1.21694	0.8024	68.57	-0.1791	0.03	0.2091	974.6822	0.131791	-379.932806	-379.924849	-379.923905	-379.965215	29.235	
C	 0.1930321439	 1.4275524122	 0.1670837769	-0.323894
N	-0.2724220811	 0.0996137207	-0.205650577	-0.394444
C	 0.464156212	-0.6105739843	-1.1528730031	 0.262636
C	 0.6786665403	-1.9604384825	-1.1505408451	 0.190083
N	 0.2833203481	-2.9239883139	-0.2221579268	-0.605117
O	 1.378887876	-2.3244408797	-2.2877663453	-0.169027
C	 1.6146265361	-1.1870063345	-2.979808267	-0.011984
C	 1.0835044206	-0.1065890462	-2.3491154719	-0.254942
H	 1.2260032074	 1.450740437	 0.5510381773	 0.105993
H	 0.1410115123	 2.0981213655	-0.6964471877	 0.128572
H	-0.4712053877	 1.8330568172	 0.934853875	 0.121088
H	-0.4616291555	-0.4886215686	 0.596609259	 0.235089
H	-0.41867451	-3.5639483373	-0.5830092986	 0.243481
H	 1.0609293328	-3.4774197921	 0.1242976294	 0.242678
H	 2.1743332079	-1.2974743651	-3.8945202667	 0.126945
H	 1.1230194369	 0.9158193818	-2.6894605783	 0.102844
