17
gdb 101519	4.4224	0.55961	0.5166	4.2125	77.31	-0.2625	-0.0572	0.2053	2030.8135	0.132282	-458.927927	-458.917346	-458.916402	-458.965552	35.578	
O	 0.2888053139	 0.5232528718	 0.9656529669	-0.406837
C	-0.1087122929	 0.2697389358	-0.3712921698	-0.101577
C	-1.4829391773	-0.4093053751	-0.4685310023	 0.105024
O	-1.8684392378	-0.5706500084	-1.8201874482	-0.418563
C	-1.494731253	-1.7356992522	 0.3192145097	-0.38614
C	-2.8014143431	-2.3656774086	 0.3860395981	 0.088653
C	-3.8872901821	-2.8919822925	 0.4442976593	 0.057378
C	-5.1981344536	-3.4824487284	 0.4988647915	 0.016994
O	-5.4172591785	-4.6564930212	 0.6944851772	-0.231027
H	-0.2365815729	 1.2569653366	 1.3007077798	 0.292047
H	-0.1261418715	 1.181913181	-0.9828244898	 0.108916
H	 0.656734186	-0.3945811762	-0.7933863561	 0.104817
H	-2.2395772895	 0.2575024656	-0.0363950334	 0.097603
H	-1.2681640526	-1.2005004409	-2.2355709301	 0.285123
H	-0.7712662774	-2.4295988544	-0.1341202485	 0.129938
H	-1.1228311834	-1.5341746007	 1.3312471356	 0.160505
H	-6.0255944942	-2.7602425723	 0.3423523998	 0.097146
