19
gdb 85268	2.82113	1.33212	1.00437	2.0926	76.31	-0.2375	-0.016	0.2215	1194.3141	0.1593	-423.049282	-423.040862	-423.039917	-423.082312	32.626	
O	-0.0115686972	 1.4084259398	-0.0764889702	-0.430205
C	 0.016477981	-0.0051779601	-0.0125064399	 0.113649
C	 0.6465693889	-0.5841611919	 1.2680300275	-0.361324
C	-0.0471973189	-1.9344681843	 1.4566493417	 0.350428
O	 0.341942898	-2.856249342	 2.133034171	-0.340844
C	-1.3007430597	-1.9188810532	 0.6294356989	 0.244316
C	-1.6343607308	-3.2081614427	-0.1143265772	-0.293346
C	-2.4626473665	-2.7888397719	 1.0543861379	-0.306732
C	-1.4290188749	-0.5364467387	 0.0114621783	-0.323413
H	 0.8939397003	 1.7256563253	-0.1501666515	 0.284625
H	 0.5373307069	-0.420925287	-0.8895684362	 0.075898
H	 1.7344821943	-0.6843668755	 1.25886579	 0.118143
H	 0.3720887457	 0.0606331776	 2.1143327788	 0.136049
H	-2.0470131035	-3.1019975172	-1.1119791138	 0.118531
H	-0.9465095695	-4.034917519	 0.0242328189	 0.135732
H	-2.3333784923	-3.3334262618	 1.9835894034	 0.13625
H	-3.458927725	-2.3998076526	 0.8736456745	 0.119179
H	-2.0190583663	 0.1306015298	 0.6520553902	 0.116007
H	-1.8878376705	-0.5351448046	-0.9803365622	 0.107057
