16
gdb 28917	2.30026	1.84537	1.02945	2.8389	75.17	-0.2078	0.0103	0.2182	1090.3183	0.126067	-437.955019	-437.94692	-437.945976	-437.987827	31.185	
N	-0.3675012311	 1.4550275874	-0.0608603964	-0.622698
C	-0.1500955353	 0.0330619545	-0.0592643475	 0.026427
C	-1.2948151931	-0.7770280808	-0.0839736375	 0.391586
O	-2.509353188	-0.1889422473	-0.1073113196	-0.438829
C	-1.1834406017	-2.168943575	-0.0844697915	-0.235608
C	 0.0826609047	-2.7402947493	-0.0600043985	-0.079622
C	 1.2346139441	-1.9556407705	-0.0351473122	-0.283097
C	 1.1112288503	-0.5659170454	-0.0349230569	 0.326375
O	 2.1868909045	 0.2767315178	-0.0115145469	-0.449595
H	 0.0875728475	 1.885840585	-0.8613918124	 0.250068
H	 0.0556038749	 1.8827560768	 0.7586306251	 0.250072
H	-2.3166571689	 0.7675382248	-0.101403547	 0.293446
H	-2.0819717623	-2.7730898165	-0.1038036029	 0.099656
H	 0.1795749546	-3.8210382011	-0.0601608537	 0.095981
H	 2.2187983414	-2.4147413581	-0.0161585001	 0.078483
H	 2.9917871485	-0.2511711621	 0.003796748	 0.297354
