20
gdb 18580	3.62529	1.90885	1.5391	0.1574	79.44	-0.2328	0.0267	0.2595	911.1883	0.179259	-311.877633	-311.870483	-311.869539	-311.908744	28.771	
C	-1.0163645674	 1.1698116801	-0.0061481182	-0.409177
C	-0.0865010889	-0.0340461499	-0.0276562343	 0.049915
C	 1.179518145	 0.0133753474	-0.9312728243	-0.2467
C	 2.0270653382	-0.6147185874	 0.2134899936	 0.001792
C	 3.2431752295	 0.1961220156	 0.7011117989	-0.2722
C	 2.6296373904	 1.1454564179	 1.7071171522	-0.06419
C	 1.3518342841	 0.8655433778	 1.9709702448	-0.070055
C	 0.8438920246	-0.3231177966	 1.1987024194	-0.077416
H	-0.4678513664	 2.0883631913	 0.2283376994	 0.115897
H	-1.4996217907	 1.3088061207	-0.9799419694	 0.110457
H	-1.8084543918	 1.0526624425	 0.7425451199	 0.10889
H	-0.6651033193	-0.9378644923	-0.2498205984	 0.06566
H	 1.1308881786	-0.5408539048	-1.8721351939	 0.092088
H	 1.4913526484	 1.0391552434	-1.1537082628	 0.09582
H	 2.2475511966	-1.6709026804	 0.049663539	 0.061808
H	 4.0109842073	-0.4345013402	 1.171036874	 0.099539
H	 3.7427506648	 0.7226793105	-0.1231554669	 0.099953
H	 3.1957964801	 1.9496313324	 2.1662042315	 0.087384
H	 0.7343617017	 1.4119986162	 2.6766012974	 0.087945
H	 0.4973637851	-1.1244012839	 1.861411948	 0.06259
