15
gdb 2768	4.18575	2.18268	1.61203	1.3071	57.6	-0.2491	-0.0339	0.2153	768.2383	0.12377	-345.642285	-345.634995	-345.634051	-345.674429	25.238	
C	-0.3616757497	 1.4680210803	 0.1001859591	-0.409431
C	 0.1695451291	 0.0518043797	 0.0107707739	 0.150064
O	 1.4306189932	-0.0392001461	-0.6903560198	-0.282814
C	 1.9834334628	-0.8909864541	 0.3270657842	-0.090433
C	 0.7740504858	-0.6648771016	 1.2654411082	-0.158928
C	 1.0670967736	 0.2165065319	 2.4500966482	 0.163201
O	 0.6014805813	 0.0579165345	 3.5494167677	-0.252998
H	 0.3673039974	 2.1474367138	 0.5486105855	 0.126189
H	-0.5940284608	 1.8363272314	-0.9037971412	 0.134686
H	-1.2812452254	 1.4934862527	 0.694292285	 0.130237
H	-0.5795013673	-0.5950482059	-0.4683029473	 0.085951
H	 2.09455127	-1.9292140503	-0.0097652572	 0.110839
H	 2.9541369973	-0.5258750574	 0.6849948462	 0.110643
H	 0.233546821	-1.5492568081	 1.6032223974	 0.09977
H	 1.7768334218	 1.0509342794	 2.2441485099	 0.083025
