19
gdb 67813	2.94086	1.84313	1.5843	1.3563	78.59	-0.2214	0.0155	0.2369	932.6052	0.161754	-385.89878	-385.891885	-385.890941	-385.929467	29.269	
C	-0.0161578828	 1.4844650947	 0.0409732393	-0.495862
C	-0.0380063054	-0.0270812867	 0.0010034398	 0.261784
C	-1.2261999358	-0.7021879365	-0.5625920817	-0.103051
C	-1.2009381129	-2.0373221963	-0.6443643347	-0.09622
C	 0.0676713415	-2.6599448616	-0.1306892476	 0.002799
C	 0.2882645452	-2.2135966213	 1.3395847508	-0.24032
C	 0.7211354568	-0.7779281556	 1.1204850002	-0.157978
C	 1.2872827677	-0.765966183	-0.2657259659	 0.069599
O	 1.1790137854	-2.0365566393	-0.8328170676	-0.258953
H	 0.948737087	 1.8587185652	 0.3980867217	 0.114634
H	-0.1885295776	 1.9096322262	-0.9541036244	 0.121876
H	-0.78918538	 1.8763862537	 0.7123069889	 0.120358
H	-2.0509104241	-0.0994935886	-0.9319873292	 0.088827
H	-1.9967751281	-2.634642614	-1.0725847413	 0.090371
H	 0.1401618391	-3.7338784948	-0.2985791439	 0.079745
H	-0.6203959751	-2.33024174	 1.9351847265	 0.106941
H	 1.0995397244	-2.7826695676	 1.8048056116	 0.105544
H	 1.1390325488	-0.1952456141	 1.9321389539	 0.088065
H	 2.165060246	-0.2250480904	-0.5968355665	 0.101841
