10
gdb 1385	5.47598	1.4411	1.14904	5.2638	60.31	-0.2983	-0.1067	0.1917	950.1786	0.064536	-322.167165	-322.15959	-322.158646	-322.201365	23.824	
C	 0.0364174082	 1.4520853982	 0.008761858	-0.503537
C	 0.0098806563	 0.0026367731	 0.0108676616	 0.048814
C	-0.0193232835	-1.2044997236	 0.0116021039	 0.075781
C	-0.0487728227	-2.6357838919	 0.012528915	 0.198402
O	-1.0472338669	-3.3172203639	 0.0642754413	-0.249477
C	 1.2862118541	-3.2635455395	-0.0572879853	 0.223315
N	 2.3281447211	-3.7619429479	-0.1117866192	-0.317808
H	 1.06024517	 1.8305768258	 0.0861322096	 0.172922
H	-0.404466462	 1.8397812482	-0.9160501081	 0.17621
H	-0.5452012047	 1.8494281815	 0.8472818731	 0.175378
