18
gdb 47825	2.45993	1.72869	1.14277	4.6509	72.47	-0.2515	0.0002	0.2518	1069.5432	0.150184	-439.093259	-439.085555	-439.084611	-439.126013	29.439	
O	 0.0373557693	 0.1729920193	 0.9614668605	-0.325414
C	-0.0530593708	 1.0398198239	 0.1314831814	 0.42284
O	-1.2786048309	 1.4688373933	-0.2369979581	-0.225483
C	-1.5853796499	 1.9888045924	-1.5381488918	-0.07385
C	-0.9886771967	 3.3542609782	-1.8653345614	-0.217077
C	 0.4347925269	 3.2741287912	-2.4146840466	-0.219709
C	 1.4537061154	 2.7101112741	-1.4517303354	-0.026923
N	 1.3741022171	 3.1322284763	-0.0590493583	-0.324626
C	 1.2075303063	 1.6937287653	-0.3804701283	-0.148001
H	-1.3035536732	 1.2480630133	-2.2986858214	 0.108498
H	-2.6759853417	 2.0487337517	-1.5266889739	 0.12638
H	-1.6296066703	 3.8276161414	-2.6180818273	 0.103155
H	-1.020924803	 3.9806523482	-0.9691769713	 0.138288
H	 0.4428275794	 2.6622145405	-3.3267829884	 0.103884
H	 0.7719363172	 4.2750332734	-2.7125704371	 0.108318
H	 2.4515467487	 2.6275182024	-1.8844531935	 0.090517
H	 2.2906393723	 3.2943956018	 0.3472666764	 0.243798
H	 2.0469915539	 1.0439271836	-0.1493140955	 0.115407
