19
gdb 20032	3.52131	1.4335	1.25655	2.239	73.09	-0.22	0.0656	0.2856	1048.9718	0.164922	-365.003316	-364.994883	-364.993938	-365.036422	31.248	
O	 0.098835805	 1.4347562644	 0.2216046564	-0.404126
C	 0.0329006751	 0.0147865978	 0.2173588344	-0.117623
C	-1.3855711895	-0.4642671434	-0.0169191076	 0.006685
C	-2.5459901119	 0.4698756622	 0.0354080152	-0.25011
N	-2.1545980912	-0.1606376806	-1.2237788628	-0.101507
C	-1.5732271332	 0.6619406889	-2.2520219458	 0.071654
C	-1.1922739835	-0.0346458465	-3.5324894436	-0.276756
C	-2.4033986553	 0.8668239591	-3.4898597151	-0.276105
H	 1.0259883392	 1.6902699673	 0.2237695495	 0.289989
H	 0.6901749939	-0.4060746099	-0.5601421749	 0.10098
H	 0.3696153392	-0.3933327904	 1.1838123667	 0.095442
H	-1.5277354145	-1.4873079144	 0.3305903368	 0.088191
H	-3.4960718592	 0.1477326066	 0.45448951	 0.105643
H	-2.3106404902	 1.5220259422	 0.1705182052	 0.130771
H	-0.9449737135	 1.4888943413	-1.9274310392	 0.094672
H	-0.3077572203	 0.3040330885	-4.0608819708	 0.103565
H	-1.371468482	-1.1026645887	-3.5769304964	 0.115382
H	-3.3770508265	 0.3911815141	-3.5051844727	 0.117357
H	-2.3545837418	 1.8291232214	-3.9872657952	 0.105894
