20
gdb 110913	2.25638	1.39639	1.0362	4.0655	80.58	-0.2329	0.0244	0.2574	1228.7284	0.170921	-403.137396	-403.128497	-403.127553	-403.171705	32.833	
C	 0.1088705824	 1.2507797239	 0.5719325207	-0.373992
C	 0.060390237	-0.1588253835	-0.0297159944	-0.224961
C	-1.3469614669	-0.7168039537	-0.0738300476	 0.001429
C	-1.7198599526	-2.1768305819	-0.2026238023	-0.13201
C	-0.7988346578	-3.0862120944	 0.6311363008	-0.190948
N	-1.1274548426	-2.269930953	 1.8114922225	-0.034494
C	-0.3797361711	-2.0434488125	 2.9202188875	 0.132009
O	 0.5863488692	-2.7009806816	 3.2473702543	-0.331484
C	-2.0403753897	-1.4031929682	 1.0776925264	-0.051539
H	 1.1313963095	 1.639158675	 0.5856491639	 0.118586
H	-0.5069192121	 1.9500389362	-0.0045315636	 0.113866
H	-0.2645466489	 1.2523672445	 1.601282028	 0.119277
H	 0.4648172583	-0.1405352345	-1.0495541382	 0.103095
H	 0.7145600487	-0.8224034223	 0.5449482166	 0.122357
H	-2.0467091416	-0.0888383816	-0.62569403	 0.09323
H	-2.4090149397	-2.5379478236	-0.9532068641	 0.102827
H	-1.171380372	-4.1103356731	 0.7258725875	 0.126194
H	 0.2657591764	-3.1106110864	 0.3805440053	 0.129821
H	-0.7827008747	-1.2011832765	 3.5211425859	 0.067364
H	-2.9922749518	-1.105295513	 1.5009722008	 0.109372
