18
gdb 112487	2.71287	1.21204	0.88263	1.6686	79.57	-0.2377	-0.0327	0.205	1310.1956	0.147196	-439.100639	-439.091588	-439.090644	-439.135745	32.381	
C	 0.0086406733	 1.4840050808	-0.1422263006	-0.334071
N	-0.062523257	 0.0338652834	-0.1331604236	-0.330784
C	 0.520086737	-0.627468843	-1.0363880625	 0.430283
O	 1.2511676987	-0.0938298231	-2.084489485	-0.279285
C	 1.7658087743	-1.156276574	-2.9091375036	 0.026881
C	 3.2923782165	-1.0302409332	-2.94763716	-0.059668
O	 3.6930269518	 0.2127690292	-3.4791014976	-0.416889
C	 1.2470808119	-2.40962246	-2.2651195129	-0.109542
C	 0.5432909598	-2.0873704066	-1.1797857914	-0.169025
H	 0.3603472895	 1.9142913285	-1.0870354321	 0.117685
H	-0.9832941406	 1.8892375884	 0.0837261146	 0.126044
H	 0.6770084854	 1.8216924048	 0.6602887604	 0.126344
H	 1.3775461751	-1.010254672	-3.9268681042	 0.109743
H	 3.6843121032	-1.192468584	-1.9314770759	 0.097377
H	 3.7075744489	-1.8061181069	-3.5998540793	 0.112692
H	 3.2694440404	 0.8905936336	-2.9397539624	 0.294376
H	 1.4465348725	-3.399005032	-2.654501525	 0.125336
H	 0.0389654094	-2.7392957738	-0.4821885988	 0.132502
