19
gdb 79335	2.52405	1.85472	1.51025	1.8591	73.22	-0.2327	0.0883	0.321	963.4185	0.161126	-423.032025	-423.024666	-423.023721	-423.063351	30.347	
C	 0.0263677791	 1.4410407446	-0.0851999003	-0.499453
C	-0.0108110838	-0.051546555	-0.0179355714	 0.450254
O	 1.0103859024	-0.7144662204	-0.7694931305	-0.312511
C	 0.6867496746	-2.0833009306	-0.4591981767	 0.000166
C	 0.6278444205	-2.0991984501	 1.0777383676	-0.238448
C	-0.3145828534	-0.9048585426	 1.1923713121	-0.152903
C	-1.234345982	-0.9417040518	-0.0330092744	-0.197035
C	-0.8058471826	-2.1433255264	-0.8736155541	 0.171492
O	-1.013897105	-1.9859400016	-2.2576689762	-0.453215
H	 0.9792082255	 1.8253880214	 0.2928444914	 0.130364
H	-0.0976567032	 1.7916723773	-1.1151579361	 0.126663
H	-0.7794140483	 1.8673217375	 0.5184306818	 0.125024
H	 1.3728006562	-2.7543081211	-0.9713637693	 0.08413
H	 0.2121144005	-3.0316582216	 1.4703055078	 0.104774
H	 1.6047358814	-1.9180914019	 1.5349976186	 0.107596
H	-0.6219989382	-0.4763642188	 2.1372991093	 0.089696
H	-2.2464824084	-0.5602519187	-0.0329868384	 0.091454
H	-1.2866285882	-3.0807704189	-0.5821582662	 0.087418
H	-0.4503185771	-1.2484912412	-2.525590855	 0.284534
