20
gdb 63875	2.08328	1.73621	1.28839	2.6526	79.82	-0.245	-0.0301	0.2149	1086.022	0.169249	-403.12051	-403.111507	-403.110563	-403.153653	34.503	
C	 0.0474031664	 1.6166854208	 0.0289065414	-0.457188
C	 0.0402227612	 0.090461948	 0.0960458268	 0.232858
C	-1.389065334	-0.4470752185	-0.0257964651	-0.442025
C	 1.0243550242	-0.6837468047	-0.8373654532	-0.203583
N	 1.6852513897	-1.4118838259	 0.3091535791	-0.161212
C	 2.2933021548	-0.3738640305	 1.1258370447	-0.281173
C	 0.8174128482	-0.5605376408	 1.2569332995	 0.224074
C	 0.2704553534	-1.1346128705	 2.5011421871	 0.068467
O	-0.7849592382	-0.820056153	 2.9982801849	-0.269834
H	 1.0555143432	 2.0340026051	 0.1069429843	 0.109875
H	-0.3804203601	 1.959966622	-0.9197773516	 0.117794
H	-0.5558734189	 2.0396247684	 0.8390159315	 0.132435
H	-1.8223649656	-0.1357026849	-0.9826299589	 0.109331
H	-1.4098528937	-1.540586809	 0.0147884199	 0.119961
H	-2.0198093265	-0.0729416961	 0.7836163475	 0.142814
H	 0.5342229518	-1.3981203457	-1.5009459828	 0.116319
H	 1.7318070219	-0.0793718036	-1.4149086877	 0.105294
H	 2.9144180493	-0.7618697355	 1.9284375294	 0.130909
H	 2.6711462054	 0.5323614905	 0.6580920514	 0.123537
H	 0.9331952975	-1.8986260261	 2.9686502517	 0.081348
