19
gdb 40189	3.30232	1.42464	1.19783	0.6621	74.13	-0.261	0.0901	0.3511	1068.4248	0.160716	-423.006974	-422.999523	-422.998579	-423.038813	29.846	
C	 0.035462515	 1.4875864654	 0.0156795153	-0.245095
O	 1.2003905192	 0.6593449791	 0.0783076031	-0.281887
C	-0.0942446914	 0.0270823447	 0.0091882278	 0.425058
C	-0.4724070849	-0.732409197	 1.2632297716	-0.286218
C	 0.3273933786	-2.0433937091	 1.3368797727	-0.239686
C	 0.1946211224	-2.8520694535	 0.0657102926	 0.064428
O	-1.1229273946	-2.9527485846	-0.488005512	-0.25987
C	-0.1394021272	-2.1970834129	-1.2099228526	 0.043519
C	-0.3776416917	-0.6985990195	-1.2968646239	-0.301059
H	-0.1919527843	 2.0472588846	 0.922606519	 0.110332
H	-0.0903929823	 2.046725991	-0.9116202004	 0.108687
H	-0.2698446643	-0.1180562716	 2.144688396	 0.101264
H	-1.5439291682	-0.9572235363	 1.2441209628	 0.11838
H	 1.3892697029	-1.8168943277	 1.4923844694	 0.12215
H	-0.0016983217	-2.6448059255	 2.1920516418	 0.105721
H	 0.7621326423	-3.783136042	 0.0342208916	 0.087372
H	 0.179000424	-2.675259084	-2.1363161777	 0.092698
H	-1.420051883	-0.5359543904	-1.5995295858	 0.119118
H	 0.260126829	-0.2680249408	-2.0749204314	 0.115089
