16
gdb 19510	3.83729	1.5459	1.52582	3.7358	65.42	-0.2387	-0.0203	0.2184	895.3057	0.131124	-383.732059	-383.7249	-383.723956	-383.763983	26.077	
O	-0.2019398684	 0.1557764112	 0.5565008092	-0.27372
C	-0.0908953668	 1.2528285785	 0.0609585268	 0.163922
C	 1.1968569651	 1.97061756	-0.0424087606	-0.156886
C	 1.5763769852	 2.905855983	-1.2054253781	-0.106254
C	 0.4901687123	 3.4655432443	-2.1159666215	-0.260339
C	-0.4457859843	 4.2428145237	-1.1557994978	-0.085385
O	 0.1878900201	 4.2901478464	 0.1305893598	-0.251134
C	 1.3306266176	 3.4925194314	 0.1328304272	 0.089009
H	-0.9817519987	 1.7783935543	-0.3423062981	 0.070038
H	 2.0250230134	 1.3940199953	 0.3586981988	 0.109904
H	 2.5738023024	 2.7835471285	-1.6096892934	 0.1087
H	 0.9556982396	 4.1382325797	-2.8419087945	 0.120317
H	-0.0499140319	 2.7005461351	-2.6801840986	 0.120957
H	-0.6244878815	 5.2720630248	-1.4840195275	 0.114735
H	-1.4199538121	 3.7501772057	-1.0544630591	 0.117347
H	 2.0998573879	 3.8634074283	 0.8004444472	 0.118788
