21
gdb 119751	4.54103	0.74321	0.67794	4.2668	88.52	-0.2297	-0.036	0.1938	1709.3397	0.182444	-387.145345	-387.135875	-387.134931	-387.180799	34.378	
C	-0.0191872853	 1.5671862919	-0.0897246866	-0.379631
C	-0.0056501204	 0.0372818134	-0.1256009115	-0.164991
C	-1.4032609472	-0.5687244942	 0.1226496963	-0.291724
C	-1.4183302966	-2.0663557722	 0.1097716984	 0.341768
C	-1.6563175973	-2.8763158949	 1.1544142355	-0.300668
C	-1.5877104515	-4.2973865841	 0.7634136934	 0.395962
O	-1.7463155228	-5.264979331	 1.4726095232	-0.340166
C	-1.2746150761	-4.3291660873	-0.7433021701	-0.334613
C	-1.14984595	-2.8527914126	-1.1606131179	-0.314275
H	 0.9809460459	 1.9752133296	-0.2640011251	 0.117439
H	-0.6853429705	 1.9759331792	-0.8575061146	 0.117113
H	-0.3662742061	 1.9378717962	 0.8809020119	 0.119255
H	 0.3755651045	-0.3033102696	-1.0953380015	 0.104446
H	 0.6879464547	-0.3477283526	 0.6314236533	 0.108411
H	-1.7878663833	-0.2055620776	 1.0822939347	 0.1091
H	-2.0865492244	-0.1966663709	-0.6545262558	 0.108557
H	-1.8790917378	-2.5659339661	 2.168089899	 0.103732
H	-0.3603512023	-4.9048997076	-0.913017729	 0.131017
H	-2.0790954551	-4.8544402709	-1.2663167084	 0.132016
H	-1.8667688399	-2.5700696174	-1.9418533185	 0.116458
H	-0.1586234884	-2.6155953414	-1.5647209767	 0.120793
