22
gdb 108644	2.14994	1.48368	1.00222	1.3321	89.62	-0.2148	0.0253	0.2401	1287.9115	0.194601	-367.210586	-367.201338	-367.200394	-367.244697	35.173	
C	 0.0210355273	 1.622555885	 0.3196003192	-0.371297
C	-0.0210505505	 0.1220151995	-0.0234235034	-0.304223
C	-1.4128951284	-0.4379616078	-0.0748778483	 0.278841
C	-2.0867191815	-0.9251908305	-1.1309733995	 0.19004
C	-1.6212792848	-1.0749699	-2.5455333874	-0.494517
C	-3.4808035755	-1.4003055859	-0.7438561733	-0.293777
C	-3.5281243842	-1.1936841838	 0.7622867984	-0.040754
N	-2.5319890343	-2.0002181903	 1.5034314636	-0.339199
C	-2.2433536485	-0.5723962884	 1.1659938301	-0.144455
H	 1.0536231308	 1.9820893668	 0.3705782189	 0.111394
H	-0.5080565592	 2.2108479986	-0.4366985881	 0.118156
H	-0.4486496803	 1.8278882021	 1.2872102604	 0.115477
H	 0.4883368325	-0.0407071946	-0.9785800115	 0.100033
H	 0.5577797999	-0.4301431066	 0.7299817396	 0.108367
H	-1.6059061801	-2.1310492065	-2.8448576342	 0.12753
H	-2.3044035184	-0.566983257	-3.2391842412	 0.120356
H	-0.6197917423	-0.6685727765	-2.7050588873	 0.122228
H	-4.2584442717	-0.8154465808	-1.2554283579	 0.097319
H	-3.6425565237	-2.4506061393	-1.0177816343	 0.112467
H	-4.4658903027	-0.9504845142	 1.25009089	 0.082597
H	-2.8310819366	-2.0448457724	 2.4771549075	 0.221769
H	-2.1622448879	 0.1409119325	 1.9800091385	 0.08165
