14
gdb 4585	5.89934	1.57942	1.24874	2.4226	69.41	-0.1938	-0.0258	0.168	915.2445	0.110392	-374.963639	-374.956673	-374.955729	-374.994417	26.866	
N	-0.0172772079	 1.4197911602	 0.1288454913	-0.598118
C	 0.0014215582	 0.018885114	 0.0472567032	 0.229038
C	-1.1642976313	-0.7518017503	 0.0413908883	-0.03936
N	-1.1629168122	-2.0807474728	 0.0344614684	-0.303112
C	 0.0385061163	-2.6752489825	 0.0378221865	 0.412067
N	 0.0579125164	-4.0505093065	 0.101094257	-0.558341
N	 1.222932455	-2.0478414675	 0.018165138	-0.303105
C	 1.1877732067	-0.7193732762	 0.0254137725	-0.039294
H	 0.8012064573	 1.8587793799	-0.2716758317	 0.246211
H	-0.8538093395	 1.8358700594	-0.2586274855	 0.246193
H	-2.1409840312	-0.2676162472	 0.0369926616	 0.098382
H	-0.7924395474	-4.5045388088	-0.1911761463	 0.255519
H	 0.9163890054	-4.4809641004	-0.2028625568	 0.255519
H	 2.1505792841	-0.2084327012	 0.0078475736	 0.098402
