21
gdb 93057	2.35046	1.54439	1.18345	1.3914	86.93	-0.2226	-0.0285	0.1941	1148.4153	0.183711	-387.10634	-387.097575	-387.096631	-387.139485	34.394	
C	-0.2015918836	 1.4934808313	 0.0001744463	-0.410508
C	 0.0546487539	-0.0202362424	-0.0063293351	-0.03931
C	 0.8266770166	-0.4265939961	-1.2399451621	-0.078443
C	 1.3489623647	-1.6366456798	-1.4960718972	-0.107759
C	 1.2947269166	-2.8399561916	-0.6712552935	-0.074701
C	 0.9769163273	-2.9729068314	 0.6263610652	-0.064114
C	 0.6152668083	-1.9321209649	 1.6467524279	-0.282926
C	 0.7961054844	-0.4516693145	 1.2880697518	 0.107314
O	 2.1653043231	-0.0761005087	 1.2520382115	-0.441288
H	 0.7435921961	 2.0345960951	 0.1103639748	 0.132894
H	-0.6786218267	 1.819582157	-0.9295150756	 0.109799
H	-0.8533401472	 1.7795700126	 0.8313420927	 0.110468
H	-0.9142251714	-0.5406679814	-0.0180816588	 0.088626
H	 0.9737080057	 0.3523652304	-1.9850570942	 0.088398
H	 1.8554643185	-1.7649264851	-2.4505982654	 0.088947
H	 1.5643879339	-3.7526284245	-1.1988664611	 0.085814
H	 0.9967294035	-3.9851415937	 1.0274314117	 0.092322
H	-0.4261215492	-2.0990878076	 1.9606726751	 0.109065
H	 1.2168266937	-2.1152284956	 2.5479933809	 0.11807
H	 0.3774013552	 0.1264521872	 2.1203030378	 0.082815
H	 2.5368086369	-0.4442884565	 0.4404501874	 0.284517
