13
gdb 21594	3.40701	1.9385	1.23723	6.0143	64.1	-0.2175	-0.0423	0.1752	896.124	0.097225	-394.80017	-394.793025	-394.792081	-394.831579	25.982	
N	 0.0070285327	 1.4223758832	 0.1535958179	-0.608535
C	 0.002185849	 0.0319413131	 0.038233121	 0.128149
C	-1.0926926866	-0.8109583733	 0.0189983021	-0.099638
N	-0.5847529247	-2.0784899805	-0.0237021005	-0.167089
N	 0.7355550859	-2.1345828263	-0.0379783651	-0.257569
C	 1.128391204	-0.8475560509	 0.0037236722	 0.210973
C	 2.5421089411	-0.4728248016	 0.0173055434	 0.091587
O	 3.4815001181	-1.2327867464	-0.026313599	-0.269847
H	 0.7952029763	 1.8695801545	-0.2925111306	 0.25522
H	-0.8528869104	 1.8578577713	-0.149855674	 0.25001
H	-2.1528614622	-0.6177272094	 0.0353241149	 0.133325
H	-1.1073732751	-2.9391470002	-0.0478911395	 0.283541
H	 2.7092385818	 0.6286593965	 0.078669027	 0.049873
