18
gdb 17285	4.46281	1.24118	1.16086	2.4225	68.05	-0.2364	0.074	0.3104	1090.5898	0.152095	-384.885758	-384.877465	-384.876521	-384.919787	30.743	
O	-0.1156442375	 1.3650001354	 0.1663992163	-0.433444
C	-0.0696898157	-0.0248536302	 0.2469027654	 0.118792
C	-0.982091535	-0.7525842401	 1.2139538303	-0.346975
C	-1.2379591078	-0.8028666548	-0.2795330592	 0.059612
O	-2.2333316149	 0.0064086298	-0.8392037253	-0.26959
C	-3.533880627	-0.5068241265	-0.7420746568	 0.155354
C	-4.4176987717	-0.104468072	 0.4075971455	-0.282901
C	-4.6464633605	 0.4580971177	-0.9830403323	-0.293512
H	-0.9220440777	 1.5811642622	-0.3200101593	 0.292723
H	 0.9307969691	-0.4157235558	 0.0851618533	 0.099597
H	-0.627956305	-1.652447173	 1.7059449198	 0.111807
H	-1.6405194637	-0.1288815083	 1.8068676367	 0.122984
H	-1.0753518059	-1.7390225365	-0.8125278227	 0.092646
H	-3.6303321665	-1.5182400235	-1.1343155695	 0.090603
H	-5.1178787007	-0.830966211	 0.8050508353	 0.116425
H	-3.9960641573	 0.5704887343	 1.1427661249	 0.122103
H	-4.363374089	 1.4915214176	-1.1486344657	 0.124976
H	-5.5050886733	 0.1259617845	-1.5551440866	 0.1188
