14
gdb 5710	4.98397	2.04869	1.47888	3.8472	63.25	-0.2152	0.0242	0.2393	791.6592	0.110862	-378.740848	-378.734716	-378.733772	-378.771284	22.896	
C	-0.0640896644	 1.5154553759	 0.1018260393	-0.168844
O	 1.2580725701	 1.9104490817	-0.303129976	-0.284122
C	 2.1133366029	 0.7858988308	-0.6104020534	-0.173458
C	 1.2307371942	-0.3950790091	-0.3701787036	 0.243122
C	 0.0067754622	 0.0308568002	 0.0307063788	 0.258514
N	-0.7369234165	-1.1035937917	 0.2285941257	-0.375622
C	 0.0985618075	-2.1576066758	-0.070376265	-0.01205
N	 1.3005900472	-1.7619610417	-0.4371019913	-0.337287
H	-0.2682589991	 1.905888495	 1.1106109002	 0.109997
H	-0.8030961225	 1.9614107923	-0.5813762559	 0.109997
H	 2.4609069519	 0.8739844756	-1.648975218	 0.114748
H	 2.995838361	 0.8184383131	 0.0433013828	 0.114749
H	-1.6943912269	-1.1737993922	 0.5290385888	 0.268768
H	-0.2353845776	-3.182112324	 0.0014353578	 0.131489
