18
gdb 26237	3.35719	1.05136	0.96012	1.9671	75.18	-0.2335	0.0032	0.2367	1306.5458	0.146693	-439.129422	-439.120135	-439.11919	-439.164083	33.259	
C	-0.090488441	 1.5550427201	 0.3529518577	-0.401939
C	-0.0506416804	 0.0589683261	 0.0175423358	 0.000408
O	 0.7358143853	-0.6621128565	 0.9658754218	-0.424534
C	-1.4154711856	-0.5305883781	-0.1234055229	 0.343369
C	-2.1116932527	-1.1490836562	-1.1045869544	-0.218813
N	-3.3733440025	-1.5003258257	-0.6354545811	-0.29901
C	-3.3893863914	-1.0935877108	 0.5935037562	 0.381669
C	-4.4805580858	-1.2080484277	 1.5950628903	-0.48962
O	-2.2337832656	-0.4866177712	 0.983481158	-0.227609
H	 0.9289119832	 1.9329755374	 0.4644117385	 0.126636
H	-0.5963889653	 2.1207100554	-0.4354648069	 0.123095
H	-0.6312096448	 1.7242389186	 1.2900096561	 0.121141
H	 0.460392298	-0.0843665648	-0.9401881887	 0.107384
H	 0.271038096	-0.6266426919	 1.8094880367	 0.284734
H	-1.7995780516	-1.368325279	-2.1134505496	 0.123929
H	-4.1587327999	-1.7891216785	 2.4656939691	 0.144951
H	-4.7932609431	-0.2219944743	 1.9541307493	 0.144737
H	-5.3326988328	-1.705236133	 1.1314385941	 0.159474
