16
gdb 62753	2.56976	1.56406	1.26868	3.3474	65.41	-0.2346	-0.0012	0.2334	1020.9471	0.121784	-475.003739	-474.994727	-474.993783	-475.036957	33.486	
C	-0.0066654199	 1.5462721622	-0.0071459606	-0.469462
C	 0.061416288	 0.0365448161	 0.0164679276	 0.326876
O	-1.0827544942	-0.6045143462	-0.4700143568	-0.446773
C	 1.3243030147	-0.7453804127	-0.1691861687	-0.032817
O	 2.4374453	-0.0069997881	 0.3956181512	-0.260845
C	 1.8885918185	-0.1119873949	 1.6745165378	 0.400922
O	 2.3942351187	 0.1931679732	 2.7050956428	-0.330254
C	 0.6240634012	-0.7908331443	 1.1967068176	 0.075989
N	-0.1435999002	-1.7718332917	 1.8520629606	-0.594572
H	 0.9183985328	 2.0006566948	 0.3498386439	 0.156688
H	-0.170459959	 1.8933327878	-1.03517494	 0.115738
H	-0.8404149762	 1.8985100035	 0.6070113357	 0.133629
H	-1.2660637661	-0.2467304257	-1.3461600838	 0.291534
H	 1.5313023825	-1.5192590396	-0.8940895955	 0.134544
H	 0.394932293	-2.2530170602	 2.5623750582	 0.249564
H	-0.978536744	-1.3862772241	 2.27674675	 0.24924
