16
gdb 75850	3.24181	1.37818	0.97882	1.3388	81.6	-0.2238	-0.0412	0.1826	1154.691	0.124067	-396.921982	-396.913198	-396.912254	-396.956196	31.493	
C	-0.0516279689	 1.4488489201	 0.0090064177	-0.3367
N	 0.0023096912	 0.0031937929	-0.0009272829	-0.117014
C	-1.1298511382	-0.8024220267	 0.0029500567	 0.333722
N	-2.3067549915	-0.3188354579	 0.0136571221	-0.561211
C	-0.5647117516	-2.221632842	-0.0079308081	-0.282695
N	 0.8938323096	-2.0904365301	-0.0159868197	-0.322241
C	 1.126058139	-0.8247651255	-0.0112396943	 0.246221
C	 2.4345152606	-0.2576143903	-0.0164858692	 0.258527
C	 3.5325828504	 0.2313677268	-0.0208035127	-0.375068
H	 0.9647732556	 1.8431553767	 0.0001998591	 0.143626
H	-0.596417298	 1.8131089516	-0.867292907	 0.148187
H	-0.5768379347	 1.8024148834	 0.9015771238	 0.14786
H	-3.001390438	-1.0642413384	 0.014798682	 0.220387
H	-0.8915986075	-2.7890923654	 0.871767277	 0.143077
H	-0.9020126506	-2.7795089776	-0.8898539258	 0.143097
H	 4.5100181024	 0.6483167927	-0.0249047388	 0.210225
