13
gdb 124385	5.08217	1.03038	0.97885	1.687	59.77	-0.2904	-0.0349	0.2556	1184.3059	0.088194	-489.907889	-489.899994	-489.89905	-489.941934	26.763	
C	-0.1618675665	 1.4505022932	-0.1157710448	-0.486887
C	 0.2481681173	 0.0095560523	-0.0156094048	 0.422563
O	 1.1559429701	-0.4558735362	 0.6019751217	-0.30222
O	-0.6235952759	-0.7697549214	-0.7724443281	-0.27289
C	-0.332967484	-2.0844036786	-0.8821618077	 0.483741
N	-1.094216899	-2.9876394677	-0.3264881245	-0.179324
O	-0.5029223499	-4.1803978298	-0.7538016611	-0.150246
C	 0.5411653703	-3.8339218995	-1.5096579012	 0.127287
N	 0.7071823921	-2.5568611051	-1.6387593911	-0.306674
H	 0.4785969211	 2.0535160394	 0.5259204902	 0.158862
H	-0.0755574388	 1.7856490627	-1.153451313	 0.164628
H	-1.208959456	 1.5623797511	 0.1777777995	 0.164406
H	 1.1302257391	-4.6332232804	-1.9345931351	 0.176756
