18
gdb 36074	3.69224	1.23646	1.14543	1.7682	80.35	-0.236	0.051	0.287	1124.0869	0.147697	-364.710329	-364.702507	-364.701562	-364.743025	30.517	
C	-0.055141346	-1.2038348647	-0.3612927413	-0.450005
C	-0.0486495233	-0.0190764525	-0.1609541479	 0.30333
C	-0.013631472	 1.4194505143	 0.0967255859	-0.50743
C	 1.3810062972	 1.9664901118	 0.1740811378	 0.380805
C	 1.9634608029	 3.3239522748	 0.0578050168	-0.102334
C	 2.8786012113	 3.1059807739	 1.2600611632	-0.241074
C	 2.6902559073	 1.5889421998	 0.985191111	-0.125124
C	 3.3328332697	 1.4256381685	-0.3999977938	-0.149056
N	 2.2467373455	 2.2739167526	-0.995733405	-0.179672
H	-0.0719053944	-2.2491358498	-0.5468256598	 0.197732
H	-0.5442818511	 1.9545821419	-0.7009527902	 0.147112
H	-0.5506189848	 1.6365668153	 1.0299660356	 0.135193
H	 1.5112391389	 4.2391820748	-0.3020791529	 0.097875
H	 3.8998708718	 3.5013077375	 1.2310174822	 0.096055
H	 2.3856481559	 3.4215531136	 2.1832844252	 0.105825
H	 2.7960187228	 0.8530080328	 1.7796106314	 0.079193
H	 4.3543598301	 1.7971409895	-0.5452393792	 0.093059
H	 3.2374095481	 0.4180196959	-0.8100492991	 0.118514
