18
gdb 54627	3.68591	1.21506	1.0621	3.7048	79.25	-0.2336	-0.0297	0.2039	1160.2454	0.149665	-401.953757	-401.946014	-401.94507	-401.986301	30.462	
N	-0.0412585862	 1.3238115087	 0.031360476	-0.543248
C	 0.0101090994	-0.0488581412	 0.0197982548	 0.258275
O	 1.0685236359	-0.6545046678	 0.0235278998	-0.365635
C	-1.2985508499	-0.7357078367	 0.0338982647	 0.291686
C	-1.4991925576	-2.0615716219	-0.008127135	-0.16179
C	-3.0187787176	-2.2043627726	 0.0314435045	-0.070665
C	-3.4304388047	-1.0771607576	-0.9826505243	-0.207257
C	-2.735981194	-0.1794649471	 0.0971868279	-0.158252
C	-3.3647064433	-1.1556550061	 1.1489976083	-0.205876
H	 0.8311012985	 1.8073173549	-0.1108776216	 0.257991
H	-0.8900274635	 1.816070787	-0.1865484746	 0.254418
H	-0.7591068078	-2.8468252455	-0.0572265828	 0.13073
H	-3.4545904667	-3.2019993946	 0.0079667793	 0.069272
H	-2.982529818	-1.1074714512	-1.9785908692	 0.09957
H	-4.5127235898	-0.926654984	-1.0435894545	 0.097087
H	-2.8956604286	 0.8981904679	 0.1470975341	 0.053605
H	-4.4408255242	-1.0118983728	 1.2864520105	 0.096964
H	-2.8560777319	-1.2566010293	 2.110208152	 0.103126
