17
gdb 80897	2.61593	1.78983	1.50499	2.3935	66.09	-0.2545	0.06	0.3145	924.1427	0.136176	-458.902506	-458.89518	-458.894236	-458.933672	30.166	
O	-0.0850327274	 1.421264221	-0.0462239979	-0.464715
C	 0.0491676528	 0.012849267	-0.0163492753	 0.08305
C	 0.1341815827	-0.6278479179	 1.4073539489	-0.146216
C	-1.3817283493	-0.2604274716	 1.5572167226	-0.298204
C	-1.3716152016	-0.6080830795	 0.0099419909	 0.386566
O	-2.354248006	-0.2228197164	-0.8841184745	-0.500535
C	-1.0742237342	-2.1163872146	 0.0895473709	-0.010292
O	 0.2582186816	-2.5100617907	-0.2855015869	-0.258466
C	 0.0012980533	-2.1324017283	 1.0798844487	 0.039755
H	 0.7941343804	 1.8088868915	-0.0730157655	 0.290939
H	 0.7477178659	-0.3430266507	-0.7741210848	 0.094734
H	 0.8838488685	-0.3145613267	 2.132178389	 0.06778
H	-1.992344704	-0.8890647704	 2.2105149868	 0.092847
H	-1.5531514274	 0.7972626694	 1.755464588	 0.113743
H	-2.2911140411	 0.7362738815	-0.971257669	 0.291543
H	-1.8584237592	-2.855528945	-0.0302702039	 0.110569
H	 0.1559240049	-2.9034788287	 1.827086882	 0.106903
