21
gdb 115002	2.23607	1.37329	1.05481	0.8927	79.49	-0.2431	0.0172	0.2603	1225.5885	0.18155	-424.232684	-424.223145	-424.222201	-424.266585	36.629	
C	 0.3997884767	 1.5403631274	-0.3708924285	-0.407182
C	 0.0409115675	 0.0892856458	-0.0309992385	 0.331291
O	-1.3457336831	 0.130843092	 0.3120620046	-0.477752
C	 0.336035351	-0.8307668665	-1.2013052493	-0.133927
C	 1.3931611493	-1.6099297731	-0.9830489208	-0.082788
C	 2.0026591003	-1.3676606794	 0.3769870016	-0.265063
C	 0.9036262634	-0.5570021297	 1.1037246085	 0.002675
C	 1.4049440279	 0.3842207958	 2.1850752926	-0.119782
O	 2.0291137424	-0.4135298246	 3.1848713929	-0.426146
H	 1.4640773362	 1.640149007	-0.5994472738	 0.115873
H	-0.1728092534	 1.8651304894	-1.2441300329	 0.119098
H	 0.1487706708	 2.206072838	 0.4601951679	 0.121797
H	-1.6404211812	-0.779106525	 0.4278287891	 0.271233
H	-0.2533654663	-0.7816998376	-2.1109958071	 0.095029
H	 1.8087304596	-2.3162027415	-1.6942073422	 0.094202
H	 2.2681235355	-2.2869768243	 0.907640577	 0.114189
H	 2.933306016	-0.787855698	 0.2891496871	 0.105642
H	 0.2426262189	-1.2783784074	 1.6017914206	 0.075452
H	 2.1171928567	 1.1101374972	 1.7626060649	 0.084266
H	 0.5574672379	 0.951184995	 2.6008988844	 0.096504
H	 2.362634804	 0.1721327295	 3.8706755619	 0.285391
