23
gdb 63401	4.00083	0.81899	0.81534	1.3029	86.71	-0.2502	0.0733	0.3234	1553.8523	0.204649	-388.273176	-388.263583	-388.262639	-388.307559	37.337	
C	-0.2043988306	 1.5386672866	-0.0528524301	-0.44733
C	-0.0343147023	 0.022647955	-0.0436710934	 0.42417
O	-1.2689507905	-0.6270182844	-0.2924548546	-0.476773
C	 1.1943129122	-0.4758126888	-0.8670013153	-0.305208
C	 1.9993310902	-0.5881117902	 0.4613707793	 0.041019
C	 0.6477258022	-0.5282880057	 1.2320738724	-0.282061
C	 2.8913260377	-1.7812921267	 0.6647054317	 0.022387
C	 4.3458686355	-1.7318527283	 0.2645632884	-0.272624
C	 3.9658582203	-1.7673622191	 1.7244553492	-0.272241
H	 0.7334489097	 2.0506615365	 0.1853969764	 0.118278
H	-0.525016392	 1.887419502	-1.0431362915	 0.103054
H	-0.9595606921	 1.8405072571	 0.6797042743	 0.122509
H	-1.6557585115	-0.2415198374	-1.0862904268	 0.270345
H	 0.9833418765	-1.4632528982	-1.2874419185	 0.099408
H	 1.5866879847	 0.1758813138	-1.65299922	 0.086049
H	 2.5776138456	 0.3270351837	 0.6339534574	 0.059068
H	 0.5935670172	 0.0793734437	 2.1391133088	 0.091985
H	 0.2674485282	-1.5303034218	 1.4491429428	 0.107435
H	 2.391802249	-2.7358477701	 0.5117975848	 0.076901
H	 4.7930789351	-2.6171969069	-0.1738170214	 0.10907
H	 4.7278783248	-0.7985521262	-0.1367118288	 0.107335
H	 4.0932859469	-0.8580021417	 2.3030091435	 0.107785
H	 4.1530708631	-2.676949013	 2.2844445618	 0.10944
