19
gdb 54416	2.48279	1.56201	1.21471	2.7691	77.54	-0.2261	-0.016	0.2101	1094.7464	0.157478	-423.024487	-423.015549	-423.014605	-423.058134	33.912	
C	-0.4949831261	 1.2127803608	 0.2061780859	-0.48768
C	 0.2119694101	-0.0989282843	-0.0657711328	 0.299347
O	 0.7688117046	-0.7235404307	 0.8325486091	-0.368368
C	 0.1517142723	-0.6645763906	-1.4133039797	 0.137317
C	 1.2311730687	-1.6542538389	-1.8672264582	-0.379864
C	-0.0925521003	-2.2197073181	-1.5467742434	 0.416536
O	-0.3313214289	-3.0858454623	-0.5152148734	-0.458007
C	-1.1222963654	-1.9652921594	-2.6428675517	-0.268825
C	-0.8325709199	-0.4252655835	-2.5650032922	-0.30809
H	-0.1632891697	 1.9875300938	-0.4933570376	 0.13738
H	-1.5757503411	 1.0961629658	 0.0642493594	 0.142567
H	-0.3023622816	 1.5258085948	 1.2329020249	 0.142847
H	 1.5833584483	-1.5709232207	-2.8935512279	 0.112015
H	 1.9994833961	-1.8298321634	-1.1225054709	 0.137724
H	 0.1651095848	-2.7493904316	 0.249971677	 0.304052
H	-0.9366629246	-2.464380301	-3.598823959	 0.106308
H	-2.1300845975	-2.2081142002	-2.3019447174	 0.121477
H	-1.7159042548	 0.1492030945	-2.2797725569	 0.11048
H	-0.4001653751	 0.026219675	-3.4639752454	 0.102785
