19
gdb 67752	2.84912	1.96162	1.38445	0.6614	86.74	-0.1887	-0.0148	0.1739	971.7818	0.160264	-348.694468	-348.687213	-348.686269	-348.7255	30.152	
C	 0.1138947167	 1.512189315	 0.0046687116	-0.480088
C	-0.0813214727	 0.0115945759	-0.0490601643	 0.304829
C	 0.593092135	-0.7135771893	-1.2055828016	-0.136206
C	-0.0970807445	-1.7973276032	-1.5992089756	-0.160054
C	-1.0784252042	-2.0049949345	-0.4817444692	 0.05449
C	-0.7745174122	-2.8545232389	 0.5170191644	-0.092975
C	-0.5484203497	-2.0841837915	 1.8133880086	-0.269127
C	-0.6357323934	-0.6315542494	 1.3257472308	-0.085715
C	-1.4263188694	-0.6237124254	 0.0650285979	-0.148862
H	 1.1429634436	 1.7730811321	 0.2784165783	 0.117722
H	-0.0930297409	 1.9637775234	-0.9727137125	 0.119212
H	-0.5527928144	 1.9811243338	 0.7347109056	 0.115314
H	 1.4975144066	-0.3375873128	-1.671711913	 0.093852
H	 0.1756206767	-2.5029254797	-2.3723821467	 0.107443
H	-0.3013463926	-3.8184377749	 0.3555304103	 0.091787
H	-1.2643249618	-2.2612852848	 2.6320135661	 0.10124
H	 0.4386000566	-2.3646867708	 2.2061426853	 0.110415
H	-0.7887603939	 0.1378284724	 2.0781876433	 0.077967
H	-2.3797068555	-0.1365743875	-0.1250758294	 0.078756
