13
gdb 123497	4.25595	1.72955	1.22979	3.4072	73.2	-0.2398	-0.0609	0.1789	907.1892	0.093827	-411.821562	-411.815873	-411.814929	-411.851595	22.536	
C	-0.0376835861	 1.3036480082	 0.0101677394	-0.195521
C	 1.2416333944	 1.8393828662	 0.0002967778	 0.399327
C	 1.9065639184	 3.087310596	 0.0006065903	-0.235305
C	 3.2730381244	 3.0800794908	-0.012928905	 0.001052
N	 4.0306602506	 1.9342160001	-0.0266979128	-0.276136
C	 3.4130341639	 0.7971145124	-0.026876388	 0.116213
N	 2.0484496239	 0.7124654768	-0.0138729959	-0.041899
N	 1.3048041392	-0.4270402986	-0.0125852785	-0.161718
N	 0.0557725924	-0.046450018	 0.0008368625	-0.165229
H	-0.9893384936	 1.8081800095	 0.0224388483	 0.136427
H	 1.3420305618	 4.0110722543	 0.0113452253	 0.12873
H	 3.8372564323	 4.0061255379	-0.0133143537	 0.129324
H	 3.9435198185	-0.1488041056	-0.0372333398	 0.164735
