16
gdb 113286	2.23351	1.32988	1.11211	2.6957	72.7	-0.2665	-0.0465	0.22	1155.4236	0.12164	-437.881018	-437.87178	-437.870836	-437.915292	32.404	
C	 0.2494651455	 0.9632448439	-0.2605853966	-0.245292
O	-0.3851687938	-0.1033401498	 0.4326478663	-0.202099
C	 0.3890860658	-0.6841689848	 1.3899522372	 0.116759
C	 0.0736788315	-2.0554386827	 1.8075411859	-0.348052
C	 1.3661488846	-1.8812716185	 0.9963658718	 0.001089
C	 1.3506432823	-2.3375761802	-0.4262470954	 0.095579
O	 0.3420618241	-2.5873735359	-1.0364647635	-0.255495
C	 2.632313093	-1.9106518794	 1.6660430787	 0.22211
N	 3.6607690662	-1.9226988928	 2.1976046398	-0.332209
H	 1.1074418345	 0.6014041061	-0.8418832691	 0.124554
H	-0.4951865235	 1.3827393916	-0.9377970099	 0.148601
H	 0.5918517782	 1.7409777908	 0.4353427719	 0.123657
H	 0.8469661371	-0.004960581	 2.1102379223	 0.126077
H	 0.1776967884	-2.3295282706	 2.850019309	 0.151379
H	-0.7064042893	-2.5553594827	 1.2431385429	 0.171223
H	 2.3549665154	-2.4130605842	-0.8908834913	 0.102119
