16
gdb 45719	3.40262	1.17274	0.89839	2.8066	77.84	-0.2254	-0.0116	0.2138	1230.1115	0.124866	-400.762685	-400.7546	-400.753656	-400.795483	30.888	
O	 0.0094801017	-0.0767253419	 0.0330777279	-0.35354
C	-0.0209823106	 1.1350732985	 0.0453845205	 0.385033
C	-1.3064960738	 1.9535487804	 0.0578513325	-0.321547
C	-1.1817500713	 3.29854348	 0.8159121021	-0.238794
C	 0.0903799761	 4.0087697872	 0.3903595292	-0.113746
C	 1.1527458876	 3.2917069082	 0.0247864476	 0.005381
N	 1.1299402411	 1.8943774565	-0.0220064735	-0.329739
C	-2.3752830163	 4.1184929738	 0.6257948563	 0.305295
C	-3.359108617	 4.7872859309	 0.4560444317	-0.438279
H	-1.5600527507	 2.1622579718	-0.9892486499	 0.1427
H	-2.1008440188	 1.3303232433	 0.4696871818	 0.142017
H	-1.1013996605	 3.0725630652	 1.8924093945	 0.124697
H	 0.1316938852	 5.0888995229	 0.4144194336	 0.112682
H	 2.0995686396	 3.7411676075	-0.2501776674	 0.123361
H	 1.9881447328	 1.3757445771	-0.1315476553	 0.257149
H	-4.2291730651	 5.3791158785	 0.3133492483	 0.197331
