20
gdb 64774	2.87774	1.17366	1.04382	4.4124	78.18	-0.2634	0.0277	0.2911	1225.664	0.171462	-403.175329	-403.166259	-403.165314	-403.209645	33.521	
C	-0.2075585084	 1.7044099348	 0.0065695129	-0.464038
C	 0.0721338224	 0.2007301842	 0.0097390311	 0.295236
C	-1.2497812446	-0.6176044726	 0.0161670425	-0.375658
C	-2.121008236	-0.3067615779	 1.1480683871	 0.266092
N	-2.7943557742	-0.0486161529	 2.0515652233	-0.3188
C	 0.9385278932	-0.271156664	-1.1946482401	-0.296065
C	 1.9338911749	-1.2870615491	-0.5749358831	-0.076088
O	 1.5213518049	-1.4822156467	 0.7740897544	-0.248028
C	 0.9537804942	-0.254397788	 1.191961358	-0.120105
H	 0.7293806603	 2.2699637859	 0.0025841441	 0.119452
H	-0.7802667602	 1.9994110268	-0.8792509202	 0.120574
H	-0.7818112178	 2.0054100372	 0.888343351	 0.145311
H	-1.8071841374	-0.4362750728	-0.9097382905	 0.145076
H	-1.010088812	-1.685901614	 0.0492292025	 0.162174
H	 0.3267315823	-0.7203972816	-1.9819007861	 0.107376
H	 1.4669163257	 0.5750998691	-1.6405294814	 0.108374
H	 1.9326067686	-2.262309089	-1.0682541478	 0.113204
H	 2.9598752005	-0.8906167491	-0.6046739115	 0.098133
H	 1.7355666047	 0.4982527671	 1.3898236375	 0.087325
H	 0.3992914788	-0.4295798174	 2.1174892664	 0.130456
