17
gdb 79093	3.05472	1.64726	1.42251	2.0079	72.08	-0.2149	0.0106	0.2255	949.46	0.136149	-421.765702	-421.758326	-421.757382	-421.796946	30.105	
O	-0.0667821661	 1.4552746842	-0.09164907	-0.44986
C	 0.013858407	 0.0488619212	-0.0063193022	 0.039102
C	-0.0061277267	-0.6364268994	 1.3773273284	-0.104414
C	-1.4987914324	-0.1987255861	 1.6060391981	-0.135032
C	-2.1826329617	-1.3444297399	 2.321344749	-0.110024
C	-1.6648666952	-2.4385829851	 1.7577778698	-0.105054
C	-0.6917463985	-1.8992457253	 0.7254983673	-0.114128
C	-1.3563858758	-0.6390517679	 0.0714359157	 0.396606
O	-2.3236155346	-0.6849685999	-0.9027513503	-0.475502
H	 0.817692858	 1.8204470281	 0.0048193952	 0.28637
H	 0.7193649476	-0.362897181	-0.7406928854	 0.064342
H	 0.7785385036	-0.658005148	 2.133637891	 0.074941
H	-1.7226513891	 0.8359521029	 1.8538311286	 0.073753
H	-2.9336259296	-1.2577902287	 3.09370094	 0.099799
H	-1.8703503872	-3.4819894352	 1.9489679936	 0.102193
H	-0.1032016624	-2.5783345134	 0.1074563545	 0.063426
H	-2.4242858069	 0.2047772934	-1.2609074332	 0.293482
