17
gdb 10512	2.75684	1.91435	1.3809	3.4742	64.66	-0.2493	-0.0379	0.2113	930.416	0.141407	-400.977205	-400.969042	-400.968098	-401.009977	29.807	
O	 0.4508703114	 1.0409178994	 0.4414134084	-0.418663
C	 0.0992224878	-0.0751236983	-0.3484354568	-0.159675
C	-1.3577873381	-0.5060465662	-0.1550955625	 0.317452
C	-2.389487675	 0.0337765516	-1.1285727328	-0.370027
C	-2.5102393226	 1.5361135673	-1.2188614563	 0.174632
O	-1.7644940323	 2.3465993758	-0.7206082272	-0.248943
C	-1.61076096	-1.8275865092	 0.4858085959	-0.283615
N	-1.8368841054	-0.5842160543	 1.2330786729	-0.336875
H	-0.1714979227	 1.7450099185	 0.2009126841	 0.301359
H	 0.2895419698	 0.1046233185	-1.4194091639	 0.083868
H	 0.7667227911	-0.884826873	-0.0358876086	 0.104797
H	-2.1967539509	-0.3211477974	-2.1539763381	 0.132144
H	-3.3858188941	-0.3492913008	-0.8727171569	 0.136991
H	-3.3763161996	 1.8846512568	-1.8228218356	 0.095684
H	-2.5112850858	-2.3897494963	 0.249243773	 0.111331
H	-0.7488851491	-2.44382712	 0.7285240824	 0.115984
H	-1.0568261245	-0.3767171925	 1.8535626219	 0.243558
