18
gdb 124817	4.50742	0.94751	0.81357	6.3444	74.12	-0.243	0.0118	0.2548	1389.084	0.148658	-435.273541	-435.264911	-435.263967	-435.307249	31.865	
C	-0.1500575705	 1.5543968769	 0.0597080051	-0.405338
C	-0.1559043238	 0.0318305512	-0.0487006092	 0.121852
O	-1.4233797375	-0.4419272051	-0.5253135806	-0.436309
C	 0.8918048154	-0.4832629361	-1.0443633833	-0.313235
C	 1.0022718124	-1.9736255804	-1.0903590717	 0.339393
C	 2.0687153225	-2.8454723003	-1.0920239681	-0.167129
N	 1.6027388115	-4.123648099	-1.1640519762	-0.193238
N	 0.3001819256	-4.0973160489	-1.2055682057	-0.122529
N	-0.0664957091	-2.8041972354	-1.1688633768	-0.216373
H	 0.8100420819	 1.9166309078	 0.4406557744	 0.125077
H	-0.3346672667	 2.0098272712	-0.9181485833	 0.130915
H	-0.9299351146	 1.8970200179	 0.748752216	 0.11245
H	 0.0536910855	-0.407938083	 0.9384258547	 0.08502
H	-2.1007295403	-0.1788936489	 0.1057665288	 0.290828
H	 0.6316494331	-0.0875591322	-2.0353331293	 0.129476
H	 1.869048052	-0.0679512115	-0.782552616	 0.122901
H	 3.1241461726	-2.62855951	-1.0475310143	 0.114555
H	-1.0363180801	-2.525346014	-1.1413795846	 0.281684
