21
gdb 94835	3.59759	1.16174	1.01288	2.4578	79.14	-0.2429	0.0784	0.3213	1251.3785	0.182952	-424.22232	-424.213847	-424.212902	-424.255125	33.233	
C	 0.059794545	 1.5272140702	 0.079790872	-0.40251
C	 0.0152906768	 0.0094866625	-0.013466097	 0.15107
C	 0.6806529119	-0.5380534554	-1.2829346586	-0.202803
C	 0.6827736834	-2.075551025	-1.2745988846	-0.299539
C	 1.2438186786	-2.5789528708	 0.0396136762	 0.425206
C	 1.8530748265	-3.906403811	 0.1614980472	-0.24808
O	 2.6712679402	-2.7362790101	 0.0879567108	-0.273563
C	 0.6268995187	-1.9050319591	 1.2488515915	-0.142162
O	 0.6734048883	-0.4945143352	 1.1468189419	-0.25672
H	 1.0966160746	 1.8771650854	 0.0716147071	 0.126779
H	-0.4680192034	 1.9811677609	-0.7642536256	 0.112191
H	-0.4081908697	 1.8655906217	 1.0079539654	 0.122808
H	-1.0387878037	-0.3267601108	 0.0042681762	 0.056623
H	 0.1613282647	-0.1586662209	-2.1698689152	 0.093152
H	 1.7127271424	-0.1697504852	-1.3199690536	 0.116005
H	-0.3455313879	-2.4457032282	-1.3865392615	 0.099694
H	 1.2696517553	-2.478001426	-2.105468736	 0.106767
H	 1.8562432701	-4.4199274816	 1.123043853	 0.109982
H	 1.8885672107	-4.5615188488	-0.7087657924	 0.109628
H	-0.4179954715	-2.2473128452	 1.3601607674	 0.083244
H	 1.1799942192	-2.1731865174	 2.1526888559	 0.112228
