18
gdb 114189	3.36851	1.08327	0.91846	4.0796	75.65	-0.2468	0.0122	0.259	1312.9704	0.146636	-439.080664	-439.071671	-439.070727	-439.11522	32.048	
C	 0.2134048777	 1.5793145074	-0.0668825619	-0.378994
C	-0.0459928311	 0.0968128327	 0.2147772471	-0.156224
N	 0.6784121345	-0.4023197991	 1.3601729469	-0.098402
C	 2.1119084385	-0.6320727639	 1.5925736681	-0.261988
C	 1.6869799075	-1.2578000708	 2.9365949334	 0.285049
C	 2.2292669114	-2.3701187176	 3.7143999454	-0.254821
O	 2.2896344984	-1.0140912224	 4.1819097465	-0.252421
C	 0.2362552242	-0.9265971415	 2.5562122934	 0.356071
O	-0.8598147646	-1.0622752218	 3.0316468628	-0.379001
H	 1.2714534842	 1.7652938359	-0.2774609267	 0.122119
H	-0.3630122015	 1.9043806159	-0.9382781129	 0.123997
H	-0.0781632667	 2.1935511409	 0.7896395107	 0.135562
H	-1.1049309488	-0.0738399221	 0.4327869264	 0.143491
H	 0.2081877592	-0.5044369776	-0.6692565445	 0.109894
H	 2.5793840793	-1.3127396796	 0.8715658628	 0.11468
H	 2.7105731588	 0.279331699	 1.6903573508	 0.126736
H	 1.5463596464	-3.0190075542	 4.2592226744	 0.140143
H	 3.1843891926	-2.8088377811	 3.4304120572	 0.12411
