17
gdb 88418	2.45505	1.39944	1.0121	1.9365	71.93	-0.2556	-0.034	0.2215	1167.1596	0.136098	-455.147869	-455.139331	-455.138386	-455.181274	31.62	
O	-0.2616857003	 1.1442488173	-0.99661393	-0.42568
C	-0.2960836617	-0.1636579005	-0.5506974685	 0.126301
C	-0.1915249531	-0.3898485133	 0.9258319763	-0.331925
C	-1.5031335257	-0.6647445227	 0.2115592258	-0.044993
N	-2.631853937	 0.2054516879	 0.45354221	-0.068522
C	-3.3540618069	 0.7828414252	-0.5834894074	 0.112016
N	-2.9463527115	 0.7730357203	-1.7903041472	-0.492876
C	-3.1304126339	 0.3247867359	 1.7491057928	 0.170391
O	-4.1185469332	 0.9451599099	 2.0571054316	-0.311282
H	-1.00470268	 1.2179974626	-1.6211575319	 0.300636
H	 0.1665948781	-0.9024833838	-1.2057014774	 0.092943
H	 0.3714256706	-1.2338400773	 1.3063580668	 0.124231
H	-0.1465293125	 0.5104805865	 1.5280618331	 0.137245
H	-1.7829439705	-1.7028176383	 0.051950618	 0.112877
H	-4.2799511129	 1.2300670011	-0.2199196085	 0.152748
H	-3.6217175683	 1.2387975414	-2.3924772635	 0.24011
H	-2.5002425813	-0.2218700723	 2.4706404102	 0.10578
