16
gdb 82019	2.56118	1.48554	1.30864	4.1533	68.77	-0.2843	0.0149	0.2992	1020.7678	0.123899	-437.859811	-437.851668	-437.850724	-437.892293	31.273	
O	 0.0006365315	 1.450068436	-0.0405778452	-0.423651
C	-0.0275482282	 0.0380569457	-0.020828516	 0.011207
C	-1.4044022425	-0.595524026	 0.0276371522	-0.04739
C	-2.2127142427	-0.2351500746	-1.1869261206	-0.304612
C	-1.1633980584	-1.292597275	-1.3238921499	-0.074123
C	 0.2155835217	-0.6148241509	-1.4561693735	 0.220957
O	 0.383962678	 0.3265494369	-2.4786492527	-0.466056
C	 1.3248739544	-1.5738086509	-1.4580622498	 0.251306
N	 2.1925977923	-2.3365738659	-1.4213589845	-0.338048
H	 0.8519239073	 1.7514917537	 0.2932486642	 0.303768
H	 0.6548693867	-0.3711582398	 0.7275374445	 0.106843
H	-1.8596625734	-0.9936227429	 0.924942763	 0.099706
H	-3.2331354126	-0.6022018879	-1.1758550807	 0.125427
H	-2.0883154947	 0.7235450258	-1.6778361063	 0.129466
H	-1.3740501911	-2.3139755423	-1.6101827211	 0.112224
H	 0.3307203918	 1.1891038081	-2.0365468534	 0.292973
