22
gdb 98441	2.89798	1.06739	1.02598	3.3283	83.25	-0.2364	0.038	0.2744	1338.4437	0.193342	-404.377902	-404.367589	-404.366645	-404.413876	37.234	
C	 0.1743396085	 1.4681464835	 0.0132332934	-0.334606
N	-0.0816991586	 0.060448233	 0.2430574914	-0.311457
C	-1.1806101687	-0.5831651611	-0.2528723829	 0.341997
O	-2.0368286561	-0.0203785462	-0.914432515	-0.386564
C	-1.2412121735	-2.0769012785	 0.0542470065	 0.242168
C	-0.4067568474	-2.8362349054	-0.9857817934	-0.443971
C	-0.9482091643	-2.529356591	 1.5250908692	-0.277379
C	-2.2348165057	-3.3977405052	 1.4847609547	-0.217383
C	-2.6827096546	-2.6450869654	 0.2029942437	-0.247836
H	 1.1117953957	 1.6223295731	-0.5335131744	 0.122538
H	-0.6534120224	 1.8516993634	-0.5845580263	 0.170947
H	 0.2240158426	 2.0262143187	 0.9552092721	 0.122304
H	 0.5736500769	-0.4671095579	 0.795291131	 0.246231
H	 0.649410149	-2.5481715743	-0.9410448166	 0.107901
H	-0.46804215	-3.9167309048	-0.8175460807	 0.116228
H	-0.7738720964	-2.6282225188	-1.9958112417	 0.135016
H	-0.0007174262	-3.0488830153	 1.6989242381	 0.091623
H	-1.0282748943	-1.7027254514	 2.236937427	 0.102385
H	-2.0196178568	-4.4537321449	 1.3030283343	 0.103257
H	-2.8951713004	-3.3305423976	 2.3518409632	 0.101098
H	-3.4063298629	-1.8511990148	 0.3958990344	 0.118061
H	-3.0502394844	-3.2503624892	-0.6290410983	 0.097444
