18
gdb 31139	1.97947	1.67692	0.97173	1.9251	74.76	-0.171	0.0448	0.2158	1207.7498	0.146139	-439.11601	-439.106007	-439.105063	-439.150985	35.973	
C	-0.0118670583	 1.635941916	-0.188998998	-0.360806
C	-0.0482970657	 0.1190497751	 0.0762452797	-0.340905
C	-1.4285580743	-0.4682743401	 0.0660110791	 0.010452
C	-2.1869531908	-0.8797921934	 1.1427966474	 0.317249
O	-1.9353066243	-0.9273507488	 2.4779325059	-0.437261
N	-3.3998546916	-1.3105564632	 0.7126377804	-0.303072
C	-3.466153478	-1.202251716	-0.6755000226	-0.190018
C	-2.2673528751	-0.6823788318	-1.080926444	 0.250948
O	-1.9480336978	-0.3919001521	-2.380446695	-0.45286
H	 1.0156900307	 2.0146495231	-0.2046671444	 0.106913
H	-0.4778086176	 1.8712780106	-1.1510797913	 0.123843
H	-0.5681901624	 2.1782002583	 0.5815917087	 0.119187
H	 0.5864399266	-0.3889218965	-0.6661006851	 0.096668
H	 0.4408547658	-0.0914886763	 1.0378936532	 0.080611
H	-1.0485253287	-0.5869413772	 2.6302670986	 0.304034
H	-4.1154308365	-1.6756808463	 1.3146041485	 0.264323
H	-4.3423417438	-1.4902229475	-1.228220989	 0.117435
H	-0.9929344982	-0.3006536938	-2.4444458321	 0.293259
