18
gdb 90746	2.83794	1.53633	1.2999	4.1191	72.65	-0.2544	0.0071	0.2615	1035.9681	0.149146	-439.085512	-439.077755	-439.076811	-439.11808	29.618	
C	 0.4085562174	 1.4546580959	-0.3165344419	-0.413392
C	 0.0793080524	 0.0250018017	 0.0601052218	 0.152728
O	 0.6679539996	-0.9389967992	-0.8533691897	-0.303814
C	 1.3174810375	-1.6446176886	 0.226373579	 0.050295
C	 0.779160607	-0.6483031875	 1.2727842903	-0.140135
C	 2.0335035554	 0.012926515	 1.8468023863	-0.109106
O	 3.1206242237	-0.3218719047	 0.9644911114	-0.24265
C	 2.8154643231	-1.4250539605	 0.2110861885	 0.404568
N	 3.6491251974	-2.1258043207	-0.4236384372	-0.531409
H	 1.4891162169	 1.6175528878	-0.3562694068	 0.137097
H	-0.0023447291	 1.6748429609	-1.3064969464	 0.135483
H	-0.0340264601	 2.1576687086	 0.3978929765	 0.116542
H	-1.0096761304	-0.1133687475	 0.0922908684	 0.082466
H	 1.0466984106	-2.701520814	 0.259941307	 0.104225
H	 0.1099955021	-1.0215782846	 2.0466174725	 0.092376
H	 1.9747417653	 1.1024449739	 1.9055396402	 0.124235
H	 2.2627280521	-0.3762512701	 2.8460092279	 0.116271
H	 4.5969298392	-1.7649592866	-0.2960609176	 0.224222
