13
gdb 127531	4.07143	1.17716	0.91846	2.6854	72.96	-0.2397	-0.0506	0.1892	1183.9919	0.088345	-452.749583	-452.741494	-452.74055	-452.782599	28.666	
C	 0.1325513472	 1.4165102765	-0.0494628218	-0.331601
N	 0.068364058	-0.0266308697	-0.0217635394	-0.086312
N	 0.1548836194	-0.7761249451	-1.1641697679	-0.288244
C	 0.059657162	-1.9968111175	-0.7442272667	 0.268606
O	-0.0851080499	-2.1038635156	 0.6101448621	-0.224182
C	-0.0808625606	-0.8003498485	 1.1033718165	 0.460015
O	-0.1873287296	-0.4954885053	 2.2564357035	-0.395816
C	 0.0911974673	-3.1650300394	-1.5273376825	 0.270086
C	 0.1155862477	-4.1756001229	-2.1780584737	-0.368655
H	 1.0870261177	 1.7491455148	-0.4660752833	 0.152968
H	-0.6852357903	 1.8244470767	-0.6495105471	 0.152968
H	 0.0403282772	 1.7591771843	 0.9819215751	 0.175117
H	 0.1379501239	-5.0656329385	-2.7583271247	 0.215051
