25
gdb 119137	2.25305	0.98589	0.85911	1.4281	88.5	-0.2596	0.0803	0.3399	1532.0606	0.227149	-389.477552	-389.466541	-389.465597	-389.513897	41.08	
C	 0.6763050072	-0.3364932354	 1.2963333836	-0.381548
C	 0.0448075466	-0.0718089404	-0.0821632645	-0.040543
C	 0.9845953763	-0.5595133679	-1.193772575	-0.407811
C	-1.3847287474	-0.6421319423	-0.1476652005	 0.384682
C	-2.4342552732	 0.1703204109	 0.6048349352	-0.261268
C	-2.7996624231	 1.495561299	-0.0607372594	-0.071619
O	-3.8183593071	 2.0990917688	 0.7257687043	-0.420974
C	-1.8910265173	-1.3677815406	-1.3778120134	-0.320169
C	-1.5663275209	-2.1434316537	-0.1261314179	-0.316977
H	 1.6462197257	 0.164376354	 1.3824976413	 0.106245
H	 0.0446099	 0.0232429989	 2.1136235003	 0.115306
H	 0.8388761709	-1.40888944	 1.4503383526	 0.113221
H	-0.0369704176	 1.0171144671	-0.1992728469	 0.070694
H	 1.0995874635	-1.6495427537	-1.1862982296	 0.115115
H	 0.6332637025	-0.2623737133	-2.185791546	 0.114804
H	 1.981897869	-0.1298931246	-1.055028424	 0.110193
H	-3.3567278544	-0.4147644445	 0.6936465973	 0.100581
H	-2.1061264469	 0.3791230839	 1.6297567647	 0.104635
H	-1.9182009252	 2.1517452636	-0.1290055469	 0.085091
H	-3.1463537427	 1.3085164266	-1.089375129	 0.085913
H	-4.0479431862	 2.9417062317	 0.3237213567	 0.284016
H	-2.9360891645	-1.2391110908	-1.6413364982	 0.105521
H	-1.2374242835	-1.4922349637	-2.2326200274	 0.108705
H	-0.6801175779	-2.7693192405	-0.1421411469	 0.107907
H	-2.3819670338	-2.5532890332	 0.4601129197	 0.108282
