18
gdb 115982	1.94758	1.74853	1.01666	5.1068	79.95	-0.2273	-0.0429	0.1844	1185.3463	0.148709	-398.15181	-398.142855	-398.141911	-398.186169	31.809	
C	-0.0263039065	 1.5211101312	-0.1084852538	-0.388337
C	 0.0618407622	-0.0074290273	-0.0118538376	-0.16938
N	 0.6802678106	-0.6600097782	-1.1560247652	-0.114807
C	 0.0533465736	-0.6887695167	-2.4827945727	-0.196939
C	 1.2273831341	-1.1917167978	-3.3663844184	-0.178949
N	 2.4517318258	-1.0295114757	-2.5591082285	-0.313646
C	 2.0400930181	-0.7444165638	-1.3785331272	 0.297426
C	 2.9514767112	-0.5502326645	-0.280006503	 0.267949
N	 3.6560851497	-0.3788742976	 0.6198194398	-0.335496
H	 0.970636957	 1.9664701887	-0.1785109685	 0.137193
H	-0.6081535663	 1.8408202183	-0.9781295156	 0.124903
H	-0.5147210701	 1.922748048	 0.7845493071	 0.128196
H	 0.6325407411	-0.2898912187	 0.8780156401	 0.142593
H	-0.9391117575	-0.4363579553	 0.1100163405	 0.116461
H	-0.8139734402	-1.3556315249	-2.4915252805	 0.119469
H	-0.2845277981	 0.3139602435	-2.7796191243	 0.112076
H	 1.1166935785	-2.253759896	-3.618065934	 0.126005
H	 1.3179368168	-0.643488793	-4.3075283183	 0.125283
