12
gdb 50053	3.27579	0.7813	0.65826	3.6161	75.54	-0.2822	-0.078	0.2042	1557.9978	0.075189	-435.444314	-435.43594	-435.434996	-435.478606	28.508	
O	-0.2153410996	 0.3209007958	 0.827021943	-0.228576
C	 0.3223055883	 0.7394427065	-0.1631632466	 0.145336
C	 1.3863833528	 1.7955943085	-0.1191251199	-0.038487
O	 2.3141952964	 1.7892332886	-1.2018095196	-0.209405
C	 1.4118559586	 2.8882962911	-1.1366485884	-0.187828
C	 0.426893312	 3.0084052299	-2.1754756845	 0.108561
C	-0.3871712247	 3.1625885359	-3.0545515854	 0.118154
C	-1.3104467818	 3.3276851705	-4.046545212	 0.214243
N	-2.0964664242	 3.469106281	-4.8897731962	-0.320955
H	 0.0846953282	 0.3746746511	-1.1840078914	 0.111156
H	 1.794908318	 2.0121421529	 0.8666445547	 0.137129
H	 1.8611257859	 3.8300108183	-0.8222631938	 0.150673
