13
gdb 28195	5.39515	1.3182	1.05936	1.6358	64.94	-0.1903	0.028	0.2183	1025.257	0.091842	-452.777447	-452.770678	-452.769734	-452.808504	26.163	
O	 0.0811125439	 1.2828172922	 0.1874218925	-0.421609
C	 0.0701013692	-0.0489338645	 0.0169671316	 0.419695
N	 0.096353275	-0.6927769569	-1.118260487	-0.451274
C	 0.068415426	-2.0321570676	-0.7265465899	 0.199257
C	 0.0265556691	-2.1191402088	 0.6314799784	 0.414778
N	 0.026464145	-0.8435312682	 1.1489726747	-0.460826
O	-0.0028967538	-3.3669547197	 1.1130722353	-0.214699
C	 0.0224006599	-4.15147586	-0.0423914419	-0.03288
C	 0.0656372732	-3.3957864458	-1.1775415271	-0.303607
H	 0.1120931316	 1.6654534471	-0.698943341	 0.316995
H	 0.0016984507	-0.5252680061	 2.1016975424	 0.282736
H	 0.0040438377	-5.211285005	 0.1423590372	 0.134832
H	 0.0912768623	-3.7815485467	-2.1844339552	 0.116603
