19
gdb 114789	3.43529	1.31478	1.25248	1.1921	73.21	-0.2235	0.0813	0.3048	1068.7341	0.160806	-422.983483	-422.975948	-422.975004	-423.015499	29.98	
O	-0.0656862827	 1.4838950866	 0.0574393742	-0.426406
C	 0.0441777216	 0.0647815227	 0.0459154388	-0.086714
C	-1.367768194	-0.5101976639	-0.0336515035	 0.009856
C	-2.0794289751	-0.2042246582	-1.3879893906	-0.223795
C	-2.0769859469	-1.5511277284	-2.0971866656	 0.087768
O	-0.6745814424	-1.9732602499	-2.2604805776	-0.308915
C	-0.8237072462	-2.817674162	-1.1186243328	 0.096747
C	-2.3001834523	-2.628400115	-1.0101751747	-0.163762
C	-1.3951870373	-2.0394783172	 0.0562255355	-0.108623
H	 0.8189629501	 1.8525664575	-0.0171541182	 0.285307
H	 0.6245971308	-0.2865312767	-0.8174392956	 0.107549
H	 0.5389701265	-0.2986773232	 0.9615563162	 0.075899
H	-1.9396898748	-0.0831471242	 0.7971088167	 0.078575
H	-3.109459207	 0.1344796206	-1.2289945818	 0.096299
H	-1.5567104959	 0.5671700704	-1.9589060953	 0.118396
H	-2.6218104021	-1.6211264694	-3.0400943169	 0.078226
H	-0.1825749864	-3.688309429	-1.0417460446	 0.100985
H	-3.1278806284	-3.3106926328	-0.8785455335	 0.096268
H	-1.3482278775	-2.5281653381	 1.0238042291	 0.086339
