23
gdb 79466	2.39191	1.7984	1.42571	0.1423	88.91	-0.2643	0.0896	0.3539	1062.9224	0.207607	-351.136182	-351.128166	-351.127221	-351.167998	33.391	
C	-0.2132781744	 1.624034481	 0.0014715701	-0.43781
C	 0.0340229204	 0.1207653676	 0.0124852273	 0.012929
C	 1.1189749291	-0.5466425993	-0.8435563222	-0.046816
C	 2.5559394525	-0.3132114378	-0.1897956633	-0.042383
C	 2.6639756089	-1.8522024163	-0.0146491488	-0.244373
C	 1.1387064689	-1.7615706523	 0.1339350704	-0.062209
C	 0.7605398446	-0.6187796573	 1.1889884579	 0.318907
C	 0.054904806	-0.9227401477	 2.4899549457	-0.507823
C	 2.1226330347	 0.1078039648	 1.2308004293	-0.250677
H	 0.7120702342	 2.2035474873	 0.0618576922	 0.116306
H	-0.7191041663	 1.918880126	-0.924744227	 0.112878
H	-0.8558393095	 1.9291185529	 0.8357936814	 0.112543
H	-0.9131968322	-0.4010121203	-0.1806141809	 0.06191
H	 1.0682832969	-0.6522249806	-1.9275431403	 0.056646
H	 3.3336424109	 0.2636249116	-0.6899921889	 0.056027
H	 2.9336077804	-2.3665779501	-0.9422073081	 0.092398
H	 3.2784365125	-2.232163095	 0.8089884262	 0.083575
H	 0.4574738528	-2.6089210212	 0.0511755025	 0.056996
H	 0.6810616402	-1.536272066	 3.1481186225	 0.112856
H	-0.1892728144	-0.0023747312	 3.0343875656	 0.11351
H	-0.8817714897	-1.4653377486	 2.3204232525	 0.11015
H	 2.7967488406	-0.2858101789	 1.9987703263	 0.085845
H	 2.0285495727	 1.1849809416	 1.3862312998	 0.088614
