18
gdb 93072	2.23676	1.66131	0.99661	2.0195	75.17	-0.2397	0.0001	0.2399	1168.9111	0.150466	-435.322886	-435.314509	-435.313565	-435.356121	31.445	
C	-0.1632133269	 1.499525663	 0.0542161945	-0.416023
C	 0.0594305255	-0.0116238204	-0.0235828534	 0.017883
C	 0.5945481069	-0.4147509228	-1.4074947417	-0.138962
N	 0.6228411615	-1.8290359594	-1.7170392318	-0.251446
C	 0.8398981686	-2.7295480503	-0.8548808447	 0.099737
N	 1.0934390698	-2.6896109858	 0.513955269	-0.354977
C	 1.3219865124	-1.6535412701	 1.4310559009	 0.444386
O	 1.8055794177	-1.9117888038	 2.517836937	-0.399461
N	 0.983781408	-0.3910795627	 1.0420975443	-0.341674
H	 0.7757479809	 2.0390025976	-0.1109197953	 0.131365
H	-0.8799129526	 1.819152307	-0.7059673918	 0.133406
H	-0.5598857713	 1.7900966917	 1.0324393091	 0.124408
H	-0.9062938946	-0.5177033282	 0.1230881081	 0.098291
H	-0.0326825171	 0.0661090873	-2.1678573395	 0.105995
H	 1.6033055097	 0.0048627393	-1.5265431867	 0.11665
H	 0.8382829106	-3.7653591789	-1.2014847392	 0.115315
H	 1.3204402166	-3.5772702361	 0.9382813629	 0.261963
H	 1.1220164042	 0.2722699426	 1.7893385585	 0.253143
