19
gdb 91250	3.59049	1.18266	0.96652	4.2615	84.24	-0.2316	-0.0365	0.1951	1238.9943	0.159901	-385.909346	-385.901318	-385.900374	-385.941982	31.184	
C	-0.0172962977	 1.5418247584	 0.2100991331	-0.411578
C	 0.0236363443	 0.0358038766	 0.0076824172	-0.059417
C	 0.7580560028	-0.5862759418	-1.2517342744	-0.265002
C	 1.2604557634	-1.7572473376	-0.3357157667	-0.049404
C	 2.6997829315	-2.2270955761	-0.1132343265	-0.371635
C	 3.0425378235	-1.7099772683	 1.3176328719	 0.39068
O	 4.0373372348	-1.993848454	 1.9403632728	-0.330716
C	 1.9797995182	-0.7349912533	 1.7021406357	-0.355037
C	 0.9987286515	-0.8032487567	 0.7964540856	 0.301686
H	 0.9890970016	 1.9693352013	 0.1604520195	 0.123938
H	-0.6306042773	 2.0218643958	-0.5593715034	 0.122511
H	-0.4449401067	 1.797462408	 1.1850396296	 0.12635
H	-0.9861097387	-0.3893635676	 0.060250861	 0.096971
H	 0.1349273091	-0.8470053627	-2.1100941715	 0.107504
H	 1.581036658	 0.0582152275	-1.573008456	 0.113851
H	 0.5465952053	-2.5864992989	-0.3741048584	 0.093416
H	 2.8542633665	-3.3062214555	-0.1836562362	 0.124235
H	 3.4011695711	-1.7519798153	-0.8087926305	 0.131942
H	 2.1024226089	-0.0424153798	 2.5244701772	 0.109707
