17
gdb 85211	2.42316	1.30939	0.92795	3.6555	72.09	-0.249	0.0101	0.2591	1250.949	0.134994	-455.159179	-455.149958	-455.149014	-455.194073	32.344	
C	-0.0441544805	 1.5893300142	-0.0875508112	-0.389552
C	 0.0099094313	 0.0713396962	-0.036873743	 0.021905
N	 1.1633344866	-0.550762905	-0.7154705735	-0.336956
C	 1.7587911041	-1.0566395872	 0.4066668192	 0.424835
O	 2.7912939144	-1.6361769038	 0.6179738458	-0.364233
C	 0.5588545489	-0.5722050038	 1.2760059976	-0.059104
O	 0.8343571901	 0.361059175	 2.2948934485	-0.195864
C	 1.6512204002	-0.0656179891	 3.2936109624	 0.119026
N	 1.8577269268	 0.6935885489	 4.2781570416	-0.43808
H	 0.8916513802	 2.0279669046	 0.2645936444	 0.141867
H	-0.2322124945	 1.9289056557	-1.1111854824	 0.116808
H	-0.854254369	 1.9586847075	 0.5477010447	 0.139192
H	-0.9434235496	-0.3636874326	-0.3562637192	 0.094227
H	 1.4615180681	-0.5406256514	-1.6803270706	 0.25562
H	-0.0560625261	-1.3978418779	 1.6518982716	 0.111895
H	 2.0738954017	-1.0604331664	 3.1195797076	 0.125019
H	 2.4960436174	 0.2436461652	 4.9313022166	 0.233395
