19
gdb 39302	2.61739	2.05245	1.78591	2.3218	72.52	-0.2313	0.0708	0.3021	875.6968	0.163325	-423.014714	-423.008347	-423.007403	-423.045216	26.94	
C	-0.0996952362	 1.5577099303	-0.0633295805	-0.255876
C	 1.3728892463	 2.0165036301	 0.1457004214	-0.222463
C	 2.0779080939	 0.7997211155	 0.7692449439	 0.086498
O	 1.7859261026	 0.6798046764	 2.1600783767	-0.270604
C	 0.5057819638	 0.1396508875	 2.4742803376	-0.079823
C	 0.0168940048	-0.7399392699	 1.3330682619	 0.048382
O	 1.1736713913	-1.5035595653	 0.8853421155	-0.289769
C	 1.4622700035	-0.4046201238	-0.0018666161	 0.074539
C	-0.0170154877	 0.0254467783	-0.0292883051	-0.032786
H	-0.7622143488	 1.9504997653	 0.7146429794	 0.107525
H	-0.4985164264	 1.9097764295	-1.0183670343	 0.100908
H	 1.8346837745	 2.2501289501	-0.8211727917	 0.100188
H	 1.4759763055	 2.8996202842	 0.7803383624	 0.110328
H	 3.1673072182	 0.8566477749	 0.7059240542	 0.081337
H	 0.6350658528	-0.460272699	 3.3817266882	 0.114267
H	-0.2216666848	 0.9368081631	 2.696004423	 0.089847
H	-0.8319581908	-1.370920942	 1.6102872795	 0.079952
H	 2.0122766702	-0.7009411637	-0.8982634272	 0.07872
H	-0.6384948027	-0.4925528115	-0.7598743489	 0.078829
