17
gdb 49005	2.48462	1.51449	1.11542	3.4773	73.68	-0.25	-0.0412	0.2088	1095.2838	0.13453	-421.829079	-421.820954	-421.820009	-421.862412	30.177	
O	-0.3530523409	 0.1361431104	-0.0264630742	-0.252427
C	-0.0505421938	 1.2683756233	 0.2602851761	 0.071855
C	 1.2924030339	 1.8796563327	 0.023207781	 0.252352
C	 1.7401041875	 3.0555840357	 0.9355871435	-0.298013
C	 2.0022339696	 3.9653253611	-0.2977399436	-0.225766
C	 1.519415131	 2.8292117947	-1.2489411881	-0.205001
C	 2.6546868952	 1.8817682361	-1.6642636513	 0.420863
O	 3.4368252482	 1.9018071324	-2.5685247228	-0.292796
C	 2.4122038535	 0.9348852558	-0.4805368103	-0.421279
H	-0.7983083885	 1.9611874283	 0.7119383288	 0.075126
H	 0.9314351078	 3.4246762269	 1.5732512096	 0.114375
H	 2.6002136082	 2.8351798598	 1.5721449389	 0.114876
H	 1.3620028	 4.8484561072	-0.3337356695	 0.121167
H	 3.0339828254	 4.2866820889	-0.456948526	 0.125453
H	 0.7533545215	 3.0629917985	-1.9891151413	 0.105464
H	 3.2607624213	 0.7446590848	 0.1819858673	 0.129867
H	 1.9946383699	-0.0232234566	-0.8098814981	 0.163884
