19
gdb 103531	2.40361	1.44043	1.17345	3.1583	77.12	-0.2334	-0.027	0.2063	1145.9137	0.157577	-423.055747	-423.046475	-423.045531	-423.090046	34.491	
C	-0.1025452025	 1.5546957989	 0.0942413987	-0.400378
C	-0.0033262138	 0.0333612687	-0.0457627713	-0.189469
C	 0.7379007899	-0.4252254068	-1.3126782383	 0.254237
O	-0.0040009464	 0.0937831888	-2.4120941991	-0.460213
C	 2.204282171	-0.0660649276	-1.3619046205	-0.133286
C	 3.0076749941	-1.1311505247	-1.3139182304	-0.085908
C	 2.2551106837	-2.4309758818	-1.2110629121	-0.376858
C	 0.7920539262	-1.9841152116	-1.3432008715	 0.337752
O	-0.1621972106	-2.7009921365	-1.4785958205	-0.305056
H	 0.8839624518	 2.0144072674	 0.2143327215	 0.11111
H	-0.5771617896	 1.9917038803	-0.7870148317	 0.140236
H	-0.6986165335	 1.8188572229	 0.9728203693	 0.113666
H	 0.4986344982	-0.3966195784	 0.8289512454	 0.095878
H	-1.0037828857	-0.4108640497	-0.0936314441	 0.125005
H	 0.4312916969	-0.1802154621	-3.2264107637	 0.279628
H	 2.5340184207	 0.963386084	-1.4410144146	 0.109149
H	 4.0910687273	-1.0902625572	-1.3397340458	 0.106723
H	 2.5143450536	-3.1670332982	-1.9816153553	 0.135798
H	 2.3970500187	-2.9376586565	-0.246929526	 0.141986
