14
gdb 42199	2.9806	1.44276	1.07375	5.0293	69.71	-0.2696	-0.0927	0.177	1069.5639	0.09985	-436.65472	-436.646895	-436.645951	-436.687762	28.231	
O	 0.2885129896	 0.4737751217	 1.2398384231	-0.293237
C	-0.014802325	 1.3123843316	 0.4218990058	 0.198673
C	 0.9360949553	 1.7159647646	-0.6343030915	 0.253963
N	 1.7099377012	 1.9998039788	-1.4446563988	-0.311258
C	-1.3242366045	 1.9771039691	 0.3715142904	 0.35251
C	-2.3173006304	 1.9952137766	 1.5012502506	-0.326147
C	-2.7157225916	 1.3356820481	 0.2166474693	-0.148138
C	-2.8978082733	 2.3829170671	-0.8795859848	-0.098852
O	-1.6011605247	 2.9829446443	-0.5914819021	-0.315609
H	-2.087339602	 1.3156694373	 2.3142049351	 0.157212
H	-2.7283711008	 2.9611367533	 1.7800339351	 0.137763
H	-2.9508222167	 0.283089369	 0.1414450168	 0.134971
H	-2.9059624489	 1.964919919	-1.890418612	 0.133166
H	-3.7178451583	 3.0980676495	-0.757976997	 0.124984
