14
gdb 31443	3.05569	1.37654	0.9546	4.0539	68.79	-0.2711	-0.0805	0.1906	1140.6872	0.101488	-470.030437	-470.022749	-470.021805	-470.063199	27.933	
O	 0.1378587174	 1.3743317346	-0.0434524592	-0.419417
C	 0.0221693286	-0.0154598596	-0.0420958883	-0.11272
C	-1.4005824668	-0.4956309151	-0.0169289494	 0.328026
N	-2.3385206863	 0.3901944208	-0.0001663337	-0.324129
C	-3.6515731876	-0.0224960063	 0.0236537897	 0.442758
N	-4.6416329947	 0.7522520164	 0.0392806268	-0.511058
O	-3.8619578284	-1.4408585584	 0.0304587817	-0.208227
C	-2.7985837099	-2.2417993441	 0.0094606217	 0.150748
N	-1.571822603	-1.8772731223	-0.0141274213	-0.309402
H	-0.7668761047	 1.7224221708	-0.0292507997	 0.303371
H	 0.5010015374	-0.4619846481	-0.9295834788	 0.130152
H	 0.5325041632	-0.4626834033	 0.8272400188	 0.130244
H	-5.5166895378	 0.2309047075	 0.055442259	 0.23812
H	-3.0817396373	-3.2918751828	 0.0155498326	 0.161534
