18
gdb 65462	2.59297	1.11931	0.97823	5.6419	75.03	-0.2492	-0.0215	0.2276	1265.3188	0.145332	-439.110407	-439.100719	-439.099775	-439.145919	34.134	
C	-0.1784455142	 1.472983227	 0.3061593869	-0.461951
C	 0.0057904308	-0.012374203	 0.1042381301	 0.228375
C	 1.3323035278	-0.5554675345	-0.4261055452	-0.383991
C	 0.9701537287	-0.8141228725	 0.9931556792	 0.016342
N	 1.692384605	-0.1543163057	 2.0340062459	-0.285175
C	 1.1887989963	-0.0416138932	 3.2983435445	 0.152325
O	 0.0820874476	-0.4013390767	 3.628677697	-0.308808
C	-1.2041177497	-0.764825179	-0.3167071786	 0.132771
O	-2.2771923529	-0.263853372	-0.5413322787	-0.261812
H	 0.7488851253	 1.9463669327	 0.6359080953	 0.105256
H	-0.5014750935	 1.9464329799	-0.624960639	 0.13403
H	-0.9482918529	 1.6607551315	 1.0592292664	 0.150616
H	 1.320110541	-1.3901225926	-1.1189589964	 0.132719
H	 2.0914661662	 0.1914035739	-0.6346330819	 0.12772
H	 0.6388732921	-1.815265353	 1.2557088875	 0.124324
H	 2.657768504	 0.0893570087	 1.8779568552	 0.254401
H	 1.9171859906	 0.423223676	 3.9921789915	 0.079936
H	-1.0494195322	-1.8656422377	-0.4188597097	 0.062923
