23
gdb 64483	2.46713	1.42233	1.18289	1.6016	81.72	-0.2446	0.0746	0.3193	1185.9393	0.205983	-425.423334	-425.414026	-425.413082	-425.456739	36.198	
C	-0.1291268458	 1.6138453367	 0.0105213895	-0.400258
C	-0.0123169254	 0.0814277244	-0.006587605	 0.223774
C	-1.4077068352	-0.5645884732	 0.0275751003	-0.42146
C	 0.6968286459	-0.3687638331	-1.3062238885	-0.099232
O	 1.8937923338	 0.3388206135	-1.5657725073	-0.24752
C	 3.0879575797	-0.1459606246	-0.9836113126	-0.060812
C	 2.9463377214	-0.7666442595	 0.4121051499	-0.108481
O	 2.125731145	-0.017935768	 1.2831701427	-0.241892
C	 0.7601520491	-0.3958751867	 1.2399328713	-0.092394
H	 0.859565435	 2.0735850394	 0.0519921072	 0.136094
H	-0.6375587271	 1.9802827925	-0.8878603402	 0.105803
H	-0.7040781854	 1.9459223685	 0.8819472367	 0.10216
H	-2.025634674	-0.2037225995	-0.801115628	 0.116362
H	-1.3497551879	-1.6568408228	-0.0473431222	 0.110211
H	-1.9306294626	-0.3227864096	 0.9591328547	 0.116209
H	 0.8612987988	-1.457923711	-1.2996101179	 0.083245
H	 0.0387592109	-0.1507137982	-2.1557032207	 0.101577
H	 3.5674573326	-0.8958250023	-1.6370182875	 0.0846
H	 3.7530622993	 0.7227421269	-0.9346881023	 0.112991
H	 2.5716076981	-1.7991483683	 0.3406647555	 0.091473
H	 3.9466017209	-0.8189983998	 0.8596078755	 0.105487
H	 0.3042990972	 0.0365346941	 2.1375152878	 0.102332
H	 0.6809949159	-1.4934552493	 1.3234113612	 0.079733
