19
gdb 80855	2.24868	1.73391	1.46284	2.8756	70.41	-0.2421	0.0608	0.3029	1002.3643	0.158943	-460.146549	-460.13812	-460.137175	-460.178956	33.267	
C	 0.0198064084	 1.4554467719	 0.0216175526	-0.510965
C	-0.0372438422	-0.042459791	 0.0862345564	 0.344905
O	 0.4472700923	-0.7581593597	-1.1131993801	-0.350151
C	-0.28175477	-1.9005892769	-0.5570604235	 0.021491
C	 0.5193924943	-2.2452351628	 0.7051779748	-0.267555
C	 0.7947362241	-0.7800097577	 1.172994431	 0.142048
O	 2.1542974081	-0.4036958524	 1.1111827988	-0.447642
C	-1.326747051	-0.8750754611	-0.037424616	 0.067491
O	-2.0372976433	-1.0945261323	 1.1508797281	-0.43244
H	 1.0554005145	 1.8008745617	 0.0808011482	 0.136208
H	-0.4298646702	 1.8263704624	-0.9032619417	 0.123476
H	-0.5274497751	 1.8786185432	 0.8703826934	 0.13243
H	-0.5049632003	-2.6760270696	-1.2897863655	 0.076144
H	-0.0644766721	-2.8217107384	 1.4258813219	 0.108291
H	 1.4515617181	-2.7708955102	 0.4873513695	 0.102457
H	 0.4535698509	-0.575315976	 2.1887629456	 0.096912
H	 2.412016792	-0.516588363	 0.1865454688	 0.280007
H	-1.954619468	-0.4999345269	-0.8530929946	 0.084227
H	-2.8633142806	-1.5413732213	 0.9439074723	 0.292666
