18
gdb 26749	3.05973	1.47401	1.01904	1.8013	81.84	-0.174	0.0466	0.2206	1155.1966	0.147997	-401.951642	-401.942921	-401.941977	-401.985107	31.994	
C	-0.0219459	 1.5950357754	-0.0221255806	-0.503021
C	 0.141795448	 0.114641347	-0.047917234	 0.156925
C	 0.0055224534	-0.7839334225	-1.0973806779	 0.269691
O	-0.3201422386	-0.3828151947	-2.3660528877	-0.451305
C	 0.3023771887	-2.1206636498	-0.6664716506	-0.458688
C	 0.6676572387	-1.97818275	 0.651974763	 0.309064
C	 0.781351545	-2.4428369874	 2.09310191	-0.359593
C	 0.5623177033	-0.9242748872	 2.4488719002	-0.174029
N	 0.6043643456	-0.6599839308	 0.9976829944	-0.038939
H	 0.9304647973	 2.1230783149	 0.1167395946	 0.122732
H	-0.448234216	 1.9248342321	-0.972513573	 0.145571
H	-0.6959244211	 1.925628404	 0.7787079755	 0.115393
H	-0.4258924617	-1.1654027348	-2.9134515333	 0.294329
H	 0.2551881005	-3.0176082705	-1.2654339291	 0.088648
H	-0.0147735524	-3.1029019353	 2.447603027	 0.121971
H	 1.7463654532	-2.8552502313	 2.401160053	 0.11884
H	-0.4109313264	-0.7162867479	 2.904313349	 0.123984
H	 1.3499886824	-0.4240370111	 3.0197566496	 0.118427
