23
gdb 84114	2.38428	1.60197	1.18596	0.2177	91.48	-0.2205	0.0288	0.2493	1174.4094	0.207602	-351.166688	-351.158267	-351.157323	-351.199045	34.27	
C	-0.168507179	 1.5622332	 0.0296130591	-0.399877
C	 0.0264586392	 0.0370981449	 0.0207692375	-0.005285
C	 0.7285151277	-0.4418359711	-1.2340638186	-0.174224
C	 1.8333233034	-1.1892436912	-1.1527977341	 0.339272
C	 2.596619359	-1.7086487957	-2.3347468725	-0.50175
C	 2.3328758702	-1.5277069811	 0.2433583342	-0.099039
C	 1.1167475062	-1.982422479	 1.1066103888	-0.233209
C	 0.7983593329	-0.4669339031	 1.2584053256	-0.012258
C	 2.3291271008	-0.2243177776	 1.0969672518	-0.223119
H	 0.792404094	 2.086790569	 0.0348368549	 0.116808
H	-0.7202225511	 1.89210066	-0.8570304587	 0.110051
H	-0.7334343289	 1.8797306126	 0.9130259776	 0.107712
H	-0.9778296194	-0.4153964947	 0.0499082327	 0.073291
H	 0.3089692937	-0.1554630358	-2.1963314183	 0.071536
H	 2.1404780684	-1.3991358108	-3.2792844301	 0.118128
H	 3.6353554133	-1.3527042653	-2.3233912586	 0.122282
H	 2.6475733893	-2.8055053041	-2.3227799316	 0.12216
H	 3.2318960056	-2.1477336428	 0.2303661281	 0.051581
H	 0.369869434	-2.6229207057	 0.6295607959	 0.090238
H	 1.4323138854	-2.4231003341	 2.0566108646	 0.089896
H	 0.3197853006	-0.1302129936	 2.182339442	 0.052932
H	 2.8514734946	-0.3591111402	 2.0482724247	 0.090746
H	 2.6702912101	 0.6954682895	 0.6158003349	 0.092128
