18
gdb 42410	5.12541	0.81579	0.78962	2.2174	74.97	-0.2578	0.0005	0.2583	1494.3571	0.147458	-439.07292	-439.064201	-439.063256	-439.107932	31.394	
O	 0.0428700568	 0.1595066262	-0.7900070415	-0.385751
C	 0.0638984479	 1.2553544796	-0.2799484621	 0.465619
O	 1.1570897934	 1.8316783477	 0.2564518332	-0.249523
C	 2.3663989754	 1.0945338486	 0.1672087972	 0.146319
C	 3.4221942707	 1.608009055	-0.7641187776	-0.280522
C	 3.5656565635	 1.7746058956	 0.7371268012	-0.297621
C	-1.1293768261	 2.1383546743	-0.1468695356	-0.132473
C	-2.0095339965	 2.2404658246	-1.3528003	-0.2197
N	-2.4452955257	 1.4832179805	-0.1862315726	-0.304147
H	 2.2219213949	 0.0281502848	 0.2812773719	 0.127775
H	 4.0437443249	 0.8851796228	-1.2801641674	 0.125697
H	 3.1815581287	 2.4962632548	-1.3368078755	 0.126803
H	 3.4181579476	 2.7702997958	 1.1392663541	 0.130419
H	 4.2912733188	 1.1708731947	 1.2698477001	 0.124277
H	-1.0310678112	 2.9796619668	 0.5293250836	 0.110944
H	-2.5397196435	 3.1711210405	-1.5316523417	 0.128005
H	-1.6932676876	 1.6971015218	-2.2383195205	 0.134269
H	-2.2807729321	 0.4920006859	-0.3622262768	 0.249608
