15
gdb 133120	2.53524	1.59603	0.98559	1.2714	71.77	-0.2357	-0.0176	0.2182	1124.5567	0.113299	-461.953675	-461.946145	-461.945201	-461.985937	28.072	
C	 0.0797872787	 1.3780409105	 0.007180719	-0.249525
O	 0.002617189	-0.0383067224	 0.002792688	-0.25929
C	-1.2271755577	-0.6016568836	 0.0104179112	 0.206577
C	-2.4493739514	 0.0739537837	 0.022138632	-0.109216
N	-3.6397659359	-0.5378659013	 0.0292848036	-0.269885
C	-3.6565613738	-1.8676514712	 0.024939388	-0.000407
C	-2.5007478385	-2.6501548329	 0.0133667846	-0.251253
C	-1.2829405434	-2.0029822769	 0.0061286198	 0.239658
F	-0.1461646106	-2.6919391961	-0.0049835676	-0.057361
H	 1.1432135336	 1.6199544338	-0.0001010543	 0.14342
H	-0.3974289375	 1.8094342811	-0.8815062694	 0.132252
H	-0.3837630253	 1.8031485458	 0.9060696527	 0.132253
H	-2.4710489809	 1.1588500029	 0.0259485059	 0.112153
H	-4.633482417	-2.3432051918	 0.0308939073	 0.113282
H	-2.5377943193	-3.7329302916	 0.0100090991	 0.117342
