17
gdb 76354	1.97722	1.39802	1.20799	5.2513	78.73	-0.2949	-0.0098	0.285	1155.6215	0.134661	-380.892325	-380.882793	-380.881849	-380.926518	33.967	
C	-0.0861053929	 1.5561917299	 0.1118398673	-0.424043
C	 0.0221667749	 0.0570593746	-0.046018804	-0.051013
C	 0.6828307224	-0.6170689722	-1.203257482	-0.05099
C	 1.3238137426	 0.1174576325	-2.3581120266	-0.424051
C	 1.376223293	-0.6651415625	 0.1842105354	-0.002547
C	 2.5533654965	 0.1384231203	 0.3882327572	 0.256161
N	 3.4868928032	 0.8055153245	 0.5324610024	-0.341197
C	 1.3527132067	-1.9155575849	 0.8994793496	 0.245505
N	 1.2985393901	-2.9272933858	 1.4567604992	-0.330342
H	 0.8021514963	 2.0811795509	-0.2439058035	 0.149416
H	-0.9496968667	 1.9254115087	-0.4504452033	 0.136362
H	-0.2305876201	 1.8195259722	 1.1634928138	 0.145247
H	-0.8030218263	-0.49682421	 0.3919918649	 0.130215
H	 0.2597735532	-1.5812639068	-1.4695760873	 0.130226
H	 1.8303643311	 1.0320262	-2.0448451938	 0.149421
H	 2.0619405939	-0.5200693679	-2.8530041109	 0.145253
H	 0.5601351122	 0.3848875165	-3.0953789983	 0.136376
