16
gdb 49507	3.82567	1.22078	1.14096	3.5884	69.95	-0.249	-0.0455	0.2035	1073.006	0.125367	-437.896326	-437.889015	-437.888071	-437.928362	28.059	
O	-0.6483001398	 0.8239421407	 0.5531439632	-0.238713
C	 0.2327138424	 0.9805734882	-0.2555136445	 0.117188
C	 1.3592346112	 1.9723435005	-0.1517708441	-0.089287
C	 1.1053908073	 3.4161446206	-0.765349807	-0.035879
C	 0.344520714	 3.747031489	 0.5399180226	-0.226895
C	 1.4633875924	 2.8418861829	 1.1551815335	-0.158568
C	 2.723280725	 3.641187258	 0.7816162112	 0.410449
O	 3.7570930243	 3.804145014	 1.3740605811	-0.363434
N	 2.3820645653	 4.1014402053	-0.4999526254	-0.308803
H	 0.2680174281	 0.3647677759	-1.183676344	 0.085251
H	 2.2784806338	 1.496569711	-0.5128584171	 0.096501
H	 0.7064065272	 3.5815457463	-1.7644276986	 0.093953
H	 0.3216664602	 4.7980037995	 0.8317182833	 0.117933
H	-0.6377070268	 3.2850460065	 0.6112640633	 0.142974
H	 1.4179762449	 2.4143576745	 2.1521304245	 0.105464
H	 3.1053845907	 4.1559287671	-1.2032798419	 0.251866
