14
gdb 61162	2.66473	1.08776	0.81853	4.8085	64.17	-0.289	-0.1313	0.1578	1303.8413	0.097697	-473.843357	-473.83404	-473.833096	-473.878582	31.563	
O	-0.1137407761	 1.4510280999	-0.144842204	-0.419877
C	-0.0065383161	 0.070650683	 0.0228704071	 0.046089
C	 0.8322204767	-0.568439201	-1.1209546848	-0.377012
C	 0.2533281214	-0.2757823243	-2.4283288612	 0.280491
N	-0.2062888567	-0.0642551923	-3.4665192155	-0.295912
C	 0.6168701286	-0.2457861537	 1.3777806353	 0.260161
O	 1.0506998764	 0.6341579396	 2.0865762111	-0.284651
C	 0.6771816804	-1.6922553989	 1.8746851251	 0.094957
O	 0.3113262998	-2.6314606526	 1.218711648	-0.209285
H	 0.3661567024	 1.8616187729	 0.590518523	 0.30189
H	-1.0044755301	-0.3919911204	 0.0005161121	 0.13394
H	 1.8519924211	-0.1695329901	-1.0876230861	 0.158817
H	 0.8779801712	-1.6526456608	-0.9849183958	 0.179042
H	 1.091281411	-1.7793222413	 2.8992874158	 0.131351
