16
gdb 127858	3.82913	1.18176	0.90898	3.6241	80.58	-0.2148	-0.046	0.1688	1241.3152	0.125713	-430.253529	-430.245106	-430.244161	-430.286723	31.102	
C	-0.081176042	 1.445541697	-0.0714348017	-0.325822
N	-0.0014427181	-0.0052298712	-0.0413011478	-0.333135
C	 0.5842213299	-0.5653103703	 0.9435081949	 0.37763
C	 1.242547363	-0.0081083767	 2.1207970207	-0.074956
N	 1.8095311332	-0.7105510427	 3.0507118609	-0.171017
N	 1.8107189984	-2.0785797143	 3.0031182254	-0.321191
C	 1.2545155532	-2.6483855031	 1.9598551063	 0.52891
N	 1.3176252661	-4.0138300249	 1.8483820036	-0.561599
N	 0.6587305537	-1.9652960649	 0.9516173558	-0.395904
H	 0.2879333612	-2.4314723906	 0.1340618213	 0.259854
H	 0.9083597548	 1.9236953775	-0.1116111806	 0.117903
H	-0.6272416661	 1.7491797648	-0.9682271695	 0.122951
H	-0.6146605361	 1.8614465838	 0.7956150575	 0.116864
H	 1.2785382061	 1.0689662007	 2.2390276747	 0.12181
H	 1.6329658984	-4.4526641224	 2.7017860909	 0.277123
H	 0.5427977042	-4.4818410828	 1.4026031975	 0.260579
