12
gdb 21022	5.61804	1.72389	1.36562	7.076	60.16	-0.2469	-0.0792	0.1677	839.7479	0.084041	-410.82435	-410.817494	-410.81655	-410.856159	23.78	
C	-0.009025091	 1.4545870748	 0.1234186889	-0.330506
N	-0.0459648244	 0.0049966002	 0.0041975964	-0.01649
C	-1.179224332	-0.7158802693	-0.1969959242	 0.124519
N	-1.2079775334	-2.0025408943	-0.2290206226	-0.296466
C	 0.0009759172	-2.6352877946	 0.0644088739	 0.417034
O	 0.0966191587	-3.7638510498	 0.4616103973	-0.304523
N	 1.213036557	-1.8680703588	-0.1666095353	-0.190971
N	 1.1789711109	-0.6169989139	-0.1314050402	-0.042243
H	 0.9739119249	 1.7901502043	-0.2073472524	 0.176859
H	-0.7805649378	 1.9015751237	-0.5083422074	 0.153624
H	-0.1672721401	 1.7636266031	 1.160731235	 0.160424
H	-2.08606866	-0.1358905453	-0.3725554994	 0.148742
