17
gdb 124908	3.69873	1.58181	1.28916	2.8625	78.89	-0.2299	0.0046	0.2345	995.8836	0.137975	-380.829657	-380.822557	-380.821613	-380.860942	28.111	
C	-0.0407658443	 1.5461676029	 0.0644414757	-0.486685
C	 0.0364732316	 0.0533421452	 0.0315255042	 0.362885
C	-0.8277749951	-0.9151600686	 0.7994809671	-0.30329
C	 0.6905573898	-0.9715013601	 0.9673751155	-0.260973
C	 1.235252855	-1.6339612737	-0.2801266866	 0.280539
C	 1.4633919385	-2.7323881646	-1.0804224967	-0.327893
C	 0.9939862167	-2.2952676826	-2.3567330482	 0.004779
N	 0.4504978851	-1.0733373582	-2.3433280999	-0.288585
N	 0.7013465309	-0.6698428959	-1.0783293208	 0.021085
H	 0.9312257465	 1.9943781002	-0.1612806411	 0.137407
H	-0.7658809754	 1.9143395193	-0.669190127	 0.143897
H	-0.3626510133	 1.8871837675	 1.0526062351	 0.12808
H	-1.3838908871	-0.4872140775	 1.6304889898	 0.121434
H	-1.3347081684	-1.7232360974	 0.2821008854	 0.138738
H	 1.1930332197	-0.7899485297	 1.9069921324	 0.112085
H	 1.8977079408	-3.687252171	-0.8348427566	 0.105857
H	 1.0575329991	-2.8346267857	-3.2923804585	 0.110641
