19
gdb 118593	1.68448	1.40799	0.77815	2.721	78.53	-0.2449	-0.0097	0.2352	1471.515	0.156892	-456.374028	-456.363436	-456.362491	-456.411402	35.803	
C	-0.0584045832	 1.495403742	 0.0361116328	-0.389189
C	-0.0321252593	-0.0197303325	 0.096367165	-0.031159
O	 0.6061988723	-0.4790768153	-1.1077825156	-0.232118
C	 0.7311681252	-1.7982887246	-1.2476772411	 0.519504
N	 1.3675948757	-2.1402210448	-2.4522100856	-0.388235
C	 1.8769760461	-1.3468971758	-3.4690988302	 0.161728
O	 1.8812300544	-0.147740343	-3.5359541314	-0.271226
N	 0.3159625922	-2.6297699814	-0.3831313864	-0.34517
C	 0.4903177247	-4.0505265507	-0.6069609813	-0.344524
H	 0.9551471567	 1.9005766074	-0.0256364315	 0.134298
H	-0.6184343952	 1.8410806325	-0.836909591	 0.134026
H	-0.5375981785	 1.8917670686	 0.9363393842	 0.117787
H	 0.5288417028	-0.3906734004	 0.9600898332	 0.118971
H	-1.0371612604	-0.4499149037	 0.1526287701	 0.118929
H	 1.4714175619	-3.1324909781	-2.59636619	 0.25912
H	 2.305275278	-1.9987711557	-4.2587971986	 0.078807
H	 0.0806753925	-4.5996559619	 0.244319333	 0.133958
H	-0.0375924924	-4.4106755409	-1.5048751384	 0.112375
H	 1.5486786565	-4.3438374519	-0.6989307373	 0.112118
