17
gdb 17183	4.00705	1.82114	1.56492	2.9541	68.42	-0.2261	0.0659	0.292	856.9468	0.142599	-363.751952	-363.744946	-363.744002	-363.783228	26.994	
O	-0.0612150498	 1.4288753188	 0.096567071	-0.420194
C	-0.0083232058	 0.0172005862	-0.0629570365	-0.231281
C	-1.4213613684	-0.4943363477	-0.0527847867	 0.348846
C	-2.5798901842	-0.2059251164	-1.0019843542	-0.224339
N	-3.2585419677	-1.160244483	-0.023527617	-0.16491
C	-1.9329195391	-1.9630135837	 0.095161599	-0.05633
C	-1.9929498846	-1.915336504	 1.624918937	-0.262309
C	-2.4365948849	-0.5333380987	 1.1368893578	-0.02888
H	 0.8347341732	 1.7725610334	 0.034032861	 0.290034
H	 0.4753880039	-0.2619220354	-1.0135795754	 0.088883
H	 0.5666404409	-0.4600953358	 0.748138825	 0.087036
H	-3.0080120616	 0.8009268872	-0.9994746047	 0.107383
H	-2.5217121131	-0.5988769024	-2.0233585261	 0.092917
H	-1.7394875141	-2.802892056	-0.5758635325	 0.079025
H	-2.7670755673	-2.5296928384	 2.0918184003	 0.108992
H	-1.0462566543	-1.9761723063	 2.1671717647	 0.098037
H	-2.8317265133	 0.3173290921	 1.6938503772	 0.087089
