17
gdb 102158	2.71306	1.06402	0.84172	4.358	69.3	-0.2637	0.0039	0.2676	1333.2993	0.134738	-455.189923	-455.179846	-455.178902	-455.225908	35.093	
N	-0.0074267272	 1.2947022034	 0.1793241361	-0.523792
C	 0.0205310011	-0.0229446178	-0.1599211329	 0.404419
O	 1.0279279433	-0.5802917084	-0.5542535489	-0.361628
C	-1.3298198049	-0.7429645483	-0.053626604	-0.130284
C	-2.1444751476	-0.508690463	-1.3569005801	-0.071394
O	-3.5286921203	-0.7043025676	-1.1863514933	-0.420625
C	-1.0485387252	-2.2349244648	 0.228940083	-0.349711
C	-2.2267223706	-3.0862258633	 0.0962302641	 0.25989
N	-3.1690803763	-3.7441437641	-0.0352671753	-0.323601
H	 0.8358876263	 1.8350277992	 0.0742213756	 0.268223
H	-0.8375859766	 1.7501853589	 0.5155843814	 0.267789
H	-1.9213154528	-0.3137812105	 0.7621185743	 0.103213
H	-2.023444306	 0.5352979554	-1.6626452783	 0.115623
H	-1.7268670036	-1.1322998696	-2.1618013295	 0.113564
H	-3.703765471	-1.6480014745	-1.0931764115	 0.303895
H	-0.2743079209	-2.5725911193	-0.467590919	 0.18468
H	-0.6366994078	-2.3617911257	 1.2354860484	 0.159737
