19
gdb 106908	3.99269	1.10588	0.99104	3.8474	81.99	-0.2354	-0.0492	0.1862	1245.3994	0.159563	-385.916911	-385.908587	-385.907643	-385.949886	32.007	
C	-0.3349941281	 1.4968440396	-0.0503909251	-0.379194
C	 0.130023708	 0.0409424892	 0.080434623	-0.280981
C	 0.8348457634	-0.4845043802	-1.1543577887	 0.323208
C	 0.0410468186	-1.0026404236	-2.3386537565	-0.312892
C	 0.9114274253	-1.9467179497	-1.5175151661	-0.228519
C	 2.3066556011	-2.19781963	-2.0486174545	 0.395795
O	 2.7809233151	-3.2660622985	-2.3587543603	-0.337608
C	 2.979857662	-0.8664812178	-2.0801205774	-0.209395
C	 2.1712603929	 0.0676087754	-1.561446675	-0.124448
H	 0.5071439396	 2.1776516653	-0.2127854668	 0.118726
H	-1.0250922661	 1.615857684	-0.8918942221	 0.12153
H	-0.8497544185	 1.8236369192	 0.8579541862	 0.11798
H	 0.7960973201	-0.0585316324	 0.9467118304	 0.106906
H	-0.7356094177	-0.5998013097	 0.2856941707	 0.10288
H	-1.032305695	-1.115307228	-2.2156158557	 0.120885
H	 0.3604064826	-0.7363515446	-3.3403650677	 0.125521
H	 0.426339495	-2.7230194652	-0.9393196259	 0.107945
H	 3.9719385464	-0.7240928618	-2.4879822318	 0.115916
H	 2.4072366352	 1.122350189	-1.4682664168	 0.115742
