22
gdb 58355	2.12422	1.29384	0.89542	2.0166	82.4	-0.2471	-0.038	0.2091	1370.7232	0.192245	-404.328635	-404.318333	-404.317389	-404.36473	37.288	
C	 0.0486255453	 1.5593990539	 0.0428822342	-0.401647
C	 0.0043014423	 0.0229142416	 0.0177924623	 0.027576
C	 0.8894865082	-0.548491603	 1.133079122	-0.408998
C	-1.4651465476	-0.4674119273	 0.0909751675	-0.078439
C	-2.2403378928	 0.056306741	-1.111663046	 0.128336
O	-3.4112552108	 0.3380525095	-1.1079597599	-0.253534
C	-1.6054577647	-1.9876154021	 0.1893243005	-0.00491
C	-2.8499432792	-2.7036226505	-0.1777025452	-0.2536
N	-1.629682348	-2.8713587252	-0.9929889972	-0.327254
H	 1.0740691168	 1.9225272755	-0.0754369576	 0.118542
H	-0.5541816084	 2.0075605831	-0.7544771018	 0.119924
H	-0.3335052773	 1.9415431636	 0.9968485647	 0.12159
H	 0.4157952122	-0.3169835901	-0.9440368913	 0.081267
H	 1.0088111826	-1.6317616113	 1.0565776358	 0.129661
H	 1.8889703167	-0.1046526406	 1.0847158741	 0.115726
H	 0.4752326311	-0.3197315605	 2.1222893944	 0.115783
H	-1.9436351862	-0.0410168906	 0.9833217795	 0.102244
H	-1.6406753591	 0.1487316298	-2.0487825761	 0.08126
H	-1.0274835226	-2.41111051	 1.0062971738	 0.10102
H	-3.1437041002	-3.5858388891	 0.3838836041	 0.118296
H	-3.6744795394	-2.1246091082	-0.5822332293	 0.137708
H	-1.7132918791	-2.3286656996	-1.8496687185	 0.229449
