17
gdb 4487	3.57696	1.71276	1.1825	0.8191	72.94	-0.1991	0.03	0.2291	1024.8989	0.141536	-363.905496	-363.896818	-363.895874	-363.938725	31.077	
C	 0.1355148775	 1.4372579784	 0.0458158844	-0.489073
C	-0.0612470797	-0.0361838348	 0.0167917417	 0.368502
C	-1.1553817927	-0.8284393812	-0.1345420073	-0.380155
C	-0.7033908573	-2.1934756825	-0.0742783265	 0.279425
C	-1.5245807238	-3.438135168	-0.1888043949	-0.506926
C	 0.643179084	-2.1281541916	 0.1106703372	 0.169676
N	 1.6004856946	-3.139028501	 0.2407830066	-0.597516
O	 1.0510199381	-0.8100432653	 0.1684457743	-0.206224
H	 0.8094158374	 1.7708542782	-0.7519959167	 0.133573
H	-0.8243380073	 1.9420716302	-0.0854056229	 0.132493
H	 0.5691051859	 1.7685294692	 0.9967094645	 0.133571
H	-2.1708151861	-0.4880028392	-0.273410402	 0.096989
H	-2.0493084726	-3.4880387347	-1.1501808451	 0.121481
H	-0.885700127	-4.3201329858	-0.1021082029	 0.137891
H	-2.2893033276	-3.4903464046	 0.5951255985	 0.121477
H	 2.0836912936	-3.0956908968	 1.1332622703	 0.242407
H	 2.305655083	-3.0943517005	-0.4890333094	 0.242408
