21
gdb 101055	2.14312	1.30697	0.9379	1.602	84.78	-0.2599	0.0273	0.2872	1340.3656	0.179281	-387.039425	-387.029189	-387.028245	-387.074555	38.116	
C	 0.0563503042	 1.4682151938	 0.2913268496	-0.395786
C	 0.336715056	-0.0315196673	 0.1602982794	-0.166648
C	 0.656474354	-0.5004969137	-1.2769512088	-0.053348
C	 1.9874026131	 0.063114487	-1.7879545016	-0.425938
C	 0.6069486179	-2.0327177413	-1.3241433454	 0.185759
C	 1.5829242668	-2.8612532309	-2.0663967927	-0.222891
O	 1.6876788813	-2.7161012288	-0.653905327	-0.2687
C	-0.7034404393	-2.607561535	-1.0972956721	 0.301476
C	-1.8055195663	-3.0582361195	-0.9305708068	-0.405509
H	 0.9265328405	 2.0799865338	 0.0341133625	 0.117559
H	-0.7702619803	 1.77482143	-0.3598603907	 0.113746
H	-0.2230889832	 1.7184286505	 1.3194614366	 0.115022
H	 1.170554804	-0.3176044446	 0.8131274406	 0.108902
H	-0.5374943881	-0.5858395867	 0.5188325539	 0.111265
H	-0.1508654446	-0.1489986628	-1.9339220599	 0.082242
H	 2.132452212	-0.1386950621	-2.853131475	 0.113815
H	 2.0204165282	 1.1474065857	-1.6589132507	 0.117832
H	 2.8271415139	-0.3684807958	-1.2340625624	 0.135394
H	 1.2723916354	-3.8453823096	-2.4131821483	 0.121092
H	 2.3685375684	-2.385798838	-2.6480403933	 0.118145
H	-2.7739145939	-3.4664491146	-0.7767130679	 0.196569
