17
gdb 31830	5.0424	1.02323	0.85791	2.4352	82.36	-0.1873	-0.0237	0.1636	1321.0186	0.138703	-414.244382	-414.236087	-414.235143	-414.277179	31.499	
C	 0.0327537082	 1.4353817708	-0.1129387631	-0.325013
N	-0.0009089628	 0.0121139916	 0.1652775966	-0.379498
C	-1.2081234164	-0.6831000551	 0.0928087019	 0.259437
C	-2.4691863406	-0.0776690822	 0.1100868912	-0.058254
N	-3.6089923789	-0.7692334019	 0.0980081423	-0.309552
C	-3.5039013499	-2.1008430103	 0.0619542505	 0.409896
N	-4.671549015	-2.8305141165	 0.1181621632	-0.559537
N	-2.3550998205	-2.7955482099	 0.0085822131	-0.303166
C	-1.2379210221	-2.0835825227	 0.0283498636	-0.054104
H	 1.0714396811	 1.7726330427	-0.0981429853	 0.126394
H	-0.4095739627	 1.7073335806	-1.0852967619	 0.113979
H	-0.5034444494	 1.9890552463	 0.6656903706	 0.13718
H	 0.7721248742	-0.4955960326	-0.239144221	 0.235264
H	-2.5699466447	 1.0040649578	 0.1323068523	 0.101656
H	-5.5011101536	-2.3268801363	-0.1523751234	 0.254629
H	-4.5999299916	-3.7757327024	-0.2229555637	 0.254529
H	-0.3033285154	-2.6443172999	-0.014854257	 0.096161
