21
gdb 71945	2.50371	1.92401	1.41876	1.1672	80.28	-0.2478	0.075	0.3227	995.3156	0.184825	-387.079165	-387.071644	-387.0707	-387.110878	31.306	
O	-0.0294193183	 1.3984286395	 0.0716004685	-0.493141
C	 0.0251152274	-0.01242872	 0.0191522957	 0.433368
C	 0.310228793	-0.6212292831	-1.3940456342	-0.299657
C	-0.9735504951	-1.4747148021	-1.2854579643	-0.018098
C	-0.841858662	-2.7518578712	-0.4082035529	-0.246466
C	-1.2405328738	-1.9431526876	 0.8717932601	-0.007152
C	-0.1297547041	-1.6517655654	 1.8872631539	-0.216593
C	 0.8259326931	-0.6512357979	 1.1886565759	-0.289668
C	-1.3884966672	-0.6722602941	-0.0043740711	-0.079822
H	 0.8676482473	 1.734945737	-0.0311636646	 0.271682
H	 0.1995002245	 0.1590710036	-2.1522648473	 0.100172
H	 1.2612294097	-1.1434860353	-1.5465511187	 0.081582
H	-1.5936183276	-1.5574423529	-2.1780139527	 0.063355
H	-1.5766180566	-3.5191429326	-0.6639785935	 0.099768
H	 0.1468757449	-3.2233242598	-0.3945317417	 0.087919
H	-2.1521791718	-2.3151814026	 1.3440970865	 0.063597
H	-0.5693488474	-1.1851396846	 2.7762551489	 0.099901
H	 0.3807705573	-2.5603851897	 2.2235706406	 0.093811
H	 1.7277208434	-1.1499963719	 0.8188189221	 0.093278
H	 1.1497406992	 0.1347033364	 1.8769807662	 0.09697
H	-2.2491439358	-0.0100068655	 0.0747530125	 0.065196
