18
gdb 93647	1.94957	1.68733	1.38601	5.0943	70.65	-0.2702	0.0305	0.3006	1043.6348	0.148292	-439.108421	-439.099495	-439.09855	-439.142386	32.882	
O	-0.6167900727	 1.2345628262	 0.9286406053	-0.436045
C	-0.0897915176	 0.1414669619	 0.1841551611	 0.074736
C	 0.8348669522	-0.7711480474	 1.0278147283	-0.234253
C	 0.0444405345	-2.0793748132	 1.3001136557	-0.229073
C	-1.4364338391	-1.7271786017	 1.0267270588	-0.199702
C	-2.0999257979	-1.1309090635	 2.186366718	 0.283741
N	-2.6281690455	-0.6862575236	 3.1134080634	-0.335152
C	-1.3180236056	-0.7299936694	-0.1705774536	 0.142969
O	-2.4672132852	-0.0025382208	-0.4764838718	-0.43383
H	 0.0933019184	 1.8439551558	 1.1479746951	 0.295242
H	 0.4015889391	 0.5093075709	-0.7254019407	 0.07725
H	 1.7818949832	-0.9764474165	 0.5222260009	 0.108093
H	 1.0688067028	-0.2569577924	 1.9641309397	 0.1195
H	 0.3436139472	-2.8596298427	 0.5936511822	 0.113734
H	 0.2050230614	-2.4718666525	 2.305267354	 0.127979
H	-2.019539776	-2.6047153354	 0.7335187163	 0.124546
H	-1.0728492962	-1.3381887876	-1.0491996662	 0.09553
H	-2.467065233	 0.7653401419	 0.1117313835	 0.304735
