19
gdb 37167	3.49816	1.70385	1.58263	1.5906	77.72	-0.2383	0.0917	0.33	924.0734	0.161797	-385.801303	-385.794975	-385.794031	-385.831453	27.989	
C	 0.0385974076	 1.571222647	 0.1214493694	-0.308449
C	 1.3442379591	 0.8335456402	-0.0621702744	-0.037421
C	 0.0203102458	 0.0652072088	 0.0286184358	-0.150392
C	 0.0995581538	-0.5277854003	-1.3699871771	 0.43879
C	-0.6781962414	-1.2604653988	-2.4554496616	-0.332494
C	 0.2089038864	-0.4728236476	-3.4911450574	-0.248106
C	 0.6105116081	 0.5491913806	-2.3670240725	-0.061154
C	 1.8349140017	 0.3531211832	-1.4716197254	 0.044889
O	 1.4982223741	-1.0652897809	-1.3802150105	-0.345223
H	-0.1235329666	 1.9837464528	 1.1133795228	 0.1127
H	-0.3883509593	 2.1792452642	-0.6669130383	 0.114552
H	 2.0604834027	 0.810832536	 0.7501528877	 0.09675
H	-0.2299169517	-0.5470353215	 0.8863412829	 0.095357
H	-0.6170926034	-2.350881151	-2.4490206637	 0.112158
H	-1.7262170844	-0.949702814	-2.4963714553	 0.107469
H	 1.035034128	-1.0610488431	-3.8867128911	 0.12184
H	-0.3421770152	-0.0151339457	-4.314923906	 0.096352
H	 0.1564893807	 1.5328314278	-2.4751349997	 0.072536
H	 2.8760942442	 0.5532564222	-1.7337220056	 0.069846
