21
gdb 35325	5.12999	0.85794	0.85273	0.8957	89.94	-0.2512	0.0521	0.3033	1441.1826	0.182108	-349.902832	-349.894055	-349.893111	-349.936424	34.311	
C	-0.7043462162	-0.6256212619	-1.4538314448	-0.452717
C	-0.3028276861	 0.2649725011	-0.751481754	 0.310256
C	 0.1915073914	 1.3153013069	 0.1132609251	-0.158214
C	-0.1305607945	 1.2546506005	 1.6420117539	-0.311176
C	 1.299892388	 1.7600614982	 1.9327365328	 0.380899
C	 1.5561348164	 3.2505409039	 2.297767272	-0.272899
C	 2.7514134842	 2.7909251787	 3.1757704096	-0.208439
C	 2.1651574358	 1.3528628187	 3.1479734103	-0.29784
C	 1.7065854339	 1.3295882071	 0.4972423811	-0.28894
H	-1.0612804067	-1.407204747	-2.0772697909	 0.190706
H	-0.0981685114	 2.2929308533	-0.2861159501	 0.101615
H	-0.9677439129	 1.859811745	 2.0002099097	 0.099995
H	-0.272029898	 0.2202379026	 1.9684835832	 0.109603
H	 1.7608769816	 3.944811623	 1.4774631659	 0.094435
H	 0.7413893084	 3.6599999829	 2.9040192414	 0.097936
H	 3.7020127031	 2.8551596872	 2.6393428407	 0.103944
H	 2.8723868867	 3.2692146081	 4.15019872	 0.096905
H	 1.5483173921	 1.1471034952	 4.0292863515	 0.099256
H	 2.8581780421	 0.5180129013	 3.008431829	 0.094275
H	 2.1201351904	 0.3172969318	 0.4782901922	 0.108232
H	 2.3592843315	 1.9932298735	-0.0760177088	 0.102166
