22
gdb 110294	2.10979	1.43576	1.24662	1.7992	81.92	-0.2231	0.0591	0.2822	1185.5498	0.193767	-404.298555	-404.28898	-404.288036	-404.332641	36.399	
C	-0.0157668913	 1.4004865732	-0.0245486044	-0.376624
C	-0.0768925743	-0.1314701104	-0.0032946017	-0.205856
C	 0.7075596884	-0.7211434585	 1.1612147099	 0.035007
C	 0.9996471651	-2.2502068427	 1.2878979422	 0.054413
O	 0.7281575158	-3.1280661677	 0.2110404174	-0.421935
C	 2.4660819348	-1.8792618887	 1.4485776287	-0.071229
C	 3.008831208	-1.0750704838	 0.3340763061	 0.031788
C	 2.7618156017	-1.2661694127	-1.149125177	-0.43578
N	 2.1703015319	-0.3745141355	 1.331684716	-0.173689
H	 1.0169411596	 1.748843073	-0.1176540939	 0.133958
H	-0.5898502258	 1.8056505186	-0.8632838136	 0.108566
H	-0.4227238158	 1.8269393857	 0.8988623629	 0.114545
H	-1.1216969199	-0.4556366364	 0.1037132892	 0.086014
H	 0.2674523997	-0.5305599212	-0.9588476726	 0.107645
H	 0.2318796063	-0.381804482	 2.0891808022	 0.077936
H	 0.5841931477	-2.6547277018	 2.2191234653	 0.077823
H	-0.207394746	-3.3526782273	 0.2370406436	 0.285176
H	 3.0990022748	-2.2713431093	 2.2388547833	 0.089562
H	 4.0384467843	-0.7733384366	 0.5285551182	 0.095399
H	 1.848122742	-1.8164493008	-1.3605829627	 0.154858
H	 2.7412615642	-0.3007832165	-1.666676356	 0.116662
H	 3.5959180087	-1.8418388888	-1.5657471231	 0.11576
