21
gdb 88957	3.44153	0.89285	0.82547	2.2078	78.93	-0.2547	0.0789	0.3337	1469.3199	0.180336	-424.188546	-424.178812	-424.177867	-424.223762	36.293	
C	-0.0662348919	 1.444333226	-0.7173483125	-0.458631
C	-0.007658384	 0.0289677474	-0.1850020091	 0.427528
C	-1.3127894843	-0.7485850331	-0.1221071957	-0.276742
C	-2.2993461699	-0.1655759985	 0.8718971947	-0.008513
C	-3.3468961078	 0.8503972638	 0.4470317127	-0.326072
C	-3.7469779977	-0.5547191641	 0.8222107	 0.077867
O	-4.1194256036	-1.455614789	-0.1825267815	-0.417674
C	 1.2591851757	-0.7148614904	-0.2568393617	-0.233961
O	 0.8261070562	-0.1370346798	 0.9772974652	-0.280589
H	 0.9253087938	 1.9030889487	-0.6940645772	 0.122479
H	-0.4319946353	 1.4549361093	-1.7500251875	 0.115617
H	-0.7426705444	 2.0580829014	-0.1156200976	 0.134592
H	-1.7682345372	-0.7960229225	-1.1165926569	 0.106083
H	-1.0846905588	-1.7804320948	 0.1675360664	 0.106059
H	-1.8841941744	-0.0347086579	 1.8672757389	 0.102677
H	-3.5967346802	 1.6677555643	 1.1151491392	 0.110505
H	-3.3932247575	 1.095995267	-0.6094321743	 0.110818
H	-4.260533149	-0.699673304	 1.772700668	 0.085984
H	-4.9906127175	-1.1996266033	-0.5020600255	 0.288112
H	 1.2471375761	-1.8039178974	-0.2936234286	 0.108101
H	 2.1353476917	-0.2494551229	-0.7079677773	 0.105762
