13
gdb 47951	13.11432	0.43433	0.43238	3.4006	95.96	-0.2655	-0.0905	0.175	2350.4377	0.086693	-419.350592	-419.341623	-419.340679	-419.386339	29.537	
O	-0.0976477058	-0.0438164639	 0.1737251264	-0.219678
C	-0.0156861304	 1.1602717764	 0.081717939	-0.033605
C	 1.2245159288	 1.8874955309	 0.0482007798	 0.219736
C	 2.2568836273	 2.5278760351	 0.0168480595	-0.14491
C	 3.4082559392	 3.2369286562	-0.0179697111	-0.150118
C	 4.4382363229	 3.8754985608	-0.0578176301	 0.35946
C	 5.6732976707	 4.6008726679	-0.0793187081	-0.185913
C	 6.0382956968	 5.4610718909	-1.2278232618	-0.155488
O	 5.6010876448	 6.0335410811	-0.0060665942	-0.200938
H	-0.9165534546	 1.8026155784	 0.01467121	 0.108067
H	 6.4815781067	 4.1647941924	 0.506195599	 0.134741
H	 7.0933700819	 5.5897915127	-1.4644020148	 0.132419
H	 5.3467593718	 5.5456439409	-2.0633972736	 0.136227
