15
gdb 113290	2.67576	1.07874	0.86895	4.1356	68.42	-0.2814	-0.0578	0.2237	1296.3273	0.110932	-453.923116	-453.913984	-453.91304	-453.957821	31.766	
O	 0.0498199694	 1.4053000129	-0.080452245	-0.405531
C	 0.0934170682	 0.0314603157	 0.2509734176	-0.08071
C	-1.3041204614	-0.5519675626	 0.2302669593	-0.056383
N	-1.8383297665	-0.9431195058	-1.0619423515	-0.356276
C	-1.6084128162	-2.01296536	-0.0579165588	 0.03308
C	-0.512877769	-2.9865165241	-0.4107819069	 0.127967
O	-0.4018266111	-4.0727413269	 0.0861908837	-0.22652
C	-2.7468044309	-2.5702165154	 0.6351977451	 0.244585
N	-3.6821463211	-2.9898238829	 1.1690467121	-0.322203
H	-0.229959415	 1.4717367327	-1.0003813135	 0.29622
H	 0.7574013627	-0.5281883215	-0.4203206331	 0.103329
H	 0.5035127861	-0.0313344958	 1.2635075072	 0.13497
H	-1.9873150448	-0.0865786358	 0.9384244368	 0.133905
H	-2.8335278952	-0.7482217386	-1.1403392843	 0.266601
H	 0.1768514349	-2.6028754918	-1.1889114389	 0.106966
