22
gdb 95207	2.46214	1.61275	1.16356	2.7942	80.86	-0.2469	0.0634	0.3102	1136.4993	0.196936	-404.346259	-404.33788	-404.336935	-404.378827	33.865	
C	-0.0424016097	 1.5940017796	 0.0080285618	-0.404627
C	 0.0029409057	 0.0645471083	-0.0195305924	 0.02847
C	 0.6640945891	-0.4788447174	-1.2956379101	-0.209149
C	 0.4790435844	-1.9980247705	-1.4169737943	-0.222701
C	 0.846898498	-2.730088622	-0.1432200245	-0.000933
N	 2.1477167409	-2.4023728328	 0.4658871472	-0.351583
C	 0.9015242182	-2.0142042902	 1.1608821109	-0.081977
C	 0.7094558327	-0.4929554104	 1.2385334717	 0.129393
O	 1.9611623513	 0.1352939456	 1.4682471528	-0.442644
H	 0.9700047341	 2.0055074227	 0.0182958783	 0.13157
H	-0.5714976689	 1.9861375596	-0.8667709259	 0.100608
H	-0.5560614605	 1.959635881	 0.9040809407	 0.105232
H	-1.029597555	-0.3172379814	 0.0108952369	 0.059081
H	 0.2385702575	 0.0110284013	-2.1780833192	 0.089063
H	 1.7312454054	-0.2292556116	-1.284022759	 0.10843
H	-0.5739364916	-2.2192791991	-1.6374364192	 0.098024
H	 1.0650360594	-2.397330155	-2.2536498907	 0.098852
H	 0.5507606603	-3.7775775182	-0.1123414668	 0.081728
H	 2.5643783274	-3.2200209569	 0.8997703042	 0.236572
H	 0.6445533172	-2.5738793488	 2.0562275757	 0.086353
H	 0.085221963	-0.2624229806	 2.1107549948	 0.070416
H	 2.608026961	-0.4332925231	 1.0240000171	 0.289822
