18
gdb 110460	2.75912	1.70974	1.31306	3.2861	69.9	-0.2476	0.0468	0.2944	987.4489	0.149408	-439.011213	-439.003692	-439.002748	-439.042993	29.915	
O	 0.054555118	 1.1650570873	 0.6808202105	-0.416357
C	 0.0193139264	 0.0009067119	-0.1593198645	-0.150011
C	-1.3673695311	-0.6273263027	-0.0246779017	 0.018397
C	-1.5277014595	-2.1330593895	 0.0865250466	-0.071911
C	-1.4071584839	-2.5349748535	 1.520864506	-0.091341
C	-1.2374573678	-1.2923503948	 2.3850655896	 0.162466
O	 0.0289447036	-0.7895697628	 2.7144486699	-0.460488
C	-2.1280004589	-0.6157605684	 1.3278937424	-0.088728
N	-2.7244115422	-2.0204854991	 0.9866444265	-0.168002
H	 0.8862612583	 1.6254338236	 0.527980293	 0.298365
H	 0.2158534777	 0.2812815065	-1.2026121396	 0.101967
H	 0.7877110378	-0.7145329123	 0.1578601607	 0.115608
H	-2.0466967	-0.2457005158	-0.7925994899	 0.091577
H	-1.4997028573	-2.8662449563	-0.7123609188	 0.095654
H	-1.2955551726	-3.572352244	 1.8147820618	 0.095086
H	-1.8250614904	-1.4386128588	 3.3007941236	 0.089648
H	 0.1371632809	 0.0581720434	 2.2563473837	 0.291107
H	-2.7919467789	 0.2066021553	 1.5832920202	 0.086963
