18
gdb 16393	3.10899	2.28537	1.75852	1.9217	66.3	-0.2439	0.0771	0.321	815.0821	0.155268	-384.919366	-384.912359	-384.911415	-384.950202	28.077	
C	-0.0853174437	 1.5245711985	 0.0115452966	-0.411725
C	 0.0565481879	 0.0060227451	-0.0139354086	-0.02581
C	 1.0433100857	-0.5247545042	-1.0780952064	 0.076028
C	 1.1767847027	-2.0233796303	-0.7367849202	-0.245576
C	 1.8945848859	-1.3747652852	 0.4602284318	 0.037033
O	 2.3503449974	-0.3034872572	-0.4368311501	-0.318046
C	 0.7956852696	-0.6211914853	 1.2366583397	 0.149967
O	 1.3444449412	 0.3165337908	 2.133638211	-0.436645
H	 0.8918249735	 2.0148544128	-0.0312023172	 0.118156
H	-0.668152685	 1.8695464032	-0.8488650485	 0.108817
H	-0.586865065	 1.8606002928	 0.9226012479	 0.129095
H	-0.928955182	-0.4536993462	-0.1441683488	 0.073019
H	 0.9852218357	-0.1371395457	-2.0956336869	 0.080495
H	 0.2705435871	-2.6094276815	-0.5629032334	 0.097921
H	 1.8718166962	-2.5437310915	-1.3964311013	 0.114157
H	 2.6927139016	-1.8479450578	 1.0322388493	 0.084505
H	 0.1507588969	-1.2746822571	 1.8291610414	 0.083241
H	 2.0262215444	 0.7889286587	 1.6384998337	 0.285368
