15
gdb 50020	3.22952	1.05838	0.98216	3.7474	68.03	-0.2701	-0.0469	0.2232	1208.3059	0.111545	-457.779603	-457.771617	-457.770672	-457.81284	28.669	
O	-0.0456600376	-0.0054760446	-0.3571410798	-0.250566
C	 0.0306785847	 1.1339973203	 0.0224238758	 0.171763
C	 1.2786642042	 1.9380196774	 0.0330146867	-0.161345
C	 1.1533809719	 3.4390592562	-0.1540231464	-0.350551
C	 1.4956915328	 2.9013116785	 1.1890412667	 0.091506
C	 0.8261612441	 3.020899647	 2.5538684725	-0.153415
O	 2.1514006867	 3.1903757082	 3.1583270552	-0.247852
C	 2.7872102189	 3.0781869049	 1.9415700294	 0.450002
O	 3.9499184866	 3.1253016365	 1.7059457316	-0.332255
H	-0.8668235665	 1.682469538	 0.3971989533	 0.070267
H	 2.1605639803	 1.4398266048	-0.354363704	 0.138867
H	 1.9366864735	 3.9377513025	-0.7131055328	 0.158881
H	 0.154330476	 3.8413367448	-0.2929550932	 0.139255
H	 0.210033923	 3.9076862603	 2.7166506203	 0.135466
H	 0.3368897513	 2.1273217953	 2.9464803547	 0.139978
