23
gdb 112734	2.36857	1.19549	1.01182	1.4664	82.06	-0.2477	0.0733	0.321	1328.5564	0.202882	-425.411546	-425.400894	-425.39995	-425.446688	39.584	
C	-0.4993452932	 1.6546000015	-0.0190431994	-0.237652
O	-0.478634996	 0.3998086605	 0.6224984251	-0.242348
C	-1.2960766385	-0.5562898727	 0.0006934527	 0.133043
C	-0.8255299566	-1.1896706205	-1.3394948302	-0.330512
C	-1.2880718898	-2.5601276047	-0.7805180335	 0.130244
O	-0.5522313645	-3.721861151	-1.0698326463	-0.432118
C	-1.2801996607	-1.9621970247	 0.6719186789	 0.227613
C	 0.0365408894	-2.2437501921	 1.4010345288	-0.445314
C	-2.4769100871	-2.3100615027	 1.550908565	-0.46198
H	 0.1438172398	 2.3256266937	 0.5555559389	 0.12618
H	-0.1197108739	 1.5967162832	-1.0502182018	 0.108445
H	-1.5162213349	 2.0771403719	-0.0511895271	 0.104102
H	-2.3250482691	-0.1715278384	-0.0857425784	 0.059165
H	-1.2672645459	-0.8419087018	-2.2755826597	 0.099264
H	 0.2658016957	-1.1426094022	-1.4198764202	 0.100755
H	-2.3125646711	-2.7861998216	-1.0917704526	 0.085018
H	 0.3675629724	-3.5584586301	-0.8371855845	 0.280009
H	 0.9138676493	-1.9602840361	 0.8108196278	 0.107072
H	 0.0889343772	-1.6731041271	 2.3318768907	 0.128513
H	 0.1110614422	-3.3087262963	 1.6441907963	 0.116373
H	-2.4620365092	-3.3699561451	 1.8293448086	 0.119338
H	-2.4749084173	-1.7213098977	 2.4753747419	 0.117444
H	-3.4216803982	-2.115198966	 1.0315046988	 0.107345
