24
gdb 120624	3.23068	0.83039	0.77491	2.1471	86.87	-0.2267	0.0814	0.308	1624.8587	0.215437	-405.521461	-405.510562	-405.509617	-405.55813	39.963	
C	-0.3989902613	 1.5656249958	 0.2685776994	-0.388041
C	 0.1183225768	 0.1514238747	-0.0277884276	-0.238893
C	 0.7924764287	-0.5148881121	 1.1645743355	 0.344717
C	 2.0445149463	 0.1751753135	 1.6738729191	-0.446787
C	-0.0559750072	-1.2765573825	 2.1271018342	-0.294499
N	 0.8706558506	-1.9834195296	 1.2395126821	-0.148149
C	 0.3127595631	-2.8288749692	 0.1838727004	-0.136986
C	 0.565855275	-4.2924564408	 0.5462150603	-0.06134
O	 0.0072683278	-4.633248818	 1.802318965	-0.422861
H	 0.4129793579	 2.2517111789	 0.5266567136	 0.121609
H	-0.9138766159	 1.9790026921	-0.6040790403	 0.114345
H	-1.1070897264	 1.556941217	 1.1039070597	 0.118953
H	-0.7186768156	-0.4648672877	-0.3686964517	 0.10005
H	 0.832108762	 0.1937983815	-0.8620489918	 0.097471
H	 1.8221088706	 1.1665213347	 2.0816572943	 0.116929
H	 2.5107478199	-0.4243506482	 2.4589778351	 0.122423
H	 2.7753008889	 0.299985825	 0.8660886076	 0.113593
H	 0.1847041701	-1.293496288	 3.188137082	 0.105701
H	-1.1200207482	-1.3582220214	 1.9070292436	 0.109623
H	-0.7676919661	-2.6753116569	 0.0384926636	 0.093373
H	 0.8157532699	-2.6028977983	-0.7647913189	 0.097298
H	 0.0949272699	-4.947543817	-0.1947245822	 0.100694
H	 1.649722774	-4.4838468112	 0.5284909922	 0.089331
H	 0.447362089	-4.0692434024	 2.4479708748	 0.291445
