19
gdb 38416	4.05523	1.33204	1.21576	1.5952	79.45	-0.2303	0.0278	0.2581	1073.8941	0.159982	-385.858778	-385.851418	-385.850473	-385.890727	29.778	
C	 0.0560735104	 1.4860735758	 0.1231364222	-0.309957
C	 1.3004442878	 0.6715354578	-0.032343673	 0.103457
O	 1.6795340948	 0.0728674615	 1.2066756664	-0.331521
C	 0.4429218934	-0.7272767108	 1.2132874529	 0.434376
C	 0.7767243663	-2.2300218813	 1.0605299282	-0.310337
C	 0.5575888683	-2.7883056476	 2.4435766107	-0.068014
C	-0.0387856819	-1.9104161908	 3.2482671517	-0.064919
C	-0.3206047748	-0.6037866406	 2.5503225915	-0.315218
C	-0.0391213005	-0.0181226953	-0.0522890894	-0.195631
H	-0.1659861508	 1.9561301618	 1.0764527331	 0.115261
H	-0.2430813066	 2.0554321601	-0.7519495058	 0.111894
H	 2.0659001235	 0.8177944734	-0.7853162431	 0.101259
H	 0.1129887325	-2.7104759991	 0.3272615845	 0.102735
H	 1.800657551	-2.3498076793	 0.6921360114	 0.119635
H	 0.8436645182	-3.7977393491	 2.7169413041	 0.091837
H	-0.3148370293	-2.0920698925	 4.2809486448	 0.09184
H	 0.0322900954	 0.2697018276	 3.1077962155	 0.11938
H	-1.3960674562	-0.4588990362	 2.3769613059	 0.109398
H	-0.5839316014	-0.4880325353	-0.8605855417	 0.094525
