19
gdb 86067	2.8098	1.20488	0.86675	4.4215	86.48	-0.2198	-0.0369	0.1829	1335.587	0.159004	-382.097368	-382.088129	-382.087185	-382.131307	33.54	
C	-0.0044152702	 1.42795646	 0.0249906274	-0.31967
N	-0.0686036408	-0.011514055	 0.1484089608	-0.071259
C	-1.4095495961	-0.5857148861	 0.2053122835	-0.235735
C	-1.2163500131	-1.8836119798	 0.9458492858	 0.218167
C	-2.268704136	-2.935684281	 1.0154214573	-0.512022
C	-0.0021540283	-1.8796263906	 1.5204108074	 0.115144
C	 0.7323514267	-0.5899227245	 1.2261875437	-0.261187
C	 0.5362413018	-2.9070900942	 2.3361001647	 0.197999
N	 0.9896916655	-3.7376547291	 3.0056080346	-0.348516
H	 1.0361282859	 1.7450752077	-0.0965286947	 0.126093
H	-0.5558547794	 1.7496828363	-0.8643215326	 0.1236
H	-0.4242703218	 1.9630106049	 0.8987018909	 0.094782
H	-2.1371327408	 0.0469592479	 0.7570302049	 0.094578
H	-1.827310773	-0.7297738347	-0.8015539515	 0.114882
H	-2.517024827	-3.3019248488	 0.0118887352	 0.142498
H	-1.9517996965	-3.7832483645	 1.626812202	 0.154987
H	-3.1955945531	-2.5286308615	 1.4382077613	 0.14069
H	 1.7712244579	-0.7502044574	 0.9104118083	 0.124422
H	 0.7660999982	 0.0445194305	 2.1338439508	 0.100546
