22
gdb 93661	2.42534	1.4784	1.1691	3.3992	83.2	-0.2332	0.0379	0.2711	1185.16	0.19415	-404.412292	-404.402465	-404.401521	-404.446454	36.549	
C	-0.0014668388	 1.4215386046	-0.1045123959	-0.345297
N	-0.030029642	-0.0186444069	-0.0185593494	-0.072991
C	-1.1553407553	-0.8090166617	-0.4831312779	-0.177493
C	-0.8141754503	-2.2306413533	 0.0070701312	-0.261017
C	 0.7265134225	-2.2503057507	 0.1143723968	 0.170878
C	 1.257204656	-3.080358465	 1.285882367	-0.429613
C	 1.3853607911	-2.7041410229	-1.2041901053	-0.423371
C	 1.0715028023	-0.761524771	 0.3104871759	 0.408665
O	 2.1465567343	-0.3167221159	 0.6642071895	-0.415379
H	 0.9660345122	 1.7554078334	 0.2747532139	 0.164448
H	-0.1190078918	 1.7642672376	-1.1414186556	 0.119767
H	-0.8027030097	 1.868041054	 0.4964592758	 0.121469
H	-2.0954922446	-0.4349555634	-0.0612237439	 0.107874
H	-1.248281356	-0.7570306499	-1.5790678076	 0.10206
H	-1.2565460772	-2.3901117636	 0.9953290386	 0.106894
H	-1.2066652859	-3.0015591096	-0.6607057334	 0.103783
H	 1.0712796508	-4.1475777084	 1.124418883	 0.106636
H	 2.333824652	-2.9249301466	 1.3957576754	 0.138064
H	 0.779665481	-2.7902896691	 2.2274240881	 0.112735
H	 0.9990981725	-2.1460914798	-2.0640666911	 0.112451
H	 2.4669508759	-2.5487002815	-1.1614587923	 0.137106
H	 1.1932303111	-3.7680613203	-1.3790239029	 0.112331
