20
gdb 36954	4.90269	0.77999	0.70895	0.8609	75.33	-0.2304	0.0605	0.2909	1574.1099	0.171312	-440.217232	-440.208388	-440.207444	-440.252389	31.552	
C	 0.3768298081	 1.6691004979	 0.135032971	-0.100692
O	 1.683393352	 1.0607436514	 0.1401417453	-0.269318
C	 1.1207245044	-0.2634963328	 0.0709647734	-0.090384
C	-0.2962415756	 0.3246887928	-0.2088620636	 0.009198
N	-1.4571026522	-0.037519242	 0.5630833951	-0.29693
C	-2.1159985523	-1.267662785	 0.2062971263	 0.009197
C	-1.6215316357	-2.6630833594	 0.6965657021	-0.090384
O	-2.9355188081	-2.9810008258	 1.1939193824	-0.269318
C	-3.3915142671	-1.6283595236	 0.9947688	-0.100692
H	 0.0935565199	 2.0532245194	 1.1264598553	 0.094562
H	 0.2962464718	 2.480258379	-0.5964393714	 0.110322
H	 1.5898240371	-0.8712115719	-0.7115787619	 0.103393
H	 1.1948011682	-0.7943548912	 1.0323692396	 0.088499
H	-0.5563132809	 0.2525202391	-1.2691074471	 0.094918
H	-1.2574275371	-0.0061285186	 1.5587156706	 0.215933
H	-2.2865960016	-1.26151219	-0.8743622163	 0.094918
H	-1.2799265343	-3.3823361838	-0.0569115816	 0.103393
H	-0.876511855	-2.6068689657	 1.5048858941	 0.0885
H	-3.4840596937	-1.0773542017	 1.9426880797	 0.094562
H	-4.3480179778	-1.5836598082	 0.4631436769	 0.110322
