22
gdb 104981	2.43402	1.28193	1.11984	3.7571	77.42	-0.2418	0.0551	0.2969	1220.3983	0.192326	-441.460143	-441.449871	-441.448927	-441.494732	39.315	
C	-0.3226935173	 1.4707604203	-0.1367748903	-0.42253
C	 0.0376228094	-0.0197003832	-0.0195313383	 0.250681
C	 0.841693474	-0.293622984	 1.2599566174	-0.415202
O	-1.1768708057	-0.7845560234	 0.005336329	-0.470656
C	 0.8037831978	-0.5149024848	-1.2556421171	 0.312339
C	 2.1177195114	 0.1949973071	-1.5963762602	-0.132047
O	 2.612459233	-0.2169493559	-2.8490812429	-0.425746
C	 0.6585765309	-1.9312078445	-1.6696300183	-0.275814
N	 0.0354030269	-0.8484947321	-2.4674181289	-0.395879
H	 0.5613524327	 2.1124435122	-0.1061491907	 0.127128
H	-0.861670323	 1.6657797406	-1.0680137192	 0.129085
H	-0.9663775695	 1.7645579447	 0.7009001014	 0.102341
H	 0.2716045187	 0.0203895105	 2.1420409152	 0.10329
H	 1.0571339483	-1.3612127564	 1.350469367	 0.129894
H	 1.7877909269	 0.255716744	 1.2688603544	 0.125569
H	-1.7200824824	-0.4502532387	 0.7257825877	 0.281565
H	 1.9634209168	 1.2859365919	-1.5761984184	 0.083512
H	 2.883935372	-0.041484132	-0.8491922437	 0.1051
H	 1.8250482462	-0.2926569371	-3.4114194629	 0.29288
H	 1.4930979721	-2.4228944166	-2.1584100403	 0.124721
H	-0.0023439668	-2.5643341026	-1.0896511564	 0.12747
H	-0.9572955822	-0.8140828999	-2.2489698643	 0.242297
