18
gdb 50244	2.89694	1.44737	1.21782	2.9745	77.04	-0.2202	-0.0313	0.1888	1061.8289	0.148681	-401.932881	-401.925308	-401.924364	-401.96541	29.047	
O	-0.5785776574	 0.4732638017	-0.2292254534	-0.250897
C	-0.1645275215	 1.5940972727	-0.0724429693	 0.138202
C	 1.296866475	 1.9278869039	 0.1529929601	-0.041922
C	 1.847148374	 2.9185156201	-0.9230273554	-0.284347
C	 1.95339716	 3.9657541119	 0.2160358213	-0.008842
C	 0.8503335491	 4.9794319028	 0.3752244668	-0.088148
C	 0.0883641925	 4.6806659307	 1.4277761237	-0.069547
C	 0.5675303107	 3.4134489763	 2.1067883067	-0.234111
N	 1.6361460989	 2.9107456796	 1.2252643454	-0.104869
H	-0.8450111419	 2.4730856403	-0.1291580675	 0.085109
H	 1.8403043134	 0.9839409201	 0.2550170266	 0.097
H	 2.8029742585	 2.6073786915	-1.3461549363	 0.121462
H	 1.1604953158	 3.1669998133	-1.7353256798	 0.11452
H	 2.9443318979	 4.4253491444	 0.3309800079	 0.084593
H	 0.7475668892	 5.8510553363	-0.2607260095	 0.103472
H	-0.7433748656	 5.2691850353	 1.7979509175	 0.104644
H	 0.9592549079	 3.6264350887	 3.1125550183	 0.114661
H	-0.2235160864	 2.6639592403	 2.2405377369	 0.119019
