19
gdb 75710	2.17437	1.7076	1.29997	2.13	75.31	-0.241	-0.0301	0.2109	1063.4207	0.157727	-423.018888	-423.009981	-423.009037	-423.052334	33.485	
C	-0.3866990037	 1.4698330795	-0.0265665957	-0.503994
C	 0.028017294	 0.0165298692	 0.0059732234	 0.321397
C	-1.0802994014	-1.0532968555	 0.2338043058	-0.282274
C	-0.3481205925	-1.5717248848	 1.5051203244	-0.215836
C	 0.8636490847	-0.6492642591	 1.1831792299	-0.216967
C	 1.7342728222	-1.2977548963	 0.1028710951	 0.357211
O	 2.4652397684	-2.2501515296	 0.0666877397	-0.321745
C	 1.1215477138	-0.4480146965	-1.010251511	-0.002442
O	 0.7639782884	-1.0712183193	-2.2116930226	-0.43567
H	 0.4831414364	 2.1363035825	-0.0339638739	 0.116101
H	-0.9796531578	 1.6843102043	-0.9234277791	 0.130773
H	-0.9992947445	 1.728175393	 0.8441843968	 0.117629
H	-2.0716762694	-0.6355654337	 0.4205924593	 0.105138
H	-1.1591864438	-1.7691916702	-0.5878054145	 0.11514
H	-0.8467531956	-1.2682971253	 2.4282356393	 0.110504
H	-0.1280206942	-2.6401255366	 1.5645538984	 0.118068
H	 1.355964798	-0.1142470726	 1.9961685755	 0.091878
H	 1.7866027962	 0.4147394701	-1.1967986781	 0.096105
H	 1.2336259909	-1.913710399	-2.2440108928	 0.298984
