20
gdb 62757	3.41659	1.20883	1.18166	2.2131	78.66	-0.2242	-0.0225	0.2017	1151.9049	0.169918	-403.159506	-403.150763	-403.149819	-403.192591	33.852	
C	 0.0311298625	 1.5623283299	-0.0937361133	-0.480185
C	 0.021170581	 0.0442313578	-0.0680973161	 0.325729
C	-1.1546236567	-0.5310357171	 0.6993409432	-0.441056
C	 0.5745574713	-0.7687157105	-1.1910312862	-0.082594
C	 1.4360555712	-0.1200853432	-2.2502409328	-0.35931
C	 2.6377198556	 0.4565630191	-1.4819809443	 0.381688
O	 3.5103838696	 1.1454502019	-1.9378436831	-0.30508
C	 2.5218659839	-0.0156188186	-0.0228812372	-0.276703
N	 1.2625225587	-0.738588733	 0.1402407208	-0.148256
H	 0.8202843209	 2.0008189364	-0.7074709771	 0.133942
H	-0.9240807786	 1.930728968	-0.4822538732	 0.127099
H	 0.1431085534	 1.9582423615	 0.9223714531	 0.12799
H	-2.1034743748	-0.2454505567	 0.2314113675	 0.112834
H	-1.0949613256	-1.6211783339	 0.7345094468	 0.127447
H	-1.1614232712	-0.1606101409	 1.7305505242	 0.118185
H	 0.091474873	-1.7104259434	-1.4387049566	 0.089093
H	 1.804800415	-0.8557933031	-2.9740084932	 0.138494
H	 0.9479012773	 0.673126176	-2.8239832135	 0.139188
H	 3.3573353052	-0.6930215376	 0.194061098	 0.136135
H	 2.6166710682	 0.8356375973	 0.658869743	 0.13536
