21
gdb 73537	2.45395	1.92775	1.57631	1.4554	81.55	-0.2382	0.0825	0.3206	973.34	0.184292	-387.019138	-387.01155	-387.010606	-387.050918	31.41	
C	-0.1370619307	 1.5243950689	-0.0716945657	-0.479097
C	-0.0423157531	-0.0014227598	-0.0686825494	 0.340197
C	-1.4336537527	-0.611078576	 0.2216749724	-0.359262
C	-1.3397492637	-0.9036470959	 1.7740975785	-0.087885
O	 0.0467919241	-0.7913749231	 2.2023816563	-0.324586
C	 0.7519079759	-0.7451258053	 1.012066773	 0.424719
C	 2.077924768	-0.1732760051	 0.4591607386	-0.31368
C	 1.2089044886	-0.6655558295	-0.7802173228	-0.143721
C	 0.9564663814	-1.9545731825	 0.0292151737	-0.297848
H	 0.8195177769	 2.0275257817	-0.2231959366	 0.115728
H	-0.8007678581	 1.8470824717	-0.8818687236	 0.114204
H	-0.5665253633	 1.8968289919	 0.8660807587	 0.120979
H	-2.242071544	 0.0925580972	 0.0106815032	 0.100065
H	-1.6551633545	-1.5268233253	-0.3266963225	 0.113103
H	-1.9191374596	-0.1889189458	 2.3660198563	 0.111656
H	-1.6995769581	-1.9122801408	 2.0051916776	 0.106978
H	 2.2612596431	 0.893878851	 0.5682876166	 0.102913
H	 2.9846380069	-0.7523140428	 0.6480855321	 0.096617
H	 1.505938849	-0.5945965243	-1.8256432619	 0.077531
H	 1.8293002315	-2.5821495469	 0.2208378284	 0.089893
H	 0.0908591125	-2.5586768394	-0.2381801829	 0.091495
