16
gdb 26869	3.09712	1.46483	1.00103	5.7536	79.89	-0.2023	-0.0376	0.1647	1139.8356	0.124964	-434.111859	-434.103403	-434.102459	-434.144959	31.49	
C	 0.0078457529	 1.5471393593	 0.0307770209	-0.525876
C	 0.0081045126	 0.0435682351	 0.0087272777	 0.110582
C	-1.1484838331	-0.6987142455	 0.0369099553	 0.4145
N	-2.4060199835	-0.1992330393	 0.1129114931	-0.56855
O	-1.139032483	-2.0299015096	 0.0224169457	-0.228421
C	 0.0842917175	-2.7529586833	-0.0060799434	 0.420242
N	-0.0770431428	-4.0087996033	 0.0027982448	-0.53974
N	 1.2574291443	-2.0398515422	-0.0440170903	-0.342412
C	 1.1894779995	-0.7367987001	-0.0353538748	-0.024341
H	 1.0342268508	 1.9237528147	 0.0077063893	 0.137683
H	-0.509513273	 1.9838491986	-0.8347469053	 0.12204
H	-0.4649913698	 1.9538619923	 0.9339797276	 0.130829
H	-2.5556863916	 0.7710173151	-0.1030105401	 0.275409
H	-3.1668489995	-0.8371843768	-0.0573218451	 0.278979
H	 0.8453605092	-4.4398475546	-0.0231562689	 0.230865
H	 2.1448481195	-0.2088414803	-0.0659076063	 0.108211
