23
gdb 116894	4.08881	0.52026	0.47574	0.9339	93.94	-0.24	0.0486	0.2886	2418.0205	0.202285	-388.261281	-388.249479	-388.248535	-388.300652	40.472	
C	-0.0350288584	 1.6088151224	 0.0274231738	-0.381584
C	 0.0055921322	 0.0795885655	 0.0373190345	-0.152864
C	-1.4011676378	-0.5445028628	-0.0650845717	-0.339326
C	-1.3903202115	-2.0029099528	-0.0580559776	 0.06463
C	-1.3456203303	-3.206291526	-0.0565358495	 0.100676
C	-1.3368076464	-4.6687106966	-0.0308646274	-0.042084
C	-2.7660334855	-5.2312665214	 0.0478465692	-0.389153
O	-0.648622996	-5.1273671853	-1.1932085209	-0.241035
C	-0.1525435325	-6.4415595512	-1.0870732178	-0.229083
H	 0.9715714421	 2.0314562989	 0.0994140342	 0.1145
H	-0.4903299496	 1.9885624367	-0.8941402694	 0.115858
H	-0.6199584506	 1.99675542	 0.8690227523	 0.114629
H	 0.6159753142	-0.2880809744	-0.7948137954	 0.112411
H	 0.4860892929	-0.2799701537	 0.954071871	 0.107586
H	-2.0206888097	-0.1806055173	 0.7661622946	 0.124133
H	-1.8907818272	-0.1863372206	-0.9809609124	 0.126519
H	-0.7791023125	-5.0004740933	 0.8624576907	 0.086425
H	-3.2732923033	-4.8497112944	 0.9381511174	 0.12438
H	-3.3319575612	-4.9271825028	-0.8361246862	 0.132839
H	-2.7538647553	-6.3234654322	 0.1029435442	 0.113884
H	 0.4277963415	-6.6353864154	-1.9925457426	 0.128595
H	 0.5076172676	-6.5586375774	-0.2127378556	 0.103208
H	-0.9494110026	-7.1969542561	-1.0186622054	 0.104857
