21
gdb 51879	3.80418	0.86553	0.74737	2.4091	79.51	-0.2478	-0.0235	0.2244	1510.0595	0.182932	-424.247822	-424.238914	-424.23797	-424.28239	33.029	
O	-0.6372212339	 0.7424790334	 0.7364587754	-0.240497
C	 0.0823190751	 0.9658856576	-0.2023090058	 0.161039
C	 1.3236556115	 1.828039693	-0.1693602774	-0.29198
C	 1.2983558864	 2.936867497	-1.2369130169	 0.011559
C	 0.2058877473	 3.9866616575	-0.9635969891	-0.203166
C	 0.2788992174	 5.1191704562	-1.9902340879	-0.080297
O	 1.5593439461	 5.724768816	-2.017632862	-0.239837
C	 2.5761898467	 4.8011575459	-2.3612642417	-0.081257
C	 2.657960271	 3.6447751551	-1.3606269294	-0.211151
H	-0.1353647254	 0.5252602856	-1.205488328	 0.068516
H	 1.4403493467	 2.2415915338	 0.8373053243	 0.12026
H	 2.1799963789	 1.1655481502	-0.3660953353	 0.115112
H	 1.0786783997	 2.4658477155	-2.2083114622	 0.073615
H	-0.7921654209	 3.5327914885	-0.9840324262	 0.10344
H	 0.3478147542	 4.4061644739	 0.0405156279	 0.109952
H	 0.0236768956	 4.7313133714	-2.9925923108	 0.083307
H	-0.4313203697	 5.9151554556	-1.7492510128	 0.109682
H	 2.3977827523	 4.4036390534	-3.3764662428	 0.082897
H	 3.5112433718	 5.3682558158	-2.3844652445	 0.108513
H	 2.9542430871	 4.0427404267	-0.3817474973	 0.106782
H	 3.4356286923	 2.9376097178	-1.6740634674	 0.093512
