21
gdb 78936	3.32722	1.52515	1.32799	0.1641	85.44	-0.2313	0.0922	0.3235	1065.5983	0.183181	-349.891091	-349.883405	-349.882461	-349.922652	31.722	
C	-0.1822164027	 1.4988292872	-0.0107567832	-0.411169
C	-0.0219005718	-0.0174315625	 0.0153298289	 0.004791
C	 1.1565969874	-0.5563643665	-0.8419685829	-0.056158
C	 1.2734267676	-2.0677256753	-0.5442829943	-0.124731
C	 2.4260376234	-1.9122147807	 0.427279121	-0.173366
C	 2.1448934313	-0.381477698	 0.3771424868	-0.050168
C	 0.816272107	-0.5581457923	 1.2065788421	-0.114445
C	 1.0217833639	-2.0776441976	 0.9704434669	 0.365512
C	 0.4045479075	-3.2232550067	 1.7121565098	-0.517737
H	 0.7754633883	 2.007112634	 0.1487027357	 0.113584
H	-0.580198067	 1.838078021	-0.9735649705	 0.11084
H	-0.8705462114	 1.8380560756	 0.7712237578	 0.110749
H	-0.9895327711	-0.5086329637	-0.147116482	 0.05753
H	 1.3623156539	-0.1954667327	-1.8503151953	 0.056392
H	 1.0223785014	-2.9109816454	-1.1754092463	 0.077888
H	 3.3215431722	-2.5030187181	 0.5700879851	 0.080619
H	 2.8582620067	 0.4291472442	 0.497651857	 0.065638
H	 0.6828756142	-0.20127298	 2.2290301428	 0.053312
H	-0.6896424481	-3.2073493369	 1.6353913429	 0.117227
H	 0.74914421	-4.1823291058	 1.3094898769	 0.117458
H	 0.6630857674	-3.2007908598	 2.7773228209	 0.116234
