17
gdb 46262	3.01472	1.49833	1.24931	4.1339	73.42	-0.226	-0.0233	0.2026	1031.9476	0.13641	-417.942419	-417.934839	-417.933895	-417.974686	29.352	
O	-0.0526984163	 0.0201845121	-0.2914379496	-0.281607
C	-0.0499029698	 1.1934947859	-0.0769983452	 0.335234
C	-1.1201183555	 2.2398028539	 0.2862745519	-0.286071
N	-0.0093167187	 3.1850750928	 0.5844856519	-0.38028
C	 1.0194450183	 2.2940706112	-0.0083050078	 0.26156
C	 2.4124349428	 2.199240979	 0.6965436147	-0.288229
C	 3.0691622357	 2.6787655898	-0.6052071289	-0.040585
N	 2.7105549289	 1.6738080601	-1.6301320842	-0.311365
C	 1.7499273554	 2.7504264486	-1.290600134	-0.149154
H	-1.7563603383	 2.4995618444	-0.5709204572	 0.121241
H	-1.7598506617	 2.0062402704	 1.1435156659	 0.132794
H	-0.0913862383	 4.0854447019	 0.1247587434	 0.220683
H	 2.4555095371	 2.927249987	 1.5090588129	 0.118829
H	 2.7213210407	 1.211604171	 1.0457045725	 0.122467
H	 3.9474688761	 3.3015771546	-0.7192040935	 0.098644
H	 3.1626333011	 1.9477080992	-2.5028970975	 0.232349
H	 1.3676663325	 3.427754928	-2.0465602954	 0.093488
