12
gdb 21382	5.54143	2.21343	1.58166	2.5751	61.23	-0.2193	-0.0066	0.2127	722.6689	0.088099	-377.535303	-377.529972	-377.529028	-377.564535	21.066	
N	 0.0269552369	 1.3578094731	 0.0096459763	-0.349749
N	 1.3048338541	 1.824440782	-0.0002846367	-0.218597
C	 2.1012160663	 0.7530300225	-0.0140706781	-0.145608
C	 1.3076888169	-0.4051551798	-0.0127629408	 0.265151
C	-0.0134844992	 0.0016508096	 0.0024618255	 0.340283
C	-0.8154565105	-1.1839615062	 0.0036895924	-0.351682
C	 0.0960395117	-2.1998097996	-0.0109219947	 0.007049
O	 1.3960254769	-1.7630404627	-0.021222733	-0.207983
H	-0.7253557176	 2.0229396934	 0.0207411818	 0.27388
H	 3.1721619941	 0.8769449578	-0.0238770628	 0.123505
H	-1.8874824793	-1.294648445	 0.0135797818	 0.122387
H	-0.0245976403	-3.271181765	-0.0157280116	 0.141363
