19
gdb 17892	3.71865	1.95721	1.72723	0.2132	70.41	-0.2088	0.0809	0.2897	850.9924	0.167813	-365.022516	-365.015537	-365.014593	-365.053242	27.92	
C	-0.1499299847	 1.488546909	 0.0450786003	-0.420394
C	 0.0276064889	-0.0178302661	-0.0453888978	 0.061233
C	 0.8634584901	-0.5934394796	-1.2140624449	 0.114704
C	 2.0691519753	-0.4254744288	-0.2668488636	-0.222672
N	 1.1044985076	-0.5446709083	 0.8938155572	-0.130207
C	 0.8290316738	-1.9824196936	 1.0857182231	-0.186337
C	 0.8527317389	-2.7738125826	-0.2539753811	-0.082871
O	 0.5258380119	-1.9649343632	-1.386144926	-0.275418
H	 0.7846585272	 2.0300307038	-0.1278271145	 0.11817
H	-0.8791111224	 1.8308018636	-0.6970759035	 0.116479
H	-0.5146152793	 1.7653378756	 1.038818697	 0.126794
H	-0.9359406902	-0.521221819	 0.0872206064	 0.07108
H	 0.8444227649	-0.1339017264	-2.2065078151	 0.072442
H	 2.8710648587	-1.1663512866	-0.3000244	 0.107561
H	 2.5098229036	 0.5728065971	-0.293039451	 0.110671
H	 1.5774523887	-2.4069876853	 1.7653138162	 0.10245
H	-0.1442443752	-2.0671039678	 1.5800678071	 0.109118
H	 1.8484432213	-3.2143172141	-0.4036746057	 0.098383
H	 0.1356451108	-3.6001293977	-0.2391919441	 0.108815
