16
gdb 87099	3.0311	1.16898	0.9821	4.2617	72.86	-0.2817	-0.0864	0.1954	1215.2067	0.121414	-437.893139	-437.883754	-437.88281	-437.927573	33.605	
C	-0.0426509203	 1.5371018476	 0.0875772046	-0.41069
C	 0.0420134461	 0.0306322525	 0.0308458992	-0.014455
C	 1.3314827814	-0.6725485262	-0.2462236159	-0.333897
C	 0.7413556893	-0.7265368351	 1.1615835273	 0.249133
O	 1.2967753909	 0.0378596906	 2.1813409315	-0.449063
C	 0.111818017	-2.0106944861	 1.5687229506	 0.23654
O	-0.4436910246	-2.7771870389	 0.8163994618	-0.298798
C	 0.2172913508	-2.3297605118	 3.0113166927	 0.238253
N	 0.3022583299	-2.6324113418	 4.1240088104	-0.309511
H	 0.8532610557	 1.9670429382	 0.5397330917	 0.135607
H	-0.1518709375	 1.9446824798	-0.9227106432	 0.127854
H	-0.9054059617	 1.8606076707	 0.6775535438	 0.133266
H	-0.8441202167	-0.4827680337	-0.3309106846	 0.123299
H	 1.3149223922	-1.5946057628	-0.8160922382	 0.144304
H	 2.2271593668	-0.0667049226	-0.3374935897	 0.12802
H	 2.1608805408	-0.3196595304	 2.414531758	 0.300136
