12
gdb 22464	2.37416	0.90884	0.65724	3.1008	83.29	-0.2565	-0.1006	0.1559	1554.2181	0.073455	-435.374715	-435.365378	-435.364434	-435.410598	31.394	
O	-0.0717367532	 1.3479779426	 0.0096216823	-0.358662
N	 0.0672493593	-0.0153756372	 0.0010119643	-0.149954
C	-1.0786551104	-0.6280286275	 0.0089330695	 0.080336
C	-1.0613886578	-2.0535152379	 0.0011010818	 0.288743
C	-1.0971670375	-3.2552713454	-0.0050361155	-0.440122
C	-2.3377656075	 0.037338219	 0.0246495615	 0.165727
C	-3.416530992	 0.5829732837	 0.0379920907	-0.031363
C	-4.6812171037	 1.2761582981	 0.0539846797	 0.015648
O	-5.7577433064	 0.7256852597	 0.0603771906	-0.219536
H	 0.8431939931	 1.6553081987	 0.0023322548	 0.324924
H	-1.1207839888	-4.3173864971	-0.0106679521	 0.214142
H	-4.5901646853	 2.3803133532	 0.0601280821	 0.110117
