22
gdb 15830	4.28159	0.95593	0.83468	1.4314	78.9	-0.258	0.077	0.335	1452.7751	0.19881	-350.197235	-350.18744	-350.186496	-350.232266	35.552	
C	-0.0079108563	 1.5455313521	-0.0851400666	-0.382026
C	-0.0011396808	 0.0180980203	 0.0134835367	-0.164024
C	-1.4038349535	-0.5947726228	-0.0394206669	-0.177004
C	-1.4159637355	-2.1202759857	 0.1281675776	 0.105066
O	-0.807072703	-2.5154887383	 1.3596129431	-0.432271
C	-2.8086450778	-2.6965010915	-0.0192440236	 0.009972
C	-3.3141286678	-3.1346470554	-1.3720636228	-0.266178
C	-2.9909783184	-4.1605961025	-0.315126823	-0.27167
H	 1.0077538643	 1.9520075623	-0.0484580888	 0.110928
H	-0.4676177227	 1.883540827	-1.0209258425	 0.110654
H	-0.5744383472	 1.9940764926	 0.7389852901	 0.110138
H	 0.6032697453	-0.3995334062	-0.8029475695	 0.091447
H	 0.4851196339	-0.2985735299	 0.9422037515	 0.108964
H	-2.0308932645	-0.1518996125	 0.7502661782	 0.077878
H	-1.8916984126	-0.342152427	-0.9900148596	 0.096424
H	-0.772000293	-2.5669668622	-0.6416187323	 0.077342
H	-1.3805602845	-2.2177421409	 2.0745641135	 0.273442
H	-3.5469907827	-2.2404512021	 0.6392126249	 0.071317
H	-4.3542485078	-2.9523018592	-1.6184635552	 0.110349
H	-2.6384987845	-3.046109045	-2.2170211242	 0.111209
H	-2.0948075645	-4.7586962486	-0.4414062142	 0.118863
H	-3.8114459962	-4.6860507445	 0.1607941734	 0.109179
