16
gdb 33799	3.61405	1.41583	1.2231	3.9304	68.92	-0.2616	-0.0039	0.2577	1008.7663	0.125901	-437.871559	-437.864428	-437.863484	-437.903019	27.791	
N	 0.0766469971	-1.1589097638	-0.054790221	-0.326777
C	 0.020011157	-0.0058080371	-0.0101551588	 0.217996
C	-0.0209976749	 1.447004501	 0.07747821	 0.249311
C	-0.8996867823	 2.1407641301	 1.149909139	-0.284224
C	-1.0998576143	 3.1433777948	-0.004509129	 0.059124
C	 0.0707180313	 4.1159378406	-0.0706466798	-0.071651
O	 1.2588024663	 3.473086777	 0.3899333634	-0.268553
C	 1.3692968183	 2.1056563078	 0.0300090086	-0.106081
O	-0.8123659276	 2.0793317945	-0.9698098652	-0.319496
H	-1.8003181174	 1.5671063649	 1.3632982465	 0.135768
H	-0.4091282125	 2.4806671445	 2.0614072201	 0.131924
H	-2.0737042275	 3.6066629587	-0.1721655089	 0.098656
H	 0.1833010571	 4.4657496969	-1.1072200059	 0.114266
H	-0.0786454708	 4.9809917488	 0.5835937628	 0.117978
H	 2.0593568764	 1.6481058862	 0.7452068633	 0.129158
H	 1.7656646638	 1.9806306651	-0.9877982651	 0.122602
