17
gdb 117437	5.69802	0.62685	0.57077	2.4666	73.34	-0.2664	0.0092	0.2756	1885.4003	0.131517	-458.935965	-458.925563	-458.924619	-458.973601	34.641	
C	 0.0681338614	 1.3972932117	-0.1497359335	-0.225045
O	 0.0141048951	-0.005562501	-0.0245605527	-0.212272
C	 0.6245936083	-0.6621397497	-1.0927155732	-0.16939
C	 0.5239899055	-2.1639406629	-0.8833643062	 0.427012
O	 0.0072816081	-2.7258605948	 0.0418624214	-0.330136
O	 1.1191959503	-2.7913963624	-1.9226947666	-0.246032
C	 1.093480863	-4.2320888747	-1.8478558161	-0.229411
C	 1.7599060562	-4.7731277582	-3.0192541801	 0.286494
C	 2.3043320414	-5.2530950791	-3.9754356059	-0.41159
H	 1.1058343976	 1.7650816829	-0.1812253808	 0.107744
H	-0.4481380524	 1.7467139224	-1.0577294501	 0.107748
H	-0.4307998698	 1.8172224968	 0.72603963	 0.136365
H	 0.1529433423	-0.4168610599	-2.0597522206	 0.121018
H	 1.691659421	-0.3987814079	-1.1914797791	 0.121016
H	 1.5873021268	-4.5535168746	-0.9244893446	 0.155091
H	 0.0535911701	-4.5710597882	-1.788850057	 0.155147
H	 2.7863519449	-5.6761207303	-4.8220786049	 0.206239
