19
gdb 78088	2.80869	1.27563	1.04036	1.6689	82.5	-0.2373	0.0249	0.2622	1221.8373	0.156467	-385.820014	-385.810757	-385.809813	-385.853675	34.971	
C	 0.0151053057	 1.5845957439	 0.068778444	-0.423898
C	 0.0651008095	 0.0733184723	 0.0502403521	-0.077763
C	 1.2932757144	-0.7593812809	-0.2920864889	-0.201021
C	 2.5352525477	-0.1358046726	 0.3535037401	-0.110114
O	 1.8646298423	-0.0816171461	 1.6498406011	-0.321022
C	 0.7161087995	-0.7681528302	 1.1101348835	 0.44678
C	 0.080487906	-1.8051074019	 1.9760815724	-0.489814
C	 3.7111874229	-0.9898279669	 0.3773556852	 0.339042
C	 4.6867389391	-1.691652453	 0.3718765787	-0.421496
H	 0.8461248825	 1.9987008183	 0.6448351153	 0.138109
H	 0.0511153955	 1.9999511564	-0.9439811571	 0.116785
H	-0.9115938241	 1.93069218	 0.5384304579	 0.117205
H	-0.8309028138	-0.4030658406	-0.3457988551	 0.087923
H	 1.3146864871	-1.5225310042	-1.0582860176	 0.104866
H	 2.8087000836	 0.8699857672	 0.0110181849	 0.105442
H	-0.34942866	-1.3449510112	 2.8731045444	 0.132459
H	-0.7259147564	-2.3108168758	 1.4370207091	 0.123103
H	 0.814304517	-2.5514876066	 2.2948660843	 0.13416
H	 5.5509160217	-2.309170698	 0.3767437757	 0.199253
