15
gdb 87347	2.66053	1.38809	1.06027	4.764	68.6	-0.2494	-0.0198	0.2295	1109.5422	0.11154	-453.92269	-453.914285	-453.913341	-453.955891	30.879	
O	-0.7854114283	 1.3775632524	 0.0535707977	-0.415779
C	-0.4463492545	 0.0536735889	 0.1353835179	 0.102073
C	-0.899363675	-0.8624981732	 1.2413533908	-0.388276
C	-1.4337150207	-1.0953272178	-0.1705874806	 0.184726
O	-2.8082209566	-0.9519844077	-0.5230001791	-0.234624
C	-3.6680142745	-0.0748852862	-0.008396126	 0.157534
N	-3.3875842917	 0.8942000436	 0.7606674934	-0.497384
C	-0.9122758334	-2.2186469526	-0.9050249492	 0.281622
N	-0.4422462887	-3.1039564784	-1.4822337753	-0.333117
H	-1.6742037376	 1.4786608062	 0.4524179198	 0.310415
H	 0.5445134752	-0.1220883633	-0.2727485919	 0.138248
H	-0.2227692379	-1.6093931916	 1.641484617	 0.146107
H	-1.6106766358	-0.457161451	 1.949260275	 0.161033
H	-4.6667194995	-0.3313308894	-0.3700135217	 0.137735
H	-4.2223733509	 1.4163034	 1.0114017422	 0.249686
