16
gdb 395	7.70308	1.93499	1.67435	2.3512	52.93	-0.256	0.0618	0.3178	748.8236	0.141924	-308.768073	-308.760556	-308.759611	-308.799183	26.859	
C	-0.0549454709	 1.5530769924	-0.0413442409	-0.378363
C	-0.0148185836	 0.0229381252	-0.0031639056	-0.197313
C	-1.4008948798	-0.6163222814	 0.0717027481	 0.114245
O	-2.2251075273	-0.2578159833	-1.0474491666	-0.438391
C	-1.3605293735	-2.142530941	 0.1814787983	-0.060885
O	-2.662467558	-2.6850546447	 0.1784659376	-0.425297
H	 0.94926138	 1.9731919986	-0.1489515498	 0.112865
H	-0.6665394852	 1.9039666738	-0.8769523685	 0.12618
H	-0.491042648	 1.9567643934	 0.8786700794	 0.119254
H	 0.5033913247	-0.3618178841	-0.8942538143	 0.088749
H	 0.5735776027	-0.3183761593	 0.857951921	 0.104506
H	-1.9462726448	-0.2239424303	 0.9389719037	 0.096027
H	-1.7312582339	-0.4683412817	-1.8495334557	 0.280982
H	-0.7525512876	-2.5461479664	-0.6505141099	 0.068342
H	-0.8751045787	-2.4463543368	 1.1157466955	 0.105249
H	-3.1518739761	-2.1588608444	-0.4679104826	 0.28385
