21
gdb 72018	2.72682	1.99692	1.79191	0.0981	83.88	-0.2497	0.1003	0.35	911.8175	0.18608	-349.947548	-349.940957	-349.940013	-349.977865	29.26	
C	-0.0050428459	 1.5014431885	 0.0003774728	-0.510431
C	-0.0001754107	-0.0081590869	-0.0647427051	 0.351668
C	 0.8296859068	-0.7188311132	-1.1518957985	-0.252418
C	 0.685191255	-2.1356970584	-0.5487719006	-0.051598
C	 1.3377750588	-1.9139152058	 0.8383946971	-0.215798
C	 0.3427094451	-0.8276861676	 1.2771868253	-0.09414
C	-1.031026014	-1.5130249809	 1.1543065784	-0.073554
C	-0.8340446699	-2.1886971052	-0.1952397928	-0.061835
C	-1.3500078251	-0.7625556476	-0.110803243	-0.114085
H	 1.0027690115	 1.8947893549	 0.1755336981	 0.111905
H	-0.3734477924	 1.937287791	-0.9360612908	 0.11222
H	-0.6498042752	 1.8627669507	 0.8091603445	 0.115053
H	 0.3690834915	-0.6168150144	-2.1404563372	 0.086424
H	 1.8726127757	-0.3867880138	-1.208894952	 0.083207
H	 1.058234002	-2.9688624605	-1.1440091136	 0.053221
H	 1.2935963868	-2.7954504507	 1.4862305353	 0.089582
H	 2.3769805267	-1.5753043881	 0.7667232429	 0.085813
H	 0.5606027959	-0.2430055007	 2.1698940452	 0.057173
H	-1.6797355596	-1.8784346085	 1.9409967524	 0.076207
H	-1.4819305411	-2.9961282754	-0.5096502184	 0.078913
H	-2.2964373319	-0.4141665576	-0.5083366799	 0.072472
