15
gdb 21042	3.96724	1.76223	1.23184	2.3926	64.91	-0.1908	0.0533	0.2441	939.6351	0.11979	-395.998216	-395.990033	-395.989089	-396.031067	29.419	
C	-0.000814182	 1.3888019725	-0.0784782852	-0.324088
N	 0.0489532408	-0.0490422318	 0.0132403132	-0.017428
N	 0.0819457326	-0.8151743406	-1.1262228502	-0.365508
C	 0.1194982743	-2.0656826395	-0.6846760569	 0.405059
N	 0.2424042453	-3.1313646939	-1.5775216448	-0.588582
C	 0.0945694976	-2.142476386	 0.7314002488	-0.466791
C	 0.0478307162	-0.8176946101	 1.1199457959	 0.47448
O	 0.0069246083	-0.2192375444	 2.3330629063	-0.43794
H	 0.8693062166	 1.763271873	-0.6259800738	 0.141335
H	-0.9075739827	 1.7095766203	-0.6011765915	 0.138268
H	 0.0002018149	 1.8030253749	 0.9301343474	 0.151212
H	 0.0337143422	-2.8382502106	-2.5239820065	 0.247204
H	-0.3236747566	-3.9302132404	-1.3242785396	 0.241578
H	 0.1313417257	-3.0153698208	 1.3624445286	 0.089686
H	 0.0444876466	-0.9009864224	 3.0103894384	 0.311514
