16
gdb 49894	2.58237	1.43202	0.98911	4.8206	72.34	-0.2454	-0.0433	0.202	1153.8061	0.124468	-437.937212	-437.929116	-437.928172	-437.970864	29.558	
O	-0.2121551154	 0.0890863281	 0.5863451207	-0.239297
C	-0.1004383655	 1.2270442901	 0.2185301886	 0.163125
C	 1.2365505758	 1.8765600543	-0.1481407446	-0.096913
N	 2.2924620308	 0.8968443849	-0.1559089287	-0.319087
C	 3.2054363142	 0.6535935321	-1.1477164673	 0.406334
O	 3.969416009	-0.2890111307	-1.094052441	-0.368894
C	 3.2251281913	 1.6333794966	-2.3150458964	-0.381626
C	 2.0377695377	 2.5444591621	-2.4014452213	-0.069409
C	 1.1386633708	 2.6537554367	-1.4300812448	-0.072374
H	-0.9708293042	 1.9173654115	 0.1625525544	 0.091046
H	 1.3917015032	 2.6104308431	 0.6713894083	 0.121053
H	 2.209074722	 0.1508924567	 0.5224009749	 0.257897
H	 4.1553221297	 2.2150254697	-2.2486022838	 0.146671
H	 3.3318101307	 1.0307541093	-3.2236388817	 0.148283
H	 1.9345936049	 3.143535725	-3.3022858951	 0.107939
H	 0.299721785	 3.3385418405	-1.5086123223	 0.105254
