18
gdb 37269	3.66169	1.96129	1.87974	1.6516	75.94	-0.2145	0.089	0.3035	813.5503	0.151659	-364.730273	-364.724701	-364.723757	-364.759741	25.23	
C	 0.0252983225	 1.4884815942	-0.1854805325	-0.248055
C	 1.2846055319	 0.7169482469	-0.0279573233	-0.033092
C	 1.8773659726	 0.4991881456	 1.3585147688	-0.036288
C	 1.1428983602	 1.160894244	 2.5378835669	-0.086183
C	 0.8950957793	-0.1455077878	 3.24842151	-0.122801
C	-0.2527806295	 0.5142825692	 2.5209667141	-0.086043
C	-0.186000727	-0.478902549	 1.3487102742	 0.011151
C	 1.2341363287	-0.8336462079	 1.8844732837	-0.066336
N	-0.0371508115	 0.025779731	-0.0362111844	-0.125899
H	-0.3032622319	 2.1108535399	 0.6408549738	 0.118846
H	-0.2637371493	 1.8503086791	-1.169190099	 0.109916
H	 1.9190801279	 0.5406733418	-0.8941988133	 0.083546
H	 2.9645553039	 0.5597592354	 1.4143097263	 0.065892
H	 1.3013487494	 2.1428308663	 2.9648862273	 0.086925
H	 1.0105847343	-0.4338928132	 4.2814616212	 0.094326
H	-1.1158739706	 1.0147182944	 2.940109663	 0.086621
H	-0.9305221299	-1.275012933	 1.392425466	 0.074486
H	 1.690366519	-1.8070446669	 1.7222094273	 0.072988
