15
gdb 53085	3.87423	0.93956	0.7634	4.4752	82.12	-0.2454	-0.053	0.1924	1449.2846	0.111854	-420.657447	-420.648822	-420.647877	-420.692971	29.861	
C	-0.0727500434	 1.4714706607	 0.0278188983	-0.509751
C	 0.0093598775	 0.0209603447	 0.0141837905	 0.221922
C	 0.0719466778	-1.1834522587	 0.0019355423	-0.084181
C	 0.1043545486	-2.5923717077	-0.0191245386	 0.046596
C	 1.1356474676	-3.4363851874	 0.135047339	-0.242078
C	 0.6443849981	-4.8450017537	 0.0276701655	-0.121126
O	-0.7573273112	-4.7375129467	-0.2013593252	-0.225018
C	-1.1317748547	-3.4185157481	-0.2383601415	 0.366621
O	-2.2604111261	-3.0702288598	-0.4178684116	-0.332798
H	 0.5529354626	 1.9103694288	-0.7572955726	 0.155508
H	-1.102007078	 1.8075921049	-0.1355717621	 0.162615
H	 0.2652643751	 1.8776844261	 0.9876390912	 0.155508
H	 2.1707681303	-3.1775041151	 0.310519414	 0.128218
H	 1.1038083581	-5.3928843396	-0.8056787403	 0.138983
H	 0.8154440977	-5.4256779183	 0.943786721	 0.138983
