18
gdb 71810	3.51023	1.6317	1.51044	0.1512	73.35	-0.231	0.0561	0.2871	939.4105	0.1492	-401.888367	-401.881525	-401.880581	-401.919219	28.286	
C	-0.0711837071	 1.5240168485	 0.0420615281	-0.490064
C	 0.0473772495	 0.0293442195	-0.0402789796	 0.333933
C	-0.2518430996	-0.7839869424	-1.2978896694	-0.288287
C	-0.6967346464	-1.9178846689	-0.3427763123	-0.050998
C	 0.4573368015	-2.8689802793	-0.0242706696	 0.033355
O	 1.7337115843	-2.4328754527	-0.5262206828	-0.248213
C	 1.3740493566	-2.0956565746	 0.8187508513	 0.039586
C	 0.6969715283	-0.768009623	 1.0473842592	-0.119562
N	-0.7745713291	-0.9075162776	 0.823857505	-0.186491
H	 0.7771513001	 2.0075947768	-0.4560379281	 0.125639
H	-0.9902950344	 1.8674951966	-0.444865856	 0.123341
H	-0.0921852322	 1.8625792672	 1.0820247706	 0.126469
H	-1.1144590724	-0.3508084872	-1.8111692635	 0.102284
H	 0.5479032297	-0.9860287909	-2.0095607628	 0.121261
H	-1.6473044185	-2.4118688488	-0.5359427717	 0.08109
H	 0.3181502126	-3.9440951174	 0.0382929845	 0.102801
H	 2.0040821342	-2.519794751	 1.5954670567	 0.105295
H	 0.9561594331	-0.2234038147	 1.9498550306	 0.088562
