15
gdb 32301	2.81351	1.56372	1.01143	2.0077	74.41	-0.2116	-0.0487	0.1629	1114.229	0.113596	-454.000508	-453.992353	-453.991408	-454.034011	29.217	
C	 0.021298997	 1.4241045865	-0.0871478675	-0.314623
N	-0.0887560061	-0.0172075362	-0.0579199099	-0.323132
C	-1.2702416502	-0.6583961098	 0.026087405	 0.263185
N	-2.4063726998	-0.0228013258	 0.0872610074	-0.3597
C	-3.5370638523	-0.8055681877	 0.1700331731	-0.072674
C	-3.5018980891	-2.1468098308	 0.1886814746	 0.009523
O	-2.3096862347	-2.8229709409	 0.12472248	-0.198906
C	-1.1399014484	-2.1441377257	 0.041203274	 0.410184
O	-0.0856579806	-2.7289554959	-0.0154578631	-0.362937
H	 1.0755656288	 1.6954732882	-0.1581679232	 0.130642
H	-0.5165893747	 1.8423945655	-0.9451015301	 0.144231
H	-0.4047785652	 1.8697473287	 0.8185525921	 0.144162
H	 0.7253317897	-0.6093629496	-0.0991943409	 0.273044
H	-4.4870166184	-0.2866411893	 0.2213644337	 0.117908
H	-4.3465196762	-2.8168170972	 0.2517955948	 0.139094
