15
gdb 24457	3.66011	1.63899	1.16829	2.7515	66.36	-0.2013	0.0357	0.237	978.3345	0.116638	-453.971279	-453.964696	-453.963752	-454.002244	25.806	
C	 0.0198869317	 1.3871828969	 0.0199941209	 0.001307
O	 1.299862221	 1.9215204852	-0.0097726092	-0.23561
C	 2.0794729208	 1.6306433186	 1.1684497871	-0.195452
C	 1.8698712201	 0.1887581677	 1.4990535823	 0.130405
C	 0.897347073	-0.5123444988	 0.8495440039	 0.396122
N	 0.9637787698	-1.8009919324	 1.3064753061	-0.365834
C	 1.990958681	-1.818229861	 2.2265591943	-0.011355
N	 2.5499151966	-0.6401608047	 2.3651453975	-0.321912
O	 0.0082856572	-0.0565575939	-0.0554105254	-0.276018
H	-0.5144798289	 1.6692959833	 0.9409275775	 0.100583
H	-0.506473843	 1.7333263027	-0.8693990331	 0.129805
H	 3.1149372728	 1.8542937971	 0.8962973044	 0.135169
H	 1.7920370466	 2.3080014024	 1.9874647844	 0.109873
H	 0.3773573033	-2.5676202179	 1.0228467041	 0.272185
H	 2.272593228	-2.721532445	 2.7450005553	 0.130732
