16
gdb 51762	2.29009	1.30518	0.92959	4.3193	71.16	-0.2636	0.0014	0.2651	1230.6825	0.125295	-434.073266	-434.064609	-434.063665	-434.108103	30.368	
O	-0.1181827637	 0.0175162499	 0.4030284419	-0.313964
C	-0.0484460812	 1.1966151963	 0.137980155	 0.157953
N	 1.094785239	 1.8509662332	-0.2298710785	-0.276903
C	 2.3738937603	 1.2039515357	-0.2589100772	 0.030882
C	 3.2639177877	 1.5110130836	-1.4938559634	-0.192956
N	 4.0310927952	 2.4818244788	-0.6797780001	-0.305759
C	 3.5157596089	 1.9013230115	 0.5763971784	-0.168251
C	 3.1137780378	 2.8770300455	 1.5878896019	 0.308344
N	 2.7655027617	 3.6479596447	 2.3752420587	-0.320913
H	-0.92053648	 1.8769779751	 0.1527352891	 0.090169
H	 1.0510722176	 2.8492268014	-0.370778813	 0.26537
H	 2.2038148008	 0.1562286099	-0.0216267803	 0.140179
H	 3.8301154274	 0.6296375662	-1.8223234725	 0.111841
H	 2.7569478831	 1.9515377185	-2.3576585736	 0.119073
H	 5.0391070507	 2.4741343421	-0.784432422	 0.234453
H	 4.1658374648	 1.1508301475	 1.0463686156	 0.120483
