17
gdb 109193	3.59075	1.04061	0.95766	1.1469	75.68	-0.2246	0.0293	0.2539	1279.1709	0.136229	-417.984104	-417.975282	-417.974338	-418.018009	32.071	
C	-0.1780655875	 1.2818139032	-0.0644044254	-0.234152
O	 0.0622374407	-0.1289431558	-0.0668206763	-0.260262
C	 0.7516060446	-0.5839034849	-1.1120632896	 0.488622
N	 1.2061098296	 0.1046333799	-2.085408697	-0.360773
C	 1.88612752	-0.8480236673	-2.9630538374	-0.170246
C	 1.4732800819	-2.2810314725	-2.4522195449	-0.16942
N	 1.0205187163	-1.9509620611	-1.0870359269	-0.361571
C	 0.4264464713	-2.9090265801	-3.2563377107	 0.343663
C	-0.439734794	-3.4295899513	-3.90794908	-0.485948
H	 0.7667544665	 1.8311416024	-0.0482852463	 0.142482
H	-0.7404074247	 1.5768973474	-0.9541173047	 0.142469
H	-0.7543903496	 1.4817426652	 0.8393287979	 0.130119
H	 1.6051999732	-0.7000692667	-4.0086005367	 0.120105
H	 2.9738318507	-0.7254553234	-2.8868213784	 0.109082
H	 2.3408672939	-2.9468492861	-2.411333056	 0.113811
H	 0.2998346053	-2.5388293498	-0.6898560984	 0.248363
H	-1.2026534585	-3.8865078089	-4.4887541895	 0.203655
