17
gdb 112223	2.06769	1.43517	0.94372	3.8872	74.73	-0.2652	0.0021	0.2673	1254.6756	0.133881	-421.824201	-421.815119	-421.814175	-421.858489	32.861	
C	 0.231966754	 1.5664663028	 0.0142695542	-0.390882
C	 0.0867720097	 0.0417950501	 0.0211573872	-0.19633
C	 0.4608762472	-0.5785423775	-1.3068369134	 0.141399
O	 1.8872371825	-0.3823855743	-1.6282012235	-0.250119
C	 2.1434397024	-1.7227825303	-1.6413852823	 0.458994
O	 3.1782105392	-2.274369929	-1.8145113016	-0.313852
C	 0.6665751597	-2.1209790799	-1.3890654068	-0.421425
C	 0.3736411763	-2.9521296356	-0.2445799325	 0.348294
C	 0.1340871922	-3.6417660462	 0.7097645981	-0.447681
H	 1.261331089	 1.8561208981	-0.2146365947	 0.142078
H	-0.4215666197	 2.0255555975	-0.7355352326	 0.117781
H	-0.0313049107	 1.9855555526	 0.9892125148	 0.121543
H	 0.7088596781	-0.4001687541	 0.8068747548	 0.120952
H	-0.9477084937	-0.2465032196	 0.2448496404	 0.115033
H	-0.1405508774	-0.1763516575	-2.127175271	 0.101556
H	 0.2359907548	-2.5471001586	-2.3011294921	 0.144166
H	-0.0707604135	-4.2568552285	 1.5511997713	 0.208493
