17
gdb 37491	3.91063	1.93462	1.66689	2.1808	76.89	-0.2072	-0.0359	0.1712	830.012	0.138308	-384.576225	-384.570605	-384.569661	-384.605755	25.108	
C	-0.0614345709	 1.6777505069	-0.0312254925	-0.264965
C	 1.4428580662	 1.9413794408	-0.0031778622	-0.126658
C	 2.0583308955	 0.791370336	-0.3451584645	 0.093018
C	 2.5094479716	-0.162836658	 0.725511799	 0.026431
O	 2.8753062921	-1.409783814	 0.112342656	-0.284869
C	 1.4992144704	-1.5003196462	-0.2842332496	 0.105477
C	 0.9599587551	-0.7037041596	 0.9232969274	-0.106024
C	-0.0137782064	 0.1158548924	-0.0329077425	-0.02587
C	 1.0959282412	-0.1995317849	-1.0592127312	-0.130653
H	-0.5288773699	 2.132295253	 0.8504391998	 0.108033
H	-0.6277215815	 2.027528613	-0.9057570321	 0.111523
H	 1.8674891604	 2.6441146947	 0.7078863651	 0.095534
H	 3.1417737612	 0.1509689525	 1.5543732917	 0.092131
H	 1.1769754261	-2.4834395372	-0.621954534	 0.086159
H	 0.6848776456	-1.1328803035	 1.8865612985	 0.081473
H	-0.9757959435	-0.3988950858	-0.1402895236	 0.065423
H	 0.9724996768	-0.1241645402	-2.1383761152	 0.073836
