19
gdb 50823	5.01215	0.75876	0.73461	1.697	82.08	-0.2553	-0.0204	0.2349	1593.7209	0.160548	-419.238232	-419.229224	-419.22828	-419.27365	32.443	
N	 1.112454386	-0.3813501093	-0.5030519653	-0.464832
C	 0.0698860516	 0.2867075794	-0.2189143289	 0.100979
N	-1.1239425303	-0.3659796053	 0.0449151439	-0.320958
C	-2.3046000431	 0.2829362759	 0.3652075067	 0.428366
O	-2.3754493293	 1.4948036771	 0.4353165162	-0.366038
C	-3.4905812241	-0.616863278	 0.6282816943	-0.103182
C	-4.2258086965	-0.406402898	 1.9901254272	-0.215095
C	-5.5805100081	-0.5156124823	 1.2440445591	-0.214752
C	-4.8248821233	-0.2272802191	-0.0787614012	-0.215804
H	 1.898078398	 0.2452509724	-0.6681074248	 0.232839
H	-0.0319459174	 1.3710534864	-0.1470903265	 0.140393
H	-1.0976309259	-1.3743387742	-0.0046186032	 0.261364
H	-3.2441570922	-1.6706717778	 0.4677972269	 0.064922
H	-4.0120713893	-1.1223627283	 2.7865554644	 0.101567
H	-4.0444519396	 0.607504516	 2.3541741165	 0.129712
H	-5.9805162439	-1.533200615	 1.2724625103	 0.103402
H	-6.3730137286	 0.1773825906	 1.5339269585	 0.104929
H	-4.8150591838	 0.8388644382	-0.3162272179	 0.131125
H	-5.1009667201	-0.7963291989	-0.9690264362	 0.101063
