17
gdb 25768	4.16653	1.02603	0.8284	4.4148	82.51	-0.193	-0.031	0.162	1347.8648	0.136281	-418.065449	-418.056419	-418.055474	-418.099301	33.255	
C	-0.0564297566	 1.5177230385	 0.022112912	-0.513181
C	 0.0561877638	-0.0040556896	-0.0039878979	 0.310918
O	 1.1438426159	-0.5534905536	-0.0178755575	-0.326902
C	-1.1840840348	-0.7736068098	-0.0113668622	 0.247071
C	-1.3519286688	-2.1535177979	-0.0347126922	-0.290625
C	-2.7372404177	-2.4263442747	-0.02624021	 0.265858
N	-3.3409141867	-3.6912254711	-0.1163263277	-0.607743
C	-3.3906873736	-1.1993636527	 0.00185126	-0.144417
N	-2.4415281483	-0.2143261124	 0.0094910155	-0.329761
H	 0.9473990077	 1.9429578012	 0.0204400074	 0.146398
H	-0.6034172921	 1.8886078998	-0.8526094304	 0.131181
H	-0.5873197491	 1.8590708666	 0.9186167563	 0.130032
H	-0.5417873787	-2.8656100763	-0.0584176564	 0.115352
H	-2.7579327765	-4.4235247297	 0.2668800845	 0.245804
H	-4.2511460179	-3.7293255205	 0.3233812366	 0.240444
H	-4.4437904173	-0.9668223335	 0.0101504659	 0.116801
H	-2.6369881994	 0.7705015457	 0.0338541561	 0.262769
