20
gdb 83459	3.00181	1.11439	0.95579	3.3496	81.9	-0.2525	0.0239	0.2764	1309.9185	0.170207	-403.116529	-403.107452	-403.106508	-403.150791	33.705	
C	-0.0869370068	 1.4949601727	 0.17151773	-0.419868
C	 0.0772210936	-0.0068351715	 0.2765201869	-0.063826
C	 1.3014315314	-0.7984798426	-0.1502888885	-0.152721
C	 2.6009099519	-0.055069443	 0.1890870404	-0.225913
C	 2.1803945513	-0.0290488324	 1.6963476711	-0.303554
C	 0.8812247483	-0.7425957185	 1.3121823998	 0.40758
O	 0.3522859852	-1.7861977384	 2.0732395085	-0.222959
C	-0.6552121676	-1.4745549266	 2.9212433209	 0.104065
N	-1.129107009	-2.360601159	 3.6834305875	-0.440868
H	 0.8234314469	 2.0334586236	 0.4471634285	 0.124156
H	-0.3450373535	 1.7860351341	-0.8524190534	 0.123298
H	-0.8893338176	 1.8490285085	 0.8282381393	 0.117307
H	-0.8279245049	-0.5623332062	 0.0355519953	 0.099557
H	 1.212594025	-1.6203684476	-0.8499171814	 0.099573
H	 3.4923694188	-0.6614107651	 0.0194609566	 0.112362
H	 2.7428266642	 0.9144221584	-0.2964862184	 0.102025
H	 2.8167067174	-0.6735004757	 2.3059152881	 0.122433
H	 2.0893901886	 0.9450291563	 2.1872799752	 0.096991
H	-0.9757390949	-0.4278388152	 2.8453540717	 0.091574
H	-1.8814456684	-1.9667397017	 4.244843172	 0.228787
