19
gdb 81166	2.47281	1.53473	1.32385	2.6599	75.07	-0.2532	-0.0354	0.2178	1058.1801	0.158795	-423.018819	-423.010459	-423.009515	-423.052119	31.622	
C	-0.1525981281	 1.6316121544	 0.1086813083	-0.438555
C	 0.046962665	 0.1279531568	 0.1017130754	-0.004966
C	 1.1393338118	-0.6057535865	-0.7197905957	 0.052001
C	 2.4643195605	 0.0726135719	-0.3151727564	-0.226724
C	 2.2314877048	 0.0697928612	 1.2284695713	-0.263523
C	 0.8539690233	-0.6296243645	 1.2131708845	 0.320351
O	 1.05868286	-1.7031123847	 0.2469743865	-0.335256
C	 0.1895619026	-1.0346058314	 2.4896165588	 0.04836
O	 0.1656288274	-0.3397797425	 3.4753114703	-0.257331
H	 0.7846423798	 2.1838440026	 0.2110875756	 0.125158
H	-0.6321641572	 1.9565776417	-0.8209271474	 0.124507
H	-0.8046618941	 1.926581401	 0.9373117907	 0.137215
H	-0.9003184658	-0.3984946546	-0.0424535982	 0.092795
H	 0.9950342562	-0.9155114677	-1.7550636695	 0.08162
H	 3.3198415847	-0.5375150258	-0.610268201	 0.1135
H	 2.5866475275	 1.0712916529	-0.7421107913	 0.103467
H	 2.9647237752	-0.5330625038	 1.7667159539	 0.115397
H	 2.1970838274	 1.0611028061	 1.6830208843	 0.1197
H	-0.3189775309	-2.0230138072	 2.44695188	 0.092282
