18
gdb 55125	2.70403	1.36435	1.16091	5.0689	71.76	-0.2393	0.0147	0.254	1122.0149	0.146421	-439.071171	-439.062244	-439.0613	-439.105185	33.382	
C	 0.1969598026	 1.6115594868	-0.0522024669	-0.494894
C	 0.051768198	 0.1178925779	-0.0204036353	 0.208321
C	-1.0100239317	-0.6286967907	 0.7853077867	-0.360051
C	 0.4386409702	-0.9260542121	 1.0023560702	 0.076494
O	 0.9175044303	-1.8441831482	 0.017251613	-0.293375
C	 0.6848108282	-0.8518926391	-1.0238168702	 0.004032
C	-0.0651100594	-1.4354454811	-2.2265033846	 0.380587
N	-1.2815519658	-0.8737098119	-2.4883929819	-0.529023
O	 0.4332628419	-2.3043140018	-2.9100326523	-0.353215
H	 1.2304892996	 1.9049877206	-0.266476465	 0.12903
H	-0.4416004266	 2.0633190222	-0.8212550755	 0.122456
H	-0.0845837336	 2.0545802566	 0.9080637612	 0.126108
H	-1.4844513456	-0.0216971305	 1.5510482829	 0.117374
H	-1.6443671845	-1.3910363693	 0.3411674295	 0.119905
H	 0.9686822263	-0.8696288662	 1.9459864573	 0.111095
H	 1.6503430123	-0.4817254108	-1.3918671036	 0.107698
H	-1.7443165348	-0.2992823088	-1.8053117637	 0.265741
H	-1.8331608774	-1.2803938236	-3.2274904519	 0.261718
