17
gdb 22530	1.97215	1.59858	1.12333	1.8132	79.53	-0.2387	-0.0347	0.204	1142.484	0.133165	-417.898931	-417.889523	-417.888578	-417.932926	35.088	
C	 0.1269450539	 1.4567923026	 0.2695521378	-0.465736
C	 0.0220230425	-0.0319301573	-0.0081676569	 0.225569
C	 0.5676735149	-0.5689539685	-1.2800880373	-0.285064
N	 1.2346834203	-0.8663071589	-0.0012507515	-0.32779
C	-1.1838717051	-0.6950446067	 0.6154997707	 0.163195
N	-1.3177202411	-0.9423618494	 1.8724584253	-0.17197
O	-0.2074128159	-0.5383766075	 2.6013226759	-0.378709
C	-2.2825210913	-1.0443647513	-0.2213712018	 0.295281
C	-3.1747559523	-1.3100227774	-0.985098836	-0.425142
H	 1.011234621	 1.8742537844	-0.2237759811	 0.111559
H	-0.7523322435	 1.9877080122	-0.1105411997	 0.131267
H	 0.2031198275	 1.6446110427	 1.343347987	 0.144098
H	 0.0970299271	-1.4232309909	-1.7574873736	 0.12808
H	 1.02537172	 0.1402647132	-1.9654735125	 0.109197
H	 2.0538237606	-0.2761298838	 0.1257191617	 0.229824
H	-0.4447549714	-0.8008009867	 3.4976068753	 0.314465
H	-3.9734445873	-1.5528289266	-1.6416570532	 0.201877
