20
gdb 116716	6.02071	0.67842	0.63794	2.807	86.81	-0.233	0.0229	0.256	1778.8334	0.170465	-403.152753	-403.14341	-403.142466	-403.18829	33.246	
C	-0.3335487373	 1.5766665833	-0.0265688272	-0.249199
O	-0.0290827587	 0.1884877344	 0.0165183965	-0.193117
C	-1.0925626073	-0.6397262706	 0.0260095304	 0.120385
N	-0.9361519476	-1.8873465415	 0.0636857228	-0.210974
C	-2.1227160735	-2.7165718235	 0.0713006018	 0.046945
C	-2.1652164383	-3.7005043329	-1.1311481895	-0.261196
C	-2.8016362315	-4.9358630221	-0.5415964605	-0.062642
C	-2.8193041793	-4.8983604322	 0.7898841977	-0.062639
C	-2.1978481008	-3.6312789437	 1.3256437984	-0.261203
H	 0.6226753127	 2.1011025339	-0.0290438669	 0.146359
H	-0.8883120018	 1.8395798464	-0.935697015	 0.126518
H	-0.9113412812	 1.8900018033	 0.8517083124	 0.126525
H	-2.0691389708	-0.1295447549	-0.0015844158	 0.071251
H	-3.0425413158	-2.1070565443	 0.0418999002	 0.056255
H	-2.7146443248	-3.2853082337	-1.983660118	 0.095152
H	-1.1447902997	-3.9050458817	-1.4818895829	 0.11962
H	-3.1576291106	-5.7591314121	-1.1513085762	 0.088592
H	-3.1919604113	-5.6862654546	 1.4353142946	 0.088593
H	-1.1872386415	-3.8149926597	 1.7142915652	 0.11962
H	-2.7693848708	-3.1691995739	 2.138581102	 0.095154
