14
gdb 132562	3.07746	1.33833	0.93811	1.8977	67.79	-0.2469	-0.0355	0.2114	1126.4101	0.099772	-486.007679	-486.000069	-485.999124	-486.040596	27.975	
C	-0.0298384939	 1.5066025088	-0.0123214103	-0.485439
C	-0.0021215128	 0.0042885121	-0.0076616093	 0.204896
N	-0.0240750539	-0.6450106998	-1.1793399957	-0.358921
C	 0.0004691904	-1.9585107223	-1.1699972965	 0.332868
F	-0.0235987504	-2.5523113376	-2.361752894	-0.07488
C	 0.0479272439	-2.7559733846	-0.0320077366	-0.27019
C	 0.0712508449	-2.0976522877	 1.1909156889	-0.182248
C	 0.0457029207	-0.7125723537	 1.1870486659	 0.224433
F	 0.0668913471	-0.0404323915	 2.3450625567	-0.076568
H	 0.8572368033	 1.9179870528	 0.4810006164	 0.141929
H	-0.067391306	 1.8655053579	-1.0409903529	 0.146917
H	-0.9000265081	 1.8857493566	 0.5340258391	 0.141907
H	 0.0653500587	-3.8352217207	-0.1107695909	 0.125202
H	 0.1083075961	-2.6352134803	 2.1311566992	 0.130094
