11
gdb 439	8.19502	3.72327	2.60109	3.246	47.64	-0.2165	-0.0013	0.2152	473.5305	0.08615	-285.335887	-285.330807	-285.329863	-285.364182	18.76	
O	 0.0100533402	-0.0112198945	 0.0030111945	-0.365472
C	-0.0306902226	 1.1964792746	 0.0104896007	 0.409786
C	-1.2601103944	 2.1236298819	 0.0319806515	-0.377175
C	-0.6654081711	 3.5087155506	 0.0314766117	-0.133876
C	 0.6663737517	 3.3948191889	 0.0128893031	-0.013458
N	 1.0612759997	 2.0497117085	 0.0003059583	-0.309858
H	-1.8907538903	 1.9105975776	-0.8389902127	 0.146063
H	-1.8669875567	 1.9011412257	 0.9173635746	 0.146044
H	-1.225276383	 4.4306932428	 0.0439606289	 0.108327
H	 1.4220385871	 4.1675591518	 0.0068354168	 0.128023
H	 2.0094728893	 1.7136196421	-0.0145344374	 0.261597
