20
gdb 63546	2.98893	1.32239	1.21435	2.5648	79.3	-0.2214	0.0693	0.2908	1127.0193	0.169725	-403.08108	-403.072385	-403.071441	-403.113956	34.112	
C	-0.1035778865	 1.5319175928	 0.0029880171	-0.450586
C	-0.0242579847	 0.0227219066	 0.0395423335	 0.3306
O	-1.1869550866	-0.6346048063	-0.3963853179	-0.462278
C	 1.2991545338	-0.6757429473	-0.2086969584	-0.435194
C	 0.6712676685	-0.6796170792	 1.1622604374	 0.335583
C	 1.2857750613	-0.166474933	 2.4694380113	-0.255812
N	 0.8911400701	-1.4293603121	 3.1961811602	-0.132203
C	-0.5794772498	-1.5025988027	 3.10271632	-0.235613
C	 0.2054745179	-1.8984126652	 1.9175962986	-0.09432
H	 0.8000091015	 1.9895253786	 0.4163208355	 0.120405
H	-0.2147757264	 1.8918929768	-1.0274877332	 0.109691
H	-0.9651859467	 1.8858775902	 0.5783532804	 0.126112
H	-1.2721319946	-0.4876612106	-1.3452563152	 0.280699
H	 1.2674920329	-1.6057104121	-0.7680748675	 0.114569
H	 2.188598631	-0.073116387	-0.3703679765	 0.108751
H	 2.3747311771	-0.0779369255	 2.4404163843	 0.112302
H	 0.8599485988	 0.7425556318	 2.9098424107	 0.1012
H	-0.9992536285	-2.2931089303	 3.7174700265	 0.119036
H	-1.1592707689	-0.5818297611	 3.0834070184	 0.111745
H	 0.27950088	-2.9239204544	 1.5708901249	 0.095313
