18
gdb 116693	3.73602	0.75864	0.72722	4.4908	76.28	-0.2192	0.0029	0.2221	1617.5261	0.145081	-476.181123	-476.171316	-476.170371	-476.217187	34.445	
C	-0.0408183406	 1.282109199	 0.0583335007	-0.25026
O	-0.0686020971	-0.1402580297	-0.0047641767	-0.194115
C	 0.53054748	-0.6879211059	-1.0754863478	 0.132291
N	 0.5275294389	-1.9379348151	-1.2366421529	-0.231256
C	 1.1914084239	-2.5066503817	-2.3514388596	-0.071121
C	 1.4737439277	-3.9972091221	-2.1868499024	 0.019046
O	 0.9342411458	-4.5864928974	-1.0393168312	-0.437216
C	 0.4474058697	-3.5602367551	-3.1952851216	 0.09058
O	-0.8768403381	-3.8731610994	-2.9486675189	-0.425956
H	 0.9872141794	 1.6636622159	 0.0506578487	 0.129707
H	-0.6012740133	 1.7291231317	-0.7711319542	 0.133596
H	-0.5165810217	 1.555624086	 1.00039422	 0.150977
H	 1.0052442533	 0.0291038192	-1.7602200857	 0.085534
H	 1.9264303326	-1.8984376324	-2.8798357545	 0.081426
H	 2.4310182147	-4.4154387044	-2.4843448162	 0.098188
H	 0.676093647	-3.8450065614	-0.4649956592	 0.298957
H	 0.7002167981	-3.5774774006	-4.2520786605	 0.100445
H	-0.8692757305	-4.4024016765	-2.1360698879	 0.289176
