18
gdb 29980	3.19192	1.63473	1.09593	1.6478	87.72	-0.1743	0.0034	0.1777	1090.8465	0.149862	-364.854163	-364.846448	-364.845504	-364.886594	29.78	
C	 0.0018515958	 1.4547587631	 0.0334235386	-0.344739
N	-0.0392343777	 0.0089128861	 0.0226547606	-0.124753
C	-0.0566179078	-0.7904043556	-1.1066383417	-0.095575
C	-0.0212755557	-2.1223866155	-0.7314229715	-0.358947
C	 0.0242005474	-2.1347894651	 0.6823050091	 0.273509
C	 0.0162480488	-0.8198583041	 1.109481802	 0.304266
C	 0.0562187408	-0.7400842172	 2.5578750081	-0.204747
C	 0.087442833	-2.0044371349	 3.0339441006	-0.085228
C	 0.0689230219	-3.0187505765	 1.8974627128	-0.412608
H	 1.0088428326	 1.832192927	 0.2472993627	 0.136467
H	-0.3095511057	 1.8310081599	-0.9431269386	 0.139637
H	-0.6848855607	 1.8499443525	 0.7878611459	 0.139485
H	-0.0934159068	-0.3385376573	-2.0857996578	 0.110894
H	-0.0375452617	-2.9605103467	-1.4118572855	 0.092363
H	 0.0619219248	 0.165331449	 3.1512383394	 0.091545
H	 0.1227255751	-2.2886468192	 4.0773318004	 0.091993
H	-0.7979217961	-3.6884889285	 1.9803976629	 0.123263
H	 0.9559165521	-3.6660171469	 1.931389592	 0.123174
