25
gdb 94544	2.34365	1.2489	1.05245	1.8209	87.88	-0.2389	0.0648	0.3036	1321.007	0.226901	-389.480632	-389.470009	-389.469065	-389.51585	40.364	
C	 0.4558663236	 1.5090511439	-0.6819574855	-0.404107
C	 0.7732055791	 0.0687371992	-0.3137479662	 0.1107
O	 2.0660395577	-0.3256508946	-0.8415727676	-0.290403
C	 2.6086266707	-0.5278054269	 0.4766376679	-0.114459
C	 1.2163855146	-0.3690336398	 1.1224895288	-0.011789
C	 1.0149743572	 0.4114987865	 2.4382629367	 0.221717
C	 1.5697264491	 1.8492189974	 2.4237726391	-0.417125
C	-0.4893052265	 0.4529699635	 2.770446498	-0.409038
C	 1.7487755086	-0.3789474467	 3.5433590447	-0.398017
H	 1.2471533905	 2.1936596415	-0.3704682259	 0.12461
H	 0.3651522387	 1.5785444234	-1.7711223102	 0.1235
H	-0.4932454514	 1.8374076641	-0.2453533783	 0.113629
H	-0.0157122389	-0.5785547439	-0.720549695	 0.074
H	 3.091045589	-1.506655546	 0.580459592	 0.099182
H	 3.3405949433	 0.2498314484	 0.7363946534	 0.09439
H	 0.7970011661	-1.3661462245	 1.2963261891	 0.078275
H	 0.9940778026	 2.5074455305	 1.7705398056	 0.117167
H	 1.5248851936	 2.2726248663	 3.4333050105	 0.108594
H	 2.6160544084	 1.8830590346	 2.1044551156	 0.112809
H	-0.9078667595	-0.5572824639	 2.8388367398	 0.108712
H	-0.6615258881	 0.9506435168	 3.7311000917	 0.109964
H	-1.0552802893	 0.9994288383	 2.0090831424	 0.115292
H	 2.8275283885	-0.4197483215	 3.3558805584	 0.113907
H	 1.6002752574	 0.0922107733	 4.5207787829	 0.109496
H	 1.3807404348	-1.4086505199	 3.6084898419	 0.108994
