11
gdb 163	10.16649	6.4527	5.07931	1.7167	41.77	-0.2337	0.0853	0.319	315.0958	0.091972	-231.093096	-231.088957	-231.088013	-231.119749	15.312	
C	 0.006536809	 1.475643946	 0.0951861458	-0.285936
C	 1.348395753	 0.7889432589	-0.0701395763	-0.116986
C	 1.6863247747	 0.0425261467	 1.2156691477	-0.07706
O	 0.391648253	-0.6198065109	 1.2211041352	-0.284065
C	 0.0687954183	-0.0126130204	-0.0326597517	 0.116471
H	-0.2771875443	 1.9175640326	 1.0467734934	 0.115834
H	-0.3368382296	 2.0097081955	-0.785421529	 0.114508
H	 2.0304372004	 1.000717294	-0.8819477943	 0.100059
H	 2.4906545152	-0.6927446001	 1.098380317	 0.108446
H	 1.8569959156	 0.6351619401	 2.1228439109	 0.104742
H	-0.4528935754	-0.6119383325	-0.7699972888	 0.103987
