16
gdb 52276	3.39141	1.03518	0.82883	4.1119	67.02	-0.2684	-0.0061	0.2623	1323.6528	0.123887	-475.034193	-475.025543	-475.024598	-475.06909	29.824	
N	-0.4072314334	 1.132154836	 0.1588838006	-0.437952
C	-0.5353633156	-0.0944297963	 0.4134127098	 0.132476
O	-0.5613207877	-0.9833116485	-0.6118385102	-0.183344
C	-0.7529969962	-2.3498974705	-0.2875609188	-0.116012
C	-2.2356986834	-2.7068618807	-0.1677831129	-0.195446
C	-2.6052079144	-4.1766494918	 0.1095740546	-0.104816
O	-3.2331971099	-3.791173034	 1.3749087819	-0.233134
C	-2.9020907187	-2.4728416885	 1.1956139138	 0.455089
O	-3.0923705835	-1.5665429506	 1.9412346945	-0.318619
H	-0.3968052117	 1.6657245302	 1.0256929571	 0.234966
H	-0.6322680727	-0.5578084412	 1.4015310445	 0.107227
H	-0.3096027297	-2.9144261543	-1.1129122794	 0.133782
H	-0.2126205697	-2.6173798903	 0.6307303155	 0.11951
H	-2.7876725335	-2.2488377541	-0.9916744932	 0.138749
H	-3.3318394857	-4.6327527979	-0.5643024069	 0.137165
H	-1.7687202142	-4.8566644575	 0.289586449	 0.130357
