19
gdb 116571	3.35733	1.13221	0.9246	2.331	79.92	-0.2161	0.0172	0.2332	1303.3777	0.158026	-419.154863	-419.145688	-419.144744	-419.189242	34.44	
C	 0.4348710943	 0.8084570059	 0.6755402572	-0.406344
C	-0.2044672401	 0.2126230187	-0.5858892152	-0.125953
N	 0.6067194629	-0.5881134474	-1.4902229191	-0.350617
C	 1.6948070259	-1.1442688183	-1.1998976658	 0.319933
N	 2.6121745217	-1.2005413741	-0.0829643266	-0.381787
C	 3.6821240324	-1.6869580324	-1.008557905	-0.111742
C	 3.2757777606	-3.059199169	-1.4569669054	-0.307352
C	 2.6315121337	-1.8694958577	-2.1216907038	 0.322072
O	 2.6108271458	-1.7353852511	-3.4857598205	-0.447422
H	 0.7885632313	 0.0328302574	 1.3600552465	 0.136163
H	 1.2722997241	 1.4690833192	 0.4241029916	 0.112488
H	-0.3056980287	 1.4127911229	 1.2095900013	 0.116453
H	-1.0625607542	-0.4096213025	-0.2957734312	 0.118432
H	-0.6305979215	 1.0271449646	-1.1847510585	 0.109277
H	 2.7942685187	-0.3090567029	 0.3613464842	 0.239197
H	 4.683215253	-1.2792538556	-0.9972415373	 0.11409
H	 3.9849646622	-3.5529404082	-2.115867356	 0.127598
H	 2.725501738	-3.7124464967	-0.784405873	 0.1198
H	 2.1016806199	-0.9359716728	-3.6733237133	 0.295715
