11
gdb 4956	3.28647	2.54423	1.43405	6.1168	55.61	-0.2392	-0.0595	0.1796	769.0111	0.073325	-434.595758	-434.589516	-434.588571	-434.626381	23.026	
O	-0.0196697476	-0.0246595296	 0.1640166103	-0.322534
C	-0.0231429744	 1.178378343	 0.0689564575	 0.296016
N	-1.1692289282	 1.9353259476	 0.0094280856	-0.350172
C	-1.1742284073	 3.3209967991	-0.0997905254	-0.073746
C	-0.0211833204	 3.9851469853	-0.152228678	 0.025173
O	 1.1915994319	 3.3496832142	-0.1022350947	-0.21286
C	 1.2876875338	 1.9830157875	 0.0053160049	 0.339625
O	 2.3596544474	 1.4650304803	 0.0462981407	-0.277495
H	-2.036424844	 1.4185017034	 0.0503622043	 0.273087
H	-2.1335607009	 3.8148467141	-0.1386267203	 0.149597
H	 0.0736181395	 5.0564360751	-0.2366475049	 0.153309
