15
gdb 45720	3.41018	1.17672	0.90085	4.1956	72.59	-0.2426	-0.0283	0.2142	1201.1404	0.114638	-416.869812	-416.862098	-416.861154	-416.902426	28.774	
O	 0.0139524426	-0.0726768543	 0.0163350229	-0.343927
C	-0.0210650303	 1.1370658942	 0.039726491	 0.390843
C	-1.31513785	 1.9438113749	 0.075116408	-0.326846
C	-1.1808132654	 3.2855703251	 0.8359350593	-0.212212
C	 0.0781154742	 4.0121046528	 0.4037127089	-0.117633
C	 1.1385786054	 3.3000478098	 0.0220095941	 0.01242
N	 1.123648757	 1.905640692	-0.0376839731	-0.332194
C	-2.3802691019	 4.1053359565	 0.6458969984	 0.269157
N	-3.3261977523	 4.7504721043	 0.4908824632	-0.316771
H	-1.587119152	 2.1507516876	-0.9672975199	 0.155076
H	-2.0958647357	 1.3127873791	 0.5004592732	 0.153605
H	-1.1151977034	 3.0709602315	 1.914356114	 0.145778
H	 0.1153290415	 5.0916519533	 0.4404912895	 0.126147
H	 2.0800339898	 3.7589610029	-0.2549324908	 0.133413
H	 1.9835048505	 1.3941739304	-0.1682571186	 0.263145
