26
gdb 118843	2.60744	0.8437	0.71947	1.1066	94.57	-0.2181	0.0844	0.3025	1761.9574	0.238396	-369.599258	-369.58793	-369.586986	-369.635926	41.634	
C	-0.3150782477	 1.5834708204	-0.0023196987	-0.381525
C	-0.2942382266	 0.0563575962	-0.113699857	-0.1682
C	 0.8544012681	-0.4561622022	-0.9966971964	-0.241813
C	 0.8713870466	-1.9691244005	-1.1766739245	 0.336715
C	 1.0922023297	-2.7689863502	 0.0949719545	-0.446629
C	 0.0456547928	-2.5713887874	-2.2695157623	-0.293489
N	 1.5032537729	-2.5827462361	-2.354037318	-0.121642
C	 2.1388770435	-1.7832998392	-3.3953274314	-0.112254
C	 2.3832968584	-2.64317803	-4.6343988653	-0.374391
H	 0.6168360486	 1.9618594541	 0.4325944484	 0.114217
H	-0.4330073839	 2.0520060213	-0.9858800011	 0.11299
H	-1.1398732238	 1.9258684908	 0.630403722	 0.111396
H	-0.2155677009	-0.3779124359	 0.8895155238	 0.101084
H	-1.2476494186	-0.297911324	-0.5260406986	 0.097632
H	 0.7835624466	 0.0356278858	-1.9721071866	 0.094002
H	 1.8116890508	-0.137187899	-0.5595847428	 0.092748
H	 0.2622800873	-2.6478603138	 0.798853461	 0.11439
H	 1.1914446692	-3.8301438875	-0.1441512042	 0.123371
H	 2.0110346719	-2.4496251652	 0.6012368726	 0.110775
H	-0.439995585	-3.5360232568	-2.1384143191	 0.104797
H	-0.4931375238	-1.8824274292	-2.9215771788	 0.096684
H	 1.5501695104	-0.8965810051	-3.6835670647	 0.081603
H	 3.0953227315	-1.4170461757	-3.0023420303	 0.099281
H	 2.996179288	-3.5131489511	-4.3830591531	 0.124489
H	 1.4364145618	-3.0064460608	-5.0473629129	 0.116765
H	 2.893297882	-2.0662476692	-5.4123870766	 0.107005
