17
gdb 12624	3.07262	2.15214	1.37734	4.137	71.21	-0.2352	-0.026	0.2092	908.1768	0.142654	-363.916404	-363.908494	-363.90755	-363.94853	29.019	
C	-0.0510230902	 1.6067230224	-0.0073195525	-0.395902
C	 0.0238000807	 0.0725262593	 0.0236336992	-0.024191
C	 0.7895467083	-0.5072182417	-1.1411962739	-0.076878
C	 1.8081461367	-1.2489342053	-0.7087006013	-0.192914
C	 1.815842084	-1.2583992001	 0.783886613	 0.394438
O	 2.5707646305	-1.8436128525	 1.5356931279	-0.401883
N	 0.7599524027	-0.4495229879	 1.1602627932	-0.079899
C	 0.3617349871	-0.2790885039	 2.5354703771	-0.349028
H	 0.9537079314	 2.0382660068	-0.0224858056	 0.132803
H	-0.5899577901	 1.941876771	-0.8988299549	 0.122759
H	-0.582622394	 1.9900170182	 0.8685177833	 0.12628
H	-1.0053155994	-0.3247956461	 0.0263718168	 0.095861
H	 0.5106570434	-0.2987785118	-2.1663374841	 0.11701
H	 2.5427066503	-1.7907846996	-1.2869932561	 0.124506
H	 1.0701721458	-0.8428715857	 3.1458312466	 0.166309
H	 0.388579667	 0.7732640704	 2.8425236823	 0.122411
H	-0.6504330542	-0.6652146336	 2.714434029	 0.118318
