18
gdb 46983	2.72396	1.79742	1.46103	4.142	72.46	-0.2526	0.0198	0.2724	950.1789	0.151248	-439.103472	-439.096414	-439.09547	-439.135028	27.873	
N	-0.1026776339	 1.3153847271	-0.1641833289	-0.517691
C	-0.0037429561	 0.0723912124	 0.0430247139	 0.41381
O	 1.2053096512	-0.5458342086	 0.2140076223	-0.267414
C	 1.2801922367	-1.8198056922	 0.8818508742	-0.081386
C	-0.0040462738	-2.6427333718	 0.7769500041	-0.068179
C	-0.3987055938	-2.8830940696	-0.6897993552	-0.070098
O	-1.1447892572	-1.7247508725	-1.0832065573	-0.268443
C	-1.2203847775	-0.835519948	 0.0366421879	 0.035863
C	-1.1734579409	-1.7632054879	 1.2531739244	-0.256095
H	 0.8212338459	 1.7535044202	-0.1324370897	 0.218736
H	 2.1254268818	-2.3414307511	 0.4227859037	 0.119819
H	 1.5249765829	-1.6368420044	 1.9369331505	 0.110134
H	 0.119150382	-3.5722693711	 1.3383918185	 0.0841
H	 0.4718959902	-3.000584887	-1.3459947873	 0.108293
H	-1.0339397781	-3.7714425049	-0.7971677694	 0.103433
H	-2.1146490742	-0.2228623382	-0.0672591036	 0.107872
H	-2.1052425102	-2.3270272482	 1.3479811546	 0.112744
H	-0.973046755	-1.2423731043	 2.1933641372	 0.114502
