29
gdb 117655	2.48162	0.88466	0.79892	0.0207	99.24	-0.2894	0.0749	0.3643	1701.6322	0.272484	-354.774676	-354.762381	-354.761436	-354.811931	46.267	
C	-0.0852865032	 1.663407793	-0.0989830977	-0.376304
C	 0.0082100879	 0.141712567	 0.0590132115	-0.189646
C	 0.6277591336	-0.5280462934	-1.1763726695	-0.180688
C	 0.7509923007	-2.0778766637	-1.1702950461	 0.275097
C	 1.4913391757	-2.5584207349	 0.0936880576	-0.419864
C	-0.6653540969	-2.6893691648	-1.1796532757	-0.423025
C	 1.5166894266	-2.5074483786	-2.4736040341	 0.041429
C	 3.0048409607	-2.1138677606	-2.4844471665	-0.404805
C	 1.4061195866	-4.0062661698	-2.8068158425	-0.411695
H	 0.9038921075	 2.1075372601	-0.2580500504	 0.112001
H	-0.7089963373	 1.9352471419	-0.9580486812	 0.112342
H	-0.5207654516	 2.1312837513	 0.7896575206	 0.108541
H	 0.605489608	-0.0889546882	 0.9488091914	 0.097454
H	-0.9946566419	-0.2570465318	 0.2513480705	 0.096477
H	 0.0407546116	-0.2383401943	-2.0596591067	 0.084588
H	 1.6213861413	-0.0884835326	-1.3226903353	 0.089185
H	 0.8846569619	-2.3961675818	 0.9895980896	 0.111023
H	 1.7094243325	-3.6301279193	 0.0443530367	 0.108442
H	 2.4394139733	-2.0310887717	 0.2379485624	 0.109696
H	-1.1929201735	-2.4561286356	-2.1119532138	 0.104826
H	-0.638341681	-3.7770109305	-1.0724335695	 0.111752
H	-1.2671528653	-2.3027399055	-0.3523686921	 0.109228
H	 1.0295791768	-1.9631317596	-3.2959999684	 0.064763
H	 3.579777123	-2.7069829688	-1.7651926247	 0.114373
H	 3.4336224135	-2.3027849273	-3.4741303279	 0.108761
H	 3.1718462191	-1.0584690085	-2.2550041116	 0.112519
H	 0.3764580216	-4.3208812072	-2.99104728	 0.113496
H	 1.9824882084	-4.2304132095	-3.7106447552	 0.107347
H	 1.8111052706	-4.6329373651	-2.0040742312	 0.112686
