16
gdb 62339	3.96857	1.13733	1.08794	2.1391	78.67	-0.2521	-0.004	0.2481	1141.1115	0.122195	-400.684115	-400.675746	-400.674802	-400.716822	31.924	
C	 0.0155455007	 1.5438378333	 0.0632758469	-0.472476
C	 0.0523653973	 0.0250265713	 0.0522937279	 0.091331
C	-1.1131446136	-0.6166923463	-0.5022203559	 0.247043
C	-2.0855977803	-1.1447433897	-0.9731772765	-0.411377
C	 1.3244087665	-0.7581002511	-0.1544365691	 0.051261
O	 2.4580512947	-0.0264129929	 0.3644435844	-0.274005
C	 1.9323183974	-0.1348492419	 1.6594495825	 0.43055
N	 2.4230601325	 0.1953572806	 2.7619593364	-0.551238
C	 0.682088966	-0.8130423129	 1.2068872917	-0.234757
H	 0.9645374847	 1.9565734186	 0.4079857895	 0.146246
H	-0.1781933424	 1.9189088355	-0.9457109422	 0.13366
H	-0.7833088333	 1.8997696342	 0.7191835677	 0.137263
H	-2.9473396206	-1.6052890376	-1.3896267496	 0.19973
H	 1.5088596161	-1.5076396233	-0.9111916897	 0.136369
H	 3.3476747489	 0.6139943308	 2.6480927791	 0.234763
H	 0.1305521554	-1.5863760987	 1.7188202769	 0.135638
