17
gdb 13844	4.4006	1.58816	1.19282	3.1524	73.74	-0.2054	0.0027	0.208	996.8173	0.142866	-363.911004	-363.903061	-363.902116	-363.943829	28.559	
C	-0.0211790508	 1.5047164555	 0.0341393709	-0.50152
C	-0.019221246	-0.0156115394	 0.032454092	 0.391408
O	-0.0294366676	-0.6748241063	 1.0589332801	-0.369711
N	-0.0053047424	-0.6292479567	-1.192031473	-0.087979
C	-0.0022536283	-2.1014924102	-1.3054795828	-0.15649
C	 0.0151000325	-2.3721418611	-2.8360518165	-0.284391
C	 0.0192837588	-0.9836751568	-3.4372245105	-0.157532
C	 0.0075858237	-0.0632979778	-2.4725147689	 0.012436
H	 0.8678667484	 1.9077082924	-0.4617771208	 0.137979
H	-0.9009474055	 1.9053548891	-0.479913332	 0.137997
H	-0.0322873157	 1.8360111742	 1.0718954592	 0.148748
H	 0.8717429318	-2.5047092712	-0.7880019364	 0.13142
H	-0.8866657301	-2.5068062284	-0.8076800323	 0.13139
H	 0.8969974883	-2.9510129806	-3.1342645492	 0.117156
H	-0.8579066915	-2.9541897657	-3.153576998	 0.117153
H	 0.03034194	-0.7757371301	-4.4970786561	 0.104178
H	 0.0070240743	 1.0117800531	-2.5739413857	 0.127758
