21
gdb 112735	2.42434	1.20164	1.01655	1.3311	74.96	-0.2394	0.0677	0.307	1285.373	0.179295	-461.339401	-461.329025	-461.328081	-461.37428	38.447	
C	-0.5246313626	 1.6660934457	 0.0284074841	-0.238063
O	-0.4209121695	 0.3960806244	 0.6322203898	-0.243404
C	-1.2678908525	-0.5619525073	 0.0606474761	 0.133099
C	-0.8725388039	-1.1990178915	-1.3050083499	-0.335267
C	-1.2994761176	-2.5700322054	-0.718403138	 0.099681
O	-0.5879248744	-3.7381631573	-1.042999782	-0.433193
C	-1.2056681369	-1.9589412171	 0.7209894146	 0.305793
C	 0.11262963	-2.253185625	 1.4285540428	-0.456945
O	-2.3123625867	-2.184403682	 1.572661027	-0.48121
H	 0.1520170762	 2.3368004361	 0.5633710213	 0.127132
H	-0.2347191284	 1.6428132445	-1.0328660414	 0.10758
H	-1.5489681789	 2.0641367899	 0.0970533262	 0.108032
H	-2.3090311131	-0.2083399251	 0.0508121295	 0.079777
H	-1.3721191982	-0.8540044245	-2.2114349953	 0.105678
H	 0.2122178809	-1.1452813974	-1.4486705548	 0.100074
H	-2.3484718303	-2.7864201723	-0.9382436265	 0.097125
H	 0.3518287868	-3.556373257	-0.9401239946	 0.280741
H	 0.9806905862	-1.985477426	 0.8185712302	 0.113524
H	 0.1715169115	-1.6748232644	 2.3527186659	 0.1408
H	 0.1797852025	-3.3209991222	 1.6671277249	 0.11122
H	-2.2326821112	-3.0726129261	 1.93770332	 0.277827
