19
gdb 51547	4.65975	0.77633	0.74304	1.7749	77.	-0.2474	-0.0247	0.2227	1529.4258	0.157409	-422.991776	-422.982696	-422.981751	-423.027126	32.211	
O	-0.462440933	 1.1726460486	 1.1372636987	-0.235607
C	-0.0802236766	 1.2624275483	-0.0000494403	 0.171819
C	 1.3356686154	 1.6099507254	-0.413070671	-0.306425
C	 1.3622532211	 2.7993585974	-1.3578307488	-0.083016
C	 1.3219981186	 4.2106131294	-0.8066378781	-0.349974
C	 2.5710718247	 3.6826699624	-1.4410716954	 0.279386
C	 3.9569737255	 3.4800088049	-0.833987501	-0.135522
O	 4.5792574783	 3.9354657374	-2.0551702817	-0.274236
C	 3.3026040258	 4.1771980716	-2.685347454	-0.135848
H	-0.7780002868	 1.0947888437	-0.854263437	 0.072223
H	 1.9193348686	 1.7995899931	 0.4927129979	 0.122595
H	 1.7648859818	 0.7294072637	-0.9138452331	 0.123341
H	 0.8332602374	 2.6407299466	-2.2958499945	 0.093292
H	 0.7485889368	 4.9597887139	-1.343487621	 0.118928
H	 1.3124850035	 4.3299280453	 0.2731411374	 0.125561
H	 4.204182868	 4.1256509561	 0.0189392567	 0.105206
H	 4.2363929996	 2.4457015016	-0.5924973422	 0.102899
H	 3.1715366029	 3.5758551292	-3.5949995384	 0.101495
H	 3.1604984883	 5.2379736214	-2.9320496741	 0.103883
