14
gdb 7622	4.58477	1.39553	1.18242	2.2838	57.99	-0.2643	-0.0386	0.2257	979.9914	0.105009	-419.721007	-419.713162	-419.712218	-419.75505	27.069	
C	-1.1587893673	 0.5548555782	 0.0936151837	-0.478269
C	 0.3424557528	 0.4734697633	-0.0420058302	 0.346348
O	 1.1192663644	 1.0286793921	 0.6982174956	-0.284867
C	 0.8871389115	-0.3402652246	-1.2145068553	 0.035332
C	 2.053028271	-1.297497274	-0.9271654298	-0.419713
C	 1.0513692521	-2.3755064946	-1.3429427997	 0.450622
O	 1.0137417708	-3.5535294339	-1.470521853	-0.303173
O	 0.0322477891	-1.4735553651	-1.586572035	-0.253699
H	-1.6059763877	 0.9149536002	-0.8398770956	 0.149071
H	-1.5703551329	-0.4450598196	 0.2638535043	 0.164891
H	-1.4194869211	 1.2188462619	 0.9179850608	 0.147623
H	 1.0247698454	 0.3217344902	-2.0764761198	 0.12868
H	 2.9232270055	-1.218998447	-1.5795907972	 0.152654
H	 2.3753190164	-1.3387881869	 0.1138541712	 0.164501
