23
gdb 60134	3.80607	0.87106	0.81958	2.0179	85.89	-0.2326	0.076	0.3086	1522.6261	0.204792	-388.224342	-388.215037	-388.214093	-388.258974	35.687	
C	 0.0599754063	 1.5962751026	-0.2687324401	-0.391284
C	 0.0536597884	 0.0685254249	-0.1269684288	 0.047152
C	 0.8948592764	-0.3694026755	 1.0798365322	-0.38117
C	-1.3930813664	-0.4605626327	-0.0548503252	-0.241852
C	-1.5094346904	-1.9788294236	-0.1153555522	 0.046012
C	-1.4923549235	-2.9293946662	 1.1231550853	 0.041994
C	-2.9136508029	-2.4675675354	 1.5259859113	-0.230584
C	-2.8683411435	-2.7286816637	 0.0015590423	 0.022471
O	-2.1121491486	-3.9737848402	 0.2754921232	-0.310741
H	 1.0808621025	 1.9812947301	-0.3607667578	 0.110453
H	-0.5018078804	 1.9187354262	-1.1517841872	 0.109715
H	-0.3957503155	 2.0733434062	 0.6074260554	 0.111304
H	 0.5153035145	-0.3548864931	-1.0307807757	 0.074251
H	 0.4566681612	-0.0017894919	 2.0160448351	 0.109327
H	 0.9707296651	-1.4580453506	 1.1502784889	 0.117764
H	 1.912663745	 0.0289456717	 1.0135417159	 0.111176
H	-1.8731767584	-0.0583633559	 0.845578682	 0.09315
H	-1.9529642376	-0.0478917872	-0.9054466254	 0.096575
H	-0.909679129	-2.3945511356	-0.9314862958	 0.079233
H	-0.6600170544	-3.2345853381	 1.7584926471	 0.091426
H	-3.4839355956	-3.201615259	 2.0960552394	 0.107327
H	-3.0602105319	-1.4476746622	 1.8856738415	 0.097242
H	-3.6881138813	-2.7876444808	-0.7162236314	 0.08906
