15
gdb 2503	3.26113	2.14596	1.36611	0.6598	68.25	-0.2608	0.0347	0.2955	881.065	0.121954	-271.315027	-271.30679	-271.305846	-271.347185	29.77	
C	-0.0597248673	 1.5482023397	 0.0453055476	-0.393648
C	-0.0114197397	 0.0214983852	-0.0021567216	-0.16763
C	 0.759220831	-0.5258964568	-1.2396348368	-0.332575
C	 2.16275183	-0.0979933934	-1.2412754682	 0.351233
C	 3.3065144736	 0.2687780625	-1.2277941726	-0.471024
C	 0.6507777705	-1.9861693407	-1.3195445827	 0.322847
C	 0.5333503544	-3.1804899889	-1.3656764938	-0.439577
H	 0.9470210373	 1.9733130815	 0.0855795565	 0.135122
H	-0.5631071944	 1.9574880979	-0.8377997313	 0.115394
H	-0.6083289065	 1.8879247261	 0.9285566244	 0.117086
H	 0.4636760956	-0.3775099616	 0.8995059592	 0.119103
H	-1.0237853279	-0.393360398	-0.0404313991	 0.111528
H	 0.2792507526	-0.1027184014	-2.1351281262	 0.134546
H	 4.3209841366	 0.5827520778	-1.2249810117	 0.200072
H	 0.4406385541	-4.23715368	-1.4151441837	 0.197524
