19
gdb 42018	3.02195	1.60356	1.22285	2.8943	77.1	-0.2423	0.0114	0.2537	1050.8932	0.161918	-423.038151	-423.030594	-423.02965	-423.070791	29.059	
C	 0.3011592295	 1.403723673	-0.5320106241	-0.114606
O	 1.3901039701	 1.8696481769	 0.2629914185	-0.271898
C	 1.835773946	 0.8322721204	 1.1240640047	 0.17187
O	 3.2370437474	 0.6899160501	 1.1189879468	-0.252535
C	 3.7022645308	-0.3740328036	 0.2929167688	-0.079719
C	 3.222719714	-1.7329531187	 0.8266579966	-0.202602
C	 1.6793194624	-1.7255019583	 1.0990370599	-0.315206
C	 1.1329931113	-0.4141037542	 0.6390831662	 0.24576
C	 0.2560615797	-0.0817642183	-0.3015023674	-0.231239
H	-0.6286353497	 1.9092956215	-0.2260604335	 0.107123
H	 0.4767430146	 1.6587214518	-1.5870438007	 0.110918
H	 1.5886385696	 1.1059473394	 2.161854107	 0.07981
H	 3.3743944612	-0.2278633058	-0.7454930027	 0.101616
H	 4.7932391524	-0.3115574142	 0.3096547578	 0.107787
H	 3.4793123047	-2.5109044653	 0.099714749	 0.103198
H	 3.761557696	-1.9629927108	 1.7501400619	 0.110859
H	 1.1800684611	-2.5568177673	 0.5948828469	 0.109548
H	 1.5012972558	-1.851722817	 2.1737711123	 0.115861
H	-0.3774398968	-0.7529704795	-0.868736288	 0.103456
