15
gdb 43616	7.24859	0.60537	0.59544	1.7898	90.3	-0.2433	-0.0307	0.2126	1784.4893	0.109828	-383.444276	-383.435529	-383.434585	-383.478595	31.938	
O	-0.0005870259	 0.0427450534	-0.2351703978	-0.279055
C	-0.0136442834	 1.2117397657	 0.0101268304	 0.400072
C	-1.134862754	 2.2275564705	 0.279452813	-0.345263
C	-0.0314683773	 3.229104665	 0.7841701148	-0.225071
C	 1.0855551496	 2.2586171669	 0.2496277171	-0.345263
C	-0.0573732533	 4.5712313319	 0.2531120188	 0.439982
C	-0.07913834	 5.6938663723	-0.2009615593	-0.280125
C	-0.103617778	 6.9543334508	-0.7115779207	 0.301125
C	-0.1252913603	 8.0734215271	-1.1650828392	-0.561683
H	-1.6163238991	 2.5577724671	-0.645780998	 0.149336
H	-1.9050836759	 1.929955487	 0.994190374	 0.140775
H	-0.0171957811	 3.2592356061	 1.8779141517	 0.121744
H	 1.8827159455	 1.9829403463	 0.9433083105	 0.140775
H	 1.5325652068	 2.60182635	-0.6880790332	 0.149336
H	-0.1443747035	 9.0577069399	-1.562608772	 0.193316
