19
gdb 70884	2.48698	1.58135	1.39782	1.571	75.71	-0.2255	0.0673	0.2928	1038.1474	0.157578	-422.972528	-422.963728	-422.962783	-423.005219	34.287	
C	-0.1460718237	 1.4301653901	-0.0215402345	-0.504613
C	 0.0134391734	-0.0601010523	-0.0474537607	 0.296937
C	 0.98140549	-0.8839905457	-0.9029438304	-0.346743
C	 0.137420532	-2.1197133373	-0.4773830399	 0.307659
O	-0.0409480322	-3.2204000781	-1.300170236	-0.482445
C	 0.4185704521	-2.2617056552	 1.0473626957	-0.295629
C	-0.3308581634	-0.9400715139	 1.2006121644	-0.197362
C	-1.0495616119	-1.1106441146	-0.1191687842	 0.291742
O	-2.3494145819	-0.9909969107	-0.5285240813	-0.449857
H	 0.7300540478	 1.9201858545	 0.4188398005	 0.116634
H	-0.2810830518	 1.8309393118	-1.0323545998	 0.121649
H	-1.022672199	 1.7197208739	 0.5672371822	 0.123256
H	 0.8481974274	-0.6647070765	-1.9665468577	 0.102293
H	 2.048627505	-0.8850775334	-0.6465806279	 0.078631
H	 0.81483591	-3.6415026818	-1.440286908	 0.280435
H	-0.1408232861	-3.0989465892	 1.4752870792	 0.095763
H	 1.4680711699	-2.3117464855	 1.3611684128	 0.083075
H	-0.6907306176	-0.4674532109	 2.1057428942	 0.085709
H	-2.8611325999	-1.7135572851	-0.1466998286	 0.292866
