22
gdb 118435	2.11726	1.23484	0.85851	5.3545	80.14	-0.2393	0.0167	0.256	1418.8614	0.192663	-441.518073	-441.507378	-441.506434	-441.554716	38.263	
C	 0.0078877449	 1.6432801127	-0.0194504676	-0.377376
C	-0.1243885289	 0.116289244	-0.0166453187	-0.169336
N	 0.5491419249	-0.5364266999	-1.1381414058	-0.065347
C	 2.0085651587	-0.7074145998	-1.0402580232	-0.208996
C	 2.4771156649	-2.1465193962	-0.7758582065	-0.027515
O	 2.5583959702	-2.9395460712	-1.9318176198	-0.431318
C	-0.0831520461	-0.938977389	-2.275219841	 0.409782
C	-1.5649886666	-0.6351508632	-2.4268035209	-0.502758
O	 0.5142280266	-1.5394834371	-3.167227086	-0.398814
H	 1.0573626823	 1.9518449528	 0.0012346074	 0.130345
H	-0.4510448705	 2.0766151777	-0.913179778	 0.128038
H	-0.4855056472	 2.0681790355	 0.8603514549	 0.123703
H	 0.2976498327	-0.2921255084	 0.9088748121	 0.118982
H	-1.1777617297	-0.168114246	-0.0181616857	 0.12312
H	 2.4730724524	-0.3561207591	-1.9674314568	 0.133616
H	 2.3472492738	-0.0603684912	-0.2262820686	 0.103857
H	 3.4836333776	-2.1022178361	-0.3376926286	 0.095024
H	 1.8156313304	-2.5930125561	-0.0105547277	 0.07175
H	 1.861980851	-2.6304222741	-2.5362321331	 0.304967
H	-1.8080817801	 0.4106424501	-2.2216263479	 0.136973
H	-1.8410571466	-0.878756518	-3.4520710587	 0.153334
H	-2.1617382946	-1.2574858675	-1.7513075901	 0.147969
