14
gdb 132599	3.19135	1.34058	0.94477	2.3333	69.47	-0.2037	-0.0154	0.1884	1120.5167	0.102116	-478.036786	-478.02939	-478.028446	-478.068364	29.18	
N	-0.0460871722	 1.4330481355	-0.1226796435	-0.595355
C	-0.052388926	 0.047949395	-0.0552182402	 0.236025
C	-1.2087350593	-0.7207841374	 0.0037973296	-0.30478
C	-1.0904677572	-2.1082204109	 0.0067502059	 0.254388
F	-2.1994882847	-2.8558940296	 0.0629502113	-0.083009
C	 0.1487632567	-2.7123000985	-0.0438915817	-0.14818
N	 1.2702117674	-1.9730972128	-0.0950362498	-0.351014
C	 1.1693252624	-0.6646079191	-0.100636971	 0.389206
O	 2.3074484651	 0.0813994306	-0.1455392936	-0.439576
H	 0.8332359898	 1.8548035895	 0.1372197598	 0.26635
H	-0.8440033442	 1.8955305744	 0.2862262972	 0.251355
H	-2.1907425161	-0.2624970102	 0.0429844164	 0.107885
H	 0.2478049462	-3.7919472844	-0.0400327024	 0.117523
H	 3.0396192421	-0.549159842	-0.156633718	 0.299182
