16
gdb 56414	4.00248	0.63244	0.57767	3.6348	83.43	-0.2687	0.0118	0.2805	1867.3788	0.12134	-363.56061	-363.550504	-363.54956	-363.598208	34.823	
C	 0.5032214404	 1.1648427627	 0.3594046738	-0.381729
C	-0.3393054222	-0.036040369	-0.137845697	-0.301756
C	-1.7461089849	 0.3627035938	-0.3221532728	 0.29002
N	-2.8466625914	 0.6903146247	-0.4466368305	-0.320051
C	 0.2020837902	-0.6216378845	-1.3661198836	 0.109367
C	 0.6732404088	-1.0941017905	-2.3653741704	 0.089717
C	 1.233788537	-1.673456311	-3.5880486308	-0.491338
C	 2.2817719441	-2.6637145632	-3.3355238526	 0.313435
C	 3.1429216614	-3.4764956347	-3.1396990461	-0.438284
H	 1.530472726	 0.8369760458	 0.5312869389	 0.140533
H	 0.5083489421	 1.9610898085	-0.3874660573	 0.148783
H	 0.0894381269	 1.5562039082	 1.2917208401	 0.139836
H	-0.3340872539	-0.805246893	 0.6467859583	 0.159513
H	 0.4261484941	-2.1362812568	-4.1714826144	 0.170587
H	 1.6346838155	-0.8708558635	-4.2220348547	 0.166776
H	 3.9035606659	-4.1966063374	-2.9648686609	 0.204589
