22
gdb 117163	3.44418	0.81567	0.71312	4.2575	81.53	-0.2326	0.0343	0.2669	1683.8145	0.191331	-441.49579	-441.484453	-441.483509	-441.533577	38.604	
C	 0.0575384481	 1.583053088	 0.001351397	-0.379851
C	 0.0037422686	 0.0531069754	-0.0482831562	-0.150833
N	 0.6617142935	-0.5155569155	-1.2246959924	-0.092541
C	 2.1116658659	-0.5909874979	-1.2063314134	-0.341673
C	-0.1051484939	-0.7293012769	-2.3453689316	 0.394596
O	-1.3041801753	-0.533478097	-2.3639364182	-0.359772
C	 0.6410612131	-1.2504829073	-3.5827672025	-0.192698
O	-0.2749393903	-1.4054238468	-4.6239232347	-0.203241
C	 0.3267560225	-1.8757764917	-5.8056599718	-0.225361
H	 1.0880843258	 1.953225265	 0.0076552195	 0.111504
H	-0.4589443007	 2.0076551167	-0.8637453137	 0.141557
H	-0.4346092485	 1.9499578327	 0.90763055	 0.118408
H	 0.4805865175	-0.3753836442	 0.8411844561	 0.095787
H	-1.0346606682	-0.2791905052	-0.0746289369	 0.144836
H	 2.4787484874	-1.3453697139	-1.9033999209	 0.139371
H	 2.5939981871	 0.3658396854	-1.4519323177	 0.126869
H	 2.4429017395	-0.8849729663	-0.2053160623	 0.130872
H	 1.4442251939	-0.5438623415	-3.8590807244	 0.101137
H	 1.1359657973	-2.2092430764	-3.3426822813	 0.104412
H	 1.0963328755	-1.1813320826	-6.1803520422	 0.101488
H	 0.7976231877	-2.8620992205	-5.6633942083	 0.101656
H	-0.4624952664	-1.9660800394	-6.555307574	 0.133478
