21
gdb 118020	3.16662	0.90201	0.73244	0.7512	82.16	-0.2583	0.0444	0.3027	1567.5916	0.178745	-424.179712	-424.168695	-424.167751	-424.21624	39.426	
C	-0.5112701062	 1.4052418796	-0.409538688	-0.228418
O	-0.6686628421	 0.0129151029	-0.5500483348	-0.231291
C	-1.0105656187	-0.6209565772	 0.6624996179	-0.066506
C	-1.10499254	-2.133344008	 0.4589814074	 0.104492
O	-1.0626228074	-2.6709324787	 1.7686250923	-0.44541
C	-2.3910974753	-2.5922576799	-0.2887852239	-0.162215
C	-2.4274795429	-2.1711506224	-1.7710485877	-0.395138
C	-2.5204662069	-4.0448638171	-0.1599206404	 0.291055
C	-2.5782764148	-5.2409031078	-0.0361367617	-0.460421
H	-0.2365958855	 1.8041949644	-1.3888630702	 0.128231
H	-1.4415421133	 1.8905083845	-0.0745578889	 0.105735
H	 0.2825989234	 1.6521448397	 0.3125605209	 0.108549
H	-0.2410727844	-0.4378160971	 1.4281291945	 0.10405
H	-1.9646464252	-0.2319634987	 1.0572387611	 0.088957
H	-0.2318679175	-2.45360571	-0.1322001299	 0.08133
H	-1.2679889074	-3.611590689	 1.6984147209	 0.285902
H	-3.2407358314	-2.1324918796	 0.2353413112	 0.108075
H	-2.3464341728	-1.0880328325	-1.8607893364	 0.138166
H	-1.593143407	-2.6211332061	-2.3171814433	 0.126025
H	-3.3574758243	-2.5075281695	-2.2365476133	 0.118958
H	-2.6571289303	-6.2960975874	 0.0563472922	 0.199873
