18
gdb 67337	2.85481	1.91272	1.33848	3.4615	75.49	-0.237	0.0146	0.2516	962.3141	0.149334	-401.942958	-401.935673	-401.934729	-401.974301	29.516	
C	-0.0896096039	 1.5389015223	 0.0097407081	-0.502764
C	-0.0003818118	 0.0341650993	 0.0077835837	 0.196321
C	 1.1357592729	-0.7862712351	-0.7281304169	-0.085657
C	 2.1059742261	-0.5016540117	 0.4422738718	-0.261783
C	 0.7545695611	-0.8098567796	 1.1234035129	-0.101936
C	 0.5261417002	-1.9609912002	 0.0842890774	 0.021285
N	-0.8797352155	-2.0471671878	-0.2860780785	-0.355555
C	-1.308312988	-0.7261915474	-0.2327854442	 0.383231
O	-2.4344391882	-0.298679699	-0.3162005684	-0.373085
H	 0.8654691462	 2.0134773149	 0.2498065969	 0.115348
H	-0.4153066124	 1.9030723874	-0.9697378852	 0.132957
H	-0.8341033406	 1.8714548516	 0.7392347756	 0.136719
H	 1.3380965967	-0.7784964795	-1.8008512414	 0.080829
H	 2.9089391348	-1.2286680953	 0.5988187049	 0.093485
H	 2.4854730474	 0.5170002877	 0.5319451827	 0.105689
H	 0.5202413608	-0.8223919389	 2.1901256558	 0.077915
H	 1.0489777694	-2.9121798754	 0.1682105682	 0.088711
H	-1.4837681553	-2.7828388533	 0.0481948065	 0.248289
