17
gdb 46134	4.40964	1.01007	0.86284	1.4345	74.84	-0.2754	0.0008	0.2762	1283.8305	0.138158	-418.042412	-418.034366	-418.033421	-418.075397	29.937	
N	-0.0565461016	 1.3148962618	-0.225467163	-0.489181
C	-0.0210855773	 0.0765618229	 0.0197776302	 0.382557
C	-1.279608159	-0.7560904654	 0.088951011	-0.284944
C	-1.2139068482	-1.8796848375	 1.1301614065	-0.223117
C	 0.0986112817	-2.6635158863	 0.9326666057	-0.166955
C	 1.2817897389	-1.68339661	 1.0358151651	-0.082467
O	 1.1704975587	-0.6042272764	 0.1108098754	-0.254043
C	 0.2547177898	-3.7410213225	 1.9072430255	 0.263499
N	 0.3847385621	-4.5817577812	 2.6893762399	-0.311555
H	 0.8932543896	 1.6901800595	-0.2771641974	 0.225026
H	-2.1204888204	-0.0855768445	 0.2693145405	 0.143455
H	-1.4274130798	-1.1998005757	-0.9051456188	 0.133451
H	-1.232896523	-1.4676528108	 2.1455313294	 0.129923
H	-2.0769434407	-2.5432405045	 1.0347300165	 0.128795
H	 0.1043869374	-3.1092142639	-0.0703435853	 0.136197
H	 1.3410095869	-1.2908303515	 2.0598055737	 0.12792
H	 2.225909525	-2.1791714741	 0.8030659551	 0.141441
