17
gdb 2209	3.70002	2.44779	1.85398	0.2336	60.12	-0.2487	0.0547	0.3035	755.893	0.146997	-346.841836	-346.833931	-346.832986	-346.87414	28.584	
C	 0.1593835857	 1.5354400494	-0.0953766595	-0.400048
C	 0.0253318702	 0.0373135152	 0.0839807685	 0.117735
O	 0.8807506944	-0.716740638	-0.809573346	-0.315402
C	 1.406214844	-1.5229954259	 0.2733010713	 0.117736
C	 2.9197387174	-1.5835909638	 0.2830589769	-0.400049
C	 0.6718297443	-0.6427313437	 1.3242249058	 0.060563
O	 1.4465770561	 0.1478763613	 2.1891638281	-0.422381
H	 1.1920286047	 1.8706687641	 0.0435169881	 0.102127
H	-0.1461178399	 1.8163942249	-1.1077335794	 0.131059
H	-0.4765362452	 2.0668623164	 0.6194203375	 0.126465
H	-1.0247257008	-0.2614916302	-0.0483576837	 0.07197
H	 0.9926650684	-2.5410153608	 0.2282318	 0.07197
H	 3.3661303102	-0.5859295733	 0.3416426893	 0.102125
H	 3.2756509156	-2.1729334473	 1.1337880852	 0.126464
H	 3.2779028014	-2.0524883161	-0.6383460045	 0.131061
H	-0.0247976136	-1.1809451647	 1.9696048999	 0.092521
H	 2.083384807	 0.6483259225	 1.6691033925	 0.286085
