20
gdb 99906	2.05496	1.38069	1.14851	2.6805	79.42	-0.2522	0.0271	0.2792	1203.3479	0.170939	-399.300932	-399.291093	-399.290149	-399.335501	36.062	
C	-0.3825452337	 1.3782903239	-0.1415963946	-0.336302
N	-0.2549646709	-0.0558741348	-0.4130573035	-0.30558
C	 0.7056309729	-0.4463029832	-1.4500980769	 0.053705
C	 0.4426746201	 0.3208568094	-2.7616380052	-0.404095
C	 2.1008006689	-0.1794224264	-1.007298853	 0.265649
N	 3.1666805819	 0.0396873838	-0.6152173727	-0.344441
C	 0.5783168952	-1.9514636244	-1.7385349855	 0.025692
C	 0.1184436209	-2.9387221564	-0.7355314272	-0.257817
N	-0.7512246215	-2.5528286647	-1.8648080581	-0.327341
H	 0.5787931872	 1.8840094745	 0.0372193231	 0.127761
H	-0.8908453754	 1.8796773409	-0.9685624658	 0.135977
H	-1.0044239647	 1.5008324751	 0.7486008505	 0.1307
H	 0.0076469418	-0.5190758657	 0.4500725683	 0.236311
H	 0.6388519545	 1.3891019189	-2.6546886188	 0.136522
H	 1.0917378991	-0.0639406693	-3.5512660353	 0.139432
H	-0.5984683051	 0.1728359671	-3.059386776	 0.139636
H	 1.2902188361	-2.2848602248	-2.4902998052	 0.107418
H	 0.5055750198	-3.9525675699	-0.7737369539	 0.127676
H	-0.1582677471	-2.6049484305	 0.2599872547	 0.110086
H	-1.42794899	-1.8747467232	-1.5141177648	 0.239012
