13
gdb 13335	6.17437	1.24492	1.14119	3.2112	55.65	-0.278	-0.0112	0.2669	990.4515	0.09582	-435.769694	-435.762732	-435.761788	-435.801962	23.854	
O	-0.0561557222	-0.0259113293	 0.0532172171	-0.258156
C	-0.0220214537	 1.1636142936	 0.0877108404	 0.17963
O	 1.1128192645	 1.8646805546	-0.1667885673	-0.186253
C	 1.0116599894	 3.2766687455	-0.1753196681	 0.179568
C	 2.4237402851	 3.8913612004	-0.1062064012	-0.207423
N	 2.6757262396	 4.4074924412	-1.4591251209	-0.245836
C	 1.5887270258	 4.2620483865	-2.0862046838	 0.119726
O	 0.5134012312	 3.7105262102	-1.4426892455	-0.218556
H	-0.8816011571	 1.8136878502	 0.3369755656	 0.091484
H	 0.3078054621	 3.6077212417	 0.592752392	 0.110292
H	 2.4810886104	 4.7089232321	 0.6188492385	 0.132108
H	 3.160120559	 3.1328683362	 0.1692136595	 0.148409
H	 1.3967951557	 4.5451781471	-3.1139781162	 0.155006
