17
gdb 28099	4.94865	1.20989	0.98398	1.2992	84.74	-0.185	-0.0094	0.1756	1180.1454	0.137383	-384.730787	-384.723387	-384.722443	-384.762451	28.951	
C	-0.0201937703	 1.4571906736	 0.0153752413	-0.484799
C	-0.0002780422	-0.0364065443	-0.0213634139	 0.305414
C	-0.0357659281	-0.8334553897	-1.1161802935	-0.327448
C	 0.0049174136	-2.2014488451	-0.6455287035	 0.352234
C	 0.0648744569	-2.2873344962	 0.7139527356	 0.227881
C	 0.0672570994	-0.8857112546	 1.2534331238	-0.461834
C	 0.0985157958	-3.6806843854	 1.016121228	-0.363955
C	 0.0555197779	-4.3155972526	-0.1941993554	-0.021775
O	-0.002496331	-3.415940119	-1.2330737005	-0.205327
H	 0.8775808566	 1.8627578781	 0.5001085701	 0.126007
H	-0.0746143255	 1.8772956783	-0.9927278418	 0.126075
H	-0.8786753715	 1.8372581614	 0.5844987114	 0.1259
H	-0.0851698602	-0.5078044312	-2.1463852303	 0.105203
H	 0.9675210356	-0.6455434449	 1.8344258862	 0.128265
H	-0.7866266452	-0.6716367977	 1.9097644241	 0.128283
H	 0.1472351838	-4.1692697111	 1.9772615848	 0.109417
H	 0.0582920045	-5.3528967996	-0.4840215665	 0.130458
