13
gdb 19678	5.02803	1.83645	1.70795	5.1843	60.63	-0.2573	0.015	0.2723	755.6995	0.096635	-361.39915	-361.393301	-361.392357	-361.42917	22.623	
N	 0.0488937972	-1.1831682187	-0.0653656187	-0.325029
C	 0.0426955648	-0.0290640084	-0.0063146978	 0.279691
C	 0.0173164727	 1.4274875241	 0.0585954942	-0.160189
C	-0.1729689056	 2.1399798267	 1.402612851	-0.121456
C	 1.2480620457	 2.2716651551	 1.9759994693	 0.103479
O	 2.1465985856	 1.6108528699	 1.0860655579	-0.272446
C	 1.3822412629	 2.1952119296	 0.0090781577	 0.059734
C	 0.7659646022	 3.2686480685	 0.9809306272	-0.159104
H	-0.6730660925	 1.8266512669	-0.6886317717	 0.12993
H	-1.0691753131	 2.1895042227	 2.0056995124	 0.113989
H	 1.489131551	 2.3312921797	 3.0279875177	 0.126774
H	 1.9386831033	 2.3292414343	-0.9146715754	 0.108897
H	 0.6649696956	 4.3437813999	 0.9623926962	 0.115731
