16
gdb 125941	3.83793	1.37046	1.15252	5.5731	70.61	-0.2342	-0.0283	0.206	1054.9381	0.126195	-434.028473	-434.021269	-434.020324	-434.06021	28.056	
C	 0.1920844408	 1.4960340476	 0.0665259283	-0.394957
C	-0.0406475797	-0.0126645071	-0.0357607088	 0.02469
C	 0.6638676003	-0.6395262419	-1.2972070914	-0.360267
C	 1.8885753167	-1.2402520375	-0.6830144769	 0.337125
N	 3.0269299603	-1.7545465347	-1.0160959668	-0.198842
O	 3.6235775897	-2.0969911697	 0.1803546809	-0.176283
N	 2.8105103574	-1.7723269017	 1.2866380855	-0.245078
C	 1.7573715089	-1.2548082738	 0.7298064359	 0.387368
N	 0.542865073	-0.7484684067	 1.1251562302	-0.396345
H	 1.2626298336	 1.7274756946	 0.0624334743	 0.136285
H	-0.275828465	 2.0151654084	-0.7760250504	 0.128621
H	-0.2419280608	 1.8984748273	 0.9879080788	 0.121711
H	-1.1155528759	-0.2127174944	-0.0677651343	 0.098954
H	 0.0359795869	-1.4116622825	-1.7533674799	 0.143326
H	 0.869727944	 0.1156065977	-2.0589787801	 0.139688
H	 0.4628447198	-0.3154628556	 2.0337253647	 0.254004
