13
gdb 4743	7.04127	1.31959	1.11903	3.6216	65.48	-0.2576	-0.0748	0.1828	1001.4822	0.095391	-398.646755	-398.639649	-398.638705	-398.678418	24.849	
C	 0.0123868317	 1.4941919319	 0.0332974161	-0.493225
C	-0.0051998386	 0.003957541	-0.0224082054	 0.246372
C	-0.1192222364	-0.8267380217	-1.0990219834	-0.096088
O	-0.0866450331	-2.1119994943	-0.6687196925	-0.142892
C	 0.0481458871	-2.0108097375	 0.6754887719	 0.283815
C	 0.1204813477	-3.22429292	 1.4990688389	 0.081936
O	 0.068443829	-4.3503091762	 1.067822819	-0.256628
N	 0.1012799864	-0.7827785968	 1.1093324645	-0.317007
H	 0.9455463412	 1.8549094366	 0.4773387415	 0.147885
H	-0.0837893413	 1.9258376999	-0.9658610879	 0.130273
H	-0.8087711794	 1.8690416978	 0.6523666863	 0.147886
H	-0.2237723273	-0.6749568958	-2.1603113802	 0.158303
H	 0.229709433	-2.9885687648	 2.5758685412	 0.10937
