21
gdb 7554	2.99511	1.47192	1.18132	2.0385	76.39	-0.2213	0.0787	0.3	1128.0293	0.186195	-366.222305	-366.212583	-366.211638	-366.256609	34.908	
C	 0.0751515015	 1.3888660704	-0.0409118345	-0.223487
O	 0.2750962189	-0.0027968089	 0.0088648947	-0.236174
C	 0.4316455912	-0.58312337	-1.2724621234	-0.126638
C	 0.5468649431	-2.0837764002	-1.1099244614	 0.330324
C	-0.6929804061	-2.7447172645	-0.5398143474	-0.448942
C	 1.4171750443	-2.8206658775	-2.0770757346	-0.30271
N	 1.8099829193	-2.6906898297	-0.6799860618	-0.102614
C	 2.9622827187	-1.8618660468	-0.3589897551	-0.311601
H	 0.9284298989	 1.9095506864	-0.5045690779	 0.102655
H	-0.8326933802	 1.6515646139	-0.6072797555	 0.103581
H	-0.0358498412	 1.7415476883	 0.9873441308	 0.128021
H	-0.442815676	-0.3511268729	-1.9053141093	 0.088282
H	 1.3125307078	-0.1601829617	-1.7786956217	 0.08403
H	-1.5504505058	-2.6112267381	-1.2098022605	 0.10565
H	-0.5208068657	-3.813945127	-0.3991930906	 0.121444
H	-0.9466818931	-2.3025605112	 0.4276357789	 0.13365
H	 1.1430256306	-3.8186287283	-2.4118516425	 0.10954
H	 1.9602977583	-2.230902344	-2.8166651045	 0.09864
H	 3.1698906485	-1.060915855	-1.0858976264	 0.094378
H	 2.8112122399	-1.4017481546	 0.6214130839	 0.133433
H	 3.8491456171	-2.5022321989	-0.310827071	 0.118538
