18
gdb 122037	2.97116	0.76743	0.63676	4.1472	74.48	-0.2809	-0.0582	0.2228	1740.7276	0.143835	-439.090856	-439.080297	-439.079352	-439.128634	34.958	
C	 0.0822378005	 1.4924708947	 0.2544639616	-0.386065
C	-0.0332617141	 0.0043611763	-0.0864753319	-0.187571
C	-1.4536847221	-0.5112624376	 0.0822443646	-0.055297
O	-1.4697315882	-1.8985960428	-0.2587566076	-0.247673
C	-2.7268681139	-2.5071406245	-0.1860673682	-0.089536
C	-2.5641240418	-3.9175185158	-0.7986309521	 0.149084
O	-3.4777127784	-4.560420858	-1.2251353459	-0.217368
C	-3.2239437957	-2.6239127443	 1.2017239589	 0.267861
N	-3.5869516286	-2.712736593	 2.295254182	-0.312179
H	 1.1107589416	 1.8408304966	 0.128020354	 0.125062
H	-0.5570720991	 2.1024070673	-0.3929326273	 0.120678
H	-0.2101964333	 1.6886594371	 1.2915192558	 0.125098
H	 0.2851053208	-0.1763579888	-1.1193496514	 0.111836
H	 0.6294275623	-0.5860431827	 0.5559359649	 0.116877
H	-1.7974610665	-0.3790273789	 1.1184410329	 0.120536
H	-2.1505725701	 0.0352545877	-0.5732281711	 0.099161
H	-3.4886407726	-1.973058432	-0.7757220012	 0.139714
H	-1.507537381	-4.2538121614	-0.809241088	 0.11978
