15
gdb 85784	3.11677	1.2398	0.93294	1.9993	63.92	-0.2575	-0.0231	0.2344	1186.2495	0.112289	-491.140453	-491.131506	-491.130561	-491.174714	31.485	
N	-0.0681632171	 1.3279254157	-0.0371752328	-0.566906
C	 0.0821383266	-0.021692456	-0.0304513102	 0.471552
O	 1.1275513305	-0.6330607247	-0.0501093661	-0.383803
N	-1.156488039	-0.6949341587	-0.0111426365	-0.165218
C	-1.4562393521	-2.1344506989	 0.0391162806	-0.17425
C	-2.9650209152	-1.7519637908	 0.0349158288	-0.022974
O	-3.6491976161	-2.1950615335	 1.1743951952	-0.418641
C	-2.4715820701	-0.2806172486	 0.0563263921	 0.402644
O	-2.9655831217	 0.8177865912	 0.129504061	-0.385153
H	 0.7633636768	 1.8895792351	 0.0156504629	 0.2703
H	-0.9832815708	 1.744732807	 0.0601291017	 0.283658
H	-1.0915125909	-2.6909593561	-0.8253896949	 0.135782
H	-1.1394769551	-2.6111102381	 0.9683201997	 0.146081
H	-3.4813005147	-2.0101461896	-0.8996510213	 0.10447
H	-4.4780384311	-1.7068903141	 1.2337945299	 0.302459
