15
gdb 99445	3.37873	0.72698	0.61558	1.011	90.03	-0.2487	-0.0227	0.226	1719.0702	0.109023	-383.390139	-383.380366	-383.379422	-383.425247	35.123	
O	 0.0865050936	 1.3948784001	-0.0078596041	-0.408441
C	 0.0562250556	-0.0081943784	 0.0271309674	-0.058352
C	-1.4099067874	-0.5524938797	 0.0085715461	-0.413492
C	-2.0950185043	-0.0728718169	-1.1959418409	 0.314846
C	-2.6012500395	 0.3696590664	-2.192113763	-0.448268
C	-1.4275327882	-2.0083743298	 0.1148584386	 0.438003
C	-1.3987516594	-3.2128598367	 0.2198924028	-0.251189
C	-1.3722336808	-4.5683918783	 0.3354398469	 0.293822
C	-1.3473782393	-5.7709428975	 0.4394341483	-0.553296
H	-0.3337549848	 1.6730507157	-0.8308918013	 0.290629
H	 0.6067022618	-0.4652273831	-0.8067816262	 0.112036
H	 0.5279344959	-0.3173778077	 0.963107472	 0.128572
H	-1.9124091807	-0.1225507708	 0.8867267996	 0.151355
H	-3.0779923571	 0.7359833004	-3.0680644766	 0.209087
H	-1.3272534756	-6.8287098437	 0.5294059903	 0.194688
