17
gdb 84735	2.57156	1.60776	1.08134	2.7585	76.87	-0.2409	-0.0391	0.2018	1092.1987	0.136182	-421.856094	-421.848246	-421.847302	-421.888545	30.569	
O	 0.3804051257	 1.236350493	-0.1343877287	-0.441178
C	 0.0548622541	-0.0919229623	 0.1620519073	 0.005672
C	 0.4663508518	-0.4623405523	 1.5621183029	-0.110467
C	 0.4948341293	-1.718507075	 2.0330971601	-0.087418
C	 0.0311576934	-2.8715531388	 1.2753427539	-0.074235
C	-1.0204991347	-2.8601649737	 0.4388689936	-0.099162
C	-1.9867087268	-1.7173704982	 0.276407998	-0.356747
C	-1.4346064942	-0.3462635444	-0.1022213946	 0.364903
O	-2.1206713501	 0.5284670283	-0.5741218837	-0.323386
H	-0.4321432817	 1.625291343	-0.4966802471	 0.293328
H	 0.5602388155	-0.7913332625	-0.535287206	 0.111097
H	 0.8065050187	 0.3754739712	 2.1624742085	 0.116833
H	 0.9200862218	-1.9027986296	 3.0167525456	 0.09962
H	 0.5729068801	-3.8049521158	 1.4135769169	 0.098513
H	-1.2634541815	-3.7668440833	-0.1076353728	 0.103186
H	-2.7868080161	-1.9567722167	-0.427913477	 0.138168
H	-2.4791347954	-1.530469873	 1.2445715931	 0.161272
