17
gdb 86163	2.89565	1.31334	0.9526	4.1978	71.73	-0.2569	-0.0645	0.1924	1184.1378	0.135922	-458.991241	-458.98297	-458.982026	-459.02402	31.64	
O	-0.0782130147	 1.4475889898	-0.0255617939	-0.426957
C	 0.0025590336	 0.028106131	-0.012044821	 0.061122
C	-1.4230512989	-0.5130107751	 0.0980135106	-0.238593
C	-1.4329161419	-2.0298241948	-0.1172270245	 0.036984
O	-2.7183094437	-2.5650276344	 0.0209343095	-0.444218
C	-0.8586404825	-2.3651155152	-1.49232127	 0.357174
O	-1.3755842033	-3.23458054	-2.1706142265	-0.357678
C	 0.3148303021	-1.5865986432	-1.9202090372	-0.150649
C	 0.6993497194	-0.4937549304	-1.2481952552	-0.068055
H	 0.8017383193	 1.8085353252	 0.1227661783	 0.286791
H	 0.5790426528	-0.3104279818	 0.8681231091	 0.090145
H	-1.8486754315	-0.2679128347	 1.0741883734	 0.122192
H	-2.0416199322	-0.0296932767	-0.6659971804	 0.125019
H	-0.7431343218	-2.4880474393	 0.619645792	 0.088027
H	-2.8104077772	-3.1902071167	-0.716620435	 0.291694
H	 0.8196760596	-1.9217120178	-2.8206854133	 0.118489
H	 1.5589200011	 0.0810695241	-1.589145526	 0.108512
