18
gdb 119453	4.59561	0.82718	0.76741	4.2216	73.25	-0.2455	0.0095	0.2549	1467.8776	0.14711	-439.072672	-439.06386	-439.062915	-439.106799	32.534	
O	-0.1211321767	 1.4815519709	-0.0351730276	-0.416571
C	 0.004644174	 0.0701686415	-0.0533515007	-0.071934
C	-1.3969067187	-0.5146555014	 0.1105586898	-0.276993
C	-1.4089882566	-2.0136220111	 0.089305163	 0.38323
C	-1.4913253766	-2.887160368	-1.1264793643	-0.320935
C	-2.576020617	-2.9806986076	-0.0452999485	-0.302839
C	-1.9674440531	-3.7360478736	 1.1239613442	 0.436698
O	-2.2086421398	-4.7359134817	 1.7366562583	-0.342927
N	-0.9254764918	-2.7906958682	 1.2482200111	-0.398394
H	 0.7577374857	 1.8658286136	-0.1016935416	 0.288514
H	 0.4457707906	-0.2840145097	-0.9992111217	 0.088436
H	 0.6514056105	-0.2855500464	 0.7650926085	 0.090237
H	-1.8201564529	-0.1556965695	 1.054782158	 0.122817
H	-2.0283080163	-0.1330108606	-0.6993102159	 0.114199
H	-1.8177178743	-2.410147635	-2.0469141248	 0.125727
H	-0.7969647131	-3.7107166253	-1.2659694441	 0.121984
H	-3.6199416212	-2.7859976803	-0.2461589417	 0.120678
H	 0.0423525571	-3.0681414575	 1.3748593078	 0.238074
