23
gdb 41934	3.08388	1.38931	1.02302	0.2369	90.57	-0.2333	0.0294	0.2626	1227.6174	0.210088	-351.190614	-351.182752	-351.181808	-351.222916	32.027	
C	-0.0433596093	 1.5639429533	-0.0687644111	-0.209422
C	 1.4483955711	 2.0258021735	-0.0436568408	-0.251452
C	 2.1978551095	 0.8178939808	 0.5300511514	 0.073361
C	 3.7002831302	 0.6648344538	 0.323031461	-0.246826
C	 4.1832612517	-0.6304908447	 1.0152453306	-0.258573
C	 3.2067707766	-1.780128102	 0.9067811282	-0.045077
C	 1.969930993	-1.676009529	 0.4160241891	-0.102837
C	 1.4442928541	-0.364956111	-0.0937243809	 0.030425
C	-0.0256142911	 0.0178624966	 0.1455073775	-0.244016
H	-0.6246107875	 2.0581861079	 0.7146218083	 0.098798
H	-0.5168637898	 1.8274178342	-1.0187459027	 0.098124
H	 1.8021696126	 2.2348375857	-1.0607855489	 0.092062
H	 1.5956585437	 2.9395422712	 0.5394740032	 0.089748
H	 2.0018648527	 0.7809435442	 1.6135713734	 0.066289
H	 3.9127417579	 0.6127772823	-0.7532193697	 0.093762
H	 4.2562762473	 1.5255657759	 0.7118901481	 0.088018
H	 5.1553502247	-0.936783815	 0.6069971194	 0.101423
H	 4.3725516685	-0.4324630118	 2.0810774196	 0.106558
H	 3.5626064098	-2.7433937047	 1.267140547	 0.080433
H	 1.3296342325	-2.5536817085	 0.3562021559	 0.078171
H	 1.6116490854	-0.3244025113	-1.1843547273	 0.074188
H	-0.3112412701	-0.2321739911	 1.1738935682	 0.096895
H	-0.7196794935	-0.5068885003	-0.5174053697	 0.089948
