20
gdb 85674	2.41561	1.2853	1.10649	4.5134	79.84	-0.2463	0.0184	0.2647	1206.9323	0.170436	-399.321447	-399.311623	-399.310679	-399.355763	36.6	
C	-0.9993364179	 1.1366746358	-0.025474272	-0.407684
C	-0.0002040454	-0.0050772791	-0.062289764	 0.049815
N	 1.3023543309	 0.3124017249	-0.7021826301	-0.3279
C	 2.01046575	-0.5675164477	 0.249724606	-0.12974
C	 3.3196695572	-0.0935837344	 0.6954278129	 0.293023
N	 4.3524761003	 0.2641149306	 1.0721450597	-0.336879
C	 0.7769560321	-0.4537611099	 1.2199294843	 0.234708
C	 0.9420815305	 0.6302723352	 2.2825219157	-0.445784
N	 0.3391167046	-1.7474370655	 1.7314209776	-0.556153
H	-0.5577701665	 2.0412106558	 0.3990749914	 0.129425
H	-1.3377260847	 1.3731590806	-1.040041886	 0.121661
H	-1.8845455417	 0.865297046	 0.560631518	 0.112884
H	-0.4719031788	-0.9017694444	-0.4906586329	 0.076701
H	 1.3967497511	 0.0488316869	-1.6774339707	 0.227273
H	 2.1054896135	-1.6123681607	-0.0724292107	 0.116671
H	 1.3009902323	 1.5704678309	 1.8548957529	 0.143574
H	-0.0121326344	 0.8201240647	 2.7852398962	 0.111184
H	 1.6678547545	 0.3120593028	 3.0386480887	 0.126776
H	 0.8786236042	-1.9913621551	 2.5597862953	 0.230706
H	-0.625760742	-1.6736767875	 2.0468238178	 0.22974
