19
gdb 90445	2.90402	1.41943	1.17757	2.8123	76.08	-0.2243	0.0161	0.2404	1108.3039	0.160605	-419.188655	-419.180329	-419.179385	-419.221523	31.749	
C	 0.0126317694	 1.6345203969	-0.0623335915	-0.40101
C	 0.0272648515	 0.1062434219	-0.0308774283	 0.00644
C	 1.0294644864	-0.5210755615	-1.0755350275	-0.182293
N	 2.2857900237	-0.826310858	-0.3337272335	-0.348829
C	 1.9065500337	-0.8058343425	 0.8782880261	 0.296328
C	 2.4310556595	-0.6038782649	 2.2904665516	 0.040331
O	 3.6407236842	 0.0678234961	 2.4567724276	-0.420058
C	 1.0607799665	 0.1664950002	 2.4835010496	-0.224951
N	 0.6010571458	-0.4645098621	 1.2089516534	-0.088567
H	 1.0242413752	 2.0448797783	 0.0268379953	 0.121517
H	-0.4043840632	 1.9786603097	-1.0138400155	 0.125337
H	-0.6019601855	 2.0504094636	 0.7420923113	 0.122983
H	-0.9871738798	-0.2728652059	-0.1844710865	 0.086426
H	 0.6212234992	-1.4465704029	-1.4989309538	 0.114926
H	 1.2380245814	 0.1594117244	-1.9069779369	 0.107757
H	 2.4663386693	-1.5169874474	 2.8896567045	 0.121908
H	 3.8068628743	 0.5809091578	 1.6577240696	 0.29422
H	 0.4486317662	-0.0817857255	 3.3532646409	 0.11491
H	 1.2161861524	 1.2487885518	 2.4220305037	 0.112624
