21
gdb 17347	4.08397	1.26754	1.07622	1.3649	80.06	-0.2155	0.0858	0.3013	1179.7092	0.188037	-329.08102	-329.07211	-329.071165	-329.114943	33.112	
C	-1.6515281315	-0.1401619267	 2.2888506169	-0.40414
C	-0.8723845314	-1.4317300234	 2.1595185892	-0.006176
C	 0.0322408175	-1.6857939832	 0.9809941309	-0.304799
C	 0.6286209001	-1.5233165911	 2.364916479	-0.007912
C	 1.4567799112	-0.3225432529	 2.7005386555	 0.012597
C	 2.2384775125	-0.2564578568	 3.970918372	-0.263399
N	 2.924916945	-0.3351301302	 2.6866463426	-0.088643
C	 3.6356253991	-1.5653925612	 2.3731856812	-0.307151
H	-1.1205140956	 0.7075881661	 1.8471266258	 0.119704
H	-2.6150400854	-0.2221106819	 1.7738261739	 0.116388
H	-1.8544757814	 0.1039096504	 3.337568205	 0.118259
H	-1.4183680449	-2.3006165293	 2.5189908997	 0.083301
H	 0.0437036439	-2.6671267221	 0.5191716645	 0.108338
H	 0.1771625367	-0.8658693593	 0.283428454	 0.111691
H	 0.9581208777	-2.4415520329	 2.8406271254	 0.08053
H	 1.0596756374	 0.6132286994	 2.3119071328	 0.082739
H	 2.3468736106	 0.6749575294	 4.5216913993	 0.109439
H	 2.2277607632	-1.1506516605	 4.5953627946	 0.099671
H	 3.210024366	-2.4744828404	 2.8263060695	 0.096347
H	 3.660236334	-1.7049804732	 1.2877389672	 0.123051
H	 4.6678123654	-1.4702671703	 2.7260239309	 0.120165
