14
gdb 25116	3.4993	1.30546	0.95076	2.6941	75.68	-0.2507	-0.0832	0.1675	1131.4368	0.103606	-436.751414	-436.744241	-436.743297	-436.783511	26.961	
O	 0.0478281313	 0.015533106	-0.8718335825	-0.350206
C	 0.0131760086	 1.0980676232	-0.3170202794	 0.393129
N	-1.2073858736	 1.772207384	-0.2611472781	-0.367977
C	-1.5950893032	 2.9739529355	 0.272337739	 0.026781
C	-0.8936696236	 3.916243761	 0.9329769911	-0.191703
C	 0.5202037742	 3.9494324514	 1.2902969131	 0.337934
O	 0.9879075766	 4.9028682931	 1.8990173916	-0.348164
C	 1.4380765767	 2.8357782797	 0.9317246589	-0.15493
C	 1.227058328	 1.6837189081	 0.2806502466	-0.140173
H	-1.9274301965	 1.2284076111	-0.7178438374	 0.267241
H	-2.6535936338	 3.1546450347	 0.1112575954	 0.137872
H	-1.442042019	 4.7929289288	 1.2580048306	 0.119012
H	 2.4472614342	 3.0390799668	 1.2810391883	 0.133172
H	 2.0680493902	 1.0128542465	 0.1341258829	 0.138012
