19
gdb 65345	3.98497	0.9937	0.91476	1.5595	83.27	-0.2392	0.0512	0.2903	1319.6959	0.156891	-385.822515	-385.813254	-385.81231	-385.856372	34.909	
C	 0.1798443527	 1.4705079228	-0.0444122081	-0.475776
C	 0.0377968754	-0.0426619609	 0.0562307574	 0.132079
C	 1.2946479426	-0.9059179739	 0.0187962715	-0.32831
C	 0.5283010323	-0.78495989	 1.3033150338	-0.069006
C	 1.1004683215	-0.0573845084	 2.4795542093	 0.042421
C	 2.3997767918	-0.4331430217	 3.0586130716	-0.171611
O	 2.2616157657	 0.7496092018	 2.2684081441	-0.227007
C	-1.1405034106	-0.5783759205	-0.5752614702	 0.272631
C	-2.1328714458	-1.0068390723	-1.104195228	-0.458452
H	 1.0942553039	 1.8122078875	 0.4431481235	 0.150107
H	 0.2097995228	 1.7765073572	-1.0946044148	 0.125524
H	-0.6725313474	 1.9722774144	 0.4245298879	 0.122856
H	 1.2542328864	-1.8420004929	-0.5245789223	 0.121013
H	 2.2350271563	-0.368805098	-0.0382913808	 0.133402
H	-0.0834596955	-1.6363797929	 1.5884640575	 0.103667
H	 0.3690401121	 0.3990404467	 3.1485522712	 0.100206
H	 2.5918251664	-0.2659007891	 4.1170665218	 0.117645
H	 2.9723178827	-1.2355990791	 2.5965561401	 0.118502
H	-3.0061047533	-1.3872923205	-1.5727123855	 0.190108
