21
gdb 119410	3.90492	0.95755	0.91207	1.9287	77.79	-0.2446	0.0798	0.3245	1362.3305	0.183458	-424.206358	-424.197757	-424.196813	-424.239997	33.195	
O	 0.0694073001	 1.444947776	 0.1130873335	-0.418582
C	 0.0613963917	 0.0255137959	 0.1067168175	-0.066262
C	-1.3335738196	-0.5447065252	-0.1792897552	-0.330605
C	-1.3952023068	-2.050233331	-0.1394679179	 0.432144
C	-2.7225516483	-2.8490482434	-0.0755435366	-0.278632
C	-1.7602372886	-3.8090666473	 0.6513297008	 0.081385
C	-0.8182668163	-4.3011267036	-0.4660849923	-0.216672
C	-0.5271643699	-2.9051722185	-1.1016077881	-0.258606
O	-1.0447656195	-2.6430233672	 1.1641959267	-0.337241
H	-0.4589170771	 1.7370487735	 0.8627230093	 0.28116
H	 0.7623927099	-0.2662203613	-0.6814104182	 0.112554
H	 0.4409893223	-0.3882425773	 1.0517535138	 0.111861
H	-2.0362617658	-0.1484863734	 0.565430776	 0.092753
H	-1.673913199	-0.1919890248	-1.1604286388	 0.108916
H	-3.4370275813	-2.3873550274	 0.6074494831	 0.105072
H	-3.2021096807	-3.1688833843	-1.0048529319	 0.090801
H	-2.0794479465	-4.5094760945	 1.4227806488	 0.076827
H	 0.0770925823	-4.7712168805	-0.0543656639	 0.107299
H	-1.2990853214	-5.0043452171	-1.1515779427	 0.097782
H	-0.8497457267	-2.8215060614	-2.1431522764	 0.098951
H	 0.528099601	-2.632629247	-1.0429209275	 0.109097
