19
gdb 96205	2.68384	1.39099	0.98123	1.0214	87.42	-0.2301	-0.0183	0.2118	1218.9939	0.158673	-385.87409	-385.865304	-385.86436	-385.907311	33.753	
C	 0.0606025708	 1.5470790141	-0.0778654826	-0.399263
C	 0.0412718546	 0.0247652571	 0.0289793274	 0.034021
O	 0.5974635164	-0.4699200818	-1.1775124062	-0.256689
C	 0.8836114528	-1.8557224422	-1.1488243934	-0.084847
C	 2.0060559217	-2.1459275327	-0.1527720489	-0.254099
C	 1.7073500206	-1.4668594264	 1.1521013246	-0.158327
C	 0.7899113536	-0.492276497	 1.2580645139	 0.109796
C	 0.4445068922	 0.0769265503	 2.5146415397	 0.250232
C	 0.1175307833	 0.571652763	 3.5641934752	-0.417624
H	 1.0913236497	 1.9070475648	-0.1420285115	 0.123826
H	-0.4728468189	 1.8546380109	-0.9808363594	 0.122934
H	-0.4177763682	 2.0006329561	 0.7924140222	 0.130568
H	-1.0085001028	-0.3120697781	 0.1125989992	 0.079788
H	-0.0167851503	-2.4298520245	-0.8752585022	 0.092322
H	 1.1655574131	-2.1333946422	-2.1681670082	 0.106958
H	 2.1103377312	-3.227778457	-0.0006157607	 0.107688
H	 2.9675565015	-1.7971537886	-0.5547148744	 0.12217
H	 2.2370968902	-1.7979048549	 2.0403583584	 0.097515
H	-0.1594021315	 1.0017896292	 4.4945596871	 0.193029
