23
gdb 97552	2.96644	0.71267	0.65965	1.7794	92.	-0.2466	0.0456	0.2922	1880.7384	0.202	-388.277454	-388.265674	-388.26473	-388.315469	42.046	
C	 0.0015436674	 1.5254170729	-0.3490015891	-0.363602
C	-0.0567945361	 0.1021609047	 0.2351111486	-0.317148
C	-1.3901053906	-0.489420295	 0.1801639905	 0.074723
C	-2.4945138954	-0.9701583571	 0.1282483544	 0.046006
C	-3.859130554	-1.5176071753	 0.0668921813	 0.153311
C	-3.8156250412	-3.0472236998	-0.0560879694	-0.395819
O	-4.5492081351	-1.2590404538	 1.3000373355	-0.448206
C	-4.6120634525	-0.8512050864	-1.1155562468	-0.175795
C	-6.0743313159	-1.2805992772	-1.2556389647	-0.399405
H	 1.0189132877	 1.9228728768	-0.2858302868	 0.114899
H	-0.3051194528	 1.5276541697	-1.3984992943	 0.127966
H	-0.6652190842	 2.1976636324	 0.1979638586	 0.125399
H	 0.6470115544	-0.5445215201	-0.3046646086	 0.130625
H	 0.2904281953	 0.1178726016	 1.2762782787	 0.1304
H	-3.2343176239	-3.4671882964	 0.767219826	 0.128715
H	-4.8283382809	-3.4541540422	-0.0064779354	 0.124942
H	-3.3552730029	-3.3452625751	-1.0014949638	 0.117281
H	-4.4020555578	-0.3331699593	 1.5215622836	 0.278511
H	-4.5594583951	 0.2341723132	-0.9638669352	 0.090703
H	-4.0575305199	-1.0559733161	-2.0386311277	 0.101479
H	-6.5790613859	-0.6745914465	-2.0141571099	 0.107969
H	-6.166376907	-2.3278293501	-1.5586101283	 0.117221
H	-6.6034973235	-1.155399211	-0.3072831273	 0.129825
