20
gdb 107207	3.86876	1.23805	1.12348	1.3219	77.71	-0.2227	0.0676	0.2903	1163.8712	0.171612	-403.114123	-403.106065	-403.10512	-403.146718	31.658	
C	-0.3036768439	 1.4763225889	 0.1012469967	-0.382828
C	 0.1542009697	 0.0273973061	-0.1151300252	-0.277585
C	 0.9095624337	-0.5278591642	 1.0664640808	 0.414466
C	 2.2825728995	 0.018879883	 1.4645769362	-0.241337
N	 3.0395397859	-1.0553195782	 2.1476153505	-0.107965
C	 2.5149372312	-1.5075694803	 3.4418278364	-0.243082
C	 2.1711413519	-2.2548811918	 2.2037938185	-0.05317
C	 0.8548067374	-1.9197839095	 1.5503602513	-0.054635
O	 0.1116124346	-0.8853803553	 2.2138745256	-0.296416
H	 0.5479299213	 2.1507882332	 0.2384448371	 0.120721
H	-0.8773625721	 1.8363387629	-0.7575753102	 0.115966
H	-0.9381879668	 1.5496062512	 0.989522526	 0.134907
H	-0.7169166212	-0.6108798547	-0.2972965172	 0.108195
H	 0.7914364505	-0.0366735205	-1.0061190423	 0.103692
H	 2.8392106887	 0.3030776345	 0.563929833	 0.109542
H	 2.2051941507	 0.9041136275	 2.1041149868	 0.118232
H	 3.2719533657	-1.8990861769	 4.116257529	 0.111264
H	 1.7129124785	-0.9449191313	 3.9085166942	 0.134278
H	 2.6255224461	-3.2125265007	 1.9658202642	 0.091014
H	 0.2620355188	-2.6973398341	 1.0758140384	 0.09474
