21
gdb 92476	2.55233	1.58903	1.58033	2.2833	76.34	-0.2455	0.0733	0.3188	1011.6917	0.185769	-424.244137	-424.236434	-424.23549	-424.276396	30.803	
C	-0.2198119562	 1.5482882292	 0.0080174047	-0.424452
C	 0.0337527411	 0.0392084955	-0.0027296764	 0.052035
C	 0.8429758171	-0.4344679296	-1.245623744	-0.254573
C	 1.945155507	-1.3849787153	-0.7633010465	 0.203629
O	 2.8901117821	-0.68511357	 0.0213214271	-0.268665
C	 2.2748770381	-0.0610422251	 1.1568691383	-0.069853
C	 0.8023553627	-0.4836199114	 1.2326617662	-0.078409
C	 0.7837129771	-2.0165446345	 1.1821645533	-0.066404
O	 1.3813700116	-2.4636301422	-0.041512755	-0.271778
H	 0.715433432	 2.118234772	 0.0090233061	 0.12141
H	-0.7826399138	 1.8496075765	-0.8817316678	 0.11835
H	-0.7988868341	 1.849781682	 0.887815961	 0.110902
H	-0.9422745819	-0.4608906887	-0.0066430485	 0.073981
H	 0.2056745711	-0.9479486091	-1.9708803845	 0.105798
H	 1.3140669422	 0.4115367052	-1.757774792	 0.103034
H	 2.5066534168	-1.8313637295	-1.5860467275	 0.08513
H	 2.8155336396	-0.3849080257	 2.0556934003	 0.102234
H	 2.3850900689	 1.0286106432	 1.0771507932	 0.096897
H	 0.3513180968	-0.1293178876	 2.1652048862	 0.068252
H	 1.3445068909	-2.4409591379	 2.0267567565	 0.096246
H	-0.2434034991	-2.4020749068	 1.2285002893	 0.096235
