21
gdb 70869	2.66493	1.56594	1.18045	1.1438	83.	-0.2303	0.0802	0.3105	1125.9693	0.180782	-387.05232	-387.043241	-387.042297	-387.085203	35.705	
C	-0.095326588	 1.4680451201	 0.0271837838	-0.504252
C	 0.0328629224	-0.0264194956	-0.0256887853	 0.303925
C	 0.0451481997	-0.8734855285	-1.3031749053	-0.349687
C	-0.2150218799	-2.0837283214	-0.3655817056	 0.393116
O	-0.9404281484	-3.1932132295	-0.7743337002	-0.481789
C	 1.1019364225	-2.209453843	 0.4475976371	-0.349699
C	 0.7028465557	-0.8734241576	 1.0843005535	 0.303928
C	 1.29706383	-0.2922507937	 2.3340190343	-0.504252
C	-0.7558211866	-1.0814438144	 0.7256505427	-0.229643
H	 0.8052340075	 1.9603775267	-0.3596990695	 0.117267
H	-0.9431812682	 1.807271711	-0.5787681873	 0.118517
H	-0.2569057172	 1.830155157	 1.0469542966	 0.11875
H	-0.8344295337	-0.6595224743	-1.9186520826	 0.09622
H	 0.9481237766	-0.8896639994	-1.927688691	 0.075484
H	-0.4265312113	-3.6619642098	-1.4417626295	 0.278619
H	 1.0345749236	-3.0222671472	 1.1776983046	 0.096217
H	 2.0465377549	-2.2782449611	-0.10795787	 0.075489
H	 2.3334403873	 0.0283713991	 2.1721429438	 0.117267
H	 0.7349273636	 0.5762767956	 2.6901448014	 0.118751
H	 1.3028715997	-1.0322582253	 3.1423913668	 0.118516
H	-1.6653399002	-1.0378424586	 1.3079033817	 0.087256
