18
gdb 73630	2.29362	2.02582	1.51511	2.2611	70.6	-0.2531	0.0211	0.2741	944.7107	0.149652	-439.112847	-439.105448	-439.104504	-439.144514	28.944	
C	-0.1291155483	 1.5333519431	 0.1373011709	-0.45786
C	 0.0429260439	 0.0294749622	 0.0268575952	 0.359469
C	-1.2652866384	-0.774990131	-0.0517088808	-0.124698
O	-0.9803466964	-2.0415969934	 0.5118393489	-0.246697
C	-0.1388638695	-1.7926000998	 1.6295058866	-0.091643
C	 0.8361761701	-0.6922942812	 1.1694772512	-0.065632
N	 2.0298414121	-1.2490964158	 0.5187739093	-0.267183
C	 1.9100714405	-0.9764505294	-0.7133267577	 0.1057
O	 0.8525444583	-0.2593285254	-1.1525728697	-0.252872
H	 0.8441357065	 2.0299911763	 0.1777056294	 0.133732
H	-0.678379627	 1.9289304802	-0.7228197018	 0.13208
H	-0.6847853803	 1.7873754682	 1.0452002697	 0.123829
H	-2.0537735323	-0.2560470944	 0.5192983514	 0.08673
H	-1.6048655195	-0.917066218	-1.0798560968	 0.123531
H	-0.7307409474	-1.4439741893	 2.4918418834	 0.087291
H	 0.3714013474	-2.7203872375	 1.8926828149	 0.12803
H	 1.1292317746	-0.0340416479	 1.991923673	 0.086084
H	 2.6108669457	-1.2622138469	-1.4903129871	 0.140109
