16
gdb 127368	2.47752	1.88815	1.0787	2.6442	77.21	-0.2111	-0.0237	0.1874	1061.7851	0.127318	-430.257258	-430.249229	-430.248284	-430.289944	29.954	
C	-0.3999986482	 1.3774002439	 0.0078819564	-0.330456
N	-0.0276863614	-0.0320410991	-0.0088269499	-0.130751
C	 0.0165560804	-0.7394772477	-1.1865367803	 0.116051
N	 0.3306455288	-1.9769394309	-1.3105114289	-0.255238
N	 0.6453176817	-2.6212570288	-0.1391148783	-0.333024
C	 0.657874974	-2.0878521596	 1.1271463197	 0.343728
N	 0.9507516866	-2.689436049	 2.2175485941	-0.546005
C	 0.2815400446	-0.6349995451	 1.2073562221	 0.370109
N	 0.2353174804	 0.0363123056	 2.2865059309	-0.537001
H	 0.4114811346	 1.9761808282	 0.4290737336	 0.157563
H	-0.6106344175	 1.7003412282	-1.0125475478	 0.128678
H	-1.2817501072	 1.5264043239	 0.6361765309	 0.157556
H	-0.2391903429	-0.1912085761	-2.0846057699	 0.13938
H	 0.8878440087	-3.5910592533	-0.2672934204	 0.261492
H	 1.1927828631	-3.6692103113	 2.0671819107	 0.209133
H	 0.4949750443	-0.588253039	 3.0523379471	 0.248783
