19
gdb 52279	3.96951	0.75146	0.66219	4.0455	77.6	-0.2445	-0.0298	0.2147	1655.286	0.156938	-423.046991	-423.037524	-423.03658	-423.082917	33.204	
O	 0.1920157182	-0.214459897	 0.1430074176	-0.238065
C	 0.1351476916	 0.9824478803	 0.0264477405	 0.157064
C	 1.3258648986	 1.9093943223	-0.0299295494	-0.277764
C	 1.3218285496	 2.7687114139	-1.3093103532	-0.227978
C	 2.4265201376	 3.8223885992	-1.3020012377	-0.08329
C	 2.5100471772	 4.8824957596	-2.4483415865	-0.263054
C	 2.6855675354	 6.0231013288	-1.3993885439	-0.33012
C	 2.2824136912	 5.0048092182	-0.3231411292	 0.393899
O	 1.8761425739	 5.0948925689	 0.8008636921	-0.297943
H	-0.8497785818	 1.5019376557	-0.0542702591	 0.070305
H	 1.2741600542	 2.5817353586	 0.8368522483	 0.152476
H	 2.2391629309	 1.3120814429	 0.0492138753	 0.11758
H	 1.4359130418	 2.1261147884	-2.1908215439	 0.116407
H	 0.349389473	 3.2686689713	-1.4113623983	 0.106087
H	 3.403036291	 3.3446288643	-1.1477153039	 0.106255
H	 3.3225237338	 4.7527791059	-3.1637461511	 0.113389
H	 1.567532173	 4.9667429346	-2.9951292164	 0.115973
H	 3.7253241246	 6.3442536316	-1.2779846065	 0.136077
H	 2.0559866362	 6.9120163325	-1.4829743649	 0.132698
