19
gdb 92639	3.13463	1.47975	1.12125	1.2539	78.33	-0.2219	0.0226	0.2445	1115.9348	0.161069	-419.186791	-419.178611	-419.177667	-419.219703	30.582	
C	 0.0394941413	 1.1505411883	-0.5137204723	-0.332785
N	 0.0895683574	 0.0844157117	 0.4622855777	-0.126425
C	-0.9839737483	-0.9158390721	 0.7086194133	-0.218511
C	 0.1464407585	-1.8915871126	 1.1895413688	 0.030052
O	 0.258724898	-3.1997591282	 0.6929118628	-0.279838
C	 1.4061930395	-3.4230115902	-0.1452936025	-0.068496
C	 2.5850252263	-2.4822745563	 0.1530291262	-0.180288
N	 2.1819230421	-1.0766858933	-0.0504328793	-0.343791
C	 1.0611725483	-0.9005250858	 0.5131283542	 0.369911
H	 1.0056407171	 1.6598796651	-0.5294735097	 0.152829
H	-0.168591132	 0.7773909164	-1.528300177	 0.116735
H	-0.7337616824	 1.8730400077	-0.2377245	 0.126912
H	-1.741132383	-0.6060226197	 1.4337591176	 0.11096
H	-1.4571843139	-1.2717130606	-0.2149678044	 0.114819
H	 0.218224273	-1.904956061	 2.282816651	 0.104139
H	 1.6892602594	-4.4685062787	 0.0124980951	 0.108505
H	 1.1198242081	-3.2976732142	-1.1997754377	 0.099965
H	 2.9543221841	-2.6549148062	 1.174451727	 0.106603
H	 3.4060528166	-2.7186024304	-0.5307218709	 0.108704
