17
gdb 65647	3.14959	1.39144	1.21568	2.7215	68.43	-0.2515	-0.0324	0.2191	1046.2365	0.134986	-458.931883	-458.923942	-458.922998	-458.964726	30.041	
O	 0.1007643702	 1.3252479582	 0.6637619565	-0.482124
C	 0.1505797835	 0.0200639345	 0.1698529351	 0.301447
C	 0.396816097	-1.1584967439	 1.1707970605	-0.307931
C	-1.0200111726	-1.7198438934	 0.8996816392	-0.064103
C	-2.1357495783	-1.0354865214	 1.7098939638	-0.090792
O	-2.2479712778	 0.0440291686	 0.7320629885	-0.302996
C	-1.2808938887	-0.5873409438	-0.1256340464	 0.039422
C	 1.0377679716	 0.0010282125	-1.0548791759	 0.120958
O	 1.6088637526	-0.9761909974	-1.4686587406	-0.25802
H	-0.8034876529	 1.4430141653	 0.997237028	 0.293128
H	 1.193061361	-1.8138752547	 0.812269911	 0.134487
H	 0.6047424592	-0.8441670192	 2.1960404172	 0.107665
H	-1.1278845569	-2.7797863697	 0.6804788201	 0.091867
H	-3.0777749161	-1.5910517589	 1.7678178921	 0.119222
H	-1.867772672	-0.663752673	 2.7051866925	 0.114222
H	-1.6241839356	-0.6869225505	-1.1572428244	 0.089976
H	 1.0882240557	 0.9853741868	-1.5690078573	 0.093571
