25
gdb 118049	2.32051	0.78692	0.61986	2.2105	85.84	-0.2611	0.0787	0.3399	1852.1505	0.22635	-426.618801	-426.606875	-426.605931	-426.656981	42.645	
C	-0.265518173	 1.4736923045	-0.0561661773	-0.414554
C	 0.0299389581	-0.0336443072	-0.0320035029	 0.045528
C	 0.8669010641	-0.3951109693	-1.2652784907	-0.082383
O	 0.0861527943	-0.1411538114	-2.4266394598	-0.421994
C	 0.7213863877	-0.5239194924	 1.2699064987	 0.017766
C	 0.1548680324	 0.1539547316	 2.5291348041	-0.409233
C	 0.6290984983	-2.0589375114	 1.4051875588	-0.172273
C	 1.6386605733	-2.6720743735	 2.3695889987	-0.082353
O	 1.4570007779	-4.0814098017	 2.3402702197	-0.421472
H	 0.6434066192	 2.056358055	 0.1404439505	 0.103389
H	-0.6383563512	 1.7561422159	-1.0430815591	 0.132795
H	-1.0147378728	 1.7597704177	 0.6856361272	 0.110857
H	-0.9252407293	-0.5690416166	-0.1306868016	 0.079733
H	 1.7856126884	 0.2164256643	-1.2650970322	 0.079386
H	 1.1768388545	-1.4488949731	-1.2344576526	 0.086475
H	 0.6283134979	-0.3258280858	-3.1985969486	 0.285402
H	 1.7858427052	-0.2481446986	 1.1971210387	 0.061051
H	 0.6228809222	-0.2421006497	 3.4350431271	 0.10996
H	 0.3205689267	 1.2337025252	 2.5244452855	 0.116964
H	-0.924543683	-0.0201394214	 2.6140096142	 0.11532
H	-0.3809968416	-2.3358388593	 1.7331812014	 0.10241
H	 0.7790740997	-2.547992042	 0.4375878178	 0.106016
H	 2.6602228842	-2.3971820421	 2.0567319137	 0.081023
H	 1.4955601345	-2.2808641536	 3.3883231744	 0.086098
H	 2.0655406723	-4.4756349849	 2.9717519442	 0.284088
