18
gdb 81633	5.24919	0.82337	0.80503	3.5837	73.82	-0.2329	-0.0226	0.2103	1422.4746	0.145833	-439.000713	-438.992196	-438.991252	-439.034644	31.675	
O	 0.0170325962	 1.4251528002	-0.3920887809	-0.430824
C	-0.1783841928	 0.0563310569	-0.1956311107	 0.160296
C	-0.2470640907	-0.5375031753	 1.2546407778	-0.069468
C	-1.5533709076	 0.2783243157	 1.4651715004	-0.250761
C	-1.6374891691	-0.3892218505	 0.060101577	-0.0527
N	-1.0107653122	-1.6682242326	 0.5993176192	-0.130989
C	-1.8211469214	-2.5449455851	 1.4317525214	-0.245866
C	-2.5070963639	-3.5861263217	 0.5592238573	 0.160174
O	-3.5388854735	-4.1353350989	 0.8437522272	-0.239649
H	 0.9633973297	 1.5920046579	-0.4333467752	 0.291848
H	 0.3655919868	-0.5735526393	-0.9063621811	 0.083343
H	 0.5673643213	-0.7334274897	 1.9554228341	 0.078769
H	-2.2446657208	-0.0747776641	 2.2295608047	 0.103529
H	-1.4583091538	 1.3638621658	 1.4825478831	 0.120571
H	-2.4673680127	-0.4072054443	-0.6480590041	 0.090713
H	-1.1393741212	-3.099907573	 2.0940690131	 0.130385
H	-2.5822555976	-2.0800797225	 2.0739731972	 0.115518
H	-1.9527169766	-3.8120008496	-0.3789801603	 0.08511
