22
gdb 107615	2.41598	1.46815	1.08198	2.4559	81.56	-0.2235	0.0646	0.2881	1203.7843	0.195486	-404.34179	-404.332662	-404.331718	-404.375239	35.233	
C	-0.3603730876	 1.4293093184	-0.4686687705	-0.40842
C	-0.1096730263	-0.0561409467	-0.1990694646	-0.025264
C	 0.8291053246	-0.7184559364	-1.2423072566	-0.224645
C	 1.5229433367	-1.8913256341	-0.5117566065	-0.222905
C	 1.556292781	-1.4451207135	 0.9373647397	-0.070121
N	 2.0204468311	-0.0425838185	 1.1087837397	-0.389851
C	 0.5751915133	-0.3531331953	 1.1342312904	 0.349782
C	-0.194576658	-0.1610293995	 2.4160172125	-0.199074
O	 0.6270152325	-0.5646611102	 3.50447842	-0.42271
H	 0.5784184507	 1.9870847859	-0.3925936457	 0.132455
H	-0.7687253394	 1.5832029264	-1.4730191554	 0.109333
H	-1.0719972481	 1.860872195	 0.2438413605	 0.102878
H	-1.072681027	-0.588205855	-0.1947460624	 0.061729
H	 0.288470155	-1.0367419555	-2.1379386051	 0.088066
H	 1.5803418278	 0.0120110961	-1.5534516098	 0.117102
H	 0.9317188752	-2.8124562995	-0.58760871	 0.092843
H	 2.5169820722	-2.1047844498	-0.9180109906	 0.099736
H	 1.7732134097	-2.1506090166	 1.731932531	 0.092306
H	 2.3185990208	 0.0590374757	 2.0775060003	 0.234987
H	-0.4854409351	 0.8967741852	 2.5200778251	 0.09461
H	-1.1234799485	-0.7533441367	 2.3766996843	 0.093226
H	 0.1967839095	-0.3042033055	 4.3231651336	 0.293937
