24
gdb 60402	3.32924	0.7144	0.68276	0.8563	86.54	-0.2203	0.0671	0.2874	1793.1824	0.215241	-405.518626	-405.50774	-405.506795	-405.555363	39.865	
C	 0.2390856867	 1.5313408903	-0.1493232622	-0.403597
C	-0.0972759185	 0.0555246736	 0.0647950715	 0.136216
O	 0.0119377605	-0.6793585419	-1.154944651	-0.42892
C	 0.7421749157	-0.5812558807	 1.1796827031	-0.189617
C	 0.3651294196	-2.042903834	 1.4573876869	-0.219175
C	 1.202901698	-2.6775403122	 2.5485317266	 0.023388
C	 1.3890019246	-4.1550218858	 2.6274529403	-0.264748
N	 2.5208871873	-3.2854003323	 2.3277862558	-0.078999
C	 3.0830915352	-3.3581662281	 0.9885811096	-0.313487
H	 1.298509997	 1.6546144344	-0.408331897	 0.105749
H	-0.3618349619	 1.9438368057	-0.9642879692	 0.123749
H	 0.0494160761	 2.1176153185	 0.7555528288	 0.116427
H	-1.1584895819	-0.0321388504	 0.3322765395	 0.086966
H	 0.9162125601	-0.5775620378	-1.4731620331	 0.274928
H	 1.8047696852	-0.514660179	 0.9038922327	 0.089611
H	 0.6297426375	 0.0126527038	 2.0963608116	 0.095345
H	-0.6877321521	-2.0862974103	 1.7689219629	 0.098282
H	 0.4235652495	-2.6117247528	 0.5259597979	 0.112851
H	 1.1637010516	-2.1318075997	 3.4924265221	 0.082547
H	 1.4164500556	-4.6707953031	 3.5843636229	 0.109627
H	 0.9712304158	-4.7429470671	 1.80940183	 0.101962
H	 2.3541631862	-3.5623485481	 0.1887968166	 0.101758
H	 3.5961735334	-2.4188182635	 0.7556430348	 0.116135
H	 3.8287875288	-4.1598422395	 0.9691484289	 0.123001
