18
gdb 28327	4.73782	1.20781	0.98173	2.6268	81.06	-0.1538	0.0659	0.2198	1187.4036	0.151565	-398.15133	-398.14349	-398.142546	-398.18337	30.765	
N	-0.0029912456	 1.395130388	 0.0848776276	-0.605008
C	 0.0001281413	-0.0133310366	 0.0281336026	 0.289723
C	-1.0965415118	-0.8442170712	-0.0608333783	-0.245133
N	-0.6040341701	-2.1474631445	-0.0865928759	-0.007372
C	-1.1351052587	-3.4738383734	 0.1494692369	-0.17298
C	 0.1267218454	-4.326566745	-0.1229280666	-0.174609
N	 1.2340349225	-3.4287132983	 0.2717499871	-0.403526
C	 0.7488840672	-2.1249751959	 0.066033048	 0.410247
C	 1.1852999342	-0.8226407261	 0.1219823919	-0.425176
H	 0.7792798272	 1.7961647519	-0.4177983268	 0.236002
H	-0.8583175388	 1.7915650518	-0.2840329879	 0.233544
H	-2.1436946137	-0.6291742109	-0.1921633303	 0.09498
H	-1.4838799426	-3.5895791063	 1.1856618049	 0.11647
H	-1.9597800029	-3.722066484	-0.5245229375	 0.116414
H	 0.1414689384	-5.2496844638	 0.4613777033	 0.114277
H	 0.1694390048	-4.5862427868	-1.1905476132	 0.104935
H	 2.1074268636	-3.6308692486	-0.1972909457	 0.237703
H	 2.1988635496	-0.4721668304	 0.2349695198	 0.07951
