22
gdb 6989	2.37539	2.17839	1.5661	1.3973	77.16	-0.2393	0.0737	0.313	963.8164	0.199792	-350.22606	-350.217038	-350.216093	-350.259154	34.259	
C	-0.292215618	 1.4613648043	-0.0551810368	-0.413951
C	 0.009375726	-0.0257910327	 0.0244384253	 0.137888
O	 0.8612477286	-0.3736730196	-1.0633131643	-0.274434
C	 1.4801796129	-1.6274151512	-0.7769557698	-0.077288
C	 1.2456755728	-1.9102129383	 0.7236133932	-0.269379
C	 0.7413418353	-0.5573931271	 1.284748938	 0.286655
C	 1.9318566682	 0.3381640957	 1.6674093103	-0.428476
C	-0.2002956421	-0.7332866112	 2.4789884925	-0.445804
H	 0.6253481771	 2.0538052076	-0.0222503968	 0.124145
H	-0.8068009695	 1.6877939919	-0.9931096764	 0.124479
H	-0.9415283224	 1.7691938892	 0.7706600917	 0.113256
H	-0.9437422437	-0.5807547519	-0.0620039241	 0.050438
H	 1.0486765758	-2.4165378416	-1.4082273522	 0.092216
H	 2.5431180787	-1.5432009393	-1.0302005105	 0.101491
H	 0.4761180758	-2.678153475	 0.8527616065	 0.097137
H	 2.1476823681	-2.2634242635	 1.2307461049	 0.098632
H	 2.5817971758	 0.5246680192	 0.8073749699	 0.125663
H	 1.5998433362	 1.3068222008	 2.054091837	 0.112458
H	 2.5320543825	-0.1393674504	 2.449298794	 0.107221
H	 0.3180189635	-1.2024115773	 3.3221952247	 0.113569
H	-0.5851351561	 0.2314143407	 2.8282815887	 0.113495
H	-1.0578788157	-1.3643231204	 2.2211316042	 0.110589
