23
gdb 60140	3.41419	0.90812	0.82795	1.5192	85.74	-0.2321	0.0756	0.3076	1516.7753	0.204944	-388.250291	-388.240717	-388.239772	-388.28572	36.027	
C	-0.1512952698	 1.5275259389	-0.0065511138	-0.391097
C	-0.1122259546	-0.0063221318	 0.0175317444	 0.055605
C	 0.9538503291	-0.5006874544	 1.0056413482	-0.384269
C	-1.5137282677	-0.5720453034	 0.3263550068	-0.217619
C	-1.6257877111	-2.073096842	 0.1610894942	-0.036185
C	-2.9270888697	-2.8454280166	-0.0023645483	-0.166745
C	-3.8704427706	-2.1061406473	-0.9448784058	-0.092597
O	-2.8254900056	-1.9566761112	-1.9435931476	-0.284371
C	-1.9357474324	-2.7445659265	-1.1432963127	 0.087977
H	 0.8287952926	 1.9464401504	-0.2581163105	 0.107216
H	-0.8736761408	 1.8964718769	-0.7420783695	 0.112654
H	-0.4398714999	 1.9275763837	 0.9733245249	 0.108857
H	 0.1667067226	-0.3536202293	-0.987063223	 0.079114
H	 1.0560065634	-1.5900770816	 0.9956097024	 0.109844
H	 1.9355109825	-0.0789235592	 0.7653798073	 0.109962
H	 0.7063170453	-0.1977926055	 2.0306489799	 0.109246
H	-1.7975518552	-0.2919766443	 1.3507327803	 0.087454
H	-2.2325266504	-0.0898547453	-0.3433848524	 0.108144
H	-0.9195316246	-2.65565739	 0.7499150109	 0.088955
H	-3.1969583334	-3.6846011669	 0.6247620016	 0.095201
H	-4.6759377646	-2.7404209692	-1.3319460067	 0.108748
H	-4.2835233504	-1.1436194835	-0.6209220567	 0.105119
H	-1.3190411248	-3.4758007718	-1.6543187039	 0.098788
