19
gdb 37394	2.83221	2.18093	1.76648	2.1026	77.02	-0.2117	0.0705	0.2821	853.0522	0.164285	-381.987648	-381.981714	-381.98077	-382.017453	26.534	
C	-0.0714936402	 1.5586558698	 0.0272225187	-0.234492
C	 1.4744162904	 1.4749778559	 0.0287532313	-0.013602
C	 1.9819711265	 1.3249155112	 1.4627155085	-0.050785
N	 0.9460712	 1.4057088466	 2.5344885204	-0.346567
C	 1.4639127637	 0.099534668	 2.1181763261	-0.01109
C	 0.7044609759	-0.7718113442	 1.133241846	-0.082521
C	 1.7866659158	-1.0744067641	 0.0540105326	-0.159344
N	 1.3454242094	 0.1244590067	-0.724263154	-0.147709
C	-0.0015669036	 0.0310312228	-0.0253990499	 0.014854
H	-0.5569160977	 2.0599139637	 0.8590494969	 0.129299
H	-0.4419633282	 1.9278241511	-0.9320878758	 0.101997
H	 2.0434758852	 2.2101379621	-0.5425039854	 0.067991
H	 2.97755143	 1.6888229046	 1.6946296488	 0.084457
H	 1.3932143574	 1.6732216037	 3.4079831681	 0.229701
H	 2.1020241803	-0.4460232191	 2.8111084996	 0.086635
H	 0.1525920185	-1.591762135	 1.5991153963	 0.063692
H	 2.8328435293	-1.1011759999	 0.3762515975	 0.094298
H	 1.5737132632	-1.9605793193	-0.5519592479	 0.105146
H	-0.7873664058	-0.5399526747	-0.5297398278	 0.068041
