16
gdb 47211	2.09178	1.77014	1.28273	3.2348	76.92	-0.2552	-0.0075	0.2477	1036.9191	0.124198	-400.720808	-400.712568	-400.711624	-400.754191	30.633	
N	-0.1876981427	 1.3956051141	 0.086820059	-0.512434
C	-0.057105659	 0.1515963615	-0.0980362265	 0.398105
O	 1.1433960346	-0.4194555907	-0.3679022347	-0.251669
C	 1.2398023643	-1.8033295562	-0.7381794001	-0.120509
C	 0.0047568385	-2.3380301866	-1.399041032	-0.07258
C	-1.1862299412	-1.8492613018	-1.0786750959	-0.073525
C	-1.2755554116	-0.7653962919	-0.0193573932	-0.282333
C	-1.3863169919	-1.3622422749	 1.315891014	 0.34495
C	-1.4693234161	-1.8708688017	 2.4014512334	-0.486917
H	 0.717854046	 1.8615914826	-0.0010401261	 0.220376
H	 2.1046861109	-1.8609486169	-1.4055458346	 0.129776
H	 1.4787406658	-2.3892252196	 0.1615267926	 0.1364
H	 0.128162893	-3.1390852565	-2.1205369888	 0.110928
H	-2.1077982871	-2.2125545012	-1.5189862891	 0.115039
H	-2.1414237069	-0.1200373242	-0.1888206809	 0.142363
H	-1.5495775666	-2.306068036	 3.3667911531	 0.20203
