20
gdb 96944	3.96254	1.04194	1.00245	2.2995	83.79	-0.2428	0.0239	0.2667	1307.2074	0.168706	-403.124	-403.114478	-403.113533	-403.158186	35.157	
C	-0.1402368378	 1.3910477233	 0.0149031102	-0.340191
N	-0.0807705374	-0.0570078711	-0.1238824667	-0.346262
C	-1.1269369073	-0.726082982	 0.0092611999	 0.478672
O	-2.4458667292	-0.3034707748	 0.268237817	-0.285319
C	-2.911187933	-1.6611590146	 0.0825527837	 0.041116
C	-1.4930859655	-2.1661510305	-0.1000866866	-0.282275
C	-2.3488279188	-2.5783269714	 1.1194568889	 0.284078
C	-2.0311956464	-2.1073538935	 2.5230671544	-0.458808
C	-2.8476615772	-4.0101408683	 1.024409415	-0.456414
H	 0.4803084809	 1.6950651261	 0.8654524417	 0.127564
H	 0.2955760882	 1.8527985945	-0.877624474	 0.126839
H	-1.1524168798	 1.7860229199	 0.1597499907	 0.127333
H	-3.8099475584	-1.7972285945	-0.5053784558	 0.116409
H	-1.0656455071	-2.8851835596	-0.7843025731	 0.113671
H	-1.7667131326	-1.0491381164	 2.5445678521	 0.1415
H	-2.8996456528	-2.250918549	 3.1759010592	 0.116949
H	-1.1982454211	-2.6807293708	 2.9431853841	 0.122139
H	-2.0888817483	-4.7109563747	 1.3885901461	 0.12894
H	-3.7477422805	-4.1441934493	 1.634006183	 0.124996
H	-3.0926663259	-4.2887595433	-0.00566391	 0.119066
