21
gdb 67259	2.5958	2.1254	1.68632	0.1347	85.05	-0.2517	0.1014	0.3532	925.318	0.185524	-349.918157	-349.911414	-349.91047	-349.948677	29.336	
C	-0.083121147	 1.5038960513	 0.0031757802	-0.525121
C	-0.0593148901	-0.0001370493	 0.046275512	 0.382473
C	 0.8451373116	-0.8306439569	-0.9681347204	-0.075013
C	 1.918863768	-0.9780980661	 0.1393382436	-0.253291
C	 0.7195347421	-0.8765852011	 1.0961970006	-0.094055
C	-0.3110258016	-1.9582659879	 0.6589983967	-0.038307
C	-0.0096668767	-2.1063464161	-0.8911983509	-0.031301
C	-1.4608898944	-1.6565169035	-1.1971513698	-0.251409
C	-1.3356780495	-0.8982859091	 0.1348099332	-0.099403
H	 0.9297954707	 1.9228567949	-0.0095429944	 0.115893
H	-0.5994093411	 1.8647708531	-0.8948676714	 0.115736
H	-0.6027631384	 1.9205540477	 0.8735456464	 0.114279
H	 1.0923218275	-0.449247055	-1.9606219807	 0.055172
H	 2.5277070161	-1.8888664252	 0.1447014662	 0.085064
H	 2.5725800153	-0.1032927724	 0.2063132728	 0.094283
H	 0.8078463016	-0.6287961725	 2.1545552851	 0.055622
H	-0.575292084	-2.8371246985	 1.244333864	 0.059378
H	 0.4103140895	-3.0181138451	-1.3181949471	 0.057527
H	-1.6411048548	-1.0911756097	-2.1186364372	 0.084372
H	-2.1742244992	-2.4837729847	-1.1295654335	 0.093372
H	-2.1888276255	-0.5309748138	 0.7065664046	 0.05473
