17
gdb 15117	8.16835	0.71722	0.68763	5.0337	69.63	-0.2764	0.0337	0.3101	1563.9889	0.141521	-363.858509	-363.849971	-363.849026	-363.892779	29.51	
N	 0.0400198757	-1.1258759289	 0.3946218143	-0.302368
C	 0.0130095595	 0.0152444231	 0.2147489314	 0.257317
C	 0.0007148082	 1.4582882207	-0.0150525329	-0.343133
C	 1.4151270622	 2.0698816747	-0.0289487682	-0.17396
C	 1.3830353628	 3.5811370308	-0.2890585349	-0.228879
C	 2.7671610874	 4.1835117251	-0.2814353443	 0.093685
C	 3.0441302582	 5.5148884455	 0.2697164085	-0.179975
O	 3.3831602041	 4.3344511775	 1.0003237522	-0.233335
H	-0.5073477137	 1.6522593075	-0.9673274536	 0.15059
H	-0.6082763975	 1.9289595687	 0.7657894416	 0.153809
H	 1.9052766557	 1.8769070576	 0.9303316953	 0.141805
H	 2.0148402138	 1.5685485349	-0.7969162272	 0.12154
H	 0.9094132337	 3.7855167293	-1.258970795	 0.105526
H	 0.7761956532	 4.0784525095	 0.477092209	 0.108328
H	 3.4440502747	 3.8045341038	-1.0503223291	 0.095429
H	 3.8876278095	 6.0932323199	-0.1043032841	 0.119046
H	 2.2269629425	 6.1030028405	 0.685917507	 0.114575
