11
gdb 42386	3.68882	0.96015	0.8409	2.5412	66.62	-0.3074	-0.0886	0.2188	1288.3292	0.062841	-451.527489	-451.518858	-451.517914	-451.562355	29.078	
N	 0.0696641477	 1.3487449028	-0.750224283	-0.433852
C	-0.0113437549	 0.1725130989	-0.3126708955	 0.325908
O	-1.1935511867	-0.5209523907	-0.2782674821	-0.239842
C	-2.3223478442	 0.0660331717	 0.2825484268	 0.320786
O	-2.3097974526	 1.0495319922	 0.9562328768	-0.291337
C	-3.4753855702	-0.7285267709	-0.0430889439	 0.238913
C	-4.4705159583	-1.356022708	-0.284945115	-0.363001
C	 1.0928946095	-0.6468523089	 0.1427102716	 0.256365
N	 2.0092219624	-1.2599301476	 0.490397425	-0.308684
H	 1.0291005406	 1.6922623118	-0.7327842433	 0.266168
H	-5.3522512733	-1.9102779013	-0.5005054574	 0.228577
