21
gdb 41806	2.29649	1.97274	1.5135	1.6075	81.84	-0.2314	0.0146	0.246	988.022	0.186701	-387.106064	-387.098807	-387.097863	-387.137339	30.103	
C	-0.0082109871	 1.5978979138	-0.1058832942	-0.079418
O	 1.3613774927	 1.9760124818	-0.2262983293	-0.277045
C	 2.1585699923	 0.8390879589	-0.6206027462	 0.069373
C	 1.136900463	-0.2684993418	-0.9453332791	-0.242061
C	-0.0108302593	 0.0702551609	 0.0227389498	-0.011017
C	 0.2232609314	-0.4184523727	 1.4686960313	-0.209702
C	 1.3354700119	 0.2772246518	 2.2839821371	-0.247418
C	 2.7427538774	 0.1829213135	 1.7377884396	-0.055516
C	 3.1122991466	 0.4358755154	 0.4827453923	-0.048974
H	-0.4338764661	 2.1121226032	 0.7636921224	 0.098842
H	-0.5711106549	 1.9158782971	-0.9972513475	 0.086373
H	 2.7311573298	 1.1313803638	-1.5078518118	 0.071156
H	 0.7909587906	-0.173798454	-1.9804791145	 0.096616
H	 1.5477898172	-1.2707608161	-0.8095437358	 0.102855
H	-0.9577289943	-0.3493099094	-0.3316286145	 0.068149
H	-0.7153868231	-0.2942683564	 2.0240072844	 0.092999
H	 0.4230999283	-1.4968442192	 1.4437188895	 0.096534
H	 1.0811629705	 1.33806963	 2.4110726502	 0.127058
H	 1.3185028952	-0.1520766303	 3.2915725493	 0.09438
H	 3.5145533015	-0.0864960487	 2.455514406	 0.086193
H	 4.1603969065	 0.3449592685	 0.2082887709	 0.080625
