23
gdb 92013	2.67933	1.55333	1.17503	0.3056	87.97	-0.2382	0.0778	0.3159	1151.1646	0.208724	-351.147537	-351.139545	-351.138601	-351.179454	33.442	
C	 0.0390468255	 1.5523828839	 0.0205290309	-0.391653
C	 0.0217436913	 0.0186995985	 0.0060943589	 0.025131
C	 0.6462670724	-0.5291923437	-1.2957931246	-0.242263
C	 0.7044319819	-2.0526067452	-1.3385152469	-0.029969
C	 2.0165286337	-2.7902770387	-1.2093665516	-0.308611
C	 1.0486933818	-2.7745804027	-0.0526332337	-0.010901
C	 1.2448774408	-1.9626494934	 1.2016123759	-0.048122
C	 2.1812626173	-0.7797220765	 1.2962977471	-0.310551
C	 0.6883191382	-0.5544601738	 1.2502093462	-0.002148
H	 1.0675144281	 1.9306739789	 0.0084232315	 0.113421
H	-0.4804074356	 1.9630229935	-0.852399722	 0.105298
H	-0.4488625414	 1.9480206819	 0.9176193576	 0.107273
H	-1.028985356	-0.3084945701	 0.0268632359	 0.067782
H	 0.0623307171	-0.1601173676	-2.1456583848	 0.095296
H	 1.6480024289	-0.0993330829	-1.4209128616	 0.096501
H	-0.0497267522	-2.5222833901	-1.9625582495	 0.078711
H	 2.1439278307	-3.7189310757	-1.7554925615	 0.104528
H	 2.9227252385	-2.1983354956	-1.1271127259	 0.107639
H	 0.5174455982	-3.7050870789	 0.1241298643	 0.077847
H	 1.1532146251	-2.5454969305	 2.1129614893	 0.07835
H	 2.6962564937	-0.6248109629	 2.2382654004	 0.104676
H	 2.7764337995	-0.5101389461	 0.4312672493	 0.108635
H	 0.2204559226	-0.2458209925	 2.1817635748	 0.073129
