16
gdb 69214	2.71974	1.68676	1.20258	2.2372	71.71	-0.2651	-0.0178	0.2473	1020.5447	0.125596	-434.103461	-434.095686	-434.094742	-434.135603	29.748	
C	-0.0431704496	 1.5319355839	 0.018858385	-0.470785
C	-0.0033976941	 0.0272404977	 0.0192237008	 0.258292
C	 0.6515423224	-0.7530628829	-1.068059249	-0.281829
N	 1.2812492812	-0.6709957728	 0.2725597757	-0.186968
C	 0.970330611	-1.8339162327	 1.0567410684	 0.416158
O	 1.7456770609	-2.6778114903	 1.4078175815	-0.34516
N	-0.3938699114	-1.8020767396	 1.3464619447	-0.378587
C	-1.0598315967	-0.7102460033	 0.7952320234	 0.349455
N	-2.2618795414	-0.3254851229	 0.9168045044	-0.541881
H	 0.7989893563	 1.9384982552	-0.5455386022	 0.129413
H	-0.9781804297	 1.8734954521	-0.432429618	 0.151052
H	 0.0001756511	 1.9204499827	 1.0401721148	 0.136218
H	 0.2255450941	-1.7058514749	-1.3699493417	 0.139567
H	 1.1871673156	-0.2178417418	-1.8455530496	 0.139946
H	-0.8304365067	-2.5308902523	 1.8898060272	 0.267299
H	-2.808544473	-0.9460950081	 1.5152482446	 0.217809
