17
gdb 28895	2.33727	1.81901	1.0312	3.0151	79.44	-0.2107	0.004	0.2147	1111.9843	0.137856	-418.083663	-418.075428	-418.074483	-418.116058	32.052	
C	 0.1111604042	 1.5320974218	-0.0383569246	-0.553538
C	 0.0507602508	 0.0252646241	-0.0349810466	 0.091974
C	-0.029516776	-0.7274723995	-1.208874486	 0.33932
O	-0.1151966243	-0.1640883213	-2.4412632474	-0.431799
C	-0.0106215724	-2.1244175642	-1.1507745243	-0.222362
C	 0.074531187	-2.7132202578	 0.0969243819	-0.005219
N	 0.1173012173	-2.0357586845	 1.2479405181	-0.356618
C	 0.1013022311	-0.70134817	 1.1734495718	 0.309459
N	 0.1968170024	-0.0333274031	 2.3900350267	-0.56597
H	 0.7585516979	 1.8880481601	 0.7690007341	 0.149047
H	 0.539623532	 1.9312672254	-0.9656659307	 0.117201
H	-0.8718324213	 2.0045898596	 0.0941405324	 0.131504
H	-0.1778427914	 0.7924784282	-2.3547576116	 0.296248
H	-0.0654464828	-2.7061217636	-2.061822805	 0.099119
H	 0.0980252819	-3.7970177626	 0.1848822934	 0.10316
H	 0.0519375574	-0.6609795649	 3.1687732058	 0.251892
H	-0.3285856038	 0.8236320424	 2.4738375921	 0.246582
