19
gdb 92666	2.52176	1.74115	1.43916	2.706	70.43	-0.2489	0.0711	0.32	982.5075	0.161258	-460.147081	-460.139491	-460.138546	-460.179017	30.163	
O	 0.2417545797	 1.3707563058	-0.2245196314	-0.435062
C	 0.1015231895	-0.0105236907	-0.0018763293	 0.128457
C	 0.2097628632	-0.4895989594	 1.4797226742	-0.261019
C	-1.3294925884	-0.5647040869	 1.545471877	 0.083707
O	-1.8132961953	 0.6609023269	 2.0989230117	-0.258743
C	-2.9833258344	 1.114144605	 1.4720476349	 0.006485
O	-2.7496390985	 1.4551158906	 0.1312932477	-0.238877
C	-2.4724543422	 0.2882873387	-0.64774641	-0.122031
C	-1.3695467699	-0.5486234274	-0.0142644078	-0.070089
H	-0.4610729655	 1.8241293037	 0.2582409105	 0.289478
H	 0.7835869978	-0.4957726772	-0.7047737428	 0.083045
H	 0.6799919598	-1.4730259606	 1.5663370072	 0.10058
H	 0.6729904139	 0.205286859	 2.1825646857	 0.116295
H	-1.7969377818	-1.4137539181	 2.0601929242	 0.068902
H	-3.7821779644	 0.3520113237	 1.5354783637	 0.080595
H	-3.2888855711	 2.0251086102	 1.9901568797	 0.12098
H	-3.3955932371	-0.3046993533	-0.7468856247	 0.097162
H	-2.1809884945	 0.644003766	-1.639316669	 0.127983
H	-1.3968077807	-1.5694634761	-0.4073832216	 0.08215
