15
gdb 46497	4.22868	1.22235	1.04459	5.0021	69.76	-0.2715	-0.0609	0.2106	1102.2581	0.113081	-457.778506	-457.771211	-457.770267	-457.81052	27.623	
O	-0.0299993104	 0.0585071134	 0.4485832455	-0.331357
C	-0.0218823501	 1.1925595196	 0.0471126503	 0.416686
O	-1.1996169993	 1.8319011961	-0.1858766724	-0.237601
C	-1.2019365973	 3.047480145	-0.941098871	-0.155014
C	-0.0665927276	 3.9831756429	-0.5985869043	 0.356335
C	-0.1188995832	 5.3764945917	-1.0690458827	-0.233138
O	-0.3469332029	 5.0748840454	 0.3028223646	-0.26434
C	 1.2169877672	 3.2902326869	-0.369494263	-0.109237
C	 1.2243834294	 1.9766798759	-0.128390216	-0.211119
H	-1.150325885	 2.7944312269	-2.0087296802	 0.12391
H	-2.1612327769	 3.5280590143	-0.7392417174	 0.139872
H	 0.8077855872	 5.9035685299	-1.2932207981	 0.124478
H	-0.9906318328	 5.7152188296	-1.6290443951	 0.1241
H	 2.1301407217	 3.8780446566	-0.3759098738	 0.122668
H	 2.13494029	 1.4173777957	 0.0497496637	 0.133757
