14
gdb 125281	5.37015	1.2763	1.03788	3.7961	72.	-0.2263	-0.0269	0.1994	1081.6727	0.102353	-436.683733	-436.676894	-436.67595	-436.715084	25.935	
C	 0.0528014397	 1.4648318979	 0.0502797126	-0.490552
C	-0.0696841775	-0.0138847197	-0.0057372159	 0.373438
C	-1.147205958	-0.8370525438	-0.2141845322	-0.465567
C	-0.5965470768	-2.1492124223	-0.1487467062	 0.392554
C	 0.7416854763	-2.026749605	 0.0888438081	 0.190438
O	 1.1007639383	-0.7205933689	 0.1827710016	-0.231454
C	 1.2343086709	-3.3427588159	 0.1442748865	-0.113782
N	 0.2471425527	-4.1984290939	-0.0490735331	-0.143946
O	-0.9366006192	-3.4385398305	-0.2387869282	-0.232265
H	 0.7418488155	 1.8349570981	-0.7169339419	 0.149145
H	-0.9237844677	 1.9254455391	-0.1109313797	 0.143376
H	 0.4357421318	 1.7946048431	 1.0223803493	 0.149131
H	-2.1628295109	-0.5209414129	-0.3847255278	 0.13533
H	 2.2291041651	-3.7279770252	 0.3096824968	 0.144153
