19
gdb 39194	2.5269	2.26372	1.55421	1.8567	77.64	-0.2361	0.008	0.2441	905.4797	0.163491	-385.898715	-385.892322	-385.891378	-385.929313	27.008	
C	 0.3400769513	 1.4839691815	 0.4519763019	-0.23381
C	 1.3961688082	 2.0763502606	-0.5105765174	-0.215855
C	 2.2220851368	 0.8663069996	-1.025533144	-0.0735
C	 3.2718403781	 0.3926914169	-0.0396871648	-0.070596
C	 2.9823386132	-0.779298273	 0.5269182354	-0.084861
C	 1.6713092375	-1.3233185957	 0.0248102985	 0.080441
O	 0.5386528913	-0.9893144468	 0.8838570734	-0.317781
C	 0.0925729657	 0.0401400154	-0.0395075259	 0.132953
C	 1.2131457871	-0.3079423562	-1.0457601072	-0.114285
H	 0.7170728257	 1.4300184557	 1.4765710488	 0.120208
H	-0.5741351704	 2.0837770371	 0.46863019	 0.095742
H	 0.8977600429	 2.5535822175	-1.362326731	 0.0982
H	 2.019931731	 2.8416895294	-0.0379172883	 0.098434
H	 2.6641733839	 1.0870453412	-2.0031087315	 0.072246
H	 4.1455379544	 0.9953498408	 0.1906389774	 0.095272
H	 3.5742139165	-1.277432925	 1.2864832654	 0.097957
H	 1.6727934518	-2.3930962931	-0.2067980265	 0.073909
H	-0.9427937014	-0.1456541166	-0.3424084588	 0.072833
H	 0.9298867465	-0.6785462594	-2.0292659356	 0.072493
