18
gdb 77753	2.01177	1.59603	1.46582	3.0384	72.5	-0.2362	-0.0136	0.2226	1053.0843	0.145297	-439.069102	-439.059803	-439.058859	-439.102691	34.21	
C	 0.0138315973	 1.5407547084	-0.0792228407	-0.421811
C	 0.0465492931	 0.0452427268	 0.137470925	-0.031096
N	 1.2651560178	-0.7917728145	-0.1626872661	-0.236833
C	 2.3816149349	-0.0087985846	 0.3160884165	 0.359388
O	 3.3354283069	 0.4023238413	-0.2706958257	-0.310064
C	 1.9196771151	-0.0221899823	 1.7896344427	-0.077758
O	 1.7745378905	 1.1735022834	 2.5140292263	-0.423485
C	 0.6464711624	-0.6846435914	 1.269631233	 0.310892
C	-0.0009465734	-1.8644674925	 1.9308406923	-0.496315
H	 0.8184245888	 2.0587211475	 0.4431249555	 0.149384
H	 0.078973655	 1.7656861656	-1.148534013	 0.135716
H	-0.936211019	 1.9381103969	 0.2926414437	 0.126716
H	-0.8227936461	-0.4634478083	-0.2762811107	 0.108207
H	 2.5223417917	-0.7617671657	 2.3401471588	 0.10558
H	 2.6554156503	 1.5291545569	 2.6774847633	 0.298971
H	-0.5537920571	-1.5441357552	 2.8211466675	 0.137381
H	-0.7051844035	-2.3545499884	 1.2531328614	 0.135462
H	 0.7436401754	-2.6036134138	 2.2436231101	 0.129665
