23
gdb 90032	2.99082	1.08727	0.94499	1.6111	85.55	-0.2541	0.077	0.3312	1353.0341	0.205491	-388.273423	-388.26417	-388.263226	-388.307182	36.323	
C	-0.446445362	 1.2977068265	-0.5055698016	-0.417467
C	 0.2933967003	-0.0243875827	-0.3785057566	-0.020653
C	 1.8345076701	-0.0582914643	-0.5770876133	-0.230864
C	 1.9199185028	-1.1096590541	 0.5594540082	-0.281378
C	 0.5017963917	-0.6717154365	 1.0201175211	 0.369442
C	 0.4450530725	 0.1735815924	 2.3251731897	-0.331565
C	-0.0427635314	-1.10294037	 3.0594199115	 0.176191
O	-0.975767386	-1.0054825313	 4.1052543249	-0.43517
C	-0.4581312931	-1.6870658113	 1.6840484449	-0.352977
H	 0.0057483892	 2.0707040304	 0.1253444123	 0.115203
H	-0.424963283	 1.6600057621	-1.5394293267	 0.114328
H	-1.4990855631	 1.2016384351	-0.213989395	 0.108553
H	-0.1723884762	-0.7695599628	-1.0365158822	 0.068553
H	 2.2166160376	-0.3380862474	-1.561915293	 0.093001
H	 2.2930386145	 0.8919861526	-0.2846086022	 0.098228
H	 1.9182542082	-2.1327712619	 0.169452166	 0.097215
H	 2.7368599171	-1.0145353182	 1.2803982609	 0.094872
H	 1.3582122858	 0.6616348414	 2.6766800846	 0.097451
H	-0.3591199061	 0.9183762878	 2.2859992862	 0.087206
H	 0.8024927841	-1.658497546	 3.475799132	 0.09449
H	-1.7406853105	-0.5224258462	 3.7748708945	 0.273842
H	-1.50571235	-1.4436444295	 1.4628929801	 0.085659
H	-0.2982439525	-2.7526743261	 1.4971039637	 0.095841
