22
gdb 85893	1.75459	1.60519	1.06443	2.7168	83.79	-0.2243	-0.0275	0.1968	1262.7849	0.191076	-404.340948	-404.330672	-404.329727	-404.376107	37.638	
C	-0.3028619018	 1.5215521326	-0.170386109	-0.326764
N	-0.1941360129	 0.0899918254	 0.0072744334	-0.080779
C	-1.3360917812	-0.6444533904	 0.580306738	-0.203312
C	-0.3412804754	-1.5729987243	 1.3364604572	 0.298942
C	-0.620017772	-1.8333646981	 2.8100120034	-0.454459
C	-0.0637830378	-2.8736228678	 0.5802319094	-0.445579
C	 0.7100044105	-0.4314661379	 1.0379969434	-0.086053
C	 2.0832928494	-0.842809305	 0.5613407151	 0.141674
O	 2.9873340813	-1.1473716578	 1.2983482701	-0.255615
H	 0.6532509753	 1.9285842466	-0.516258086	 0.123625
H	-1.0565527638	 1.7435702667	-0.9330817567	 0.124514
H	-0.5866045198	 2.0538974556	 0.7570880081	 0.094119
H	-1.9385229165	-0.0359784677	 1.2747699516	 0.083143
H	-2.003540607	-1.105037491	-0.1574963172	 0.099334
H	-1.4714887237	-2.5134152302	 2.9295894653	 0.116272
H	 0.247353462	-2.297333919	 3.2921664877	 0.131378
H	-0.8492211537	-0.9081501724	 3.3476188936	 0.114167
H	 0.1138784991	-2.686243353	-0.4828552305	 0.126334
H	 0.8102096398	-3.3913797184	 0.9890583501	 0.129399
H	-0.9221486355	-3.5492168136	 0.6646613601	 0.11413
H	 0.8230483557	 0.2204651796	 1.920332381	 0.076048
H	 2.1876002181	-0.8747614899	-0.5475774981	 0.079483
