19
gdb 91507	2.50077	1.44381	1.10963	3.7057	76.91	-0.2361	-0.0106	0.2255	1149.2263	0.15766	-423.020076	-423.010992	-423.010048	-423.054088	33.914	
C	 0.0357194392	 1.3796357192	-0.460232646	-0.500377
C	-0.0436031404	 0.0291810336	 0.2299287826	 0.274206
O	 0.8727510328	-0.4049867868	 0.8990698143	-0.326268
C	-1.2983322308	-0.7400731972	 0.0451312504	 0.280408
C	-1.7503415287	-1.7101404292	 1.1237098218	-0.311803
C	-1.4270959101	-2.2716176875	-0.208627971	-0.087799
C	-2.5834313607	-2.0272221889	-1.1813211987	-0.272477
C	-2.426218867	-0.4813836358	-0.9461556043	 0.009959
O	-3.5034839289	 0.2394908046	-0.3876685798	-0.43456
H	 0.9180668792	 1.9160831468	-0.1098329562	 0.139704
H	 0.1087998773	 1.2451202961	-1.5461065312	 0.137561
H	-0.8700182578	 1.964866691	-0.2697375566	 0.147656
H	-1.0003575481	-1.8535387141	 1.8929880243	 0.14284
H	-2.7801993227	-1.6557071207	 1.463428249	 0.125348
H	-0.592466181	-2.9426666936	-0.3654778453	 0.109984
H	-2.375378899	-2.3210535438	-2.2121682951	 0.104927
H	-3.546222296	-2.4460804598	-0.872288417	 0.10356
H	-2.0562306597	 0.0094797923	-1.8561444387	 0.071436
H	-4.1838270074	 0.3410481939	-1.0613701623	 0.285694
