13
gdb 130082	5.51335	1.38636	1.10887	2.1795	66.39	-0.2086	0.0022	0.2108	997.566	0.092905	-448.947439	-448.940985	-448.940041	-448.978097	25.315	
N	-0.0097638717	 1.2993869869	 0.1493418957	-0.576419
C	 0.0023965077	-0.0718847815	 0.0573604761	 0.406341
N	-1.130209615	-0.7889751866	 0.0374022265	-0.365915
N	-0.6076331663	-2.0564980533	 0.0131120259	 0.012733
C	-0.9958650354	-3.3847970147	-0.0209389606	-0.113222
C	 0.1601822863	-4.0860076373	-0.0415966298	-0.062405
O	 1.2569654729	-3.2287338142	-0.0214175367	-0.219409
C	 0.7361476588	-1.993659952	 0.0114848097	 0.504509
N	 1.1931908166	-0.7641874034	 0.037867496	-0.443516
H	 0.8216841245	 1.7362438357	-0.2185924351	 0.263329
H	-0.868094813	 1.7276017005	-0.1638847056	 0.261121
H	-2.0205108972	-3.7110936158	-0.0263224799	 0.170002
H	 0.3829957617	-5.1366768744	-0.0677517923	 0.16285
