11
gdb 19340	5.44231	1.70947	1.53499	3.954	55.64	-0.2821	-0.0264	0.2557	775.4534	0.070907	-397.300813	-397.294823	-397.293879	-397.330946	22.625	
N	 0.0366092643	-1.1482526422	-0.1245232578	-0.329302
C	 0.0632223289	 0.006009157	-0.0518502857	 0.196775
C	 0.0619636497	 1.4210065446	 0.1046625002	 0.325473
O	 0.2159834551	 2.2809942459	-1.0233680303	-0.234144
C	 1.144653874	 2.4191314478	 0.0400324579	-0.098188
C	 0.4572439309	 3.2391462239	 1.2042780741	-0.006403
O	-0.8678397827	 3.5587959577	 0.7838520661	-0.194117
C	-0.6205902658	 2.2567230613	 1.2784058496	-0.078404
H	 2.2002329304	 2.292669494	-0.1640327032	 0.145223
H	 0.9344295817	 3.8508605092	 1.9578170847	 0.134167
H	-1.2099162966	 1.8635409607	 2.0961091941	 0.13892
