11
gdb 21862	3.59814	2.38411	1.43397	3.4973	56.5	-0.2602	-0.0777	0.1825	767.4281	0.073088	-434.54994	-434.543961	-434.543016	-434.580083	22.48	
O	 0.0360767983	 1.3111878181	-0.1452094837	-0.394259
C	-0.037148922	-0.0113411205	-0.0357812192	 0.269617
C	-1.1747387706	-0.73695687	 0.046830235	-0.247414
C	-1.023324211	-2.1528416753	 0.1592912769	 0.060045
N	 0.0863231657	-2.8152193085	 0.1905963052	-0.085947
O	 1.2599660637	-2.0450538237	 0.1036116354	-0.24493
C	 1.2633915805	-0.6973455416	-0.0065950194	 0.404247
O	 2.3025403063	-0.0773356829	-0.078233496	-0.370574
H	 0.9910479451	 1.5146138497	-0.1814954795	 0.322034
H	-2.1556277614	-0.2792553477	 0.0296397037	 0.138127
H	-1.8980744046	-2.7930164376	 0.2295366717	 0.149054
