21
gdb 80017	2.21122	1.94833	1.31627	1.4127	82.78	-0.2283	0.0145	0.2428	1048.5452	0.18209	-387.049026	-387.040369	-387.039425	-387.081541	35.002	
C	-0.138947361	 1.5700615055	-0.1093893345	-0.462553
C	 0.0036820253	 0.0505218012	 0.0133246831	 0.368139
C	-1.3707516203	-0.5598954253	-0.3382723297	-0.506263
C	 1.2843690878	-0.6116913722	-0.6580982667	-0.17257
C	 2.4122316103	 0.136533384	 0.0429946971	-0.097085
C	 2.0193742618	 0.1660151551	 1.3256989976	-0.088942
C	 0.6860130752	-0.5621016399	 1.3064909189	-0.162917
C	 1.1630152627	-1.7934880042	 0.3876129859	 0.186017
O	 0.3490240027	-2.8980381461	 0.1201140747	-0.450074
H	 0.800772404	 2.098673998	 0.0483068845	 0.119352
H	-0.5163353189	 1.8317035048	-1.1054960942	 0.107637
H	-0.8684477066	 1.9437298558	 0.6185525727	 0.109941
H	-1.4828412352	-0.6979154444	-1.421016777	 0.117304
H	-1.5801726481	-1.5064233819	 0.163246463	 0.128309
H	-2.1680564562	 0.1234241379	-0.0289231315	 0.119868
H	 1.3539308001	-0.794382331	-1.732686196	 0.053938
H	 3.322027804	 0.4998289478	-0.4135117164	 0.098474
H	 2.5272432314	 0.560961783	 2.1943034245	 0.097618
H	 0.1361909957	-0.7047861301	 2.2374994334	 0.05817
H	 2.1193941898	-2.2056271471	 0.7132191985	 0.088272
H	-0.3524793944	-2.6509649809	-0.4858369178	 0.287366
