14
gdb 25826	4.31881	1.07007	0.86531	4.4553	67.74	-0.2214	-0.0206	0.2008	1231.9055	0.103152	-470.081202	-470.073378	-470.072434	-470.113736	29.392	
N	-0.0865735411	 1.3564158463	 0.0634045979	-0.560035
C	 0.0378077527	-0.0239541786	-0.0653935207	 0.291352
O	 1.1081536275	-0.5628276563	-0.2746795128	-0.349703
C	-1.2190534466	-0.7703796774	 0.0207059915	 0.227294
C	-1.4409728174	-2.11123741	 0.2068084527	-0.136389
N	-2.7861586158	-2.3942251497	 0.2598377961	-0.358614
C	-3.3718997608	-1.2322018123	 0.093537076	 0.459375
O	-4.6889372018	-1.0025904882	 0.0402453247	-0.418204
N	-2.5009489295	-0.2042845095	-0.0315329332	-0.401422
H	 0.8060909375	 1.8253321875	 0.1360353014	 0.259489
H	-0.7833573897	 1.7031120601	 0.7069389051	 0.248557
H	-0.6922680287	-2.8784117668	 0.3244900207	 0.141437
H	-5.1202619464	-1.8623514881	 0.1307586942	 0.320662
H	-2.7343865098	 0.7286248731	-0.3284520637	 0.2762
