22
gdb 6552	3.02527	1.49137	1.35713	1.6819	78.14	-0.2541	0.0777	0.3317	1076.4398	0.197588	-350.196555	-350.186809	-350.185865	-350.230462	36.548	
C	 1.5008626867	 1.0952135065	-0.9257842076	-0.428061
C	 1.1542431556	-0.2509198414	-0.3401591865	 0.066619
O	 2.2184962538	-1.0692512442	 0.1689453746	-0.27492
C	 1.1772283886	-0.6809894604	 1.0713717887	 0.076353
C	 1.52656647	 0.0743558254	 2.3544029241	 0.224232
C	 2.5883236044	 1.1718346324	 2.1780051955	-0.425375
C	 0.2250308944	 0.678285953	 2.9146758047	-0.405098
C	 2.0737557888	-0.9792984274	 3.3427838554	-0.402343
H	 2.3017265255	 1.5920199426	-0.3822048544	 0.133801
H	 1.8245994349	 0.9686741784	-1.9645959745	 0.125263
H	 0.6199787813	 1.7469127212	-0.9329860942	 0.119953
H	 0.4578789593	-0.8138122962	-0.9690980001	 0.083228
H	 0.4900635221	-1.5054818554	 1.2926245887	 0.076931
H	 2.1902183735	 2.0527706293	 1.668104422	 0.111768
H	 2.9460676775	 1.5009606209	 3.159271755	 0.106386
H	 3.4448934408	 0.7962872454	 1.6121572662	 0.130996
H	-0.5393277676	-0.0917432162	 3.0678621862	 0.11061
H	 0.4087000813	 1.1596223433	 3.8810320606	 0.113056
H	-0.1875238643	 1.4318372464	 2.2356600867	 0.112748
H	 2.9950132244	-1.4295590179	 2.960039795	 0.128282
H	 2.294492543	-0.5207613539	 4.3123161222	 0.107568
H	 1.3496449261	-1.7842268717	 3.5094238416	 0.108003
