25
gdb 100330	2.34138	1.0906	0.92006	0.6338	94.12	-0.2581	0.0525	0.3106	1445.2653	0.225714	-352.336462	-352.325009	-352.324065	-352.372545	43.041	
C	-0.1164688389	 1.509025164	 0.1824039466	-0.405179
C	-0.0155157527	-0.014732655	 0.047135276	-0.185507
C	 0.6827842718	-0.5557352331	-1.2249106082	 0.259087
C	 0.6727240116	-2.0941815524	-1.1696021605	-0.420116
C	 0.0041355109	-0.0578710992	-2.5268825835	-0.181589
C	-1.4842874583	-0.3856734787	-2.6893645285	-0.40885
C	 2.1645813439	-0.06918679	-1.2903521215	-0.38554
C	 2.9782091434	-0.4084233628	-0.1289413292	 0.311348
C	 3.6452731451	-0.6867854653	 0.8325137074	-0.451088
H	 0.8693075206	 1.9836734623	 0.2117636323	 0.121463
H	-0.6827936236	 1.9626750942	-0.6372582784	 0.115263
H	-0.6270353654	 1.7716603543	 1.1143106953	 0.113552
H	 0.5213214462	-0.4109017217	 0.9165309188	 0.108176
H	-1.0226083425	-0.4450991534	 0.0949735541	 0.091674
H	-0.3450976569	-2.484426665	-1.0785922118	 0.111617
H	 1.1184053234	-2.5255865193	-2.0733255438	 0.103994
H	 1.2455661941	-2.4531794374	-0.3095629279	 0.126502
H	 0.1358483281	 1.0284535228	-2.6037812264	 0.093244
H	 0.5539242916	-0.4833064155	-3.3771160177	 0.089325
H	-1.6722577205	-1.4631846182	-2.6662503215	 0.119129
H	-2.0934117272	 0.0755154537	-1.9058425457	 0.12042
H	-1.850881914	-0.0112012445	-3.6503807747	 0.113255
H	 2.6292941646	-0.496989564	-2.1885283449	 0.123116
H	 2.1847534682	 1.0182092928	-1.4330156359	 0.125281
H	 4.2412973966	-0.9295021789	 1.6769169492	 0.19142
