18
gdb 72952	2.58395	1.52989	1.20176	3.426	77.2	-0.233	0.0283	0.2613	1076.2235	0.14795	-398.088068	-398.079093	-398.078148	-398.121288	33.713	
C	 0.0262224214	 1.5533583509	-0.0297134636	-0.482381
C	 0.0419540159	 0.0363519584	 0.0631457895	 0.103512
C	-1.1355448592	-0.6191657402	-0.4424668497	 0.228408
N	-2.0867288791	-1.1590499967	-0.8239946369	-0.353632
C	 1.313854667	-0.7993874267	-0.1456022711	-0.086925
N	 2.4626248598	 0.009534581	 0.2965423786	-0.336211
C	 1.9479531887	-0.0786996548	 1.7085685595	-0.2281
C	 0.6814989284	-0.7940618932	 1.2191926396	 0.250058
N	 0.0433270358	-1.8157296014	 1.9774186074	-0.590208
H	 1.026820955	 1.9440605742	 0.1614874645	 0.154926
H	-0.2722732065	 1.8719605209	-1.0327763738	 0.135574
H	-0.6778078117	 1.9873608923	 0.6865550851	 0.126464
H	 1.3863709702	-1.5564298405	-0.9180022999	 0.116127
H	 3.3286977022	-0.5087619355	 0.19696567	 0.233779
H	 2.5340672392	-0.754809407	 2.3358808166	 0.127256
H	 1.8421153407	 0.8898933713	 2.2071001535	 0.109988
H	-0.608956472	-1.411676453	 2.6460937679	 0.23865
H	-0.5060987559	-2.4209602199	 1.3741449128	 0.252715
