15
gdb 127797	3.22849	1.26681	1.01129	3.7472	71.12	-0.2695	-0.0165	0.253	1134.9643	0.113836	-413.001448	-412.99326	-412.992316	-413.035034	28.676	
C	 0.3180211828	 1.3656103038	 0.1871205213	-0.350501
N	 0.0899071229	-0.0663123758	 0.1295183984	-0.001369
N	-0.0540520761	-0.6753569004	-1.0663831117	-0.137314
N	-0.2405984429	-1.9449415138	-0.8476942314	-0.184865
C	-0.2154386649	-2.1680070504	 0.4917885183	-0.149011
C	-0.0050456913	-0.9720433461	 1.1382718014	 0.325173
C	 0.0801679828	-0.6353737614	 2.5970060557	-0.45309
C	 1.3622589364	-0.0369624339	 2.9862014435	 0.271963
N	 2.3671075955	 0.4540445917	 3.2752224546	-0.302216
H	 1.2700755206	 1.5855196005	 0.6762749679	 0.174792
H	 0.3384751142	 1.7242498354	-0.8414277773	 0.177016
H	-0.4908443842	 1.8646395362	 0.7291734155	 0.145924
H	-0.3466085446	-3.1531356162	 0.9107392287	 0.130692
H	-0.7204415557	 0.0543980968	 2.8942591817	 0.172154
H	-0.0690019355	-1.5509270163	 3.1773392234	 0.180652
