15
gdb 76457	2.44435	1.33464	1.24917	2.0406	71.02	-0.2494	-0.0518	0.1976	1072.2563	0.108875	-457.715007	-457.706092	-457.705148	-457.748097	33.498	
O	 0.2197854432	 1.2807663458	-0.1980967701	-0.409451
C	 0.0936549845	-0.0597874633	 0.0341010207	 0.067306
C	-0.4874035018	-0.6316813681	 1.2562468395	 0.067316
O	-0.9663411016	 0.1133496946	 2.2966537609	-0.409445
C	-1.3444937351	-0.7731869335	-0.1004956641	-0.122646
C	-2.4564117969	 0.1600635252	-0.1924567686	 0.112666
O	-2.4483231638	 1.2741163739	 0.33266689	-0.360202
C	-1.4374750605	-2.043962151	-0.7393486549	 0.206465
C	-1.4901763835	-3.1234409454	-1.2695308603	-0.380579
H	-0.5937077918	 1.7240475308	 0.0974288657	 0.308343
H	 0.8664398354	-0.6302185176	-0.4703912863	 0.145936
H	-0.1127293383	-1.5939393614	 1.5890805798	 0.145938
H	-1.4672851356	 0.864228237	 1.9349369445	 0.308342
H	-3.3354261107	-0.177530022	-0.7682916293	 0.122363
H	-1.5456506936	-4.073636405	-1.7405308376	 0.197645
