16
gdb 28963	2.96257	1.48857	0.99683	2.1853	87.87	-0.252	-0.0493	0.2027	1138.0253	0.124928	-363.648626	-363.640563	-363.639619	-363.681289	30.293	
C	-0.0371604115	 1.5171887112	-0.0061890919	-0.512066
C	-0.0111704619	 0.0140790351	 0.0076448516	 0.190664
C	-0.0292382663	-0.7223404424	-1.177615293	-0.044361
N	-0.0083850281	-2.0543979003	-1.2563742656	-0.275211
C	 0.032955846	-2.7291009831	-0.1047804553	 0.00435
C	 0.0545827324	-2.1160066269	 1.140629808	-0.202974
C	 0.0323932971	-0.7174194101	 1.2115961682	 0.091127
C	 0.0537380367	-0.055364636	 2.4726944927	 0.226146
C	 0.0717142251	 0.5068015333	 3.5376578803	-0.412347
H	 0.8469949263	 1.9344507673	 0.4876603297	 0.141981
H	-0.0696730956	 1.8975517626	-1.0301917049	 0.126139
H	-0.9088512555	 1.9044726315	 0.5322366383	 0.141979
H	-0.0626789773	-0.1904349286	-2.126910731	 0.105254
H	 0.0495808967	-3.8135038132	-0.1803337492	 0.111029
H	 0.0881809314	-2.7056557927	 2.0490925373	 0.108705
H	 0.0876395043	 0.9995003424	 4.4784735147	 0.199587
