15
gdb 31895	6.29527	0.88762	0.78259	7.3278	80.79	-0.2115	-0.0277	0.1839	1386.4146	0.114637	-413.030816	-413.022509	-413.021565	-413.064017	29.936	
C	-0.0578731622	 1.4010984183	-0.0377012376	-0.331579
N	-0.0884162774	-0.0534243079	 0.0405003472	-0.404287
C	 0.6229934219	-0.6410399328	 1.0682668592	 0.389517
C	 1.2954140036	-0.1177913906	 2.1625112758	-0.168747
N	 1.7843362493	-1.121486458	 2.9499280038	-0.282626
C	 1.4325045777	-2.2455567929	 2.3622537963	 0.243745
N	 0.7161681381	-1.9999372511	 1.2042244668	-0.377451
C	 1.7234092782	-3.5623936975	 2.7887279117	 0.227453
N	 1.9351736971	-4.6588113198	 3.0994952493	-0.345519
H	 0.9554708737	 1.8110094566	-0.1602901117	 0.126715
H	-0.6725617661	 1.7211968657	-0.8810711389	 0.13559
H	-0.489512425	 1.8207504145	 0.8755545148	 0.149648
H	 0.0434643326	-0.501394021	-0.8565728928	 0.243963
H	 1.4473643982	 0.9196402016	 2.4122779847	 0.11616
H	 0.2845490202	-2.6932193451	 0.6149350014	 0.277417
