15
gdb 47884	2.38462	1.75593	1.13135	4.6128	62.47	-0.2556	-0.0825	0.1731	1030.4836	0.112095	-494.911892	-494.90382	-494.902876	-494.945488	28.627	
O	-0.0029694962	-0.0064308169	 0.1360441981	-0.246092
C	-0.0519109299	 1.1904473595	 0.0458786414	 0.240074
C	-1.3678209093	 1.9669581172	 0.0557398257	-0.167204
O	-1.760346279	 2.405888512	-1.2336068839	-0.246706
C	-0.7083044646	 2.8527024256	-2.0690933472	-0.103039
C	 0.2821007242	 3.7900692589	-1.3921417029	-0.087748
O	 1.346174129	 3.1714467938	-0.6487143707	-0.226571
C	 1.2841648267	 1.9881522886	-0.0016980347	 0.326924
O	 2.2535281591	 1.5605010634	 0.5546884078	-0.28333
H	-2.1519020577	 1.3006887398	 0.4200197927	 0.147462
H	-1.2730321481	 2.8190740984	 0.7498461305	 0.111248
H	-0.1645247466	 2.0047673351	-2.5168091171	 0.123738
H	-1.1958479489	 3.3972651412	-2.8830112773	 0.134443
H	 0.8016192421	 4.3732318023	-2.1567836024	 0.140723
H	-0.2500010606	 4.4899036711	-0.7369710198	 0.136076
