20
gdb 81924	2.3574	1.66777	1.22619	3.3588	78.27	-0.2287	-0.0165	0.2122	1090.4915	0.171633	-403.15798	-403.149399	-403.148455	-403.190911	33.226	
C	 0.1260773261	 1.6151609428	-0.139072344	-0.404397
C	 0.0574798466	 0.0910089056	-0.0271558454	 0.006869
C	 0.6800394974	-0.6241097054	-1.2251453654	-0.042451
N	 2.1456801175	-0.592479765	-1.2034054882	-0.330499
C	 1.4221665441	-1.8317607129	-0.7730398896	-0.171648
C	 1.3059904538	-1.895896815	 0.722479638	 0.449823
O	 1.5516428641	-2.854841091	 1.410453774	-0.337224
C	 0.7456926624	-0.5496609468	 1.2228496565	-0.128315
C	 1.8595603309	 0.2653647361	 1.9044723045	-0.405303
H	 1.1603043194	 1.9561428326	-0.2317122517	 0.135285
H	-0.4219041277	 1.9588823489	-1.0232346301	 0.108498
H	-0.3193488278	 2.1020137699	 0.7341276075	 0.116341
H	-0.9993914943	-0.2053529385	-0.0033506655	 0.079967
H	 0.1664121646	-0.6116020221	-2.1820987258	 0.092432
H	 2.5062144855	-0.759769318	-2.1403399091	 0.241021
H	 1.5243266513	-2.7420881964	-1.3514624902	 0.103856
H	-0.0072400521	-0.785758791	 1.9815969668	 0.097489
H	 2.6566574369	 0.5132340655	 1.2007555152	 0.145781
H	 1.4639369327	 1.1936114029	 2.3266630713	 0.112905
H	 2.2889193686	-0.3212917219	 2.7217771213	 0.129569
