16
gdb 84303	1.97787	1.91621	1.05413	4.9966	80.29	-0.2135	-0.0314	0.1821	1115.4798	0.12289	-400.739902	-400.731119	-400.730175	-400.773838	31.758	
C	 0.0460492079	 1.4189917142	 0.0218029983	-0.337546
N	 0.1942599373	-0.0150654453	-0.0319369505	-0.008786
C	-0.0538502482	-0.8011808116	-1.1086257751	 0.02116
C	-0.125633128	-2.133944609	-0.8349354875	-0.315952
C	 0.0676735674	-2.3205448482	 0.588260891	 0.380991
O	 0.114110758	-3.3177226553	 1.2693060926	-0.345998
C	 0.2019387279	-0.8495897139	 1.1704590277	-0.315324
C	 1.3692533034	-0.6425879291	 2.0070212908	 0.363483
C	 2.3367806863	-0.4714964958	 2.6982846997	-0.453814
H	 0.8134391833	 1.8464485584	 0.6741326614	 0.151037
H	 0.174172136	 1.8327315965	-0.9818731367	 0.137517
H	-0.9405962894	 1.7241585471	 0.4006630137	 0.127358
H	-0.1603124481	-0.3248867131	-2.0769859304	 0.1375
H	-0.256186886	-2.9291082688	-1.5511630401	 0.117337
H	-0.7154169305	-0.6665022712	 1.7508548214	 0.13674
H	 3.1936234028	-0.3378783949	 3.3114323336	 0.204298
