16
gdb 21315	7.02743	1.11906	0.99868	1.4335	67.62	-0.241	0.0246	0.2656	1155.546	0.131858	-379.927819	-379.920071	-379.919127	-379.960953	27.284	
C	-0.1060734727	 1.4101584585	-0.1892900984	-0.219314
O	-0.0517697833	 0.0112774645	-0.3267273587	-0.233692
C	-1.2175906961	-0.6262613738	 0.1583225447	-0.168853
C	-1.0452753508	-2.1067181929	 0.0390636009	 0.334647
N	-2.0493218742	-2.8720516991	-0.3836487012	-0.294011
N	-1.5586078226	-4.1251472846	-0.3336267564	-0.182319
C	-0.2738589373	-4.1766317906	 0.0957141277	-0.019286
C	 0.0992599396	-2.876610424	 0.3532816274	-0.263646
H	 0.8325125712	 1.8135348631	-0.5771269686	 0.125844
H	-0.9423301254	 1.8462272166	-0.7587863155	 0.104457
H	-0.2166102236	 1.7148604751	 0.864252263	 0.1013
H	-1.3846889582	-0.340099575	 1.2124039041	 0.09357
H	-2.1108817142	-0.3174123859	-0.4059284934	 0.10623
H	-2.1460894119	-4.8891887434	-0.6199599372	 0.274202
H	 0.2594849412	-5.1106254478	 0.1773666253	 0.131004
H	 1.0547217181	-2.5221475409	 0.7013792264	 0.109867
