17
gdb 29763	2.94109	1.24461	0.88425	6.514	84.3	-0.227	-0.0025	0.2245	1285.0735	0.136561	-380.936533	-380.927423	-380.926479	-380.971229	32.07	
C	-0.0205834004	 1.4703865314	 0.0085305379	-0.337406
N	-0.0339075421	 0.0204204224	 0.007388405	 0.012112
C	-0.0216752502	-0.7738087804	-1.1207773669	-0.172699
C	 0.0252549627	-2.0927223261	-0.744741062	 0.159634
C	 0.0418416943	-3.2950994713	-1.6352682778	-0.506719
C	 0.0454106544	-2.0921611634	 0.6915251305	 0.075861
C	 0.0098678182	-0.7717735789	 1.1107383705	-0.189519
C	 0.0839295692	-3.2299047142	 1.5313728952	 0.196964
N	 0.1166783328	-4.1749023076	 2.2023654778	-0.362005
H	 0.9670535626	 1.8597786746	-0.2604735187	 0.148572
H	-0.7563926855	 1.8532319769	-0.703541764	 0.148655
H	-0.2813037885	 1.8315241083	 1.0047118919	 0.149672
H	-0.0489877072	-0.3298732626	-2.1035749098	 0.126976
H	 0.9380052319	-3.9033987573	-1.4710131791	 0.141403
H	-0.820709686	-3.9444898959	-1.4495435047	 0.141376
H	 0.0220699476	-3.0023103739	-2.6883898728	 0.121819
H	 0.0131991661	-0.3561359318	 2.1052529169	 0.145304
