16
gdb 62337	3.81907	1.12679	1.09516	2.0295	77.53	-0.2468	-0.0365	0.2102	1141.72	0.121686	-400.679409	-400.671008	-400.670064	-400.712168	31.983	
C	-0.0569146663	 1.5434106438	 0.0013349174	-0.481689
C	 0.0543774197	 0.0245510565	-0.0454931824	 0.097889
C	-1.0368069552	-0.6356929415	 0.6374663642	 0.262822
C	-1.969494654	-1.1455384972	 1.197481715	-0.375288
C	 0.588464058	-0.7373967158	-1.2369913129	-0.199939
N	 1.3252168664	-0.7222002909	 0.1026669299	-0.149821
C	 2.419333119	 0.1133496488	-0.5100547079	-0.298672
C	 1.7173025092	 0.0223314786	-1.8796741873	 0.399755
O	 2.0323306802	 0.2585036137	-3.0086375641	-0.297988
H	 0.6739065003	 2.0500583316	-0.629362219	 0.137924
H	-1.0521845638	 1.8363337308	-0.3420380815	 0.147269
H	 0.0588953649	 1.8942051801	 1.0313771791	 0.141963
H	-2.7842279088	-1.6064096351	 1.6996106065	 0.199257
H	 0.0728679543	-1.6062919329	-1.6295091362	 0.13054
H	 2.5948198766	 1.0868044278	-0.0488979842	 0.135695
H	 3.3506340993	-0.4599822881	-0.5155229468	 0.150285
