17
gdb 125932	4.5309	1.27024	1.0339	0.62	74.75	-0.2022	0.0223	0.2245	1134.548	0.138598	-418.023663	-418.016182	-418.015238	-418.055766	29.005	
C	 0.1716604618	 1.5335540333	 0.0510199561	-0.398636
C	 0.0681701554	 0.0228958739	-0.0178831553	 0.124485
C	 0.7835345723	-0.6401342455	-1.2466216271	-0.38786
C	 1.4394627517	-1.8063084537	-0.5741867995	 0.272291
N	 2.1167512615	-2.8939298526	-0.9099986567	-0.323668
N	 2.4397584188	-3.4309427018	 0.2884850912	-0.190938
C	 1.9809905907	-2.7179626846	 1.3738114174	-0.209364
C	 1.3292652621	-1.649565746	 0.8105548124	 0.296299
O	 0.6606792875	-0.5374953237	 1.2047673631	-0.303664
H	 1.2201416972	 1.8468273801	 0.0552390623	 0.127564
H	-0.322887736	 1.9859295959	-0.8145462651	 0.120529
H	-0.3069078003	 1.9125288964	 0.9580913928	 0.130242
H	-0.9853074604	-0.285037419	-0.0106403159	 0.091801
H	 0.0628962115	-0.9081798638	-2.0236893347	 0.125278
H	 1.5153662904	 0.0437321278	-1.6946467521	 0.120026
H	 2.9434604371	-4.3001061427	 0.3075189418	 0.272337
H	 2.1643470388	-3.0360238942	 2.3857471992	 0.133276
