20
gdb 108277	2.78995	1.32485	1.05615	3.9401	79.33	-0.2392	0.0299	0.2691	1204.8314	0.171281	-403.167086	-403.158417	-403.157473	-403.200434	33.181	
C	 0.0080143962	 1.5708884601	-0.1102926245	-0.387397
C	 0.0260139297	 0.0474810034	 0.0654126278	-0.263039
C	-1.3588710817	-0.564258239	 0.0658568636	 0.393121
C	-2.3030286725	-0.3390046622	 1.2918215683	-0.273017
C	-2.5910527537	-1.8682079583	 1.3536223034	-0.227593
C	-1.663451092	-2.1044282905	 0.1229575351	-0.273671
C	-2.4178942832	-1.8912869965	-1.201977353	 0.43074
O	-3.1040015608	-2.5596935032	-1.9279195405	-0.36573
N	-2.0640357911	-0.5530353991	-1.2284815243	-0.371761
H	 1.0217181117	 1.9810400465	-0.0891412075	 0.120935
H	-0.4418709154	 1.8520523717	-1.0685484138	 0.117259
H	-0.5653341285	 2.0583333728	 0.6856823426	 0.120557
H	 0.6126752408	-0.4128368133	-0.7383891696	 0.105882
H	 0.5221145256	-0.2094603942	 1.0095442908	 0.099985
H	-1.779976539	 0.0371361624	 2.1748468753	 0.105752
H	-3.1608425557	 0.308392739	 1.0966168476	 0.101305
H	-2.2078976298	-2.3360097916	 2.2623309877	 0.111911
H	-3.6281972303	-2.181307354	 1.2176750931	 0.121114
H	-0.9023773259	-2.8814499859	 0.1691560268	 0.093259
H	-2.5386686643	 0.2064161922	-1.699825829	 0.24039
