21
gdb 103644	2.5973	1.21682	1.11897	3.3521	74.27	-0.2432	0.0717	0.3149	1221.5042	0.18036	-461.342148	-461.332326	-461.331382	-461.376438	37.297	
C	 0.1717269798	 1.5065944495	-0.1233381419	-0.254685
O	 0.4878266948	 0.1298360955	-0.1880293177	-0.304289
C	 0.6945030727	-0.5274587425	 1.055012187	 0.385024
C	 2.0198092106	-0.1362704936	 1.6952970943	-0.452425
C	-0.5165343819	-0.56853044	 2.037436181	-0.33934
C	-0.3511427061	-2.1184088755	 2.1215119575	 0.154524
O	-1.4912360148	-2.9173130429	 2.0246343248	-0.441876
C	 0.5395296979	-2.0663347746	 0.8409215757	 0.028529
O	-0.2517119745	-2.3716115653	-0.2890317118	-0.455247
H	 1.0145854718	 2.1045762755	 0.2473486041	 0.117311
H	-0.0605310037	 1.8263798191	-1.1417286573	 0.132661
H	-0.7007876492	 1.6951999412	 0.5165092932	 0.118863
H	 2.014223817	 0.9051909206	 2.0323534477	 0.119696
H	 2.2216327085	-0.7608810019	 2.571268993	 0.127698
H	 2.8390021573	-0.2692864116	 0.9820159103	 0.12746
H	-0.4411000088	 0.0064634335	 2.9632105919	 0.098085
H	-1.4531431307	-0.3203532776	 1.5316849179	 0.106063
H	 0.2077116867	-2.425138218	 3.0105447131	 0.081091
H	-1.6848660472	-2.9557023726	 1.0755681284	 0.286697
H	 1.4610613461	-2.6600856573	 0.8285216784	 0.066155
H	-0.2799924565	-1.5583712117	-0.8156233498	 0.298005
