21
gdb 108650	1.90947	1.64648	0.96277	3.6444	87.88	-0.2304	-0.0324	0.1979	1288.8558	0.181712	-387.153872	-387.1441	-387.143156	-387.189095	35.412	
C	-0.18685432	 1.62468953	-0.0315006228	-0.375677
C	-0.0004536015	 0.0974643258	 0.024476064	-0.296876
C	 0.7625175237	-0.4335824292	-1.1524369115	 0.121433
C	 2.0384723571	-0.8591561632	-1.2398782702	 0.205153
C	 3.0618174945	-0.9242702226	-0.153041244	-0.492058
C	 2.4064936039	-1.3113237854	-2.6395268337	-0.304405
C	 1.1309608006	-1.1021222044	-3.4709187086	-0.336156
C	 0.1045061873	-0.5463814043	-2.4768661328	 0.346835
O	-1.0450744727	-0.2558246724	-2.729578263	-0.344032
H	 0.7782604212	 2.1415138389	-0.0170043962	 0.10934
H	-0.714574341	 1.9092875038	-0.9452194633	 0.143716
H	-0.7724908726	 1.9745173377	 0.824194034	 0.111886
H	 0.4907099865	-0.1845171935	 0.9616668794	 0.095527
H	-0.9906966634	-0.3729505679	 0.0259245947	 0.121366
H	 3.4432095361	-1.9473060166	-0.0418816218	 0.134833
H	 3.9285221033	-0.2990494688	-0.4033335972	 0.136066
H	 2.6730378094	-0.5954821163	 0.8127386686	 0.133476
H	 3.2588507782	-0.7334001044	-3.0191380562	 0.11386
H	 2.7367515338	-2.3580039895	-2.6300177998	 0.114244
H	 1.2629788332	-0.3910746301	-4.2917917461	 0.13073
H	 0.7467475926	-2.0254965178	-3.9139068937	 0.130739
