25
gdb 101677	1.96144	1.16573	0.82065	2.304	85.96	-0.2471	0.0718	0.3189	1531.0241	0.22577	-426.631562	-426.619915	-426.618971	-426.668948	42.158	
C	 0.6914589467	 1.7219003721	 0.0161040364	-0.394462
C	 0.2689152993	 0.2733899994	 0.2730957519	-0.172973
C	 0.8868470236	-0.3385825436	 1.5329902375	 0.145309
C	 0.2161854687	-1.6551414194	 1.9300470431	-0.396224
O	 2.2755050915	-0.5611125843	 1.266542669	-0.290887
C	 3.1562430675	-0.4938694334	 2.3945020434	 0.092347
C	 4.2435338405	-1.5452742193	 2.1993384596	-0.387327
C	 3.7162263204	 0.9331515459	 2.4591573733	-0.047276
O	 4.3247861677	 1.2930728836	 1.2330403559	-0.428545
H	 1.7794392035	 1.8247652549	-0.0255359594	 0.123759
H	 0.2852466044	 2.0901408388	-0.9306758508	 0.114664
H	 0.3301492269	 2.3838339464	 0.8111450782	 0.114154
H	-0.8227096268	 0.2194648856	 0.3606031276	 0.095076
H	 0.5469240996	-0.3625011075	-0.5764008817	 0.106122
H	 0.7866795569	 0.3825380527	 2.3599927121	 0.067895
H	 0.704021605	-2.0992239719	 2.8032406774	 0.115153
H	-0.8381189611	-1.4963182805	 2.17871914	 0.112628
H	 0.2753428132	-2.3732352086	 1.105991146	 0.123408
H	 2.6007531084	-0.7046839967	 3.319523528	 0.068839
H	 4.8343945866	-1.316722284	 1.3088934495	 0.133558
H	 4.9179211281	-1.5623201796	 3.0612655945	 0.112652
H	 3.7990758075	-2.5365993145	 2.0813850001	 0.116831
H	 2.9018941534	 1.6303109048	 2.7164157208	 0.081559
H	 4.4791050695	 1.013167844	 3.2416791062	 0.101363
H	 3.7392554091	 0.9422953951	 0.5492910514	 0.292377
