21
gdb 96079	2.57477	1.53361	1.10314	1.1507	78.24	-0.2479	0.0835	0.3315	1171.3338	0.182488	-424.225167	-424.216378	-424.215434	-424.258137	34.026	
C	 0.0019385048	 1.5510673429	 0.0374938238	-0.404122
C	 0.0296416711	 0.018973407	-0.0133565528	-0.023207
C	 0.7410467032	-0.4946491199	-1.2729415553	-0.092371
O	 0.8587404626	-1.9057407817	-1.2551599414	-0.25041
C	 1.7642662163	-2.3706027804	-0.2732522886	-0.142828
C	 1.5622628936	-1.7539619936	 1.1087313737	 0.364304
C	 1.7813712325	-2.6741807991	 2.2856896681	-0.474757
O	 2.1299679797	-0.4359968097	 1.2622287403	-0.29983
C	 0.7016031004	-0.5644943761	 1.2133685316	 0.001448
H	 1.018349732	 1.9518408566	 0.1049562096	 0.133922
H	-0.47112741	 1.9673855095	-0.857949225	 0.114471
H	-0.558254052	 1.9080000528	 0.9076462567	 0.115694
H	-0.9999377371	-0.3639544679	-0.030009338	 0.082353
H	 0.1613204384	-0.2448936032	-2.1662701776	 0.105023
H	 1.7316928591	-0.0222013949	-1.3591849438	 0.100529
H	 1.6169013817	-3.4537927084	-0.2216962058	 0.107567
H	 2.8063045795	-2.1839056295	-0.583623329	 0.100581
H	 2.7808591424	-3.1225282313	 2.2453068409	 0.127482
H	 1.6970662513	-2.1195150214	 3.2234313778	 0.129558
H	 1.048620152	-3.4880487233	 2.2887452262	 0.124897
H	 0.2048655087	-0.3686036081	 2.1663602185	 0.079696
