17
gdb 127250	2.38225	1.34321	0.86878	1.0429	72.79	-0.2063	0.0338	0.2402	1293.3199	0.135809	-455.158816	-455.149361	-455.148417	-455.195125	32.865	
C	 0.00397318	 1.3895627683	 0.1150070158	-0.313798
N	 0.0211467852	-0.0476969905	-0.0075647	 0.040589
C	 0.101287124	-0.7932200643	-1.1348756707	-0.096344
C	 0.0607079986	-2.1222514392	-0.762748179	 0.093784
C	 0.1219741906	-3.3305710427	-1.6376810459	-0.196518
O	 0.0711337837	-2.8995853004	-2.9914195986	-0.423741
C	-0.0471754584	-2.0596475476	 0.6428517617	 0.356349
O	-0.1180252487	-3.1337927103	 1.4619022145	-0.43403
N	-0.0717987525	-0.8191554309	 1.1072623591	-0.388837
H	 0.1157537824	 1.8271566584	-0.8785970123	 0.137478
H	-0.9397830163	 1.730023594	 0.5526605542	 0.142364
H	 0.8265964059	 1.7294128472	 0.7513328271	 0.143386
H	 0.1746871059	-0.3464912788	-2.1128231525	 0.144731
H	 1.0464287978	-3.8986598705	-1.4397230574	 0.100962
H	-0.7153795351	-4.007581343	-1.4012139908	 0.102964
H	 0.1672793481	-3.6741061466	-3.552332087	 0.289373
H	-0.1927718311	-2.7962627932	 2.363185182	 0.301287
