20
gdb 6760	5.4715	0.69725	0.65706	0.8781	82.38	-0.2414	0.0402	0.2816	1794.5699	0.174002	-348.970049	-348.959624	-348.958679	-349.007951	35.372	
C	 0.470475329	 1.3946124785	 0.0184110073	-0.217463
O	 0.6209639304	-0.0049417413	 0.0363365817	-0.227323
C	 0.1236390932	-0.6064114236	-1.1452187136	-0.200563
C	 0.2968549408	-2.0514069067	-1.0883317743	-0.051424
C	 0.4240384619	-3.2486016525	-1.0645519438	 0.189168
C	 0.6032771248	-4.699894942	-1.0168843916	-0.12729
C	 1.7288478846	-5.1557659323	-1.9663472229	-0.374053
C	 0.8616644679	-5.1721802126	 0.4281452592	-0.372816
H	 1.0183128384	 1.8563552321	-0.8190856391	 0.103049
H	-0.5874682645	 1.6933878554	-0.0604055504	 0.10309
H	 0.8758331471	 1.7759561183	 0.9582941288	 0.129582
H	-0.9452566709	-0.3606540031	-1.2767322277	 0.110804
H	 0.6469203828	-0.1994033582	-2.0288056138	 0.110715
H	-0.3325662535	-5.1648749774	-1.3579109479	 0.103433
H	 1.5295918405	-4.8401380555	-2.9938628024	 0.121623
H	 2.6875928086	-4.7262849973	-1.659861978	 0.12514
H	 1.8198617623	-6.246678712	-1.9508516064	 0.110922
H	 0.0470264219	-4.8716435729	 1.09189052	 0.125515
H	 0.9515016035	-6.2627735924	 0.4588175518	 0.110673
H	 1.7895563712	-4.7390645046	 0.8138112931	 0.127217
