21
gdb 114786	3.03449	1.36361	1.23227	1.8224	80.27	-0.2514	0.0784	0.3298	1107.9138	0.185306	-387.064978	-387.057249	-387.056305	-387.097192	31.307	
O	 0.685552232	-0.2516033473	 1.3315236067	-0.426006
C	 0.0285914033	 0.1627633013	 0.1424111465	-0.078805
C	-1.351417801	-0.4839827033	-0.02122417	-0.007108
C	-2.0994032757	-0.0801910702	-1.3292568187	-0.24649
C	-2.1484034939	-1.3659901655	-2.1698469636	-0.031453
C	-0.7103249687	-1.8570943118	-2.5347035232	-0.235436
C	-0.7412239535	-2.7436191196	-1.2877383548	-0.071444
C	-2.2416779283	-2.5373929627	-1.1469866548	-0.09018
C	-1.3278282145	-2.0141159318	-0.0805735348	-0.056785
H	 0.8750215782	-1.1907698875	 1.2393816463	 0.283645
H	-0.0787289985	 1.249865618	 0.2261671996	 0.105152
H	 0.6532788903	-0.0352173128	-0.7415872568	 0.08847
H	-1.9401282038	-0.1878887398	 0.8549410062	 0.075737
H	-3.113172826	 0.2624378009	-1.0965376701	 0.096954
H	-1.5975453638	 0.7348515623	-1.8640833753	 0.09452
H	-2.8634613883	-1.3390927555	-2.9920848675	 0.06535
H	-0.7195114303	-2.4688926952	-3.4411410729	 0.099964
H	 0.0752030548	-1.0992925003	-2.6323530364	 0.088286
H	-0.1752670941	-3.6585777277	-1.1509879996	 0.078903
H	-3.0427587178	-3.2512361365	-1.0096419915	 0.083514
H	-1.2716600205	-2.5698902151	 0.8499893146	 0.08321
