17
gdb 99457	2.37351	1.17808	0.88266	2.399	81.41	-0.2583	-0.0634	0.1949	1340.15	0.131311	-384.635508	-384.625278	-384.624334	-384.67141	36.236	
C	 0.1370235886	 1.6545796681	-0.5295357355	-0.402358
C	 0.2031696764	 0.127097223	-0.5050927545	-0.171785
C	-1.0320287628	-0.5171228176	 0.1559524649	-0.253597
C	-2.2731664722	-0.2434802148	-0.5642165862	 0.338364
C	-3.2781827079	-0.0330479286	-1.1891285912	-0.475583
C	-0.8562920687	-2.0445749814	 0.3117854684	 0.217408
O	 0.1102296087	-2.6336304584	-0.1116562992	-0.284014
C	-1.9172542318	-2.7261290855	 1.0294328821	 0.275329
C	-2.7803366827	-3.2843882143	 1.6552250506	-0.391731
H	 1.0301522804	 2.0699840087	-1.0051921896	 0.11869
H	-0.7373604341	 2.0048297813	-1.0857733354	 0.131894
H	 0.0770029174	 2.067922968	 0.4836859413	 0.113371
H	 0.3002415752	-0.2696612216	-1.5199885645	 0.121607
H	 1.0884099092	-0.2106335924	 0.0421659864	 0.114525
H	-1.1390823893	-0.1241494887	 1.1793496229	 0.128319
H	-4.1720723959	 0.1571289469	-1.7301518279	 0.2033
H	-3.5422756804	-3.7870557429	 2.2001619875	 0.21626
