21
gdb 95305	2.64935	1.6932	1.46725	1.5207	76.16	-0.2476	0.0775	0.3251	1010.7981	0.185711	-424.251454	-424.243842	-424.242898	-424.283136	30.849	
C	-0.1937506889	 1.5449047384	 0.0765214245	-0.399893
C	 0.0216664272	 0.0302339524	-0.0375014635	 0.015478
C	 0.7859317419	-0.3698313214	-1.3264509745	-0.225201
C	 2.3130058939	-0.2060176962	-1.1838570139	-0.221856
C	 2.7539149281	-0.7100658762	 0.1925140071	 0.204329
O	 2.3355054024	-2.059133391	 0.393283582	-0.276888
C	 1.1032888149	-2.0078846733	 1.1157476175	-0.104699
C	 0.7866011055	-0.503181537	 1.1886252705	 0.062203
O	 2.1114558172	 0.0460224619	 1.1992575761	-0.256597
H	 0.7609952016	 2.0746103135	 0.1335980198	 0.131668
H	-0.7479096417	 1.9257426218	-0.7871284279	 0.109794
H	-0.7645142021	 1.7955797916	 0.9774715421	 0.109516
H	-0.9628206611	-0.4564132716	-0.0550436392	 0.069319
H	 0.5752036791	-1.419399605	-1.5555107307	 0.110278
H	 0.4159793183	 0.2124327088	-2.1767137318	 0.09373
H	 2.831773937	-0.7640619319	-1.9700540202	 0.102876
H	 2.6179147211	 0.8428932179	-1.2709405542	 0.104031
H	 3.8351702074	-0.6468411055	 0.3475106521	 0.08444
H	 0.3351810581	-2.5843313441	 0.5882623562	 0.103376
H	 1.2454466506	-2.4363843832	 2.1153944591	 0.103649
H	 0.2990584796	-0.21417499	 2.1231351187	 0.080449
