13
gdb 32070	4.01552	1.19155	0.92414	2.386	62.77	-0.2932	-0.0954	0.1977	1153.8211	0.088995	-489.933284	-489.925482	-489.924538	-489.966618	27.215	
O	 0.1870462115	 1.359810626	-0.0460071441	-0.41452
C	 0.0436045667	-0.0282143983	-0.0774726559	-0.129131
C	-1.3958594782	-0.4604141977	-0.0461442068	 0.421756
N	-2.3408173993	 0.4236343448	 0.0051759108	-0.350368
C	-3.607681745	-0.1017708628	 0.0291153644	 0.093177
N	-3.9427161228	-1.3533221723	 0.0064108005	-0.302733
C	-2.9418137286	-2.295050406	-0.0478306226	 0.461439
O	-3.0414239511	-3.47658991	-0.0755423004	-0.299618
O	-1.5861059975	-1.7668419511	-0.074618265	-0.222814
H	-0.705503801	 1.7336704837	-0.009205506	 0.302995
H	 0.4988118145	-0.459643048	-0.9831639306	 0.143558
H	 0.5504092009	-0.505010753	 0.7766829257	 0.143513
H	-4.4129953601	 0.6290947847	 0.07222548	 0.152745
