18
gdb 31618	2.93864	1.25903	0.93724	2.7369	76.05	-0.182	0.0402	0.2222	1253.9672	0.148683	-435.297805	-435.288579	-435.287635	-435.331853	33.54	
C	 0.2501357599	 0.8043557516	-0.6003530645	-0.335273
N	-0.4274929539	 0.1320525339	 0.5192263102	-0.380468
C	 0.3973624542	-0.5930134573	 1.3861788195	 0.365583
N	 0.8106255671	-0.1964381416	 2.5799087483	-0.41724
C	 1.5374912918	-1.2454901566	 3.0677496297	 0.340237
O	 2.114308483	-1.1895843933	 4.2901531286	-0.442324
C	 1.5890045527	-2.2818173804	 2.1766112572	-0.245516
N	 0.8286150228	-1.8477004784	 1.0902630691	-0.010137
C	 0.4911707528	-2.6235963478	-0.0828447573	-0.343478
H	 0.712743378	 0.0599867693	-1.2540212378	 0.128657
H	-0.4945533003	 1.3476131634	-1.1882906799	 0.124608
H	 1.0301756386	 1.5077161599	-0.2753248391	 0.123107
H	-0.930661525	 0.8133933767	 1.0756501215	 0.243622
H	 1.8983289455	-0.3191952827	 4.6454405603	 0.296627
H	 2.0691020422	-3.2437359471	 2.1964511589	 0.120758
H	 0.2614713753	-3.652460858	 0.2074320226	 0.139663
H	-0.391455941	-2.1795585284	-0.5466778536	 0.158756
H	 1.3102247962	-2.641583303	-0.8113721837	 0.132817
