22
gdb 22201	2.41716	0.7707	0.61862	1.1346	82.04	-0.2418	0.0129	0.2548	1854.1118	0.191591	-441.447955	-441.436801	-441.435856	-441.485078	39.61	
C	-0.0763399043	 1.6102706743	-0.1003988657	-0.388654
C	 0.0079981332	 0.0854348664	 0.0061427399	-0.157868
C	 0.6361085008	-0.549314877	-1.2364965191	-0.258051
C	 0.7627551151	-2.0525555786	-1.2266703472	 0.33296
C	 1.4629869826	-2.7160125806	-2.3873035525	-0.295727
C	 2.9266812791	-3.0686558285	-2.0581884355	-0.055011
O	 3.6036817723	-3.6315326348	-3.1687573508	-0.416386
N	 0.2851885946	-2.6807461821	-0.2211651563	-0.167332
O	 0.4726935834	-4.07352601	-0.3288914486	-0.40897
H	 0.9165049132	 2.0586231411	-0.220626453	 0.112263
H	-0.6826315627	 1.9181741192	-0.9599418432	 0.112192
H	-0.5290936657	 2.0442018454	 0.7963560152	 0.113
H	 0.5902790158	-0.1991166276	 0.8891060088	 0.10791
H	-0.9900404211	-0.3375687154	 0.1607752797	 0.110699
H	 0.061784976	-0.2665239902	-2.1319597027	 0.112923
H	 1.6389011211	-0.1276429037	-1.4062187785	 0.111648
H	 0.9311412551	-3.6378019093	-2.6463814719	 0.117294
H	 1.4517711605	-2.0567773197	-3.2606745619	 0.105115
H	 3.4821813535	-2.1601136731	-1.8026742194	 0.111045
H	 2.951435821	-3.7319713112	-1.1841016751	 0.112938
H	 3.2054989296	-4.4890320186	-3.3494304672	 0.283112
H	 0.0485984969	-4.3933137961	 0.473904155	 0.304899
