18
gdb 10842	4.12485	1.45777	1.17061	3.0273	67.72	-0.2378	-0.0147	0.223	1015.5699	0.15472	-384.978506	-384.970801	-384.969857	-385.010494	29.449	
O	-0.087866063	 1.4608509323	 0.0323043101	-0.438684
C	 0.0199968949	 0.0459020035	-0.0039379865	 0.14149
C	 0.7885476332	-0.5033026389	 1.2047244698	-0.234337
C	 0.8257780301	-2.0430661936	 1.2034036826	-0.305511
C	-0.5702829293	-2.6425648417	 1.0699506278	 0.397951
O	-0.9702907746	-3.5259157061	 1.7908856947	-0.305269
C	-1.4138709551	-2.0481287142	-0.0518149799	-0.309481
C	-1.40371422	-0.5087828922	-0.0316251816	-0.201203
H	 0.8002286685	 1.8288467421	 0.0816255583	 0.281143
H	 0.5393750395	-0.2730862429	-0.9260021977	 0.060978
H	 1.8119950522	-0.1075556375	 1.2131261063	 0.090809
H	 0.2991789005	-0.1383986761	 2.1161502563	 0.116384
H	 1.4149334486	-2.3900234615	 0.3419326448	 0.116853
H	 1.2943162373	-2.4434682847	 2.105101176	 0.122112
H	-0.9876940467	-2.4008209045	-1.0025146713	 0.116925
H	-2.4267054274	-2.4499292283	 0.0226280183	 0.122731
H	-1.930530733	-0.1404165051	 0.8571415746	 0.115432
H	-1.9346145359	-0.1113070207	-0.9017900827	 0.111676
