17
gdb 12493	3.33	1.91355	1.31585	4.3726	65.11	-0.2337	0.0205	0.2541	921.5038	0.144663	-401.02954	-401.022274	-401.02133	-401.061198	27.506	
O	-0.0306600139	-0.0200174805	-0.4210920376	-0.360757
C	-0.0504702366	 1.1533244889	-0.0977525197	 0.36856
C	-1.3795832615	 1.8751911602	 0.1729423734	-0.182432
O	-1.4645078186	 2.551452394	 1.4090391654	-0.234384
C	-0.9359133831	 3.8623917731	 1.4276586265	-0.070054
C	 0.5919254054	 3.9071735686	 1.4342616492	-0.187554
C	 1.2285921947	 3.329357571	 0.1663256945	-0.172155
N	 1.0979959082	 1.8837667649	 0.0353891096	-0.293016
H	-1.5943411335	 2.5613160344	-0.6650139819	 0.100436
H	-2.1410936923	 1.0937032971	 0.1781486879	 0.138585
H	-1.3223704338	 4.4374798051	 0.5680269028	 0.08713
H	-1.3264644559	 4.3264657832	 2.3386581107	 0.112372
H	 0.9030891033	 4.9548865399	 1.5318286928	 0.10076
H	 0.9685560163	 3.3651372527	 2.3084617142	 0.117617
H	 0.8168805931	 3.8428815559	-0.7164471652	 0.109509
H	 2.3007113509	 3.5420475793	 0.1745666786	 0.117875
H	 1.9266504373	 1.3575447822	-0.1996811911	 0.247509
