20
gdb 88536	3.35213	1.3188	1.18229	1.79	79.86	-0.2226	0.0842	0.3068	1124.3086	0.170759	-403.043213	-403.035119	-403.034175	-403.075804	31.878	
C	-0.6031029392	 1.2583382155	 0.092577855	-0.328032
N	 0.0211723337	-0.0629228632	 0.0845675429	-0.095452
C	 1.435180636	-0.1401046173	-0.260146794	-0.253287
C	 0.9773617995	-0.4237327364	 1.1311408584	-0.160053
C	 1.3834940552	 0.4726919733	 2.2500155182	 0.435163
C	 0.5590079893	 1.0687733819	 3.4323638219	-0.263369
C	 1.9728170829	 1.6858200599	 3.4382366579	 0.045713
C	 2.58626848	 0.2855250254	 3.2199573743	-0.257959
O	 1.8884453343	 1.8487884423	 1.9662354299	-0.337656
H	 0.0518213145	 2.0639404836	 0.4475549637	 0.13582
H	-0.927990542	 1.4870177459	-0.9274732836	 0.118147
H	-1.4949206437	 1.2264912774	 0.7273726442	 0.116417
H	 1.7258400403	-0.9515543405	-0.9225813905	 0.11192
H	 1.9789675733	 0.7926915289	-0.3995648297	 0.128048
H	 0.8928778224	-1.460878968	 1.4557794152	 0.092281
H	-0.2472934583	 1.7445471814	 3.147334795	 0.110716
H	 0.2862758407	 0.3989493594	 4.2516008484	 0.097318
H	 2.3586490798	 2.5303055969	 4.0078977484	 0.098256
H	 2.4904113239	-0.4512238183	 4.021577457	 0.096294
H	 3.5653118676	 0.275259942	 2.7397907773	 0.109714
