18
gdb 73320	2.98832	2.02346	1.43707	1.117	75.06	-0.2384	0.071	0.3094	925.7745	0.148207	-401.823769	-401.81691	-401.815966	-401.854516	28.516	
C	 0.0023461209	 1.5935802307	-0.0679336517	-0.509687
C	 0.0444966149	 0.0871218628	 0.0267694818	 0.239684
C	 0.5303090742	-0.7165514113	-1.238211839	-0.14431
O	 0.4596224537	-2.1234465361	-0.8372865875	-0.344218
C	-0.0110051013	-1.9181999592	 0.4697445647	 0.400512
C	-0.4571293862	-2.4897946366	 1.8177569249	-0.25159
N	-0.6072038834	-0.9614439199	 2.0263603993	-0.191478
C	 0.6653367245	-0.7346894303	 1.1736858449	-0.09517
C	-1.0808547677	-0.8222159481	 0.5586749452	-0.095172
H	 0.995311852	 2.0058859378	-0.2805984176	 0.120038
H	-0.671143881	 1.92235833	-0.8676333096	 0.120037
H	-0.3502231354	 2.0303606531	 0.8707816746	 0.138161
H	-0.1200902171	-0.5584340471	-2.1057231843	 0.111635
H	 1.5629333312	-0.4740747348	-1.5129632652	 0.111636
H	-1.4063075054	-3.0304494444	 1.8650561187	 0.114456
H	 0.2973211708	-2.9450580945	 2.4650771783	 0.114455
H	 1.6550061832	-0.69518053	 1.6289365501	 0.080505
H	-2.1363340286	-0.8852193418	 0.2936204057	 0.080505
