17
gdb 108112	3.63664	1.33124	1.29865	1.6638	65.65	-0.2414	0.0658	0.3071	1017.1151	0.137478	-458.938844	-458.93167	-458.930726	-458.970783	28.128	
O	 0.0952011227	 1.3527299943	 0.4720704601	-0.408031
C	-0.0458907231	 0.0791083472	-0.1426771482	-0.188937
C	-1.4520502649	-0.4483236895	-0.1199463867	 0.206218
C	-2.6179420426	 0.1384107365	-0.9104343766	-0.307451
C	-3.6387127452	-0.8960847913	-0.3876183408	 0.150512
O	-3.0301719366	-2.1429431971	-0.7083973497	-0.250287
C	-1.8018018672	-1.9367510638	-0.0381618623	-0.010832
C	-2.1256859241	-1.0263853647	 1.121330681	 0.007339
O	-3.5185057351	-0.7875930198	 1.0255546085	-0.250575
H	-0.430665191	 1.9828903522	-0.0303061873	 0.284814
H	 0.3299008646	 0.0938688094	-1.1782968815	 0.095213
H	 0.6113004831	-0.5901917537	 0.4236995065	 0.109598
H	-2.8860551057	 1.1549728104	-0.6118413925	 0.109638
H	-2.4866289134	 0.0769740566	-1.9933042439	 0.113566
H	-4.6775120201	-0.8670201921	-0.7034282153	 0.103029
H	-1.113485576	-2.7688098217	-0.0586122745	 0.115642
H	-1.7227588453	-1.053373143	 2.1226174333	 0.120546
