19
gdb 107765	3.51501	1.44049	1.38761	2.1752	72.69	-0.2384	0.0809	0.3192	1001.7852	0.161705	-423.023926	-423.0168	-423.015855	-423.055285	29.533	
O	-0.0152155822	 1.3794417457	 0.0357432092	-0.421341
C	-0.0072351677	-0.0361315249	 0.010895324	-0.1546
C	-1.4060432945	-0.5994570116	-0.0772045051	 0.338692
C	-2.3125780805	-0.1861498892	-1.2633546416	-0.248727
C	-3.5835555669	-0.816497286	-0.7127597366	-0.114259
C	-3.1521534911	-2.0512739184	 0.0887982268	-0.114486
C	-1.6322872153	-2.1280004625	-0.0042471698	-0.266264
C	-3.4119794359	-0.7363430338	 0.7855383387	 0.091076
O	-2.1658833019	-0.1266405561	 1.0649574797	-0.307368
H	-0.6494979753	 1.62775118	 0.7188104805	 0.292863
H	 0.5717624597	-0.3373709591	-0.8681714461	 0.10919
H	 0.4916077184	-0.4511296913	 0.9009709903	 0.093374
H	-2.3706627428	 0.8998596604	-1.3634622906	 0.111971
H	-1.978235326	-0.6214845645	-2.2094348113	 0.100101
H	-4.5483299971	-0.7436387244	-1.1959685053	 0.089227
H	-3.7864813462	-2.9179839042	 0.2153403082	 0.090062
H	-1.2720852172	-2.6485870273	-0.8959310366	 0.102852
H	-1.1730166123	-2.567640777	 0.886002094	 0.105058
H	-4.188979605	-0.5388175557	 1.5099469619	 0.102579
