18
gdb 127140	4.16937	1.05364	0.85504	3.5351	77.64	-0.1983	0.0322	0.2305	1340.7869	0.147558	-435.255632	-435.246348	-435.245403	-435.289666	33.894	
C	 0.027750399	 1.4214055318	 0.1000945626	-0.333901
N	-0.0008960291	 0.0077554716	-0.2218331452	-0.155921
C	 1.2073861852	-0.741419385	 0.0850950921	-0.329438
C	-1.196881316	-0.6654960069	-0.1090737342	 0.505305
N	-1.2139536006	-1.975276994	 0.0777606245	-0.271686
O	-2.5935393511	-2.3212290281	 0.0649044163	-0.229082
C	-3.3156149391	-1.2115756861	-0.1022034165	 0.502761
N	-4.6771223327	-1.3893825244	-0.191095958	-0.595964
C	-2.512748715	-0.1141027553	-0.2126434471	-0.475641
H	 0.962326131	 1.8505701501	-0.272527697	 0.125409
H	-0.7951410581	 1.9427162096	-0.3938243579	 0.132323
H	-0.0334146935	 1.6232129989	 1.1822843983	 0.112306
H	 1.3437730785	-0.9035898813	 1.1656369628	 0.113666
H	 1.1582116455	-1.7188678233	-0.3965411946	 0.15912
H	 2.0719707429	-0.1923761526	-0.2987122467	 0.113008
H	-5.0048386115	-2.2363353641	 0.2522043831	 0.264673
H	-5.224157844	-0.581672121	 0.0658381121	 0.261767
H	-2.8144788314	 0.9068628799	-0.3637623748	 0.101296
