20
gdb 40645	3.28215	1.23345	1.20397	0.8503	79.65	-0.2242	0.0957	0.3199	1147.3495	0.172545	-403.101175	-403.093377	-403.092433	-403.13378	30.497	
C	 0.8345372747	 1.6858002107	 0.3004440982	-0.274991
C	 1.3827595736	 0.4015535078	-0.2719983035	-0.27499
C	-0.0886235306	 0.5274992927	 0.0256265126	 0.061439
N	-0.5632697362	-0.1898316963	 1.1803322277	-0.109335
C	-1.9415174069	-0.1060025324	 1.6435771998	-0.052651
C	-3.01404637	 0.3553835689	 0.6750931829	-0.108621
O	-2.8273969394	-0.3987231878	-0.5208131291	-0.252499
C	-2.1685994048	-1.6239879492	-0.2070780541	-0.108616
C	-1.3978440877	-1.3788881517	 1.0762808945	-0.052648
H	 1.0524609419	 1.8971353195	 1.3407661183	 0.11744
H	 0.7668967199	 2.5572793951	-0.3410741935	 0.109102
H	 1.6949683864	 0.3831814099	-1.3101626019	 0.109104
H	 1.9605381817	-0.23006058	 0.3925762831	 0.117439
H	-0.7590145478	 0.6205045876	-0.8250830742	 0.10781
H	-2.0912997804	 0.0649462575	 2.7061907786	 0.093695
H	-4.0073164036	 0.1728677419	 1.1163222223	 0.097201
H	-2.9490802574	 1.4152643634	 0.4050950757	 0.115113
H	-2.8907116395	-2.4413520922	-0.0488087845	 0.0972
H	-1.5396331701	-1.8845146227	-1.0655614717	 0.115115
H	-1.1093889935	-2.2339726927	 1.6816150187	 0.093694
