14
gdb 123976	3.86741	1.64322	1.1614	1.2968	67.22	-0.2228	-0.0045	0.2183	962.4287	0.105379	-432.888533	-432.882138	-432.881193	-432.919469	24.726	
C	 0.0088332918	 1.539902962	-0.0553801366	-0.287343
N	 1.388393577	 2.0183655018	 0.1210189917	-0.243953
C	 2.3551332914	 1.2331310791	 0.2703176622	 0.115708
O	 2.3572186086	-0.1603546376	 0.3025381116	-0.248788
C	 1.1090504156	-0.6626577801	 0.1444630136	 0.453091
C	-0.0527274872	 0.042349947	-0.0294918037	 0.077554
C	-1.0308382299	-0.9731843813	-0.1391555717	-0.11177
N	-0.5067442181	-2.1927030109	-0.040129905	-0.229513
N	 0.8242818318	-1.9788332252	 0.1358401421	-0.322185
H	-0.5996599408	 2.0004737855	 0.7341685139	 0.130433
H	-0.3643939974	 1.9608531615	-0.9983944743	 0.130434
H	 3.3741594495	 1.5840467984	 0.4007026001	 0.139689
H	-2.0961427426	-0.8685846387	-0.2862695827	 0.116477
H	 1.4531952406	-2.7565981916	 0.2390818988	 0.280166
