18
gdb 15820	6.34375	0.90428	0.85227	1.1914	69.53	-0.2447	-0.0103	0.2344	1358.0427	0.152337	-384.944341	-384.935407	-384.934463	-384.978763	31.444	
O	-0.1515044499	 1.4476137101	 0.0541319094	-0.425486
C	 0.0223565179	 0.0383949446	 0.0021613182	-0.077209
C	-1.3637510569	-0.5863112143	 0.0197093727	-0.293833
C	-1.3445566844	-2.1025427259	-0.0309345908	 0.376812
O	-0.305104463	-2.7316773501	-0.0802214226	-0.339494
C	-2.6725679967	-2.7817878961	-0.0170550669	-0.10247
C	-2.800522065	-4.0802048118	-0.8021149602	-0.247083
C	-2.7595653677	-4.1300312463	 0.6851706066	-0.247098
H	 0.7194310628	 1.8546989704	 0.0431235343	 0.286919
H	 0.555307619	-0.2737771491	-0.9070411485	 0.101894
H	 0.6041975513	-0.3328527342	 0.8575939029	 0.101923
H	-1.9091975972	-0.2686903244	 0.9187785748	 0.131649
H	-1.9574164127	-0.2110591954	-0.8249517066	 0.131626
H	-3.5433319937	-2.1373872108	 0.0284560922	 0.088778
H	-3.7411088889	-4.2588401614	-1.3101048117	 0.118273
H	-1.9098870234	-4.3908117603	-1.336121856	 0.138261
H	-1.8414614364	-4.4739815411	 1.1474006915	 0.138271
H	-3.6711078652	-4.3440372336	 1.2310255707	 0.118268
