18
gdb 12106	4.5214	1.22388	1.09529	2.3871	67.5	-0.2628	0.079	0.3418	1108.7717	0.151935	-384.898236	-384.889889	-384.888945	-384.931606	30.34	
C	-0.2554864826	 1.510949451	-0.4539318228	-0.458588
C	-0.0557378808	 0.0495924429	-0.1143454423	 0.419452
C	-1.3013951266	-0.8199798076	-0.0550818586	-0.302921
C	-2.2281932503	-0.4289270846	 1.0754235153	 0.102467
C	-3.4308386787	 0.39018605	 0.8711342282	-0.175535
O	-3.527698128	-1.0216401217	 1.0597566841	-0.238947
C	 1.2465064546	-0.5828588415	-0.3722956361	-0.230868
O	 0.8766298506	-0.1971638206	 0.9536773438	-0.275911
H	 0.6994562826	 2.0413049961	-0.4371067472	 0.128704
H	-0.6989492217	 1.6207178886	-1.4496118024	 0.1208
H	-0.9252381738	 1.9911890929	 0.2661304979	 0.130644
H	-1.8461841813	-0.7668606247	-1.0050397608	 0.10607
H	-0.9993702856	-1.8629648566	 0.0900938034	 0.114564
H	-1.7598469784	-0.4077772393	 2.0601140433	 0.109903
H	-3.8200285236	 1.0001592741	 1.6853142341	 0.116562
H	-3.6753121124	 0.7448186073	-0.129967009	 0.110518
H	 1.303316774	-1.6563691646	-0.5496060701	 0.112079
H	 2.0492780921	 0.0014156283	-0.8209490806	 0.111006
