19
gdb 102488	2.25036	1.14267	0.82699	1.9617	69.38	-0.2604	0.0041	0.2645	1416.2346	0.156327	-497.31154	-497.300869	-497.299925	-497.348207	36.234	
C	-0.0268484721	 1.2465695003	-0.1264198476	-0.246075
O	-0.1915857242	-0.1371754303	 0.1321372287	-0.2422
C	 0.6540411064	-0.6606582564	 1.1245816623	-0.028359
C	 0.0606047385	-2.0269875981	 1.5058100594	-0.070222
O	-1.2719744171	-1.8847340466	 1.9371123032	-0.419823
C	 2.0969084712	-0.7999051666	 0.6361094162	 0.419262
O	 2.4856457784	-0.5800621387	-0.4811015703	-0.353111
O	 2.8854640998	-1.2184565989	 1.645425644	-0.231892
C	 4.2679140606	-1.4077029887	 1.3103146862	-0.241925
H	 0.9635690156	 1.4600812048	-0.5422733344	 0.136682
H	-0.7893119286	 1.5235093947	-0.8576524961	 0.131627
H	-0.1759094602	 1.8411739582	 0.787347507	 0.10739
H	 0.653866058	-0.0195143027	 2.020724658	 0.096524
H	 0.1392886424	-2.6965497645	 0.6344365645	 0.101219
H	 0.6347325632	-2.4600378413	 2.3276503614	 0.125101
H	-1.7106537268	-1.3621292707	 1.2543162246	 0.290439
H	 4.372416301	-2.1513013216	 0.516577427	 0.144945
H	 4.7124060552	-0.4681369568	 0.9728590991	 0.142858
H	 4.7503325787	-1.7523536262	 2.2246191867	 0.137559
