21
gdb 120154	2.83393	0.97814	0.87637	2.2352	78.71	-0.2498	0.0726	0.3224	1412.0788	0.18211	-424.182697	-424.173276	-424.172332	-424.217446	35.246	
O	 0.0055703994	 1.3713777444	 0.0278125017	-0.421987
C	-0.0725790188	-0.0290363625	 0.2517526941	-0.064281
C	-1.4108441902	-0.5200112025	-0.2893408847	-0.21175
C	-1.5570883014	-2.0230162761	-0.1506472138	-0.003553
C	-1.9090658038	-2.7624813801	 1.1116680038	-0.069384
C	-2.9621332578	-2.0043126217	 1.9287911977	-0.288143
C	-3.9412781368	-2.128170079	 0.707649631	 0.122497
O	-4.4925817093	-0.9654732913	 0.1250736386	-0.424813
C	-2.8479254403	-2.8008903798	-0.1113239294	-0.107038
H	 0.8490938717	 1.68264199	 0.3683437676	 0.282612
H	 0.7520648733	-0.5591868699	-0.2542378066	 0.076556
H	 0.003363644	-0.2671645457	 1.325557478	 0.084304
H	-2.2226785523	 0.0070370388	 0.2145449281	 0.122935
H	-1.4819690717	-0.2432354882	-1.3479907528	 0.104279
H	-0.8090823898	-2.5700720828	-0.725237191	 0.081677
H	-1.293639685	-3.5656272608	 1.4983180516	 0.082431
H	-3.315682303	-2.5488149086	 2.8073276826	 0.097302
H	-2.6987389753	-0.9852722393	 2.2273449352	 0.100827
H	-4.7330045987	-2.8530076328	 0.9414941783	 0.072644
H	-5.1873651236	-0.6377334197	 0.7052463101	 0.282237
H	-3.0291920406	-3.6119977923	-0.80696363	 0.080647
