21
gdb 37441	2.47168	1.88982	1.85864	1.5211	79.6	-0.2373	0.0793	0.3166	923.0226	0.187451	-387.092596	-387.085869	-387.084924	-387.123176	29.098	
C	-0.0502882126	 1.5144794696	-0.0993683781	-0.326059
C	 1.2968693135	 0.8403778602	 0.0329688344	-0.024844
C	 0.0280472789	 0.0163593059	 0.0121463693	-0.016025
C	-0.1614383143	-0.648487239	 1.3748387778	 0.083374
C	 1.0045774654	-1.6321831877	 1.6000942574	-0.208147
C	 2.3427827129	-0.8376557454	 1.5213068086	-0.203098
C	 2.0082622733	 0.6676662966	 1.3750284841	-0.043492
C	 1.0736961893	 1.037462661	 2.5291155306	-0.081053
O	-0.1659215876	 0.324891039	 2.4214199617	-0.278089
H	-0.4699431347	 2.0711351773	 0.728924619	 0.129311
H	-0.2865431834	 1.9210961574	-1.0767543504	 0.104501
H	 1.9413118336	 0.8407510743	-0.8411204165	 0.07944
H	-0.2170948193	-0.5930030868	-0.8525908042	 0.079382
H	-1.1280088647	-1.1539162619	 1.4513050936	 0.072254
H	 0.8826981858	-2.1046975232	 2.5792910723	 0.101254
H	 0.9666866048	-2.4287746473	 0.8497666021	 0.094753
H	 2.9455597711	-1.0026949059	 2.4204489843	 0.093496
H	 2.9463212692	-1.165305891	 0.6690537827	 0.09329
H	 2.9152266413	 1.2776446983	 1.4355132819	 0.062893
H	 1.5479424015	 0.7927538917	 3.4912323784	 0.089115
H	 0.8500785162	 2.1116458771	 2.5348819311	 0.097746
