21
gdb 80899	2.03368	1.66134	1.42834	1.8473	79.	-0.2484	0.0676	0.316	1079.1677	0.180356	-424.169687	-424.159916	-424.158972	-424.203889	37.351	
C	-0.1099882744	 1.5807309863	 0.1230206259	-0.461888
C	-0.0514972425	 0.0510496203	-0.0073019557	 0.286497
C	-1.50281087	-0.4160530162	-0.1882205378	-0.483424
C	 1.0908926765	-0.587543415	-0.8859661316	-0.162517
C	 2.1205070609	-0.1328036195	 0.1971503759	-0.282354
C	 0.9246878957	-0.7318379684	 0.9782689529	 0.338156
O	 0.8653282438	-0.8089525509	 2.3568162056	-0.474292
C	 1.0252830342	-1.9064867634	-0.0355213541	 0.073828
O	-0.0252339573	-2.8409745955	-0.0894306621	-0.440416
H	 0.848354382	 2.0782145673	 0.2680394131	 0.112796
H	-0.5721434136	 2.0139334824	-0.7713022206	 0.111354
H	-0.7461821456	 1.8503075755	 0.9735701535	 0.118187
H	-1.9553114602	 0.1110779203	-1.0367820561	 0.104385
H	-1.6044970985	-1.483934563	-0.3499350236	 0.141142
H	-2.0914276509	-0.1425721745	 0.696627819	 0.10395
H	 1.2133292098	-0.508212221	-1.9649121065	 0.071449
H	 3.0529062504	-0.7001704203	 0.2464651256	 0.092082
H	 2.3123393971	 0.9300819314	 0.294813139	 0.106411
H	 0.1193687911	-1.3733715054	 2.5895483536	 0.290026
H	 1.9847863726	-2.4375262814	 0.0067952704	 0.067882
H	 0.1879751888	-3.4889342989	-0.7674870761	 0.286746
