19
gdb 52092	3.52109	1.03112	0.94007	3.3131	76.25	-0.2371	-0.0296	0.2074	1286.4041	0.15927	-419.118941	-419.110508	-419.109564	-419.153396	31.315	
O	 0.5728109412	 1.2283565647	 1.3546403066	-0.23741
C	 0.4805970079	 1.725489298	 0.2635697866	 0.17768
C	 1.3718138438	 1.3741519981	-0.9202173496	-0.271718
N	 1.560189294	 2.5240811481	-1.794397755	-0.419409
C	 2.524101385	 3.4777310084	-1.3430346229	 0.333709
C	 4.0454178245	 3.3617927723	-0.9870370848	-0.218603
N	 3.7535505746	 4.8486847404	-0.7521817688	-0.13143
C	 2.9427658416	 4.774105722	-2.0578772484	-0.22072
C	 2.4582330292	 4.3673851576	-0.0780956887	-0.202171
H	-0.2932576129	 2.488505698	 0.0199625039	 0.085584
H	 2.298756608	 0.9194686845	-0.5381863291	 0.117777
H	 0.835836598	 0.5979699286	-1.4828257189	 0.130646
H	 1.7646675165	 2.2329009105	-2.7431335757	 0.226955
H	 4.3336094502	 2.8291536773	-0.0772344277	 0.106622
H	 4.7537646998	 3.1813852478	-1.8006975953	 0.097493
H	 3.5672693901	 4.6937319967	-2.9525113363	 0.098444
H	 2.1981493898	 5.5682961435	-2.1572555421	 0.106226
H	 1.6791306845	 5.1330892292	-0.0326933059	 0.106004
H	 2.6234531245	 3.9026943545	 0.8973722422	 0.114323
