14
gdb 42813	4.22119	1.20332	1.18259	2.1597	66.1	-0.2575	-0.0486	0.2089	1029.7849	0.10143	-436.67331	-436.666246	-436.665301	-436.705063	26.643	
O	 0.0070701419	-0.0047482259	 0.0103788514	-0.294525
C	-0.0247475757	 1.1831333972	-0.0289889676	 0.437223
C	-1.0602116448	 2.3291584917	 0.0594878493	-0.017848
C	-0.0285390223	 2.9847983351	 1.0141410131	-0.266085
C	 1.0114747473	 2.3471785218	 0.0291703147	-0.196312
C	 0.6129352557	 3.0581371723	-1.2829582113	-0.041301
O	-0.8353519594	 3.0125194734	-1.1924636613	-0.276496
C	 1.0767956797	 4.4479681908	-1.381504338	 0.299732
N	 1.463452923	 5.5343640101	-1.4512760348	-0.31653
H	-2.1243409174	 2.2251285588	 0.2473805465	 0.118645
H	-0.0523158486	 4.0745901934	 1.0626239977	 0.149661
H	-0.0020263454	 2.5362589041	 2.008212454	 0.137878
H	 2.0674824646	 2.2148515622	 0.2447390985	 0.122047
H	 0.9472109315	 2.5125193449	-2.1726064623	 0.143911
