23
gdb 80907	2.38012	1.38402	1.31652	1.2125	86.29	-0.2505	0.0749	0.3253	1175.6757	0.203848	-388.243122	-388.233027	-388.232083	-388.277538	38.708	
C	-0.3591497623	 1.4874233313	 0.8907016067	-0.459167
C	-0.0747879263	 0.0432390828	 0.4940461798	-0.009493
C	 1.2213273512	-0.3746021767	-0.2801994097	-0.110356
C	 2.0137879897	-0.1483902844	 1.0404471279	-0.323482
C	 0.7217921184	-0.942274731	 1.423232461	 0.354299
O	 0.3521256275	-1.4472967624	 2.6593217407	-0.479972
C	 0.9637672752	-1.8662932045	 0.1804641658	 0.333682
C	-0.2184447115	-2.6460618034	-0.4153996226	-0.476444
C	 2.1447175788	-2.846272534	 0.2252926783	-0.473103
H	 0.4994180979	 2.0282427617	 1.2949295227	 0.116255
H	-0.7205453956	 2.0524317446	 0.0242486965	 0.119842
H	-1.1547103452	 1.5200215577	 1.6449633826	 0.113579
H	-0.9948457261	-0.3763675054	 0.0904838625	 0.063008
H	 1.5160868159	-0.0435561261	-1.2750611542	 0.06919
H	 2.9748353254	-0.6433378752	 1.1535378144	 0.094733
H	 2.08452581	 0.8794918271	 1.3944571796	 0.085958
H	 0.2740338949	-0.7151653724	 3.2804755813	 0.281672
H	-1.1002099138	-2.0510985386	-0.6502590603	 0.116328
H	 0.0946411987	-3.1380746982	-1.3428620023	 0.110597
H	-0.5292541012	-3.4350060974	 0.27844267	 0.125271
H	 1.8505590155	-3.7489619542	 0.77185988	 0.121608
H	 2.4124769596	-3.1583959757	-0.7904634589	 0.111401
H	 3.0473440432	-2.4638855757	 0.7000008684	 0.114593
