16
gdb 49655	2.71892	1.80907	1.64054	3.2401	67.55	-0.2331	-0.0166	0.2166	883.7613	0.124557	-437.837759	-437.830734	-437.82979	-437.86917	27.261	
O	-0.2908832566	 0.2447972926	-0.2416381223	-0.262428
C	-0.1430370995	 1.4392101698	-0.186004529	 0.155996
C	 1.1951775366	 2.1060900879	 0.0299858223	-0.099915
C	 1.5563365263	 2.9679575266	 1.1920136763	-0.077435
C	 0.6986574983	 2.8828904609	 2.4266013541	 0.021771
O	-0.3972182532	 1.9674338544	 2.2978498853	-0.241244
C	 0.8002099037	 1.5092811018	 2.9484837684	 0.037483
C	 1.7563143939	 0.7346330125	 2.0547167257	-0.206389
N	 2.2102130612	 1.6467053861	 0.9732452253	-0.12448
H	-0.9725572581	 2.1415944125	-0.4163558166	 0.086171
H	 1.6183926494	 2.3972018903	-0.9361075176	 0.119669
H	 2.1717481311	 3.8535171555	 1.0616984267	 0.097506
H	 0.5180278762	 3.760800273	 3.0389236066	 0.110962
H	 0.6811509503	 1.2499797148	 3.9980544941	 0.108693
H	 2.6377099716	 0.4479364751	 2.6385381515	 0.116361
H	 1.3061498386	-0.1646565539	 1.6302958393	 0.157279
