14
gdb 21231	7.62975	1.11265	0.98529	3.1081	60.06	-0.2418	-0.0698	0.172	1130.7857	0.106866	-411.969305	-411.961824	-411.96088	-412.002031	25.654	
C	-0.041058028	 1.4870426885	-0.1357609219	-0.312022
N	-0.0090127454	 0.0335235556	-0.2137771445	-0.282707
C	-1.2093348334	-0.5867799649	 0.3056248987	-0.232294
C	-1.2084416691	-2.0632447301	 0.0913991213	 0.415453
N	-0.3800235342	-2.7238918856	-0.6634669906	-0.150515
O	-0.7866447453	-4.0145568791	-0.5692905793	-0.139633
N	-1.8882454192	-4.076794512	 0.2748692308	 0.046286
N	-2.1415158383	-2.9104450279	 0.6675789758	-0.204172
H	 0.8704558478	 1.8930045224	-0.5815407987	 0.129473
H	-0.9092283882	 1.9487470189	-0.6391562056	 0.100281
H	-0.0648857761	 1.7968855763	 0.9152498653	 0.128054
H	 0.153618184	-0.2696491872	-1.167460036	 0.238232
H	-1.2784344418	-0.4001836507	 1.385561422	 0.146015
H	-2.1511112332	-0.1889387941	-0.1237552571	 0.117548
