20
gdb 49909	5.44168	0.75777	0.72826	3.2514	81.7	-0.242	-0.0189	0.2231	1570.6183	0.170012	-403.111415	-403.102497	-403.101553	-403.146177	32.65	
O	 0.0197041901	-0.1303165873	-0.2509247503	-0.257381
C	-0.006318616	 1.0455946955	 0.0084724847	 0.171643
C	 1.1885152846	 1.9570486091	 0.0172521388	-0.090634
C	 0.9490371714	 3.2836660063	-0.7799518515	-0.265985
C	 0.6674858887	 4.0220908675	 0.5522945506	 0.082001
C	 1.2832009151	 2.8245233151	 1.3179050394	-0.265921
N	 1.3376387885	 5.2943602326	 0.7240240595	-0.064763
C	 0.5773016712	 6.4813185097	 0.3343420791	-0.225138
C	 0.8059790112	 6.1670423875	 1.7702536588	-0.225141
H	-0.9697503047	 1.5487583851	 0.2703044541	 0.064294
H	 2.0728599029	 1.3775897557	-0.2503032969	 0.094018
H	 1.8769341595	 3.6393028592	-1.232315469	 0.124415
H	 0.1595550502	 3.2808485667	-1.5357795865	 0.106565
H	-0.4174081864	 4.0987682507	 0.7418935397	 0.05624
H	 0.755266283	 2.4623703161	 2.2037268553	 0.106605
H	 2.3246354348	 3.0241457419	 1.5780361076	 0.124432
H	 1.1463226062	 7.2645335705	-0.1574696094	 0.120343
H	-0.4303711673	 6.3373667935	-0.0523693767	 0.112032
H	-0.0486578576	 5.8127656438	 2.3444988242	 0.112033
H	 1.5449305647	 6.7167159909	 2.3454914185	 0.120343
