16
gdb 48896	3.75888	1.4255	1.36746	3.8363	70.37	-0.2474	-0.0328	0.2146	961.4553	0.125315	-437.830487	-437.823777	-437.822832	-437.861751	26.651	
O	 0.0170530044	-0.0472394827	-0.209505364	-0.246251
C	 0.0763893603	 1.1227002925	 0.0699940317	 0.036439
C	 1.3036466149	 1.955356875	 0.0508501015	 0.316669
C	 1.708377454	 2.8246848133	 1.2600775539	-0.268531
C	 2.7041433028	 3.6714795165	 0.4317031155	-0.065403
N	 1.8543636211	 4.3770148763	-0.5623476067	-0.293126
C	 1.5955116311	 3.0703557475	-1.1316809564	-0.110641
C	 2.988410266	 2.582908374	-0.7163362758	 0.116823
O	 2.5524467687	 1.3044006355	-0.2725261	-0.301163
H	-0.8319553453	 1.7063354808	 0.3525076588	 0.069111
H	 0.9061256984	 3.4333631544	 1.6871978282	 0.102006
H	 2.1638967887	 2.2043519495	 2.0345062449	 0.12827
H	 3.476365093	 4.2456610767	 0.9399863859	 0.087835
H	 1.0557824728	 4.8796944149	-0.1774687921	 0.219132
H	 1.1113769643	 2.9525237441	-2.0991422213	 0.10373
H	 3.8995654549	 2.6074560117	-1.3084083242	 0.105102
