20
gdb 61012	3.28731	1.0888	0.91433	3.6258	79.31	-0.2374	-0.015	0.2224	1305.8747	0.17006	-403.112063	-403.103067	-403.102122	-403.146405	33.257	
C	 0.2514181192	 1.3438987967	-0.1565535814	-0.398618
C	 0.1091838571	-0.1709922555	-0.007425415	-0.085898
C	 0.815045374	-0.6871758118	 1.2290164204	 0.1461
O	 1.4083237424	-0.0053586107	 2.0271345114	-0.249498
C	-1.3580562079	-0.6353044115	 0.0078091338	 0.01343
C	-2.2009820413	-0.4706584101	-1.3150424876	-0.251255
C	-2.4580311135	-1.9794259845	-1.2917453654	-0.041857
N	-1.1246807417	-2.6252758977	-1.3561841035	-0.331108
C	-1.6518567181	-2.1462448049	-0.0537019389	-0.07807
H	 1.3043421941	 1.6357345468	-0.1729706089	 0.128032
H	-0.2190256877	 1.6911479523	-1.0807330423	 0.112601
H	-0.2157570966	 1.8648499505	 0.6848769085	 0.123428
H	 0.5804901284	-0.6872904025	-0.8570876735	 0.115491
H	 0.7488053514	-1.7913444828	 1.3674768011	 0.073924
H	-1.8867740341	-0.1742920327	 0.8483397215	 0.083407
H	-3.0991842732	 0.1307127846	-1.1632137651	 0.10736
H	-1.6601968122	-0.1091325045	-2.1934071364	 0.109744
H	-3.3440237566	-2.5086754486	-1.6197659368	 0.09651
H	-1.2781799518	-3.632797943	-1.3861714384	 0.230554
H	-1.7814309019	-2.8315305802	 0.7751003067	 0.095723
