16
gdb 105136	2.56204	1.24969	1.01055	5.0117	77.76	-0.2666	0.002	0.2686	1202.6499	0.121339	-400.697858	-400.68852	-400.687576	-400.73208	33.587	
C	 0.0893706169	 1.2870615279	-0.2361542653	-0.256419
O	-0.0592801305	-0.0373629233	 0.2585210599	-0.261592
C	-1.3326920048	-0.5646055273	 0.0956832574	 0.244674
C	-1.6683036852	-1.1747960665	-1.2478295991	-0.337346
C	-1.3608652376	-2.0842795356	-0.0688118639	-0.255983
C	-0.1269596495	-2.8168768264	-0.0312919856	 0.316259
N	 0.8497909271	-3.4349021258	-0.0011321265	-0.335087
C	-2.3837606934	 0.0440105212	 0.8742088526	 0.298458
C	-3.2497723567	 0.5702048579	 1.5210076668	-0.452181
H	 1.1296878977	 1.5642040545	-0.059671894	 0.142476
H	-0.123633954	 1.3384986374	-1.3125318802	 0.114013
H	-0.5705926504	 1.9858593814	 0.292330121	 0.129199
H	-2.6928515254	-1.1439691076	-1.5971697982	 0.141743
H	-0.9008005904	-1.0929577635	-2.008083783	 0.151687
H	-2.1995597075	-2.5919542305	 0.3937741965	 0.151986
H	-4.0136420563	 1.0293439063	 2.0991501818	 0.208114
