22
gdb 88463	2.72399	1.23522	1.17124	2.0276	81.97	-0.225	0.0729	0.2979	1205.7692	0.192929	-404.294444	-404.285063	-404.284119	-404.32831	35.729	
C	 1.6050612628	-0.6362512606	-0.9209721698	-0.422192
C	 0.3568098077	-0.3073860614	-0.1281754724	 0.022613
C	-0.1412266065	-1.2339479882	 0.934271269	-0.268363
N	 0.3635836749	 0.085938556	 1.2779855421	-0.129165
C	 1.5646387606	 0.3022691992	 2.0591700622	 0.288986
C	 2.1382086808	 1.6756873105	 1.7171226446	-0.431944
C	 1.3615461737	 0.105492263	 3.5808521277	-0.105183
O	 2.5902821792	-0.6417195858	 3.6886470443	-0.277265
C	 2.686083005	-0.7716096837	 2.2591466252	-0.129958
H	 2.321239598	-1.2310319994	-0.3491374364	 0.128493
H	 1.3334842276	-1.2131901142	-1.8117611305	 0.124603
H	 2.1123186613	 0.271885342	-1.2634986476	 0.12615
H	-0.3902480705	 0.2342145602	-0.7084107935	 0.090569
H	-1.2061395615	-1.3887180924	 1.0915611947	 0.113699
H	 0.4716140184	-2.1089551155	 1.1442741074	 0.111828
H	 1.3650132524	 2.4421807915	 1.8221029502	 0.125398
H	 2.9694481264	 1.91707996	 2.3858885729	 0.126117
H	 2.5097826066	 1.7038099108	 0.6880341369	 0.116259
H	 1.3631215243	 1.0057229518	 4.2058115871	 0.101637
H	 0.4840410582	-0.5081354909	 3.8245618586	 0.097912
H	 2.4310418649	-1.7875751306	 1.9314211391	 0.09117
H	 3.6833851555	-0.5154114624	 1.8821869781	 0.098636
