19
gdb 110737	2.16111	1.30812	1.244	3.4886	76.29	-0.2333	-0.0116	0.2217	1174.7365	0.157327	-423.014828	-423.005572	-423.004628	-423.049187	34.299	
C	-0.3270352764	 1.3785817681	-0.1497661736	-0.378183
C	 0.2296493823	-0.0311729347	 0.0830874304	-0.214043
C	 0.7546444994	-0.6607324276	-1.1946652996	-0.068045
C	 0.9338413087	-2.1215888867	-1.4701201791	-0.148012
C	-0.1913061665	-2.9491258699	-0.8370340905	-0.360257
C	-1.1877863918	-2.1508132057	-1.7254738911	 0.340039
O	-2.3387064055	-2.3170673195	-2.0136997117	-0.317722
C	-0.094351854	-1.2858651463	-2.2982592919	 0.263671
O	-0.0182366877	-0.8764284615	-3.6094900143	-0.447264
H	 0.4342455816	 2.0415094907	-0.576032676	 0.11442
H	-1.1773720689	 1.3567292479	-0.8399248377	 0.121688
H	-0.6709066381	 1.8271692792	 0.7867872262	 0.120224
H	 1.047366201	 0.0116861486	 0.8140898206	 0.103725
H	-0.5483442544	-0.6565858036	 0.5314062278	 0.111496
H	 1.5411179708	-0.0701410096	-1.6668978189	 0.097387
H	 1.8638413359	-2.5297075658	-1.8432408694	 0.110466
H	-0.1875248664	-3.9987654735	-1.1454810881	 0.133516
H	-0.3170569712	-2.8967792488	 0.2469075758	 0.120587
H	-0.2796779689	 0.0487871288	-3.664381439	 0.296306
