23
gdb 92446	2.15666	1.68754	1.38973	1.5183	83.11	-0.2475	0.0635	0.311	1093.0634	0.208789	-388.314832	-388.30647	-388.305526	-388.347198	34.096	
C	-0.27505552	 1.5097406561	-0.0275738966	-0.422868
C	 0.0309346635	 0.0123627771	-0.0125099131	 0.045145
C	 0.7806921226	-0.5163481643	-1.2860947804	-0.255402
C	 1.95959006	-1.3351479901	-0.7050946393	-0.035086
C	 3.001856796	-0.349379071	-0.1380689705	-0.21536
C	 2.2958062664	 0.217025551	 1.1416778896	-0.222109
C	 0.93163095	-0.503113116	 1.1419673162	-0.044979
C	 1.3493308511	-1.8959969114	 0.6020542235	 0.166004
O	 0.3308106061	-2.8653540779	 0.4674692481	-0.46265
H	 0.6270733199	 2.1125276681	-0.1736117239	 0.116624
H	-0.9637586238	 1.7545805064	-0.8434455004	 0.112292
H	-0.7442445231	 1.8304517919	 0.9090662568	 0.112821
H	-0.9323181509	-0.5066733326	 0.0758520506	 0.062261
H	 0.1267218522	-1.1301019072	-1.9156900519	 0.087886
H	 1.1372130066	 0.3024562686	-1.9194404758	 0.096605
H	 2.3704236732	-2.0797347287	-1.3894256112	 0.058647
H	 3.9314797392	-0.8654565986	 0.1199816267	 0.096385
H	 3.2564286577	 0.4330963632	-0.8589115052	 0.093918
H	 2.8584425013	-0.0385401327	 2.0446614165	 0.097856
H	 2.2040228482	 1.305245063	 1.1269971487	 0.09877
H	 0.4307877077	-0.510162255	 2.1125023987	 0.056319
H	 2.1047781348	-2.3672467194	 1.2388664843	 0.075562
H	-0.3143454788	-2.5533685106	-0.1738879311	 0.28136
