14
gdb 19641	5.34514	1.78525	1.65185	3.5291	66.75	-0.2353	-0.0179	0.2174	782.2003	0.10664	-345.301824	-345.295736	-345.294791	-345.332109	23.667	
O	-0.1562652266	 0.0506575558	 0.158761183	-0.279194
C	 0.0232005931	 1.2258406349	-0.0728981962	 0.008498
C	 1.3057957606	 1.9016313745	-0.019424039	 0.318252
C	 2.7549189473	 1.4728901713	 0.3040266926	-0.168675
C	 3.0557917859	 2.868283973	 0.8319020158	-0.082545
C	 3.2880889347	 2.5448190395	-0.6356682297	-0.082535
C	 1.8382644348	 3.0160915008	-0.9569923729	-0.14674
C	 1.6098287606	 3.3351874307	 0.487621125	-0.146709
H	-0.8212009408	 1.8997056635	-0.3546629968	 0.058615
H	 3.1755344722	 0.5172623905	 0.5811958497	 0.108388
H	 3.7545429686	 3.185325572	 1.5927599022	 0.100824
H	 4.1991895389	 2.5662313405	-1.2162795956	 0.100818
H	 1.3613242362	 3.4023957762	-1.8477993496	 0.105501
H	 0.9178538145	 4.0218694668	 0.9565286716	 0.105501
