18
gdb 68177	4.10081	1.12443	1.02605	4.8771	85.21	-0.2465	-0.0473	0.1992	1198.1048	0.148827	-364.809269	-364.801521	-364.800577	-364.841319	30.598	
C	 0.0005631276	 1.5484632871	 0.0215660299	-0.505677
C	 0.0236184975	 0.0376840152	 0.0276730386	 0.293274
C	 0.9552200825	-0.8167318352	-0.9152338761	-0.24444
C	 0.6004955932	-1.9377560895	 0.1136711435	-0.128778
C	 0.6539673964	-0.8127851051	 1.1965926519	-0.244441
C	-0.925803738	-2.0202588719	-0.10383796	 0.253685
C	-1.2914231033	-0.7283280454	-0.1585373963	-0.231762
C	-1.6979967862	-3.1945912589	-0.2117266511	 0.16205
N	-2.3064031469	-4.1782539417	-0.296635805	-0.352764
H	 1.0054788671	 1.9573549889	 0.1640476667	 0.121419
H	-0.3858974279	 1.934804444	-0.9279968103	 0.125179
H	-0.6356190482	 1.9380712726	 0.8239121292	 0.125181
H	 0.6363583652	-0.9578341375	-1.9505199325	 0.104696
H	 2.0028624812	-0.5037618935	-0.8682140379	 0.101801
H	 1.1562570968	-2.8693753524	 0.1946934587	 0.085573
H	 1.6731387095	-0.4994596033	 1.4432342387	 0.1018
H	 0.0582715812	-0.9502539903	 2.101937386	 0.104697
H	-2.2745355576	-0.301503233	-0.299628494	 0.128505
