17
gdb 39227	2.65559	2.30014	1.64117	1.692	71.21	-0.2272	-0.0035	0.2238	853.0426	0.138198	-421.782579	-421.776249	-421.775305	-421.81277	27.131	
C	-0.0755422613	 1.4700352401	 0.1017248392	-0.406576
C	 1.3193957662	 0.8656225491	 0.0104455228	-0.074339
C	 2.1900432567	 0.3370301227	 1.1405905655	-0.081753
O	 2.2282989726	-1.110550734	 1.1016049769	-0.297398
C	 0.9289152926	-1.7021150866	 0.9629197521	 0.128075
O	-0.0461788621	-0.7077567972	 1.1778933374	-0.255147
C	 0.0596128284	 0.0030792213	-0.0508446292	 0.392945
C	 0.0751393781	-1.0729556832	-1.0960094424	-0.190374
C	 0.6420797442	-2.1209906411	-0.4960182969	-0.101147
H	-0.4603026929	 1.8091220276	 1.0584497988	 0.13288
H	-0.3864553203	 2.0658195282	-0.7494383971	 0.126044
H	 1.8222766668	 1.0253740913	-0.937912466	 0.096189
H	 3.2325786254	 0.6436108711	 1.0312051863	 0.108741
H	 1.8321390189	 0.6775765088	 2.1183332724	 0.106939
H	 0.8307665932	-2.4877752046	 1.7156786233	 0.085318
H	-0.1933958233	-0.9485679905	-2.1357176625	 0.117438
H	 0.9280423367	-3.0691979629	-0.9281145506	 0.112167
