18
gdb 17535	3.87113	1.83981	1.61918	2.1226	72.05	-0.2242	0.0738	0.298	866.4779	0.154569	-343.900786	-343.893517	-343.892572	-343.931973	28.438	
C	-0.0938317792	 1.5276176681	-0.0176248162	-0.306727
N	 0.1043584978	 0.0883390358	 0.0806775806	-0.079503
C	 1.3747241264	-0.5580470126	-0.1483096427	-0.038438
C	 2.5824464165	 0.2514927147	 0.3762926887	-0.35227
C	 1.909369972	 0.2364005711	 1.7652567306	 0.355477
C	 2.5875068764	 0.0648362627	 3.0654520387	-0.313838
N	 1.8181572947	 1.2945943641	 2.7720151332	-0.365138
C	 0.7258814724	-0.5481740026	 1.221712189	-0.112769
H	 0.737098025	 2.1421468611	 0.3513512059	 0.10689
H	-0.2735638307	 1.7825429507	-1.0669336052	 0.118184
H	-0.9856463722	 1.793831384	 0.5567232939	 0.129586
H	 1.4296435932	-1.3594615701	-0.8767152431	 0.094982
H	 3.5137646802	-0.3200233846	 0.3533779264	 0.111756
H	 2.7534866577	 1.2269768905	-0.0908561213	 0.101102
H	 2.1506134416	-0.5709583258	 3.831716286	 0.119578
H	 3.6735015813	 0.1166712066	 3.0866218307	 0.110392
H	 2.4569912146	 2.0516190238	 2.5373933064	 0.228837
H	 0.1810589024	-1.3235104075	 1.7502976583	 0.091902
