23
gdb 115976	2.51476	1.1552	0.83714	1.0341	89.03	-0.2297	0.0322	0.2619	1451.7955	0.205844	-388.309804	-388.300162	-388.299217	-388.344263	36.285	
C	 0.0307437611	 1.3631642584	 0.1790333465	-0.239164
O	-0.0208935537	-0.0091382249	-0.1306557536	-0.246238
C	-1.3162433256	-0.5861611281	-0.0686381283	 0.131105
C	-1.245218934	-1.9382029635	-0.7705746429	-0.217931
C	-2.6301658791	-2.5960071033	-0.829600465	-0.26549
C	-3.3681524505	-2.4880020366	 0.4785769554	-0.133007
C	-3.0139056416	-1.6785635464	 1.4798172832	 0.315446
C	-3.7715188245	-1.6232088875	 2.7789286659	-0.474577
C	-1.8145519672	-0.7595435935	 1.3742024344	-0.309157
H	 1.0525702562	 1.699198686	-0.0160279864	 0.124377
H	-0.6589331487	 1.9485063795	-0.4502661382	 0.10042
H	-0.2065186621	 1.5723079726	 1.2324962004	 0.104914
H	-2.0263512378	 0.0623714535	-0.6123754924	 0.060609
H	-0.8281902588	-1.8054796129	-1.7732888065	 0.098002
H	-0.5494074118	-2.5776634671	-0.2139123785	 0.104049
H	-3.231895996	-2.1392434898	-1.6301813146	 0.105473
H	-2.529187608	-3.6512957028	-1.1129429082	 0.102857
H	-4.2468105505	-3.1196667862	 0.5961213207	 0.073281
H	-4.6024753756	-2.3336460803	 2.7944788767	 0.118189
H	-3.1147581745	-1.8491889952	 3.6294344992	 0.1208
H	-4.1764680846	-0.6189549103	 2.960552466	 0.118892
H	-0.9845718778	-1.1515226772	 1.9808728423	 0.111838
H	-2.0693639649	 0.2140797558	 1.8123878439	 0.095311
