16
gdb 6334	3.61013	1.23837	1.07064	2.2408	62.92	-0.2505	-0.042	0.2085	1121.2392	0.126439	-420.903644	-420.89425	-420.893306	-420.938959	31.753	
C	 0.2483415733	 0.8980355114	 0.1647217856	-0.479069
C	-0.6773504212	 0.0397238916	-0.6655458114	 0.383937
O	-0.4842780803	-0.2248272339	-1.8283244827	-0.294665
C	-1.8829951346	-0.5520713811	 0.0827928014	-0.392189
C	-1.4299286961	-1.8871079117	 0.6888570932	 0.37455
O	-0.8415107908	-1.9456853018	 1.7379063481	-0.281408
C	-1.7319710376	-3.0952963009	-0.1811871813	-0.175892
O	-1.16461149	-4.2466418163	 0.3790749816	-0.395511
H	 1.1504330432	 1.1393456599	-0.3981662434	 0.143567
H	-0.2654896914	 1.8232015671	 0.4516011812	 0.143714
H	 0.497791039	 0.3729917403	 1.0934386509	 0.168363
H	-2.2000980423	 0.1013911659	 0.8979528961	 0.133152
H	-2.6932248438	-0.6976607474	-0.6348971935	 0.12843
H	-2.831565954	-3.1581873626	-0.2756404014	 0.111629
H	-1.3492951377	-2.8605172265	-1.1900278626	 0.135257
H	-1.3205713659	-4.9799460943	-0.2229799319	 0.296134
