13
gdb 24869	2.02367	2.00524	1.0072	1.8273	63.03	-0.2681	-0.0074	0.2607	1062.6095	0.092848	-486.181888	-486.174642	-486.173697	-486.21397	27.198	
N	-0.1049015082	 1.33952316	 0.0107477588	-0.551932
C	 0.0035762996	 0.0741851609	 0.0032431712	 0.472333
N	 1.1754487454	-0.6802682527	-0.0071876855	-0.42426
C	 1.2743083023	-2.0642436967	-0.0153633882	 0.490902
O	 2.3290823853	-2.6503900579	-0.0242989764	-0.373694
N	 0.042154823	-2.6984832401	-0.0123722346	-0.42862
C	-1.2093162614	-2.0895741302	-0.0022731563	 0.499017
O	-2.2436937126	-2.7106804344	-0.0001960538	-0.374517
N	-1.1420039954	-0.7111344038	 0.0051016572	-0.385972
H	 0.7992079875	 1.8052361559	 0.0084268419	 0.223175
H	 2.0590779565	-0.1948402698	-0.0092337009	 0.276562
H	 0.0520201038	-3.7074448711	-0.0180122649	 0.287662
H	-2.0206394859	-0.2151027299	 0.0124759716	 0.289344
