16
gdb 29612	3.20346	1.24067	0.95079	1.7103	72.13	-0.1958	-0.0321	0.1638	1181.8075	0.124012	-437.912975	-437.904392	-437.903448	-437.946846	31.265	
N	 0.3554904557	 1.3418645225	 0.3741120261	-0.615659
C	 0.1242058334	-0.0079109128	 0.1118820181	 0.136087
C	-1.0693218491	-0.6464344225	-0.0624138831	-0.076141
O	-0.8710458414	-1.9939578587	-0.2238704206	-0.144423
C	 0.4565747742	-2.2088221959	-0.1425479946	-0.104421
C	 1.1331104469	-1.0426618343	 0.050653752	 0.186846
C	 2.6201746117	-0.8433920162	 0.1379285723	-0.405367
C	 2.9917356964	-0.253361313	 1.488110451	 0.162511
O	 3.2085796067	 0.9190278859	 1.6674257931	-0.241253
H	 1.323642265	 1.6244208097	 0.3198722164	 0.257441
H	-0.2515908293	 1.9827777683	-0.1147034601	 0.24674
H	-2.0919785421	-0.3121448105	-0.0915620737	 0.124904
H	 0.7841638618	-3.2294855896	-0.2595969349	 0.134269
H	 3.1288760091	-1.8048792301	 0.0077575096	 0.120379
H	 2.9746796207	-0.1522662094	-0.6360030671	 0.125638
H	 3.0095589302	-0.9772764133	 2.3318845157	 0.09245
