17
gdb 93208	2.85309	1.35267	0.95561	4.4109	71.82	-0.266	-0.0447	0.2213	1194.7427	0.135375	-459.006011	-458.997278	-458.996334	-459.039448	32.009	
C	 0.0563991005	 1.5215414278	-0.0930569147	-0.473774
C	-0.02356546	 0.022873616	-0.0638096937	 0.14937
C	-1.1581568924	-0.6787915217	 0.0243208424	-0.187411
C	-1.1614797312	-2.184809125	 0.0556558925	 0.038197
O	-2.262738384	-2.7464100796	-0.6441392322	-0.421716
C	 0.0852952484	-2.6832141886	-0.6642573646	-0.083132
O	 1.2729543675	-2.045694482	-0.1863573955	-0.238858
C	 1.2873966546	-0.6944400001	-0.045164466	 0.393169
O	 2.3366678802	-0.1324360366	 0.1359307665	-0.331223
H	 0.6466089557	 1.8920725194	 0.7502613991	 0.151188
H	 0.5657395412	 1.8658947504	-0.9992219951	 0.143501
H	-0.9400397753	 1.9685757852	-0.0586821805	 0.116935
H	-2.1209231841	-0.1746791368	 0.0862148328	 0.099731
H	-1.1474434379	-2.5353157972	 1.1013194173	 0.095354
H	-3.0585181432	-2.6092163586	-0.1212751595	 0.292569
H	 0.2347083504	-3.752910815	-0.5108643973	 0.130412
H	-0.0374188404	-2.4948942477	-1.7380945513	 0.125687
