20
gdb 121305	4.32717	0.80202	0.7039	2.7982	75.8	-0.2449	0.0275	0.2723	1570.5302	0.17219	-440.29079	-440.281681	-440.280737	-440.325396	32.983	
O	-0.1284655601	 1.4983595394	-0.100719418	-0.418481
C	 0.0387844011	 0.0909052843	-0.0360848468	-0.084761
C	-1.3517013828	-0.5284345665	 0.0652591627	-0.184251
C	-1.3720397223	-2.0614352934	 0.0667098123	-0.043919
C	-0.796459616	-2.6603442259	 1.3499862633	-0.072784
O	-0.8815641021	-4.0929049288	 1.3516600263	-0.227303
C	-1.9915215872	-4.6192946181	 0.7786504797	 0.127862
N	-2.9144510295	-4.0452094843	 0.1346987304	-0.273861
C	-2.7979361742	-2.6092186753	-0.0990054681	-0.16498
H	 0.7415684006	 1.9045432715	-0.1525789643	 0.287321
H	 0.5490883498	-0.2936076612	-0.9346820708	 0.088894
H	 0.6542543541	-0.1919295295	 0.832790845	 0.086777
H	-1.8426684242	-0.1451575675	 0.9690056745	 0.107325
H	-1.9412640605	-0.1613138213	-0.7834247139	 0.112807
H	-0.7676706396	-2.4317563231	-0.7730567767	 0.086826
H	 0.2635034747	-2.4336104241	 1.4834526834	 0.116637
H	-1.3414102272	-2.2769890198	 2.2242014176	 0.111602
H	-2.0096723779	-5.695892791	 0.939549218	 0.122052
H	-3.4839614249	-2.0858508174	 0.5826198366	 0.110066
H	-3.1638448118	-2.4013394081	-1.1111672311	 0.112171
