17
gdb 99498	2.43119	1.0974	0.78328	3.9863	70.26	-0.2699	-0.0497	0.2202	1411.3507	0.133555	-455.147787	-455.137684	-455.13674	-455.183834	34.734	
C	 0.5225723076	 1.4908912848	 0.320432176	-0.33057
N	 0.7494326125	 0.0468988037	 0.2344639986	-0.285699
C	 0.5723041043	-0.6641663635	 1.490411	-0.226534
C	-0.821903734	-0.6890608501	 1.9813421843	 0.295479
N	-1.934192555	-0.642592676	 2.2905602639	-0.316715
C	 1.1683602724	-2.0861913664	 1.4358176726	 0.336314
O	 0.7267532481	-2.9875782208	 2.1062673053	-0.297692
C	 2.3836100674	-2.3030281221	 0.5522786624	-0.118824
O	 2.9077837185	-3.5844192826	 0.7266928344	-0.419478
H	 1.2703115133	 1.9335066721	 0.9868407704	 0.134578
H	 0.6575437164	 1.9270647697	-0.672079389	 0.137392
H	-0.4764229187	 1.7635692053	 0.6916410739	 0.134694
H	 0.1368564023	-0.3536949566	-0.4691977462	 0.241203
H	 1.1761271581	-0.1417869268	 2.2483658456	 0.162868
H	 2.0863150153	-2.1212638375	-0.4925290513	 0.127655
H	 3.1282187132	-1.5249926301	 0.7828013469	 0.126938
H	 2.3060477881	-4.0382676533	 1.3365795421	 0.29839
