15
gdb 24068	6.95799	0.73342	0.69098	2.2994	72.11	-0.2556	-0.0144	0.2412	1526.2356	0.114113	-416.856752	-416.848799	-416.847855	-416.890652	27.867	
N	-0.0194933551	-1.1622793932	-0.1594466435	-0.29838
C	-0.0300967773	-0.0070420282	-0.1401681136	 0.257365
C	-0.0154679704	 1.4527029053	-0.1073246692	-0.335216
C	 1.400190106	 2.0165651164	 0.1793021126	-0.323261
C	 1.4193119022	 3.5015740967	 0.2027502109	 0.340258
C	 1.6861335657	 4.4477908377	 1.136182275	-0.194059
N	 1.5396654711	 5.7123662231	 0.5766889218	-0.250193
C	 1.1933965887	 5.4753161643	-0.64365349	 0.074525
O	 1.0967025295	 4.1614036164	-0.959308734	-0.182264
H	-0.3775129217	 1.8335650137	-1.0675925576	 0.169219
H	-0.7175769627	 1.7984534984	 0.658727269	 0.161693
H	 1.7539121841	 1.6484824767	 1.145790039	 0.145732
H	 2.0920335019	 1.637314881	-0.5811192754	 0.146843
H	 1.9769658412	 4.3133176209	 2.1660906389	 0.131643
H	 0.9770009469	 6.1795893807	-1.4315197539	 0.156095
