15
gdb 19501	3.41847	2.00216	1.82308	5.1981	64.84	-0.2643	0.0291	0.2934	783.8246	0.121023	-362.666132	-362.659522	-362.658577	-362.696985	24.816	
N	-0.1726651634	-1.1755820549	-0.1332329807	-0.350263
C	-0.0622493532	-0.0276883585	-0.0420325768	 0.311894
C	 0.0161823624	 1.4065833201	 0.031505718	-0.190872
C	 0.495829472	 2.1417586169	 1.2751400114	-0.075832
C	 1.2852302234	 1.3356332319	 2.290550627	-0.098632
O	 2.2602659803	 0.6205192301	 1.5417130984	-0.242918
C	 2.5852946123	 1.3628664952	 0.3729028117	-0.098632
C	 1.3392086177	 2.1594251849	 0.031120757	-0.07583
H	-0.7873694746	 1.8998293049	-0.5062549857	 0.136876
H	-0.0752635682	 3.0003114951	 1.6064488518	 0.109078
H	 1.7528426415	 2.0229905618	 3.0136267887	 0.101905
H	 0.6931103698	 0.5985086444	 2.8410780483	 0.131121
H	 3.4209941651	 2.0579339645	 0.5530354835	 0.101905
H	 2.8870841183	 0.6444672186	-0.3951236586	 0.131121
H	 1.4241241367	 3.0317202052	-0.6052098239	 0.109078
