16
gdb 16508	3.89046	2.42707	1.87378	1.6113	68.28	-0.2208	0.0019	0.2227	745.7651	0.131073	-346.559053	-346.552791	-346.551846	-346.588924	25.72	
C	-0.0307609689	 1.4922121099	 0.0425619189	-0.500437
C	-0.0082298707	-0.0106624393	-0.0721116662	 0.26968
C	 0.9518196153	-0.7321465786	-0.9451853271	-0.125526
C	 0.5378345178	-1.9902932074	-1.1571175651	-0.102806
C	-0.6777131027	-2.2150031185	-0.2986646367	 0.029673
O	-0.1626582163	-2.2056140851	 1.1078946779	-0.29818
C	-0.4931662353	-0.8431316219	 1.1862909586	 0.065813
C	-1.2976789573	-0.8067960945	-0.0626883245	-0.192664
H	 0.934501409	 1.8803324514	 0.3856094484	 0.123715
H	-0.2587461008	 1.9635865704	-0.9204345352	 0.123381
H	-0.7912325578	 1.823071585	 0.7582705007	 0.117187
H	 1.8916786587	-0.3021710444	-1.2722715857	 0.099136
H	 1.0778590842	-2.7785896619	-1.6644939563	 0.10298
H	-1.3051781748	-3.0884178278	-0.4664251825	 0.083384
H	-0.5843824225	-0.3944661752	 2.1688191961	 0.108654
H	-2.2857124779	-0.4381530421	-0.3110507713	 0.09601
