19
gdb 47894	2.44892	1.52795	1.07634	2.523	78.06	-0.2365	-0.0354	0.2011	1142.0971	0.160117	-423.035939	-423.027655	-423.026711	-423.069217	31.497	
O	-0.0345771292	 0.0442786025	-0.6384630009	-0.303704
C	-0.0445499549	 1.1709427619	-0.1885942109	 0.327732
C	-1.3637372245	 1.9199322371	-0.0098263762	-0.28468
C	-1.7029799254	 2.5076470867	 1.3695646264	-0.098329
O	-0.8734855941	 3.6070258618	 1.6966123244	-0.23488
C	 0.0300640289	 3.408022887	 2.7626337786	-0.061085
C	 1.0063919754	 2.2368143606	 2.5375963577	-0.297796
C	 1.7319599035	 2.3169537508	 1.2220429798	-0.026155
C	 1.2602545374	 1.8777982083	 0.055784505	-0.135291
H	-1.3534455601	 2.7591271866	-0.7185415788	 0.130224
H	-2.1571458133	 1.2298164279	-0.3136756921	 0.11735
H	-2.7365908811	 2.8736332845	 1.328599908	 0.112283
H	-1.6712474136	 1.7320349234	 2.145834457	 0.103826
H	 0.5810540972	 4.3499898959	 2.8500522042	 0.112959
H	-0.5084651619	 3.2452244628	 3.7102075135	 0.09288
H	 1.7203800966	 2.2323809278	 3.3685329372	 0.109085
H	 0.4575656494	 1.2912957177	 2.6064700955	 0.119942
H	 2.7217120836	 2.7680856449	 1.2380079317	 0.09977
H	 1.888173946	 1.9292555721	-0.8310990901	 0.11587
