21
gdb 119231	1.91694	1.2095	0.86414	2.4979	80.69	-0.2526	-0.0337	0.2189	1446.07	0.178993	-424.23062	-424.220146	-424.219202	-424.266751	37.166	
C	 0.2761239088	 1.7890118764	 0.3031515466	-0.384201
C	 0.4927014079	 0.2799111849	 0.1721880986	-0.165238
C	 0.2509909851	-0.4655160774	 1.494385702	-0.283547
C	 0.4701832531	-1.9549932276	 1.3652093544	 0.272449
O	 1.7866574362	-2.4275956261	 1.0032816983	-0.288268
C	 1.2980845788	-2.7773333634	 2.2907824423	 0.028809
C	 2.0115676281	-2.2299746739	 3.499711353	-0.426835
C	-0.6037219724	-2.7310981333	 0.6559339308	 0.131106
O	-1.7139248942	-2.3195605269	 0.4346692981	-0.260637
H	 0.9527642485	 2.2253016846	 1.0468011227	 0.111698
H	 0.4558828579	 2.298366627	-0.6484758294	 0.114557
H	-0.7492491934	 2.0165955906	 0.6145689886	 0.118407
H	-0.1786636117	-0.1225649415	-0.5948177202	 0.114289
H	 1.515149991	 0.0747637114	-0.1652040276	 0.111153
H	 0.8972476802	-0.0502013985	 2.2726335706	 0.098761
H	-0.7856592799	-0.3156222081	 1.8167163773	 0.122365
H	 1.0256185262	-3.832924114	 2.3765815419	 0.092183
H	 2.3226728022	-1.1946926468	 3.3538467145	 0.137004
H	 1.3661976315	-2.2876114394	 4.3823462228	 0.131823
H	 2.9069664353	-2.8276560734	 3.6993546971	 0.136348
H	-0.2732619794	-3.7481198145	 0.3461918275	 0.087775
