18
gdb 106075	3.00897	1.48451	1.33904	3.8736	76.53	-0.2145	-0.0546	0.16	1042.419	0.145944	-401.814318	-401.80629	-401.805346	-401.847072	30.814	
C	-0.3810547578	 1.4677822201	-0.0141368814	-0.377732
C	 0.1120209956	 0.0229990214	-0.1615240503	-0.322812
C	 0.7706041295	-0.5052779603	 1.0770857537	 0.234687
C	 1.159091535	-1.8605209024	 1.5674662025	-0.170461
C	 2.7091998954	-1.8751583166	 1.5317108189	-0.174428
N	 3.0671662922	-0.4996597797	 2.040121163	-0.236102
C	 1.9455707615	 0.0796870511	 1.9471510741	 0.230669
O	 1.149334447	 0.3437905095	 3.0730538525	-0.267264
C	 0.3505692374	-0.7659846221	 2.4501409278	 0.021678
H	 0.4486021521	 2.1470666764	 0.2060576304	 0.129384
H	-0.8608299835	 1.8106763485	-0.9352647902	 0.116872
H	-1.1068302715	 1.5563020312	 0.8000921926	 0.126635
H	-0.727299946	-0.6364420649	-0.4168142695	 0.10756
H	 0.8180201677	-0.0470972494	-0.9986681634	 0.114429
H	 0.5823875714	-2.7478077659	 1.3100835357	 0.093531
H	 3.1603293086	-2.5646428996	 2.2513264516	 0.134807
H	 3.0868291428	-2.1277148203	 0.5293680967	 0.110882
H	-0.6084955975	-0.9500416168	 2.9207677054	 0.127666
