16
gdb 97084	3.3372	1.09945	0.86938	3.0033	73.65	-0.2387	-0.0067	0.2321	1294.2442	0.125129	-434.086899	-434.078216	-434.077272	-434.121142	30.438	
C	-0.0072667693	 1.423899702	-0.1630400567	-0.333167
N	-0.0393587464	 0.0456979008	 0.2921737666	-0.362016
C	-1.1078726487	-0.6096183983	 0.2566647891	 0.500477
N	-1.2782286125	-1.9091958399	 0.724408734	-0.365538
C	-2.459420687	-2.4928098037	 0.1171453142	-0.20028
C	-3.2961427694	-1.2053111085	-0.0671312529	-0.010223
O	-2.3274505153	-0.1678501415	-0.2292706122	-0.25487
C	-4.1917412921	-1.2454977196	-1.2248145834	 0.27446
N	-4.9162192259	-1.3035685515	-2.1218808914	-0.304455
H	 0.7571910961	 1.5292320064	-0.9411241092	 0.125071
H	-0.9604266761	 1.7899134109	-0.5614487712	 0.124557
H	 0.2939753516	 2.0740996955	 0.6666734896	 0.124696
H	-0.4305395125	-2.4533486066	 0.7772264633	 0.264419
H	-2.2687492413	-2.9742353789	-0.8519882928	 0.132596
H	-2.9584022204	-3.2063928943	 0.7766277814	 0.138907
H	-3.8900419708	-1.0013584329	 0.8325691917	 0.145366
