23
gdb 13717	5.56657	0.78346	0.73302	1.1511	83.56	-0.2193	0.0906	0.3099	1651.588	0.210699	-330.306366	-330.296452	-330.295508	-330.341754	35.66	
C	-0.0911905031	 1.6405834176	-0.2695651237	-0.378145
C	-0.0170193036	 0.1498738224	 0.0722592162	-0.164637
C	-1.3742923195	-0.5539340073	-0.020858369	-0.154742
C	-1.3031397337	-2.0441969736	 0.3169907915	-0.141523
N	-2.6328313961	-2.6408751101	 0.2527914084	-0.080816
C	-3.0480532609	-3.2473670865	-1.008672789	-0.25418
C	-2.7887490926	-4.0953028098	 0.1905066559	 0.031526
C	-1.626225606	-5.0638791954	 0.2372550763	-0.411131
H	 0.890577978	 2.1184814612	-0.1931251593	 0.109321
H	-0.4581464824	 1.7943337489	-1.2905299109	 0.11301
H	-0.7724279766	 2.167752221	 0.4074822116	 0.114763
H	 0.6980741643	-0.3437610728	-0.5995254048	 0.092081
H	 0.3875282681	 0.027358924	 1.0859788726	 0.093881
H	-2.0948208258	-0.076377231	 0.653996917	 0.103623
H	-1.7806702154	-0.4379625203	-1.0347503804	 0.093433
H	-0.5759065062	-2.5318477182	-0.3549971112	 0.077132
H	-0.9259446195	-2.1720497096	 1.3399242926	 0.097327
H	-4.0603072864	-3.0299761026	-1.340725836	 0.109581
H	-2.3114986692	-3.2999683948	-1.8115968511	 0.10011
H	-3.6565236446	-4.4373340646	 0.7544479389	 0.086575
H	-0.7987294388	-4.7588902408	-0.4074703073	 0.120402
H	-1.2406356987	-5.1714847878	 1.257432568	 0.121509
H	-1.9561062512	-6.05399799	-0.0951077762	 0.1209
