17
gdb 53017	4.58478	0.88693	0.82197	2.8289	79.07	-0.2456	0.0249	0.2704	1434.875	0.134798	-421.783811	-421.775063	-421.774119	-421.81917	31.051	
C	 0.0302812439	 1.4732844053	 0.1217139376	-0.511342
C	-0.0223610852	 0.0228115599	 0.0291005075	 0.292591
C	-0.0756681781	-1.1786874199	-0.0373544644	-0.18109
C	-0.0753833239	-2.6057255857	-0.1431359498	 0.264557
C	 0.9394043906	-3.3200738195	-1.0268620349	-0.170406
O	 0.4615763384	-4.6496350636	-1.1715742437	-0.260584
C	-0.9487186952	-4.6749121735	-0.9854106462	-0.105471
C	-1.2607466701	-3.483342852	-0.1080768648	-0.063047
O	-0.4033976388	-3.3871819053	 1.0268682555	-0.287518
H	 0.9760358893	 1.8610753509	-0.271958715	 0.154103
H	-0.7840199737	 1.9397585411	-0.443468824	 0.152821
H	-0.0559605462	 1.8014891671	 1.1632223849	 0.158143
H	 1.0047494177	-2.7962074571	-1.993183417	 0.102442
H	 1.9370821893	-3.3661586388	-0.5801068164	 0.124825
H	-1.4936294648	-4.5816564779	-1.939359237	 0.097465
H	-1.206743322	-5.6346917281	-0.5262616374	 0.122755
H	-2.2738342313	-3.1087613629	 0.0083484852	 0.109755
