16
gdb 13073	3.78901	1.2384	1.0371	2.1914	70.14	-0.2405	0.0301	0.2706	1161.3163	0.128189	-383.683571	-383.67451	-383.673566	-383.719233	30.368	
C	 0.0667425726	 1.5198642638	-0.0805377872	-0.499051
C	 0.03506871	 0.067349698	-0.0114278235	 0.03957
C	-0.0002998365	-1.1346110669	 0.0492484085	 0.168911
C	-0.0157424884	-2.5835590874	 0.1228250209	-0.128551
O	 0.100081711	-3.1061802721	 1.4769562784	-0.272623
C	-1.2719165106	-3.5515283654	 1.4819045689	-0.1046
C	-1.4021029427	-3.2799707484	-0.0321247792	 0.07792
O	-2.432687849	-2.4485346438	-0.4841947547	-0.414425
H	 0.863051655	 1.8724392593	-0.7452203311	 0.147848
H	-0.8826577499	 1.9191567371	-0.4539372889	 0.151612
H	 0.2432759303	 1.9555197269	 0.9091252976	 0.152285
H	 0.7737109545	-3.0027103664	-0.5129703774	 0.101902
H	-1.3664911525	-4.5876877531	 1.8257342576	 0.098961
H	-1.9188822898	-2.8975392957	 2.081227175	 0.107389
H	-1.3202744892	-4.1931263341	-0.6339140394	 0.082363
H	-3.1925388948	-2.9946340918	-0.7060425555	 0.29049
