19
gdb 84446	3.32709	1.38739	1.22313	1.6114	75.53	-0.244	0.002	0.246	1060.5114	0.160071	-423.016725	-423.00883	-423.007886	-423.048448	32.39	
O	 0.1395208679	 1.383669205	-0.2010011811	-0.439892
C	 0.0251402576	-0.026823226	-0.0226176551	 0.108175
C	 0.7562726023	-0.4999841987	 1.2162075839	-0.126136
C	 0.0858705022	-1.2019314389	 2.1301019236	-0.136825
C	-1.3802608107	-1.5110062243	 1.8807824067	 0.398867
O	-1.9733758889	-2.3272622496	 2.8539955038	-0.496092
C	-1.5195401902	-2.0013149222	 0.4160386463	-0.258439
C	-1.4420919045	-0.4941191696	 0.0288813297	-0.057589
C	-2.0721658663	-0.1888338696	 1.4205809285	-0.290246
H	-0.1792165995	 1.8017088581	 0.6065953806	 0.276361
H	 0.5004486709	-0.4467180312	-0.918767286	 0.093832
H	 1.8045495898	-0.2378890065	 1.3220602138	 0.098386
H	 0.5448593555	-1.5869720258	 3.0370755353	 0.091768
H	-1.853689377	-1.9122234342	 3.7152085823	 0.275325
H	-0.7531132675	-2.6820684275	 0.0386725806	 0.099406
H	-2.5156262531	-2.4125662829	 0.2327800521	 0.106664
H	-1.9797502069	-0.1592615742	-0.8588547318	 0.075959
H	-3.1586426522	-0.3040639008	 1.3979274168	 0.104853
H	-1.8049142593	 0.7370630788	 1.9393590501	 0.075621
