23
gdb 118098	2.75143	0.92298	0.86207	1.6387	82.6	-0.2518	0.0836	0.3354	1521.1153	0.202191	-425.408953	-425.398023	-425.397079	-425.445519	39.352	
C	-0.1007870293	 1.5895557724	-0.259418741	-0.383069
C	-0.1612659835	 0.0725108523	-0.1875940625	-0.03265
O	 0.6816064328	-0.4521807673	-1.1955553822	-0.265188
C	 0.8697669647	-1.8597585692	-1.161040307	 0.084161
C	-0.3684052188	-2.6428454806	-1.6096152457	-0.421418
C	 2.081300284	-2.1469740297	-2.0427531179	 0.422562
C	 2.0021022796	-1.7015851724	-3.4847772481	-0.471186
C	 3.3873728416	-2.3122181224	-1.3922167238	-0.23254
O	 2.633429336	-3.4525944735	-1.8215988039	-0.287871
H	 0.9226624242	 1.9413610201	-0.1017974961	 0.124905
H	-0.4355189175	 1.9395887193	-1.2401424395	 0.126464
H	-0.7449349266	 2.0337604793	 0.5053895401	 0.114388
H	 0.1715703887	-0.2816254276	 0.8027491974	 0.084706
H	-1.1984591015	-0.2712704726	-0.3214465554	 0.09127
H	 1.1279212556	-2.1725332757	-0.1362252191	 0.065432
H	-0.7183788092	-2.2945468359	-2.5855815894	 0.122695
H	-0.1213423666	-3.7059834726	-1.6806410217	 0.137383
H	-1.1885718769	-2.5351016162	-0.894835408	 0.115918
H	 1.8021024844	-0.6281217988	-3.5329288727	 0.139713
H	 2.9394791184	-1.916859297	-4.0030969015	 0.120555
H	 1.1971884364	-2.2224553187	-4.0125918527	 0.124547
H	 4.2986699279	-2.1186838428	-1.9565941637	 0.110536
H	 3.4769373156	-2.1897188703	-0.3135127257	 0.108686
