17
gdb 38284	3.94817	1.42626	1.25126	1.7774	72.9	-0.2213	0.0046	0.2259	1012.7085	0.13824	-421.759306	-421.752561	-421.751617	-421.790747	26.393	
C	-0.051946291	 1.5887473979	-0.0936114391	-0.211271
C	 1.480789944	 1.2985730936	-0.0011968085	-0.089433
O	 1.1387304245	 0.1931008456	 0.9119832636	-0.281119
C	-0.0131930676	 0.0297608203	 0.0067969519	-0.089434
C	 0.6987882627	-0.3307446726	-1.3039175326	 0.266343
C	 1.7131064112	 0.5307006123	-1.3093462792	 0.266342
C	 2.5646774046	 0.3335608934	-2.5168298632	-0.207033
O	 1.8972866248	-0.7261453749	-3.2264331107	-0.27711
C	 0.7479421411	-1.2093652405	-2.5071063291	-0.207033
H	-0.4445757988	 2.0567639339	 0.8123737108	 0.110862
H	-0.447485854	 2.0487615094	-1.0015943442	 0.100881
H	 2.2138261553	 2.0004268353	 0.3915330001	 0.088305
H	-0.82201487	-0.5778571208	 0.4077772828	 0.088305
H	 2.6287248808	 1.2191461059	-3.1671131915	 0.108465
H	 3.5951648168	 0.0268829638	-2.2793577179	 0.112232
H	 0.8852038266	-2.2746457425	-2.2648558262	 0.112232
H	-0.1403552211	-1.1325896101	-3.152292367	 0.108465
