20
gdb 115971	2.46834	1.30484	0.89719	0.7504	76.97	-0.2445	0.0266	0.2711	1310.8731	0.171378	-440.310363	-440.301234	-440.30029	-440.344403	33.903	
C	-0.0311160719	 1.4279532026	 0.2142272664	-0.452826
C	-0.0588730931	-0.0568587486	 0.0008629875	 0.398155
N	-0.0304764518	-0.5742643925	-1.1546965864	-0.301827
C	-0.0087228658	-2.026326726	-1.2822343456	-0.164875
C	 0.4398247179	-2.7450301105	-0.0053705026	-0.246588
C	-0.2985655885	-2.1404968693	 1.1797614548	 0.114136
C	 0.1731863268	-2.6278656049	 2.5435567378	-0.071539
O	-0.5365011007	-2.0138832644	 3.5984935781	-0.423541
O	-0.1127738424	-0.7088850792	 1.2028216069	-0.294104
H	 0.8216348425	 1.7042182346	 0.8429431378	 0.135626
H	 0.0428312624	 1.9327973206	-0.7478853061	 0.146533
H	-0.9367571183	 1.7557250667	 0.7350053633	 0.135572
H	-1.0114346976	-2.3653875333	-1.5769867704	 0.111271
H	 0.6527529132	-2.2813596791	-2.1175298902	 0.111178
H	 0.240352623	-3.8200787146	-0.064423341	 0.106651
H	 1.5193045871	-2.615334917	 0.1381150601	 0.110845
H	-1.3780981951	-2.3268969925	 1.0914282319	 0.092228
H	-0.00183242	-3.7057727585	 2.6240373918	 0.110883
H	 1.2583953473	-2.4535867815	 2.6266686823	 0.09094
H	-0.470410995	-1.0636274727	 3.4497860636	 0.291283
