20
gdb 56317	7.21686	0.48187	0.45679	5.7513	79.86	-0.2517	-0.0163	0.2354	2328.4892	0.167249	-440.305143	-440.293993	-440.293049	-440.345093	36.493	
C	 0.05786554	 1.499901627	-0.0471724454	-0.473557
C	 0.0282291826	-0.0137832001	 0.071687793	 0.377755
O	-0.0045027637	-0.5725533621	 1.1428855214	-0.282105
C	 0.0421308528	-0.7917124139	-1.2416026235	-0.308944
C	 0.0107490961	-2.306607248	-1.047802299	-0.188105
C	 0.0254726595	-3.0503796019	-2.373557998	-0.080507
O	-0.0057392928	-4.4506665754	-2.0907866872	-0.181544
C	 0.0016893839	-5.2729731698	-3.1556650913	 0.130746
N	-0.0242047461	-6.5242528524	-2.991153877	-0.437258
H	 0.9551297478	 1.8240131349	-0.5863917796	 0.138408
H	-0.8038202591	 1.8555147123	-0.6233060635	 0.138419
H	 0.0450494704	 1.9492181512	 0.9462961937	 0.146304
H	-0.8111583551	-0.4491467837	-1.8448478702	 0.120595
H	 0.9320378574	-0.4805225121	-1.8078059775	 0.120602
H	 0.8670475201	-2.6236691122	-0.4455191185	 0.131404
H	-0.8811556901	-2.5921991308	-0.4825897265	 0.131398
H	-0.8451334058	-2.7741061922	-2.9860792129	 0.104169
H	 0.9306379266	-2.8060885819	-2.9484158212	 0.104175
H	 0.0312539429	-4.7444323962	-4.1196661559	 0.080162
H	-0.0138075275	-6.9924400027	-3.8948768109	 0.227882
