15
gdb 26710	2.34463	1.57325	0.94831	1.0856	64.82	-0.1607	0.0504	0.2111	1147.904	0.111538	-491.085867	-491.076345	-491.0754	-491.11949	34.899	
N	 0.0911870158	 1.4465989483	-0.120609676	-0.628428
C	 0.0304927657	 0.0398783499	-0.0383559951	 0.077673
C	-1.0737565272	-0.7664548085	-0.019642644	 0.211826
O	-2.4011951012	-0.4486703574	 0.062935478	-0.43865
N	-0.6581187423	-2.1004551003	-0.1075991339	-0.369042
C	 0.7127698072	-2.1211617045	-0.1119105114	 0.31404
O	 1.3694800307	-3.3086612689	-0.1108355569	-0.442929
C	 1.1722966779	-0.8322919197	-0.1007662906	 0.092324
O	 2.5055475323	-0.472303389	-0.1009962343	-0.466592
H	 0.7689506832	 1.8182547371	 0.537349397	 0.242936
H	-0.8120099291	 1.8537572707	 0.0954462918	 0.241931
H	-2.7774507786	-0.4023828844	-0.8252920672	 0.297623
H	-1.222947167	-2.8740506662	 0.2019924599	 0.262301
H	 2.3108610097	-3.0993193264	-0.0888668185	 0.30829
H	 2.6778515728	 0.0502335993	-0.893149049	 0.296697
