23
gdb 83336	2.04092	1.6	1.46313	1.2037	84.86	-0.245	0.0752	0.3202	1115.3729	0.206416	-388.290251	-388.281134	-388.28019	-388.323144	36.358	
C	-0.2322061058	 1.5862708969	 0.863728183	-0.44513
C	-0.0573725278	 0.1121228828	 0.5274440422	 0.009239
C	 0.950239784	-0.3962941658	-0.5549401328	-0.05108
C	 2.2990989782	 0.1690169594	-0.0570238552	-0.221543
C	 2.1626542678	-0.1701296706	 1.4632594942	-0.285176
C	 0.7739136457	-0.8417105726	 1.4284376463	 0.409691
O	 0.2073827351	-1.2654224337	 2.631799773	-0.494311
C	 0.9219491353	-1.7787216315	 0.173839403	-0.016666
C	-0.2115712406	-2.7529962645	-0.1163847319	-0.432988
H	 0.7152026223	 2.1088196719	 1.021062021	 0.113553
H	-0.7641152581	 2.1058293321	 0.0590309839	 0.111781
H	-0.8264611296	 1.6979171931	 1.7771077025	 0.124493
H	-1.0419920815	-0.3261633098	 0.3549742567	 0.075127
H	 0.7297899196	-0.3092531756	-1.6192380728	 0.054962
H	 3.1492941427	-0.3352707066	-0.525117381	 0.094349
H	 2.4071950382	 1.2409768309	-0.2415118304	 0.097262
H	 2.9365486895	-0.8620236317	 1.8143203815	 0.08387
H	 2.1821135528	 0.7111978326	 2.1100780242	 0.09971
H	 0.886687568	-1.7105370109	 3.1495548427	 0.276929
H	 1.8752765213	-2.3213736147	 0.1315032157	 0.048948
H	-1.1942366918	-2.2779127457	-0.1679508181	 0.121158
H	-0.0430949615	-3.2657323752	-1.0695565744	 0.109958
H	-0.2632956138	-3.5163687708	 0.6676360568	 0.115862
