18
gdb 13945	3.23579	1.92795	1.52245	2.2294	67.7	-0.239	0.0619	0.3009	892.9797	0.153484	-384.907711	-384.899919	-384.898975	-384.940015	29.257	
O	 0.0666167015	 1.2432564876	-0.4109816372	-0.422963
C	 0.0775488463	-0.0787174368	 0.0672238811	-0.006412
C	-0.0101941369	-0.3151048371	 1.5909826043	-0.113845
O	-1.1853786915	-1.1322458941	 1.418999504	-0.318203
C	-1.2977223616	-0.7823959276	 0.0272134536	 0.449752
C	-2.5306395128	 0.0093292484	-0.4657946646	-0.282011
C	-2.5070157319	-0.8563190672	-1.7561557802	-0.212875
C	-1.6087954347	-1.8806775444	-1.0064825278	-0.295596
H	 0.9697305894	 1.5738558715	-0.424621828	 0.28994
H	 0.8638960888	-0.6746633536	-0.4144871476	 0.076112
H	 0.8086493843	-0.8644240191	 2.0696248964	 0.097496
H	-0.2194751983	 0.6049817098	 2.1521231556	 0.100427
H	-3.3910077742	-0.2213774833	 0.1686598764	 0.107875
H	-2.4231675247	 1.0901846436	-0.5636813959	 0.116871
H	-3.4645854324	-1.2178905595	-2.1350795665	 0.099151
H	-1.9732952363	-0.3591025591	-2.5697988664	 0.108868
H	-0.7651973138	-2.3310322467	-1.5376699066	 0.091503
H	-2.1985356012	-2.6750260624	-0.5396076108	 0.113909
