17
gdb 14244	3.81727	1.71407	1.57184	3.8045	68.14	-0.2421	0.0309	0.2729	880.2699	0.143378	-363.874401	-363.867194	-363.866249	-363.905815	27.68	
C	-0.1240937101	 1.5742821484	 0.0041422728	-0.413977
C	 0.05813198	 0.0641559468	 0.0140974613	 0.034331
C	 1.1259722884	-0.5696948764	-0.9338093487	-0.260083
C	 1.7761420522	-1.3068800034	 0.2795926953	-0.185934
C	 0.7649296537	-0.5974781595	 1.2394240145	 0.000457
N	 1.9093014471	 0.122689466	 1.7996765587	-0.318728
C	 2.8547753749	-0.4372200446	 0.9575893418	 0.417491
O	 4.0317945656	-0.2431441504	 0.8179318227	-0.360361
H	 0.8265289132	 2.0901430935	 0.1751928818	 0.11876
H	-0.5128786319	 1.9134516418	-0.9617769342	 0.122853
H	-0.8296598692	 1.897014516	 0.7782873313	 0.114551
H	-0.909618416	-0.4259999975	-0.1361438444	 0.078274
H	 0.7069319798	-1.2421911086	-1.6843784499	 0.110451
H	 1.7924010942	 0.1345489925	-1.4384585683	 0.117037
H	 1.9295273897	-2.3824050773	 0.2293375804	 0.096996
H	 0.1494621382	-1.1143037788	 1.97742206	 0.082268
H	 1.9538350001	 0.9798282215	 2.3338078547	 0.245616
