17
gdb 30460	4.8058	1.06945	0.88438	4.6269	83.69	-0.2205	-0.0603	0.1601	1311.2487	0.135234	-418.03332	-418.024549	-418.023605	-418.067343	31.384	
C	-0.0445478959	 1.4409981831	 0.0298830553	-0.315216
N	 0.0306581535	-0.006385702	-0.0194208504	-0.300516
C	-1.0393496811	-0.6747492539	-0.0073266214	 0.447647
O	-2.2850287677	 0.0100926824	 0.0541233864	-0.231524
C	-3.434626692	-0.681388921	 0.0683070561	 0.015467
C	-3.4864027885	-2.0258517957	 0.0265766244	 0.164526
C	-4.7653360587	-2.8120997129	 0.0418665286	-0.496693
C	-2.1924771602	-2.6692128165	-0.0353555874	-0.024687
N	-1.0577053308	-2.0556248645	-0.0515208201	-0.279344
H	 0.9681185872	 1.8501526869	 0.011068322	 0.121207
H	-0.6010879831	 1.8555324667	-0.8221179665	 0.117569
H	-0.5452373878	 1.7983792307	 0.9404182046	 0.117567
H	-4.3009313179	-0.0284432811	 0.1168381019	 0.134481
H	-4.8658635366	-3.4311071592	-0.857106029	 0.139336
H	-4.8104679935	-3.4870138188	 0.9043569002	 0.139345
H	-5.6351779591	-2.151280833	 0.0901996521	 0.130993
H	-2.156314428	-3.7597518511	-0.0718716068	 0.119845
