20
gdb 23224	3.27191	1.29253	1.09563	1.0053	81.92	-0.2334	0.0215	0.2549	1157.4076	0.173188	-403.114351	-403.106419	-403.105475	-403.147383	31.427	
O	-0.0927334532	 1.3372270663	 0.2480404515	-0.402505
N	 0.0268525964	-0.0688180918	 0.2746813148	-0.238913
C	-1.0691471849	-0.6332768992	-0.0566764702	 0.420687
C	-2.3419560705	 0.0991714215	-0.4325611442	-0.293373
C	-3.5242359419	-0.8475100069	-0.7913499509	-0.228048
C	-3.1472271255	-2.3310091154	-0.6884551389	-0.003132
C	-2.4074408512	-2.6087745928	 0.6488969918	-0.231338
C	-1.1111869523	-2.130033562	-0.078974779	-0.091448
C	-1.7941678929	-2.5954070237	-1.4042021756	-0.231367
H	 0.7895234833	 1.6158509129	 0.5137083138	 0.304022
H	-2.6047871627	 0.7656296601	 0.3956377416	 0.132377
H	-2.109567869	 0.775306138	-1.2620320826	 0.132373
H	-4.3732079993	-0.647111238	-0.1283623893	 0.100305
H	-3.8719937885	-0.6362096876	-1.8086389607	 0.100293
H	-3.9966166706	-2.9685097836	-0.9463143574	 0.061051
H	-2.7260002762	-2.066365827	 1.5439615054	 0.096001
H	-2.3571363566	-3.677498392	 0.8726709857	 0.100699
H	-0.1488644251	-2.555210926	 0.2057225783	 0.075608
H	-1.6255714789	-3.661555327	-1.5764713704	 0.100706
H	-1.5715702304	-2.0412225959	-2.3208025536	 0.096002
