19
gdb 121422	3.03118	0.87327	0.70322	1.9344	77.07	-0.2468	-0.0589	0.1879	1579.3658	0.156976	-456.370144	-456.359639	-456.358695	-456.406695	37.05	
C	-0.0073994563	 1.4021123584	 0.5617590546	-0.476467
C	 0.0047903188	-0.0495441129	 0.1576596202	 0.370832
O	 1.0058663286	-0.630152695	-0.2070055411	-0.314122
C	-1.3117589729	-0.8077957683	 0.2055705665	 0.265872
N	-1.1719274943	-2.1275404087	-0.1051085641	-0.548217
N	-2.3762373377	-0.1790858982	 0.5398354092	-0.307484
C	-3.6293216427	-0.9152117177	 0.585689999	-0.170791
C	-4.7129649645	 0.009537573	 1.1415437267	-0.054994
O	-4.7908090117	 1.2016692755	 0.3899870283	-0.421294
H	 1.0105882157	 1.7913239561	 0.5332745737	 0.138203
H	-0.6473596136	 1.972692804	-0.1180190137	 0.153406
H	-0.4395240077	 1.5167082434	 1.5590816182	 0.156119
H	-0.2690220575	-2.3953271323	-0.4677011422	 0.273884
H	-1.972431329	-2.6793316899	-0.35793982	 0.263997
H	-3.9207166166	-1.2371726443	-0.4282856707	 0.103253
H	-3.5462806602	-1.8226931696	 1.2070549229	 0.095991
H	-5.6934467322	-0.4753716306	 1.0891760463	 0.100512
H	-4.4950185704	 0.2154701564	 2.2024154158	 0.085706
H	-3.8751115859	 1.4994421507	 0.3056664203	 0.285595
