16
gdb 26765	3.49582	1.15812	0.87942	1.9654	85.69	-0.2213	-0.0305	0.1908	1291.9176	0.12244	-400.766523	-400.757548	-400.756604	-400.800336	32.257	
C	 0.1904927043	 1.4710035114	 0.010880715	-0.503917
C	-0.0353963365	 0.0042305916	-0.00105802	 0.261817
C	-1.1318535301	-0.8055993978	 0.0435913612	 0.170732
C	-2.5792611314	-0.4520357096	 0.1252700177	-0.50231
N	-0.7153452351	-2.1280988203	 0.0004138322	-0.351523
C	 0.5822085579	-2.0690516449	-0.0668721682	 0.202631
O	 1.0717445344	-0.7971791591	-0.072162549	-0.202782
C	 1.5073060687	-3.1313636229	-0.1326256237	 0.257343
C	 2.3002386913	-4.0342367597	-0.1888393671	-0.372297
H	 0.8013056105	 1.7746907894	 0.8684594387	 0.145965
H	 0.7088287314	 1.8032944161	-0.8955842103	 0.145961
H	-0.7644645278	 1.9971349303	 0.0694417176	 0.140873
H	-3.1263670704	-0.8517914997	-0.7348717532	 0.142475
H	-3.0339981157	-0.8801164938	 1.024669577	 0.142473
H	-2.7258985281	 0.6305253706	 0.1503801941	 0.12173
H	 2.9950910566	-4.8360188815	-0.2382350619	 0.20083
