19
gdb 56193	4.89329	0.7035	0.65137	3.8964	73.23	-0.25	-0.0167	0.2333	1718.0038	0.155858	-460.139869	-460.129929	-460.128985	-460.177032	33.585	
C	 0.2741006843	 1.4497821473	-0.0619484042	-0.483823
C	-0.1808935777	 0.0035849399	 0.034232158	 0.361183
O	-0.6925281288	-0.458624342	 1.0212080435	-0.266756
C	 0.065974245	-0.8298222657	-1.2228583717	-0.170806
O	-0.2603201809	-2.1693819848	-0.989219913	-0.228055
C	-0.1532194493	-2.9836737703	-2.124263588	 0.094732
C	 1.2520047185	-3.5008967032	-2.5243719276	-0.094474
O	 0.8157720546	-4.8682169527	-2.3922106583	-0.271717
C	-0.4533912584	-4.4614945976	-1.836137101	-0.100327
H	 1.3687768021	 1.4943977514	-0.0160539852	 0.147503
H	-0.0268816306	 1.9054033234	-1.011263312	 0.133924
H	-0.1375209373	 2.0180472744	 0.7727371583	 0.150196
H	-0.5417948028	-0.3995327514	-2.0405301933	 0.110489
H	 1.1203986555	-0.7048566329	-1.527422329	 0.108697
H	-0.7209082398	-2.5588237719	-2.9642505836	 0.07689
H	 1.6057416618	-3.278433327	-3.5376364281	 0.10222
H	 2.0303388459	-3.2391031359	-1.7943951133	 0.102622
H	-0.5282742427	-4.6692322404	-0.7618827422	 0.120319
H	-1.2998153594	-4.9142423608	-2.3630444393	 0.107182
