19
gdb 7451	2.60026	1.64796	1.44717	4.7038	67.75	-0.2492	0.0192	0.2684	996.7219	0.164041	-402.246172	-402.236576	-402.235631	-402.280328	34.928	
C	 0.1662772265	 1.5820289585	 0.0272770049	-0.412582
C	 0.0419463105	 0.0539734211	 0.0144326893	 0.150958
O	-1.2920960463	-0.3633248898	 0.2305199105	-0.442478
C	 0.6311783023	-0.584042573	-1.2712126872	-0.115526
C	 0.5966132571	-2.1218937	-1.1922774807	-0.392799
C	-0.149512586	-0.1259026991	-2.5028651738	 0.431596
N	 0.586447369	 0.1059724253	-3.6213884583	-0.51875
O	-1.3681292979	 0.0052216154	-2.5031186205	-0.391656
H	 1.2122943928	 1.9004899544	-0.0499704047	 0.099336
H	-0.3943898065	 2.0284667225	-0.8003579296	 0.126389
H	-0.2450025489	 1.9733883336	 0.9613065754	 0.124844
H	 0.6189789207	-0.3471678502	 0.8585096255	 0.074616
H	-1.7526918044	-0.1948586363	-0.6084632456	 0.293827
H	 1.6736645821	-0.2541228218	-1.3681241958	 0.06805
H	 1.2094793169	-2.4681965707	-0.3543903952	 0.11863
H	-0.427668568	-2.4610915744	-1.0265922231	 0.150234
H	 0.9790701056	-2.5823926221	-2.1082932106	 0.10787
H	 1.5845587667	-0.0035844999	-3.640531548	 0.263812
H	 0.1056593678	 0.3571127564	-4.4703093425	 0.263629
