16
gdb 133565	3.22136	1.20975	1.18581	2.2018	61.71	-0.3172	0.0977	0.415	1073.1103	0.122316	-532.206334	-532.199033	-532.198088	-532.239891	27.941	
F	 0.37235591	 0.1697970152	-0.2304507218	-0.072348
C	 0.0127952199	 1.4504588502	-0.0491589204	 0.249922
F	 1.1349610667	 2.1864471448	-0.1535415103	-0.081627
F	-0.776955971	 1.7818654108	-1.0875682454	-0.081626
C	-0.6911826212	 1.7699040395	 1.2534670871	-0.114489
C	-1.8622041773	 0.9189545051	 1.8332963788	-0.062818
C	-0.8198116828	-0.1260670712	 2.339026828	-0.228349
C	-0.1979017226	 1.2715166787	 2.6462662776	-0.062814
C	-1.6084272053	 1.6820407229	 3.1693420099	-0.223094
H	-0.8958646538	 2.8443725623	 1.2065373569	 0.097065
H	-2.8223566621	 0.7270622962	 1.3544901663	 0.085776
H	-1.1255228046	-0.7034034719	 3.215249441	 0.093413
H	-0.327327105	-0.7544220641	 1.6033189657	 0.119619
H	 0.7659097818	 1.4871946414	 3.1072659837	 0.085776
H	-1.8421886174	 2.7498644924	 3.1848094313	 0.096022
H	-1.9461397553	 1.1798946078	 4.0784697816	 0.099572
