18
gdb 56601	3.2435	1.01385	0.84612	0.8367	72.5	-0.2481	0.0001	0.2482	1341.9515	0.147992	-435.231471	-435.221937	-435.220993	-435.266197	34.594	
N	-0.7540333643	 0.9961186881	 0.2041686433	-0.521434
C	-0.2670398895	-0.3576220028	-0.0287110854	-0.04919
C	 0.7678631716	-0.4625046111	-1.1895121531	-0.017206
O	 1.2033897341	-1.7829864698	-1.4429527153	-0.406055
C	 0.2160368085	 0.1636992836	-2.4094024158	 0.244599
N	-0.2625323376	 0.6241428291	-3.355670967	-0.315257
C	 0.319001498	-0.9688051407	 1.2368864369	 0.03149
C	 0.9440073609	-0.1314615169	 2.2914395255	-0.244959
N	-0.36457879	-0.7730388849	 2.5180669367	-0.328849
H	 0.0090932032	 1.6659598338	 0.2241117175	 0.238816
H	-1.384394118	 1.2867647988	-0.5349677669	 0.256185
H	-1.1368490855	-0.9630874237	-0.3219040586	 0.098257
H	 1.66772906	 0.091990153	-0.8976589201	 0.139678
H	 0.4578934208	-2.2907692656	-1.7847481175	 0.298857
H	 0.7051509042	-1.9725606998	 1.0872955401	 0.106191
H	 1.765475639	-0.5322651695	 2.877982928	 0.122045
H	 0.9628141035	 0.9472669866	 2.1655083735	 0.105841
H	-1.0813372088	-0.0612989682	 2.3744984682	 0.24099
