18
gdb 29692	2.48671	1.52446	0.9584	1.315	76.5	-0.1652	0.0587	0.2239	1206.8716	0.145959	-439.113783	-439.10382	-439.102876	-439.148528	35.704	
C	 0.0358238622	 1.4349919037	-0.0092951566	-0.34835
N	 0.0211086834	-0.0121094101	-0.0260053129	-0.103757
C	-0.0076381254	-0.8267740656	-1.1532334212	 0.296964
C	-0.0302670903	-0.2578803786	-2.5316512474	-0.500394
C	-0.0135606665	-2.1353636963	-0.7264975514	-0.361051
C	 0.0272055065	-2.1227561419	 0.6986942355	 0.143944
O	-0.0259538287	-3.166944294	 1.603744667	-0.463992
C	 0.0504039548	-0.8090553004	 1.0890141123	 0.295835
O	 0.0769148108	-0.2509980031	 2.327644916	-0.453737
H	 0.948581818	 1.8318083122	-0.4677873454	 0.132223
H	-0.8273367251	 1.8430801952	-0.545286874	 0.134176
H	-0.0068658499	 1.7701178112	 1.0270789261	 0.16123
H	 0.8531751963	 0.3561804371	-2.7533220154	 0.12032
H	-0.0530297525	-1.072849541	-3.2590093682	 0.131993
H	-0.9109829793	 0.3716938582	-2.7171637813	 0.121913
H	-0.0481649033	-3.0058783161	-1.364235277	 0.090165
H	 0.72665411	-3.7471560728	 1.4487454822	 0.293921
H	 0.044035179	-0.9866021377	 2.9511713416	 0.308595
