15
gdb 64854	2.78629	1.25227	1.00105	6.1356	70.22	-0.3098	-0.0309	0.2788	1171.9072	0.111436	-416.81095	-416.802328	-416.801384	-416.844925	30.777	
C	-0.3972424877	 1.6061934544	 0.0170928038	-0.438677
C	 0.0880419812	 0.1666192807	-0.0752175674	 0.259428
C	 0.9010711047	-0.2314452761	-1.3411118388	-0.345576
C	 2.0709888096	-0.4522959364	-0.3506730091	-0.008485
O	 1.2501110926	-0.0638294594	 0.7710592948	-0.293929
C	 2.5807774375	-1.8206743639	-0.2414047726	 0.287948
N	 2.9967789996	-2.896552767	-0.1784197697	-0.30175
C	-0.9942505841	-0.7730657964	 0.2574257737	 0.278488
N	-1.8585901742	-1.5003955828	 0.4994170353	-0.319208
H	 0.417691306	 2.2859697387	-0.2442227105	 0.13325
H	-1.2362856975	 1.771552967	-0.6651338398	 0.147411
H	-0.7277656423	 1.8264100735	 1.0352604365	 0.158455
H	 0.555773367	-1.123017459	-1.8604953771	 0.163622
H	 1.0526924658	 0.5831284834	-2.0486149724	 0.139806
H	 2.9196707418	 0.2289764233	-0.4737897567	 0.139217
