17
gdb 83072	2.62039	1.54886	1.28278	4.104	74.02	-0.2275	-0.0208	0.2067	1033.9147	0.135947	-418.017501	-418.009201	-418.008257	-418.05028	30.933	
C	-0.0809495624	 1.6217434219	 0.2048076313	-0.415516
C	 0.005784109	 0.1183955346	 0.3047928054	-0.065085
C	 1.1733287024	-0.6827482733	-0.1556429553	-0.074527
N	 2.4346540604	 0.0007884498	-0.2189039871	-0.278596
C	 2.7795648282	 0.3775284083	 1.0659091852	 0.02051
N	 1.9383922649	 0.097954459	 1.9956998553	-0.294157
C	 0.8386991859	-0.588669273	 1.3817842816	 0.204877
C	 0.2185655345	-1.6970126601	 2.140384579	 0.08755
O	-0.6680456902	-2.4013517359	 1.714300293	-0.283788
H	 0.8589633922	 2.10878529	 0.471258465	 0.134317
H	-0.3383179172	 1.9211456345	-0.8167682635	 0.121239
H	-0.8561009443	 2.0038074971	 0.8757012209	 0.128738
H	-0.9300274585	-0.4165920687	 0.1635481886	 0.119886
H	 1.0521316193	-1.5876032061	-0.7398835702	 0.119526
H	 3.1396773127	-0.2815122732	-0.8814070244	 0.255643
H	 3.712176738	 0.9057837153	 1.2350973015	 0.132716
H	 0.652518435	-1.8403310703	 3.1528742035	 0.086667
