18
gdb 73671	2.26147	2.03762	1.5119	1.9912	70.78	-0.2545	0.0205	0.275	946.7441	0.149713	-439.111356	-439.10396	-439.103016	-439.143024	28.936	
C	-0.1113923154	 1.5126415576	 0.1352949953	-0.450991
C	 0.0569062823	 0.0032771953	-0.0003181518	 0.262272
C	-1.2856317816	-0.7667399146	-0.023763742	-0.112819
O	-1.0247391594	-2.0285072566	 0.5693397323	-0.247034
C	-0.1560886356	-1.7746617565	 1.6603862056	-0.108586
C	 0.8265171371	-0.7135976685	 1.1628501384	 0.035384
O	 1.9649559887	-1.3201434353	 0.5088318004	-0.22979
C	 1.82074544	-1.0360369038	-0.8077541201	 0.106865
N	 0.8506616696	-0.3244664201	-1.2018481606	-0.290257
H	 0.8614719281	 2.0115653005	 0.157126186	 0.125749
H	-0.6709230351	 1.9091373806	-0.7171303629	 0.134248
H	-0.653893283	 1.765708376	 1.0523829718	 0.112952
H	-2.0489337647	-0.2167213292	 0.5517186998	 0.083733
H	-1.6476786841	-0.9296991976	-1.0401385723	 0.127291
H	-0.7130098108	-1.3821842169	 2.5282434802	 0.090808
H	 0.3343691266	-2.7082735404	 1.9436724461	 0.125018
H	 1.2038200884	-0.0606176343	 1.9523774552	 0.093442
H	 2.596096709	-1.4527090263	-1.4412276615	 0.141714
