17
gdb 37817	3.06007	2.01438	1.74979	1.3933	76.83	-0.2205	-0.0038	0.2167	843.8443	0.138957	-380.737675	-380.731557	-380.730612	-380.767722	26.258	
C	-0.0377098004	 1.4902666857	-0.193964011	-0.411105
C	 1.4295318745	 1.8817674924	 0.037060068	-0.048763
C	 2.1831937383	 0.922272667	 0.6039326796	-0.215782
C	 1.3259358304	-0.2655316038	 0.8634767003	 0.251085
N	 0.50789769	-0.4973891465	 2.1176473056	-0.381016
C	-0.3022371614	-1.133012172	 1.0318340851	-0.089892
C	 0.9207524356	-1.6277380673	 0.1730098819	-0.100167
N	 0.3885993954	-0.9925097605	-1.072168313	-0.374711
C	 0.0572980792	-0.0088048132	 0.0146954954	 0.330827
H	-0.6893820963	 1.9837722086	 0.5364266781	 0.136617
H	-0.4016332176	 1.7596019164	-1.191341264	 0.12004
H	 1.7978799941	 2.8714446462	-0.2185299849	 0.102244
H	 3.2280026294	 1.0341403264	 0.8694735215	 0.102221
H	 0.9437373071	-1.2182776286	 2.6985562411	 0.207289
H	-1.2526912603	-1.6399313105	 1.2031768678	 0.08816
H	 1.4116936554	-2.6040291384	 0.1896234751	 0.077859
H	 1.1711848264	-0.6314817317	-1.6272492466	 0.205093
