19
gdb 117210	3.1937	0.96494	0.80891	2.3929	73.35	-0.2472	-0.0238	0.2234	1462.923	0.155035	-460.142169	-460.131987	-460.131043	-460.178071	35.453	
C	-0.5548042881	 1.2072554922	-0.2110513956	-0.224683
O	 0.1272756063	-0.0063573323	 0.0045588983	-0.21415
C	 0.4151147283	-0.6803768917	-1.1821605789	-0.160966
C	 1.2012078499	-1.9489605794	-0.8704049763	 0.28375
O	 1.6247443692	-2.2068734486	 0.2289646896	-0.287577
C	 1.4709672893	-2.8729725451	-2.0408637312	 0.301907
C	 2.7592925172	-3.6556204067	-1.9720205485	-0.46229
C	 0.3065333692	-3.4033146031	-2.7839595257	-0.21637
O	 1.0931660333	-2.3488653349	-3.3256321879	-0.260298
H	 0.0376598745	 1.9064542859	-0.8220017458	 0.107099
H	-1.5230500787	 1.0501870619	-0.712619824	 0.104305
H	-0.7325232657	 1.6556159331	 0.7689113081	 0.133906
H	-0.4982621822	-0.9298672727	-1.7489749605	 0.110928
H	 1.0293632845	-0.0724489424	-1.8713547897	 0.123419
H	 2.7987496643	-4.2204776699	-1.0380494322	 0.151402
H	 2.8368253083	-4.3406293347	-2.8191498032	 0.124404
H	 3.6198843815	-2.9799624878	-1.9898162462	 0.135285
H	 0.4078252148	-4.3691659066	-3.2769072876	 0.127801
H	-0.7071043558	-3.1357199771	-2.4896863828	 0.122129
