20
gdb 92050	2.83187	1.47486	1.06295	3.597	79.12	-0.2347	0.0343	0.269	1159.5863	0.173137	-403.189473	-403.181224	-403.18028	-403.222231	32.351	
C	-0.06631804	 1.560577051	 0.0070101997	-0.391119
C	 0.0324097238	 0.0357954382	-0.0048274414	-0.101766
C	 0.7536003191	-0.518081923	-1.2522464259	-0.236951
C	 0.7665998362	-2.0405957124	-1.2301533624	-0.030823
C	 2.0289692386	-2.8187781063	-0.9443523194	-0.306281
C	 0.9605091179	-2.6798926901	 0.1188975455	 0.013277
N	 1.1594472678	-1.7760895729	 1.2074184597	-0.312044
C	 0.7287277851	-0.4745627657	 1.2630568557	 0.406013
O	 0.9188133517	 0.2149659605	 2.2478945656	-0.379226
H	 0.9275916952	 2.0167250404	-0.0398979391	 0.120895
H	-0.6465528681	 1.9131767861	-0.8514923391	 0.101622
H	-0.5414021449	 1.9102040879	 0.9250043667	 0.136703
H	-0.9828544626	-0.387534282	 0.0051204109	 0.096891
H	 0.258775516	-0.1554912471	-2.1590194959	 0.104673
H	 1.7746721802	-0.1197116716	-1.2780750378	 0.10785
H	 0.0386795697	-2.5227476176	-1.8742918984	 0.094912
H	 2.159091843	-3.7877268096	-1.4138160756	 0.114967
H	 2.9431050306	-2.2527819806	-0.798912343	 0.119358
H	 0.3710418335	-3.5619040352	 0.3577101035	 0.097969
H	 1.6639261872	-2.0870732302	 2.0258217807	 0.24308
