25
gdb 96152	2.44736	1.36447	0.96516	0.1852	92.37	-0.2557	0.0846	0.3403	1330.0508	0.231907	-352.369234	-352.360495	-352.359551	-352.401996	35.785	
C	 0.0047899746	 1.5937853007	-0.0049874887	-0.399845
C	-0.0211052693	 0.0585224931	 0.0180560876	 0.053624
C	 0.6409740059	-0.4905345061	-1.2627115363	-0.170144
C	 0.6038538481	-2.0096937256	-1.503900344	-0.196173
C	 1.3521629337	-2.8534214976	-0.4553840888	-0.219504
C	 0.5477020963	-3.0568989866	 0.8157464865	 0.017547
C	 1.1607776879	-2.9185020233	 2.1886214406	-0.328463
C	 0.1899315831	-1.8761452106	 1.6851661179	 0.004193
C	 0.6378266222	-0.476186625	 1.309847461	-0.217714
H	 1.0353206592	 1.9691102645	 0.0199595609	 0.110503
H	-0.4685450838	 1.9896496559	-0.9097679773	 0.106957
H	-0.5198503533	 2.0132942878	 0.8598910918	 0.10707
H	-1.0739167601	-0.2608028871	 0.0220675035	 0.06526
H	 0.1703590715	 0.0005330643	-2.1244820372	 0.086009
H	 1.6916337125	-0.162236742	-1.2711304963	 0.08631
H	-0.4385321938	-2.3512571809	-1.5641400329	 0.089302
H	 1.0412655918	-2.1978430684	-2.4924631389	 0.086268
H	 1.5991867105	-3.8341540166	-0.8800138704	 0.090458
H	 2.3139761763	-2.3766960992	-0.2284361665	 0.089828
H	-0.228582782	-3.812828588	 0.7202816519	 0.076281
H	 0.8409729514	-3.5943826564	 2.9746636941	 0.10488
H	 2.2095288608	-2.64124263	 2.2443994621	 0.105743
H	-0.8047223297	-1.9088307262	 2.1241930678	 0.075883
H	 1.7288763292	-0.4394343189	 1.1949277899	 0.088039
H	 0.4058202471	 0.2002686823	 2.1424434616	 0.087688
