14
gdb 17228	5.61278	1.69828	1.54452	3.2688	66.6	-0.2513	0.0106	0.2619	809.305	0.109287	-341.518357	-341.512362	-341.511418	-341.548385	23.458	
N	 0.0859540866	-1.0938784748	-0.0956129511	-0.345962
C	 0.0494560905	 0.0614163002	-0.0267586703	 0.164965
C	-0.0233741307	 1.4788179173	 0.0739507908	 0.205879
C	-1.1089191446	 2.3602168045	 0.6868934304	-0.228625
N	-0.5381350117	 3.536953434	-0.070196832	-0.168333
C	 0.8136208885	 3.701250294	 0.603723942	-0.181112
C	 1.2438910333	 2.3819170294	-0.0111116218	-0.121493
C	 0.1461390413	 2.5236151497	-1.0099498454	-0.061425
H	-2.0998261769	 2.1168516085	 0.2990117643	 0.132023
H	-1.1475448599	 2.4854828883	 1.7733562309	 0.117407
H	 1.3356708734	 4.5520780026	 0.1599517596	 0.126608
H	 0.7728116483	 3.8122500771	 1.6917175469	 0.113957
H	 2.2217062123	 1.9355620886	-0.1391397273	 0.119957
H	 0.0661289297	 2.4793402306	-2.0862887172	 0.126154
