16
gdb 51244	4.64515	0.86332	0.79321	1.9795	76.89	-0.2489	-0.0559	0.193	1400.559	0.123824	-437.917651	-437.909262	-437.908318	-437.952611	29.567	
N	-0.0537738979	 1.3191332214	 0.0517980615	-0.548665
C	-0.0410620157	 0.0540950781	 0.0265606375	 0.427758
O	 1.0910921212	-0.7269010384	-0.0557247142	-0.248441
C	 0.7221556303	-2.1050162821	-0.0595360752	-0.168866
C	-0.7833966133	-2.1111063035	 0.0325545393	 0.275284
C	-1.5786655496	-3.3798548093	 0.0157995216	-0.382549
C	-1.6333735969	-3.9449215197	-1.4042053519	 0.154813
O	-1.0963654791	-4.9625713849	-1.7484098662	-0.22201
C	-1.2010361197	-0.8425262967	 0.0773301489	-0.280077
H	 0.8964197131	 1.6895467213	 0.0031294956	 0.225236
H	 1.09457479	-2.581920246	-0.9764180727	 0.13938
H	 1.1946761201	-2.6116936442	 0.7932070175	 0.132058
H	-1.1345440027	-4.1421402011	 0.6634184978	 0.135823
H	-2.6047629935	-3.1796906438	 0.34460022	 0.135651
H	-2.2043346801	-3.3130745748	-2.1200930736	 0.094704
H	-2.2133626561	-0.4725666763	 0.1502096841	 0.129899
