20
gdb 36959	5.10868	0.68036	0.64411	2.8417	84.44	-0.2325	0.0204	0.2529	1792.4991	0.169613	-403.105538	-403.09632	-403.095376	-403.140987	33.73	
C	-0.418486943	 1.1218344263	 0.7103718524	-0.287448
C	 0.9985732316	 0.9285488172	 0.2101727383	-0.280318
C	-0.0149724105	-0.1475222235	 0.0092995635	 0.124392
O	 0.1792400796	-1.3155651005	 0.7702866033	-0.206451
C	-0.943302729	-2.0055412787	 1.0751010708	 0.123936
N	-0.8634047145	-3.0831050891	 1.7198790155	-0.230231
C	-2.0682657484	-3.7983410584	 2.022202843	 0.048675
C	-2.6427541309	-3.7502274798	 3.4094168792	-0.247462
C	-3.4220918654	-3.1594217075	 2.2512722486	-0.288936
H	-0.5757258455	 1.0624533641	 1.781323179	 0.129415
H	-1.0713256981	 1.8134504691	 0.189664284	 0.120407
H	 1.3328371723	 1.4878974023	-0.6556731236	 0.121582
H	 1.7628039441	 0.7336712694	 0.9532802903	 0.13752
H	-0.3888063143	-0.3360131379	-0.994334347	 0.104038
H	-1.8712610688	-1.5428986956	 0.7154411626	 0.086612
H	-2.0780319766	-4.7794290103	 1.5534098463	 0.09724
H	-2.9894579079	-4.672588016	 3.8620239333	 0.110811
H	-2.1855923743	-3.0511972785	 4.1014329247	 0.117132
H	-3.5051350333	-2.0790979177	 2.215292783	 0.107999
H	-4.3042612473	-3.680682505	 1.8954746229	 0.111087
