23
gdb 122289	4.68823	0.72467	0.70741	0.9235	87.68	-0.251	0.0905	0.3414	1713.792	0.205897	-388.23293	-388.223647	-388.222703	-388.267855	34.643	
C	 0.0445278154	 1.3624803241	 0.008420656	-0.227798
O	 0.0096099064	-0.0429552831	 0.0023028709	-0.227636
C	-1.3038922945	-0.559415706	 0.0114131454	-0.050439
C	-1.2257607891	-2.0814610976	 0.0036147881	-0.351375
C	-2.5797902046	-2.746961663	 0.0121014842	 0.362505
C	-3.7203120113	-2.622185809	-1.0529248167	-0.247424
C	-4.2616843124	-3.6038703952	 0.0224618476	-0.043676
C	-2.8632953162	-4.2809601189	 0.0079924768	-0.262313
C	-3.7024570278	-2.6312399348	 1.0969392304	-0.247434
H	 1.0945470014	 1.6655526237	 0.0006449573	 0.125177
H	-0.4545605186	 1.7894648829	-0.8766427612	 0.10112
H	-0.4390111201	 1.7813266296	 0.9059166471	 0.10112
H	-1.8483574212	-0.2061080853	 0.9044174208	 0.085978
H	-1.8639005724	-0.1978393732	-0.8685780743	 0.085969
H	-0.6624645148	-2.3987200465	-0.8826739766	 0.105947
H	-0.6473223584	-2.4070129128	 0.8770491274	 0.105941
H	-4.2220066778	-1.652793959	-1.1286165146	 0.08538
H	-3.511429487	-3.0407972948	-2.042128513	 0.086258
H	-5.2327960079	-4.0994856385	 0.0284412608	 0.069334
H	-2.5880832959	-4.8253536536	-0.9004762662	 0.085864
H	-2.5730593898	-4.8329626078	 0.9071468954	 0.085862
H	-3.4772247532	-3.0581468405	 2.0789843828	 0.086259
H	-4.2027591805	-1.6625531608	 1.1890941217	 0.085381
