18
gdb 36182	4.53635	1.14471	1.04565	1.8575	80.45	-0.2422	0.0531	0.2954	1171.1166	0.147829	-364.721274	-364.7135	-364.712556	-364.753771	30.498	
C	-0.0360730739	-1.1729210605	 0.2802115951	-0.448467
C	-0.0097191839	 0.0172812695	 0.1174793428	 0.311858
C	 0.040901648	 1.4600418066	-0.1008933415	-0.475102
C	 1.4460489996	 2.0055847106	-0.1959929069	 0.343884
C	 2.6355212869	 1.4059328045	-0.9276637531	-0.288243
C	 3.4617917353	 2.2926577581	 0.0219167535	-0.006676
C	 3.1621002112	 3.7509831012	-0.375864164	-0.240027
C	 1.7675555931	 3.4316570106	 0.1293577454	-0.086672
N	 2.260087406	 2.3232744963	 1.026810617	-0.185594
H	-0.0681666197	-2.2226019667	 0.4364283718	 0.196544
H	-0.5061800808	 1.7092061967	-1.0207365499	 0.135034
H	-0.4791245229	 1.9759258916	 0.7162293728	 0.140953
H	 2.7342352191	 0.3462519637	-0.6814112532	 0.123093
H	 2.7403533285	 1.5527286371	-2.0081753178	 0.093034
H	 4.4438426878	 1.9872581967	 0.3766482371	 0.084922
H	 3.6629733587	 4.4591412866	 0.2891846775	 0.113861
H	 3.3082936047	 4.0508829073	-1.4190745664	 0.096278
H	 1.0043803725	 4.1245095103	 0.4681417197	 0.09132
