19
gdb 84158	2.63048	1.35728	0.97707	3.3408	78.26	-0.2443	-0.0236	0.2207	1230.2017	0.159022	-423.066927	-423.058179	-423.057235	-423.100309	33.225	
C	-0.0204173394	 1.5806768719	 0.0792741927	-0.47348
C	-0.0398698725	 0.0791198387	-0.0210665915	 0.308253
C	-0.0379600282	-0.5545318419	-1.1963056842	-0.179623
C	-0.0367078409	-2.0581556922	-1.3727400018	 0.017566
O	 0.8330825893	-2.4503597251	-2.4052470349	-0.443121
C	 0.3527582192	-2.7212307458	-0.0567769857	 0.356021
O	 1.2048411596	-3.5827896098	-0.0361881485	-0.331152
C	-0.3468409529	-2.1703402011	 1.1595046022	-0.31431
C	-0.0295113282	-0.6636498786	 1.2977037181	-0.296994
H	 0.847001542	 1.924988471	 0.6570613132	 0.127618
H	 0.0193109463	 2.0507599427	-0.9061545402	 0.127951
H	-0.9101272344	 1.9540045015	 0.602461906	 0.12465
H	-0.0208693189	 0.0078922261	-2.1263259149	 0.099356
H	-1.0638329031	-2.3954486422	-1.6120330468	 0.094087
H	 1.4008600241	-3.1307558044	-2.0085596022	 0.290454
H	-1.4276782083	-2.2937544999	 1.0177954687	 0.126806
H	-0.0462028683	-2.7328561634	 2.045875549	 0.125124
H	 0.9572513385	-0.5385583995	 1.7657041851	 0.127985
H	-0.7420573538	-0.202835648	 1.9929870957	 0.11281
