22
gdb 117350	2.56827	0.97983	0.81515	2.4075	80.35	-0.253	0.0231	0.276	1529.4004	0.191275	-441.483481	-441.472482	-441.471537	-441.520653	38.706	
C	-0.3910830055	 0.3243448417	 0.9773440354	-0.232312
O	 0.9201963982	 0.1703316937	 1.4757731103	-0.216597
C	 1.7994771783	-0.4285842968	 0.5562165782	-0.127878
C	 1.5032275958	-1.892224395	 0.2584115545	 0.362284
N	 1.5622110113	-2.3174130988	-0.9364738301	-0.524524
O	 1.2276280905	-2.5570138267	 1.4050367815	-0.239404
C	 0.9410437723	-3.9674254452	 1.3698438303	 0.119151
C	 2.2413236605	-4.7691110422	 1.3309919197	-0.393965
C	 0.1038924446	-4.2573287568	 2.6090519151	-0.389821
H	-0.869026378	-0.6426604438	 0.7632970325	 0.109121
H	-0.9681216139	 0.8382718283	 1.7496870385	 0.126667
H	-0.4069137044	 0.9281068986	 0.0569006232	 0.108276
H	 1.8177809477	 0.0993013889	-0.4065000549	 0.114638
H	 2.7955544811	-0.3647854093	 1.0087940022	 0.122298
H	 1.4097743094	-3.3221096963	-1.0133583208	 0.216828
H	 0.3411022714	-4.1805417958	 0.4747963994	 0.084447
H	 2.0251774596	-5.8414069808	 1.2981507932	 0.121764
H	 2.8428336293	-4.5142108644	 0.4546820821	 0.130102
H	 2.8361498159	-4.5634695692	 2.2261769876	 0.130418
H	-0.8111536117	-3.6597870258	 2.6042938114	 0.128054
H	-0.1703111825	-5.3158444174	 2.6422927956	 0.118588
H	 0.6672930501	-4.0155908969	 3.5151732349	 0.131866
