17
gdb 79975	3.0799	1.33603	1.19362	3.4887	75.4	-0.24	-0.03	0.21	1084.4685	0.137026	-418.028732	-418.020817	-418.019873	-418.061435	29.448	
C	-0.0884156795	 1.555770861	-0.0314499741	-0.418867
C	 0.0555043998	 0.0539582895	 0.0359191181	-0.046489
C	 1.360342549	-0.6943693262	-0.1889018476	-0.029572
N	 2.6013350513	 0.0345041722	-0.0761753893	-0.245923
C	 2.6939349403	 0.4437396305	 1.1306239398	 0.048687
N	 1.6484045447	 0.0612732206	 1.9799898478	-0.053707
C	 1.5838387557	 0.3222297425	 3.3297428898	 0.150969
O	 2.4168048703	 0.9459946773	 3.9440538448	-0.308388
C	 0.6928842882	-0.6826162097	 1.1914711609	-0.070529
H	 0.8140763071	 2.0744846884	 0.2982234877	 0.138154
H	-0.2915456512	 1.8724097786	-1.0590692854	 0.130391
H	-0.9192312935	 1.8934404906	 0.597090136	 0.122549
H	-0.7940383935	-0.4923370431	-0.3669826975	 0.10113
H	 1.3724942107	-1.552929101	-0.8496400136	 0.106993
H	 3.4940304537	 1.0492188428	 1.5353326717	 0.168553
H	 0.6748356032	-0.1083598353	 3.7892770184	 0.089995
H	 0.2197244738	-1.5281388388	 1.6758196724	 0.116054
