19
gdb 88389	2.21232	1.391	1.21126	3.0338	71.81	-0.237	-0.0203	0.2168	1140.7147	0.156036	-460.152535	-460.142828	-460.141884	-460.187267	36.094	
C	 0.2375084123	 1.4467226512	 0.2547287602	-0.408237
C	-0.0305105784	-0.0575906565	 0.1034545855	 0.226661
O	 0.5526809845	-0.6818381481	 1.2354095893	-0.47259
C	-1.553051663	-0.2573356575	 0.1604232646	 0.138293
O	-2.2838341694	-0.3054190061	-0.7939596833	-0.259633
C	 0.5108233923	-0.5800804666	-1.2253528996	-0.033283
C	 1.9530739495	-1.023049193	-1.342693136	-0.353909
C	 0.8333747946	-2.0297025043	-1.4299118325	 0.075078
O	 0.5901074063	-2.9087887252	-0.3520710165	-0.427586
H	 1.31726163	 1.6179214179	 0.2675216305	 0.130822
H	-0.2079939018	 2.0092734339	-0.5698334674	 0.126842
H	-0.1779958595	 1.8114134358	 1.1989066596	 0.127102
H	 0.5298339543	-1.6363772005	 1.0649445337	 0.289164
H	-1.930768455	-0.3422591984	 1.2053835088	 0.084855
H	 0.0613605141	-0.0870818291	-2.0802167672	 0.109722
H	 2.5170708936	-0.7833943135	-2.2372924202	 0.115997
H	 2.5207514008	-1.0177082492	-0.41802885	 0.128542
H	 0.6023815297	-2.4641115724	-2.4002471599	 0.104389
H	 1.2985753151	-3.5612155285	-0.3294752595	 0.29777
