14
gdb 18952	7.39745	1.35016	1.32549	1.242	62.24	-0.2505	-0.0314	0.219	897.2486	0.106361	-382.44361	-382.43739	-382.436446	-382.474266	23.604	
O	-0.0538687917	-0.1247106839	-0.1889543636	-0.253144
C	 0.0024254754	 1.0558829665	 0.046135661	 0.158879
C	 1.2599895253	 1.8703076695	 0.0332393995	-0.128692
C	 1.1974873186	 3.2598908004	-0.6655740038	-0.106348
C	 0.523168116	 3.9516706807	 0.5629022994	 0.082606
O	 1.5010774028	 5.0285738292	 0.642893988	-0.319684
C	 2.2779999147	 3.8503952273	 0.2916207878	 0.09086
C	 1.4640629261	 2.8791893481	 1.2008406829	-0.106463
H	-0.9199256367	 1.6322958751	 0.2977122782	 0.067678
H	 2.1181282208	 1.2417389124	-0.2177000135	 0.093494
H	 1.0498243438	 3.4936023725	-1.7192079455	 0.100523
H	-0.5211168319	 4.1864644297	 0.7599449504	 0.110902
H	 3.3547698729	 3.9410671968	 0.1563039519	 0.108899
H	 1.618329014	 2.6819385257	 2.2609687074	 0.100492
