23
gdb 93883	1.85615	1.62469	1.0124	2.922	85.24	-0.2407	-0.0188	0.2219	1278.3732	0.205426	-388.323196	-388.313351	-388.312407	-388.358072	36.612	
C	-0.8538975886	 1.184470867	 0.0486241913	-0.420352
C	 0.0681782569	-0.0341032071	-0.0030135338	 0.027062
C	 1.1363409636	 0.0087224708	-1.1256154749	-0.221959
C	 2.3311085622	-0.8427169685	-0.6182591444	-0.22196
C	 1.9275351229	-1.3590354542	 0.7865942665	 0.027061
C	 3.1007139662	-1.6334169214	 1.7279630385	-0.420347
C	 0.8794413388	-0.3273314212	 1.2901699782	-0.106167
C	 1.5312994994	 0.9183837257	 1.8456042487	 0.170483
O	 1.3606419896	 1.3431372157	 2.9613192569	-0.264332
H	-0.2910424849	 2.1126776375	 0.1984010514	 0.120797
H	-1.4130178979	 1.2871304831	-0.8872531619	 0.115461
H	-1.5795557978	 1.1025381273	 0.8642515233	 0.122839
H	-0.5544861297	-0.9237213038	-0.164177213	 0.080137
H	 0.7283347189	-0.3603185524	-2.0709282344	 0.100672
H	 1.4485873406	 1.0427863176	-1.3087685114	 0.100565
H	 2.570396511	-1.6731563806	-1.2886233441	 0.100675
H	 3.2386298213	-0.2328811817	-0.5487320573	 0.100565
H	 1.3726255838	-2.2969397572	 0.6542562714	 0.080141
H	 3.7050004369	-0.7347189898	 1.8952501158	 0.120802
H	 2.7552976678	-1.9862081943	 2.7050839595	 0.122844
H	 3.7615188386	-2.4001001232	 1.3101649742	 0.115457
H	 0.2504460761	-0.7350483515	 2.0872574903	 0.08052
H	 2.2113623942	 1.4538991325	 1.1418040391	 0.069034
