18
gdb 120438	3.72778	0.88311	0.76128	3.7438	77.38	-0.2462	-0.0356	0.2105	1475.5578	0.147973	-439.10049	-439.091762	-439.090818	-439.134673	31.981	
O	 0.1442945394	 1.3917838227	-0.0794228971	-0.417805
C	 0.0695464519	-0.0217936827	 0.0060319798	-0.069276
C	-1.3748366167	-0.5295040485	-0.0521480255	-0.21172
C	-1.4667021552	-2.0579307291	-0.0233445787	 0.047018
O	-0.9241567948	-2.562112161	 1.2063278594	-0.228866
C	-1.8590494748	-3.3118552279	 1.8675135743	 0.386493
N	-1.569584332	-3.8397518362	 2.9825002036	-0.52401
C	-3.0839628642	-3.319875879	 1.0436038035	-0.193693
C	-2.8673056412	-2.6023831769	-0.0571413667	-0.088993
H	-0.1852069949	 1.7552269568	 0.7484434091	 0.284113
H	 0.6300681111	-0.4026628084	-0.8555542161	 0.110745
H	 0.5612436081	-0.4038990196	 0.9103736835	 0.120306
H	-1.9478869631	-0.1297433712	 0.7939646377	 0.101563
H	-1.8458409247	-0.1597399171	-0.9705685397	 0.109539
H	-0.8638911409	-2.4721416266	-0.8466279262	 0.106011
H	-2.3685622112	-4.3624341035	 3.3363715649	 0.220664
H	-3.9849861384	-3.8417981581	 1.3343042764	 0.121852
H	-3.5545746181	-2.4061978339	-0.8698265222	 0.126059
