14
gdb 33596	3.98953	1.52736	1.38072	4.6964	69.56	-0.2704	0.0113	0.2817	909.1263	0.102561	-399.475946	-399.469896	-399.468952	-399.506429	24.451	
N	 0.0681639968	-1.0581318276	-0.0417506942	-0.352694
C	 0.0159874498	 0.0987298718	-0.0327888917	 0.132203
C	-0.0539601532	 1.514551674	 0.0181832717	 0.278478
C	 0.1380141651	 2.4396159155	-1.1988712301	-0.145484
C	 1.0659916158	 2.5483898407	-0.0211807387	-0.166683
C	 0.0604136958	 3.5572430385	 0.610046993	-0.103849
C	-0.7738650527	 3.6058470515	-0.7120519816	 0.077701
O	-1.9336413143	 3.0348213324	-0.0726737918	-0.276079
C	-1.0066749162	 2.4417060522	 0.8474790044	-0.000951
H	 0.3133780445	 2.0469756834	-2.1903582615	 0.123628
H	 2.1316857473	 2.4016755787	 0.0668219886	 0.123417
H	 0.2556435327	 4.3951577448	 1.2718806544	 0.100313
H	-0.977168958	 4.4642195712	-1.3484520115	 0.102011
H	-1.4352596734	 2.0977643328	 1.785779049	 0.10799
