18
gdb 13010	2.62175	2.4694	1.65835	1.2911	72.23	-0.226	0.0193	0.2453	850.9619	0.153847	-347.79895	-347.791419	-347.790475	-347.8301	29.939	
C	-0.1712094084	 1.5743639348	 0.010856878	-0.401255
C	 0.0276905645	 0.0532522769	-0.0239257804	-0.086691
C	 0.8566198992	-0.4573509981	-1.1873728566	-0.088906
C	 1.8294678567	-1.2845129725	-0.7952942978	-0.081702
C	 1.8660121499	-1.4220205219	 0.6889813807	-0.131032
C	 2.1886549525	-0.1359401118	 1.4488340669	-0.343789
C	 0.7570907303	-0.5314582869	 1.1957568131	 0.396942
O	-0.0234144263	-0.9542725571	 2.2744894799	-0.473744
H	 0.7870958596	 2.1006674869	 0.0615899704	 0.117557
H	-0.6990992172	 1.9248173165	-0.8820350396	 0.114579
H	-0.7675769144	 1.869326999	 0.8817311852	 0.105747
H	-0.9676497557	-0.4156004931	-0.0522252968	 0.089823
H	 0.6537559787	-0.1645060567	-2.2119463277	 0.091165
H	 2.5344762965	-1.7833349182	-1.4508888564	 0.094781
H	 2.0936123648	-2.3686841605	 1.1651637639	 0.09582
H	 2.5277847182	-0.257574566	 2.4726410812	 0.109619
H	 2.6395909315	 0.6848244337	 0.9008797028	 0.110038
H	-0.2056684804	-0.187575755	 2.8285883733	 0.281048
