13
gdb 29546	3.42174	1.79795	1.17864	4.88	64.82	-0.2144	0.0158	0.2302	938.4045	0.091576	-452.768706	-452.762101	-452.761157	-452.799559	25.674	
O	-0.1213313231	 1.3564538669	 0.0100246911	-0.418792
C	 0.0281006539	 0.0204144947	 0.0025900866	 0.345541
C	 1.0947622834	-0.8121715738	-0.006843869	-0.214275
O	 0.6691485831	-2.1409058787	-0.0115113392	-0.220612
C	-0.6764183332	-2.0861463003	-0.0046522265	 0.511968
N	-1.6307997648	-2.9693392764	-0.0043748987	-0.396299
C	-2.7703712415	-2.1752970098	 0.0054392329	-0.085984
C	-2.4877795911	-0.8295752007	 0.0105833895	-0.164253
N	-1.0994460037	-0.7834454971	 0.0039740614	-0.083362
H	 0.7456055318	 1.7764091146	 0.0087375411	 0.318415
H	 2.155655811	-0.6433172809	-0.0111983487	 0.149726
H	-3.750017942	-2.628513929	 0.0081177494	 0.115808
H	-3.1003372739	 0.0537228603	 0.0179481	 0.142119
