13
gdb 131331	3.60224	1.74327	1.17476	4.7057	64.7	-0.1983	0.0106	0.2089	939.2047	0.092225	-448.943205	-448.936451	-448.935507	-448.97415	26.115	
O	 0.0923051406	 1.3420888546	 0.1406849321	-0.430125
C	 0.0735669203	 0.0038201839	 0.0333259566	 0.427257
N	 0.0753385856	-0.7150448677	-1.0549239682	-0.335143
N	 0.0512215247	-2.0734124268	-0.6979628336	-0.373301
C	 0.03627373	-2.0622063788	 0.6066821387	 0.519722
N	 0.0109399259	-2.9350479857	 1.6671721008	-0.426865
C	 0.0077711755	-2.1889858742	 2.8428632641	-0.066293
C	 0.0317229566	-0.8665628149	 2.5423919932	-0.143111
N	 0.0491339005	-0.791677259	 1.1455565846	-0.083868
H	 0.1078459852	 1.6859816079	-0.7620670681	 0.318081
H	-0.0044459613	-3.9353280041	 1.5926325139	 0.283088
H	-0.0109596213	-2.6674469273	 3.8075128399	 0.151034
H	 0.0376799278	 0.0008972921	 3.176713236	 0.159525
