16
gdb 10845	4.82586	1.48886	1.18243	3.8102	61.16	-0.2385	0.0532	0.2916	965.61	0.133012	-417.103899	-417.09621	-417.095266	-417.13594	28.471	
O	-0.1222953055	 1.4590050209	 0.095092484	-0.421898
C	 0.0147072749	 0.053254436	 0.0068062883	 0.10141
C	 0.7517047641	-0.5228224611	 1.2211804432	-0.184688
N	 0.7023420145	-1.9717688739	 1.1692540581	-0.345448
C	-0.3966988807	-2.694205495	 0.746775273	 0.442418
O	-0.5020060542	-3.8931507676	 0.9382075304	-0.416934
N	-1.3309858857	-1.9731303314	 0.034915172	-0.348974
C	-1.3971450663	-0.5250939785	-0.0381323328	-0.155568
H	 0.7473835816	 1.856377288	-0.0112888109	 0.290312
H	 0.5483635204	-0.2451887284	-0.9073540341	 0.089819
H	 1.8000414879	-0.2012359131	 1.2114202782	 0.101127
H	 0.2894455119	-0.1079827331	 2.1306883747	 0.111213
H	 1.3068067458	-2.5035234915	 1.7744720958	 0.251321
H	-2.1532100441	-2.5097440735	-0.1878104627	 0.25244
H	-1.9741043351	-0.0835507249	 0.7890546329	 0.113799
H	-1.8851695795	-0.2282413428	-0.9714226802	 0.11965
