16
gdb 3608	4.06263	4.06168	2.8615	1.6943	62.48	-0.2197	0.075	0.2946	562.6006	0.140153	-288.584832	-288.579733	-288.578788	-288.613285	21.132	
C	-0.0490825818	 1.5301721874	 0.030139499	-0.240823
C	 1.4919451156	 1.5099596221	 0.0273552949	 0.019444
C	 2.1363436711	 1.1758418906	 1.3868345699	-0.240812
C	 1.7950024469	-0.2998323719	 1.1024528918	 0.019354
C	 0.3206439915	-0.680290856	 1.3431124264	-0.240888
C	 0.0042102913	-0.0098827751	-0.0082624032	 0.019361
N	 1.4979261961	 0.0250544567	-0.3705426628	-0.160294
H	-0.559247225	 2.0102761975	 0.8710703102	 0.095289
H	-0.4451770376	 1.9409604845	-0.9022675169	 0.108687
H	 2.0083317052	 2.2234661488	-0.6184944404	 0.07089
H	 3.2159919908	 1.3466311335	 1.3701040212	 0.108626
H	 1.7204956557	 1.6406385665	 2.2862791781	 0.095334
H	 2.5564640307	-1.0501074197	 1.3263765377	 0.070909
H	 0.173785043	-1.7626296468	 1.2977246272	 0.108691
H	-0.1739432514	-0.2954870061	 2.2405292963	 0.09531
H	-0.682846212	-0.5255243222	-0.6827515192	 0.070922
