16
gdb 57240	2.78234	1.24268	1.05642	3.459	75.96	-0.2831	-0.0892	0.1939	1164.2832	0.119915	-400.734819	-400.724796	-400.723852	-400.769816	35.592	
C	-0.0108369894	 1.53144811	-0.0321225268	-0.426202
C	-0.0221266401	-0.0206438645	-0.010653781	-0.107726
C	 0.7658357117	-0.5405777649	 1.2214689295	-0.426242
C	-1.3956855803	-0.5164396291	 0.0207727918	 0.347848
C	-2.5302522503	-0.9039436836	 0.0836735583	-0.447128
C	 0.675208718	-0.5288692576	-1.2835264892	 0.328478
O	 0.1837424367	-1.223987944	-2.1300120796	-0.263241
C	 2.0855393215	-0.0904526021	-1.4310202418	 0.236954
N	 3.1854081096	 0.2425723054	-1.5607566064	-0.315636
H	 1.0135304838	 1.9121733779	-0.0717228321	 0.146014
H	-0.5665579563	 1.9150255793	-0.8912085866	 0.144546
H	-0.4849753464	 1.9045253033	 0.8786456151	 0.143451
H	 0.2915152328	-0.1672789373	 2.1320499176	 0.143445
H	 0.7633939938	-1.6327546062	 1.2552449067	 0.144524
H	 1.8004894446	-0.1872890792	 1.1985945567	 0.146029
H	-3.5321576798	-1.2544640774	 0.1268913178	 0.204888
