21
gdb 89225	2.81188	1.68341	1.2952	1.3228	81.68	-0.2204	0.0919	0.3123	1067.0858	0.183194	-387.074814	-387.066813	-387.065869	-387.106685	32.574	
C	-0.1300814278	 1.5253231153	-0.0669709797	-0.408188
C	 0.0484683945	 0.0193502673	 0.0219631081	 0.141559
O	 0.8354160743	-0.4403684685	-1.0920380368	-0.324432
C	 1.5461984052	-1.5907697238	-0.6610404863	 0.470475
C	 1.7517274172	-2.6036147713	-1.7500890559	-0.478996
C	 2.606899156	-1.3980862655	 0.4124608507	-0.126014
C	 2.3163925216	-0.1191859379	 1.1936656001	-0.245187
C	 0.8061348615	-0.5329128762	 1.2344729638	-0.080648
C	 1.2126404633	-1.9513740634	 0.7474877471	-0.166579
H	 0.8285050564	 2.0465823824	-0.0019067122	 0.122881
H	-0.5985130531	 1.7944913752	-1.0178890298	 0.126601
H	-0.7762716005	 1.8787810643	 0.7431327679	 0.11137
H	-0.9435408999	-0.4632943943	-0.0226473658	 0.061119
H	 2.3112050763	-2.1656152801	-2.5830675492	 0.128366
H	 2.3149838235	-3.4638595155	-1.37665091	 0.117406
H	 0.7909410206	-2.9580398058	-2.1365015659	 0.122713
H	 3.5528161434	-1.9279193157	 0.3749026498	 0.07673
H	 2.7601165151	-0.1486712895	 2.1919259738	 0.100098
H	 2.5689290847	 0.8333885458	 0.7177802407	 0.098329
H	 0.2861580427	-0.4258421515	 2.1859305709	 0.069974
H	 0.8876099252	-2.9162606015	 1.1149816387	 0.082422
