16
gdb 18740	3.13999	2.22845	1.58966	4.1447	63.71	-0.2701	0.0073	0.2775	828.1928	0.131069	-383.755875	-383.748889	-383.747945	-383.787186	26.377	
C	-0.4843068994	 1.4765426245	 0.0622813636	-0.409387
C	 0.0145139113	 0.0407303951	-0.0032454567	 0.019828
C	 1.3068386865	-0.277250902	-0.8294135022	-0.263279
C	 1.9464837563	-0.9051573813	 0.4235626351	 0.114118
O	 2.7162956225	 0.078106642	 1.1887747129	-0.256602
C	 1.6336587546	 0.3713502504	 1.9924540992	 0.45884
O	 1.5958239307	 1.1407802393	 2.8977934613	-0.330403
C	 0.6910006252	-0.5848711196	 1.2700465706	-0.248595
H	 0.3048814882	 2.1641300067	 0.3821288731	 0.138132
H	-0.8371324849	 1.804313699	-0.9213483919	 0.119526
H	-1.3158291396	 1.5748545807	 0.7677691092	 0.127415
H	-0.7990054629	-0.6182091636	-0.3189384791	 0.08998
H	 1.1449248663	-0.9810386206	-1.6487922758	 0.112671
H	 1.8586136194	 0.5869780258	-1.2061597531	 0.122291
H	 2.4624516916	-1.8624466671	 0.3810518765	 0.100314
H	 0.123829204	-1.2853118493	 1.8795596971	 0.10515
