15
gdb 12044	3.95608	1.73023	1.54713	3.2632	65.11	-0.2799	0.0139	0.2938	849.396	0.118801	-362.640116	-362.632902	-362.631958	-362.671326	27.532	
O	-0.1062218272	 1.4172379904	-0.0842901433	-0.45906
C	-0.0384576551	 0.0131558978	 0.0141143095	 0.258872
C	 0.2388460139	-0.6280151612	 1.4343683071	-0.305202
C	-1.1382050844	-1.2938833455	 1.3695045248	-0.025811
C	-2.1980506668	-0.2462705434	 1.2153597839	-0.29374
C	-1.4131377548	-0.6609959943	 0.0014238382	-0.060068
C	 0.865470517	-0.5335143319	-1.010014246	 0.229152
N	 1.6004708293	-0.9370536916	-1.8059442567	-0.338071
H	 0.7891270049	 1.7742259124	-0.0569371809	 0.29333
H	 1.0781066053	-1.324422161	 1.4185953662	 0.130954
H	 0.38420704	 0.1073599824	 2.2313755067	 0.110504
H	-1.3544241707	-2.3037190183	 1.691014311	 0.099405
H	-3.221291289	-0.6065653646	 1.2233392359	 0.122252
H	-2.0639031378	 0.7442548518	 1.6389915057	 0.128848
H	-1.8756975546	-1.078522053	-0.8828566921	 0.108633
