21
gdb 77476	1.99306	1.47506	1.36709	1.7221	79.04	-0.2332	0.0629	0.2962	1144.2915	0.180044	-424.197411	-424.187369	-424.186425	-424.231388	37.935	
C	-0.2253014563	 1.5853828634	 0.0066553898	-0.425887
C	 0.0584700838	 0.0865698502	-0.0106360634	-0.010092
C	 1.2115344277	-0.484976283	-0.9036850848	-0.302824
C	 1.7770295939	-1.2528761012	 0.3040645573	 0.251812
C	 2.2927635345	-2.6629092862	 0.2552458818	-0.496693
C	 2.1703681587	-0.2687347104	 1.3620194173	-0.026941
O	 2.7897905537	 0.9414892856	 1.0101421766	-0.418285
C	 0.7065434521	-0.5893694472	 1.2030246212	 0.256459
O	-0.020722573	-1.195077448	 2.2205646979	-0.46015
H	 0.6932912442	 2.1576807199	 0.1570875236	 0.118444
H	-0.6733868993	 1.9106477039	-0.938833047	 0.113321
H	-0.9305776585	 1.8434820907	 0.8058078001	 0.103431
H	-0.8639431209	-0.4596611989	-0.2353447288	 0.079093
H	 0.8515240955	-1.1439346147	-1.6972738472	 0.095913
H	 1.8863840093	 0.259611086	-1.3321558377	 0.110378
H	 3.2639892137	-2.7121125582	-0.2516186473	 0.121572
H	 2.4189124776	-3.0737771154	 1.2617452386	 0.12297
H	 1.6016094576	-3.317538679	-0.2874633415	 0.117835
H	 2.5967324016	-0.7491868133	 2.245547035	 0.083751
H	 2.5857399271	 1.5934653717	 1.6885699669	 0.283715
H	-0.114187073	-0.5718317559	 2.9490553316	 0.282179
