16
gdb 28508	3.15146	1.32398	0.93317	1.6805	77.1	-0.1806	0.0137	0.1943	1180.3544	0.125324	-437.952049	-437.943809	-437.942865	-437.98416	32.635	
N	-0.0558500254	 1.4090519245	-0.1722687335	-0.596408
C	-0.0324582423	 0.0166506234	-0.0971754301	 0.271339
C	-1.2012495496	-0.7474077753	-0.0699687829	-0.358164
C	-1.1492396864	-2.1421523852	-0.0516639413	 0.406791
O	-2.2814643959	-2.9107447819	-0.0252500846	-0.452708
C	 0.0780536812	-2.7967197777	-0.0586302751	-0.218138
C	 1.2478160499	-2.0377561588	-0.0833455868	-0.221419
C	 1.2043406379	-0.6522256072	-0.1014983655	 0.30405
O	 2.3244393401	 0.1499341604	-0.1170766892	-0.470524
H	 0.8111651655	 1.8388879548	 0.1169846463	 0.259002
H	-0.8588824153	 1.8422315061	 0.2594458198	 0.242718
H	-2.1632667944	-0.2395765757	-0.0695889488	 0.068314
H	-3.0504699162	-2.3327004521	-0.0372056999	 0.292445
H	 0.1088122971	-3.8788086972	-0.0444373008	 0.097133
H	 2.2129199498	-2.5386873271	-0.0846505582	 0.080852
H	 3.107019894	-0.4068128511	-0.0710293894	 0.294717
