14
gdb 132093	3.00044	1.46945	0.99246	0.6415	72.51	-0.2246	-0.0803	0.1443	1098.7716	0.099903	-477.991405	-477.983661	-477.982716	-478.023987	28.531	
C	 0.0581216261	 1.5293755155	 0.0118455539	-0.481633
C	-0.048331878	 0.0494952946	 0.1120207556	 0.226171
C	-1.1217019466	-0.7101290394	-0.1857077138	 0.210317
F	-2.2515286803	-0.1529209239	-0.6241033082	-0.071128
N	-1.1460217109	-2.0649842556	-0.0691992119	-0.250757
C	-0.0726428534	-2.6398311032	 0.3515077289	-0.082881
C	 1.1573310283	-1.9270564803	 0.7072889051	 0.35894
N	 2.2590567373	-2.3968827648	 1.1281415002	-0.505757
O	 1.0855412278	-0.5567110833	 0.5564030856	-0.23379
H	 0.865107982	 1.8093499012	-0.6739617314	 0.155115
H	-0.8808810524	 1.9494887598	-0.3485370254	 0.154913
H	 0.2953873943	 1.9629327907	 0.9894307479	 0.155111
H	-0.0660866586	-3.723169428	 0.4535474323	 0.135159
H	 2.2013524445	-3.4111534133	 1.2018397211	 0.23022
