19
gdb 71364	2.94543	1.91593	1.54677	1.324	78.03	-0.243	0.0791	0.3221	918.7555	0.161462	-385.831666	-385.824918	-385.823974	-385.862198	29.15	
O	-0.000332793	 1.3874046756	 0.1446237865	-0.476155
C	 0.0533818353	 0.0023624103	 0.0580347428	 0.380017
C	 0.6964555954	-0.9729041405	 1.0712850026	-0.310855
C	 0.0403023655	-1.8563309275	-0.0082203062	-0.0633
C	-1.2118601993	-0.8982693084	-0.0351495261	-0.05492
C	-1.7600899993	-0.8826150159	-1.4563805779	-0.063412
C	-1.4228452337	 0.300767521	-2.3354445162	-0.304413
C	-0.4743497059	-0.8760849398	-2.2569830265	-0.063502
C	 0.5567870815	-0.8902855635	-1.1374535116	-0.092536
H	 0.9023878395	 1.724495241	 0.1420150684	 0.281298
H	 1.7898262136	-0.9848039204	 1.1197806864	 0.082854
H	 0.2531905891	-0.9982103897	 2.0703817802	 0.093125
H	 0.0196729938	-2.9431712465	-0.0559858728	 0.077434
H	-1.9036978216	-0.9099029109	 0.8087882317	 0.064678
H	-2.5977068694	-1.5220777634	-1.710105076	 0.080885
H	-1.9944752411	 0.3913081222	-3.2542493213	 0.098906
H	-1.1486687313	 1.2422016244	-1.8772289457	 0.134479
H	-0.3297810575	-1.5089395076	-3.1252761051	 0.080401
H	 1.6209204183	-0.8896829005	-1.3840367834	 0.055015
