14
gdb 28120	5.39325	1.34318	1.08261	2.3224	71.02	-0.2094	-0.0061	0.2032	1047.4933	0.103893	-432.913562	-432.906649	-432.905705	-432.945006	25.955	
C	 0.0619167179	 1.4360021463	-0.0006258682	-0.493149
C	-0.0641632342	-0.0423274003	-0.013485859	 0.354349
N	-1.1337654274	-0.7492007773	-0.2780344364	-0.395683
C	-0.6684654535	-2.034981562	-0.1425192836	 0.31212
C	 0.6494984377	-2.0560532766	 0.1948856484	 0.329467
O	 1.0759255428	-0.7637765841	 0.2874668553	-0.227105
N	 1.1713301648	-3.2936925653	 0.3443636594	-0.351788
C	 0.1214010787	-4.0639644205	 0.0856742858	-0.010004
N	-1.0293285192	-3.3586652446	-0.217760098	-0.388478
H	 0.8097095002	 1.7741430894	-0.7257694667	 0.149176
H	-0.9038932709	 1.8745537183	-0.252461523	 0.156655
H	 0.3738066988	 1.7963844272	 0.9853415928	 0.149172
H	 0.1297086231	-5.1426791663	 0.1018005314	 0.138079
H	-1.9269604689	-3.7524838542	-0.442423358	 0.277189
