17
gdb 72589	2.20049	1.67578	1.48227	3.2077	68.15	-0.2626	-0.0017	0.2608	998.513	0.134312	-458.98207	-458.97346	-458.972516	-459.01511	32.056	
C	 0.1830767012	 1.5536664512	-0.0243849218	-0.476998
C	 0.1132786155	 0.0591923963	 0.074483629	 0.368941
C	 0.6004845053	-0.8850969201	-1.0441190716	-0.272588
C	 1.2888188463	-1.7918706046	 0.0224926947	-0.279378
C	 0.8088682782	-0.8527996963	 1.1606602394	 0.183558
O	 1.769859916	-0.520071051	 2.0971247842	-0.461251
C	-0.6271708589	-1.1214036209	 1.6084065678	 0.374629
O	-1.1735032797	-1.6628943956	 2.5176784416	-0.337495
O	-1.1950397604	-0.4151273175	 0.5794981554	-0.291596
H	 1.2023923661	 1.8648848865	-0.27147748	 0.133904
H	-0.4884141027	 1.9251422705	-0.8056400137	 0.138761
H	-0.1019140769	 2.021718395	 0.9224993056	 0.129552
H	-0.210085027	-1.3382790667	-1.6166859126	 0.122883
H	 1.3064493107	-0.4165975815	-1.7331568885	 0.114056
H	 0.9705072444	-2.8336461833	 0.0886540274	 0.124028
H	 2.3786552414	-1.7579423278	-0.0354333232	 0.128975
H	 1.3358814605	-0.2339701342	 2.9086677162	 0.300019
