18
gdb 57089	2.95796	1.19541	0.92051	3.5946	77.46	-0.2541	0.001	0.2551	1255.1277	0.148241	-401.968474	-401.959765	-401.958821	-402.002443	32.04	
O	-0.2461648117	 1.3460622781	 0.0232336313	-0.409071
C	-0.0147771254	-0.0485413989	 0.0940520421	-0.019417
C	 0.4865662111	-0.5619607992	-1.1985153792	 0.260471
N	 0.9187794952	-0.9386318348	-2.2021369407	-0.32435
C	 0.938536158	-0.450768077	 1.2499447587	-0.057074
C	 0.3674903182	-0.0381029658	 2.6343559447	-0.242122
C	-0.1719456594	-1.3429271735	 3.2782047518	-0.252258
C	 0.4694805886	-2.4290969441	 2.4499718922	-0.059683
C	 1.083082852	-1.953129842	 1.3680374827	-0.084198
H	 0.5918698476	 1.7813780613	-0.1728897371	 0.293965
H	-0.9970668982	-0.4979011732	 0.276363472	 0.140661
H	 1.9010247104	 0.0378503684	 1.046429846	 0.080744
H	 1.1765736114	 0.3679884716	 3.2472139906	 0.108328
H	-0.3879979499	 0.7451866811	 2.5421488074	 0.120595
H	 0.0879014213	-1.4155811695	 4.3401795874	 0.111223
H	-1.2673506135	-1.4122684666	 3.2314909013	 0.112326
H	 0.4091164068	-3.4786311319	 2.7169572724	 0.101881
H	 1.5934649376	-2.5454223241	 0.6176356663	 0.11798
