18
gdb 50527	2.85446	1.26323	1.01767	3.3587	73.76	-0.2469	0.0159	0.2628	1187.0718	0.147597	-439.068686	-439.060191	-439.059247	-439.103146	30.182	
O	 0.0795336163	-0.0825545056	 0.2730612917	-0.328522
C	 0.1263018533	 1.127844004	 0.3530230501	 0.119164
N	 1.2106688884	 1.8707575458	 0.0306714886	-0.079241
C	 2.5220911858	 1.4519400399	-0.4628074108	-0.168534
C	 2.928183651	 2.953859424	-0.4845194466	-0.331985
C	 1.5084185788	 3.2983344613	 0.0413473797	 0.2862
C	 0.5890213577	 4.3280476503	-0.6554426758	-0.12247
O	 0.4948155551	 5.1189681806	 0.5439847577	-0.267865
C	 1.2741164602	 4.1705897044	 1.2965400755	-0.12248
H	-0.7221865736	 1.7516982013	 0.7011040665	 0.074303
H	 3.0714905088	 0.8173991244	 0.2388067457	 0.128996
H	 2.4846564912	 0.951821449	-1.4350300765	 0.128981
H	 3.7355448948	 3.2220069953	 0.1987339239	 0.12205
H	 3.1483605172	 3.3564607494	-1.4744686399	 0.122045
H	 1.0417647675	 4.8836788194	-1.486420246	 0.108219
H	-0.3833014815	 3.9300918905	-0.973083233	 0.111456
H	 0.6913270806	 3.6832416645	 2.0886883989	 0.111466
H	 2.1724052184	 4.6238341317	 1.7345983504	 0.108216
