14
gdb 18444	3.09409	2.17919	1.66916	3.8675	61.54	-0.2598	0.0113	0.271	788.3458	0.107604	-378.673227	-378.666158	-378.665214	-378.70447	26.149	
O	-0.0388783442	 1.4542835182	-0.1051582235	-0.416032
C	-0.0007008612	 0.0578153079	 0.0062313503	 0.098307
C	 0.2296629003	-0.6334439016	 1.3854569622	-0.224465
N	-1.0781538017	-1.3834698934	 1.2711347692	-0.139658
C	-2.1445130591	-0.3533678936	 1.2449311545	-0.161257
C	-2.0823672591	 0.8495878039	 2.0390540722	 0.325129
N	-2.0743947772	 1.7783919298	 2.727592816	-0.346414
C	-1.3687186938	-0.6004191814	 0.002074555	-0.039313
H	 0.8569713367	 1.7992192748	-0.0315512356	 0.293194
H	 0.6408844806	-0.3932928557	-0.7622100691	 0.092405
H	 1.0564347686	-1.3446614743	 1.3998612693	 0.121127
H	 0.2869401443	 0.0272125368	 2.2539320444	 0.139522
H	-3.1295186718	-0.8123522906	 1.259420637	 0.145723
H	-1.8533877023	-1.0525295008	-0.8569338119	 0.111731
