18
gdb 35665	4.1882	0.904	0.78948	3.7574	82.75	-0.2706	0.0279	0.2984	1411.2076	0.148408	-364.812727	-364.804018	-364.803073	-364.847516	32.327	
C	-0.1648715448	-1.1697279226	-0.671965439	-0.435636
C	-0.1345060228	-0.0513604739	-0.2320703531	 0.29162
C	-0.0811233191	 1.2958462137	 0.3134490425	-0.149357
C	-0.3454158284	 1.3894531119	 1.8346514173	-0.217299
C	 0.1283961203	 2.80471483	 2.1782551065	-0.232611
C	 1.4365283871	 2.9724456981	 1.3480963979	-0.136797
C	 1.300276874	 1.98910653	 0.1348039599	-0.237454
C	 1.6786666604	 4.3550426134	 0.9477983316	 0.262423
N	 1.8588559362	 5.4509047422	 0.6261040035	-0.326428
H	-0.1982440757	-2.1552952358	-1.0659118517	 0.197612
H	-0.8391909373	 1.9080832804	-0.1926960815	 0.113785
H	-1.3928309943	 1.212334694	 2.0889237551	 0.117461
H	 0.2569623923	 0.6377007217	 2.3569763057	 0.115149
H	-0.6128214571	 3.5399345109	 1.8493982124	 0.127052
H	 0.299596516	 2.9650522429	 3.2447133461	 0.117844
H	 2.2887329313	 2.6614817028	 1.9606865483	 0.129686
H	 2.0983620365	 1.2449035772	 0.1712140413	 0.126879
H	 1.3745232057	 2.5029203931	-0.824481033	 0.13607
