19
gdb 102095	2.05503	1.36471	1.04303	2.7873	72.69	-0.2387	-0.0319	0.2068	1239.8006	0.155219	-460.136881	-460.126756	-460.125811	-460.172716	35.912	
C	-0.1664656763	 1.3370054477	 0.1804220475	-0.243486
O	-0.3617891107	-0.0253303758	-0.147684989	-0.263509
C	 0.5925677824	-0.5434152182	-1.0583431104	-0.038472
C	 1.9540274147	-0.7210989312	-0.3835794736	 0.145262
O	 3.0044932009	-0.5862938635	-0.9543654308	-0.242735
C	 0.0655395232	-1.8986968656	-1.4991075517	 0.418203
O	-0.2287241844	-2.7411580031	-0.4211335741	-0.476851
C	-0.7764379714	-2.0004249683	-2.7478602695	-0.334955
C	 0.6317622883	-2.5647225894	-2.7095502917	-0.308034
H	 0.810014716	 1.5152135921	 0.6535928788	 0.120235
H	-0.2398238995	 1.9767540406	-0.7110621106	 0.11789
H	-0.9541110743	 1.6141160249	 0.8842942148	 0.136021
H	 0.7244616988	 0.1140507261	-1.929566579	 0.088015
H	 1.8910131681	-1.0156040192	 0.6871774766	 0.092157
H	-0.8541497701	-2.258103939	 0.1336274445	 0.291664
H	-1.5951065353	-2.7098808566	-2.7143842575	 0.122396
H	-0.9644423469	-1.1049468261	-3.330144181	 0.114418
H	 1.4172466388	-2.0567496426	-3.2576480764	 0.130954
H	 0.7370534479	-3.6417511228	-2.6523320571	 0.130829
