13
gdb 11694	4.26142	1.69527	1.37461	3.3457	62.28	-0.2669	-0.0482	0.2187	864.9625	0.094604	-398.573437	-398.566688	-398.565743	-398.604602	24.912	
N	-0.0626062573	 1.1846571397	-0.0540066569	-0.545235
C	-0.0605334327	-0.0614868935	 0.0355119182	 0.45096
O	 0.9990470415	-0.9635334848	 0.1715833873	-0.279889
C	 0.0932575888	-2.0718432781	 0.0026936786	 0.357179
C	-0.90256259	-2.0820877407	 1.1248188648	-0.329802
C	-1.1161869024	-1.1205161156	-0.0228363281	-0.235613
C	 0.4186484361	-3.1880426634	-0.8962728072	 0.07269
O	 1.4552817851	-3.310790125	-1.4952140091	-0.252104
H	 0.8826359807	 1.5671615544	-0.0009318137	 0.241319
H	-1.5921290488	-2.920735461	 1.1443766618	 0.143734
H	-0.5744277987	-1.721530534	 2.0940044939	 0.151145
H	-1.9922545072	-1.1270724087	-0.6546067932	 0.14287
H	-0.4075102151	-3.9309452291	-0.9717627565	 0.082745
