18
gdb 62316	3.90801	1.29734	1.13503	2.266	82.26	-0.2133	0.0372	0.2505	1101.1515	0.145946	-364.677503	-364.669201	-364.668257	-364.710013	32.866	
C	-0.0836813983	 1.6329218503	-0.0339289758	-0.444899
C	 0.0784344257	 0.1044591989	 0.0289975289	 0.128376
C	-1.0618377613	-0.5924709104	-0.5317372732	 0.262176
C	-2.0128270502	-1.1625524777	-0.9992646373	-0.450022
C	 1.3483401792	-0.7200990395	-0.2081483556	-0.09228
C	 2.643252635	-0.169427467	 0.4510123238	-0.081517
N	 2.3544941307	 1.1114625932	 1.1442049683	-0.339314
C	 1.9988580372	-0.1830760046	 1.7784676374	-0.081517
C	 0.684380594	-0.7341789411	 1.159614644	-0.092287
H	 0.7106581294	 2.093817635	-0.6203306884	 0.131396
H	-1.0449309496	 1.869722442	-0.4978340346	 0.110972
H	-0.0562236532	 2.077571533	 0.9604485302	 0.131412
H	-2.8555831834	-1.6574158487	-1.4134535263	 0.187787
H	 1.3617586673	-1.5048854348	-0.9529920598	 0.10188
H	 3.6491104227	-0.4337195868	 0.152368385	 0.098114
H	 3.2293578092	 1.415880481	 1.572032212	 0.229731
H	 2.3886054713	-0.4604083599	 2.7490201074	 0.098114
H	 0.1138601745	-1.5313566129	 1.6177370642	 0.101878
