19
gdb 54846	3.0593	1.3399	1.23752	2.8248	76.34	-0.229	-0.0101	0.2189	1110.792	0.159317	-423.034693	-423.026166	-423.025221	-423.068385	31.566	
C	 0.0541339225	 1.4066854336	 0.2640880278	-0.481425
C	 0.1920167987	-0.0992800215	 0.1050638321	 0.397632
O	 1.2834211147	-0.6336787851	 0.103734762	-0.332295
C	-1.0898012496	-0.8405785595	-0.0249622687	-0.180891
C	-1.2407056581	-2.2291505523	-0.66284698	-0.111235
C	-0.0074447894	-3.0970533438	-0.8895876003	-0.251255
C	 0.5068762692	-3.4092771672	 0.5376275398	-0.059455
O	-0.3653501983	-2.7434385036	 1.4749707276	-0.251587
C	-1.3963970039	-2.1107129249	 0.8051554127	 0.099714
H	 1.0394684462	 1.8548257309	 0.3958041396	 0.139104
H	-0.4324749793	 1.839689818	-0.6176442319	 0.136225
H	-0.579584918	 1.6432077342	 1.1263704162	 0.139546
H	-1.9610630694	-0.2047975419	-0.1554546217	 0.086875
H	-2.0919767095	-2.357710507	-1.3208915896	 0.098343
H	-0.3109927955	-4.0078309949	-1.4140003724	 0.103431
H	 0.7599803192	-2.600564942	-1.4846010166	 0.129548
H	 0.484274448	-4.482882055	 0.7605165067	 0.094889
H	 1.5164885366	-3.0284069184	 0.6891500761	 0.134974
H	-2.3440181743	-2.1468059896	 1.3323991906	 0.107862
