18
gdb 76159	2.12951	1.46995	1.2078	4.1745	74.09	-0.2323	0.014	0.2462	1118.6941	0.145533	-435.24147	-435.231027	-435.230083	-435.276294	37.832	
C	-0.0400002763	 1.5642943091	 0.0094151419	-0.417879
C	 0.0159331088	 0.0507300306	-0.025847471	 0.231529
N	-1.2114662491	-0.5294012381	-0.5163838428	-0.571342
C	 1.3363259837	-0.638807649	-0.2963921262	-0.012438
O	 2.4664393065	 0.1586222591	-0.460131911	-0.415555
C	 0.7163646375	-0.6725991453	 1.1279319861	 0.086957
N	 1.3073214196	 0.1122340971	 2.1936497943	-0.566879
C	 0.168705577	-1.9295066256	 1.5588493079	 0.268713
N	-0.2641454541	-2.9587634803	 1.8667505989	-0.356161
H	 0.9284961013	 2.0172503789	 0.221615465	 0.127511
H	-0.3694124783	 1.9302172878	-0.968784396	 0.120326
H	-0.7660483852	 1.8921187177	 0.7566602664	 0.141736
H	-1.2470457215	-0.4802144357	-1.5303666361	 0.231329
H	-1.3148888847	-1.5023843648	-0.249008733	 0.24791
H	 1.3082791213	-1.5566888539	-0.8824527264	 0.102044
H	 3.2450871105	-0.3690740905	-0.2480739666	 0.296928
H	 1.811747235	-0.5052728971	 2.8234620352	 0.241587
H	 1.9996228982	 0.73400046	 1.7829852832	 0.243682
