15
gdb 27767	2.14863	1.97557	1.04286	1.7583	69.24	-0.1782	0.0631	0.2413	1074.4401	0.11431	-453.94631	-453.938542	-453.937597	-453.979705	28.847	
O	 0.1088503149	 1.335984147	-0.071992384	-0.42662
C	 0.1055750056	 0.0034759145	 0.1068496859	 0.413167
N	 1.1471148918	-0.8059260751	 0.0088410643	-0.463103
C	 0.6799892991	-2.0810997674	 0.2722324102	 0.181179
O	 1.5125053361	-3.1474171405	 0.2506121568	-0.437556
C	-0.6598453113	-2.0293890509	 0.5300708966	 0.223169
C	-2.0842481218	-2.4393266307	 0.8697683118	-0.384613
C	-2.4290982497	-0.9037697286	 0.7330198133	-0.167197
N	-1.0004990482	-0.6876972529	 0.417650757	-0.070573
H	 1.0186066438	 1.5778220463	-0.2844099882	 0.312182
H	 2.385569966	-2.8017735516	 0.0315916944	 0.298592
H	-2.5922997091	-3.0776354688	 0.1421180683	 0.126111
H	-2.2464305021	-2.8458649772	 1.8714891642	 0.126152
H	-3.0996586858	-0.6410613064	-0.0880890728	 0.134532
H	-2.7508083192	-0.4080900576	 1.6515510022	 0.134578
