15
gdb 44193	5.48243	1.0243	0.94095	3.6169	71.38	-0.2739	-0.0003	0.2736	1195.1934	0.112166	-420.599775	-420.592179	-420.591235	-420.632266	28.625	
O	-0.5818901572	 0.296625108	 0.6376835421	-0.315031
C	-0.1870859229	 1.2959378479	 0.1340009902	 0.445058
O	-0.9371444791	 2.269445855	-0.5035867725	-0.251774
C	 0.2511017647	 3.0519973352	-0.8181004625	 0.103321
C	 0.5305301089	 4.1282923436	 0.2776022305	-0.195562
C	 1.4369574143	 3.0790814708	 1.0251382886	-0.259486
C	 1.1377587916	 2.0220930794	-0.0821692947	-0.224146
C	 1.2128656437	 5.3181689728	-0.1850921492	 0.299394
C	 1.7970021292	 6.2865016131	-0.593416382	-0.43627
H	 0.2999479293	 3.3211222494	-1.8706484327	 0.115514
H	-0.3860031561	 4.388329318	 0.8142528201	 0.128593
H	 2.4837549156	 3.3812926503	 1.0344068734	 0.136387
H	 1.1306127694	 2.811977055	 2.0373399274	 0.132896
H	 1.9610520663	 1.4576737859	-0.5131213236	 0.117106
H	 2.3018408821	 7.1527921254	-0.9436376151	 0.203999
