17
gdb 93445	2.48044	1.55798	1.14698	2.2517	71.1	-0.2662	-0.0087	0.2575	1084.4752	0.137938	-455.211418	-455.203283	-455.202339	-455.244321	30.452	
C	-0.0922756973	 1.5348786516	 0.0474767914	-0.402878
C	 0.0221738607	 0.0005708109	 0.0021707396	-0.061568
C	 0.8169719971	-0.4928572688	-1.2024001854	-0.100174
O	 2.200937628	-0.1061906186	-1.1164263826	-0.236188
C	 2.8621524283	-0.3587475887	 0.0304185156	 0.473194
O	 4.0601532638	-0.3102107041	 0.0978584664	-0.371448
N	 2.0665384778	-0.6719289255	 1.1314465398	-0.416026
C	 0.6821805593	-0.530173176	 1.2564336912	 0.382406
N	 0.0041258812	-0.7828557024	 2.3011627564	-0.519244
H	 0.8927726348	 2.0098868848	 0.0648950756	 0.138062
H	-0.6263541321	 1.9001035473	-0.8351426641	 0.122803
H	-0.6420866641	 1.8440059053	 0.9389456488	 0.144486
H	-0.9807799409	-0.432677293	-0.0349080364	 0.117833
H	 0.7620152864	-1.5848413501	-1.2903612075	 0.125101
H	 0.4565623283	-0.0501394109	-2.132759409	 0.131156
H	 2.6063486105	-0.8960778774	 1.9557886457	 0.262488
H	 0.5918095981	-1.1032425642	 3.0740857747	 0.209998
