20
gdb 71778	3.0058	1.90469	1.72969	1.7036	81.17	-0.2046	0.0761	0.2807	905.0368	0.173454	-365.929604	-365.922997	-365.922053	-365.959994	28.667	
C	-0.0334403732	 1.5297696273	-0.0023640436	-0.507515
C	 0.035087572	 0.0228291564	 0.018596881	 0.353743
C	 0.9055738665	-0.7478202589	-1.0030801373	-0.286851
C	 1.0307634673	-1.8675602959	 0.0507636668	-0.005257
C	 0.7041976488	-0.8303035827	 1.1714470878	-0.102769
C	-0.6233756554	-1.5684496089	 1.395938422	 0.009041
C	-1.334807071	-0.746454513	 0.2764920883	-0.110805
C	-1.3922112964	-2.0671961911	-0.5032330034	-0.183249
N	-0.2727270367	-2.6158916007	 0.3397820481	-0.163694
H	 0.9679156358	 1.9744931636	-0.0190392135	 0.112964
H	-0.5720375797	 1.8846519226	-0.8900619031	 0.117089
H	-0.5586861896	 1.9188983259	 0.8776839105	 0.115902
H	 0.5114703917	-0.9722347936	-1.9991595331	 0.094379
H	 1.8763126961	-0.2513315426	-1.1162106703	 0.095328
H	 1.8945018742	-2.5334994227	 0.0343698783	 0.072017
H	 1.3998896782	-0.4414401142	 1.9132647237	 0.062271
H	-1.0681141454	-1.9034364812	 2.3342883212	 0.06624
H	-2.2197796289	-0.1190781533	 0.4102516403	 0.056655
H	-2.3004629688	-2.6366598955	-0.2788765207	 0.104068
H	-1.2338216756	-2.0774503815	-1.5855180228	 0.100444
