19
gdb 115489	2.65809	1.16609	0.84697	3.0017	73.51	-0.2222	0.0492	0.2714	1354.9356	0.160679	-456.355543	-456.346419	-456.345475	-456.389926	33.005	
C	-0.0394542984	 1.394685191	-0.0622725001	-0.234725
O	-0.0790026445	-0.0218112503	 0.1349881977	-0.260191
C	-1.2938597271	-0.5682562535	 0.0991647665	 0.492479
N	-2.4010583087	 0.0417623145	-0.0950732652	-0.407189
C	-3.4452899695	-1.0001732495	-0.0552455175	 0.03077
C	-4.4042183319	-0.7975078267	-1.2279013613	-0.050257
O	-4.9509963553	 0.5021600925	-1.2104520919	-0.425498
C	-2.682415263	-2.3578423322	-0.0680355471	-0.207528
N	-1.3365516133	-1.9320492631	 0.3349571231	-0.36777
H	 1.012991251	 1.672664492	-0.00105146	 0.132437
H	-0.4496178044	 1.6581834291	-1.0409272331	 0.138284
H	-0.6181672555	 1.9054309243	 0.7115616523	 0.143741
H	-4.0171523647	-0.8882255806	 0.8759209664	 0.087948
H	-3.8588898448	-0.995855388	-2.1673900711	 0.073633
H	-5.2399412517	-1.5052283167	-1.1718714447	 0.098627
H	-4.2011239147	 1.086851755	-1.0366503147	 0.292213
H	-3.0970575106	-3.0874355034	 0.6316626041	 0.116286
H	-2.6827241681	-2.8039905189	-1.0738911646	 0.100533
H	-0.5378075249	-2.4724163555	 0.0356095812	 0.246208
