18
gdb 14759	3.54131	1.04857	0.96456	1.3764	70.39	-0.2452	0.0295	0.2747	1270.6026	0.15062	-384.874689	-384.86508	-384.864136	-384.910346	32.93	
C	 1.1733876534	 0.6946929442	-0.156888146	-0.231883
O	-0.1046562702	 0.152236453	 0.1163157187	-0.235305
C	-0.1187240832	-0.8807183959	 1.0746252472	-0.076685
C	 0.2907106244	-2.246676254	 0.5381510915	-0.068317
O	 1.7031098913	-2.2981579547	 0.3978597469	-0.230937
C	 2.1839921143	-3.5295630341	-0.1038816271	-0.211827
C	 1.8282642347	-3.7813943404	-1.5034016802	 0.311599
C	 1.5325348625	-3.9801935319	-2.651205217	-0.462864
H	 1.8396150677	-0.0322127739	-0.6340702166	 0.12613
H	 1.0175692063	 1.5433942429	-0.8280932294	 0.118994
H	 1.6589578943	 1.0559402967	 0.7633281363	 0.099503
H	 0.5157257376	-0.6286127297	 1.9397493257	 0.093615
H	-1.155188906	-0.9544335186	 1.4237738411	 0.106077
H	-0.0431176005	-3.0286218547	 1.2423727836	 0.083803
H	-0.2026890024	-2.4239606631	-0.4275996075	 0.114654
H	 3.2736556215	-3.4909379301	-0.0007226223	 0.140506
H	 1.8253985956	-4.3660629369	 0.5189317701	 0.118733
H	 1.2761376486	-4.1577851388	-3.666503105	 0.204205
