21
gdb 87845	3.40137	1.3002	1.2166	1.5512	82.1	-0.2403	0.0922	0.3325	1134.9986	0.183847	-387.057782	-387.049942	-387.048998	-387.089849	31.831	
C	-0.0912765074	 1.5033824011	-0.0183067381	-0.408635
C	 0.0160814539	-0.003832584	 0.0417444616	-0.071492
C	 1.3433980184	-0.6964374422	-0.1956828499	-0.368806
C	 0.7190565164	-0.6981938862	 1.1724313264	 0.418607
C	 1.2971356714	-0.0100604628	 2.4287850008	-0.318087
C	 0.8940716789	-1.1163390663	 3.4328609002	 0.076551
C	 1.3261650031	-2.4286647606	 2.7406735576	-0.232646
C	 0.1658125942	-1.9581872671	 1.8351635637	-0.004267
O	-0.4827104709	-1.4079783307	 3.0294847302	-0.29872
H	 0.8173700371	 1.9842597451	 0.3582951403	 0.114083
H	-0.2432491999	 1.8463857267	-1.0476105334	 0.116006
H	-0.9323202125	 1.8669972907	 0.5826718222	 0.121798
H	-0.8558233671	-0.5260586326	-0.3478530781	 0.081027
H	 1.3543185004	-1.6210648775	-0.7656855512	 0.105388
H	 2.216889139	-0.0703012678	-0.3545366392	 0.106373
H	 2.3776897039	 0.1567991087	 2.386933134	 0.097807
H	 0.8021149372	 0.9350391186	 2.6658202018	 0.110038
H	 1.0165724392	-0.9285054086	 4.499502593	 0.078118
H	 2.331608472	-2.5093987644	 2.3194798854	 0.095376
H	 1.0585052631	-3.3068617274	 3.3289344004	 0.108087
H	-0.4614870804	-2.6295500729	 1.2474630122	 0.073393
