16
gdb 28469	3.15534	1.42226	0.98694	1.1709	78.2	-0.2044	-0.0234	0.181	1154.3079	0.125702	-434.143541	-434.135355	-434.134411	-434.176055	31.412	
C	-0.0510897468	 1.4861559364	 0.0208996777	-0.470554
C	 0.003184841	-0.0161252632	-0.0113598296	 0.305399
C	-0.0273021353	-0.7337858868	-1.1936953292	-0.107481
N	 0.013169421	-2.0835113242	-1.2063076423	-0.33537
C	 0.0945180304	-2.6862693578	-0.0516677425	 0.373156
O	 0.1306065963	-4.0419615565	 0.0083831588	-0.434164
C	 0.1355491133	-1.9724586906	 1.1776414544	 0.295697
N	 0.2745401092	-2.6506769149	 2.3648542939	-0.566888
N	 0.0791242622	-0.6523153279	 1.178163433	-0.373189
H	 0.8429187918	 1.8953370677	 0.5032108881	 0.135514
H	-0.1229051588	 1.9033834067	-0.9866651654	 0.119779
H	-0.9133667592	 1.8299447009	 0.6018564748	 0.133834
H	-0.0912360874	-0.2389939474	-2.1571485332	 0.102157
H	 0.0789125707	-4.3554698678	-0.9051066175	 0.299055
H	-0.0076324062	-3.6176996519	 2.3659272608	 0.266226
H	 0.0391718077	-2.1188239227	 3.1886940583	 0.256829
