20
gdb 69496	3.0946	1.47248	1.23198	1.386	77.88	-0.2456	0.0798	0.3254	1094.101	0.171004	-403.131133	-403.122828	-403.121884	-403.163381	32.966	
C	-0.0698397288	 1.5233384196	 0.1030509552	-0.467809
C	-0.045751165	 0.0165710793	 0.0940873474	 0.35224
C	-1.3248521651	-0.7397125344	-0.2895045627	-0.328244
C	-1.2521031897	-2.03514195	 0.5040243691	-0.021893
O	-1.3174137674	-1.8360913435	 1.9234192342	-0.299653
C	-0.0292332612	-2.0818693675	 1.3263609053	 0.401879
C	 0.6849819759	-3.3299052128	 1.7664285011	-0.48614
C	 0.7282223803	-0.8051283763	 1.0669761219	-0.14929
N	 1.2284648052	-0.6103144882	-0.3089697736	-0.377581
H	 0.9043557672	 1.9219321181	 0.3960120347	 0.128974
H	-0.3067016599	 1.9157269072	-0.8927679296	 0.117933
H	-0.8273472308	 1.8958987764	 0.8009865545	 0.120989
H	-2.218952953	-0.1706075962	-0.0119356464	 0.116739
H	-1.3782215782	-0.9264345365	-1.36966647	 0.101947
H	-1.741579759	-2.9371374683	 0.1433749244	 0.091995
H	-0.008694417	-4.1721028517	 1.8268045966	 0.130468
H	 1.4912439156	-3.5837768694	 1.0700919805	 0.125631
H	 1.1328673416	-3.1864013461	 2.7558289818	 0.131629
H	 1.338744552	-0.3720140172	 1.8549784606	 0.089284
H	 1.0615878474	-1.4475854427	-0.8659307451	 0.2209
