22
gdb 71294	2.53884	1.85317	1.40122	1.1877	84.82	-0.2225	0.0863	0.3087	1030.8389	0.19682	-367.185685	-367.178035	-367.177091	-367.217098	32.125	
C	-0.0237889486	 1.4789596092	-0.0139269364	-0.462689
C	-0.0218799457	-0.0428361196	-0.0076139308	 0.310674
C	-1.3604944394	-0.6862510814	 0.5116507005	-0.304425
C	-0.5682528895	-1.3954030431	 1.6226669075	-0.043076
C	 0.6902084203	-0.6627812586	 1.2296265785	-0.089252
N	 0.6264134663	-2.100194445	 1.1949832986	-0.083621
C	 0.8114881307	-2.8314588659	-0.0598188717	-0.137447
C	 0.3197168103	-2.1591266895	-1.3582048323	-0.230376
C	 0.5031135097	-0.6351337197	-1.3231925666	-0.23802
H	 0.9783536035	 1.8714709773	-0.2245639008	 0.111737
H	-0.7027782056	 1.8703635523	-0.7800878539	 0.112794
H	-0.3413068197	 1.8809522982	 0.9545517279	 0.112067
H	-2.0136050552	 0.0795823592	 0.9401009692	 0.098811
H	-1.9539255408	-1.2989162355	-0.1713103281	 0.094249
H	-0.9497572581	-1.6238743513	 2.6125243463	 0.088941
H	 1.442820931	-0.1691334622	 1.8386508641	 0.078121
H	 1.8935201424	-3.0005826689	-0.1339991955	 0.104
H	 0.3498549735	-3.8181066988	 0.0555663332	 0.102565
H	 0.8633055447	-2.590598555	-2.2061594639	 0.091016
H	-0.736141917	-2.3936327587	-1.5257119639	 0.102641
H	-0.0123053333	-0.1793253062	-2.1779691478	 0.089177
H	 1.5664612805	-0.375944397	-1.4260812343	 0.092112
