19
gdb 118364	2.53949	0.94478	0.74601	1.6812	72.39	-0.2498	-0.0301	0.2196	1512.8478	0.156132	-460.13422	-460.124027	-460.123083	-460.171214	34.799	
O	-0.1975563851	 1.4435345729	 0.1698742571	-0.420316
C	-0.002530164	 0.0436308679	 0.0543900341	-0.086744
C	-1.3821174867	-0.6056734368	 0.0571884275	-0.191757
C	-1.342673411	-2.1410581638	-0.1148646285	-0.118621
C	-0.667994762	-2.7697557176	 1.0935524944	 0.149392
O	 0.4231579526	-3.2811940009	 1.0755770805	-0.261568
C	-2.7513906083	-2.6753728195	-0.3202020249	 0.074464
C	-3.1996354717	-3.9944891597	 0.1408488749	-0.193225
O	-3.5796173102	-2.8031316866	 0.8377257375	-0.232637
H	 0.6654839223	 1.8656076497	 0.2098733754	 0.288997
H	 0.5248674461	-0.2137666803	-0.8788645941	 0.091306
H	 0.6056639811	-0.3465206047	 0.8848348252	 0.102663
H	-1.9007000474	-0.3499598665	 0.9885023371	 0.127818
H	-1.9721266526	-0.1699100182	-0.7573305729	 0.115182
H	-0.7407218895	-2.3985970555	-0.995009509	 0.09943
H	-1.2590686708	-2.6972722628	 2.03198593	 0.103638
H	-3.2637703054	-2.240361676	-1.1807786836	 0.100568
H	-4.0056898783	-4.5052566593	-0.3829091861	 0.123926
H	-2.5081372191	-4.6471032224	 0.6727394552	 0.127481
