15
gdb 20889	7.06718	1.12029	1.0492	5.1861	62.71	-0.3158	-0.0427	0.2731	1119.9331	0.119373	-392.118517	-392.110951	-392.110007	-392.151928	25.672	
C	 0.0008159286	 1.5469630611	 0.0104091853	-0.385132
C	 0.0027000267	 0.0165683438	 0.0023142184	-0.184181
C	-1.4229136178	-0.544266132	 0.0125255287	-0.13866
N	-1.4386410591	-2.0040974164	 0.0048682996	 0.165212
N	-1.4228994721	-2.7403383101	-1.0947256125	-0.122086
N	-1.3863708414	-3.9705327064	-0.6791843072	-0.084443
N	-1.3769619945	-3.9777209997	 0.6671100469	-0.084466
N	-1.4072550239	-2.7520314369	 1.0962224795	-0.122036
H	 1.0232617317	 1.9332848953	 0.0027147666	 0.132372
H	-0.5145838152	 1.9503440824	-0.8677043771	 0.126707
H	-0.4977541764	 1.9410426428	 0.902350373	 0.12671
H	 0.5221144667	-0.3602241783	-0.8853251363	 0.130462
H	 0.5384027607	-0.3695411881	 0.8761650786	 0.130388
H	-1.9659166586	-0.2340481588	 0.90776743	 0.154596
H	-1.9824203655	-0.2243165587	-0.8690381736	 0.154557
