16
gdb 7268	4.41801	1.3016	1.03386	6.5282	65.45	-0.2459	-0.0062	0.2396	1109.6044	0.129024	-417.107013	-417.097716	-417.096772	-417.141988	30.852	
C	 0.1034312803	 1.4698697376	 0.0936919895	-0.343883
N	 0.1128206769	 0.0223579843	-0.0473746816	-0.130667
C	 0.3815778762	-0.7538607073	 1.1488602618	-0.353728
C	-0.1477938509	-0.5093267006	-1.2910912145	 0.51733
O	-0.2399056571	 0.1480483529	-2.3017641345	-0.366255
N	-0.3248013402	-1.9163657429	-1.2783014482	-0.396893
C	-0.3179116927	-2.7581966411	-2.3820820807	 0.168582
O	-0.0207733361	-2.4758064915	-3.5091212566	-0.257964
H	 1.0829057886	 1.8340198128	 0.4269787435	 0.125541
H	-0.1277037483	 1.905249227	-0.876697601	 0.177762
H	-0.6502820024	 1.7847155963	 0.8262914263	 0.121421
H	-0.5297948849	-1.0067489692	 1.7120299254	 0.125471
H	 0.9201945734	-1.674060488	 0.91011575	 0.140901
H	 1.0242721189	-0.1687650554	 1.8127036309	 0.142753
H	-0.5785436568	-2.3569112433	-0.4083823769	 0.253253
H	-0.6176009849	-3.7811074316	-2.0702840333	 0.076375
