21
gdb 40172	2.96315	1.55702	1.35478	1.8093	81.21	-0.2535	0.0805	0.334	1042.344	0.185398	-387.072896	-387.065584	-387.06464	-387.104344	30.494	
C	 0.0117294404	 1.4887645646	 0.0323033266	-0.260814
O	 1.210199466	 0.7191616728	-0.1065054343	-0.286783
C	-0.0450653916	 0.0231689968	-0.0054476827	 0.46697
C	-0.2884054349	-0.767494051	 1.2785381388	-0.291413
C	-0.2052260379	-2.2999772699	 1.0547946703	-0.21423
C	-0.5710910385	-2.6658098853	-0.3935266086	-0.001706
C	 0.4427229234	-1.9994319416	-1.364097525	-0.216128
C	-0.4431306697	-0.7249476239	-1.2642942984	-0.08585
C	-1.6360582175	-1.6816763261	-0.9647207352	-0.244579
H	-0.0997260051	 2.0113289566	 0.9829260843	 0.105969
H	-0.2786718661	 2.0664321509	-0.8452236272	 0.107636
H	 0.416416148	-0.4313828111	 2.0435987349	 0.110258
H	-1.2911004674	-0.5172106357	 1.6430711053	 0.108363
H	 0.8064771376	-2.6658644496	 1.2655602066	 0.103627
H	-0.8740905204	-2.8055802178	 1.7599799025	 0.093097
H	-0.7527241785	-3.737818111	-0.5012768575	 0.059784
H	 1.4851244	-1.9138531959	-1.045655599	 0.104746
H	 0.4007286308	-2.4370677358	-2.3649741911	 0.09225
H	-0.4970312871	-0.058916624	-2.1280137662	 0.058552
H	-2.0719649971	-2.0611070339	-1.8923401123	 0.099078
H	-2.4407992647	-1.3329573491	-0.3111693117	 0.091173
