22
gdb 78118	2.64414	1.33851	1.08918	0.6305	83.77	-0.2087	0.0802	0.289	1233.2001	0.191243	-404.307052	-404.297127	-404.296183	-404.340776	38.436	
C	-0.2043641904	 1.2940505857	-0.1019874745	-0.321959
N	 0.0775574872	-0.1234611712	 0.0983607678	-0.146285
C	 1.4988259161	-0.4770585646	-0.0929384694	-0.125371
C	 0.9032749225	-0.4723955975	 1.2787505138	 0.360574
C	 1.0899735108	 0.4044273237	 2.4793681279	-0.514283
C	 0.8945568855	-2.0121828936	 1.3041501339	-0.340429
C	 1.5766520316	-2.0090487673	-0.1206012735	 0.409567
C	 0.8629638567	-2.7337043004	-1.2495994205	-0.455033
O	 2.951686533	-2.3583345249	-0.0515268109	-0.486978
H	 0.629179967	 1.9734598168	 0.1369583092	 0.101349
H	-0.4678346795	 1.4488696644	-1.1532268777	 0.12336
H	-1.0656357232	 1.5840205441	 0.5086048952	 0.120923
H	 2.1846784765	 0.21300888	-0.572172362	 0.085193
H	 1.2091019829	 1.4579206897	 2.2161449068	 0.123973
H	 0.2321350633	 0.3213675798	 3.1584071018	 0.122878
H	 1.981782306	 0.0981181833	 3.0356282405	 0.128542
H	 1.5775426268	-2.4321883318	 2.04662415	 0.095966
H	-0.0941989088	-2.4714226633	 1.3866010929	 0.091182
H	-0.1608882249	-2.3652213573	-1.3450241132	 0.137829
H	 1.3911136717	-2.5777729714	-2.195810507	 0.11594
H	 0.8218464668	-3.8131983614	-1.0553238081	 0.09982
H	 3.0055619525	-3.3170181026	 0.0267073969	 0.273242
