16
gdb 81761	3.28214	1.24897	1.0829	2.1984	70.2	-0.271	0.0106	0.2816	1107.4297	0.123732	-437.866471	-437.857888	-437.856944	-437.899781	31.686	
O	-0.0237238725	 1.4264331847	 0.1941144417	-0.441286
C	-0.0579174784	 0.0345432481	 0.0642244941	 0.131849
C	-1.4310483913	-0.655038829	 0.0330468366	-0.119054
C	-2.2124080394	-0.230785891	-1.1625017796	-0.330325
C	-1.1089501319	-1.2481449588	-1.3665776444	 0.207162
C	-1.3378610314	-2.5618051028	-1.8663701096	 0.166895
N	-1.4916949336	-3.6312640645	-2.2835978157	-0.347865
C	 0.2583055181	-0.5360107781	-1.3608431012	-0.036334
O	 0.4452755661	 0.5157157891	-2.277344594	-0.428033
H	 0.1180384196	 1.7877105403	-0.6904422909	 0.303303
H	 0.5908576217	-0.4127639594	 0.8236182913	 0.096949
H	-1.8878099685	-1.1807285843	 0.8616724918	 0.11773
H	-3.2177112119	-0.6291854817	-1.2359068482	 0.143546
H	-2.0797288165	 0.7604831292	-1.5822791351	 0.135138
H	 1.095802052	-1.2406987749	-1.371473749	 0.097612
H	 0.5910985178	 0.1610862932	-3.1600129478	 0.302711
