18
gdb 85617	2.315	1.56065	0.99036	3.9036	74.92	-0.2569	-0.0104	0.2465	1169.8121	0.148211	-439.08207	-439.073636	-439.072692	-439.115429	31.942	
O	-0.1510661577	 1.4796839433	-0.1265632325	-0.436467
C	 0.0415580693	 0.0764190877	-0.0191928561	 0.061698
C	-1.3658739248	-0.532130781	 0.0995787572	-0.23506
C	-1.4442026246	-1.9696640016	 0.5643517055	 0.334166
N	-2.2545419262	-2.2866535612	 1.4848582038	-0.470028
O	-0.7421030651	-2.9384393469	-0.1107514896	-0.253549
C	 0.6763871911	-2.7961516193	-0.3195351568	-0.140277
C	 1.0718528032	-1.7712655141	-1.3505012705	-0.077212
C	 0.7926935349	-0.4789023113	-1.2068611295	-0.085984
H	 0.7146035714	 1.9001928953	-0.1417792395	 0.284188
H	 0.59587172	-0.1580492177	 0.9072077752	 0.085159
H	-1.9405866745	 0.0607594526	 0.8118425134	 0.142487
H	-1.8536800903	-0.4553132006	-0.87945108	 0.128284
H	-2.2141050482	-3.2974352572	 1.6385397772	 0.217757
H	 1.1536297218	-2.5809099983	 0.6478277623	 0.116269
H	 0.9979403485	-3.7930461287	-0.6261817896	 0.124155
H	 1.5882072389	-2.1274069802	-2.2366804269	 0.103132
H	 1.0540591424	 0.2401881193	-1.9797129037	 0.101281
