20
gdb 87767	3.55903	1.24416	1.07882	2.4512	79.77	-0.2311	0.0724	0.3035	1181.9599	0.169746	-403.085769	-403.077033	-403.076089	-403.118659	34.273	
C	 0.1535805485	 1.4348817744	 0.2052839161	-0.486399
C	-0.0106788877	-0.0370599043	-0.0248051182	 0.352589
C	-0.894181197	-0.9050089744	 0.7761994319	-0.284522
N	 0.5791502628	-1.087980388	 0.9186322595	-0.223057
C	 0.9681805826	-1.8576211851	-0.2965050192	 0.339154
C	 2.2469782764	-2.6474589117	-0.2903409278	-0.41044
C	 0.9026752737	-3.3502444355	-0.2605593824	 0.083992
O	 0.4420563173	-3.9812684623	 0.8968665215	-0.436701
C	 0.4747657829	-0.7888910686	-1.2719361018	-0.407486
H	 1.1643491299	 1.7656509329	-0.0555009025	 0.125331
H	-0.555941389	 2.0021714953	-0.4088083923	 0.124005
H	-0.0279914324	 1.6870246697	 1.253940903	 0.130088
H	-1.346724685	-0.4736187302	 1.6641314789	 0.117787
H	-1.4719756096	-1.697052667	 0.3060277561	 0.124561
H	 2.8355674479	-2.6908845556	-1.2019159329	 0.111438
H	 2.8216298577	-2.6313699625	 0.6307730458	 0.123173
H	 0.5912726467	-3.8934124052	-1.148090323	 0.103142
H	 0.436023607	-3.318843731	 1.5993427518	 0.296779
H	-0.2881411275	-1.0653483195	-2.0063866987	 0.10453
H	 1.2946618449	-0.2770653914	-1.7829219057	 0.112036
