18
gdb 83098	2.5553	1.74044	1.23736	3.3636	77.25	-0.2163	0.0002	0.2165	1039.2593	0.14908	-401.974415	-401.966597	-401.965652	-402.006969	29.822	
C	-0.4056414092	 1.5299210988	 0.1675800502	-0.402881
C	-0.0806952663	 0.0497707006	 0.0064515955	-0.167028
C	 0.7934057243	-0.438797123	-1.1960782225	 0.020638
C	 1.6227252763	 0.5058138432	-2.1029897193	-0.301289
C	 3.0516952828	 0.1760743735	-1.694987318	-0.093258
C	 3.0839562189	-0.6216981801	-0.6257195948	-0.062489
N	 1.7754960472	-0.991977694	-0.2160378169	-0.113125
C	 1.0793929073	-0.4577845364	 0.8952891818	 0.398495
O	 1.3670784045	-0.3924638633	 2.0550209729	-0.334084
H	 0.4873124799	 2.1559600549	 0.0805290717	 0.128694
H	-1.1293274578	 1.8587884231	-0.5846312606	 0.121451
H	-0.8354901028	 1.7079564282	 1.1573907007	 0.140847
H	-0.9896628451	-0.5487616873	 0.1237094459	 0.103796
H	 0.3207499528	-1.2301599059	-1.7834062219	 0.09049
H	 1.4286117538	 0.3027222624	-3.1606110426	 0.116597
H	 1.4053062312	 1.5710676939	-1.9479997698	 0.114922
H	 3.9229797374	 0.573117628	-2.1984080828	 0.105608
H	 3.9397472649	-0.9832754967	-0.0732343694	 0.132618
