19
gdb 48584	3.13763	1.47035	1.28522	2.8848	79.24	-0.2439	-0.0223	0.2216	1037.9144	0.160849	-385.859375	-385.852153	-385.851209	-385.891161	29.383	
O	-0.04276246	-0.1087882878	-0.0893816729	-0.252521
C	 0.0540877122	 1.0918005626	-0.1580171278	 0.03902
C	 1.3405124923	 1.8463912564	-0.1066915099	 0.264847
C	 1.7565784605	 2.6333195775	 1.2061438692	-0.25524
C	 3.1642452076	 2.5497511568	 0.5156156989	-0.050293
C	 2.7125275451	 1.1444619515	 0.033425552	-0.278919
C	 2.9259188346	 3.4733358558	-0.6959124304	-0.028528
C	 2.7550963251	 2.8908222109	-2.0785319802	-0.31472
C	 1.5678795279	 2.9664745805	-1.1518489792	-0.090848
H	-0.8550610831	 1.7331795819	-0.2481255701	 0.065379
H	 1.3191672207	 3.6243806435	 1.3521397374	 0.096739
H	 1.6724708307	 2.0289799085	 2.113321662	 0.106757
H	 4.0839268083	 2.6881193006	 1.0837571444	 0.067839
H	 2.6961875214	 0.4188816224	 0.8473401606	 0.113607
H	 3.1755159318	 0.6904115301	-0.8416766176	 0.102894
H	 3.1357035139	 4.5312692785	-0.5867406301	 0.090245
H	 2.7534154422	 3.6141761551	-2.8884419185	 0.112809
H	 3.1996257471	 1.9432922136	-2.3565185248	 0.120325
H	 0.7422129317	 3.6313912517	-1.3801990832	 0.090606
