15
gdb 34352	2.98304	1.65087	1.3292	3.6907	68.98	-0.2601	-0.0072	0.253	950.9256	0.113507	-416.728522	-416.721635	-416.720691	-416.75976	26.957	
N	 0.0036312059	-1.1447629192	 0.0782678019	-0.332818
C	-0.0082491569	 0.0107366042	 0.0542757873	 0.25273
C	-0.0040030256	 1.4528283818	-0.0144632199	 0.13902
C	-0.3411066455	 2.1271964143	-1.3634048959	-0.136457
O	 0.8182538631	 2.9905850008	-1.2567753857	-0.286297
C	 1.2619429995	 2.333456881	-0.0533413804	 0.06093
C	 0.7985637521	 2.9640340213	 1.2677658279	-0.040248
C	-0.5419870757	 3.5522099206	 1.1351831263	-0.25255
N	-0.4575430398	 2.0856930945	 1.2994745224	-0.179938
H	-0.2566933599	 1.4446222774	-2.2156736079	 0.134853
H	-1.2856149964	 2.677466519	-1.4216703423	 0.127987
H	 2.2816878781	 1.9518932342	-0.1092374543	 0.113472
H	 1.4234443818	 3.0786592168	 2.146759655	 0.113937
H	-0.966978618	 4.019181848	 2.0176945127	 0.14064
H	-0.8445797628	 3.9982097452	 0.1948916828	 0.144739
