21
gdb 104017	2.99688	1.42494	1.27503	2.5368	77.69	-0.2363	0.0854	0.3217	1099.8279	0.18213	-424.193046	-424.184487	-424.183543	-424.225807	33.583	
C	 0.0548788055	 1.334551232	-0.0421915547	-0.249576
O	-0.0723217527	-0.0657251841	 0.0407848747	-0.288849
C	-1.3911624058	-0.593318425	 0.0380682559	 0.450093
C	-2.1936391487	-0.0883889947	 1.2385478015	-0.469494
C	-2.1086401172	-0.4591107704	-1.3557986884	-0.292432
C	-2.0910208552	-1.9549834951	-1.7381197495	 0.079565
C	-2.5902054889	-2.6740376993	-0.4670670059	-0.241811
C	-1.2163097612	-2.1349911004	-0.0086211828	 0.030223
O	-0.7329781072	-2.3457808399	-1.3691391681	-0.291649
H	 1.1193137685	 1.5436345201	-0.1763221319	 0.128354
H	-0.4910915235	 1.7564706959	-0.8990404546	 0.102399
H	-0.2858174366	 1.8481341138	 0.8682566793	 0.104395
H	-2.390601664	 0.9853087653	 1.1656318952	 0.121806
H	-3.1620707629	-0.5881752354	 1.3147463855	 0.117639
H	-1.6379252502	-0.2682992549	 2.1647714644	 0.123341
H	-3.1165577518	-0.0391010708	-1.2944045087	 0.09387
H	-1.5154998103	 0.131696148	-2.055818132	 0.114903
H	-2.3809904279	-2.2441388322	-2.7484639786	 0.078136
H	-3.509188497	-2.3416354746	 0.0207662945	 0.093335
H	-2.570901038	-3.7580511689	-0.5805888096	 0.113966
H	-0.6003350951	-2.5906297493	 0.7661327137	 0.081787
