16
gdb 132772	2.39723	1.79844	1.04074	1.507	74.59	-0.25	-0.036	0.214	1102.3342	0.123406	-442.103353	-442.094742	-442.093798	-442.138049	30.218	
C	 0.0112656741	 1.5087100474	-0.0011588674	-0.488628
C	 0.0001799052	 0.0074075553	-0.0091514586	 0.218982
N	-0.0548899327	-0.6410808495	-1.1799811937	-0.299668
C	-0.0623604879	-1.9722982513	-1.1298344888	 0.053638
N	-0.0210504782	-2.7426885771	-0.0437853092	-0.299668
C	 0.0344001451	-2.1168134526	 1.1392689862	 0.218982
C	 0.082879447	-2.9315722379	 2.3993933672	-0.488628
C	 0.0456739572	-0.7272423967	 1.1699128269	 0.166548
F	 0.1009312339	-0.0897430509	 2.347442354	-0.071329
H	 0.9143995173	 1.8912877589	 0.485841702	 0.14395
H	-0.0296315743	 1.8764244902	-1.0266811206	 0.147507
H	-0.8418592728	 1.9038489083	 0.5603104633	 0.143965
H	-0.1070221746	-2.4894802034	-2.0851284363	 0.118928
H	 0.9897949427	-2.7126955618	 2.9728155663	 0.143973
H	-0.7663260489	-2.6978085365	 3.0500695765	 0.143942
H	 0.0628454066	-3.991730268	 2.14592566	 0.147507
