18
gdb 38215	3.3029	1.85312	1.50982	1.8053	74.16	-0.2483	0.013	0.2613	901.2109	0.151911	-401.935388	-401.929272	-401.928328	-401.965524	26.305	
C	 0.0351207425	 1.6762684816	 0.0246819869	-0.282877
C	 1.5449044255	 1.3214671247	 0.0315976447	-0.03311
C	 1.135864216	 0.0674428465	 0.9123622822	-0.311382
C	-0.0720862968	 0.133840325	-0.0366541151	 0.429304
O	-1.3574831582	-0.4825336251	-0.0797734344	-0.292036
C	-1.5904318766	-0.5202079732	-1.4396662752	 0.074648
N	-0.6342305334	-0.3255959565	-2.257790256	-0.296673
C	 0.5486512785	-0.2490096659	-1.3762182175	 0.033879
C	 1.7043103434	 0.7831287887	-1.4232987836	-0.260697
H	-0.3219156737	 2.0705401446	 0.9780999886	 0.102931
H	-0.3551921823	 2.2601970602	-0.8115602234	 0.106607
H	 2.2885432499	 2.0256873725	 0.4002725022	 0.076175
H	 1.7606113618	-0.8285897544	 0.8804744344	 0.101424
H	 0.9282465859	 0.3624519011	 1.9424455951	 0.110412
H	-2.6221299213	-0.7213986345	-1.7059372107	 0.135077
H	 0.9702442193	-1.2631978282	-1.3421398042	 0.087914
H	 1.5523632358	 1.5783338213	-2.1576657825	 0.117701
H	 2.6707470438	 0.3134382817	-1.6203571116	 0.100704
