18
gdb 47572	2.57936	1.5813	1.08582	2.5471	71.79	-0.2352	-0.0244	0.2108	1097.1061	0.149535	-439.067669	-439.059978	-439.059034	-439.100102	29.712	
O	-0.0682231795	-0.0750422626	 0.2609481213	-0.289069
C	 0.0069586496	 1.1135939755	 0.0567654536	 0.368381
C	-1.2750464001	 1.9704684011	-0.0018964584	-0.170264
O	-1.4759971088	 2.7407967851	-1.1705364996	-0.238141
C	-0.5474177463	 3.7937388212	-1.3810386756	-0.09384
C	 0.6771034218	 3.3048791756	-2.1310867778	-0.027461
N	 1.9944486604	 3.7458163352	-1.640750651	-0.338842
C	 1.5978879466	 2.334981101	-1.4870683367	-0.024543
C	 1.3482267514	 1.8315813643	-0.0726259463	-0.317986
H	-2.1213438557	 1.2843619208	 0.0684167373	 0.13161
H	-1.2746781727	 2.6218509605	 0.8914739223	 0.101399
H	-1.0769564969	 4.5513356364	-1.9676491748	 0.111686
H	-0.2432284218	 4.2551562128	-0.4314491707	 0.104956
H	 0.5426953372	 3.2028157158	-3.2057675852	 0.093808
H	 2.6436162103	 3.8531725595	-2.4157853527	 0.236856
H	 2.0614606535	 1.606653816	-2.1481433908	 0.101838
H	 1.3585613576	 2.6921233966	 0.6049816431	 0.1278
H	 2.1332144235	 1.1384649352	 0.2395915521	 0.121813
