17
gdb 28771	3.16439	1.72335	1.12636	2.0005	85.91	-0.163	-0.0006	0.1624	1040.3132	0.139207	-380.913579	-380.906208	-380.905264	-380.945114	29.273	
N	 0.1788366451	 1.3747020725	 0.1313776048	-0.607858
C	 0.022031162	-0.0141290263	 0.0185232394	 0.268181
C	-1.1051710544	-0.8233875393	 0.0084337356	-0.213393
C	-0.672854878	-2.1830211908	-0.02060754	-0.303576
C	 0.7046949741	-2.163391748	-0.0405746758	 0.349368
C	 1.9076631308	-2.9622150302	-0.0407226656	-0.206963
C	 2.9870118228	-2.155637033	-0.0007463901	-0.116556
C	 2.5559395084	-0.7012007033	 0.0320061586	-0.245475
N	 1.1098542778	-0.8344409002	-0.012077326	-0.05008
H	 0.7489035675	 1.7680151758	-0.6117974013	 0.24226
H	-0.718732894	 1.8421437747	 0.1273467672	 0.249164
H	-2.1253987439	-0.4694553769	 0.0132158207	 0.079868
H	-1.3045816037	-3.057621934	-0.0325316427	 0.092086
H	 1.9199426271	-4.0432170381	-0.0659729068	 0.107182
H	 4.0256465552	-2.4529335233	 0.002076951	 0.102019
H	 2.8792700342	-0.1764462264	 0.9415575116	 0.134731
H	 2.941923329	-0.1326074734	-0.8264544304	 0.119043
