19
gdb 48197	2.08133	1.32053	0.8513	2.3814	82.66	-0.249	-0.0303	0.2187	1349.3974	0.156933	-385.852509	-385.843005	-385.842061	-385.887874	34.227	
O	 0.0294267031	 0.0227388401	 0.2695439146	-0.247325
C	 0.0342774156	 1.1834636699	-0.0403588457	 0.166668
C	 1.303277698	 2.0357596336	-0.1273499	-0.283514
C	 1.2545528833	 2.9002600901	-1.2997512756	 0.307259
C	 1.1699736898	 3.6171519575	-2.2612311428	-0.443531
C	 1.4349630832	 2.8504150745	 1.1795173786	 0.045593
C	 1.7001232137	 2.0840609848	 2.5054352192	-0.237155
C	 2.6841463279	 3.2158738911	 2.9088032291	-0.217674
C	 2.7454494546	 3.6497960915	 1.418470758	-0.229983
H	-0.9043495885	 1.7409430703	-0.2540347185	 0.091304
H	 2.149667509	 1.3418745618	-0.1938984328	 0.118957
H	 1.1151271299	 4.2453425389	-3.1158265827	 0.201839
H	 0.5655441479	 3.5091644617	 1.2781854823	 0.08474
H	 0.8461081323	 1.8877870571	 3.1571394699	 0.105705
H	 2.2167740554	 1.1372880566	 2.321480874	 0.114637
H	 2.2002575477	 3.9721187683	 3.5330146732	 0.106225
H	 3.6213484739	 2.921792484	 3.3857174335	 0.102905
H	 3.5903814033	 3.1896368681	 0.896801879	 0.10658
H	 2.73432745	 4.71674371	 1.1880525265	 0.106769
