23
gdb 113433	2.68403	1.04184	0.8703	1.2115	87.14	-0.2498	0.0741	0.3239	1452.4579	0.204684	-388.265523	-388.255626	-388.254682	-388.300876	37.214	
C	-0.8826981109	 1.268885518	 0.0374063914	-0.405079
C	 0.0813457053	 0.0933906172	 0.0754936015	 0.059733
C	 1.3414533524	 0.140888837	-0.8442581912	-0.316115
C	 2.179668613	-0.3329136301	 0.3522707496	 0.391884
C	 3.0859268596	-1.5309165868	 0.3784214092	-0.372033
C	 3.6471490169	-0.1398307744	 0.5878180175	-0.062083
C	 4.4938596004	 0.4993752332	-0.4785992973	-0.095145
O	 4.3086003166	 1.9103164105	-0.4050759627	-0.421343
C	 1.0193825448	-0.0521773162	 1.3144689956	-0.319558
H	-0.3533713113	 2.2148539564	 0.1997314021	 0.114921
H	-1.3933717111	 1.3351129446	-0.9301487375	 0.110597
H	-1.6512321958	 1.1794173125	 0.8137295804	 0.110629
H	-0.4654596388	-0.840990425	-0.0893993182	 0.068523
H	 1.3257205563	-0.4967722819	-1.7329516735	 0.089088
H	 1.6011970089	 1.1612270905	-1.1456816996	 0.109634
H	 3.0438469152	-2.1976279143	 1.2342055638	 0.107477
H	 3.3006343741	-2.0299244737	-0.5629323109	 0.104714
H	 3.9408795434	 0.118848014	 1.6025332394	 0.083575
H	 5.5533200336	 0.2341871372	-0.3325775912	 0.0848
H	 4.1942169805	 0.1131022535	-1.4661547399	 0.080875
H	 4.9075203613	 2.3224812259	-1.0350633108	 0.283886
H	 1.1421861733	 0.894779554	 1.8522967703	 0.099003
H	 0.7678942922	-0.8335876519	 2.0377523719	 0.092019
