15
gdb 49366	1.87812	1.87508	1.51747	5.506	67.96	-0.258	-0.042	0.216	962.1851	0.109098	-457.76571	-457.756994	-457.75605	-457.799461	30.245	
O	-0.582659903	 0.8989275247	 0.5309498685	-0.243709
C	 0.0699186333	 1.3294686493	-0.3860277855	 0.155126
C	 1.3522595413	 2.0931050695	-0.2064311021	-0.134771
C	 1.3541620172	 3.5976687895	-0.0401098171	-0.13431
C	 0.0561419569	 4.3514720068	-0.1228238454	 0.154084
O	-0.9457048528	 3.8991044446	-0.616660309	-0.243175
C	 1.6723735509	 2.705337118	 1.1403467462	-0.134666
C	 0.703774381	 2.6225370906	 2.287058113	 0.154749
O	-0.158769813	 3.4392549058	 2.4900079572	-0.24353
H	-0.2055018012	 1.1289417495	-1.4402870557	 0.103551
H	 2.1780650854	 1.6827340521	-0.7833731826	 0.11974
H	 2.1957012493	 4.1501584116	-0.452201108	 0.119815
H	 0.1015171869	 5.394485945	 0.2481532183	 0.103698
H	 2.7116469943	 2.634433343	 1.4535957072	 0.119784
H	 0.8816589632	 1.7795356201	 2.9836697249	 0.103615
