16
gdb 80135	2.59437	1.83754	1.33158	2.4219	69.37	-0.2478	-0.0034	0.2444	959.5886	0.12561	-437.897989	-437.890415	-437.889471	-437.930312	28.35	
O	 0.3294690217	 1.2672726994	 0.5019173437	-0.430232
C	 0.099202951	-0.0793219461	 0.1861284602	 0.005035
C	-1.388299671	-0.531249945	 0.0257310401	-0.078083
C	-2.4486214114	 0.494416336	-0.2695598073	-0.058555
C	-2.8419195781	 0.4190030577	-1.5420817	-0.075058
C	-2.0752116787	-0.6380213978	-2.3178814186	-0.23978
N	-1.0497195342	-1.0422415656	-1.3437614534	-0.108913
C	 0.1884852471	-0.3995226799	-1.3227572442	 0.349541
O	 0.939398836	-0.0641322621	-2.1992156033	-0.353402
H	 0.9053500783	 1.62534119	-0.1846072867	 0.302546
H	 0.6788451436	-0.7481141812	 0.8353124087	 0.098881
H	-1.7170645979	-1.3017034066	 0.7316784207	 0.093428
H	-2.8564040165	 1.1535688712	 0.4852635012	 0.117418
H	-3.6279982058	 1.0100800081	-1.9968427006	 0.110904
H	-2.7118298409	-1.4808867844	-2.6150560861	 0.121981
H	-1.5850118833	-0.2539387839	-3.2186062344	 0.14429
