20
gdb 92978	2.99437	1.29073	0.98363	1.7055	79.	-0.2433	0.0257	0.269	1229.9948	0.171999	-403.153297	-403.144752	-403.143808	-403.187428	32.104	
C	-0.3774963209	 1.4300342742	 0.051108973	-0.400232
C	 0.0441483218	-0.0313235769	 0.0489551146	 0.091072
O	 0.9146689038	-0.2595154896	-1.1001250832	-0.232206
C	 2.0879556998	-0.6946604865	-0.5899934503	 0.110681
N	 2.2168430515	-0.880710512	 0.6555096101	-0.271353
C	 0.9070475527	-0.5414500713	 1.2575560671	-0.021341
C	 1.0634098586	 0.4103829765	 2.4212234973	 0.043086
C	 0.0252538723	 0.4392699074	 3.5187362368	-0.275411
C	 1.3923429072	-0.1386787014	 3.7829337949	-0.273235
H	 0.4886084146	 2.0918079366	 0.1385954927	 0.126752
H	-0.8965457665	 1.669963725	-0.8808254624	 0.124964
H	-1.053125424	 1.6323150669	 0.8865987292	 0.129402
H	-0.8323161562	-0.669149601	-0.0979200632	 0.093101
H	 2.8630037781	-0.8571919775	-1.3318016218	 0.136605
H	 0.4710972151	-1.4709208206	 1.647383307	 0.079649
H	 1.5266784133	 1.3590064056	 2.1681407252	 0.085248
H	-0.2285713852	 1.3956807064	 3.9620566532	 0.111986
H	-0.8104048807	-0.2498728232	 3.4462588448	 0.108615
H	 1.4811993636	-1.2152217574	 3.8827497727	 0.118769
H	 2.0775227611	 0.4222466189	 4.4080500924	 0.113849
