21
gdb 68845	2.34587	1.79494	1.37356	1.7086	81.32	-0.2533	0.0862	0.3394	1048.6307	0.182489	-387.083413	-387.07499	-387.074046	-387.115708	33.672	
C	-0.0942816067	 1.5232427355	 0.0082300716	-0.48618
C	-0.0281825588	 0.0152772169	 0.0652115436	 0.317072
C	 1.274434543	-0.6961933447	-0.2418785396	-0.381633
C	 0.7103230877	-0.7448353017	 1.1625692603	 0.295383
C	 1.4173074623	-0.0966304102	 2.32933364	-0.489876
C	-0.0974782069	-1.9832172105	 1.4312589425	-0.03318
O	-1.4031126326	-1.7080405597	 1.9642644789	-0.265686
C	-1.2804706024	-1.9967439164	 0.5642673312	 0.05129
C	-1.3016000906	-0.7551623662	-0.313820995	-0.319775
H	 0.8458554856	 1.9880631072	 0.3186970822	 0.114458
H	-0.3039683395	 1.8645841556	-1.0125736325	 0.117218
H	-0.8903058829	 1.9086064673	 0.6557618378	 0.121645
H	 1.2550981905	-1.5970227165	-0.8495616014	 0.102646
H	 2.1525187873	-0.0767907613	-0.3982457238	 0.1067
H	 1.908982376	 0.8361876281	 2.0398122181	 0.115355
H	 0.710097422	 0.1279596718	 3.1348692865	 0.131378
H	 2.1894955045	-0.759964477	 2.7367150286	 0.115908
H	 0.3761934977	-2.8882678833	 1.8083405459	 0.089068
H	-1.7604874616	-2.9168541178	 0.2400336109	 0.091264
H	-2.2000194677	-0.1607469089	-0.1104944438	 0.108617
H	-1.320193407	-1.0237007881	-1.377256992	 0.09833
