21
gdb 110801	2.27059	1.35014	1.03388	0.7473	88.17	-0.2499	0.0484	0.2982	1262.6604	0.181932	-349.893645	-349.884541	-349.883597	-349.92746	35.138	
C	-0.1639466685	 1.5669596963	-0.3099716628	-0.375068
C	-0.045643279	 0.1339125988	 0.2228238426	-0.21208
C	-1.3653431899	-0.6100868973	 0.1476633761	 0.0212
C	-1.9380553952	-1.2742782687	-1.0764996522	-0.074811
C	-0.8572006832	-1.9980705779	-1.8892908219	-0.259704
C	-0.5435663215	-2.9016197785	-0.6376074243	-0.169551
C	 0.8194429636	-3.0306772937	-0.1509574834	 0.331711
C	 1.9491407731	-3.161831582	 0.242145506	-0.469581
C	-1.5852922322	-2.0986040589	 0.1718245599	-0.109548
H	 0.7890714256	 2.0994292111	-0.2320750933	 0.10984
H	-0.4679130933	 1.5726395214	-1.36226127	 0.116413
H	-0.9118045623	 2.1391983587	 0.2507902343	 0.110087
H	 0.7356053402	-0.4008778871	-0.3231979562	 0.11311
H	 0.2882241566	 0.1545922876	 1.2679705566	 0.097983
H	-2.1507022825	-0.1086804649	 0.7147672616	 0.082422
H	-2.9198983451	-1.0229598271	-1.4591896033	 0.084367
H	-1.2536690047	-2.5853173698	-2.7193799373	 0.107885
H	-0.0307067771	-1.3858899096	-2.2592724859	 0.108117
H	-0.9406922247	-3.9040254727	-0.8272013036	 0.107627
H	 2.9444404323	-3.2685321115	 0.5960006167	 0.192787
H	-2.2459228521	-2.5589717642	 0.8973834503	 0.086795
