18
gdb 71362	3.01108	1.89187	1.54498	2.8456	74.17	-0.226	0.0774	0.3034	906.8987	0.148877	-401.857454	-401.850639	-401.849695	-401.888208	28.56	
C	 0.0744708049	 1.4986491343	-0.1506511139	-0.523178
C	-0.0083287425	 0.0146063786	 0.0149625722	 0.436488
O	 0.5964820719	-0.8284419349	-1.0450291982	-0.357517
C	 0.0580729483	-1.7753165855	-0.0799256605	 0.041886
C	 0.5852494906	-0.9194849079	 1.1240443348	-0.086233
C	-0.4155410577	-1.0315896667	 2.2579160955	-0.071961
N	-1.3325761206	 0.1352396286	 2.3577816777	-0.340817
C	-1.7077494142	-1.0408180071	 1.527986196	-0.071945
C	-1.2544456218	-0.9326191555	 0.0848529403	-0.086237
H	 1.1213584616	 1.8152048772	-0.1991385472	 0.124992
H	-0.4195613156	 1.8024533574	-1.0791866621	 0.125056
H	-0.4122308278	 1.9870817576	 0.6948493394	 0.153322
H	 0.1817424091	-2.8395135386	-0.2854034661	 0.087902
H	 1.6570672977	-0.8826625473	 1.3126357034	 0.076957
H	-0.2241846821	-1.6402611936	 3.1341076347	 0.0927
H	-1.8325058275	 0.075646049	 3.243564323	 0.22893
H	-2.5503204664	-1.6568862574	 1.8201257571	 0.092696
H	-1.9695926979	-0.908646168	-0.7359410361	 0.076958
