18
gdb 18710	3.31701	2.15945	1.50676	1.7533	72.06	-0.2382	0.0029	0.241	875.3024	0.155117	-347.804615	-347.797494	-347.79655	-347.83565	28.022	
C	 0.1145628802	 1.5596493066	 0.0393044634	-0.401224
C	 0.0121300394	 0.0290729381	 0.0099349678	-0.012541
C	 0.6019838923	-0.5469173055	-1.2982166056	-0.261834
C	 0.7902295011	-2.0407232337	-1.2660194765	-0.092482
C	 1.0714010069	-2.6935286046	-0.1371349755	-0.040047
C	 1.1862167517	-1.9663026261	 1.1503654471	-0.008198
O	 2.0685605257	-0.8147137265	 1.1861531878	-0.262698
C	 0.6606636385	-0.5932273285	 1.2311923878	 0.060772
H	 1.1636960533	 1.8737292827	 0.0435610961	 0.129424
H	-0.3686601584	 2.0038789686	-0.8368650856	 0.112942
H	-0.3642622157	 1.974488611	 0.9324155456	 0.112018
H	-1.0504863626	-0.2519453685	 0.0577456683	 0.079312
H	-0.038904865	-0.2606710226	-2.1393023409	 0.100409
H	 1.5747427817	-0.0706660991	-1.4808632754	 0.12787
H	 0.7222777461	-2.5808646203	-2.2063956616	 0.094364
H	 1.2195697142	-3.7688508868	-0.127955084	 0.088821
H	 1.229847733	-2.5659097283	 2.0573607884	 0.08962
H	 0.2915122077	-0.2331901864	 2.1938591628	 0.083472
