18
gdb 9357	7.71213	0.80881	0.7457	2.4503	66.62	-0.2608	0.0171	0.2779	1534.9037	0.150662	-422.09839	-422.088514	-422.08757	-422.134558	32.438	
C	-0.0337891523	 1.4606926257	 0.0423503361	-0.3855
C	 0.0172957965	-0.0555633216	-0.0200354947	-0.024961
O	 0.692733532	-0.4316053894	-1.2056212331	-0.223423
C	 0.7939508707	-1.8137175773	-1.3593431501	-0.17241
C	 1.5282204284	-2.1269142712	-2.6531181877	 0.411371
O	 1.9634145327	-1.3313774799	-3.43840812	-0.33455
O	 1.6201814475	-3.4669885286	-2.7906531924	-0.234483
C	 2.2934177028	-3.9139651778	-3.9739991757	-0.238395
H	 0.9769602764	 1.8777536278	 0.047865374	 0.131812
H	-0.5644883273	 1.8617381125	-0.8254665773	 0.131824
H	-0.5511803489	 1.78643111	 0.9495983879	 0.114571
H	 0.5414183437	-0.4644752381	 0.8607179512	 0.087377
H	-1.0010356444	-0.4805202829	-0.0129971255	 0.087382
H	 1.3433536225	-2.2876264847	-0.5277928434	 0.116348
H	-0.1942546262	-2.3035794312	-1.3965962436	 0.116338
H	 3.3219788882	-3.5448762891	-3.9953800488	 0.141843
H	 2.2796432257	-5.0030193365	-3.9306681054	 0.132983
H	 1.7758997319	-3.5600439478	-4.8692750316	 0.141873
