20
gdb 101460	4.01938	0.94985	0.9154	1.1135	75.55	-0.2529	0.0134	0.2663	1364.2059	0.171384	-440.303741	-440.294547	-440.293603	-440.338301	33.532	
C	 0.0160770436	 1.5965919514	 0.0152820247	-0.383825
C	-0.088469959	 0.0719013552	-0.0628733085	-0.189787
C	 0.7774076184	-0.5267580835	-1.1778423116	 0.123059
O	 2.1486838416	-0.1770536534	-1.0417538457	-0.438949
C	 0.6369551826	-2.0577098811	-1.2720302756	-0.005389
C	 1.4050459455	-2.6712039068	-2.471269299	-0.12692
O	 2.272170282	-3.6675860173	-1.8666792994	-0.214801
C	 2.1005336438	-3.5253240411	-0.5384687157	 0.122288
N	 1.2510442291	-2.6979494027	-0.0864551423	-0.29052
H	 1.0562974579	 1.9042544476	 0.1496967332	 0.128462
H	-0.3519464271	 2.0668422085	-0.9037377209	 0.109705
H	-0.5716411389	 1.9903411983	 0.8498403697	 0.109228
H	 0.2104721254	-0.3828792081	 0.8891369455	 0.114546
H	-1.1312210695	-0.2267623154	-0.2318175472	 0.090803
H	 0.4691218094	-0.0961283311	-2.1404299066	 0.082225
H	 2.4617529667	-0.6275932631	-0.2463087922	 0.285103
H	-0.4285663632	-2.3149339731	-1.2981493327	 0.086761
H	 0.7670707264	-3.1768229636	-3.1985175611	 0.119649
H	 2.0399582832	-1.9372294318	-2.9743750975	 0.134044
H	 2.7293470021	-4.170756409	 0.0659497828	 0.144318
