15
gdb 3001	7.24809	1.6231	1.49331	1.5577	58.7	-0.2686	0.0161	0.2847	847.2337	0.124709	-345.678871	-345.67147	-345.670526	-345.71073	25.703	
C	-0.1929222595	 1.3689478952	 0.1098700879	-0.239381
O	-0.1278843404	-0.0615831709	 0.1364279029	-0.239706
C	 0.8005113521	-0.5786228282	 0.9689502431	 0.462296
O	 1.5350626999	 0.095822687	 1.652322297	-0.383631
C	 0.7904032952	-2.0617349671	 0.9259769935	-0.131293
C	 2.1233103648	-2.7668060303	 1.1138386144	-0.249909
C	 1.1197287126	-2.7919320519	 2.2172671319	-0.249909
H	 0.7611173862	 1.7936089999	-0.212903215	 0.139744
H	-0.9811321282	 1.6172994566	-0.6011305551	 0.131125
H	-0.4329941824	 1.7637045295	 1.1004461373	 0.139749
H	 0.0648239864	-2.5040478279	 0.2559911725	 0.103111
H	 2.2885705222	-3.666329624	 0.5324504457	 0.119664
H	 2.9865458204	-2.1236634396	 1.2372113723	 0.139239
H	 1.3097883142	-2.1656505041	 3.0807931855	 0.139238
H	 0.5771594065	-3.7091749645	 2.4141174962	 0.119665
