12
gdb 21650	5.8832	1.64613	1.28812	5.5935	60.74	-0.2265	-0.079	0.1475	858.1016	0.08634	-410.868578	-410.862088	-410.861144	-410.89925	24.382	
N	-0.0108511035	 1.4155261893	 0.1476577155	-0.567877
C	-0.0336165027	 0.0330319529	 0.0352359945	 0.35849
N	-1.1728614482	-0.5958189359	 0.028815769	-0.245013
N	-1.0859701186	-1.9405847634	 0.0149262761	-0.269592
C	 0.0624364413	-2.7266658	-0.0322277934	 0.456595
O	-0.0021341507	-3.9346439136	-0.0625166935	-0.374582
N	 1.2671019206	-1.9996639423	-0.0394469545	-0.283593
C	 1.204023675	-0.7130328001	 0.0002503861	-0.005469
H	 0.7226836632	 1.8763573945	-0.3717941902	 0.260085
H	-0.9147552169	 1.8423728543	-0.0049876709	 0.263521
H	-1.9715452463	-2.426589398	 0.0208048609	 0.28078
H	 2.1460452568	-0.1596366476	 0.0072838803	 0.126655
