21
gdb 92532	2.22887	1.79528	1.43029	2.9889	77.2	-0.2356	0.0631	0.2987	1035.4131	0.1838	-424.22198	-424.213572	-424.212628	-424.254547	32.972	
C	-0.2724587598	 1.5091608466	-0.0328223707	-0.400684
C	 0.0928521377	 0.0268264374	 0.0134351908	 0.001676
C	 0.8228583986	-0.4852928547	-1.2394549509	 0.126126
O	 1.9181856693	 0.3517178449	-1.669801853	-0.289335
C	 2.893402256	-0.6381375954	-1.2797414774	-0.068385
C	 1.7956785265	-1.6034634863	-0.777729661	-0.072622
C	 1.6080342705	-1.7369164206	 0.7398816617	-0.25596
C	 0.991325733	-0.396970729	 1.1981502774	 0.091429
O	 1.9807924107	 0.608393066	 1.4026945199	-0.420553
H	 0.6243477477	 2.1112283898	-0.1829765978	 0.15202
H	-0.9663557257	 1.710260728	-0.8557208823	 0.105458
H	-0.7518991142	 1.8277227706	 0.8979698841	 0.106111
H	-0.8248327528	-0.573208277	 0.0977086796	 0.068656
H	 0.1379531337	-0.6908708851	-2.0707043711	 0.064034
H	 3.4696275657	-0.9953791758	-2.1425416208	 0.091632
H	 3.5763626254	-0.2565714073	-0.5137945526	 0.100564
H	 1.7528541273	-2.5584526873	-1.3025182616	 0.071733
H	 0.909528401	-2.5537603556	 0.9583590023	 0.098417
H	 2.5392173883	-1.959707895	 1.2733790242	 0.088669
H	 0.3944035496	-0.5207486151	 2.1137056751	 0.059235
H	 2.5113608715	 0.3483821811	 2.1617855739	 0.281779
