21
gdb 95309	2.61598	1.70325	1.47678	0.7758	76.52	-0.239	0.0807	0.3196	1008.0901	0.185712	-424.238173	-424.230605	-424.229661	-424.269798	30.895	
C	-0.2272153669	 1.5702960417	 0.0591341765	-0.413997
C	 0.0150080771	 0.0577064906	-0.0262390876	 0.005285
C	 0.6507815357	-0.3760798807	-1.3653824353	-0.084825
O	 2.0709393026	-0.2339378672	-1.3986465215	-0.28056
C	 2.7339178282	-0.7572862163	-0.2494601263	 0.098968
C	 2.2232705676	-2.144464054	 0.1659248692	-0.107178
O	 1.0651988622	-1.9006278694	 0.9763202289	-0.285581
C	 0.9038592051	-0.4762282917	 1.117497719	 0.094526
C	 2.3316131123	 0.0617642627	 0.9839949201	-0.241497
H	 0.6727678283	 2.1400714031	-0.1901929824	 0.127993
H	-1.0111866641	 1.8733812563	-0.6421023759	 0.116304
H	-0.5485020299	 1.8694708417	 1.0630257424	 0.112663
H	-0.9515866372	-0.4547193336	 0.0524289517	 0.079422
H	 0.3748807344	-1.4187616864	-1.5733462902	 0.100778
H	 0.276858188	 0.2344239435	-2.1927537422	 0.102965
H	 3.8000237694	-0.7464603368	-0.4840813806	 0.081608
H	 1.9572153695	-2.7656906646	-0.6964536162	 0.109859
H	 2.9815364466	-2.677159541	 0.7550996079	 0.098084
H	 0.4415379512	-0.2971367315	 2.0921101724	 0.07378
H	 2.9320803321	-0.2059939545	 1.8589440526	 0.10144
H	 2.4046424578	 1.1353625281	 0.8114734577	 0.109963
