18
gdb 42660	2.51056	1.89664	1.72636	2.9439	74.27	-0.2279	-0.0165	0.2114	899.9854	0.151521	-401.964178	-401.957482	-401.956538	-401.995223	27.2	
O	-0.0754438662	 0.0713528103	-0.1834720462	-0.344352
C	-0.0633862658	 1.2677936278	-0.0316637387	 0.434135
C	-1.2482391184	 2.1635632184	 0.1610909265	-0.161192
C	-0.721764728	 3.3716956552	 0.9048212038	-0.02901
C	 0.7742188247	 3.1812239815	 1.1505393946	-0.248936
C	 1.1641226904	 2.1863060721	 0.0391437269	-0.144408
C	 1.2190946603	 2.9365436369	-1.3096653446	-0.237235
C	-0.1171813247	 3.7061354753	-1.5119672881	-0.153913
N	-1.1393020176	 3.4916397291	-0.4727048724	-0.098008
H	-2.2422831956	 1.7449935527	 0.2745258415	 0.104735
H	-1.3333061996	 3.8904004212	 1.6379904159	 0.09933
H	 1.332019945	 4.1227372742	 1.0935493028	 0.105442
H	 0.93940605	 2.7553707326	 2.1456392642	 0.115608
H	 2.077700511	 1.6228493824	 0.2285500308	 0.092491
H	 2.0728082752	 3.6230239412	-1.3103544603	 0.106063
H	 1.3806336192	 2.225072581	-2.1253241671	 0.119598
H	 0.0578960139	 4.7860068044	-1.546564159	 0.117364
H	-0.5798629137	 3.4332976636	-2.4647320105	 0.122287
