25
gdb 115361	3.34302	0.9425	0.84454	0.2141	95.52	-0.2351	0.0289	0.2639	1534.4044	0.230149	-352.386741	-352.377011	-352.376066	-352.421235	37.638	
C	 0.0646458678	 1.6383445531	 0.1497743953	-0.391922
C	 0.0379529688	 0.1112309294	 0.033170212	-0.17885
C	 0.6785075623	-0.4493665749	-1.2540812801	 0.000304
C	 0.8848983651	-1.9695821597	-1.1535887318	-0.214001
C	 1.2954677142	-2.5748838479	-2.5008755542	-0.229809
C	 0.2192184293	-2.352629395	-3.5831322254	-0.006944
C	-0.9098520019	-3.4001283391	-3.5224163886	-0.385568
C	-0.3343578083	-0.9506792145	-3.5024231919	-0.074245
C	-0.1226514711	-0.1099696333	-2.4895197848	-0.050097
H	 1.0913368744	 2.0194113805	 0.1082341144	 0.113311
H	-0.4999571109	 2.1236579881	-0.6525171851	 0.11929
H	-0.3721315517	 1.9655273221	 1.0986109712	 0.111707
H	 0.5679452579	-0.3188358158	 0.8929100263	 0.090842
H	-0.9971560844	-0.2486097022	 0.1008760222	 0.094942
H	 1.6702736462	 0.0246546674	-1.3493712127	 0.073945
H	 1.6393232331	-2.1916548445	-0.390046056	 0.087112
H	-0.0498384595	-2.4314384326	-0.8085680266	 0.096009
H	 2.2322707121	-2.1056690955	-2.8273832534	 0.092392
H	 1.5022476465	-3.6459629456	-2.3937265712	 0.085738
H	 0.698448497	-2.463765154	-4.5665028075	 0.072552
H	-1.4083373077	-3.3907901166	-2.5477205131	 0.117573
H	-1.6727929133	-3.2021122429	-4.2826806904	 0.110574
H	-0.5161103229	-4.407571838	-3.6948849876	 0.10868
H	-0.9497326479	-0.6292893648	-4.3414019908	 0.077647
H	-0.5508345849	 0.8887185064	-2.5377417502	 0.078818
