14
gdb 25944	2.92909	1.58819	1.05452	6.2755	65.07	-0.2108	-0.0026	0.2082	1051.1275	0.102535	-470.089902	-470.082053	-470.081109	-470.122614	29.309	
N	-0.095354648	 1.3866225651	 0.0720249614	-0.563239
C	 0.0548671329	 0.0376701859	-0.1961217932	 0.457565
O	 1.0933462768	-0.4730056332	-0.5256026492	-0.329637
N	-1.1666517806	-0.6724530742	-0.1009572654	-0.200327
C	-2.4604535447	-0.1221147916	-0.1790538022	-0.111948
C	-3.3441889391	-1.1255502106	-0.0494285241	-0.08612
N	-2.626636027	-2.3018136685	 0.1217281383	-0.37633
C	-1.2550953852	-2.0790578962	 0.0965644106	 0.49419
O	-0.3742748837	-2.8874418061	 0.2452060582	-0.388691
H	 0.7887869373	 1.8703770556	 0.1221155879	 0.2696
H	-0.7690739221	 1.6631766718	 0.769868706	 0.259842
H	-2.6170832346	 0.918264333	-0.3993157176	 0.152389
H	-4.4197953988	-1.109610722	-0.0874540355	 0.149272
H	-3.0003035329	-3.2222838391	 0.2708772147	 0.273433
