23
gdb 65568	2.95344	1.03036	0.93398	1.2929	85.31	-0.2526	0.0713	0.3239	1395.8387	0.205366	-388.268541	-388.259155	-388.258211	-388.302835	36.516	
O	-0.226922222	 1.627612795	 0.04101486	-0.484088
C	 0.0267582214	 0.2366676163	 0.0038085092	 0.415347
C	-1.3458964862	-0.4407546288	 0.0490431873	-0.237151
C	-2.2477088736	-0.0922328303	-1.117057481	 0.035691
C	-2.3293884351	-0.9789509709	-2.3371521887	-0.253876
C	-3.4923365755	-0.9003489428	-1.379077609	-0.283925
C	 0.9801583168	-0.2925097228	-1.1125487483	-0.275204
C	 1.6442604339	-1.2183304384	-0.0584301884	-0.212743
C	 1.0182703997	-0.3421297842	 1.0597606166	-0.274988
H	 0.6147091237	 2.0869660808	-0.040845318	 0.27223
H	-1.2121658004	-1.5281376605	 0.104592078	 0.088537
H	-1.8232681355	-0.1341041082	 0.9892093005	 0.103586
H	-2.3258801701	 0.9743158791	-1.2998606088	 0.099163
H	-2.4289930617	-0.5141725363	-3.3120850645	 0.108336
H	-1.7464125841	-1.8947160377	-2.3426804103	 0.104115
H	-3.6816649214	-1.7607150532	-0.7445736926	 0.105516
H	-4.3896782972	-0.3804009455	-1.6961955672	 0.108444
H	 0.5285501031	-0.7423020285	-1.9984030284	 0.108877
H	 1.6647789941	 0.4991809985	-1.4374318901	 0.085553
H	 1.2277968886	-2.228716593	-0.0745542762	 0.105163
H	 2.7328562893	-1.2972587074	-0.0793407258	 0.097806
H	 1.7109494907	 0.4332524515	 1.4040497283	 0.08748
H	 0.5906417816	-0.8387002727	 1.9353351073	 0.096129
