15
gdb 16545	3.07449	2.36864	1.68726	2.2596	60.63	-0.2428	-0.0159	0.2268	783.8533	0.119585	-399.777434	-399.770392	-399.769448	-399.808805	25.98	
O	 0.1862088632	 1.3503678171	 0.4077672667	-0.431081
C	 0.0468926129	-0.0263870721	 0.1784929075	 0.008595
C	-1.3888028061	-0.594084018	 0.0058427805	-0.001347
C	-2.4537234645	 0.2804888253	-0.7028992986	-0.252593
C	-2.1416698037	-0.4996679607	-2.0157954688	-0.181063
N	-0.9856929804	-1.1835667812	-1.3339111539	-0.145015
C	 0.2082668132	-0.4316066101	-1.3073316792	 0.33707
O	 0.9382083526	-0.0560703175	-2.1823844852	-0.333886
H	 0.8181614541	 1.6814790807	-0.242771232	 0.303104
H	 0.6414068998	-0.6185734648	 0.8878498331	 0.102246
H	-1.7394580638	-1.2968199818	 0.7627765422	 0.088207
H	-3.4710859387	 0.1870887309	-0.3210837392	 0.115446
H	-2.1735343085	 1.3356799542	-0.7323015105	 0.131565
H	-2.9070364077	-1.2220833851	-2.3066238851	 0.122945
H	-1.8360479624	 0.0781473429	-2.8909693175	 0.135805
