27
gdb 119260	1.74765	1.0137	0.72269	0.1388	96.52	-0.2599	0.08	0.3399	1759.1902	0.250719	-353.560844	-353.549527	-353.548583	-353.598066	41.786	
C	-1.9923933248	 1.5075822563	-1.3176601645	-0.379555
C	-1.875200547	-0.019256501	-1.3054573144	-0.164095
C	-1.6808031992	-0.5884488001	 0.1069985351	-0.256166
C	-1.6389554179	-2.1105079338	 0.1778344785	 0.39661
C	-0.4962889559	-2.8052650372	-0.5536423143	-0.256169
C	 0.9030795891	-2.4689029497	-0.0193851197	-0.164094
C	 2.0118543719	-3.2505172092	-0.7298884775	-0.379555
C	-2.1165731334	-2.7546748001	 1.4592394948	-0.315039
C	-2.9701758913	-2.8257387569	 0.2147756044	-0.31504
H	-2.1294545667	 1.8909003744	-2.3337235341	 0.109506
H	-2.8448194229	 1.8444829932	-0.716850267	 0.111913
H	-1.0931020605	 1.9777015238	-0.9037108486	 0.11236
H	-2.774993955	-0.462872257	-1.7505742356	 0.097017
H	-1.038739017	-0.3214121102	-1.9475109578	 0.096869
H	-0.76395746	-0.1687400558	 0.5428222452	 0.093407
H	-2.5006502854	-0.2321828602	 0.7448228495	 0.085974
H	-0.6468454541	-3.8908111465	-0.4842403585	 0.085974
H	-0.5403805543	-2.5690581436	-1.6255406132	 0.093407
H	 1.0946095154	-1.3941766528	-0.1265242568	 0.096868
H	 0.9357132338	-2.6770124898	 1.057730136	 0.097017
H	 2.9996305599	-2.9945241809	-0.3338213236	 0.109506
H	 1.8746416497	-4.3311568558	-0.6094886916	 0.111913
H	 2.0199410586	-3.038678508	-1.805132526	 0.11236
H	-1.6236239559	-3.6635621055	 1.7894479721	 0.104701
H	-2.4457940165	-2.1127138586	 2.2698553466	 0.104805
H	-3.8741693071	-2.2257631432	 0.1841506916	 0.104701
H	-3.0584876434	-3.781487422	-0.2915283705	 0.104805
