19
gdb 1789	3.56238	2.03715	1.65911	1.2653	67.57	-0.2502	0.0829	0.3331	854.3306	0.169908	-310.909223	-310.900761	-310.899817	-310.941389	31.495	
C	 0.1788234604	 1.4761324129	 0.2677045727	-0.380401
C	-0.2312041722	 0.0692245485	-0.1840925947	-0.236738
C	 0.6077588532	-0.481591256	-1.3286274136	 0.347837
C	 0.4357272794	 0.2168206838	-2.6651112251	-0.459392
C	 1.9910406798	-1.0221269404	-0.9936844159	-0.365878
C	 0.8711962746	-1.9640233984	-1.3685661668	 0.056415
O	 0.279036002	-2.7656431459	-0.385866555	-0.420443
H	 1.225945591	 1.4974578504	 0.5885271601	 0.113151
H	 0.0633120627	 2.2138454064	-0.5329106667	 0.113326
H	-0.4363734746	 1.8080084223	 1.1100495455	 0.109449
H	-0.1718250333	-0.6231539424	 0.6599451544	 0.109797
H	-1.2851421476	 0.0781129787	-0.4934385723	 0.091879
H	 0.7591974302	 1.2622896625	-2.6174204941	 0.118247
H	 1.0246595664	-0.27035885	-3.4488672506	 0.109515
H	-0.614261915	 0.20573343	-2.9809304447	 0.115688
H	 2.8058239887	-0.8670418329	-1.6938246191	 0.103947
H	 2.2838398411	-1.0135517277	 0.0517772237	 0.107682
H	 0.9138650487	-2.4267546981	-2.3556116302	 0.079206
H	 0.9267439643	-3.4224777538	-0.1108860573	 0.286712
