21
gdb 60373	4.11507	0.63453	0.57301	2.6313	77.21	-0.2681	-0.0336	0.2346	1916.9035	0.178921	-461.374984	-461.36418	-461.363236	-461.411795	38.441	
C	-0.0316754943	 1.5685214852	-0.0748829553	-0.403328
C	 0.002056422	 0.0407822249	-0.037312706	 0.122618
O	 0.7370667689	-0.4865306879	-1.142564851	-0.436319
C	 0.6731916772	-0.4917967663	 1.2267483605	-0.164877
C	 0.6804284444	-2.0210929134	 1.3009244438	-0.207113
C	 1.3506645545	-2.5311509105	 2.5881816151	 0.041164
O	 0.698722308	-2.0577185224	 3.7370708809	-0.435929
C	 1.3922600083	-4.0440026986	 2.5959515495	 0.135801
O	 0.9003947663	-4.6923505688	 3.488674268	-0.263368
H	 0.9845137592	 1.973909298	-0.0395736087	 0.124351
H	-0.509541415	 1.9261222355	-0.9944749493	 0.102951
H	-0.5983205961	 1.9709980833	 0.7709623812	 0.118988
H	-1.0344946512	-0.3378945241	-0.0673339132	 0.063817
H	 0.3276663449	-0.1674981027	-1.9526869292	 0.281446
H	 1.7052734493	-0.1174265548	 1.2543842115	 0.098794
H	 0.1596028468	-0.0905465389	 2.1057342884	 0.11927
H	-0.3495993182	-2.3997641015	 1.2738153532	 0.101835
H	 1.2019463781	-2.4259484945	 0.4270228699	 0.116988
H	 2.4045040589	-2.192163452	 2.5812371434	 0.091247
H	 0.4473087847	-2.8498124018	 4.2379550639	 0.293243
H	 1.8945982232	-4.5263897587	 1.7325503832	 0.098421
