12
gdb 17158	4.35431	2.03322	1.64865	5.1162	59.31	-0.2646	-0.018	0.2466	746.3795	0.084196	-377.402712	-377.396869	-377.395925	-377.432702	22.451	
N	-0.0195811917	-1.0773390158	 0.052754476	-0.335538
C	-0.0286834325	 0.0781514763	 0.0469436575	 0.176036
C	-0.0287766392	 1.5149716966	 0.0228638051	 0.42631
O	-0.709479	 2.2721561857	 1.0571553166	-0.338621
C	-0.1562127401	 3.304975045	 0.188599306	 0.050737
C	 1.165141291	 2.5205018817	-0.121301434	-0.112911
N	 1.0199868675	 2.5616974728	-1.6082095021	-0.333431
C	-0.3970667026	 2.5033132849	-1.1368207169	-0.112898
H	-0.330119754	 4.3503314386	 0.4384291129	 0.11799
H	 2.1168596965	 2.5122669747	 0.4083708509	 0.118487
H	 1.2409524677	 3.4941668165	-1.9639195699	 0.225351
H	-1.2671736927	 2.4750204931	-1.7914215421	 0.118486
