15
gdb 98373	1.94401	1.29725	1.00232	3.2167	69.51	-0.2588	-0.0442	0.2147	1242.7655	0.108182	-457.758293	-457.748293	-457.747349	-457.794965	33.251	
C	-0.3092216785	 1.3459275548	-0.7333804792	-0.243422
O	-0.2244110857	-0.0471532011	-1.0776662946	-0.226433
C	 0.902051153	-0.6684906327	-0.6949289973	 0.440456
O	 1.8016167984	-0.1563791216	-0.089193111	-0.346311
C	 0.8666488548	-2.1462587019	-1.1249774676	-0.333523
C	-0.4466559303	-2.7949995124	-0.6321579832	 0.168897
O	-0.4944564803	-3.5284649954	 0.3140390709	-0.235688
C	 0.9667465824	-2.2750354987	-2.5717080567	 0.305823
C	 1.0116738652	-2.4066030334	-3.7649357892	-0.450087
H	-0.2331350222	 1.4765757428	 0.3483788618	 0.150525
H	 0.4940988915	 1.9056708403	-1.217708632	 0.149841
H	-1.2812672726	 1.6790935451	-1.0950477832	 0.142229
H	 1.6987864399	-2.6397356759	-0.6177448364	 0.153174
H	-1.3377672338	-2.5185778478	-1.2286211089	 0.113941
H	 1.0695544983	-2.5191266522	-4.8196430936	 0.210579
