19
gdb 26412	4.27418	0.97131	0.87757	2.5028	78.83	-0.1925	0.0337	0.2262	1374.3468	0.15958	-419.248824	-419.239825	-419.238881	-419.283156	33.428	
C	-0.076741606	 1.5397885999	 0.0833565424	-0.392253
C	 0.0142756006	 0.0229248871	-0.0169241448	 0.154518
C	 0.73032715	-0.6113899057	 1.1733958912	-0.395632
O	-1.3479826749	-0.4446904188	-0.094053904	-0.301497
C	-1.5611126814	-1.6649545146	-0.6230568812	 0.376699
C	-2.7877093796	-2.2791291152	-0.7182073901	-0.226371
N	-2.5176184545	-3.4855998009	-1.3430253341	-0.233964
C	-1.1858929918	-3.5367504308	-1.5811254343	 0.012926
N	-0.573848332	-2.4476146486	-1.1570604239	-0.335547
H	 0.9247901401	 1.9780582422	 0.1253866564	 0.112739
H	-0.6018021022	 1.9533513481	-0.7818038772	 0.11997
H	-0.6199194435	 1.8335074693	 0.9874057254	 0.120017
H	 0.5265953924	-0.2641142116	-0.9410736003	 0.102929
H	 0.7727782993	-1.6964735531	 1.0595712538	 0.137448
H	 1.7555532206	-0.2331613237	 1.2429452434	 0.109102
H	 0.209231126	-0.3704700301	 2.1058623899	 0.113534
H	-3.7771442295	-1.9823830207	-0.4204696966	 0.127705
H	-3.1931670805	-4.1940042345	-1.5729278017	 0.266928
H	-0.7108316631	-4.3796780683	-2.0591818342	 0.130749
