16
gdb 69111	2.44464	1.66639	1.27876	4.0151	69.66	-0.254	0.006	0.26	1009.8306	0.123724	-437.875853	-437.867606	-437.866662	-437.908791	30.679	
O	 0.119946092	 1.3726041277	 0.0789317111	-0.456314
C	 0.0515077325	-0.0094295	 0.0338513782	 0.360017
C	-0.3266300163	-0.7703771731	-1.2020944482	-0.396099
C	-1.2431241898	-0.8226067396	 0.025615504	 0.221913
O	-1.093702703	-1.9425725531	 0.8475891706	-0.292722
C	-0.0533325293	-1.6410312128	 1.7960846928	-0.089592
C	 0.93416899	-0.7093643084	 1.0654967374	-0.291178
C	-2.528347646	-0.1871885651	-0.0089662133	 0.228432
N	-3.5397956074	 0.3735326133	-0.0598680608	-0.35027
H	-0.5215256387	 1.7505950842	-0.5331972643	 0.298001
H	-0.6885631467	-0.2003636222	-2.0530577348	 0.13325
H	 0.1892365939	-1.6930885346	-1.4467762275	 0.137399
H	-0.4859052192	-1.1387526249	 2.6716090858	 0.118712
H	 0.3803921565	-2.5917263663	 2.1127090486	 0.121895
H	 1.743790957	-1.268240935	 0.5880984032	 0.120537
H	 1.3720507844	 0.0349704599	 1.7329433074	 0.13602
