18
gdb 37728	3.11865	2.07714	1.66624	1.7461	72.54	-0.2154	0.0733	0.2887	854.0542	0.151985	-401.891183	-401.885162	-401.884218	-401.921564	25.574	
C	-0.0120235959	 1.576664123	-0.208759534	-0.26899
C	 1.3206666071	 2.2321863277	 0.2145749446	-0.147659
N	 2.3164704512	 1.3044034542	 0.7466439448	-0.104104
C	 2.4799561858	-0.0370060126	 0.2011474608	-0.055748
C	 1.9373318629	 0.1728008916	 1.5829776914	-0.05575
C	 0.5547325444	-0.4931653538	 1.384407709	 0.035952
O	 0.9191266382	-1.7204089336	 0.6571823066	-0.30182
C	 1.2596008409	-0.7656618673	-0.4106648267	 0.035926
C	 0.0436947928	 0.079864149	 0.0401609952	-0.008651
H	-0.8543777811	 2.004285888	 0.3468209962	 0.105026
H	-0.220571901	 1.7592708937	-1.2690634457	 0.105024
H	 1.7908066826	 2.7439573458	-0.631347402	 0.110155
H	 1.1556006158	 2.9903354481	 0.9868989317	 0.110152
H	 3.4885803903	-0.3684528529	-0.0218436383	 0.098619
H	 2.4994162564	 0.0140580417	 2.4971793448	 0.098626
H	-0.0780080158	-0.6642598221	 2.2548581019	 0.076427
H	 1.3559455376	-1.2186250423	-1.3970009156	 0.076428
H	-0.8763082822	-0.4325808381	-0.2433090947	 0.090387
