22
gdb 58286	2.2282	1.06504	0.93807	2.4716	79.54	-0.2466	0.0288	0.2754	1418.5798	0.19125	-441.530186	-441.5188	-441.517855	-441.567673	40.339	
C	-0.285675208	 1.4707787867	-0.2999188446	-0.410621
C	-0.0947758474	-0.0004796295	 0.0573995479	 0.141615
O	 0.6118862783	-0.152159415	 1.2882715163	-0.442561
C	-1.4212005758	-0.7957037324	 0.0969598205	 0.040855
C	-1.1639883349	-2.3018348208	 0.1831286415	-0.416249
N	-2.248378083	-0.3656315744	 1.2247288907	-0.330145
C	-3.3684507681	 0.4081432661	 1.0758059982	 0.411704
C	-4.2092122182	 0.5717474175	 2.3339336117	-0.487236
O	-3.6793012008	 0.9211016043	 0.0160365199	-0.374768
H	 0.680976208	 1.9819027251	-0.3046717787	 0.117036
H	-0.7503105896	 1.5815617869	-1.2837890289	 0.129044
H	-0.9395098141	 1.9681618462	 0.4246483295	 0.120791
H	 0.5498119925	-0.4727374797	-0.6938694042	 0.085508
H	 0.1528002118	 0.3938021148	 1.9365559389	 0.273716
H	-1.9966450306	-0.558944697	-0.8026019968	 0.113955
H	-0.6205292383	-2.6478752142	-0.7010294261	 0.123379
H	-0.5507878523	-2.5339661949	 1.0600526174	 0.129402
H	-2.1032174975	-2.858517997	 0.2461688339	 0.116031
H	-2.1087399461	-0.8396435968	 2.1027494596	 0.240685
H	-3.6613117694	 0.3528870585	 3.2546724448	 0.113079
H	-4.5898366294	 1.5937745278	 2.3716335169	 0.153114
H	-5.0714270372	-0.1005632921	 2.2760410015	 0.151666
