19
gdb 73896	2.60227	1.15341	0.88188	1.8897	84.82	-0.2261	0.0169	0.243	1347.3107	0.157242	-385.865219	-385.855642	-385.854698	-385.900377	34.383	
C	 0.2436685395	 1.5331287904	 0.3038228255	-0.501088
C	 0.0630533482	 0.066278882	 0.0845777137	 0.175196
C	-1.0452807901	-0.6446390827	-0.1295218074	 0.206206
C	-2.4753359777	-0.1756049105	-0.1950280302	-0.465858
C	-3.1247836884	-0.4901307773	-1.468330147	 0.314422
C	-3.6475268119	-0.7570126246	-2.5168902477	-0.460436
C	-0.6889228175	-2.0995854003	-0.2939657599	-0.147812
O	 0.725268524	-2.1678565222	-0.1558061849	-0.263961
C	 1.2470882061	-0.8680672312	 0.0817794672	-0.13688
H	 0.9080112078	 1.9636940249	-0.455946798	 0.134039
H	-0.7013034551	 2.0805381903	 0.2693532652	 0.127826
H	 0.711587991	 1.7313798931	 1.2764261301	 0.13191
H	-3.0512362647	-0.6442319996	 0.6171130262	 0.140102
H	-2.5276134659	 0.9041777662	-0.0169668435	 0.136482
H	-4.1130418149	-0.9888588356	-3.4425897581	 0.198925
H	-1.1730613747	-2.7328213276	 0.4688413349	 0.096966
H	-0.9924939994	-2.4918400554	-1.2765031237	 0.115028
H	 1.9766185119	-0.6045529201	-0.7023754604	 0.100546
H	 1.7906981519	-0.8474997298	 1.0415272781	 0.098387
