12
gdb 4332	3.8973	2.03476	1.33682	4.5127	59.39	-0.2396	-0.043	0.1967	825.1048	0.086901	-414.743421	-414.737356	-414.736412	-414.773689	23.199	
O	-0.0454697209	 1.3173038806	 0.0099284597	-0.396874
C	-0.0020185701	-0.0212437556	 0.002771627	 0.452733
N	 1.1688941274	-0.5954268801	-0.0067993143	-0.429631
C	 1.2635687876	-1.969967427	-0.0144101285	 0.440162
O	 2.2924713067	-2.6073655359	-0.0235172764	-0.384659
N	 0.0202120354	-2.664440264	-0.0109580923	-0.343889
C	-1.1850443655	-2.0522236343	-0.0009914628	 0.066193
C	-1.2592659203	-0.6966992671	 0.0064095459	-0.253838
H	 0.8778327581	 1.6137291489	 0.0062358457	 0.307229
H	 0.0985044665	-3.6706284291	-0.0165817425	 0.270976
H	-2.0576574036	-2.6952000584	 0.0006310474	 0.146534
H	-2.1945128114	-0.158864728	 0.0144672211	 0.125065
