21
gdb 63647	3.40009	0.91299	0.86233	3.0106	79.11	-0.2416	0.0697	0.3114	1430.8135	0.18094	-424.186081	-424.176512	-424.175568	-424.221195	35.367	
C	-0.0236075171	 1.5565961255	-0.2751805577	-0.45145
C	-0.0047326828	 0.0638028136	-0.0345272373	 0.393862
O	-1.194952051	-0.5814471263	-0.4189503934	-0.464688
C	 1.2738778148	-0.7283620509	-0.1766769139	-0.36889
C	 0.6168938166	-0.5567082483	 1.1866703506	-0.045295
C	 1.2735968869	 0.2298699846	 2.2852275483	-0.043484
C	 0.4234545884	 0.6249396165	 3.5181654808	-0.086512
O	 1.3615123491	 0.0061123535	 4.4210490291	-0.272064
C	 2.1176848026	-0.5479040586	 3.3261308067	-0.08548
H	 0.8983643688	 2.040119862	 0.0574793026	 0.119401
H	-0.1334492298	 1.7681488656	-1.3461988496	 0.108948
H	-0.8680307318	 2.0194329303	 0.2457031146	 0.128013
H	-1.2654448438	-0.5197610429	-1.378487432	 0.279002
H	 1.209129029	-1.7035956155	-0.6458415132	 0.113142
H	 2.1961012846	-0.1875904588	-0.3676388022	 0.106863
H	 0.0706903959	-1.4311780754	 1.5328106715	 0.098073
H	 1.8237344281	 1.0828345524	 1.8806791855	 0.074574
H	 0.3053710681	 1.6966788047	 3.7168002969	 0.099704
H	-0.5641368057	 0.14461632	 3.5574696688	 0.100592
H	 2.0129242792	-1.6402241288	 3.2645797973	 0.096389
H	 3.1826762296	-0.2962483632	 3.3911733066	 0.099299
