17
gdb 31410	2.98017	1.26578	0.89395	5.343	81.28	-0.1987	-0.0106	0.1881	1258.8879	0.138193	-418.081987	-418.073652	-418.072708	-418.114884	31.438	
C	 0.0774391858	 1.4510182522	-0.0019984931	-0.322741
N	-0.0146541933	 0.0125282874	 0.112042485	-0.365844
C	-1.2022784062	-0.6670008718	 0.0589721109	 0.422861
C	-2.4281316539	-0.0337207851	 0.0632460314	-0.390865
C	-3.6716890847	-0.755697998	 0.0425930348	 0.431292
O	-4.8017636387	-0.288560399	 0.0466174672	-0.418018
N	-3.5091777057	-2.1635177	 0.0080694106	-0.367621
C	-2.310319347	-2.8003477673	-0.0036776542	 0.049662
C	-1.1480355684	-2.1045672219	 0.0210671926	-0.256954
H	 1.128700581	 1.7424329657	 0.0391112608	 0.127066
H	-0.354909858	 1.8287745251	-0.9396376859	 0.130858
H	-0.4417720675	 1.9402090748	 0.8298111956	 0.143575
H	 0.8129476802	-0.514696037	-0.106883825	 0.243096
H	-2.51513782	 1.0436005081	 0.0829697561	 0.097851
H	-4.3745250276	-2.6826592502	-0.0109196143	 0.255894
H	-2.3414143995	-3.8832133408	-0.0323539185	 0.129404
H	-0.1984797165	-2.6243632122	 0.0207847359	 0.090484
