19
gdb 108597	2.61401	1.34223	1.19825	1.7366	70.46	-0.2407	0.0696	0.3103	1117.8652	0.160066	-460.139669	-460.131234	-460.13029	-460.172668	32.384	
O	 0.0649824316	 1.3865526612	-0.1169025839	-0.414354
C	 0.0073636236	-0.0066971017	 0.1595646323	-0.163073
C	-1.3963053877	-0.5451350526	 0.0857064165	 0.218812
C	-2.4396495007	 0.0175082607	 1.0391321397	-0.14847
O	-3.5078902403	-0.9378073041	 1.0605704017	-0.277448
C	-2.9377880381	-2.2395330934	 0.8764358764	-0.112395
C	-1.7384182235	-2.0309059832	-0.0285560729	-0.185575
C	-1.9648885085	-1.109193784	-1.2008218959	 0.08844
O	-3.2270653198	-0.7882575718	-1.696752555	-0.437429
H	-0.3148903947	 1.5225259885	-0.9918293675	 0.286447
H	 0.6637042567	-0.5801504109	-0.5144492489	 0.087758
H	 0.4098194119	-0.1174701456	 1.1738559109	 0.109203
H	-2.004245409	 0.1479201839	 2.041910171	 0.104539
H	-2.8694443202	 0.9721316406	 0.7236558596	 0.122731
H	-2.6285912689	-2.6748933863	 1.8384250368	 0.105696
H	-3.7205390832	-2.8713750917	 0.4444849727	 0.120968
H	-0.9730512814	-2.7986493583	-0.066953815	 0.092634
H	-1.2629039701	-1.2101810771	-2.0240991511	 0.102357
H	-3.8230563877	-0.7179472143	-0.9371492475	 0.299159
