17
gdb 55037	3.103	1.22919	1.06008	4.8747	69.81	-0.2324	0.0008	0.2332	1164.751	0.135796	-455.119854	-455.111066	-455.110122	-455.153877	31.971	
N	 0.4266277751	 0.9230414102	-0.7251493095	-0.523174
C	 0.0579347422	 0.0489477512	 0.2535837512	 0.400165
O	 0.8240225855	-0.3429525602	 1.1111819478	-0.352554
C	-1.3808417137	-0.4067738794	 0.1376217279	-0.073335
O	-1.7585526606	-1.5288670141	 0.9239245643	-0.229927
C	-2.384952224	-0.2907880931	 1.2283429494	 0.045991
C	-2.1808912407	 0.3026752381	 2.5880801379	-0.039722
C	-2.1883918886	-0.6121223209	 3.7650021579	-0.232747
N	-0.9699682386	 0.1022804794	 3.3776080698	-0.31872
H	 1.3442240062	 1.3341935986	-0.6698043263	 0.270722
H	-0.2320167634	 1.3055769439	-1.381064144	 0.263872
H	-1.7654933998	-0.4273519644	-0.8847464635	 0.100009
H	-3.4224510329	-0.2236009528	 0.8873665312	 0.098459
H	-2.6340369093	 1.2885244212	 2.6878063167	 0.089297
H	-2.6444929497	-0.29141993	 4.6976319373	 0.113058
H	-2.2520900643	-1.6774940505	 3.5593309101	 0.124408
H	-0.3266074234	-0.506169797	 2.8736320318	 0.264198
