14
gdb 133681	3.12855	0.92725	0.83554	2.744	54.95	-0.275	0.0138	0.2888	1302.9102	0.09725	-564.382331	-564.373418	-564.372474	-564.417058	31.403	
N	-0.0960739189	 1.518962599	 0.2260941549	-0.506141
C	 0.0112906528	 0.0748395835	 0.0359490107	-0.138409
C	 0.7179267015	-0.4156896692	-1.2579019256	-0.344895
C	-0.0976133214	-0.1445502967	-2.5076851929	 0.285128
F	-0.2865299075	 1.1739091916	-2.7193452924	-0.085913
F	 0.5081870891	-0.6374323817	-3.5926198834	-0.065736
F	-1.3151213413	-0.7054081227	-2.4266492716	-0.08069
C	 0.6997764333	-0.5120562768	 1.1966071837	 0.298155
N	 1.2672132478	-0.9829739709	 2.0853320487	-0.308426
H	 0.8275850921	 1.9397241354	 0.2669949261	 0.242546
H	-0.5788828255	 1.9305152436	-0.564979233	 0.248748
H	-1.0072444736	-0.3320514945	 0.0291272918	 0.154833
H	 1.6921766689	 0.0684156785	-1.3679250306	 0.144172
H	 0.8816194127	-1.4962312489	-1.2142259763	 0.156629
