16
gdb 17758	3.00833	2.66611	1.85974	1.102	67.95	-0.2155	0.0734	0.2889	764.2162	0.12918	-346.490719	-346.483814	-346.482869	-346.521242	27.634	
C	 0.0030028083	 1.4806197915	 0.0832749311	-0.526255
C	 0.0360978782	-0.0087259123	-0.0020840384	 0.304088
C	 0.2784746703	-0.9936076573	-1.1916131122	-0.140384
C	-0.6243755584	-2.0248525939	-0.5334773154	-0.07887
C	 0.8688050241	-2.0238486397	-0.2374315961	-0.180588
C	 0.612182198	-1.0301349062	 0.9531667584	 0.328112
O	 1.2946077805	-0.7711106225	 2.1118051486	-0.45262
C	-0.8865176458	-1.0562720893	 0.6542567317	-0.247204
H	 0.950468566	 1.9212331688	-0.2490045455	 0.122887
H	-0.7990212798	 1.9038771178	-0.5326281383	 0.118426
H	-0.1629407138	 1.7984667082	 1.1179237056	 0.128578
H	 0.5002011101	-0.8248450856	-2.2380996908	 0.082499
H	-1.2297059112	-2.803156523	-0.9800433803	 0.083575
H	 1.612557131	-2.7869984747	-0.4266734701	 0.086591
H	 1.0922409274	-1.4657799316	 2.749674459	 0.287984
H	-1.7365797648	-0.8931495101	 1.3042481428	 0.083181
