17
gdb 19055	3.50673	2.27299	2.10369	2.0862	66.01	-0.231	0.0662	0.2972	739.805	0.145056	-363.825244	-363.818973	-363.818029	-363.855283	25.597	
O	-0.0296891222	 1.4663589073	-0.005802931	-0.430753
C	 0.0214771853	 0.0426637209	 0.0297661735	 0.083956
C	 0.6589511883	-0.5398386897	 1.3196314038	-0.23422
C	-0.5535216792	-0.9045920009	 2.1661533616	 0.006819
C	-1.4812911374	 0.3063722365	 2.4568452304	-0.245647
C	-2.2689962856	-0.1463826929	 1.2374855466	-0.020544
C	-1.3960378924	-0.503111861	 0.0902862749	-0.024115
N	-1.575295542	-1.4911551158	 1.1817637614	-0.16096
H	 0.8653077549	 1.7902293974	-0.1486979528	 0.282933
H	 0.5345698416	-0.3321482814	-0.8663224348	 0.07051
H	 1.2360183651	-1.4406068177	 1.0833659468	 0.105419
H	 1.3255935766	 0.1809812477	 1.8037550501	 0.095825
H	-0.350114361	-1.5754189984	 3.0005301525	 0.076609
H	-2.0540148275	 0.1645872635	 3.3760133239	 0.105009
H	-1.0449568897	 1.3073713521	 2.440100687	 0.110423
H	-3.3443367277	-0.0602850571	 1.112005854	 0.08931
H	-1.8924660469	-0.7705668205	-0.836618248	 0.089425
