20
gdb 104526	2.13876	1.37898	1.02158	5.1993	78.6	-0.2592	0.0292	0.2884	1245.8475	0.16999	-403.154188	-403.144641	-403.143697	-403.189251	34.548	
C	 1.3362585469	-1.0336158929	 1.2426669925	-0.400639
C	 0.3034825157	-0.3970676192	 0.3061231664	-0.236971
C	 0.6809397108	-0.4300631732	-1.1730105416	 0.431436
C	 1.9923880854	 0.3190216203	-1.4946040405	-0.389636
C	 1.9955919224	 1.7046019312	-1.0310321252	 0.276436
N	 1.9996617229	 2.7952229154	-0.6492862948	-0.31311
C	 0.5843489989	-1.8070294186	-1.8823568068	-0.339198
C	-0.5363783241	-1.1459690566	-2.7072525527	-0.072296
O	-0.3995740944	 0.095974292	-1.9847894378	-0.315802
H	 1.5739225165	-2.0608401056	 0.9435130744	 0.116129
H	 2.2709015701	-0.4647143208	 1.2686498782	 0.128004
H	 0.9519794063	-1.0697060877	 2.2656801223	 0.127639
H	-0.6587310924	-0.9117071046	 0.4038649212	 0.103217
H	 0.1268406718	 0.6464683902	 0.5901145572	 0.134976
H	 2.8407276372	-0.2056444539	-1.0411227239	 0.151437
H	 2.1463102916	 0.3113870981	-2.5782922255	 0.151029
H	 1.4692107661	-2.1135554195	-2.4434496033	 0.110929
H	 0.2693829076	-2.6283512728	-1.2367518505	 0.116982
H	-0.3304046307	-1.0226950299	-3.7771356793	 0.107907
H	-1.5364477285	-1.5776717917	-2.5884584502	 0.111531
