23
gdb 36929	4.19811	0.88197	0.77628	1.5603	86.14	-0.2362	0.0876	0.3238	1547.3749	0.207014	-388.288143	-388.278972	-388.278027	-388.32363	34.119	
C	-0.019377449	 1.5218426533	-0.2026711164	-0.223833
C	-0.1028979685	 0.0101236596	-0.1844984826	 0.033269
C	-0.1769280295	-0.7368428191	 1.1207422511	-0.235902
C	-1.384360467	-0.6780539085	 0.2177670922	-0.283934
C	 1.3922899982	 2.0696542317	-0.0035412992	 0.162569
C	 1.5202034594	 3.5929905166	-0.1292550097	-0.236841
C	 2.7577722747	 3.8801828098	 0.7305801478	-0.23597
C	 2.6090428092	 2.8431512404	 1.8546903985	-0.055626
O	 1.849314289	 1.7603702387	 1.3186879111	-0.273346
H	-0.4002337344	 1.9006105566	-1.1614785523	 0.090974
H	-0.662637475	 1.9397242519	 0.5823857464	 0.091787
H	 0.464508291	-0.4741274249	-0.9763694586	 0.075203
H	 0.3556220341	-1.6774893955	 1.207796332	 0.105113
H	-0.1841564207	-0.1467412639	 2.0295537835	 0.118211
H	-2.2183949195	-0.0537278962	 0.5227649451	 0.10494
H	-1.6779806264	-1.5768539895	-0.3135963479	 0.105443
H	 2.067809204	 1.5875792941	-0.7321802686	 0.059021
H	 1.6221492413	 3.9230612027	-1.166108384	 0.100121
H	 0.6326724126	 4.0775365168	 0.2956855999	 0.100396
H	 3.6707842088	 3.6939451125	 0.1550411771	 0.106048
H	 2.8028100735	 4.9051343074	 1.1065879884	 0.101951
H	 3.5748397063	 2.467186774	 2.2134495931	 0.097969
H	 2.073211728	 3.2645162115	 2.717602713	 0.092436
