23
gdb 63696	2.40788	1.54957	1.1859	1.2125	85.31	-0.2427	0.0793	0.322	1165.7693	0.204434	-388.274344	-388.264904	-388.26396	-388.307703	37.533	
C	 0.0722294743	 1.5702517122	-0.0470675065	-0.45857
C	 0.0080581849	 0.0477885858	-0.003970897	 0.344058
C	-1.4328562891	-0.4393422129	-0.1943557304	-0.440096
C	 0.9807663352	-0.7345538534	-0.9538900637	-0.345882
C	 1.357717597	-1.6857741013	 0.2251696101	 0.431944
O	 0.9050915807	-3.0090622209	 0.1287511235	-0.488909
C	 2.7257845532	-1.402330205	 0.8836721957	-0.289465
C	 2.0621550602	-0.2383884009	 1.6822990843	-0.254705
C	 0.6484114344	-0.6976232665	 1.2059076519	-0.07906
H	 1.0931731158	 1.9473036263	 0.0644846901	 0.109468
H	-0.3119842335	 1.9455023009	-1.0030271218	 0.110774
H	-0.5369282407	 2.0133575937	 0.7497581632	 0.111021
H	-1.8327776408	-0.1101804089	-1.1608098484	 0.103895
H	-1.4831070344	-1.5319971281	-0.160683921	 0.12944
H	-2.0859222944	-0.0456188745	 0.5932800199	 0.106905
H	 0.4981519212	-1.2296395785	-1.8015669418	 0.091224
H	 1.8219399891	-0.1405916769	-1.3243959365	 0.088395
H	 1.310185831	-3.410129511	-0.6486192699	 0.274229
H	 3.0135391384	-2.2317202975	 1.5353891649	 0.103627
H	 3.5654472311	-1.1561221774	 0.2258595957	 0.085303
H	 2.2102829341	-0.2853670197	 2.7626863762	 0.104509
H	 2.353570616	 0.7595122168	 1.3477082997	 0.099835
H	-0.0250060837	-1.0419363623	 1.9928739417	 0.06206
