25
gdb 123025	4.73878	0.5369	0.5095	0.8444	91.56	-0.2473	0.0917	0.339	2287.9468	0.226973	-389.478802	-389.467582	-389.466638	-389.516579	39.814	
C	-0.0192377094	 1.4889594357	 0.0409604015	-0.383943
C	-0.0343472269	-0.018861814	 0.2292766736	-0.026995
O	-1.3179349267	-0.5027124302	-0.1028527161	-0.24437
C	-1.4445118433	-1.9001528069	 0.0451385789	-0.039584
C	-2.8634118942	-2.3064002121	-0.339661049	-0.230652
C	-3.079356065	-3.7999458272	-0.214244044	 0.009322
C	-3.446879598	-4.42911259	 1.1125460672	-0.291004
C	-4.4430132696	-4.4272533577	-0.0222808687	-0.006343
C	-5.7210344704	-3.6204799222	 0.0549338562	-0.403111
H	 0.9656534901	 1.895928724	 0.2891014776	 0.112288
H	-0.2513961217	 1.7478895399	-0.9960556119	 0.125367
H	-0.7642281699	 1.9632330706	 0.6862319364	 0.125086
H	 0.730035732	-0.4956510029	-0.4087180617	 0.082075
H	 0.2140321084	-0.2805426198	 1.2725298221	 0.082153
H	-0.7098123267	-2.4221415996	-0.5936132926	 0.078808
H	-1.2320853187	-2.2003227879	 1.0856238046	 0.085825
H	-3.5609568872	-1.7536914152	 0.2980081463	 0.103294
H	-3.0517564906	-1.9758916831	-1.3687746684	 0.103587
H	-2.3978469146	-4.3854229292	-0.8285551984	 0.077585
H	-2.9772080743	-5.3618545628	 1.4056350303	 0.105701
H	-3.6425741564	-3.7541777509	 1.9413013796	 0.106343
H	-4.5678272653	-5.3833064389	-0.5253025194	 0.080278
H	-5.5848811734	-2.6867320591	 0.6075610472	 0.117504
H	-6.0943699879	-3.3635631681	-0.9429701021	 0.115797
H	-6.5059546003	-4.1891908724	 0.5659134609	 0.114989
