20
gdb 74216	2.11634	1.52492	0.92712	3.9832	84.52	-0.2113	-0.0471	0.1642	1276.3768	0.172087	-403.172551	-403.163696	-403.162752	-403.206588	33.355	
C	-0.5234718326	 1.4145665902	 0.0695106011	-0.45924
C	 0.0601184983	 0.0223086176	 0.0495807998	 0.288041
C	 0.0536524703	-0.6673174079	-1.1063832865	-0.220634
C	 0.5036458514	-2.0264220481	-1.4834323324	 0.335244
O	 0.3796431405	-2.3744414127	-2.6452712725	-0.326842
C	 1.1444711371	-3.0236195002	-0.5051772976	-0.284466
N	 0.9854924962	-2.8732778103	 0.9263475261	-0.277054
C	 1.4939856691	-1.633075339	 1.4873686953	-0.175014
C	 0.5584549741	-0.4219349697	 1.402764096	-0.288282
H	 0.2472577903	 2.1532159055	 0.3241470389	 0.133715
H	-0.962237199	 1.6910009583	-0.8910222389	 0.1325
H	-1.297867638	 1.4997414806	 0.8424741579	 0.130355
H	-0.3676036082	-0.1714038903	-1.9784861736	 0.094859
H	 0.7877357091	-4.0121925716	-0.8105757062	 0.130273
H	 2.2196660876	-3.014225496	-0.7359584529	 0.132916
H	 0.0243202795	-3.0325170935	 1.207111118	 0.21697
H	 1.7360865604	-1.7919137611	 2.5464487998	 0.102554
H	 2.4416148166	-1.4054890995	 0.9843267524	 0.109455
H	 1.0502073993	 0.4346036	 1.885934715	 0.10891
H	-0.3293985921	-0.6137604323	 2.0276611004	 0.115741
