16
gdb 10773	2.8955	1.99397	1.49579	1.0931	60.52	-0.2578	-0.0365	0.2213	870.1778	0.128507	-420.873592	-420.865094	-420.864149	-420.906263	30.717	
C	-0.1322404462	 1.4380240038	-0.0074245678	-0.393388
C	-0.032101654	-0.0793676247	 0.0026541126	-0.116779
C	 1.1248426367	-0.6560921477	-0.9205792631	 0.06448
O	 1.6176102606	 0.0736328896	-1.9975730287	-0.426377
C	 1.9420658855	-0.6083368931	 0.3627718132	 0.269887
O	 3.0099040156	-0.0823329027	 0.5619828818	-0.330051
C	 0.7218759647	-0.6681303809	 1.2708866121	 0.064482
O	 0.7978178848	 0.0490659771	 2.4604570778	-0.426366
H	 0.8388527346	 1.9113788268	 0.1736529093	 0.11611
H	-0.4938443546	 1.79065921	-0.9765110268	 0.133236
H	-0.8154926167	 1.7810527601	 0.7734320525	 0.13323
H	-0.9997000873	-0.5498418259	-0.1778445181	 0.091085
H	 0.8716650181	-1.6706603365	-1.244676106	 0.111536
H	 2.3867774902	 0.5639366322	-1.6779754567	 0.298683
H	 0.3719480211	-1.6855903854	 1.4728930172	 0.111551
H	 1.629165677	 0.5416254773	 2.4404824105	 0.298683
