18
gdb 95656	2.3972	1.58494	1.10902	1.625	69.35	-0.2653	0.0052	0.2705	1101.4212	0.148943	-476.23281	-476.224361	-476.223417	-476.265928	32.286	
O	 0.0194563433	 1.4509565174	 0.0218573231	-0.44924
C	-0.0442653317	 0.0424385133	 0.0337749316	 0.128614
C	-1.4729915492	-0.5003311454	-0.0583090161	-0.243603
C	-1.4334975072	-2.0193349957	 0.0117619088	-0.088233
O	-0.6012559918	-2.6107666215	-1.0039613677	-0.250567
C	 0.5893611449	-2.0429955751	-1.3209815176	 0.361878
N	 1.5079426414	-2.6884151032	-1.9111568217	-0.516188
C	 0.7809227161	-0.5453037127	-1.1138990318	 0.024938
O	 0.3338831791	 0.137215388	-2.2904823567	-0.450437
H	-0.0399830774	 1.7109394804	-0.9067735411	 0.293123
H	 0.4009487943	-0.2828600364	 0.9830780011	 0.090422
H	-2.078084344	-0.1103077681	 0.7654708149	 0.112861
H	-1.9274737464	-0.1764733116	-1.0001420221	 0.122534
H	-1.064212801	-2.3498408926	 0.9926974468	 0.112105
H	-2.4202821511	-2.4608087045	-0.1420992051	 0.124988
H	 1.2210675355	-3.6593287874	-2.0565076132	 0.221279
H	 1.8490918634	-0.3658001779	-0.9532776458	 0.103165
H	 0.8617982619	-0.189546197	-3.0271852974	 0.302361
