16
gdb 67081	2.73958	1.56518	1.34601	0.6454	76.08	-0.2267	0.0254	0.2521	996.0347	0.123764	-400.637082	-400.62946	-400.628516	-400.668829	30.609	
O	-0.1800879062	 1.4302866526	 0.0685652056	-0.441502
C	-0.0281266864	 0.0803294846	 0.0214068669	 0.342844
C	-1.0526184764	-1.0115456504	-0.0601923343	-0.154664
C	-0.4184415367	-1.6185653414	-1.3020813948	-0.272405
C	 0.9088533505	-0.9141904617	-0.8564001065	 0.108938
N	 1.3079802731	-1.5600793268	 0.4359213932	-0.339541
C	 0.0887950757	-1.0157465694	 1.0255744756	-0.126122
C	 1.93359926	-0.5748835406	-1.7961502979	 0.096755
C	 2.7759598505	-0.2642860807	-2.5970891429	-0.323891
H	 0.6001442609	 1.812833276	 0.4883610639	 0.300294
H	-2.0959852597	-0.9632161649	 0.2214470255	 0.097919
H	-0.369409485	-2.7090214489	-1.4043246128	 0.091681
H	-0.8124933257	-1.1734056383	-2.2180003095	 0.121393
H	 1.3198649314	-2.5795970559	 0.3625314053	 0.211215
H	-0.1193112668	-1.0233668322	 2.0874613388	 0.104141
H	 3.5247263009	 0.0029815681	-3.301056876	 0.182945
