20
gdb 104797	2.66762	1.37684	1.14538	2.0773	74.26	-0.236	0.0517	0.2877	1138.0629	0.171068	-440.223675	-440.214842	-440.213898	-440.256894	34.106	
O	 0.2084500335	 1.4148871935	-0.2165023287	-0.428044
C	 0.1079598991	 0.0587333136	 0.1724279267	-0.112669
C	-1.3154531023	-0.4828083271	 0.0037439453	 0.300857
C	-2.236219571	 0.0532309186	 1.0963332393	-0.128425
O	-2.2939009413	 1.477912384	 0.9884308385	-0.432365
C	-1.9567584885	-0.3967643297	-1.4101536064	-0.302171
C	-2.1103740958	-1.913782174	-1.329280054	-0.012332
C	-0.8082738132	-2.568622558	-1.1246152685	-0.24496
N	-1.4797630757	-1.9926910078	 0.0574828125	-0.180871
H	-0.5076285793	 1.8788287166	 0.2385119946	 0.291956
H	 0.8088965387	-0.4931792012	-0.4601875385	 0.100948
H	 0.4291317385	-0.0974446223	 1.2168408782	 0.083489
H	-3.2354686918	-0.3891060448	 0.9825048609	 0.099321
H	-1.8395985929	-0.2568213647	 2.0736406605	 0.10343
H	-2.764781104	 1.8261524629	 1.750620619	 0.297459
H	-2.8961262084	 0.1578570067	-1.416419112	 0.115006
H	-1.3215529636	-0.0184285219	-2.2147001342	 0.11608
H	-3.0098682463	-2.4725201147	-1.5666091347	 0.09328
H	-0.7865573793	-3.653495232	-1.0877056678	 0.122265
H	 0.0965230938	-2.1162071776	-1.5215055707	 0.117745
