14
gdb 80137	2.54344	1.88563	1.35534	2.6082	61.24	-0.2442	-0.0544	0.1898	917.244	0.101464	-473.8216	-473.814418	-473.813474	-473.853633	26.718	
O	 0.7674605252	 0.8714594627	 0.707979434	-0.415202
C	 0.1937354312	-0.2349154279	 0.1006099863	 0.048528
C	-1.3636455283	-0.3784599749	 0.0610484594	-0.083754
N	-2.0396799393	 0.9251036459	-0.0320784017	-0.276346
C	-2.4456475677	 1.0336306909	-1.2332538222	 0.121375
O	-2.1966131768	 0.0450665145	-2.1262120458	-0.206534
C	-1.3205601775	-0.8539947605	-1.4224619339	-0.042316
C	 0.173340277	-0.3731118251	-1.4552236367	 0.319929
O	 0.9138163122	-0.0712532079	-2.3377649693	-0.26762
H	 0.1886307912	 1.6248810859	 0.5298021502	 0.299104
H	 0.653135557	-1.1343501023	 0.5323073785	 0.122441
H	-1.8120415271	-0.9978735238	 0.8385783089	 0.098577
H	-3.0090396547	 1.868652238	-1.6338714409	 0.158033
H	-1.5404117223	-1.8814157155	-1.7078874468	 0.123785
