15
gdb 4196	4.65413	1.62013	1.32	0.8787	64.76	-0.2338	0.0036	0.2374	902.3572	0.119022	-399.739905	-399.732947	-399.732003	-399.771065	26.556	
O	-0.1583216893	 1.3107774467	-0.0733265875	-0.398098
N	 0.0071455768	-0.0892713906	-0.1090326223	-0.237497
C	-1.1157886357	-0.6712756069	 0.0317481166	 0.393443
C	-2.4755760547	-0.0327917531	 0.2365344688	-0.168423
O	-3.3489410962	-1.073589256	 0.6734351191	-0.266467
C	-2.7210475683	-2.3193253341	 0.5120767373	 0.12457
C	-2.3131379045	-2.729983428	-0.8676017332	-0.327843
C	-1.2794710823	-2.1374672111	 0.0986128786	-0.170843
H	 0.7483198918	 1.62550646	-0.1505659508	 0.308477
H	-2.4378487374	 0.7560521392	 0.9950767541	 0.141062
H	-2.8409204197	 0.4220756813	-0.6947791271	 0.127644
H	-3.0462976974	-3.0463346348	 1.2467110334	 0.110692
H	-2.216190262	-3.7908268514	-1.0706499396	 0.124265
H	-2.6416797766	-2.1318828291	-1.7105344938	 0.127632
H	-0.4615086944	-2.7503608621	 0.4524649064	 0.111387
