22
gdb 60184	2.95421	0.89144	0.7663	0.8622	90.14	-0.2287	0.0342	0.2629	1579.8557	0.191372	-367.154494	-367.144101	-367.143157	-367.190262	38.499	
C	-0.4784505228	 1.4091964048	-0.1221969777	-0.376059
C	 0.027009005	-0.0352421222	-0.0219703619	 0.035884
C	 0.7156518501	-0.4790228888	-1.3187791276	-0.391225
C	 0.975778142	-0.223429386	 1.170594363	-0.129455
N	 0.2935415839	 0.0616902055	 2.432301194	-0.085019
C	-0.3320149216	-1.0548659469	 3.1164600023	-0.245291
C	 0.9039101172	-0.4192101288	 3.6844580096	-0.176707
C	 2.1476298362	-1.1407792255	 3.6974197457	 0.342942
C	 3.2080208961	-1.7081639842	 3.7336417428	-0.473718
H	 0.3511985079	 2.0954741728	-0.3323241884	 0.106982
H	-1.2091403144	 1.5148257829	-0.9308411015	 0.104176
H	-0.9449805003	 1.7257356733	 0.8134572003	 0.129348
H	-0.8397855712	-0.6912609794	 0.1443491034	 0.072609
H	 1.6023275697	 0.1334605243	-1.5223679023	 0.11321
H	 1.0378166238	-1.524599319	-1.2677673627	 0.109455
H	 0.0413618677	-0.3766024774	-2.1749957573	 0.111693
H	 1.398753435	-1.2406893069	 1.1525645332	 0.091073
H	 1.8191017192	 0.4736028567	 1.0851364628	 0.103642
H	-1.2957410246	-0.8619681106	 3.5802333041	 0.120409
H	-0.2115817848	-2.0505831403	 2.692237824	 0.119553
H	 0.7841681744	 0.2767434046	 4.5120751705	 0.117
H	 4.1387157415	-2.2184552989	 3.7646467336	 0.199498
