20
gdb 68652	4.00925	1.05665	0.97256	3.4575	81.28	-0.2478	0.028	0.2758	1280.5803	0.170811	-403.136383	-403.127542	-403.126598	-403.17049	33.459	
C	-0.0017846636	 1.4714606877	-0.0159459166	-0.507996
C	-0.0003701684	-0.0320687564	 0.0040082906	 0.342228
C	 0.6193668612	-0.9894956277	-1.0696130265	-0.328541
C	 0.0104217171	-1.9073527585	 0.0132454087	 0.443047
C	 0.6326351308	-0.9651125684	 1.0843539471	-0.285742
C	-1.240240628	-0.9812375303	 0.0176863642	-0.285361
N	 0.0367981417	-3.3361725613	-0.0126366013	-0.435039
C	-0.5186293435	-4.1068993437	 0.9620233476	 0.127751
O	-1.0880593104	-3.680200483	 1.9435612568	-0.321797
H	 1.0194421111	 1.8677891012	-0.0267657089	 0.118708
H	-0.5199686275	 1.8547602988	-0.9017540624	 0.118733
H	-0.507832119	 1.8732217154	 0.8684099598	 0.123555
H	 0.1363363784	-0.9998343007	-2.05194636	 0.089142
H	 1.7107573098	-0.9862201321	-1.1550446228	 0.08904
H	 1.7248097773	-0.9613483645	 1.1530143818	 0.083718
H	 0.1599495413	-0.9786664239	 2.0676027187	 0.113233
H	-1.8445783142	-0.9962227206	 0.9259071475	 0.113438
H	-1.8563884659	-0.9922174266	-0.8866422691	 0.083773
H	 0.4887859663	-3.7956317109	-0.7874190914	 0.246727
H	-0.3910207545	-5.1892368145	 0.7560469363	 0.071383
