17
gdb 63408	3.1159	1.1483	1.02183	4.6296	72.25	-0.24	-0.0391	0.2009	1209.8831	0.134843	-455.180946	-455.171651	-455.170707	-455.215204	33.124	
C	-0.0290958007	 1.5837443155	-0.0852362217	-0.433063
C	-0.0655202881	 0.0602117691	-0.0543942491	 0.146149
N	-1.4355226441	-0.4071395727	 0.0624406758	-0.54479
C	 0.7458875479	-0.6478809532	-1.1890268536	-0.211205
N	 1.703019598	-1.1109094407	-0.1642963334	-0.135709
C	 2.8675135299	-1.8473157446	-0.2856036433	 0.151868
O	 3.5723803345	-2.1841365676	 0.6288103327	-0.26815
C	 0.9887763827	-0.5478162365	 0.9213325058	 0.390422
O	 1.1528025146	-0.5838018082	 2.102733949	-0.323245
H	 0.9857038344	 1.9541255111	-0.2547555793	 0.129958
H	-0.68322679	 1.9570164621	-0.8782404429	 0.136303
H	-0.3748131018	 1.9877522627	 0.8718100397	 0.137742
H	-1.4633615088	-1.4101869816	 0.2264002882	 0.236787
H	-1.8763806518	 0.0249597082	 0.8699350631	 0.243232
H	 0.2011085146	-1.4602399827	-1.6771683672	 0.127677
H	 1.1840387875	 0.0141198564	-1.9399542511	 0.128272
H	 3.0773829012	-2.0915287171	-1.3471115227	 0.087752
