16
gdb 110755	2.16096	1.50288	1.38166	2.6538	65.55	-0.2412	-0.0043	0.2369	1041.9852	0.122772	-474.988359	-474.979712	-474.978768	-475.02187	31.497	
C	-0.3938444707	 0.8665538852	 0.0129407497	-0.246164
O	 0.6961109962	-0.0395275814	 0.1114889245	-0.239125
C	 1.0051584898	-0.6550385369	-1.0871385042	 0.079162
C	 1.6063700732	-2.0199192158	-1.083619124	-0.156297
N	 0.999540865	-2.864828291	-0.0505840234	-0.336981
C	-0.31120376	-2.6705740368	-0.5482981028	 0.341537
O	-1.3744220807	-3.0752074337	-0.176914152	-0.338758
C	 0.1928802607	-1.7975496376	-1.6916208775	 0.172104
O	-0.277725225	-1.6969403615	-2.973156325	-0.440739
H	-0.1785500211	 1.6743636987	-0.7008261609	 0.114338
H	-1.3117480182	 0.3523417485	-0.2994487106	 0.135001
H	-0.5389269671	 1.2959029161	 1.0059730324	 0.134821
H	 1.3755733084	 0.0126555803	-1.871027115	 0.106177
H	 2.5340868219	-2.3048264922	-1.5617394727	 0.120981
H	 1.1833738039	-2.6864160598	 0.9311984614	 0.251993
H	-0.4184412762	-2.5845825521	-3.32297972	 0.30195
