19
gdb 114147	4.31364	0.94562	0.85235	4.024	82.28	-0.2363	0.0078	0.2441	1386.4211	0.159732	-382.0439	-382.035155	-382.034211	-382.077498	32.904	
C	-0.0518136038	 1.5308274429	-0.0828596813	-0.384995
C	 0.0109336984	 0.0283027505	 0.2069343478	-0.180955
C	-1.3414142522	-0.6481570474	 0.0439168802	 0.049421
N	-1.8975587866	-0.648931461	-1.3636768908	-0.382065
C	-2.1863412482	-2.0981505809	-1.2371636427	 0.265856
C	-0.875364014	-2.8278870131	-1.128579011	-0.306937
C	-1.4468551829	-2.1796718874	 0.1038558945	-0.166733
C	-3.4149550342	-2.6834733102	-1.6552537317	 0.179205
N	-4.4247342393	-3.1369636212	-1.995761429	-0.349336
H	 0.9315029425	 1.9968138817	 0.0273957083	 0.117503
H	-0.3973539663	 1.7093865293	-1.1058438373	 0.133496
H	-0.7401510767	 2.0403551022	 0.6010869192	 0.111927
H	 0.734824586	-0.4479514793	-0.4634131904	 0.102434
H	 0.3636069101	-0.1467019962	 1.2318366867	 0.099293
H	-2.0648233216	-0.209032935	 0.7420218207	 0.085604
H	-2.7557616454	-0.1097825515	-1.4170608394	 0.236097
H	-0.9379483641	-3.9105664982	-1.1377983774	 0.139266
H	-0.0248236821	-2.4026771693	-1.6519326125	 0.13352
H	-1.7005935095	-2.755387896	 0.9839596661	 0.117398
