16
gdb 124113	3.51832	0.95057	0.75543	3.5454	84.54	-0.2261	-0.0164	0.2096	1473.0911	0.122922	-400.738024	-400.728807	-400.727863	-400.77494	31.471	
C	-0.0730278161	 1.4964201229	-0.0741499895	-0.509883
C	-0.0205930463	 0.0431748576	-0.0423373741	 0.206491
C	 0.0215802766	-1.1624736883	-0.0160692666	-0.134288
C	 0.0502844973	-2.5735813049	 0.0147734547	-0.019976
C	 1.1408009064	-3.4075910061	 0.0257207634	 0.328614
C	 2.6022270377	-3.1473978572	 0.0102353507	-0.505367
O	 0.7335089109	-4.6852192354	 0.0565754171	-0.207531
N	-0.6635731178	-4.7351077036	 0.0671364061	-0.1334
C	-1.049317968	-3.4887100038	 0.0423542095	-0.077258
H	 0.933821724	 1.9276994925	-0.0587845709	 0.152212
H	-0.5745943677	 1.8581905923	-0.9788221153	 0.152801
H	-0.6171914264	 1.8948674755	 0.7895256575	 0.152923
H	 3.0846873183	-3.5653423856	 0.8999587659	 0.152975
H	 3.0730240712	-3.6048843314	-0.8661764511	 0.152973
H	 2.7804075605	-2.0710028334	-0.015072058	 0.152207
H	-2.1046075907	-3.2562877609	 0.0444249707	 0.136508
