13
gdb 42798	2.59755	1.74794	1.46687	3.5462	58.63	-0.271	-0.0597	0.2113	897.2564	0.089445	-493.713646	-493.706848	-493.705904	-493.74518	25.329	
O	-0.0071430813	-0.0050358977	 0.0567500807	-0.278581
C	-0.0218652672	 1.1817108176	 0.0550413741	 0.432919
C	-1.0667244223	 2.3116259841	-0.0124748415	-0.068996
C	-1.2679531024	 2.9061101935	 1.3758281771	-0.076921
O	-0.0036658804	 3.1552832981	 2.025687259	-0.242778
C	 1.1710185103	 2.8835168542	 1.3956707837	 0.465288
O	 2.2200044045	 3.0489906608	 1.9421355566	-0.312354
C	 0.9924866467	 2.3452910825	-0.0254202355	-0.197347
O	-0.0528338262	 3.1203308901	-0.6736208376	-0.277888
H	-1.9924598971	 2.1973650996	-0.5797700822	 0.127807
H	-1.7848948417	 3.8675183476	 1.3006769971	 0.144729
H	-1.845506399	 2.2330912755	 2.0176891045	 0.143144
H	 1.9302993162	 2.2865237341	-0.5743665962	 0.140979
