16
gdb 27997	2.54049	1.39849	0.90581	4.473	78.06	-0.1843	-0.0186	0.1657	1220.0961	0.125722	-434.112072	-434.103511	-434.102567	-434.144954	32.294	
N	 0.0353068158	 1.4234709787	 0.1498885505	-0.60338
C	 0.0045815075	 0.0310273984	 0.0382742612	 0.262809
C	-1.0882679022	-0.7836490638	-0.0303294636	-0.184124
N	-0.6294292363	-2.1114252224	-0.0270422161	-0.081835
C	-1.4419968599	-3.2287671423	 0.0284794974	 0.162449
O	-2.6485820883	-3.1863632082	-0.0043424862	-0.314022
C	 0.7666313122	-2.1056335922	 0.002292578	 0.342213
N	 1.4779759116	-3.3135317181	 0.0572414068	-0.605575
C	 1.1812796336	-0.8066748113	 0.0494959038	-0.303883
H	 0.8111826134	 1.8475465819	-0.3411065312	 0.243772
H	-0.8297981534	 1.8673779233	-0.1278447534	 0.245976
H	-2.1451465355	-0.5884175298	-0.0652950899	 0.135388
H	-0.8581031357	-4.1590129587	 0.1139823518	 0.103111
H	 1.4381271956	-3.8441385864	-0.80730798	 0.252559
H	 2.449498937	-3.1466026567	 0.2859581434	 0.253678
H	 2.2067645044	-0.4689355823	 0.0807743473	 0.090863
