17
gdb 38969	2.95066	1.86416	1.53285	2.491	65.88	-0.2458	0.0728	0.3187	894.968	0.138582	-458.950966	-458.944281	-458.943337	-458.982333	26.288	
C	-0.1874571871	 1.0942126657	-0.0053012549	 0.025583
O	 0.9165911252	 1.8471183452	 0.4589689122	-0.266016
C	 2.0179228974	 0.9682964085	 0.640493482	 0.073359
C	 2.3956199011	 0.6978580724	 2.1189888432	-0.268529
C	 1.8706556012	-0.6901692906	 2.425691956	 0.038742
O	 0.4644069813	-0.8215671644	 2.1905947648	-0.248527
C	 1.3683440926	-1.3300648894	 1.1997432146	 0.01482
C	 1.5346819029	-0.3815919612	 0.0223198315	 0.048209
O	 0.3316473326	-0.0519324259	-0.6500479348	-0.257343
H	-0.8365029983	 0.8076634058	 0.8320248857	 0.110761
H	-0.738958541	 1.687766091	-0.7420423126	 0.110164
H	 2.8661291918	 1.3943985449	 0.0963768703	 0.090946
H	 3.4832423603	 0.7228862991	 2.249505516	 0.104815
H	 1.9621710107	 1.4591563252	 2.7733670703	 0.131059
H	 2.2539708286	-1.26128372	 3.2677365967	 0.100165
H	 1.3404473735	-2.4061145811	 1.0496308327	 0.102393
H	 2.2275444171	-0.7978344152	-0.7153053539	 0.0894
