21
gdb 90914	3.33341	1.42759	1.35032	1.8039	82.64	-0.2288	0.0701	0.299	1059.7768	0.184231	-386.995485	-386.98807	-386.987126	-387.026791	31.17	
C	-0.2630107972	 1.5100828635	-0.0810856189	-0.399113
C	-0.0246694083	 0.0056961967	-0.0545987922	-0.087463
C	 1.166900183	-0.4908078395	-1.0048550781	-0.317553
C	 2.0787083877	-0.3988722765	 0.2663307019	 0.022455
C	 2.7362913096	-1.1975379933	 1.4527929982	 0.047944
C	 1.7740225511	-0.3025117688	 2.3679926689	-0.340016
C	 0.8418750244	-0.5657810513	 1.1238778691	 0.239735
C	 0.7378014907	-2.10428579	 1.2468356826	-0.100678
O	 2.1131235433	-2.4706219567	 1.4790386365	-0.263216
H	 0.6626463196	 2.0746106964	 0.0709225825	 0.115798
H	-0.6836279673	 1.817252819	-1.0445459374	 0.117119
H	-0.9676539458	 1.8081529209	 0.7021761332	 0.119413
H	-0.9774899715	-0.514032703	-0.2015045782	 0.071328
H	 1.0028101189	-1.4931298669	-1.4010705989	 0.116961
H	 1.4322940199	 0.1750425083	-1.8301346637	 0.097969
H	 2.4373911337	 0.6312687515	 0.3368651427	 0.081942
H	 3.8081555302	-1.2993727188	 1.6264083315	 0.080047
H	 1.5112045791	-0.737354823	 3.3372615024	 0.098203
H	 2.0974574472	 0.7328635765	 2.4733613773	 0.105204
H	 0.1173286733	-2.4039310506	 2.1004704939	 0.096761
H	 0.3645681283	-2.6114632643	 0.3518051865	 0.097158
