12
gdb 130008	5.54372	1.34508	1.08347	4.1015	62.63	-0.2195	-0.0093	0.2102	999.2254	0.079951	-468.79047	-468.784037	-468.783093	-468.821171	24.821	
N	 0.0965039205	 1.3205396314	 0.1449395893	-0.585178
C	-0.0715337098	-0.0296368092	 0.0429958563	 0.429477
N	-1.1703779853	-0.7145790073	 0.0204896601	-0.408025
C	-0.7046302438	-2.0372532441	 0.0076134967	 0.120561
C	 0.6467679996	-2.0212874546	 0.0119143266	 0.460512
O	 1.228607297	-3.1984068391	-0.0222313648	-0.238564
N	 0.1329892413	-4.1389972064	-0.0472170146	-0.153715
C	-0.9806164435	-3.424732656	-0.0301467506	-0.087334
O	 1.1278471554	-0.7612997797	 0.035418997	-0.239602
H	 0.938038052	 1.6870529508	-0.2748575253	 0.274944
H	-0.738313693	 1.844724062	-0.0713712906	 0.280991
H	-1.9176699803	-3.9629108778	-0.0456612002	 0.145932
