17
gdb 77437	2.41379	1.52491	1.23728	2.1545	69.91	-0.2273	0.0103	0.2376	1061.825	0.135573	-455.133711	-455.124975	-455.124031	-455.16655	33.328	
C	 0.0642325631	 1.5721547889	 0.0607886117	-0.482625
C	 0.0702736966	 0.0770402035	 0.0326113864	 0.27303
N	 0.6916393057	-0.6780418793	-1.0670374473	-0.396452
C	 1.2436846854	-1.6525065601	-0.2059759752	 0.38262
O	 1.8792970919	-2.6467281441	-0.4228957135	-0.353535
C	 0.6815586072	-0.9433207137	 1.0071306446	 0.023018
N	 1.1428122484	-0.7507956061	 2.3352942297	-0.622014
C	-0.8592957083	-0.8259652646	 0.7890945547	 0.063111
O	-1.5348435753	-0.3194978648	 1.8823541504	-0.430268
H	 1.0742538783	 1.9803413013	-0.0422488454	 0.125821
H	-0.5460718486	 1.9699119159	-0.7577991709	 0.13043
H	-0.3738387736	 1.9214553235	 0.9987619412	 0.138894
H	 0.1960572388	-0.9280138239	-1.917182146	 0.239615
H	 1.3210114951	-1.6417401637	 2.789640874	 0.258183
H	 1.9984752302	-0.2069284031	 2.3727556744	 0.25232
H	-1.4004399751	-1.6147828416	 0.2682910775	 0.104208
H	-0.8663764199	-0.2203070479	 2.5838957836	 0.293646
