19
gdb 95889	2.21939	1.46425	1.10206	1.8762	71.3	-0.2478	-0.0255	0.2223	1151.2516	0.15915	-460.173872	-460.165194	-460.164249	-460.207329	32.467	
O	-0.210124968	 1.4778681393	 0.0662811546	-0.427854
C	-0.0216017702	 0.0706308105	-0.0017618563	 0.092449
C	 0.745277393	-0.4326701408	 1.229102481	-0.100529
O	 0.8314080624	-1.8501923162	 1.2512362693	-0.242053
C	-0.4443054556	-2.4523442615	 1.3370437228	-0.090444
C	-1.3171689974	-2.0962156883	 0.1198330072	-0.121853
C	-1.4076177174	-0.5734176534	-0.0560414813	-0.222724
C	-0.8018546792	-2.8132420487	-1.1163632431	 0.165599
O	-0.5522511245	-2.2910595716	-2.1716801379	-0.242053
H	 0.6327039047	 1.9042377023	-0.1174135619	 0.285957
H	 0.5342472312	-0.210611576	-0.905821445	 0.097139
H	 1.7752922747	-0.0613898343	 1.2299870516	 0.09954
H	 0.2439733214	-0.0569122697	 2.1369032431	 0.093044
H	-0.2733703299	-3.5324059694	 1.398845106	 0.110354
H	-0.9598066952	-2.1366106949	 2.2587667292	 0.096946
H	-2.3177820344	-2.5189975888	 0.3025524311	 0.100834
H	-2.0130740818	-0.1462280128	 0.7521434054	 0.104783
H	-1.8910818126	-0.3234838045	-1.0034826392	 0.122501
H	-0.6763081311	-3.913285031	-0.9795586966	 0.078364
