22
gdb 105802	2.32672	1.43983	1.17888	1.7277	85.81	-0.2145	0.0664	0.2809	1199.4042	0.193692	-367.122886	-367.113801	-367.112857	-367.156529	35.126	
C	 0.3459881945	 1.4487432711	 1.0277933394	-0.372736
C	 0.200654299	 0.0632131008	 0.3819526599	-0.293548
C	-1.2343676896	-0.3301029946	 0.1582492705	 0.330085
C	-2.1063798962	-1.031156528	 1.1660849583	-0.062573
C	-3.3548783129	-0.5458007666	 1.8996575442	-0.443186
C	-1.8657783766	-1.6641923757	-0.1976141645	-0.112663
N	-2.5171763909	-1.1258523292	-1.4529379381	-0.133431
C	-3.4772726837	-0.0586977228	-1.1245399163	-0.254976
C	-2.0267534058	 0.2371704911	-1.0462765403	-0.096497
H	 1.3991600647	 1.7163085709	 1.1578116045	 0.111787
H	-0.1206693878	 2.2240916875	 0.4104568098	 0.118581
H	-0.1348516415	 1.4755521986	 2.0110475899	 0.117034
H	 0.7363493918	 0.0489378012	-0.5770428886	 0.100854
H	 0.6835652502	-0.6915888487	 1.0145443946	 0.096644
H	-1.4520736909	-1.5781031672	 1.8472697249	 0.091007
H	-4.2171397074	-1.200592455	 1.7339954154	 0.127854
H	-3.1600724464	-0.5382192305	 2.9769384344	 0.112767
H	-3.637995108	 0.4715230546	 1.6210023753	 0.130125
H	-1.420972247	-2.6488791243	-0.2856800133	 0.095583
H	-3.9840787827	 0.3082622922	-2.0143440887	 0.118497
H	-4.1137530499	-0.1389103822	-0.2574216447	 0.124208
H	-1.5385232129	 0.8758507867	-1.7774566767	 0.094584
