21
gdb 82764	2.69686	1.85257	1.48611	1.4411	80.45	-0.2335	0.0933	0.3268	982.6756	0.186357	-387.085984	-387.079043	-387.078098	-387.116873	29.506	
C	-0.0626336729	 1.5560709478	 0.0191940849	-0.433156
C	 0.0646358949	 0.0343130933	-0.0265903674	 0.063893
C	 0.9485755296	-0.5503656906	-1.1515396435	-0.08619
C	 2.3805099435	-0.131639614	-0.720401887	-0.259729
C	 2.1214953831	-1.0942331303	 0.4563870007	-0.056372
C	 1.2987288272	-1.9589862465	-0.5271582841	 0.147534
O	 0.2797361378	-2.6527913739	 0.1658145366	-0.284457
C	 0.1327099351	-1.9759182458	 1.4283546214	-0.089196
C	 0.8192549273	-0.6293704962	 1.1803359135	-0.072036
H	 0.8989697486	 2.0571870361	 0.1629690944	 0.117031
H	-0.5019194104	 1.9400555349	-0.9083823149	 0.113731
H	-0.7146847567	 1.8617060027	 0.8447701762	 0.112571
H	-0.9433177044	-0.388391696	-0.1013856858	 0.076403
H	 0.5982752236	-0.4340508553	-2.1780680143	 0.057021
H	 3.1498594926	-0.5186366507	-1.3941906536	 0.09871
H	 2.5796561344	 0.9206106662	-0.5129951074	 0.097422
H	 2.9176229903	-1.5040862778	 1.0784697386	 0.062879
H	 1.8359989531	-2.6393309827	-1.1884511578	 0.079464
H	-0.9339060647	-1.8842964082	 1.6600071424	 0.102537
H	 0.6167549497	-2.5595529732	 2.2258810043	 0.088513
H	 0.9380454982	-0.0021452899	 2.0653337029	 0.063426
