21
gdb 72287	2.94449	1.54892	1.28324	1.2721	81.03	-0.2396	0.0788	0.3184	1063.3461	0.185513	-387.075252	-387.067669	-387.066725	-387.106712	31.643	
O	-0.1613362744	 1.4586786228	-0.049767525	-0.463883
C	-0.0174327369	 0.0785505199	-0.0775266608	 0.380051
C	 0.604449201	-0.6698837661	-1.2560869623	-0.32174
C	-0.4228962852	-1.8347982679	-1.013120889	-0.00737
C	 0.1483418041	-3.1375641121	-0.443407536	-0.203161
C	 1.1820818922	-2.8665738559	 0.6617197703	-0.203048
C	 0.6715400929	-1.8788344844	 1.7283035907	-0.222733
C	-0.185997403	-0.7449863294	 1.1843151318	-0.082584
C	-1.1374817478	-0.9460657055	 0.0296276396	-0.144281
H	 0.5957878732	 1.832182392	 0.4141863625	 0.282042
H	 0.3766216998	-0.142908374	-2.186270102	 0.104926
H	 1.6755239932	-0.8934706351	-1.2346711711	 0.085744
H	-1.0350461132	-2.0327822972	-1.8953671992	 0.069806
H	-0.6791015053	-3.7417939454	-0.0470204391	 0.093166
H	 0.6139660004	-3.729980349	-1.2401936344	 0.09004
H	 1.4717201874	-3.8059420976	 1.1446978296	 0.088842
H	 2.0959154682	-2.472082532	 0.2044142915	 0.100759
H	 0.0518421083	-2.4263089389	 2.452309198	 0.097242
H	 1.5192362434	-1.4798474979	 2.2997193097	 0.08927
H	-0.6217714164	-0.1188760799	 1.9611420132	 0.08314
H	-2.2072252319	-0.7960809962	 0.1097006821	 0.083773
