17
gdb 69364	3.40125	1.19072	1.04924	2.5814	69.45	-0.2594	-0.037	0.2224	1148.9345	0.133569	-458.936153	-458.927586	-458.926641	-458.969242	32.763	
O	-0.2228372809	 1.4276113455	 0.0268202232	-0.463015
C	-0.0847811171	 0.0532271031	 0.0237252142	 0.408518
C	-0.3260611537	-0.7998175406	-1.1847067881	-0.349059
C	-1.2139327847	-0.9696378601	 0.0305733384	-0.16518
C	-0.4751778978	-1.8092382122	 1.0914550375	 0.34277
O	-0.1261373426	-3.1114228155	 0.7434593675	-0.484821
C	 0.6872558818	-0.7309005224	 1.0870294015	-0.377356
C	-1.2008648302	-1.799165158	 2.4149295793	 0.108744
O	-1.4144560699	-2.8138478463	 3.0344808589	-0.281283
H	 0.4744376428	 1.8053513031	-0.5202745672	 0.290126
H	-0.8153961852	-0.2825060541	-2.0037907198	 0.118131
H	 0.3608523508	-1.5882585803	-1.4781405103	 0.128768
H	-2.2862366587	-0.827460887	-0.0292748159	 0.098528
H	-0.4492872223	-3.6740592777	 1.4657120258	 0.291323
H	 1.6623097336	-1.1383178055	 0.8069723208	 0.113238
H	 0.7718591376	-0.1870354326	 2.0318395858	 0.113343
H	-1.5234505236	-0.8058088093	 2.7862522585	 0.107226
