22
gdb 59945	2.15666	1.07123	0.95289	3.9319	82.43	-0.2705	0.0415	0.312	1405.6841	0.191246	-404.37157	-404.360537	-404.359592	-404.407578	40.411	
C	-0.8872630769	 0.787659711	-2.4980702241	-0.41097
C	 0.3955266275	 0.0008631746	-2.7784032784	 0.121881
O	 1.3825342768	 0.8611877966	-3.3481810007	-0.438603
C	 1.0581219278	-0.5872574987	-1.5201606246	-0.19716
C	 0.6910321571	-2.0460895121	-1.1342941391	 0.068021
C	 1.5351508345	-2.4612076194	 0.0930366133	-0.405941
C	-0.8092228291	-2.2259734402	-0.8109403756	-0.403881
C	 1.0347404449	-2.9427751377	-2.2529594318	 0.283759
N	 1.2980806183	-3.6533522087	-3.1262809805	-0.35256
H	-1.6619536506	 0.1680721969	-2.0386793064	 0.119135
H	-0.6709580228	 1.6269857473	-1.8291185359	 0.12554
H	-1.301574172	 1.1919839015	-3.4290361986	 0.10921
H	 0.1743226398	-0.8202809478	-3.478629052	 0.087856
H	 1.0015685338	 1.2719929659	-4.131038658	 0.281231
H	 2.1373623294	-0.5465165381	-1.6924001367	 0.129832
H	 0.8489343244	 0.0501585079	-0.6528221287	 0.10001
H	 1.2863335309	-1.8177769084	 0.942566142	 0.122564
H	 1.3327174546	-3.497926501	 0.374467531	 0.132008
H	 2.6039646279	-2.3629355985	-0.1132065836	 0.136223
H	-1.4387056973	-2.0417820166	-1.6837619616	 0.137597
H	-1.0068808809	-3.2447977499	-0.4666065425	 0.132008
H	-1.100478188	-1.5317134347	-0.0166321477	 0.12224
