16
gdb 17647	3.66406	1.51574	1.29441	3.5977	60.94	-0.2441	0.0119	0.256	964.2004	0.130853	-417.061193	-417.05296	-417.052015	-417.094305	29.986	
N	 0.060609941	 1.2404342431	 0.0977021417	-0.517658
C	 0.0166682413	-0.109759898	 0.0391263407	 0.40123
O	 1.0129205138	-0.8158251349	 0.0320720228	-0.379335
C	-1.377787469	-0.7656206437	-0.049055192	-0.012582
O	-1.1870155785	-2.1445363035	-0.2107478621	-0.433749
C	-2.2135213625	-0.472828058	 1.1952812526	-0.000963
C	-3.2116271941	-1.4632217603	 1.6570064243	-0.239163
N	-1.9667686789	-1.2376959949	 2.4199266145	-0.315555
H	 0.953794856	 1.6891901588	 0.2208267478	 0.272341
H	-0.772224887	 1.7973127831	 0.175428601	 0.269095
H	-1.8971071263	-0.3450711418	-0.9265098606	 0.095703
H	-0.217741234	-2.2546573065	-0.2104536663	 0.299285
H	-2.4167497461	 0.5842996542	 1.3637600088	 0.076332
H	-4.1194055598	-1.1266607257	 2.1492890627	 0.114709
H	-3.2968825451	-2.3823873269	 1.0870453905	 0.134439
H	-1.3212638806	-1.9916943549	 2.1868050437	 0.23587
