17
gdb 34722	3.66749	1.44325	1.42237	1.1019	75.75	-0.2331	0.0491	0.2821	965.9774	0.137938	-384.65218	-384.645468	-384.644524	-384.683101	27.94	
C	-0.0632650776	-1.2405506925	-0.1243124065	-0.463691
C	-0.0418971563	-0.0411918803	-0.0373435845	 0.324019
C	-0.0134793722	 1.4073011233	 0.0545844526	-0.185564
C	-0.4412129353	 2.0038322132	 1.4024823232	-0.109166
C	 0.8170158216	 2.1184736243	 2.2655554093	-0.104603
C	 1.9789908848	 1.5855174588	 1.4358876292	-0.235255
C	 1.4125402619	 2.0512513245	 0.0797158118	 0.040598
O	 1.1073348505	 3.4325741559	 0.3040969547	-0.252484
C	 0.3189665057	 3.305687776	 1.4750503389	 0.0648
H	-0.0859894206	-2.2993064414	-0.2013269841	 0.194119
H	-0.5907463231	 1.8489623069	-0.7654683784	 0.108519
H	-1.4312327542	 1.8635391549	 1.8127036173	 0.098969
H	 0.7838643388	 2.0763755982	 3.3452980846	 0.091648
H	 2.9277474788	 2.0768795977	 1.6671784508	 0.107287
H	 2.0973663791	 0.5015482473	 1.4892765616	 0.12198
H	 2.0243884118	 1.9386960725	-0.8116024922	 0.09186
H	-0.0520976435	 4.2382402009	 1.8747393314	 0.106964
