21
gdb 55915	4.01945	0.91015	0.8273	2.3504	82.41	-0.2396	-0.0079	0.2317	1459.8944	0.18115	-387.084465	-387.07516	-387.074215	-387.119977	34.277	
C	-0.0453553488	 1.5268346031	 0.1291084263	-0.472253
C	 0.0665629886	 0.0116947477	 0.1617126749	 0.384306
O	 1.1237949535	-0.5440648825	 0.3588271068	-0.293381
C	-1.2227893853	-0.7678626388	-0.0693459172	-0.33096
C	-1.0527427996	-2.2758290311	 0.0601062304	 0.043656
C	-0.803980436	-2.9066262296	 1.4742175547	-0.242255
C	-2.0072385459	-3.8321397784	 1.253685375	-0.036095
C	-3.249168958	-3.0149651918	 1.045974555	-0.27613
C	-2.2873781467	-3.1756287716	-0.1011620149	-0.08123
H	 0.9424989954	 1.9748501947	 0.2429487455	 0.141327
H	-0.4997392424	 1.8612454765	-0.8100500024	 0.135092
H	-0.6990892233	 1.8736288217	 0.9377194938	 0.138314
H	-1.9852552198	-0.385828834	 0.6230208518	 0.113397
H	-1.5949019571	-0.5059896897	-1.0713091856	 0.118139
H	-0.2550861003	-2.5959835171	-0.6140540411	 0.087881
H	 0.1563141409	-3.4203594358	 1.5321779587	 0.112427
H	-0.8842225379	-2.2288138717	 2.3315573538	 0.087733
H	-2.0514682513	-4.8815062089	 1.5184012224	 0.083646
H	-4.1712911106	-3.579380367	 0.9484979103	 0.108957
H	-3.3721330731	-2.060792675	 1.554474631	 0.098136
H	-2.5979791821	-3.6388428508	-1.0308374891	 0.079294
