23
gdb 118953	2.94052	0.90585	0.84017	2.0916	82.1	-0.2557	0.0636	0.3194	1509.556	0.203538	-425.41396	-425.403291	-425.402347	-425.449695	39.372	
C	-0.0660363248	 1.5473413439	-0.0527839873	-0.410624
C	 0.0649593272	 0.0340718732	 0.0063489875	 0.023638
C	 1.0990125846	-0.683481935	-0.9056764644	-0.237603
C	 1.4009914972	-1.6573105973	 0.2633157011	-0.272564
C	 0.7552958091	-0.6281434347	 1.2416441899	 0.37992
O	 1.7285226441	 0.2928005839	 1.7349188214	-0.484755
C	-0.1466516602	-1.1388205697	 2.361731143	-0.225645
C	 0.5910270163	-1.9229584322	 3.441063237	-0.091257
O	-0.3692284189	-2.3724242026	 4.3848929156	-0.41746
H	 0.8970922126	 2.0268727946	 0.1372471899	 0.13109
H	-0.4213554157	 1.8627508863	-1.0401512941	 0.106561
H	-0.7794483195	 1.9191334083	 0.690874306	 0.112302
H	-0.9176584241	-0.4340085039	-0.1237842441	 0.067545
H	 0.7343297115	-1.114282745	-1.8408582349	 0.092289
H	 1.9534127556	-0.0374538151	-1.122890454	 0.106478
H	 0.8167598045	-2.5799542663	 0.19706493	 0.099101
H	 2.447150494	-1.9174538013	 0.4514497856	 0.085122
H	 2.4045880731	-0.206934168	 2.2029027399	 0.277592
H	-0.6531389285	-0.2877204135	 2.831845684	 0.110143
H	-0.9231806401	-1.7858229889	 1.9379079938	 0.099818
H	 1.1282158733	-2.7728536286	 2.9872365299	 0.085109
H	 1.342077429	-1.2762015798	 3.9230128735	 0.078676
H	 0.0929765395	-2.8447914581	 5.0834366008	 0.284524
