13
gdb 2653	6.67807	1.25977	1.1124	3.2336	58.72	-0.27	-0.0036	0.2665	1016.6451	0.100151	-340.631134	-340.623369	-340.622425	-340.664052	25.46	
C	-0.3772647821	 0.9290705889	-0.110666474	-0.318882
N	 0.7762369809	 0.0689036823	 0.0550377876	-0.191073
C	 0.7280643737	-0.8082835054	 0.9465942122	 0.136285
O	 1.7980566519	-1.6304609943	 1.1458833351	-0.191178
C	 1.6447601689	-2.6102366706	 2.1538750565	-0.211261
C	 0.7654175824	-3.7191497244	 1.7467224604	 0.259851
N	 0.0667270356	-4.5836752148	 1.4333029349	-0.286622
H	-0.0737706681	 1.9732248044	 0.0216349403	 0.135163
H	-0.7557549729	 0.8335332924	-1.1339679506	 0.13865
H	-1.2017378448	 0.7135100059	 0.5873468063	 0.103019
H	-0.11997111	-0.9943385862	 1.6227617432	 0.090767
H	 2.6451010992	-3.0016668602	 2.3537915911	 0.177419
H	 1.2589862154	-2.1776407279	 3.0865904571	 0.157862
