16
gdb 35925	3.16864	1.42976	1.09861	5.8516	68.84	-0.2823	0.0106	0.2928	1073.7097	0.125478	-437.872823	-437.86536	-437.864416	-437.90503	28.138	
N	-0.016293463	-1.1157212756	-0.1972009545	-0.308943
C	-0.0212975202	 0.0321832633	-0.0763425338	 0.281367
C	-0.0000700075	 1.5004681314	 0.015376238	-0.042886
O	-0.7238482107	 1.8749262621	 1.1657573822	-0.249612
C	-0.7011470249	 3.2820821268	 1.3759674921	-0.079063
C	 0.6930186682	 3.7695130008	 1.7790397057	-0.240216
C	 1.7619320869	 3.1666504103	 0.8846550361	 0.039057
O	 2.1692391086	 1.829314842	 1.2073890318	-0.229989
C	 1.4343093339	 2.024803127	 0.0140565155	 0.019402
H	-0.4907449408	 1.8954147299	-0.8933303158	 0.117763
H	-1.0347178913	 3.7982477789	 0.4608111512	 0.097521
H	-1.435829006	 3.4768302287	 2.1602301933	 0.125766
H	 0.7287065225	 4.8625660742	 1.7198541877	 0.110295
H	 0.9092432735	 3.4883240633	 2.8147035081	 0.136815
H	 2.5869354715	 3.8148869227	 0.592668469	 0.106844
H	 1.9781053394	 1.8576950441	-0.9157398466	 0.115879
