22
gdb 61635	2.61455	0.91668	0.82695	1.4238	83.36	-0.225	-0.0231	0.2019	1514.4325	0.191505	-404.327196	-404.316805	-404.315861	-404.363614	37.226	
C	 0.0480488105	 1.5369931854	-0.3194425255	-0.408847
C	 0.024845248	 0.0400085948	 0.0424093213	-0.073914
C	 0.6132478724	-0.282280452	 1.4256195995	-0.223915
C	 2.1060634274	-0.0444803122	 1.5311166288	 0.010794
C	 2.9367864195	-0.7972646581	 2.5148047531	-0.262915
N	 3.1223174245	-1.0052767159	 1.0834839276	-0.080282
C	 2.729827494	-2.2964132278	 0.5388921159	-0.316581
C	-1.3919229427	-0.4867236644	-0.1011202882	 0.153346
O	-1.9874859254	-1.1244917427	 0.7288119669	-0.245258
H	 1.0730375913	 1.910165117	-0.3810241904	 0.135919
H	-0.4278231653	 1.7172400991	-1.2891473095	 0.12133
H	-0.4846244806	 2.128719156	 0.4328729521	 0.12849
H	 0.6015338497	-0.4906776587	-0.7327883689	 0.105115
H	 0.1078664989	 0.3394971011	 2.1758642695	 0.108376
H	 0.3589247974	-1.3124624431	 1.6857039351	 0.118164
H	 2.4056271268	 0.982821574	 1.3250863979	 0.087694
H	 3.7565150814	-0.3170016362	 3.0435165987	 0.111991
H	 2.4319342621	-1.581450165	 3.0796927617	 0.105429
H	 1.861062973	-2.7639472503	 1.0275460307	 0.105645
H	 2.5100351284	-2.1927465298	-0.5291861345	 0.118168
H	 3.5755302938	-2.984468502	 0.6394093464	 0.12564
H	-1.8707278852	-0.2340447292	-1.0769468479	 0.07561
