21
gdb 40824	3.77152	1.05363	0.88215	0.3251	79.45	-0.2311	0.0925	0.3235	1354.87	0.184085	-424.208528	-424.200232	-424.199288	-424.241763	32.118	
C	-0.16921715	 1.4087057105	-0.1391481325	-0.273191
C	 1.2532061364	 0.9872614283	 0.1241038852	-0.267943
C	 0.1655830392	-0.0513067233	 0.0516564069	 0.012864
C	-0.277206407	-0.7645877176	 1.2995536949	 0.100403
C	-1.6786877811	-1.367620677	 1.1654847138	-0.091565
O	-2.034774901	-2.1097557591	 2.320826502	-0.252608
C	-1.090004878	-3.1361557869	 2.577142948	-0.077892
C	 0.3062556498	-2.5446843189	 2.7298747361	-0.078303
O	 0.6639313587	-1.8020965306	 1.5757264981	-0.26798
H	-0.7025599086	 1.9169554755	 0.6577350186	 0.113255
H	-0.4365581797	 1.7458921661	-1.134151046	 0.113563
H	 1.966695766	 1.0362837198	-0.6905040368	 0.113886
H	 1.676401742	 1.2030157023	 1.0991942233	 0.116588
H	 0.1524170136	-0.6746992061	-0.838224478	 0.087095
H	-0.2890408356	-0.0562893549	 2.1473454571	 0.06174
H	-2.4290491131	-0.5801054894	 1.052600005	 0.11034
H	-1.7077978566	-2.013694836	 0.2715509793	 0.086724
H	-1.4080942707	-3.6391239344	 3.4955945968	 0.105677
H	-1.0904007152	-3.8697596707	 1.7537738718	 0.091172
H	 0.3329085763	-1.8986496593	 3.6232056516	 0.090956
H	 1.0572791045	-3.3325516283	 2.8459973949	 0.105215
