16
gdb 74310	3.50404	1.18507	0.89534	5.8555	75.61	-0.2338	-0.0338	0.2	1251.2733	0.123193	-437.95577	-437.947287	-437.946343	-437.989071	30.642	
C	-0.026601511	 1.4965623514	 0.0264305443	-0.487788
C	 0.0006503941	 0.0050132029	 0.0013073416	 0.228408
C	-0.0217633939	-0.7927718739	-1.0683176923	-0.091344
N	 0.0165623367	-2.1667817371	-0.7260267467	-0.141824
C	 0.003674352	-3.1938710724	-1.6650816842	 0.166177
O	 0.0345797636	-4.3697629	-1.4256044083	-0.272929
C	 0.0683334023	-2.2963072759	 0.6960328184	 0.433523
O	 0.110486077	-3.321798678	 1.3117942678	-0.30994
C	 0.0605867594	-0.8606743812	 1.2343689176	-0.450326
H	 0.8641866171	 1.9043555913	 0.5204397006	 0.134244
H	-0.0713327196	 1.9109904301	-0.9844888275	 0.130243
H	-0.893740318	 1.8711161016	 0.5846379243	 0.134214
H	-0.0635884428	-0.5222125285	-2.1146985679	 0.136895
H	-0.0400321514	-2.7794491298	-2.6929168751	 0.084751
H	 0.9578160061	-0.6957927927	 1.8431952496	 0.152886
H	-0.7969237115	-0.7287427579	 1.9052896778	 0.152808
