14
gdb 19344	4.27418	1.84051	1.53786	2.8035	62.61	-0.2454	-0.0255	0.2198	810.4715	0.106127	-382.470205	-382.463734	-382.462789	-382.500843	24.856	
O	-0.1149103303	 0.0128072119	 0.0002638251	-0.281558
C	-0.0014613058	 1.2183680833	-0.0312767497	 0.060874
C	 1.2730803595	 1.9234285544	 0.0286126183	 0.220239
C	 1.4194497474	 3.3975703269	 0.3642749733	-0.331831
C	 1.775834919	 2.976030406	-1.0133237096	-0.137617
C	 3.1245683726	 2.1957922689	-1.0620580665	 0.028661
O	 3.6936204165	 2.1505182593	 0.250920489	-0.23941
C	 2.6564256298	 1.2198134045	-0.0850606647	-0.039889
H	-0.8912209314	 1.8833894882	-0.123688973	 0.065841
H	 0.4787730634	 3.9310929866	 0.4594218883	 0.129562
H	 2.194524718	 3.6828323182	 1.0639625952	 0.154052
H	 1.2338050996	 3.2898027195	-1.895328926	 0.118228
H	 3.7896020104	 2.1081905382	-1.911468488	 0.121002
H	 2.8422074213	 0.1615316741	 0.0360692483	 0.131845
