14
gdb 26782	3.60391	1.16687	0.88708	6.7833	77.73	-0.22	-0.0459	0.174	1230.3947	0.101066	-432.91458	-432.906068	-432.905124	-432.948166	30.148	
C	-0.0809543574	 1.5432404451	 0.0540904156	-0.504381
C	-0.0428042437	 0.0521070423	 0.0006690339	 0.190571
C	 0.03792714	-0.7815933617	-1.0891191444	 0.298864
N	 0.0450660465	-0.5873704485	-2.4487866491	-0.601007
O	 0.0348585884	-2.0641905044	-0.6619552646	-0.188325
C	-0.0498640272	-1.9623385705	 0.7071575677	 0.261919
N	-0.0997762642	-0.7373394113	 1.1306953609	-0.325066
C	-0.058115368	-3.1608768545	 1.4528452686	 0.250374
N	-0.0642849035	-4.1484068938	 2.0585659446	-0.3364
H	 0.3423129792	 1.9876877313	-0.8528896512	 0.113308
H	-1.103189033	 1.9240061166	 0.1620479413	 0.145691
H	 0.4975942145	 1.9053387667	 0.9079451943	 0.15326
H	 0.3145193457	 0.3434989665	-2.731769927	 0.268749
H	 0.5293833827	-1.3042789038	-2.9719932306	 0.272442
