15
gdb 33486	2.23542	1.72451	1.1885	4.9708	73.45	-0.3054	-0.0118	0.2937	1036.9314	0.113218	-379.6595	-379.651741	-379.650796	-379.691863	29.017	
N	 0.0762973536	-1.1734843527	-0.0477904634	-0.331216
C	 0.0290692083	-0.0191858147	-0.0499539959	 0.275506
C	 0.0123177112	 1.4441225852	 0.0091651003	-0.007445
C	-0.2271465469	 2.0841880851	 1.4479005644	-0.279881
C	 1.1453893671	 2.7539730539	 1.3600900599	-0.028474
C	 2.2149609064	 1.7189768503	 1.1734490871	-0.29955
C	 1.4009778111	 2.1409694428	-0.0147584328	-0.066443
C	-0.9047225391	 1.9911440767	-0.9885738255	 0.26045
N	-1.6151575869	 2.459255975	-1.7698308533	-0.322394
H	-1.0673220417	 2.7773115142	 1.4217910861	 0.150958
H	-0.3723123193	 1.3583736887	 2.2513203659	 0.136092
H	 1.3590002449	 3.7597473283	 1.6956722935	 0.1121
H	 3.2327986373	 2.0936458039	 1.167826489	 0.1352
H	 2.107439175	 0.7218688425	 1.5925277328	 0.138835
H	 1.8245795391	 2.5679875407	-0.9134414581	 0.126263
