23
gdb 92829	2.2095	1.60257	1.4522	0.3699	91.25	-0.22	0.025	0.2451	1106.1442	0.206597	-351.149107	-351.140408	-351.139464	-351.181687	35.239	
C	-0.1308067457	 1.5141739391	-0.072797602	-0.4
C	 0.015651656	-0.0090859441	-0.0353762827	-0.06023
C	 0.9890266581	-0.5083761061	-1.1649177231	-0.255354
C	 2.3374316701	-0.6286156087	-0.4608113983	-0.247391
C	 2.1350306677	-0.7175063578	 0.84842363	 0.299922
C	 2.6717465659	-0.333797822	 2.2071616616	-0.331917
C	 1.2518702501	 0.3031750683	 2.4535295071	-0.28762
C	 0.6912921847	-0.5640110597	 1.2569504515	 0.311558
C	 0.0064693662	-1.8378619225	 1.7643758169	-0.458506
H	 0.8444503462	 2.0100510248	-0.0138715915	 0.116841
H	-0.6044290447	 1.8309417971	-1.0080768388	 0.109069
H	-0.7467196531	 1.8812896213	 0.7548875797	 0.110321
H	-0.978660749	-0.4514572723	-0.1652714142	 0.058787
H	 0.6557321533	-1.4629121219	-1.5955000631	 0.099072
H	 1.0283095346	 0.2034547431	-1.9983676475	 0.094816
H	 3.2867728233	-0.5542483992	-0.979323456	 0.086722
H	 2.8536692781	-1.1848876207	 2.8715112364	 0.110721
H	 3.5427612881	 0.3250329805	 2.239284233	 0.107995
H	 0.8000412062	 0.1270792407	 3.4337732562	 0.09269
H	 1.2539948542	 1.3738837792	 2.2442365041	 0.106465
H	-0.9794145235	-1.6044432298	 2.183779956	 0.111017
H	-0.1359779664	-2.5597007912	 0.9529758287	 0.115625
H	 0.5923880197	-2.3300274882	 2.5480220361	 0.109394
