17
gdb 7681	4.19938	1.6003	1.52648	2.8661	70.39	-0.2548	0.0193	0.274	909.0235	0.141198	-363.840774	-363.833067	-363.832123	-363.8723	29.55	
C	-0.0013675286	 1.5388132178	 0.0871654349	-0.458821
C	 0.053832962	 0.0258900994	 0.0525301802	 0.284416
C	-1.1755833814	-0.6431904902	-0.538380861	-0.456869
C	 1.3270154386	-0.7190322015	-0.1751175399	 0.039744
O	 2.4628144862	 0.0043037703	 0.3648121799	-0.273231
C	 1.9408283234	-0.1410202877	 1.6550954272	 0.440294
N	 2.4413106205	 0.1560934365	 2.7644651842	-0.55812
C	 0.6857161342	-0.8020059908	 1.1961421852	-0.245301
H	 0.9324198016	 1.9716397476	 0.4488609018	 0.142834
H	-0.1891604958	 1.9332760909	-0.9178139809	 0.118321
H	-0.8141407256	 1.8786607477	 0.7374145805	 0.123852
H	-1.3511864774	-0.2876573024	-1.5592648972	 0.126425
H	-1.070125292	-1.7322993189	-0.5727733226	 0.11993
H	-2.066569897	-0.4120210902	 0.0549679018	 0.130447
H	 1.5351334369	-1.4722441014	-0.9239952625	 0.119316
H	 3.3654703503	 0.5761341971	 2.6513486745	 0.229714
H	 0.1597854242	-1.6002909341	 1.6995029038	 0.117048
