19
gdb 125172	3.06691	1.55391	1.06349	2.942	82.66	-0.2188	0.0332	0.252	1141.5681	0.162759	-382.114258	-382.106248	-382.105304	-382.147879	29.691	
C	-0.0934061995	 1.5505048885	 0.0703024822	-0.508523
C	-0.0623019572	 0.0555256432	-0.027585294	 0.005176
C	 0.0958405562	-0.7429090287	-1.1487916099	 0.358659
C	 0.3381475442	-0.7128028876	-2.6266463221	-0.358663
C	 0.0817260393	-2.1986047483	-3.0325968413	-0.214081
C	 0.2807830415	-3.031393518	-1.7400481443	-0.16712
N	 0.0537582689	-2.0261110659	-0.7189464062	 0.052828
N	-0.1082361615	-2.1570849951	 0.6031166196	-0.309492
C	-0.1855851827	-0.8887981162	 1.022332005	-0.060529
H	 0.88985435	 2.0000002785	-0.1150786715	 0.124299
H	-0.7903510568	 1.9951673062	-0.6490667458	 0.121771
H	-0.409695986	 1.864941398	 1.0690861974	 0.126326
H	-0.3204001428	-0.0243049306	-3.1640054231	 0.120397
H	 1.3680744159	-0.4093495759	-2.8541516487	 0.120382
H	-0.9506464136	-2.3072193768	-3.3760121621	 0.122151
H	 0.7356344804	-2.5327061957	-3.8402952462	 0.11208
H	-0.428510677	-3.8566671644	-1.6425079266	 0.130611
H	 1.2951814106	-3.4404428989	-1.6563939769	 0.121661
H	-0.3389927001	-0.6830594123	 2.0731340246	 0.102067
