20
gdb 111838	2.92066	1.22885	1.11759	2.0402	80.14	-0.2156	0.0082	0.2238	1184.5086	0.17263	-403.116963	-403.108588	-403.107644	-403.150193	32.262	
O	 0.1757447353	 0.8645025532	-1.3198851829	-0.416367
C	 0.0173479583	 0.2342431924	-0.0551598367	-0.092318
C	-1.3262141381	-0.459626218	 0.0320849923	-0.041769
C	-1.4801843187	-1.9335814513	-0.2130186907	-0.079923
C	-0.3271465694	-2.8480468698	-0.4030591298	-0.071309
C	 0.2707956529	-3.41489086	 0.6451842301	-0.067911
C	-0.1768222458	-3.1140400455	 2.0539541764	-0.247893
C	-0.7441786788	-1.6916310727	 2.1790276289	-0.160919
N	-1.719123648	-1.366209688	 1.1176619695	-0.12489
H	 0.1521436311	 0.172915605	-1.9893271843	 0.28235
H	 0.8400757569	-0.4628999002	 0.1490688565	 0.096588
H	 0.0741137301	 1.0418198176	 0.6837619859	 0.114421
H	-2.1375865141	 0.1885308777	-0.2986465404	 0.093985
H	-2.3926430891	-2.2548341321	-0.7188593834	 0.095783
H	-0.0293104671	-3.0889934834	-1.4208611896	 0.087383
H	 1.0786996092	-4.1272301951	 0.502864698	 0.093124
H	-0.9350024666	-3.8492551985	 2.3589351229	 0.12195
H	 0.6541899486	-3.230026033	 2.7580842069	 0.106837
H	-1.2620932687	-1.5822084052	 3.1386033816	 0.105209
H	 0.0904597721	-0.9816457428	 2.1929727789	 0.10567
