20
gdb 14021	5.05952	1.18322	1.10212	1.7134	75.88	-0.2536	0.0789	0.3324	1173.5121	0.176265	-348.984993	-348.976564	-348.97562	-349.018174	31.397	
C	 0.1144011686	 1.4325332517	 0.1408836008	-0.373897
C	-0.3509057739	 0.0104874191	-0.1958882105	-0.206857
C	 0.3472296052	-0.5434722937	-1.4131191609	-0.033394
O	 1.7286976725	-0.9218533971	-1.244407589	-0.29797
C	 0.7858255268	-1.9371244361	-1.5381677603	 0.452647
C	 0.4666290693	-3.1408088188	-0.6446388822	-0.307587
C	 0.1124354948	-3.9271606869	-1.9433948274	-0.211858
C	 0.8164904421	-2.8220299029	-2.7875367926	-0.310935
H	 1.1919679377	 1.4467448411	 0.3287493782	 0.134932
H	-0.0914429061	 2.1231790072	-0.6842247509	 0.11435
H	-0.3937867955	 1.8142393544	 1.0312687259	 0.112136
H	-0.1649705548	-0.6533898613	 0.6550962998	 0.103941
H	-1.4337812978	 0.0022884392	-0.3787285766	 0.096894
H	 0.1624518621	 0.0054514324	-2.340791454	 0.083004
H	 1.3691727308	-3.5229060585	-0.1584035831	 0.113957
H	-0.3160377821	-3.0244843182	 0.1089989849	 0.10356
H	 0.5136983744	-4.9381999081	-2.0281257821	 0.104236
H	-0.9644554526	-3.9618833163	-2.1234369628	 0.106465
H	 0.3056576445	-2.4560966541	-3.6816337498	 0.102423
H	 1.842867534	-3.0927877829	-3.0531552374	 0.113956
