14
gdb 131942	4.59563	1.10513	0.89595	7.8182	69.42	-0.2608	-0.0673	0.1934	1216.0729	0.10172	-469.959213	-469.95141	-469.950466	-469.992645	27.189	
C	 0.0023158721	 1.4432293661	 0.0232478214	-0.342392
N	-0.0073172223	-0.0101812346	 0.0403389745	 0.002538
C	-0.108035578	-0.8410052107	-1.0475050972	 0.014706
N	-0.0888351985	-2.1081778265	-0.7138892897	-0.29022
C	 0.0287998109	-2.0908908126	 0.6405962922	 0.347607
C	 0.0821430664	-0.813294478	 1.1427845298	-0.148983
N	 0.0886477247	-3.2944450036	 1.4365359604	 0.353961
O	 0.0310712978	-4.3705690374	 0.8657556511	-0.342769
O	 0.1951843315	-3.1309473296	 2.6520925175	-0.388889
H	 0.9357423971	 1.8270966699	 0.443139839	 0.159997
H	-0.0843397497	 1.7822698091	-1.0100946322	 0.156871
H	-0.8393520494	 1.8406793545	 0.5964649505	 0.159997
H	-0.1921240187	-0.4512398772	-2.0513033111	 0.146632
H	 0.1721205163	-0.4378950094	 2.1466564837	 0.170943
