19
gdb 107360	3.41879	1.15577	0.9764	4.383	74.9	-0.2678	0.0106	0.2784	1246.5032	0.159263	-423.065665	-423.057318	-423.056374	-423.098809	31.893	
C	 0.0511310483	 1.5411908482	 0.4131636946	-0.376159
C	 0.034586482	 0.0696957177	-0.0192988676	-0.280985
C	-1.3614516547	-0.4952799156	-0.1685204057	 0.3296
C	-2.1031902335	-1.0276629463	 1.0502243007	-0.358668
C	-1.6645823055	-1.9647419187	-0.037610288	 0.044081
O	-2.6537000633	-2.3454642249	-0.9739668501	-0.218461
C	-3.0512705355	-1.2712576911	-1.7232137516	 0.427635
O	-3.9092860629	-1.3540226503	-2.5497114682	-0.327064
C	-2.2440110762	-0.0337037205	-1.313757661	-0.449736
H	 1.0767303208	 1.9055549095	 0.5234724207	 0.117679
H	-0.4504536237	 2.1785775049	-0.3225384444	 0.122313
H	-0.4601333129	 1.6751568875	 1.3720768697	 0.121664
H	 0.570646556	-0.040994134	-0.9713717256	 0.102905
H	 0.5865335818	-0.531853135	 0.7136361415	 0.099308
H	-1.5538023757	-1.0559595709	 1.9854140129	 0.121733
H	-3.1678955351	-0.8415750644	 1.1530593308	 0.126076
H	-0.9191257966	-2.7353050841	 0.1147027721	 0.114937
H	-2.9363020771	 0.7766019921	-1.0690811894	 0.143851
H	-1.6549947064	 0.2947577259	-2.1774331213	 0.139292
