23
gdb 103544	2.10846	1.44022	1.17489	1.323	86.46	-0.2421	0.0221	0.2641	1227.7215	0.204664	-388.309346	-388.299418	-388.298474	-388.34365	38.182	
C	-0.3038898314	 1.5806598725	 0.1410435412	-0.414091
C	-0.2751811417	 0.0518431198	 0.257519615	-0.199895
C	 0.7862023812	-0.5004389089	 1.2334148551	 0.347617
O	 2.1011217573	-0.2035774649	 0.7485474478	-0.486742
C	 0.5537131117	-0.0116264658	 2.6549270584	-0.123017
C	 0.052173105	-0.9628469846	 3.438719553	-0.075994
C	-0.1212985723	-2.2650827009	 2.6963839471	-0.276953
C	 0.7269764696	-2.0482677282	 1.4197907784	 0.015789
C	 0.3032800983	-2.8792344511	 0.2114254245	-0.425835
H	 0.6487799147	 1.9830231233	-0.2242412571	 0.10596
H	-1.0705801369	 1.8985587163	-0.5716520344	 0.1195
H	-0.5269201956	 2.058151854	 1.1002356008	 0.121749
H	-1.2632110784	-0.3001712961	 0.5777816316	 0.097861
H	-0.0862429735	-0.38040604	-0.7311421804	 0.102886
H	 2.17217672	 0.7489567825	 0.6304351499	 0.273873
H	 0.7544321837	 1.0118859741	 2.9541077701	 0.085519
H	-0.2258501363	-0.8363805097	 4.4798585599	 0.091481
H	 0.2066154045	-3.1378937329	 3.2727732323	 0.101575
H	-1.1796049632	-2.4409534251	 2.4510023096	 0.101207
H	 1.7600073838	-2.3140051737	 1.6711878684	 0.092671
H	-0.7368426107	-2.6928003384	-0.0759666476	 0.111292
H	 0.9396831119	-2.6680773466	-0.6537231622	 0.124779
H	 0.3929548783	-3.9477223356	 0.4347209188	 0.108766
