21
gdb 63989	2.90397	1.39895	1.23567	1.7732	77.02	-0.2399	0.0687	0.3085	1106.4932	0.182969	-424.22486	-424.216445	-424.215501	-424.257569	33.672	
C	 0.3081026291	 1.5439412667	-0.0960518524	-0.45697
C	 0.0976729407	 0.0389295368	-0.0176860244	 0.402428
O	-1.2847923357	-0.2792593716	-0.1526380498	-0.482334
C	 1.000676481	-0.8589762272	-0.9245638506	-0.314983
C	 1.3746347261	-1.7273339197	 0.3124045553	 0.119614
O	 2.7364936771	-1.7211257951	 0.6970461981	-0.255724
C	 2.9991019393	-0.4854497228	 1.3513838392	-0.090127
C	 1.7087469584	-0.1353408008	 2.1144871272	-0.250654
C	 0.6002869166	-0.7397409711	 1.2398601086	-0.061887
H	 1.3583700766	 1.8210247129	 0.0345495449	 0.116445
H	-0.0058294648	 1.9171470168	-1.0792328939	 0.105478
H	-0.286243429	 2.0568678892	 0.6664981766	 0.124895
H	-1.5790796148	 0.0486756244	-1.009796735	 0.272237
H	 0.4541877466	-1.3785771777	-1.7153193046	 0.095956
H	 1.8647654817	-0.3503610339	-1.360944858	 0.099962
H	 1.046106542	-2.766732903	 0.2720165033	 0.081693
H	 3.8694362079	-0.6277428412	 1.9975141193	 0.108724
H	 3.2481445927	 0.2995448258	 0.6193443306	 0.088902
H	 1.7078152253	-0.6321408458	 3.0890292162	 0.109514
H	 1.6009763845	 0.9383140937	 2.2890190585	 0.103674
H	-0.2304040714	-1.1405536663	 1.8202335009	 0.083158
