15
gdb 9591	3.81765	1.28805	1.19542	2.7937	70.49	-0.2481	-0.0389	0.2092	1036.9637	0.115927	-362.611795	-362.603358	-362.602414	-362.644685	30.452	
C	-0.1733277872	 1.570212471	 0.0437994374	-0.454927
C	 0.0218040059	 0.0648084677	-0.0090320826	 0.128033
N	 1.3349823414	-0.408230043	-0.4661224069	-0.358039
C	 0.9658332957	-0.6657797149	 0.9347361264	-0.154433
C	 1.7556787095	 0.0597185922	 1.9716994315	 0.168981
O	 1.8052763419	-0.2859148895	 3.1251481347	-0.252849
C	-1.1422109136	-0.6859218285	-0.4125170925	 0.285548
C	-2.1151586809	-1.292976453	-0.7751115599	-0.437835
H	 0.7675465196	 2.0754750384	 0.2667714913	 0.133626
H	-0.5332083905	 1.9291727918	-0.9246235441	 0.137929
H	-0.9133900056	 1.8371384379	 0.8033726993	 0.138181
H	 1.2390738919	-1.2593737714	-1.0140525191	 0.251078
H	 0.6535329793	-1.6625270974	 1.2334622495	 0.118385
H	 2.3104044467	 0.9455679582	 1.595785117	 0.090238
H	-2.975030594	-1.8328149197	-1.0874123418	 0.206082
