18
gdb 22788	2.01625	1.41796	1.06746	2.0315	73.22	-0.2467	-0.0172	0.2295	1202.773	0.145295	-476.14218	-476.132668	-476.131724	-476.176858	34.474	
C	-0.3093635106	 1.2977456909	-0.2741870653	-0.244711
O	 0.2099377986	 0.0111922333	 0.0177397701	-0.250816
C	 0.8135230905	-0.614151325	-1.1071040148	 0.009217
C	 1.1844269649	-2.0672016619	-0.7091136125	-0.277304
C	-0.1711939989	-2.5687369678	-1.3104574238	 0.054172
O	-1.1962251736	-2.7788263064	-0.3651376025	-0.429167
C	-0.2316899969	-1.2190854964	-2.0357498836	 0.381923
N	-0.7805149319	-0.7262858333	-3.0659892954	-0.250497
O	-1.6475453749	-1.6392204991	-3.6785951084	-0.376978
H	 0.4909623631	 1.9853127476	-0.5848828244	 0.111531
H	-1.0647515106	 1.2599329431	-1.0696809527	 0.130675
H	-0.7661077007	 1.6732248773	 0.6441747668	 0.129321
H	 1.5831900976	 0.0310358169	-1.5492802436	 0.079276
H	 2.0508910154	-2.4362845363	-1.2625376832	 0.114865
H	 1.3206580917	-2.2338525737	 0.3611393828	 0.116863
H	-0.1408483975	-3.4559739328	-1.9451310485	 0.106751
H	-1.2365787275	-1.9850732348	 0.1839267524	 0.285675
H	-1.9632532989	-1.1434031717	-4.4423476433	 0.309202
