21
gdb 93862	2.17579	1.73848	1.11493	1.556	77.71	-0.2464	0.0745	0.3209	1155.1614	0.181901	-424.215715	-424.206659	-424.205715	-424.24979	34.335	
C	-0.5924397817	 1.4180550376	 0.0258492526	-0.430604
C	 0.1460778717	 0.0855043383	-0.0157433876	-0.067886
C	 1.2587133961	-0.019231537	-1.0634285374	-0.080883
O	 2.1160187353	-1.0801133614	-0.6439610479	-0.283408
C	 1.9369189413	-1.3513761078	 0.7513000606	 0.088024
C	 3.2849475369	-1.37301135	 1.4550999221	-0.413485
C	 0.9206287555	-0.3139060112	 1.2357818956	 0.385206
C	 1.1089164552	 0.5467389674	 2.4110946087	-0.249012
O	 0.2153478568	-0.5774183901	 2.4408707398	-0.289776
H	 0.1005404507	 2.2586400635	 0.1390044956	 0.11773
H	-1.1615769747	 1.5771494707	-0.8953928017	 0.119548
H	-1.3002461676	 1.4414548229	 0.8605594503	 0.133248
H	-0.5785547325	-0.7195334272	-0.1999896247	 0.093455
H	 0.8867738277	-0.250764766	-2.0668005271	 0.106666
H	 1.822196785	 0.926543286	-1.1217943739	 0.088023
H	 1.4661401883	-2.3418956924	 0.8539462579	 0.085804
H	 3.7821793536	-0.4011082129	 1.3831710005	 0.116517
H	 3.1615401809	-1.6342593529	 2.5113012502	 0.123282
H	 3.9316126118	-2.1238588223	 0.9931583588	 0.127104
H	 2.0014167021	 0.4463481048	 3.0247349409	 0.116148
H	 0.6271722477	 1.5212634298	 2.4559895068	 0.114297
