18
gdb 55064	3.04539	0.95929	0.88315	3.53	76.75	-0.2408	-0.0296	0.2112	1381.6246	0.146174	-439.12361	-439.114281	-439.113337	-439.158773	33.389	
C	-0.0632650931	 1.4553636329	 0.1496449026	-0.484423
C	 0.0258295033	-0.0400264328	-0.0671938653	 0.405918
O	 1.0978194654	-0.598849059	-0.2335848751	-0.353049
C	-1.2549822402	-0.7927612552	-0.0487821282	-0.165206
C	-1.3583283307	-2.0446798999	-0.9221694256	-0.318506
C	-1.2547812076	-2.2169961223	 0.5468133016	 0.068092
N	-0.0755583518	-2.7442548803	 1.1448123898	-0.282559
C	-0.1087626664	-3.4140396882	 2.3289935001	 0.15071
O	-1.1141169353	-3.7007249582	 2.9455904823	-0.328162
H	 0.9335144623	 1.8965996761	 0.128724671	 0.144835
H	-0.6891723406	 1.9136629481	-0.6245923054	 0.144847
H	-0.543656454	 1.6674651779	 1.1117823001	 0.14809
H	-2.1560639897	-0.2083815121	 0.0995752744	 0.098774
H	-2.3082534209	-2.2342425444	-1.4084584691	 0.1309
H	-0.4754081756	-2.2655343917	-1.5126013488	 0.140395
H	-2.1350322803	-2.497101491	 1.1111607443	 0.147355
H	 0.8075397641	-2.4482311482	 0.7509711474	 0.272443
H	 0.9085650411	-3.6899156016	 2.6671956738	 0.079545
