18
gdb 44601	2.85685	1.83614	1.47144	1.3116	73.71	-0.239	-0.0194	0.2196	929.1987	0.150722	-401.961418	-401.954707	-401.953763	-401.99264	27.38	
O	-0.0218885384	 0.0492801619	-0.3005735676	-0.314548
C	-0.0563570134	 1.2208243212	-0.0339694364	 0.411026
C	-1.321740234	 2.0316587383	 0.2990662035	-0.36044
C	-0.8091495218	 3.3329031425	 0.8840069402	-0.028398
C	 0.6866431567	 3.3210750349	 0.9286387566	-0.073075
C	 1.1537800479	 2.1645257342	 0.0422116297	-0.155012
C	 1.3247601913	 2.8415734225	-1.3449607864	-0.218382
C	 0.233910166	 3.9372757515	-1.3413050696	-0.172925
N	-0.0195287934	 4.2840425487	 0.0745070587	-0.100847
H	-1.9388069428	 2.1492076486	-0.6000349654	 0.134819
H	-1.9290796065	 1.4795633721	 1.023284161	 0.134011
H	-1.403599874	 3.8130992533	 1.6551667726	 0.098592
H	 1.2869248625	 3.6929373842	 1.7520732427	 0.094347
H	 2.0464655073	 1.6324378695	 0.3713993311	 0.094638
H	 2.3190236002	 3.2956874903	-1.3996053906	 0.113929
H	 1.2325341014	 2.1373442329	-2.1768070925	 0.119268
H	 0.5644944495	 4.840837402	-1.8603279667	 0.114971
H	-0.6871600785	 3.6043365014	-1.8328883112	 0.108025
