19
gdb 64652	3.2017	1.26458	1.12788	5.2909	79.84	-0.2406	0.0334	0.274	1141.0731	0.16003	-381.997	-381.988653	-381.987709	-382.030672	31.766	
C	-0.1670167526	 1.5234243451	-0.2591602598	-0.486465
C	-0.0030334596	 0.0184511142	-0.0443314836	 0.378769
C	-1.4112467191	-0.541644909	 0.2830284138	-0.431563
C	-1.8951413684	-0.1295805686	 1.600253675	 0.288474
N	-2.2897753052	 0.1996578035	 2.6351388144	-0.314598
C	 0.9343716767	-0.8391951629	-0.9535444184	-0.119359
C	 2.0927372145	-0.1066320832	-0.2429791547	-0.179871
N	 1.1381003169	-0.4146929212	 0.9328648283	-0.162494
C	 1.0481272061	-1.7967633478	 0.2544456762	-0.180819
H	 0.7588985324	 2.0559507905	-0.465694541	 0.12933
H	-0.8443690074	 1.703168687	-1.1012097193	 0.12252
H	-0.6163429054	 1.9752526187	 0.630650847	 0.157238
H	-2.1124087389	-0.1598395116	-0.4680019793	 0.151174
H	-1.4702731869	-1.6289226346	 0.2236847452	 0.149886
H	 0.8194838122	-1.0773287329	-2.0178715227	 0.067493
H	 3.0401092962	-0.642784546	-0.1594888101	 0.108069
H	 2.2719994529	 0.948579391	-0.4318405917	 0.108257
H	 0.2028422675	-2.4080971845	 0.5640923772	 0.105243
H	 1.972888788	-2.3697058576	 0.3466259935	 0.108716
