21
gdb 57057	2.08165	1.35584	1.20347	2.6228	81.82	-0.2667	0.0274	0.2941	1200.5557	0.183222	-383.269918	-383.260265	-383.259321	-383.304317	35.899	
C	-0.7725264752	 1.2523611538	-0.1130220021	-0.431212
C	 0.0352666449	-0.0384955733	-0.0728967567	 0.035448
C	 1.4368917523	-0.0842093405	-0.7451331065	-0.233067
C	 1.9523304666	-0.9456572634	 0.4396567524	-0.240926
C	 0.6838552302	-0.5526099883	 1.2576226648	-0.001524
C	 0.9067422602	 0.4587784815	 2.3962136548	-0.134182
N	 1.4434792018	-0.2440091331	 3.5685418926	-0.501951
C	 1.7554327398	 1.6071403958	 2.0034814658	 0.271441
N	 2.4482308125	 2.4991887474	 1.752092944	-0.348477
H	-0.1962623086	 2.1104312918	 0.2461713618	 0.136165
H	-1.0785865081	 1.4742119516	-1.1412145324	 0.119267
H	-1.6851483865	 1.1764560376	 0.4895761302	 0.112757
H	-0.5826058957	-0.851944094	-0.4693036914	 0.077467
H	 1.4948682085	-0.5212678802	-1.7447189823	 0.094843
H	 1.9098892381	 0.9008358042	-0.7672209193	 0.126559
H	 1.9748248059	-2.0140965655	 0.2126040287	 0.105559
H	 2.9221981323	-0.6646418708	 0.8601768239	 0.104707
H	 0.1575145113	-1.3858938701	 1.7297479834	 0.090916
H	-0.0688302175	 0.8714159507	 2.6813952142	 0.131403
H	 2.3456234507	-0.6507077248	 3.3348865477	 0.241653
H	 1.6156317766	 0.4151582097	 4.3224712765	 0.243156
