25
gdb 123058	6.18805	0.48143	0.4636	1.3732	90.45	-0.2613	0.0812	0.3425	2404.3797	0.228686	-389.481653	-389.470998	-389.470054	-389.518609	38.478	
O	-0.0214321233	 1.4634456059	-0.0381171709	-0.421863
C	 0.0478664401	 0.0479803396	 0.0589413862	-0.07436
C	-1.3649054957	-0.5044997534	-0.0726613309	-0.163522
C	-1.4235501127	-2.0321367325	 0.0166388783	-0.183133
C	-2.8455167905	-2.5907263842	-0.1185913739	-0.210675
C	-2.9152763294	-4.1083448601	-0.0186838213	 0.063671
C	-2.6337606625	-4.7990630363	 1.3493438529	-0.215407
C	-3.7764168187	-5.8019708088	 1.0359775355	-0.210436
C	-4.3068352584	-4.8032632288	-0.0276005395	-0.23624
H	 0.8702749665	 1.8139883162	 0.0418363455	 0.283928
H	 0.6875647716	-0.3742725778	-0.7338751811	 0.081526
H	 0.4807197447	-0.2639349744	 1.0240407962	 0.081739
H	-1.986585233	-0.0560732874	 0.7122568956	 0.103083
H	-1.7815928601	-0.1658950579	-1.0294487843	 0.102975
H	-0.7882979516	-2.4707268364	-0.7658270905	 0.091
H	-0.9951763926	-2.3607305556	 0.9735700918	 0.096835
H	-3.4848885332	-2.1501201071	 0.6596689972	 0.088019
H	-3.2716462242	-2.26955134	-1.0795780068	 0.091708
H	-2.2774116879	-4.5571363113	-0.7909306014	 0.064292
H	-1.6334310795	-5.2014635087	 1.5281189591	 0.091475
H	-2.8956140614	-4.1395329232	 2.1843131054	 0.094735
H	-3.395413917	-6.7186110704	 0.5762278465	 0.099503
H	-4.4472403432	-6.0795657807	 1.8524812567	 0.093706
H	-5.0779865379	-4.145327579	 0.3874938911	 0.095723
H	-4.6713131202	-5.2064411777	-0.9760347573	 0.091717
