20
gdb 94062	4.35899	0.9569	0.8256	5.0326	80.06	-0.2696	0.0194	0.289	1398.3424	0.172032	-403.177362	-403.168657	-403.167713	-403.2106	33.084	
C	-0.0263769838	 1.5507449639	 0.0464131364	-0.40798
C	 0.013390347	 0.0219518739	-0.0060721079	 0.025349
C	 0.6950781075	-0.5027418624	-1.2804959922	-0.22162
C	 0.8232875459	-2.0314571861	-1.2503942007	-0.217256
C	 1.4942284427	-2.4617769646	 0.0668698395	-0.014627
O	 0.7888591562	-1.9773639409	 1.1942741859	-0.256595
C	 0.733165217	-0.5553194622	 1.2180331888	-0.072905
C	 1.5701669466	-3.9249285314	 0.1824507502	 0.277108
N	 1.6445148394	-5.0762494755	 0.2292110226	-0.316531
H	 0.9850904977	 1.973465982	 0.0433704195	 0.117559
H	-0.5582620951	 1.9586462711	-0.8188439776	 0.120596
H	-0.5343413426	 1.9068302599	 0.9488258878	 0.118818
H	-1.0154981631	-0.3623678509	 0.0149590855	 0.086101
H	 0.1381620706	-0.1899030352	-2.1701893225	 0.105316
H	 1.6952731505	-0.0533561546	-1.3635670815	 0.098439
H	-0.1647361786	-2.5012800728	-1.3011542508	 0.124882
H	 1.4096214264	-2.4002226078	-2.0979986825	 0.117267
H	 2.5295294084	-2.0757439349	 0.0808556715	 0.110148
H	 1.7556354402	-0.1420185917	 1.2791609312	 0.088816
H	 0.2118210569	-0.2988372399	 2.1443014667	 0.117115
