17
gdb 6064	4.95573	1.02471	0.86318	2.7416	67.	-0.2588	-0.0236	0.2352	1316.3913	0.138559	-401.024153	-401.014576	-401.013632	-401.060167	32.151	
C	 0.0339625486	 1.4294553132	-0.1218515867	-0.441385
C	 0.0133974887	-0.0562885633	 0.0900577105	 0.414264
N	-0.0495401417	-0.5739127329	 1.2458296244	-0.51727
O	 0.0714298603	-0.6906422374	-1.1187618194	-0.217885
C	 0.058436442	-2.0957356705	-1.1333032553	-0.195444
C	 0.0996936455	-2.5944461919	-2.5793087764	 0.359019
C	 0.1821660083	-4.1035507837	-2.7215037456	-0.484724
O	 0.0710617589	-1.8447307148	-3.5201321957	-0.262568
H	 0.9442288107	 1.7209881501	-0.6545685436	 0.143336
H	-0.8139596149	 1.7325222925	-0.7435636998	 0.144141
H	-0.0113168602	 1.9366600429	 0.840549787	 0.146877
H	-0.0544142618	-1.5925744434	 1.2295011796	 0.214411
H	 0.9175806687	-2.5134625373	-0.5857428906	 0.127464
H	-0.8494594221	-2.4946171275	-0.6537362127	 0.129854
H	-0.586129661	-4.6019915805	-2.1205609881	 0.139235
H	 0.0672028832	-4.3763933874	-3.7707829197	 0.152949
H	 1.1540121169	-4.4607958181	-2.361162268	 0.147727
