15
gdb 16514	3.88025	2.4812	1.80848	3.4679	66.35	-0.2235	-0.0491	0.1744	729.1758	0.119446	-358.690752	-358.684396	-358.683452	-358.720637	25.991	
N	 0.0172269888	 1.3818599955	 0.1192190375	-0.590717
C	-0.0320010527	-0.031939962	-0.0817863148	 0.289583
C	 0.8360970185	-0.7795902417	-1.1318092598	-0.233594
N	 0.4862726613	-2.1906263322	-0.8538857283	-0.155218
C	-0.6158540697	-2.1221537186	-0.2192373538	 0.128256
N	-0.5543114932	-2.3858303569	 1.2314663761	-0.350264
C	-0.6448041493	-0.8281328835	 1.1866924117	-0.035479
C	-1.3434615139	-0.739886714	-0.1101416374	-0.19312
H	 0.9546517714	 1.6793182977	 0.3724244128	 0.238034
H	-0.2405951149	 1.8786502083	-0.728810212	 0.235062
H	 0.6128668404	-0.4074886515	-2.1448009093	 0.100716
H	 1.9173174317	-0.6886975256	-0.9744584008	 0.119379
H	-1.4855239059	-2.6353189957	 1.5846303845	 0.223381
H	-0.8108896151	-0.2908839686	 2.1140393863	 0.119161
H	-2.3320026375	-0.4203512713	-0.4142868226	 0.10482
