19
gdb 86285	1.81577	1.64421	1.14907	3.5355	76.65	-0.2367	0.0294	0.2661	1155.1936	0.161018	-415.375257	-415.365643	-415.364699	-415.409435	36.117	
N	 0.6656249783	 0.9549984785	-0.7931006755	-0.514569
C	 0.2002025436	-0.1193990285	 0.0406984169	 0.03432
C	 0.1056284584	 0.1711778394	 1.5572897922	-0.26507
C	-1.2013846491	-0.6626286316	 1.6285671747	 0.021034
N	-2.3424367589	-0.224132871	 2.4023489386	-0.525235
C	-1.3420831573	-0.5155434568	 0.0677200165	 0.114948
N	-2.1788462718	 0.6398354246	-0.2273361779	-0.557142
C	-1.7122706537	-1.7197737878	-0.6740822244	 0.196997
N	-1.98519757	-2.6671818962	-1.2815524879	-0.351162
H	 0.7415643547	 0.6650059261	-1.7631505687	 0.231488
H	 0.0017626322	 1.7238311945	-0.752513085	 0.235322
H	 0.7990655706	-1.0129763279	-0.1537574199	 0.095479
H	 0.9454339686	-0.1343943777	 2.1843454373	 0.106806
H	-0.0967278892	 1.2327570586	 1.7300510357	 0.108581
H	-0.9900978763	-1.7073219872	 1.8670158157	 0.099999
H	-2.4110673869	-0.7178478974	 3.2832115985	 0.240335
H	-2.2875025769	 0.7673020237	 2.6059201836	 0.238322
H	-2.3568027618	 0.7093474189	-1.2239180221	 0.23889
H	-3.0740577746	 0.5135611477	 0.2394385416	 0.250658
