12
gdb 3546	5.92176	3.06773	2.63602	4.1984	53.22	-0.2466	-0.0013	0.2453	533.2622	0.091447	-323.320332	-323.315355	-323.314411	-323.348923	19.342	
O	 0.0518229744	 0.0625054014	 0.1628216901	-0.310125
C	-0.0227605447	 1.2452648877	 0.076211789	 0.440221
C	-1.0866207927	 2.2860554138	 0.0054761413	-0.221302
C	-0.419668126	 3.5348052612	 0.6543342529	-0.079355
C	 0.9553508806	 3.0608662829	 1.1179504178	-0.191248
N	 1.0556383374	 2.2529327422	-0.1725068127	-0.220626
C	-0.0666048936	 3.1454785144	-0.7297022992	-0.021474
H	-2.1563096239	 2.20794172	-0.1320089132	 0.120488
H	-1.0349366863	 4.359085312	 0.9952869252	 0.109313
H	 1.7019717532	 3.857970369	 1.1145916771	 0.124817
H	 1.0445913689	 2.4607565234	 2.0296223338	 0.123355
H	-0.0935766173	 3.5865188519	-1.7137971722	 0.125935
