17
gdb 53588	4.81997	0.66058	0.613	4.9146	83.16	-0.2527	0.0124	0.2651	1795.8282	0.134683	-380.832451	-380.822634	-380.82169	-380.869993	33.399	
C	-0.068268558	 1.450756384	-0.2220479774	-0.497189
C	-0.0231026295	 0.0107162774	-0.0121121632	 0.101971
C	 0.029813773	-1.180042676	 0.1557593266	 0.034507
C	 0.0619189379	-2.6241752362	 0.363659482	-0.366103
C	-1.3243117262	-3.2402875822	 0.2745887978	 0.00319
N	-1.7815169148	-3.6529164573	-1.0469742865	-0.301284
C	-1.5346569519	-4.6931802902	-0.0265754368	-0.205291
C	-0.4277954899	-5.5883827608	-0.2655381146	 0.332413
N	 0.4582469584	-6.3144485112	-0.4222696253	-0.334895
H	 0.927687995	 1.8961944879	-0.1227722375	 0.151414
H	-0.442081776	 1.6959812683	-1.2221911163	 0.149913
H	-0.7232933103	 1.9408942722	 0.5067115595	 0.146449
H	 0.7080277234	-3.1056374268	-0.378823103	 0.155838
H	 0.488755201	-2.8548401569	 1.3486876219	 0.13745
H	-2.0565489934	-2.8035385623	 0.9511318178	 0.109768
H	-2.7820133322	-3.5144883607	-1.1602931582	 0.24838
H	-2.3875170464	-5.1747051193	 0.4443549032	 0.13347
