9
gdb 3823	9.91946	2.01635	1.67572	4.0224	50.77	-0.2935	-0.0524	0.2411	650.1846	0.058518	-334.429558	-334.424427	-334.423483	-334.458584	17.891	
N	 0.0041637961	-1.1414425438	-0.0036353739	-0.323423
C	-0.0258038312	 0.0147842527	 0.003062095	 0.23829
C	-0.0089512137	 1.4341184126	 0.0107070953	 0.230574
N	-1.1316560269	 2.1694841351	 0.0291828595	-0.251365
N	-0.6683224527	 3.4023131693	 0.0301086458	-0.063916
N	 0.6507455239	 3.556713363	 0.0140407483	-0.171228
C	 1.0999902088	 2.3059956532	 0.0013338977	-0.124897
H	-1.2917119641	 4.195328779	 0.042519712	 0.309958
H	 2.1533549298	 2.0804231489	-0.0134055397	 0.156007
