18
gdb 47563	2.72461	1.57199	1.08447	5.0403	72.55	-0.243	0.0081	0.2512	1097.0388	0.149327	-439.080457	-439.072713	-439.071769	-439.113182	29.525	
O	 0.0138837737	-0.0221553725	 0.5790258721	-0.306166
C	-0.0626807576	 1.0527694488	 0.0490891049	 0.406273
C	-1.3907443321	 1.8103088059	-0.0176637581	-0.289802
N	-1.7875593118	 2.2220084747	-1.3609322469	-0.087227
C	-2.4247854538	 3.5391114299	-1.4643867292	-0.26486
C	-1.03647684	 3.3323087808	-1.9510146812	 0.022902
C	 0.180330481	 3.8563245092	-1.2232365486	-0.271109
C	 1.2839377355	 2.801111783	-1.1948581281	-0.039168
O	 1.083661565	 1.6266169817	-0.3913084641	-0.234984
H	-2.140681076	 1.1170649578	 0.3667713341	 0.142536
H	-1.3245376937	 2.6472901635	 0.6976232931	 0.106973
H	-3.2519751226	 3.6098416999	-2.164682931	 0.124654
H	-2.5555924377	 4.1092380928	-0.5457193471	 0.113245
H	-0.8854621992	 3.2130025929	-3.0238560404	 0.099096
H	 0.5816054845	 4.7271482549	-1.7555788353	 0.11693
H	-0.0545583403	 4.1971617619	-0.2110683528	 0.115933
H	 1.4828737964	 2.4573889764	-2.2180081016	 0.12122
H	 2.2094252087	 3.2358818582	-0.80648932	 0.123554
