21
gdb 118415	2.248	0.77357	0.59659	2.2418	84.96	-0.2471	0.0416	0.2887	1890.7402	0.178827	-424.1857	-424.174012	-424.173068	-424.224391	39.312	
C	 0.0374402761	 1.3401122246	 0.2889392651	-0.235198
O	-0.0263750186	 0.0111083484	-0.1818872705	-0.232213
C	-1.3136474223	-0.5841261392	-0.0616274211	-0.089792
C	-1.2628714091	-1.9156945117	-0.822148804	-0.209929
C	-0.9810671828	-1.7366815752	-2.3158511567	-0.071411
O	-0.9943401527	-2.971799133	-3.0166962591	-0.421368
C	-1.714321599	-0.7712117611	 1.3389754668	 0.084139
C	-2.0389852844	-0.9367038303	 2.4871655038	 0.079171
C	-2.4344257861	-1.139534749	 3.873502666	-0.500613
H	 1.0598963328	 1.6879772064	 0.1243052135	 0.125826
H	-0.6553494231	 1.9972115265	-0.2601953425	 0.102157
H	-0.1978383157	 1.4042081133	 1.3598353564	 0.11731
H	-2.0560951328	 0.0740929335	-0.5491962363	 0.086639
H	-0.4839305564	-2.5378546422	-0.364515386	 0.103931
H	-2.2160838638	-2.4371358515	-0.6924002941	 0.114755
H	-1.7714579054	-1.1301516128	-2.7734550419	 0.105604
H	-0.0341915733	-1.1993103841	-2.4556097781	 0.108417
H	-0.2432652401	-3.4892593796	-2.709534722	 0.280742
H	-3.0562094012	-2.0353193804	 3.9792704955	 0.151471
H	-1.5590444173	-1.2672609642	 4.5196019601	 0.151571
H	-3.0092766049	-0.2888393984	 4.2556043251	 0.148793
