22
gdb 13877	3.84883	1.40467	1.08978	0.1214	83.76	-0.2335	0.0292	0.2626	1157.1645	0.200924	-313.092702	-313.084084	-313.08314	-313.125657	33.044	
C	 0.0004277056	 1.5569583238	 0.0202036745	-0.38793
C	 0.0373911198	 0.0218216101	 0.0415727674	 0.033077
C	 0.8239603829	-0.4673400041	 1.2660063512	-0.395388
C	-1.3888403122	-0.5706905171	-0.0072229946	 0.013323
C	-2.20959205	-0.1493067005	-1.2603363082	-0.226452
C	-3.0893043906	-1.3691085841	-1.6297313256	-0.262674
C	-2.3783544175	-2.5119423805	-0.9466193645	-0.073132
C	-1.4699429104	-2.0839594191	-0.0722490443	-0.074396
H	 1.0130746123	 1.9731214922	 0.0402639099	 0.107015
H	-0.5004086062	 1.9429351418	-0.872210666	 0.113883
H	-0.5341037337	 1.9444221758	 0.8963695467	 0.109025
H	 0.5639705987	-0.3208526401	-0.8613050898	 0.068763
H	 0.9495885451	-1.5536267838	 1.2702780532	 0.112675
H	 1.8236850407	-0.0208251191	 1.2896547133	 0.108352
H	 0.3151742292	-0.1852576157	 2.1959273218	 0.110174
H	-1.9052683103	-0.2303723263	 0.906986358	 0.068219
H	-2.7936865443	 0.7601118329	-1.0999274845	 0.095399
H	-1.5147469149	 0.0539305087	-2.0837797039	 0.100463
H	-4.1133751193	-1.266488354	-1.2424041669	 0.103255
H	-3.1865698636	-1.5060335765	-2.7128387586	 0.099657
H	-2.6286709482	-3.5516661553	-1.1291049167	 0.08764
H	-0.8766540132	-2.7296596793	 0.5652555378	 0.089054
