16
gdb 89677	2.99896	1.27412	1.06962	4.2877	71.52	-0.2472	0.0174	0.2646	1122.2684	0.123237	-437.865026	-437.856382	-437.855438	-437.898184	32.219	
O	 0.1027410382	 1.4461301871	 0.0503151447	-0.427391
C	 0.0387478655	 0.0410875502	 0.0804718125	 0.075018
C	 0.2558250018	-0.5673214698	 1.4960362374	-0.305598
C	-1.0811426816	-1.3107713747	 1.3741053873	 0.119903
C	-2.1917986619	-0.2839832999	 1.1513758645	-0.393607
C	-1.3356286439	-0.6203610937	-0.0136903908	 0.343079
O	-1.7705451466	-1.1045774767	-1.22019045	-0.447576
C	-1.3523650157	-2.6414793869	 1.7874793939	 0.180132
N	-1.5716401592	-3.7354449914	 2.1007036968	-0.353353
H	-0.0150307729	 1.7375651402	-0.859869631	 0.292276
H	 0.7146403112	-0.4165269289	-0.6531204083	 0.094992
H	 1.1253825395	-1.2216403152	 1.557723331	 0.130794
H	 0.2951867927	 0.1753472784	 2.2972542102	 0.121491
H	-3.1905505414	-0.711891773	 1.1275016067	 0.132145
H	-2.1254010079	 0.6842927076	 1.6423963613	 0.138039
H	-2.7215734579	-1.2518081232	-1.1916661461	 0.299656
