23
gdb 115276	3.33095	1.0311	0.98564	1.8825	82.01	-0.239	0.0636	0.3026	1368.5953	0.204352	-425.444219	-425.434119	-425.433174	-425.479167	38.039	
C	-0.5867832788	 1.2740154019	-0.0369416696	-0.382592
C	-0.1963985446	-0.2004288176	-0.1583626016	-0.17969
C	 0.9279532043	-0.4400590722	-1.1656712839	 0.143194
C	 1.2908616197	-1.9298927919	-1.3698908743	-0.280913
C	 0.6528818627	-2.2892568753	-2.7204930936	 0.366877
C	 1.3278248268	-3.4362692408	-3.4692076571	-0.449266
O	-0.7098926703	-2.6151938315	-2.4277702999	-0.465365
C	 0.7436578031	-0.9339848736	-3.4390341508	-0.097355
O	 0.5134499441	 0.0510287795	-2.4544723723	-0.273053
H	 0.2587113912	 1.8817780739	 0.3060717673	 0.106091
H	-0.9087625642	 1.6662303119	-1.0050457267	 0.132783
H	-1.4047780906	 1.4081856549	 0.6775769087	 0.105303
H	 0.1323661657	-0.5830782628	 0.8169197136	 0.085428
H	-1.0576429361	-0.8023986205	-0.4676397193	 0.115822
H	 1.8168055753	 0.1301890419	-0.8553847337	 0.06138
H	 2.3743846717	-2.0675391747	-1.4208363424	 0.096911
H	 0.8993913186	-2.5703905012	-0.5768350793	 0.116413
H	 1.2504230828	-4.361452097	-2.8915208606	 0.128746
H	 0.843418086	-3.6053172463	-4.4387215105	 0.106658
H	 2.385680076	-3.2281484299	-3.6566686815	 0.116609
H	-1.1896513453	-2.6722394762	-3.2610314221	 0.275848
H	 1.737393996	-0.8149690461	-3.9040847928	 0.079466
H	-0.0116748739	-0.8242418163	-4.2268187675	 0.090706
