20
gdb 15709	2.69034	1.79385	1.25728	2.0885	70.29	-0.2393	0.0759	0.3152	1024.5822	0.177652	-386.139304	-386.13063	-386.129686	-386.172746	31.651	
C	-0.4979931157	 1.4423048626	-0.0647236943	-0.42096
C	 0.0399821439	 0.0127475435	 0.0052869098	-0.011742
C	 1.1292696849	-0.2991078991	-1.0507472199	-0.071279
O	 2.0784573586	-1.1712463918	-0.4432511324	-0.263507
C	 1.5709437219	-1.5997911308	 0.8169447596	-0.080544
C	 0.7150783604	-0.434869225	 1.326105383	-0.010877
C	 1.5796674392	 0.6337490765	 1.9926919342	-0.0865
O	 2.1381304403	 0.0536804874	 3.1653139053	-0.423865
H	 0.2993010678	 2.1832422565	 0.0532804532	 0.120028
H	-0.9741947733	 1.6270767096	-1.0336348332	 0.116789
H	-1.2488555092	 1.6264273829	 0.7105587203	 0.118329
H	-0.799876428	-0.6722050038	-0.1627780845	 0.080307
H	 0.6978730579	-0.7690963444	-1.945619095	 0.092401
H	 1.6543391592	 0.6099561911	-1.374075153	 0.093495
H	 0.961324988	-2.5113199903	 0.7056645216	 0.07967
H	 2.4178017545	-1.8236640181	 1.4692021906	 0.121244
H	-0.0242712805	-0.7735430567	 2.059138869	 0.077916
H	 2.3690158708	 0.9623182672	 1.2990042045	 0.097548
H	 0.9689402089	 1.5128064804	 2.2461620113	 0.084786
H	 2.7494633403	 0.6868600822	 3.5520349899	 0.28676
