17
gdb 73609	2.2791	1.63674	1.30023	2.0894	74.19	-0.2249	0.0434	0.2683	1034.86	0.134872	-421.771411	-421.763044	-421.7621	-421.804122	32.203	
O	-0.0042571172	 1.4449183337	 0.1476040508	-0.461826
C	-0.0089536452	 0.0678249244	-0.0410988825	 0.339431
C	 0.8244171154	-0.5276725169	-1.1688718504	-0.32303
C	 0.0216338667	-1.7747332396	-1.6053050153	-0.088652
O	-1.3028735684	-1.6502092427	-1.052690401	-0.256756
C	-1.289160423	-0.684981495	-0.0570806166	 0.06513
C	-0.3421043385	-0.8398042858	 1.1554379308	-0.371404
C	 0.3742041883	-2.035810861	 1.4674512282	 0.354648
C	 0.9876631845	-3.0333282797	 1.7481081083	-0.448491
H	 0.8117461687	 1.6838504548	 0.6018210631	 0.287513
H	 0.8776244443	 0.2230630261	-1.9626262817	 0.120217
H	 1.8429854343	-0.7915986087	-0.8697562095	 0.114109
H	-0.079639526	-1.855639837	-2.6913233752	 0.111919
H	 0.4806653017	-2.6913334352	-1.2252697725	 0.124462
H	-2.2540434574	-0.2222085971	 0.1136221671	 0.120675
H	-0.6897332522	-0.2685088017	 2.0131637306	 0.11732
H	 1.5123554542	-3.9224971787	 1.9955883859	 0.194734
