18
gdb 102978	2.58361	0.80556	0.67022	1.9969	70.39	-0.2603	-0.0509	0.2094	1632.0166	0.144161	-476.209425	-476.199154	-476.19821	-476.246545	34.757	
O	 0.1136010262	 1.290151412	 0.2104909111	-0.420085
C	-0.0202481575	-0.069040198	-0.1451160852	-0.08553
C	-1.4846018781	-0.5399965468	-0.0533093702	-0.072808
N	-1.931811886	-0.3447529639	 1.3266336805	-0.336572
C	-3.2813917068	-0.8173318878	 1.6189344265	-0.234469
C	-3.7453054799	-0.3107339449	 2.9759923969	 0.150828
O	-4.4769179106	-0.9177443693	 3.7108873112	-0.226769
C	-2.3245793202	 0.3144298744	-1.0010835368	 0.183329
O	-2.5546468197	 0.0081522933	-2.140326865	-0.245417
H	-0.4022368969	 1.4112869238	 1.0178285306	 0.287934
H	 0.3350223379	-0.1767700879	-1.1736881576	 0.135568
H	 0.5997353876	-0.7238239123	 0.4926146896	 0.091202
H	-1.5470067028	-1.5825276285	-0.4047282814	 0.089509
H	-1.2752364273	-0.8063506004	 1.9500851687	 0.233024
H	-3.9719866251	-0.3894716079	 0.8774635334	 0.147806
H	-3.409960364	-1.9094163932	 1.5790793346	 0.125015
H	-3.3486580708	 0.6977108917	 3.2318801171	 0.086668
H	-2.6841860961	 1.2702946556	-0.5615694941	 0.090768
