16
gdb 45005	2.69094	1.71016	1.11993	1.9646	72.32	-0.2593	-0.0139	0.2454	1041.4587	0.127283	-434.096202	-434.088944	-434.088	-434.128064	28.15	
N	-0.1238730593	 1.3523635266	-0.1135505254	-0.507834
C	-0.0203223512	 0.0979018178	 0.0607528525	 0.389109
C	-1.2460099379	-0.7955643827	 0.0287760556	-0.305186
C	-1.1280401039	-1.9113300138	 1.0519749054	-0.019419
C	-0.8353656411	-3.3242602434	 0.6451752059	-0.251734
N	 0.2015161516	-2.4814635673	 1.2229173979	-0.112562
C	 1.277435827	-1.984294315	 0.4802907901	 0.40439
O	 2.252638085	-2.628398332	 0.1773929462	-0.358127
N	 1.1735009459	-0.6142872239	 0.2155275097	-0.378365
H	 0.7878690748	 1.8147658212	-0.0989696366	 0.211335
H	-2.1282767521	-0.1788590011	 0.1970543296	 0.146025
H	-1.3205536088	-1.2109692856	-0.9838351962	 0.134096
H	-1.6532243101	-1.749604394	 1.99038819	 0.116026
H	-1.1634795251	-4.1510101765	 1.2678852599	 0.136528
H	-0.7716104806	-3.5432871335	-0.4178945454	 0.13672
H	 2.0347182457	-0.1848664969	-0.092620259	 0.258999
