18
gdb 40046	3.76176	1.3913	1.18281	2.6341	76.98	-0.217	0.0135	0.2305	1061.2742	0.148863	-401.902719	-401.895532	-401.894588	-401.934497	28.5	
C	 0.7389274508	 1.4956071992	-0.0679372998	-0.263242
O	 1.4925364044	 0.2840524932	 0.104762094	-0.267084
C	 0.0879553907	 0.1906997436	-0.0039781835	 0.434461
C	-0.8057463451	-0.4586500241	 1.0532163934	-0.263014
N	-1.3570416972	-1.3774107317	 0.0173709161	-0.097824
C	-2.8019787683	-1.2718913671	-0.243899254	-0.222113
C	-2.914135529	-0.3212705445	-1.4155879478	-0.073804
C	-1.7122272324	 0.0205194	-1.8771239341	-0.085077
C	-0.6287475417	-0.6464884315	-1.0756128497	-0.125219
H	 0.7145642241	 2.1572599662	 0.7972907941	 0.116449
H	 0.8691065927	 1.993528926	-1.0281911071	 0.115246
H	-0.269024942	-0.9728589194	 1.8572208669	 0.118428
H	-1.5502975426	 0.2186352341	 1.4943671948	 0.099589
H	-3.2388655638	-2.2528355982	-0.4823158614	 0.11054
H	-3.3275633277	-0.9095699647	 0.6509591054	 0.105245
H	-3.8654983139	-0.0029371148	-1.8265048278	 0.100988
H	-1.5119351463	 0.6633512312	-2.7259646395	 0.101657
H	 0.0468642772	-1.2656512275	-1.6799922399	 0.094775
