15
gdb 45648	3.10597	1.68044	1.26913	3.304	71.08	-0.2416	-0.0221	0.2196	960.8038	0.112464	-420.574777	-420.567981	-420.567037	-420.606156	26.637	
O	-0.1192968354	-0.018234207	 0.1886051646	-0.289041
C	-0.039070518	 1.171957532	 0.0889813033	 0.372689
C	-1.2338520513	 2.1832784761	 0.1319694972	-0.357777
C	-0.5905321034	 3.4669336245	 0.6307824345	-0.197885
C	 0.7295239872	 3.3773852225	 0.4829315544	 0.24268
C	 2.065416624	 3.6000730431	 1.1669874122	-0.088638
O	 2.1235847014	 2.5172370227	 2.1232810104	-0.226095
C	 2.4870781259	 2.2311535905	 0.7765308388	 0.006071
C	 1.2017221468	 2.0630482797	-0.0891750534	-0.198364
H	-1.6687534387	 2.2557906906	-0.8751783312	 0.135649
H	-2.0279510706	 1.8142974329	 0.7896094432	 0.139032
H	-1.1438498351	 4.2390927138	 1.1522295969	 0.11241
H	 2.6376325864	 4.4920098624	 1.3859366561	 0.119215
H	 3.4727612598	 1.8203821974	 0.5961203964	 0.114878
H	 1.4622661611	 2.1138378988	-1.1549876737	 0.115176
