23
gdb 112979	4.52464	0.73319	0.69283	1.2649	86.84	-0.2609	0.0775	0.3385	1705.264	0.205635	-388.261154	-388.251515	-388.25057	-388.296335	36.142	
O	-0.0819426365	 1.4701377166	-0.2528100796	-0.422542
C	-0.0046205825	 0.1105307928	 0.1516744881	-0.079576
C	-1.385507661	-0.5047181405	 0.0063544454	 0.025056
C	-1.8410536582	-0.6980247548	-1.4674260805	-0.244107
C	-1.4536131793	-2.2048488198	-1.3727674165	 0.050085
C	-1.3947413845	-2.0505667875	 0.1783260676	-0.269144
C	-2.3862241805	-3.2281984008	-1.9582901915	 0.01839
C	-2.2207957843	-3.6920593041	-3.3851457265	-0.271481
C	-1.9092771557	-4.6312035924	-2.2461319381	-0.272522
H	 0.7979195206	 1.8531620207	-0.1929163371	 0.284922
H	 0.7213856032	-0.445317046	-0.4657629214	 0.079501
H	 0.327060447	 0.0233797307	 1.1997638527	 0.081855
H	-2.0796433254	 0.0512309477	 0.6425613661	 0.071714
H	-2.9209642963	-0.5667390916	-1.584711329	 0.09289
H	-1.3352880263	-0.0867646124	-2.2184058432	 0.103336
H	-0.4473600146	-2.367126389	-1.7763125988	 0.058898
H	-0.5422995105	-2.5014900076	 0.6962549121	 0.090031
H	-2.3122164134	-2.4064024915	 0.6561111794	 0.09639
H	-3.4128685246	-3.1421750737	-1.6069709748	 0.073423
H	-3.1109360603	-3.8764722822	-3.9764804246	 0.10875
H	-1.3880514754	-3.2901555098	-3.9532840558	 0.108487
H	-0.8668993655	-4.861299236	-2.0494811025	 0.107315
H	-2.5864626661	-5.4575002685	-2.0595243015	 0.108331
