16
gdb 35039	3.27517	1.45783	1.41099	3.2644	67.96	-0.2669	0.0218	0.2887	958.3187	0.126919	-437.893174	-437.886295	-437.88535	-437.924496	26.794	
N	-0.0436493897	-1.1517024841	-0.1043520685	-0.32825
C	-0.0058154772	 0.00175186	-0.0395796483	 0.285796
C	 0.0102700286	 1.4509356884	 0.0440545338	-0.194154
C	-0.2846353334	 2.0686465611	 1.441435959	 0.069609
C	 0.9193172391	 1.5666918344	 2.2477689903	-0.099115
O	 1.9909273886	 1.5910275411	 1.2761348454	-0.274111
C	 1.4209278504	 2.1002180803	 0.0746204013	 0.070369
C	 1.0314441835	 3.5652560038	 0.3081445228	-0.098164
O	-0.1121935515	 3.4602061289	 1.1874249338	-0.277584
H	-0.6456881193	 1.8825243185	-0.7149463522	 0.136204
H	-1.2676072471	 1.8962439748	 1.875654909	 0.109779
H	 1.1422425409	 2.2468836867	 3.0753793844	 0.122202
H	 0.7949240948	 0.5469972675	 2.6278701454	 0.130859
H	 2.0933202506	 1.9016355111	-0.7580187599	 0.109839
H	 1.8430414944	 4.1078836942	 0.8028184058	 0.12464
H	 0.7425031173	 4.0948456435	-0.6075689818	 0.112081
