12
gdb 9158	8.94993	0.80824	0.74478	1.8126	76.42	-0.2643	-0.0694	0.1949	1422.9919	0.081073	-381.308309	-381.299875	-381.29893	-381.341796	28.478	
C	-0.0416731343	 1.3635175009	 0.0598686823	-0.242624
O	 0.0142567175	-0.0693246766	-0.011221549	-0.213326
C	 0.6293495586	-0.558141633	-1.1015944061	 0.173766
O	 1.11297369	 0.1125746374	-1.9800752574	-0.347543
C	 0.6370612754	-2.0016470531	-1.0864638099	 0.252753
C	 0.689748729	-3.209221675	-1.1565726621	 0.0114
C	 0.7397875782	-4.5647394987	-1.2189575581	 0.264707
C	 0.785225271	-5.7699295598	-1.2762852485	-0.539029
H	 0.9658104174	 1.7865495213	 0.0720853346	 0.147312
H	-0.5847107115	 1.7691960809	-0.7972397902	 0.147357
H	-0.5647799251	 1.5892381514	 0.9884662549	 0.140327
H	 0.8242744039	-6.8303874957	-1.3249499804	 0.204898
