18
gdb 127053	5.83468	0.73287	0.65915	5.6725	75.12	-0.2496	0.002	0.2515	1669.4883	0.147853	-435.255438	-435.246377	-435.245432	-435.291653	31.238	
C	-0.0049697714	 1.5060300777	-0.0160732425	-0.388233
C	 0.0077503854	-0.0120556341	-0.007522652	-0.027704
O	 0.6731168331	-0.4610482001	-1.1749921694	-0.235193
C	 0.7423272269	-1.8596144242	-1.2687723898	-0.174706
C	 1.460928171	-2.203699297	-2.5324281963	 0.324769
C	 2.013474499	-1.4299734557	-3.5249862124	-0.13379
N	 2.5581946144	-2.2474601318	-4.4716381184	-0.185501
N	 2.3768511839	-3.4858179034	-4.126042754	-0.116149
N	 1.7107561934	-3.4692734593	-2.9486465119	-0.253327
H	 1.0157030413	 1.8980894629	-0.027944078	 0.132365
H	-0.5275868299	 1.880242807	-0.9006412637	 0.132366
H	-0.5132475007	 1.8856367818	 0.8750093321	 0.11984
H	 0.5239237828	-0.3931154322	 0.8895641138	 0.091618
H	-1.0202085821	-0.4109718738	 0.0163966772	 0.091618
H	 1.2710162195	-2.286351916	-0.3966429339	 0.10599
H	-0.2698919564	-2.3041796552	-1.2680527553	 0.105984
H	 2.0446380949	-0.3569279722	-3.6017220349	 0.133644
H	 1.4723783348	-4.3442713446	-2.5095410204	 0.276408
