19
gdb 110421	4.59488	1.08764	1.00098	1.6682	75.72	-0.238	0.0775	0.3155	1225.7194	0.158482	-422.953326	-422.945086	-422.944142	-422.985918	32.075	
C	-0.0654960692	 1.2937190949	 0.2141013791	-0.239998
O	-0.1252648061	-0.0163217332	-0.3026035554	-0.254462
C	-1.3708461935	-0.6405283161	-0.0990685047	 0.162274
C	-1.3249490433	-2.0686645578	-0.6099457665	-0.178128
C	-0.9231389675	-2.606468667	 0.753804559	-0.116245
C	-1.5541395238	-1.2701499819	 1.3186502147	-0.114561
C	-2.9576044541	-1.9386019172	 1.2519480072	-0.308155
C	-2.3052903643	-2.8936160459	 0.2537280316	 0.388883
O	-2.7707334274	-4.1233015747	-0.1606069204	-0.462858
H	 0.9211410796	 1.6936126977	-0.0318423877	 0.126992
H	-0.833703953	 1.9431257876	-0.2349167536	 0.102985
H	-0.1923660896	 1.3202041453	 1.3068094307	 0.104448
H	-2.1826892507	 0.0213238809	-0.4464781362	 0.049908
H	-1.0108192843	-2.4254720803	-1.5825584804	 0.089398
H	-0.1117118698	-3.2455229833	 1.0660117781	 0.098774
H	-1.2300352625	-0.7401542914	 2.2110138213	 0.076383
H	-3.2107591242	-2.4565878033	 2.1814042465	 0.105451
H	-3.8015605035	-1.3159326289	 0.9294780399	 0.083273
H	-3.3805613126	-3.9877601452	-0.8944460332	 0.285637
