17
gdb 53574	4.70356	0.69836	0.63485	4.0571	78.01	-0.2549	0.0101	0.265	1737.2295	0.134107	-421.833992	-421.824577	-421.823633	-421.870387	32.38	
C	-0.0555888774	 1.543169553	 0.0716297378	-0.497213
C	-0.028887154	 0.0990974491	-0.1091257523	 0.104188
C	 0.000125033	-1.0953561157	-0.2525979878	 0.040786
C	 0.0058278778	-2.5432883798	-0.420517597	-0.369977
C	-1.2965320524	-3.2031526676	 0.0207378343	 0.147434
C	-1.3231051477	-4.7406554303	 0.0969778012	-0.443067
C	-1.5250201118	-4.4974208019	 1.5936301285	 0.451239
O	-1.6756017523	-5.140044297	 2.5810165469	-0.313141
O	-1.4888728599	-3.1306179121	 1.4773286841	-0.242353
H	 0.8415406034	 1.8937467615	 0.5934010652	 0.151427
H	-0.1066641355	 2.0657858749	-0.889831199	 0.147735
H	-0.9241743266	 1.8507049877	 0.6640196976	 0.153259
H	 0.1693419846	-2.8030892254	-1.4757331511	 0.134849
H	 0.8337078868	-2.9930465621	 0.1431821742	 0.135479
H	-2.1559511226	-2.7489716787	-0.4773779698	 0.110346
H	-2.1574333379	-5.2418363877	-0.3955445127	 0.145958
H	-0.3892800474	-5.248762368	-0.1530707402	 0.143051
