20
gdb 122598	4.10976	0.74929	0.68007	2.9642	77.49	-0.2448	0.0343	0.2791	1681.8828	0.16996	-440.298396	-440.28847	-440.287526	-440.334968	34.509	
C	 0.9848025071	 1.0701786018	 0.6249137736	-0.381708
C	 0.3152684032	 0.3634702147	-0.5418856377	-0.042934
O	 0.6117355258	-1.0188935006	-0.4514228499	-0.244134
C	-0.0343743329	-1.8275404671	-1.4141582979	-0.078674
C	 0.641654369	-1.7952784264	-2.7818778955	-0.170595
C	 2.0327004769	-2.4866114021	-2.8882708028	-0.168215
N	 1.4102501954	-3.4442738679	-3.8083244181	-0.320295
C	 0.1557437141	-2.8879459132	-3.7751138827	 0.413423
O	-0.8853419695	-3.1723381964	-4.3040255234	-0.362528
H	 0.6169885212	 0.6727111582	 1.574905386	 0.128191
H	 2.0684032786	 0.9255859308	 0.5900794577	 0.125506
H	 0.77654131	 2.1436887438	 0.590684825	 0.11572
H	-0.7764582514	 0.5148037545	-0.5129360515	 0.090964
H	 0.6734055397	 0.783834296	-1.4952300309	 0.087691
H	-0.0057914402	-2.8489381088	-1.0176556526	 0.110372
H	-1.0922858745	-1.5437493114	-1.523049535	 0.107908
H	 0.6135236292	-0.7946776143	-3.2202802845	 0.103288
H	 2.8246651672	-1.881051391	-3.3392957465	 0.112957
H	 2.394420494	-2.9272979729	-1.9540916769	 0.121554
H	 1.7736694972	-4.2431453974	-4.3064912761	 0.251509
