18
gdb 5940	4.45071	1.17503	1.16449	1.9488	69.3	-0.2626	0.0386	0.3013	1092.5894	0.150409	-384.908121	-384.89864	-384.897696	-384.941699	35.263	
C	-0.1126265452	 1.5888428032	 0.0102073224	-0.418853
C	-0.0805391572	 0.0585410466	-0.0469704542	 0.307882
O	 0.5127895	-0.4762038152	 1.1382070359	-0.477312
C	-1.5009258954	-0.5294815757	-0.0389953742	-0.055917
O	-2.195347823	-0.193381272	 1.1421962436	-0.428183
C	 0.6896969814	-0.4566250231	-1.2920704318	-0.375874
C	 2.1041947477	-0.1086644254	-1.2407588973	 0.27275
C	 3.2660413525	 0.1853899197	-1.1354462171	-0.429674
H	 0.8994873154	 1.9945416599	 0.1008094082	 0.118129
H	-0.5627368808	 2.0072180307	-0.89626379	 0.113082
H	-0.7066502144	 1.90818611	 0.8684342425	 0.134589
H	 1.4258411151	-0.1676552704	 1.1759662264	 0.287025
H	-2.0787889225	-0.1295162185	-0.8785982097	 0.104684
H	-1.4281718013	-1.6220024406	-0.1626400879	 0.087555
H	-1.6014258313	-0.427437509	 1.8663912889	 0.292852
H	 0.587780266	-1.5475568098	-1.3386820276	 0.135577
H	 0.2340695905	-0.050219815	-2.2033405236	 0.131057
H	 4.2957641723	 0.4391478546	-1.0778507045	 0.20063
