23
gdb 91340	2.85518	1.27673	1.06358	0.2731	91.99	-0.2238	0.0311	0.2549	1268.7528	0.20688	-351.174162	-351.165401	-351.164457	-351.207297	34.677	
C	-1.125497931	 1.0342871853	-0.0100451566	-0.407977
C	-0.1075035275	-0.0941212048	-0.072358887	 0.05101
C	 1.1813955929	 0.1066880313	-0.9205518432	-0.247523
C	 2.0342462995	-0.5323909726	 0.2143503069	-0.002416
C	 3.1631124384	 0.3299793364	 0.803080693	-0.318796
C	 2.4540642445	 1.1765959332	 1.8451296888	 0.328453
C	 3.1609397895	 2.2891391057	 2.5540056706	-0.489017
C	 1.1919741659	 0.7742047035	 2.0318899164	-0.175844
C	 0.7999333966	-0.3936027998	 1.1692556291	-0.077319
H	-0.6550744309	 1.9705213383	 0.3087765507	 0.1147
H	-1.5820250331	 1.206183619	-0.9915567417	 0.109165
H	-1.9337418533	 0.808868017	 0.6954566795	 0.108298
H	-0.6072990482	-1.0214806203	-0.3745743527	 0.064359
H	 1.2077196475	-0.3855393938	-1.8962111809	 0.091299
H	 1.4220607746	 1.1651807526	-1.0648046047	 0.093446
H	 2.3391296572	-1.5563771839	-0.0086082192	 0.060272
H	 3.9581427352	-0.2710347733	 1.2682732383	 0.096004
H	 3.6566255809	 0.9437696003	 0.0363844052	 0.09579
H	 3.5117306876	 3.0511256396	 1.8459201514	 0.122784
H	 2.5151442268	 2.7791397002	 3.2878595441	 0.120631
H	 4.0535092262	 1.9213152932	 3.0769568535	 0.122651
H	 0.5127672033	 1.227957311	 2.7477454942	 0.079674
H	 0.4924523776	-1.2616133282	 1.7640519943	 0.060357
