16
gdb 19771	3.13974	2.8928	2.38917	1.5081	61.54	-0.2238	0.0846	0.3084	676.8236	0.134091	-383.732913	-383.727309	-383.726365	-383.762485	23.038	
C	 0.021617906	 1.4996315153	-0.1953802158	-0.225329
C	 1.406357104	 2.1114613464	 0.1639306932	-0.217639
C	 2.3023695143	 1.0168842575	 0.7393776879	 0.17036
O	 1.6754805802	 0.4457536342	 1.8837576209	-0.264053
C	 0.7578801751	-0.4790014488	 1.3411003114	 0.046356
C	-0.0177082651	 0.0133503056	 0.1323182376	-0.125802
C	 1.2556024777	-0.796043415	-0.0369898835	 0.046357
O	 2.4320213763	-0.0361611131	-0.2109225272	-0.264052
H	-0.7755866971	 2.0118533898	 0.3527864513	 0.109824
H	-0.193402688	 1.6410024115	-1.2594160101	 0.109823
H	 1.8949757559	 2.5359406159	-0.7179645946	 0.107917
H	 1.3086015419	 2.9095459117	 0.9056681408	 0.107915
H	 3.2989209414	 1.365711849	 1.0190521359	 0.093409
H	 0.3762030134	-1.1815307907	 2.0697244453	 0.108144
H	-0.9460512892	-0.5077026113	-0.083100785	 0.088627
H	 1.3041596931	-1.7726332079	-0.4996263383	 0.108144
