18
gdb 89936	3.11792	1.36756	1.1174	2.3424	79.32	-0.2306	0.0194	0.25	1129.0705	0.146482	-401.867882	-401.859404	-401.85846	-401.900746	32.699	
C	 0.2891722475	 1.5975925208	-0.0418193229	-0.413615
C	 0.0340561266	 0.116439163	 0.1007271357	 0.160582
O	 0.8030711979	-0.6910819078	-0.8457288596	-0.348866
C	 1.2497798811	-1.5941637866	 0.1906243149	 0.268376
C	 2.6385676015	-1.2057937483	 0.7627002635	-0.221484
N	 1.9981407474	-0.1930590046	 1.6510096396	-0.319102
C	 0.6423135676	-0.6611545626	 1.2879759659	-0.143713
C	 0.9395209742	-2.9791946258	-0.0489586607	 0.245274
C	 0.6931649557	-4.1426262521	-0.2284301044	-0.415731
H	 1.3294389061	 1.8260326977	 0.1984677568	 0.140305
H	 0.0745406955	 1.9171261363	-1.0662423004	 0.125563
H	-0.3623023509	 2.1624572474	 0.634156436	 0.111839
H	-1.0338969134	-0.1160386168	-0.0176562547	 0.07795
H	 3.1164552632	-2.0356672944	 1.2950253666	 0.108545
H	 3.3325658067	-0.7864235843	 0.0283110791	 0.118953
H	 2.2171572649	-0.323303784	 2.6302783562	 0.226855
H	-0.0100445161	-0.9831837047	 2.1000104148	 0.082969
H	 0.4715489647	-5.1676456831	-0.3969274664	 0.195301
