18
gdb 126937	6.47026	0.80259	0.72766	3.1185	77.05	-0.2265	0.0176	0.2441	1582.21	0.147619	-435.288931	-435.279672	-435.278728	-435.323795	32.72	
C	 0.0802734548	 1.4712602473	-0.0652858841	-0.397199
C	-0.1683328951	-0.0214973801	 0.1215907184	-0.128509
N	 0.6011381198	-0.5304639249	 1.2512490369	-0.407256
C	 0.8336796519	-1.8434528212	 1.45680504	 0.544216
N	 1.3110038557	-2.4030765042	 2.5405604724	-0.41962
C	 1.3796485882	-3.7215705612	 2.1599467489	 0.370508
C	 1.8776388943	-4.7984609383	 3.0617362048	-0.48659
N	 0.9756940339	-3.9825833499	 0.9439439296	-0.197971
O	 0.5946846732	-2.6966129396	 0.4548728865	-0.222428
H	 1.139002517	 1.6715178925	-0.2521813924	 0.135565
H	-0.5000449052	 1.8468601778	-0.9121356632	 0.131349
H	-0.2241452669	 2.0383460526	 0.8218358155	 0.121437
H	-1.2427580309	-0.2135794965	 0.2573467296	 0.115297
H	 0.1431372369	-0.5751053711	-0.767871202	 0.144628
H	 0.6426530214	 0.0308230023	 2.0879149508	 0.262419
H	 1.268163192	-4.8434277257	 3.9693418475	 0.143786
H	 1.8422063466	-5.7642299692	 2.5556474592	 0.145865
H	 2.9067527124	-4.5887633804	 3.3685479117	 0.144502
