12
gdb 130822	3.29147	1.30861	0.93634	1.2745	62.9	-0.269	-0.113	0.156	1117.4774	0.076938	-472.630791	-472.623437	-472.622493	-472.663465	25.634	
O	-0.8497922154	 1.3060505411	 0.2034826588	-0.235176
C	 0.2607386281	 0.9527828288	-0.0948743936	 0.093819
C	 1.4678121688	 1.8899338439	-0.2438239252	 0.189457
O	 2.5310402003	 1.3870505667	-0.5513827055	-0.297679
C	 1.2890382755	 3.3191572804	-0.013653071	 0.05058
C	 0.1778593526	 4.0424644582	 0.3339500954	 0.013209
O	 0.4769695619	 5.3300737858	 0.437262828	-0.157997
N	 1.844789029	 5.5158379824	 0.1522359182	-0.116068
C	 2.3020188005	 4.3249768063	-0.1096344344	-0.027301
H	 0.5341892305	-0.1029374621	-0.2969917645	 0.122978
H	-0.8433233395	 3.758467409	 0.5275014748	 0.197745
H	 3.3431915577	 4.1896085895	-0.3634057709	 0.166433
