16
gdb 48262	1.70402	1.3903	0.86949	3.2707	77.93	-0.2586	0.0132	0.2718	1324.0309	0.121038	-400.692781	-400.683075	-400.682131	-400.728492	34.209	
O	-0.375298023	-0.1867517881	 0.1066599651	-0.333364
C	-0.2844118308	 1.0182968724	 0.0272444466	 0.164561
N	 0.8862564923	 1.7192472276	-0.0485117809	-0.030297
C	 0.9030000474	 3.1737591366	-0.0969014332	-0.340973
C	 1.3993838547	 3.7882976724	 1.1365994502	 0.323311
C	 1.8195571378	 4.2806539806	 2.1486015599	-0.451368
C	 2.1594486363	 1.0037671961	-0.0021644943	-0.321487
C	 2.9707066241	 1.2205073791	-1.1984794145	 0.308936
C	 3.6411219777	 1.4187994008	-2.1756719089	-0.453419
H	-1.164208865	 1.6902149497	 0.0023083641	 0.082113
H	 1.5210177523	 3.496828469	-0.9442436568	 0.157503
H	-0.1179521254	 3.5155956632	-0.2998685336	 0.148855
H	 2.18356401	 4.7213946645	 3.0439795824	 0.209369
H	 2.7209020249	 1.3149708171	 0.8883576963	 0.150274
H	 1.9052769486	-0.0539739545	 0.1109828581	 0.179794
H	 4.2353370781	 1.5747265934	-3.0421379004	 0.206193
