19
gdb 32982	2.71973	1.32419	1.05273	2.7059	78.25	-0.219	0.0206	0.2395	1199.9738	0.160205	-419.233325	-419.224189	-419.223245	-419.267774	32.521	
C	-0.0405039123	 0.6004133535	 0.2871893131	-0.239876
O	-0.2269876153	 0.3529472558	-1.0935795272	-0.230793
C	 0.7680811443	-0.4965332271	-1.651775884	-0.201279
C	 0.6860932971	-1.9184149006	-1.1853287574	 0.307124
N	 1.6502045226	-2.5647033349	-0.5571534811	-0.304659
C	 1.1633906352	-3.8285574339	-0.335369957	-0.103433
C	-0.1104953817	-3.9416286017	-0.8269597539	-0.129742
N	-0.4145985262	-2.7138800614	-1.3696256823	-0.01799
C	-1.6500635561	-2.3551620931	-2.0460889283	-0.35706
H	-0.0666338099	-0.3234203717	 0.8806272547	 0.123083
H	 0.9199581466	 1.1027194761	 0.4757609394	 0.112408
H	-0.8543504855	 1.2559986856	 0.6056336185	 0.124919
H	 0.6246592935	-0.4251275182	-2.7359065102	 0.112656
H	 1.7789794378	-0.1390510437	-1.4149177452	 0.125093
H	 1.7494992583	-4.5795844817	 0.172257337	 0.105731
H	-0.8213023353	-4.7521110123	-0.836584823	 0.121961
H	-2.4838226729	-2.895832283	-1.5925376039	 0.140513
H	-1.8191521195	-1.2841817477	-1.931819712	 0.173044
H	-1.6093379707	-2.60665095	-3.1117656572	 0.138301
