17
gdb 31402	2.9296	1.32614	0.92319	4.6927	80.29	-0.2306	-0.0564	0.1742	1243.0024	0.136265	-418.044884	-418.036571	-418.035627	-418.078479	30.671	
C	-0.0699042021	 1.5512879172	 0.1103728515	-0.374237
C	 0.01868964	 0.0344113176	-0.0319121069	-0.278856
C	 0.7261734443	-0.4538730037	-1.271469807	 0.322163
N	 1.1976931978	 0.4114361169	-2.1119726866	-0.32067
C	 1.848736979	-0.0053366032	-3.2527985829	 0.42249
N	 2.3267759717	 0.7961004462	-4.1059434837	-0.519092
O	 1.9878052927	-1.4067763797	-3.4802465524	-0.226778
C	 1.489238476	-2.273382049	-2.5922317068	 0.095203
C	 0.8529808875	-1.8807581976	-1.4771879007	-0.232187
H	 0.9249987776	 2.0018265351	 0.135124985	 0.13773
H	-0.6024801332	 1.9941400501	-0.7343927171	 0.137864
H	-0.5961242058	 1.8136280234	 1.0325760383	 0.106984
H	 0.5294629307	-0.4097691198	 0.8347713436	 0.123349
H	-0.9840009899	-0.4172181364	-0.026447358	 0.123437
H	 2.7638051064	 0.2814463768	-4.8694236806	 0.225034
H	 1.66325011	-3.3033696036	-2.8857527014	 0.143974
H	 0.4582504573	-2.6003351901	-0.7734984842	 0.113592
