21
gdb 105631	2.03658	1.43331	1.1452	3.1318	82.93	-0.2478	0.0245	0.2723	1221.1784	0.182421	-383.272713	-383.262952	-383.262007	-383.307123	36.167	
C	-0.0199797302	 1.6390307486	 0.0174805166	-0.403333
C	-0.3680859939	 0.164907821	-0.2107160871	-0.230033
C	 0.5990067506	-0.5340320777	-1.1729950202	 0.158317
N	 1.9995617071	-0.6322077151	-0.6855904179	-0.33249
C	 2.1377018536	-2.0075467758	-1.2224057848	-0.176492
C	 0.5913905772	-2.1102117634	-1.3054321207	-0.035738
C	-0.0608806206	-2.8816088451	-0.1663181918	-0.416287
C	 0.5125246639	 0.0799451359	-2.5117634116	 0.260745
N	 0.4740197904	 0.5672091159	-3.5606635323	-0.355587
H	 0.9914874752	 1.73702133	 0.4241907636	 0.12741
H	-0.0732615698	 2.2124859583	-0.913204025	 0.1389
H	-0.7127861316	 2.0921413144	 0.7319669732	 0.119535
H	-0.3316592742	-0.371408723	 0.7410703951	 0.110109
H	-1.3877872617	 0.0708796027	-0.6033104167	 0.108975
H	 2.6425008771	 0.0583104208	-1.057965754	 0.231441
H	 2.6195000685	-2.066092966	-2.2062501311	 0.110274
H	 2.6389870491	-2.6994059023	-0.5375586455	 0.10623
H	 0.2080982924	-2.458013702	-2.2657018573	 0.097006
H	 0.3532858229	-2.594626154	 0.8045285951	 0.134418
H	-1.1441379039	-2.7282507537	-0.1387537934	 0.124468
H	 0.1187733177	-3.9535775593	-0.3001702942	 0.122132
