23
gdb 95408	2.78114	1.14336	0.88591	1.203	88.15	-0.2274	0.027	0.2544	1386.1569	0.206707	-388.312003	-388.302656	-388.301712	-388.345701	36.511	
C	-0.1661053326	 1.536174128	 0.0278413997	-0.478446
C	-0.0177140417	 0.0375616009	 0.0076676161	 0.343378
C	-0.0553218234	-0.6533595265	-1.1350167492	-0.148788
C	 0.0896375703	-2.1503381054	-1.2648008076	-0.2661
C	 1.417155441	-2.7186344404	-0.723835257	-0.202627
C	 1.5141340542	-2.7730375332	 0.8048739435	 0.136682
O	 2.73065427	-3.3959277441	 1.2107091771	-0.440375
C	 1.4952384847	-1.4156605391	 1.5075534708	-0.172236
C	 0.1795414252	-0.6276335572	 1.3575395186	-0.317963
H	 0.7146539027	 2.0151880212	 0.4760963439	 0.121588
H	-0.3027746955	 1.9470816108	-0.9761356562	 0.116491
H	-1.0254021075	 1.8393311952	 0.6407482213	 0.120928
H	-0.1953846447	-0.1026328252	-2.0630644775	 0.073382
H	-0.742224353	-2.6603150206	-0.7551881111	 0.102779
H	-0.0003036907	-2.4237898199	-2.3206569051	 0.097434
H	 1.5331039673	-3.746010814	-1.0989449615	 0.074813
H	 2.2621465623	-2.1407660316	-1.1159112016	 0.103308
H	 0.6530253291	-3.3578765732	 1.1781794242	 0.055474
H	 2.8027143854	-4.2358828867	 0.7459990433	 0.276096
H	 1.6808106881	-1.6090749252	 2.5697848973	 0.101925
H	 2.3371643512	-0.8145668244	 1.1444864477	 0.100641
H	 0.1475669481	 0.139024838	 2.1383649735	 0.096348
H	-0.6642252202	-1.3010899274	 1.5684252899	 0.105269
