20
gdb 98316	4.16148	0.81723	0.69227	3.0991	84.73	-0.2292	0.0163	0.2455	1656.6327	0.169345	-436.507637	-436.496601	-436.495657	-436.545012	37.395	
C	 0.0289941198	 1.460627458	 0.0383757721	-0.330125
N	 0.0106971443	 0.0133410345	-0.0505399558	-0.380533
C	 0.6017903792	-0.635818236	-1.0996748637	 0.531144
O	 1.1074612691	-0.0527270358	-2.0439725593	-0.414074
N	 0.5661536366	-2.0378984184	-1.0162900379	-0.184464
C	-0.0805817154	-2.75333257	 0.0752062993	-0.368162
C	 1.1733760626	-2.7616139382	-2.0390584701	 0.127686
N	 1.1921006212	-4.0285677047	-2.0540812343	-0.261169
C	 1.853223382	-4.6687029398	-3.1726548192	-0.311813
H	 0.7786588765	 1.8207519979	 0.7540529647	 0.124972
H	 0.2771624611	 1.8496622101	-0.9488706243	 0.173668
H	-0.9533004491	 1.8368365129	 0.3404688379	 0.124346
H	-0.2851790538	-0.5075344762	 0.7553393274	 0.247294
H	-1.1349442206	-2.4699711225	 0.1634235205	 0.131349
H	-0.0145119859	-3.8158181559	-0.1565026376	 0.178545
H	 0.4252934659	-2.5738820354	 1.0320111402	 0.127025
H	 1.6125153666	-2.1085981416	-2.7956533621	 0.13726
H	 1.144606812	-5.3197345562	-3.6985434635	 0.122843
H	 2.2787312401	-3.9612535464	-3.9017104178	 0.101705
H	 2.6615461177	-5.3126874465	-2.8059928265	 0.122504
