16
gdb 25720	2.76191	1.54497	0.99752	3.546	76.86	-0.1982	-0.0291	0.1691	1131.1412	0.125325	-434.141095	-434.132534	-434.131589	-434.174334	31.667	
C	-0.0012156836	 1.526019736	-0.0025627711	-0.507239
C	 0.0513576219	 0.0050749794	 0.0257340281	 0.314312
O	 1.1295655647	-0.5909820844	 0.014190005	-0.375585
C	-1.1836433031	-0.7226751923	 0.058342596	 0.151245
C	-1.3660865738	-2.1115371165	 0.0614734883	 0.301559
N	-0.3857112192	-3.0466952623	 0.1271393361	-0.589407
N	-2.694798289	-2.4337867474	 0.031271002	-0.317822
C	-3.3272704494	-1.2727335771	 0.0187499278	 0.023267
N	-2.4905552937	-0.216769029	 0.0365419519	-0.346884
H	 1.0170125185	 1.9154460987	-0.030130201	 0.147094
H	-0.545212813	 1.8853687189	-0.8842195876	 0.128661
H	-0.510244541	 1.9186125314	 0.8857452281	 0.130023
H	 0.5484554321	-2.700322635	-0.0433904144	 0.276104
H	-0.622493791	-3.9817988176	-0.1596940463	 0.25772
H	-4.4012068974	-1.1567787508	-0.0014806828	 0.138736
H	-2.7535477231	 0.7534454379	 0.03382663	 0.268215
