21
gdb 81213	2.85273	1.59207	1.42928	0.2893	87.88	-0.2373	0.0181	0.2554	1037.6942	0.18462	-349.89155	-349.884189	-349.883244	-349.922806	31.013	
C	-0.120355824	 1.549243571	 0.1166913832	-0.448236
C	 0.0581841647	 0.0436529337	-0.0128777957	 0.052602
C	 1.2240252592	-0.5872557174	-0.8117044024	-0.106556
C	 2.1879718062	-0.197750747	 0.3765808934	-0.333016
C	 0.900482775	-0.7832333577	 1.0337817789	 0.324656
C	 0.2648986013	-1.3571225881	 2.2893804119	-0.409552
C	-0.5786977508	-2.4636537217	 1.6356956576	-0.035496
C	-0.2522396721	-2.7190185779	 0.3582504562	-0.157143
C	 0.9746001524	-1.9200773354	-0.0109790814	-0.00742
H	 0.801847055	 2.0892037086	 0.3464805394	 0.11488
H	-0.5205117776	 1.9659134251	-0.8148388376	 0.114876
H	-0.8427338725	 1.7807588963	 0.9080174234	 0.113731
H	-0.9091866698	-0.4152381897	-0.2339666108	 0.067614
H	 1.4404491281	-0.4726158129	-1.8763686335	 0.062558
H	 3.096058235	-0.7986020389	 0.4777659958	 0.09089
H	 2.4101782101	 0.8613794159	 0.5097233897	 0.09318
H	 0.9896321068	-1.7832299846	 2.9972609244	 0.109212
H	-0.3463771285	-0.6388058288	 2.8477619786	 0.104682
H	-1.3580886666	-2.9814307311	 2.1865173567	 0.090702
H	-0.7175816175	-3.4864699981	-0.2508594362	 0.088239
H	 1.8732622558	-2.5498801012	 0.0334924685	 0.069596
