20
gdb 53410	4.03158	0.89091	0.80465	1.3553	88.11	-0.226	0.0664	0.2924	1500.5629	0.17207	-365.97997	-365.970967	-365.970023	-366.017009	33.021	
C	-0.0100695883	 1.5090491932	-0.0141412224	-0.498667
C	-0.0045076406	 0.0528765361	 0.0006666105	 0.078884
C	-0.0029822611	-1.1513835604	 0.0169785414	 0.064871
C	-0.0040792502	-2.608905089	 0.0369393549	-0.158712
C	 0.668329131	-3.2349017174	 1.2969034452	-0.223022
C	 0.0449010735	-4.642973643	 1.4344932543	-0.218813
C	-1.3489082489	-4.4853099716	 0.8521697175	-0.031645
N	-2.0422340357	-3.2731592515	 1.3457828409	-0.330836
C	-1.389127002	-3.2585325546	 0.0226531838	-0.037265
H	 1.0087726376	 1.9126816138	-0.0085385	 0.144103
H	-0.513007283	 1.8981958572	-0.9067274552	 0.143128
H	-0.5303177886	 1.9146371274	 0.8608063306	 0.146551
H	 0.5195203282	-2.9741786255	-0.8588310383	 0.093813
H	 1.7566120906	-3.254605098	 1.208427007	 0.098054
H	 0.4105606188	-2.6279012072	 2.1654610248	 0.131738
H	 0.5976328518	-5.3817631284	 0.8411224509	 0.096471
H	 0.0381727114	-4.9900392834	 2.4725347923	 0.103012
H	-1.938391455	-5.3616592683	 0.6013058269	 0.081992
H	-3.0448108225	-3.3826930251	 1.2178201623	 0.229627
H	-2.0013354669	-3.1758763942	-0.8692497774	 0.086716
