17
gdb 114589	2.71295	1.21911	0.97365	0.7811	76.13	-0.2447	0.018	0.2627	1225.48	0.133576	-421.743775	-421.734943	-421.733999	-421.777446	32.937	
O	 0.0198148107	 1.3781165174	-0.2565250295	-0.424888
C	 0.0098282061	 0.0078278213	 0.1220786836	-0.097982
C	-1.4164553418	-0.4858909816	-0.0127995983	-0.073208
C	-2.033870023	-0.5962231868	-1.4521112458	-0.25781
C	-2.2237569577	-2.0965892713	-1.2100895317	-0.06168
O	-0.9393789672	-2.653496734	-0.9326371667	-0.287533
C	-1.6395944964	-2.0083082883	 0.1522954143	 0.276342
C	-1.885760862	-2.7358092611	 1.3490577511	 0.201315
C	-2.0906081144	-3.3036314935	 2.389361837	-0.394417
H	 0.9323141452	 1.6812415805	-0.261008646	 0.288346
H	 0.6620354917	-0.5960046254	-0.5239806047	 0.103755
H	 0.3493501875	-0.1239807808	 1.1622597029	 0.092498
H	-2.0755923933	 0.0792962307	 0.6509918055	 0.093238
H	-2.97101092	-0.0452519596	-1.5502510638	 0.113669
H	-1.371604062	-0.3447112836	-2.2830451231	 0.119559
H	-2.9826515909	-2.7710921765	-1.5899884336	 0.116131
H	-2.2735523725	-3.8180022873	 3.3003311589	 0.192665
