20
gdb 8204	2.6646	2.32483	1.60361	1.6522	74.64	-0.2462	0.083	0.3292	897.9451	0.177345	-349.009195	-349.001193	-349.000248	-349.040791	31.201	
C	-0.0299643555	 1.5141139743	-0.0338235038	-0.488448
C	 0.0057714037	 0.0077859113	 0.0259575329	 0.283393
C	 1.2708264774	-0.7694399095	-0.2611099122	-0.373634
C	 0.6696721871	-0.8039414643	 1.1260721408	 0.283392
C	 1.3882260674	-0.2198631263	 2.3162012406	-0.488448
C	-0.2669895088	-1.9804932374	 1.3606275366	-0.132711
O	-1.0913723955	-2.0702121244	 0.2046539476	-0.255347
C	-1.2707432752	-0.7532411372	-0.3026374833	-0.132711
H	 0.9088201629	 1.9536110317	 0.3155541435	 0.118405
H	-0.1895099162	 1.8646197802	-1.0604305456	 0.121012
H	-0.8400328222	 1.9204836138	 0.5834041889	 0.116088
H	 1.2080702806	-1.6598098024	-0.8802048349	 0.116892
H	 2.1824761709	-0.1933304091	-0.3861869824	 0.102425
H	 1.9529686212	 0.6770092129	 2.0456010552	 0.118405
H	 0.6865827175	 0.0540245579	 3.11306967	 0.116088
H	 2.1022342655	-0.9375572461	 2.7373175253	 0.121012
H	 0.242354617	-2.9442948355	 1.4734365625	 0.104101
H	-0.8688579491	-1.8008746943	 2.2686924546	 0.082993
H	-2.1333484919	-0.2548281532	 0.1733743479	 0.082993
H	-1.4768304968	-0.8423140022	-1.3753279841	 0.104101
