21
gdb 64659	3.68202	1.01381	1.00253	0.7172	88.05	-0.2534	0.0542	0.3076	1306.4228	0.181365	-349.894178	-349.885054	-349.88411	-349.927774	35.535	
C	-0.0385891802	 1.6477280609	 0.3376043935	-0.474909
C	 0.0048609819	 0.1434915823	 0.1515496775	 0.351953
C	-1.3113815795	-0.4383597415	-0.3816465016	-0.436426
C	-1.6615419236	 0.0346579014	-1.7185925308	 0.32274
C	-1.9388399484	 0.4314943738	-2.8190420265	-0.456344
C	 1.217686823	-0.6095408548	-0.336974513	-0.075908
C	 2.5281717228	-0.0160333925	 0.1941650151	-0.246886
C	 2.0068544571	-0.2044875141	 1.656259152	-0.250139
C	 0.7052188705	-0.7979200651	 1.1018766757	-0.104608
H	 0.912201946	 2.056891094	 0.684263625	 0.118625
H	-0.2910334277	 2.1415078116	-0.6062849848	 0.130827
H	-0.8043830708	 1.9237036252	 1.0725978207	 0.110978
H	-1.2461829074	-1.5336414879	-0.3952405472	 0.126038
H	-2.1246843963	-0.1898656265	 0.3138536475	 0.126866
H	-2.1884904011	 0.7759870665	-3.7917546825	 0.193192
H	 1.1435626011	-1.28454297	-1.1824533683	 0.08496
H	 3.3890392232	-0.6544234993	-0.0158932523	 0.10341
H	 2.7712871555	 1.001606888	-0.1271707224	 0.0981
H	 2.5968331228	-0.9398491911	 2.2075486232	 0.103756
H	 1.9116186454	 0.6923042181	 2.2765499386	 0.09661
H	 0.1815725255	-1.6444632992	 1.5335363305	 0.077164
