21
gdb 20084	3.27903	1.45892	1.22017	1.3775	79.6	-0.2087	0.0813	0.29	1100.2755	0.187802	-329.080534	-329.071477	-329.070533	-329.114382	33.368	
C	-0.9166177287	 1.4389299851	 1.4656149251	-0.414725
C	-0.6975283665	 0.0962084632	 0.8005121647	-0.010531
C	-1.3901163868	-0.3212651805	-0.4611002229	-0.016718
C	-2.3649342235	 0.5486953621	-1.1922935141	 0.016449
C	-2.840675031	 0.1284750133	-2.5655188609	-0.268091
C	-3.777587653	 0.0490222704	-1.3893754854	-0.275847
N	 0.0575176305	-0.0826022131	-0.4442993331	-0.113522
C	 0.620926867	 1.0621430588	-1.1432862633	-0.308817
H	-0.0152904722	 1.7533883589	 2.0036185017	 0.121202
H	-1.1801280305	 2.2353445009	 0.7675299596	 0.119159
H	-1.7266111453	 1.3617294285	 2.1988644584	 0.122816
H	-0.4865214784	-0.6926586773	 1.5239697516	 0.082703
H	-1.6344969493	-1.3807111628	-0.5648855713	 0.076118
H	-2.2687214432	 1.6171594065	-1.0396137396	 0.081106
H	-3.0077719354	 0.8994549359	-3.3094615979	 0.110863
H	-2.452610607	-0.801552836	-2.9677057902	 0.115933
H	-4.0214984385	-0.934474905	-1.0009469137	 0.113613
H	-4.5885937944	 0.7654322106	-1.3224072012	 0.111161
H	 0.0181112903	 1.9811357471	-1.1301701617	 0.09554
H	 1.5975178118	 1.2957510998	-0.7063933101	 0.118464
H	 0.780929274	 0.7870352336	-2.1907780057	 0.123121
