19
gdb 91219	2.06593	1.69079	1.58213	3.0894	76.59	-0.2105	0.022	0.2326	1018.3003	0.158906	-419.20366	-419.194853	-419.193909	-419.236777	33.03	
C	-0.315001152	 1.4119315085	 0.0113714339	-0.336728
N	 0.1250653606	 0.0302937319	 0.0044222109	-0.099336
C	 1.2226517998	-0.4010685346	-0.8838727793	-0.190102
C	 1.8723161128	-1.1673822803	 0.2960728985	-0.051975
N	 2.8312438977	-0.3759647419	 1.0656602003	-0.325982
C	 1.876030041	 0.2897550875	 1.8190959823	 0.380218
O	 1.9427507684	 1.2254433247	 2.5714295237	-0.3671
C	 0.7372069292	-0.5825304036	 1.2068735009	 0.184788
C	-0.1902741906	-1.323138224	 2.1353103355	-0.481702
H	 0.4932252366	 2.1386930828	 0.197861787	 0.114017
H	-0.7764036551	 1.6480224186	-0.953445767	 0.120402
H	-1.0744417732	 1.5488839247	 0.787350085	 0.130158
H	 0.8740134475	-1.0151220529	-1.7220242465	 0.108094
H	 1.859453335	 0.4056550319	-1.2750386783	 0.091267
H	 2.1014425611	-2.227350492	 0.1960744098	 0.093259
H	 3.7348858196	-0.0271850049	 0.7701700266	 0.242331
H	-0.8119158808	-0.6113901484	 2.6895695566	 0.137675
H	-0.8496022013	-1.9897186527	 1.5728158676	 0.124075
H	 0.3744055737	-1.9074709853	 2.8686515826	 0.126639
