20
gdb 103815	2.68042	1.09081	0.942	2.0972	76.78	-0.2466	0.0255	0.2721	1337.2416	0.1689	-440.313385	-440.303108	-440.302164	-440.348556	37.883	
C	-0.0340344868	 1.5537718793	 0.0484557528	-0.398914
C	-0.2651062484	 0.0540883828	-0.1775291464	-0.241224
C	 0.6465730648	-0.5179734482	-1.2440021082	 0.410221
O	 0.4442756621	 0.0117987803	-2.5332385783	-0.474652
C	 2.0381254464	-0.9704491712	-0.9190138781	-0.344616
C	 0.9863817489	-1.9983810097	-1.3111698098	-0.179987
C	 0.502835314	-2.9544935982	-0.2664099508	 0.414366
N	-0.0523683941	-4.1016546116	-0.7615508133	-0.534068
O	 0.6055524393	-2.7534902192	 0.9327657572	-0.378538
H	 0.9959887922	 1.7549749275	 0.3627142492	 0.118799
H	-0.2324968717	 2.1348705399	-0.8596115282	 0.105151
H	-0.7003775817	 1.9365777269	 0.8266610749	 0.119314
H	-0.108296922	-0.4974804695	 0.7519203272	 0.141191
H	-1.3044846832	-0.1139381843	-0.4858773897	 0.097869
H	 0.7684526283	 0.918989204	-2.5296934467	 0.285052
H	 2.8228020751	-0.7699025343	-1.6392126067	 0.111326
H	 2.3328317869	-0.9961206917	 0.1245731572	 0.138952
H	 1.0402150819	-2.377178204	-2.3261456755	 0.091056
H	-0.2715945019	-4.2051543593	-1.7368077822	 0.259405
H	-0.4803237401	-4.7334301595	-0.1042975345	 0.259298
