17
gdb 35808	2.51796	1.73129	1.29549	1.7638	72.17	-0.2556	0.0319	0.2876	1004.8444	0.136405	-421.762872	-421.755115	-421.754171	-421.79588	29.278	
C	 0.0924351959	-0.9910074552	 0.641254272	-0.471036
C	 0.0765920195	 0.1524875743	 0.273060058	 0.391868
C	 0.0123390955	 1.5448897958	-0.1721779898	-0.159787
O	-0.8296621099	 2.3428917266	 0.6644444237	-0.241746
C	-0.0285625402	 2.8444056899	 1.731563901	-0.104938
C	 1.3228591199	 3.2011561906	 1.0925437873	-0.091834
C	 2.5735332004	 2.4269368761	 1.5570483144	-0.089352
O	 2.4945107663	 1.5322964307	 0.4249004742	-0.279136
C	 1.3950263261	 2.2692750703	-0.1360823382	 0.124364
H	 0.1155265876	-2.0033422316	 0.9614478692	 0.199449
H	-0.4294285447	 1.5876088258	-1.1730262681	 0.109668
H	-0.5579669754	 3.6996262083	 2.1571578264	 0.114703
H	 0.0948705506	 2.0814135708	 2.5146622515	 0.104278
H	 1.4471728757	 4.2697874596	 0.9206379429	 0.089266
H	 3.5047504628	 3.0050361359	 1.5441475673	 0.106136
H	 2.4904412879	 1.8937760323	 2.5117450318	 0.109586
H	 1.6508266022	 2.6988935199	-1.1094730736	 0.088509
