18
gdb 28512	3.13368	1.31537	0.93052	1.1286	86.42	-0.1673	0.0236	0.1909	1228.6023	0.150829	-398.194817	-398.186296	-398.185352	-398.227171	34.12	
N	-0.0012063212	 1.4251729816	 0.1234978179	-0.595718
C	-0.0011704342	 0.0208725803	 0.0425889314	 0.311923
C	-1.1955858437	-0.7016966781	 0.0906780559	-0.209486
C	-1.1688166454	-2.0946434297	 0.0590201496	-0.164673
C	 0.0271715365	-2.7996493943	-0.0012634675	 0.203824
N	 0.1037860445	-4.2184991742	 0.0138872338	-0.612832
C	 1.2358924474	-2.0756144973	-0.0230887209	 0.293316
N	 2.4357169872	-2.7990359735	-0.1072808483	-0.606588
C	 1.2077890421	-0.6828216276	-0.0121172598	-0.273028
H	 0.7925271745	 1.8562126734	-0.3305707934	 0.238389
H	-0.8587610988	 1.8442537267	-0.2094820265	 0.239235
H	-2.1447787205	-0.1778078375	 0.1423987316	 0.071469
H	-2.1054151603	-2.6462512084	 0.0765525865	 0.073866
H	-0.8152259657	-4.6430422644	-0.0092075817	 0.235303
H	 0.639990002	-4.5710967893	-0.7740185777	 0.243376
H	 2.3915933876	-3.6614669049	 0.424499405	 0.249856
H	 3.2495802739	-2.259734739	 0.1555418937	 0.238716
H	 2.1465966141	-0.1341211637	-0.0267495897	 0.063052
