15
gdb 125074	3.17178	1.25275	0.90322	5.5128	71.59	-0.2307	-0.0165	0.2142	1211.0312	0.112452	-453.967779	-453.959338	-453.958394	-454.002447	29.406	
C	 0.0498545112	 1.5131881742	 0.0294777784	-0.501681
C	-0.0361109408	 0.0292810319	 0.0600194328	 0.347781
C	-1.0719422991	-0.8602098246	 0.0220478268	 0.140653
N	-2.4370326208	-0.5694288235	-0.0649709508	-0.421678
C	-3.4457696654	-1.4911273252	-0.1389032582	 0.142403
O	-3.3006845266	-2.6925885139	-0.1379443191	-0.304496
C	-0.43757854	-2.135595445	 0.0943011461	-0.018325
N	 0.8631572224	-2.0190223611	 0.1705310739	-0.134712
O	 1.1227203746	-0.6539004978	 0.1505638252	-0.208102
H	 0.7780123738	 1.8429273193	-0.7179475521	 0.161186
H	-0.9169635995	 1.9561193071	-0.2250422307	 0.125394
H	 0.362720145	 1.9174865505	 0.9985962218	 0.157393
H	-2.7053603987	 0.4024786229	-0.0695388857	 0.255514
H	-4.433201643	-0.9957070182	-0.1997288519	 0.087982
H	-0.9073179332	-3.1050476267	 0.0886348134	 0.170687
