15
gdb 49487	2.3021	1.58538	1.12832	5.181	66.69	-0.2423	-0.0468	0.1955	1064.0527	0.110206	-457.719003	-457.710996	-457.710052	-457.752278	28.678	
O	 0.0313572819	 0.0173151586	-0.5603851646	-0.268026
C	-0.0073964627	 1.1715731885	-0.2052373833	 0.125156
C	 1.2322008284	 1.9732905209	 0.0166739383	-0.127074
C	 1.28011879	 3.4706051657	-0.121233295	 0.074325
O	 0.0593970848	 4.0756620259	 0.3217277749	-0.276327
C	 0.3461697459	 3.6826179602	 1.6786968855	 0.036037
C	-0.762427829	 3.0055282183	 2.4495459554	 0.146603
O	-1.8497289543	 2.73296763	 2.0171426386	-0.229231
C	 1.5643529463	 2.8675091439	 1.2249317007	-0.193068
H	-0.961441798	 1.7061779007	-0.0536292805	 0.130188
H	 2.1272636333	 1.4696087907	-0.3398973061	 0.121522
H	 1.8880956461	 4.0163668221	-0.8321982608	 0.128004
H	 0.6741212677	 4.5562370355	 2.2637391616	 0.117891
H	-0.4717582212	 2.7779688967	 3.5018351525	 0.088375
H	 2.4893653008	 2.7474907523	 1.7703476828	 0.125626
