18
gdb 30025	3.16322	1.69746	1.17782	1.8878	86.96	-0.1839	-0.0091	0.1747	1044.6639	0.150426	-364.865291	-364.858017	-364.857073	-364.896807	29.242	
C	-0.0663058143	 1.5658970691	 0.0463077665	-0.387418
C	 0.002518882	 0.0344660127	 0.0117335069	-0.050453
C	 0.7926834736	-0.523908652	-1.1612102437	-0.107006
C	 1.8322967982	-1.2585206848	-0.7270486879	-0.216103
C	 1.8318227697	-1.276215502	 0.7225217797	 0.356375
C	 2.4835752274	-1.746145055	 1.8462765471	-0.319323
C	 1.7621607541	-1.2478333576	 2.9679656225	-0.140178
C	 0.6985145806	-0.4959992976	 2.5005824329	-0.133959
N	 0.7535208782	-0.5220667999	 1.1354365206	-0.002673
H	 0.9401188298	 1.9923811467	 0.0394936349	 0.13522
H	-0.6118664229	 1.9398807267	-0.8253083599	 0.121508
H	-0.5856315435	 1.9108517107	 0.9458143212	 0.122597
H	-1.0195903949	-0.3705517076	 0.0127730613	 0.106431
H	 0.5191662047	-0.3184356601	-2.1866478599	 0.103927
H	 2.5621322993	-1.7657913837	-1.3428354425	 0.111632
H	 3.3634977902	-2.3698830794	 1.8670044163	 0.093738
H	 1.9927627103	-1.4229867624	 4.0080669412	 0.091954
H	-0.0748586225	 0.0365881262	 3.0306700527	 0.113731
