20
gdb 104925	2.02947	1.5436	1.0241	2.6512	76.79	-0.2538	-0.0378	0.216	1221.0348	0.168448	-440.274294	-440.264178	-440.263234	-440.309222	36.986	
C	-0.0132161104	 1.4544810242	-0.0729453925	-0.436983
C	 0.0386186738	-0.0546495831	 0.094670579	 0.270845
C	-1.0816644685	-0.7671853365	-0.6414747063	-0.481226
N	 1.3811881171	-0.6363918506	 0.0953595154	-0.402782
C	 0.6273309041	-0.6483238906	 1.3685986318	 0.145486
C	 1.2286840426	 0.1735764081	 2.4915490605	-0.139075
O	 2.4374419715	-0.4202721668	 2.9360246679	-0.419767
C	 0.1498429569	-1.9899137261	 1.8264184412	 0.113216
O	 0.1532928999	-2.9858975297	 1.1402874128	-0.272543
H	 0.8936996919	 1.9390534484	 0.2881752682	 0.133949
H	-0.1138456253	 1.6954105443	-1.1369893929	 0.125404
H	-0.8779847544	 1.8804077113	 0.4466067345	 0.121834
H	-0.9875767747	-0.5696134686	-1.7153218768	 0.125952
H	-1.0631119203	-1.8462016827	-0.4899562392	 0.154632
H	-2.0573157948	-0.3837359485	-0.3239470943	 0.123344
H	 1.3418196894	-1.5870719923	-0.2777187351	 0.243863
H	 1.3806693808	 1.2142172097	 2.1855094633	 0.097488
H	 0.5547040062	 0.1793853333	 3.3562485807	 0.110838
H	 2.9988505045	-0.4989960656	 2.1549101968	 0.294854
H	-0.2027579504	-2.0226434682	 2.8786206149	 0.090669
