15
gdb 87114	3.38595	1.05763	0.92618	5.3769	64.4	-0.24	-0.091	0.149	1235.3382	0.108407	-494.883213	-494.873934	-494.87299	-494.918218	32.867	
O	-0.2466276749	 1.3305552899	-0.0442217624	-0.424666
C	-0.0505409404	-0.049000435	 0.0459863462	 0.049718
C	-0.4558138459	-0.795235574	 1.2726080243	-0.365809
C	-1.3656377306	-0.8379492362	 0.0466254523	 0.279291
O	-2.5348541215	-0.0854563731	 0.0613925561	-0.474042
C	-1.3903779629	-2.0940850879	-0.7494484192	 0.233215
O	-0.4642209236	-2.8737037096	-0.7459877108	-0.300107
C	-2.6387265909	-2.3715345511	-1.625896785	 0.082805
O	-2.7688848517	-3.4222313365	-2.19278972	-0.212251
H	 0.1147247345	 1.7521007571	 0.7423341731	 0.306074
H	 0.7589839441	-0.4436544821	-0.5625127573	 0.131302
H	 0.0872722081	-1.7032137869	 1.508212111	 0.153008
H	-0.8548528585	-0.2283800128	 2.1072173976	 0.128385
H	-2.2671833162	 0.83013029	-0.1130712662	 0.29563
H	-3.3800965997	-1.5553474718	-1.6947487197	 0.117447
