21
gdb 63910	2.99396	1.35873	1.21818	1.5607	83.43	-0.2375	0.0108	0.2484	1133.397	0.183106	-387.093494	-387.084905	-387.083961	-387.126146	34.53	
C	 0.1032423132	 1.5750810374	-0.0184119385	-0.414118
C	-0.0194702065	 0.0529635774	 0.0110448985	 0.32965
O	-1.4349639134	-0.207494826	 0.0711925137	-0.469441
C	 0.5820183574	-0.5642036421	-1.2706078624	-0.245113
C	 0.6932489773	-2.0879460742	-1.2130482781	-0.055463
C	 2.0358073327	-2.7283703967	-0.9512278706	-0.288704
C	 0.9801208768	-2.7109416969	 0.1355141418	-0.066332
C	 1.0882362203	-1.7891811522	 1.2944242024	-0.096088
C	 0.6475939045	-0.5305404108	 1.2453688797	-0.097551
H	 1.1526261166	 1.8825362642	-0.0449913362	 0.112875
H	-0.4022184384	 1.9772679292	-0.9014565912	 0.119108
H	-0.3670077383	 2.0071137154	 0.8696346883	 0.119128
H	-1.540318648	-1.1406965546	 0.2833818473	 0.277836
H	-0.0469399368	-0.2631332987	-2.1140817041	 0.103142
H	 1.5713869881	-0.1231357995	-1.4367973301	 0.09533
H	 0.0222051257	-2.6359141169	-1.8662785905	 0.086158
H	 2.2613610534	-3.6787480889	-1.4229620034	 0.109721
H	 2.8889970856	-2.0673612116	-0.8344811943	 0.113382
H	 0.5224247056	-3.6727751265	 0.3543812519	 0.089388
H	 1.5251303316	-2.1821471763	 2.2102582619	 0.091085
H	 0.7109920326	 0.1107651481	 2.1207693539	 0.086007
