15
gdb 132958	2.34971	1.90457	1.05895	2.8809	72.11	-0.2162	-0.0362	0.18	1044.7668	0.112976	-461.982751	-461.975011	-461.974067	-462.015464	28.699	
C	-0.0151788601	 1.4617688354	 0.0520945068	-0.361924
N	 0.0035041865	-0.0020719995	 0.0220762608	-0.232406
C	-0.0240008683	-0.6515879733	-1.2618733969	 0.441958
O	-0.0610820137	 0.0204676783	-2.2787440997	-0.402597
C	-0.0024508082	-2.0932232373	-1.1842483794	-0.256463
C	 0.0397448753	-2.7554744441	 0.0051844706	-0.035661
C	 0.065229723	-2.0630196146	 1.2424074593	-0.364068
C	 0.0453380136	-0.706374458	 1.1774207215	 0.440119
F	 0.0660827929	 0.0442267226	 2.2713586011	-0.059757
H	 0.8825535264	 1.8479936282	 0.540385495	 0.14469
H	-0.0484859044	 1.7868780424	-0.9859101543	 0.182786
H	-0.8942919308	 1.8243105864	 0.5899170808	 0.144688
H	-0.0220590102	-2.6128484325	-2.1332432378	 0.118295
H	 0.054580864	-3.8406234535	 0.0167468456	 0.118553
H	 0.0987018041	-2.5577219704	 2.2014501067	 0.121787
