20
gdb 10952	4.96298	1.23518	1.11797	1.1143	75.44	-0.2425	0.0798	0.3223	1126.6964	0.176752	-348.974373	-348.965918	-348.964974	-349.00702	32.088	
C	 0.0514384425	 1.5643081477	 0.0708541401	-0.496293
C	 0.0358006577	 0.0643901913	 0.0025474519	 0.376671
C	-0.9254298002	-0.7876811025	 0.7810299942	-0.326257
C	 0.5558196638	-0.9790114002	 1.0017834788	-0.129388
C	 1.192283623	-1.7867323384	-0.1362783893	 0.045489
C	 0.838748084	-3.2555043322	-0.2751881104	-0.095178
O	 1.4559666769	-3.7348002584	-1.4638465718	-0.422908
C	 0.6038537362	-0.7635398543	-1.1643694459	-0.300948
H	 1.0408525586	 1.9662418514	-0.1771401086	 0.114045
H	-0.6676060745	 2.0020124324	-0.6329643484	 0.117701
H	-0.2124328755	 1.9190609667	 1.072913278	 0.114219
H	-1.4397867966	-0.2809020055	 1.5924578719	 0.104818
H	-1.5288636733	-1.5470126696	 0.2885395477	 0.099978
H	 1.0002752569	-0.8221579439	 1.9786824082	 0.077353
H	 2.2828488225	-1.701651121	-0.1118555658	 0.079566
H	 1.1962859878	-3.8056557496	 0.6113311115	 0.081378
H	-0.2538903217	-3.3836738159	-0.3189765128	 0.081014
H	 1.1938368659	-4.6510893114	-1.5906926652	 0.285082
H	-0.1312498485	-1.1572493952	-1.8744236437	 0.092987
H	 1.3827749245	-0.2444917113	-1.7276020105	 0.10067
