17
gdb 109285	3.41726	1.19222	0.91214	2.4403	71.67	-0.2471	-0.0044	0.2426	1248.1861	0.137487	-455.205182	-455.196816	-455.195872	-455.238446	30.614	
C	 0.0522462531	 1.3715816885	 0.0599753152	-0.231023
O	-0.0554171894	-0.0532520823	 0.0001494378	-0.262871
C	-1.3060141592	-0.5412356718	-0.0297161055	 0.511618
N	-2.3479285854	 0.1796145403	-0.0481008109	-0.358192
C	-3.6152125527	-0.5438508226	 0.0104672646	-0.17192
C	-3.5854181985	-1.8907949055	-0.7272674274	-0.333422
C	-2.3713625965	-2.718270625	-0.3452881939	 0.408243
O	-2.3119723416	-3.9256872688	-0.3471026	-0.34877
N	-1.2721273335	-1.9343173786	-0.0246592653	-0.393906
H	 1.1213075985	 1.5811704186	 0.1038394575	 0.132285
H	-0.394332527	 1.8288706564	-0.8264785976	 0.142273
H	-0.4551170126	 1.7599456128	 0.9466409235	 0.141422
H	-3.8836489962	-0.7062553705	 1.0653331495	 0.113359
H	-4.3984106192	 0.0918071779	-0.4119783643	 0.115465
H	-4.481135108	-2.4872474888	-0.543184314	 0.134402
H	-3.5221723857	-1.7189412931	-1.8102474416	 0.136756
H	-0.387477476	-2.4015087174	 0.1152850023	 0.264279
