21
gdb 68974	3.2401	1.0678	0.94458	0.8749	89.14	-0.2415	0.0551	0.2966	1335.8911	0.180841	-349.902065	-349.892643	-349.891699	-349.936331	36.038	
C	 0.139262133	 1.5290348514	-0.0071930539	-0.49518
C	-0.0003685431	 0.0348155939	 0.0583052198	 0.290238
C	 1.1380788352	-0.9132002799	-0.2273416337	-0.360261
C	 0.4626710993	-0.9810612505	 1.1161555908	 0.341761
C	 1.204665288	-0.7720588448	 2.417529148	-0.476704
C	 1.8713310723	-1.9843053457	 2.8901330933	 0.318818
C	 2.4038817532	-2.9959792375	 3.2613005677	-0.457993
C	-0.8513493744	-1.7584587414	 0.9762684101	-0.277719
C	-1.3246166835	-0.7281536903	-0.1008842163	-0.276001
H	 1.1268349761	 1.8563407117	 0.3351818632	 0.115235
H	 0.0148559213	 1.8919314328	-1.0350837925	 0.12113
H	-0.6137184236	 2.0309310319	 0.6118653362	 0.114017
H	 1.0265730182	-1.724106594	-0.9451895375	 0.100179
H	 2.1259202609	-0.4607508422	-0.2245848331	 0.106019
H	 1.9475004918	 0.0269398041	 2.2941068936	 0.126721
H	 0.507535091	-0.4211903774	 3.1912533837	 0.12556
H	 2.879960249	-3.8846397278	 3.5939727313	 0.193348
H	-0.7587823778	-2.8025189123	 0.6607495239	 0.099251
H	-1.4659093008	-1.7237104716	 1.8798670294	 0.099861
H	-2.189900732	-0.1492735732	 0.2332213404	 0.098378
H	-1.5350614841	-1.119029397	-1.1023015944	 0.09334
