21
gdb 78253	2.57743	1.21001	0.99334	3.0681	83.53	-0.242	-0.0218	0.2203	1288.0521	0.181299	-387.072685	-387.063398	-387.062454	-387.106906	34.764	
C	-0.0369572053	 1.5576072284	-0.0295355027	-0.418178
C	 0.0585924735	 0.0474339307	-0.0848646972	-0.021916
C	 0.6839591904	-0.7602022027	-1.1891119465	-0.06987
C	 1.28662887	-0.7690695037	 0.2217724452	-0.084126
C	 2.5755297676	-0.0986275947	-0.2891469322	-0.108172
C	 3.7993695155	-0.9599649545	-0.1331101791	 0.15316
O	 4.8962114473	-0.5437255382	 0.1445067016	-0.262179
C	 1.9539239355	-0.1010757728	-1.750531876	-0.001225
C	 2.6807118919	-0.9203854766	-2.8135270027	-0.419251
H	 0.8610140247	 2.051517656	-0.4085212722	 0.123898
H	-0.8847604003	 1.9136479433	-0.6248922189	 0.118813
H	-0.1879882682	 1.8975693986	 1.0006425862	 0.120929
H	-0.8336776107	-0.4443302798	 0.3003167867	 0.08959
H	 0.1389707205	-1.5459470428	-1.7011080663	 0.083017
H	 1.2709907361	-1.5565597881	 0.9674356266	 0.087885
H	 2.8126583539	 0.8894442898	 0.1151262662	 0.08661
H	 3.6282048574	-2.0509779359	-0.2829113919	 0.073202
H	 1.8035920026	 0.9141718869	-2.1338364217	 0.079822
H	 2.7873562428	-1.9707628616	-2.5250798191	 0.11986
H	 2.1163220544	-0.8959165414	-3.7518201196	 0.118458
H	 3.6799314201	-0.5200613308	-3.0132310063	 0.129672
