14
gdb 9336	3.52934	1.2077	0.94277	1.2593	55.81	-0.2727	-0.0918	0.1809	1164.7128	0.104596	-456.834334	-456.825696	-456.824752	-456.869093	28.619	
O	 0.1866815608	 1.1482718254	-0.5448236366	-0.415849
C	-0.0483987546	-0.1953681407	-0.1828040862	-0.070355
C	-1.5076017536	-0.4521772856	 0.1476676605	-0.081558
O	-2.2486546252	-0.1642339029	-1.062100795	-0.231439
C	-3.5664196439	-0.3471268336	-1.0092402951	 0.345158
O	-4.1935247246	-0.7519753754	-0.0632536174	-0.334366
C	-4.2575245124	 0.0230502718	-2.3271133675	 0.09161
O	-3.6931420196	 0.4644907774	-3.2876468006	-0.212441
H	-0.3545021408	 1.3297487595	-1.3214278441	 0.297409
H	 0.2738275009	-0.8942079441	-0.9701332056	 0.104233
H	 0.5545365906	-0.3966783456	 0.708661062	 0.121645
H	-1.6897848721	-1.4890164802	 0.4468841327	 0.128648
H	-1.8617601214	 0.212984488	 0.9405214898	 0.137174
H	-5.3487811642	-0.162476884	-2.2779437869	 0.120131
