25
gdb 42129	1.79546	1.70925	1.0355	0.2479	93.99	-0.2349	0.0258	0.2608	1284.4634	0.232187	-352.368285	-352.35934	-352.358396	-352.401426	35.972	
C	-0.0409593447	 1.5626296438	-0.0687312118	-0.182982
C	 1.3651848584	 2.1718745561	 0.0892036531	-0.180579
C	 2.1891006703	 1.7586477263	 1.3356869884	-0.179607
C	 3.3484452053	 0.7541143431	 1.0863198632	-0.246388
C	 2.9900799974	-0.7143595868	 1.097633333	-0.048921
C	 2.4461382195	-1.4208209792	 0.1049459191	-0.029232
C	 1.9844527682	-0.8838465465	-1.2188858232	-0.24455
C	 0.4423314322	-0.7240707069	-1.2749889599	-0.184311
C	-0.2005530533	 0.03394567	-0.1015005484	-0.175948
H	-0.6617279275	 1.9370157474	 0.756844087	 0.09042
H	-0.48430328	 1.9805491965	-0.9833543772	 0.087384
H	 1.9581157265	 1.9942737156	-0.8147897256	 0.094503
H	 1.2237137654	 3.2590778615	 0.1221441493	 0.090981
H	 2.6415339899	 2.6647148864	 1.7542400946	 0.092483
H	 1.5261072719	 1.3691428086	 2.117907372	 0.095584
H	 3.8334894189	 1.0218566732	 0.1392043528	 0.10366
H	 4.1045967578	 0.9162242661	 1.862449176	 0.09481
H	 3.2081648331	-1.2372398787	 2.0274887922	 0.080181
H	 2.2454140858	-2.4777688856	 0.2788186644	 0.077778
H	 2.4691873008	 0.0726874749	-1.430188018	 0.100429
H	 2.2832608408	-1.5665471182	-2.0246352974	 0.093568
H	 0.1712266003	-0.2449856027	-2.2250573957	 0.088977
H	 0.0012286764	-1.7286192228	-1.3059057366	 0.092757
H	 0.1608964938	-0.3961519873	 0.8392244658	 0.101906
H	-1.2783888472	-0.1710684148	-0.1272411871	 0.087096
