16
gdb 15257	3.44439	1.31185	1.14627	2.8269	62.7	-0.2478	-0.0259	0.2219	1053.1195	0.128804	-420.855468	-420.846881	-420.845937	-420.889283	30.45	
O	 0.0150851369	 1.3527680883	-0.4875815769	-0.420906
C	 0.0223702561	 0.1269103092	 0.2237787865	-0.083909
C	-1.3505146829	-0.5226628671	 0.189292401	-0.078355
C	-1.8191254503	-1.1815028247	-1.0536566875	 0.064345
O	-0.904998638	-1.1758447884	-2.1116275049	-0.417092
C	-1.5564598917	-2.0512020958	 0.1826200965	-0.178694
C	-0.4245021912	-3.0050920393	 0.2047601783	 0.150325
O	-0.445328425	-4.0456626476	 0.8197983723	-0.271242
H	-0.1243190878	 1.1295546531	-1.4149900084	 0.294352
H	 0.7922622704	-0.5492659601	-0.1636340497	 0.103454
H	 0.2892212664	 0.3708686008	 1.2565316837	 0.118752
H	-2.1047801412	 0.0229563508	 0.7480847815	 0.113455
H	-2.8618207248	-1.0690565106	-1.3465189821	 0.107521
H	-1.0785559049	-1.9321513807	-2.6818739331	 0.30179
H	-2.4271172604	-2.4189399788	 0.7157351251	 0.111455
H	 0.4579482584	-2.723565649	-0.4055976821	 0.084749
