20
gdb 104231	2.22524	1.32523	1.05272	0.7966	77.89	-0.2531	0.0215	0.2746	1263.8568	0.168543	-440.281639	-440.271297	-440.270353	-440.317303	36.42	
C	-0.0702216172	 1.5782901118	 0.1025934558	-0.402058
C	-0.033179887	 0.0479569932	 0.0659848344	-0.224143
C	 0.7592586446	-0.5586157794	 1.2261085452	 0.243486
O	 0.2248969828	-0.1942302924	 2.4842086295	-0.479061
C	 1.0584943816	-2.0732477411	 1.1191552212	-0.116019
O	 2.4880655851	-1.791569159	 0.961226367	-0.271545
C	 2.2753994434	-0.4392561287	 1.1420463691	 0.417587
N	 3.0722497393	 0.5181584488	 1.2606953232	-0.342743
C	 4.5071366706	 0.2672039159	 1.2087609494	-0.341674
H	 0.9409235187	 1.9947175563	 0.0761432231	 0.143818
H	-0.6287440969	 1.9732775734	-0.7506415769	 0.114165
H	-0.5620873328	 1.929567349	 1.0144646696	 0.119539
H	-1.0521062956	-0.3561590894	 0.1142203306	 0.105792
H	 0.4046365361	-0.2982389201	-0.8783332275	 0.102017
H	 0.6837790768	 0.6050497264	 2.7664873029	 0.296861
H	 0.8655000302	-2.6288290841	 2.038544915	 0.128613
H	 0.6650976776	-2.5961343077	 0.2448001199	 0.117229
H	 4.7721110859	-0.796277711	 1.2129889729	 0.129763
H	 4.9216608537	 0.7265957146	 0.3043097344	 0.130724
H	 4.9850982333	 0.7560088434	 2.0639301613	 0.127647
