21
gdb 106670	2.70745	1.22647	1.00617	2.1445	78.99	-0.2484	0.0746	0.323	1279.2257	0.180246	-424.200836	-424.191015	-424.190071	-424.235372	36.615	
C	 0.0092497375	 1.5612996704	 0.0525323174	-0.408509
C	-0.0116222634	 0.0421417676	-0.0415810116	-0.030769
C	 0.9581501126	-0.6586074059	-1.0637221609	-0.313512
C	 1.5832289007	-1.4140441939	 0.115622954	 0.323122
C	 2.3218431168	-2.7142812257	 0.1374615549	-0.174983
O	 3.62627842	-2.58401307	-0.409092064	-0.414929
O	 2.0837098107	-0.3956892519	 1.0169582993	-0.337668
C	 0.6903906513	-0.7484166308	 1.0884233563	 0.333435
C	 0.1324042809	-1.1498803292	 2.4159199547	-0.506485
H	 1.0267611486	 1.9140578659	 0.2428985263	 0.132006
H	-0.3426278151	 2.0170464457	-0.8789323454	 0.114602
H	-0.6358770202	 1.9216322526	 0.8617321878	 0.111242
H	-1.0341184049	-0.3256421555	-0.1800846235	 0.07229
H	 0.436960139	-1.3058999861	-1.7733580442	 0.103181
H	 1.6475053164	-0.005609891	-1.6045459128	 0.108994
H	 2.3533104991	-3.0975485454	 1.1686277267	 0.092312
H	 1.8045119924	-3.4546956338	-0.4817426265	 0.110989
H	 4.062847859	-1.8839700784	 0.0895784779	 0.293427
H	-0.0101417748	-0.271096866	 3.0552323956	 0.133225
H	-0.8403266334	-1.6375602575	 2.2949125836	 0.12494
H	 0.8081476268	-1.8359221013	 2.9331307544	 0.133088
