21
gdb 103004	2.02661	1.36626	1.16674	0.9183	86.63	-0.2316	0.0391	0.2707	1237.5921	0.178583	-387.03644	-387.025714	-387.02477	-387.071576	39.144	
C	 0.0424646555	 1.3173069999	-0.2240789986	-0.252927
O	-0.0366253349	-0.0377690273	 0.191608156	-0.278864
C	-1.3118691881	-0.6030208242	 0.0741483808	 0.198182
C	-2.3529825218	 0.0470063759	 0.8302971643	 0.313164
C	-3.2219983623	 0.5957962811	 1.4566775054	-0.468461
C	-1.6749275817	-1.2850784338	-1.2518027945	-0.083868
C	-0.7590767023	-1.1882716428	-2.4524659326	-0.417235
C	-1.3244712974	-2.1181109722	-0.0367604998	-0.089327
C	-0.0409203009	-2.9116609196	 0.0784571132	-0.409058
H	 1.0825332009	 1.6224226026	-0.0896147578	 0.125756
H	-0.235497895	 1.4349340238	-1.2798999502	 0.110084
H	-0.6057889543	 1.9596507409	 0.3845398166	 0.125888
H	-3.9879161571	 1.0728523099	 2.0163552073	 0.193052
H	-2.7338573306	-1.2532145412	-1.4924375591	 0.092356
H	 0.2780255622	-1.0202366562	-2.1566244656	 0.134019
H	-0.7965900001	-2.1096711632	-3.0442653613	 0.118231
H	-1.060531262	-0.3642469609	-3.1074195984	 0.118577
H	-2.174957469	-2.5818360089	 0.4545697071	 0.096957
H	 0.8192881785	-2.3530658565	-0.2913331055	 0.135542
H	 0.157353187	-3.1659357094	 1.1245858047	 0.123204
H	-0.1157888365	-3.8485470679	-0.4844387521	 0.114727
