20
gdb 17960	2.58478	2.25686	1.41254	0.1534	81.62	-0.2339	0.025	0.2589	950.6919	0.179883	-311.874747	-311.867294	-311.86635	-311.90628	29.543	
C	-0.0994729121	 1.7048664514	 0.1954818041	-0.264877
C	 1.2730169638	 2.408706695	 0.2249469568	-0.233526
C	 2.1188822861	 2.3629538777	-1.0208042317	-0.017205
C	 1.8118466084	 2.0135067721	-2.2713828825	-0.056551
C	 0.4919062984	 1.536466666	-2.8342233239	-0.264877
C	 0.2222675397	 0.0350281501	-2.6040793191	-0.233527
C	 0.11856085	-0.4559468914	-1.1836336986	-0.017206
C	-0.0162146464	 0.2130245385	-0.0370547252	-0.05655
H	-0.5746985911	 1.8748176302	 1.1682211075	 0.093322
H	-0.7505191322	 2.1888853667	-0.5348793984	 0.110194
H	 1.1236846118	 3.4613032794	 0.5105712568	 0.104202
H	 1.8667800722	 1.9778233213	 1.0435614183	 0.105095
H	 3.1485994109	 2.6741116213	-0.8450223144	 0.079069
H	 2.6237197897	 2.0494673295	-2.9962351372	 0.080278
H	-0.343342134	 2.1273569611	-2.4537336721	 0.110194
H	 0.49938362	 1.7047913944	-3.9170694149	 0.093322
H	-0.6969915316	-0.2447474414	-3.1412287052	 0.104202
H	 1.0198352941	-0.5403286655	-3.0951949713	 0.105094
H	 0.1608795955	-1.5424009419	-1.1070694383	 0.079069
H	-0.0485157131	-0.3867149744	 0.8713016893	 0.080278
