13
gdb 50799	6.30031	0.60156	0.55762	4.2633	77.27	-0.2661	-0.0918	0.1743	1838.9535	0.08718	-452.734014	-452.724583	-452.723639	-452.770607	30.436	
N	 0.3373092132	 1.1786135774	 0.2327062152	-0.389723
C	 0.0156033163	 0.0256084387	-0.1754815161	 0.083334
N	-1.2875146136	-0.4773181658	-0.1513232028	-0.326851
C	-2.4492139345	 0.1482325588	 0.2800961279	 0.30023
O	-2.5433456901	 1.2756211544	 0.6955778322	-0.288018
C	-3.611194069	-0.733434724	 0.1753651206	-0.032403
C	-4.6102436182	-1.409499069	 0.1007988508	 0.117739
C	-5.8093874453	-2.2156093319	 0.0459555586	 0.019241
O	-6.2627218221	-2.6771994684	-0.9737108389	-0.213268
H	 1.339842673	 1.3182768297	 0.115935146	 0.237106
H	 0.6992037499	-0.7234514012	-0.5935777079	 0.104833
H	-1.4046563479	-1.4164131911	-0.5005143704	 0.269867
H	-6.2881343517	-2.3808452477	 1.0309249047	 0.117913
