18
gdb 49726	3.05051	1.24152	1.16703	3.3966	79.22	-0.2326	-0.0324	0.2002	1127.9516	0.148669	-401.932108	-401.9243	-401.923356	-401.964763	29.863	
O	-0.3731459228	 0.8095506978	-1.339502122	-0.267915
C	 0.016675269	 1.1354266176	-0.2428631013	 0.151728
C	 1.300453062	 1.8519539627	-0.0287814348	-0.115517
C	 1.4179903251	 2.8453901822	 1.1123799378	-0.072811
C	 0.3600247322	 3.0447668306	 2.1357807392	-0.073296
C	 0.3665229886	 2.3169867555	 3.2526968231	-0.066424
C	 1.4001957992	 1.2411041548	 3.4752155338	-0.252196
C	 1.8548311805	 0.6070062658	 2.1518775925	-0.164675
N	 2.1914194984	 1.6236541306	 1.1278993807	-0.113753
H	-0.5892335858	 0.9355177725	 0.663715231	 0.083961
H	 1.8261861496	 2.0586906278	-0.9577230711	 0.110058
H	 1.9994730039	 3.7389546441	 0.8788602843	 0.111197
H	-0.3642449103	 3.8377797197	 1.9733006268	 0.101712
H	-0.3646286676	 2.4990921741	 4.0349881241	 0.100419
H	 2.2647157582	 1.669920742	 4.0013541055	 0.126259
H	 1.0085834849	 0.4561310107	 4.1306339449	 0.113298
H	 2.7582267848	 0.0096656849	 2.3139421058	 0.114509
H	 1.0808618001	-0.0822891835	 1.8020621697	 0.113445
