19
gdb 95533	2.26849	1.54408	1.14001	1.4763	82.26	-0.2498	0.0121	0.2619	1134.8746	0.159583	-385.871565	-385.862984	-385.86204	-385.90447	33.62	
O	 0.0588236773	 1.423868211	 0.0920770397	-0.442931
C	 0.0066200479	 0.0150495462	 0.0053324535	 0.123863
C	-1.4183407096	-0.5364045331	 0.090113097	-0.23074
C	-1.4084190953	-2.0696326095	 0.1823843645	-0.262611
C	-0.4325519271	-2.6902527856	-0.7816546413	-0.038583
C	 0.5035207078	-2.0089447222	-1.4388093019	-0.070368
C	 0.7157475442	-0.5136576637	-1.2747083855	-0.222409
C	 0.261701956	 0.222479045	-2.4577591381	 0.31768
C	-0.1373121772	 0.8522029604	-3.4028188961	-0.479086
H	-0.2830844717	 1.7741881795	-0.7408237999	 0.280095
H	 0.5826047977	-0.3501825131	 0.8639362705	 0.090132
H	-1.921632289	-0.0940438534	 0.9546791095	 0.103471
H	-1.9695511323	-0.22147342	-0.805138507	 0.105327
H	-1.1541616532	-2.3857062585	 1.205155113	 0.113159
H	-2.4134975363	-2.4691113089	-0.0011649796	 0.108872
H	-0.5085668305	-3.7646765864	-0.9334100387	 0.0912
H	 1.1664733965	-2.5131220035	-2.1360645416	 0.097513
H	 1.7900127872	-0.3163702205	-1.1584040811	 0.114406
H	-0.4747542324	 1.3880563064	-4.2555804467	 0.201011
