19
gdb 40848	4.96861	1.22503	1.13598	1.9987	79.19	-0.2406	0.0817	0.3222	1106.787	0.160293	-385.784836	-385.77776	-385.776815	-385.81672	28.123	
C	-0.1201953105	 1.6763577935	-0.054909369	-0.274341
C	 1.3852779309	 1.3475830455	-0.0235421326	-0.03623
C	 1.1773245098	 0.1330662883	 0.9506756784	-0.130264
C	-0.0618358342	 0.1367159087	-0.0146516381	-0.036224
C	 1.2061642978	 0.0847145669	-0.9403187295	-0.130266
C	 1.967218824	-0.8176374289	 0.0406959316	 0.33143
C	 3.4929093909	-1.01921447	 0.0691214504	-0.158683
O	 3.3363123219	-2.4535492872	 0.1034322453	-0.277424
C	 1.8966342946	-2.3547599199	 0.0789274733	-0.158672
H	-0.5340606467	 2.1774384172	 0.8260930313	 0.094236
H	-0.506628977	 2.1314484251	-0.9725656538	 0.094236
H	 2.2405060192	 2.0249650936	-0.0278194032	 0.074036
H	 1.1478211116	 0.1763298569	 2.041244509	 0.071451
H	-0.8794211102	-0.5856405666	-0.008650213	 0.074037
H	 1.2099445754	 0.0721774738	-2.0320655424	 0.07145
H	 4.0384901531	-0.686773186	-0.8244417991	 0.097806
H	 4.0112724396	-0.641097809	 0.960725246	 0.097807
H	 1.4394486831	-2.7928538633	 0.9765263207	 0.097807
H	 1.4667022066	-2.8385021486	-0.8086428852	 0.097807
