17
gdb 7802	3.33248	1.93129	1.29871	2.1796	66.37	-0.2612	0.0167	0.2779	939.6299	0.143155	-401.022865	-401.015376	-401.014432	-401.054699	28.167	
C	 0.0779031384	 1.4965179586	 0.0412983978	-0.405665
C	 0.0377441231	-0.0104705661	-0.0608249723	 0.214733
O	 0.7703705262	-0.4175136989	-1.1720013605	-0.23312
C	 0.7756405112	-1.8348256093	-1.290466293	-0.10643
C	 1.4702404231	-2.436522948	-0.0695556283	-0.265284
C	 0.9179565819	-1.8618267414	 1.2136683867	 0.372966
N	 0.8695960592	-2.5366546002	 2.2822145114	-0.499924
O	 0.5690959452	-0.5382944923	 1.1721124231	-0.265329
H	 1.1154408075	 1.8300438435	 0.1190168478	 0.139004
H	-0.3748705409	 1.9389950372	-0.8488432914	 0.13118
H	-0.4708681352	 1.8250679844	 0.9262985867	 0.133037
H	-0.9977149423	-0.3855655501	-0.143755026	 0.073878
H	-0.2574690683	-2.2075097407	-1.3784362387	 0.102745
H	 1.305407999	-2.073251783	-2.2150702785	 0.119664
H	 1.3848348544	-3.5239086126	-0.0365983228	 0.133217
H	 2.5357038585	-2.181054008	-0.1152492777	 0.136834
H	 0.5016483192	-1.9581196432	 3.0410975758	 0.218493
