23
gdb 91650	2.45793	1.62579	1.3393	1.4965	85.09	-0.2541	0.0729	0.3269	1103.3397	0.206616	-388.288312	-388.279525	-388.278581	-388.320703	35.989	
C	-0.1767708119	 1.5945690993	-0.0260145943	-0.427785
C	 0.0591402699	 0.0868258455	 0.0616939712	 0.059885
C	 0.8596167185	-0.5637578224	-1.125588265	-0.229698
C	 1.8987174814	-1.3740632819	-0.3239057343	-0.087807
C	 1.0304401034	-1.9432228249	 0.8357431358	-0.249501
C	 0.9300608438	-0.4376440857	 1.2336763238	-0.071597
C	 2.3954663423	-0.307810601	 0.7131691006	 0.460685
C	 3.4977376072	-0.7531464049	 1.6721487686	-0.478172
O	 2.7289069143	 0.9786832471	 0.2163154908	-0.479878
H	 0.7598516468	 2.1449432379	-0.115106348	 0.142473
H	-0.8024894067	 1.8309773058	-0.8945177785	 0.10175
H	-0.7054715659	 1.9564654774	 0.8635849301	 0.100442
H	-0.9229622058	-0.3950722259	 0.140520492	 0.063032
H	 0.235649393	-1.2021257039	-1.7576756488	 0.084789
H	 1.3324231742	 0.19309155	-1.7557517231	 0.099154
H	 2.6005190193	-1.9965336745	-0.8831910273	 0.047712
H	 0.094018991	-2.4319883181	 0.5555732914	 0.091673
H	 1.5713589987	-2.5706266916	 1.5423255306	 0.094439
H	 0.6577292577	-0.1188871529	 2.2416996311	 0.051666
H	 3.3169004055	-1.7241082622	 2.1347394281	 0.124121
H	 4.4538758127	-0.8238282311	 1.1363014131	 0.103946
H	 3.6152477251	-0.0100847471	 2.46719196	 0.125267
H	 3.6580582058	 0.9695791453	-0.035834068	 0.273406
