16
gdb 20296	5.32052	1.52089	1.4473	1.8021	64.26	-0.2383	0.084	0.3222	886.6961	0.130693	-383.633412	-383.626837	-383.625892	-383.664633	25.175	
C	 1.3739117506	 0.4675982292	-0.1301485503	-0.174935
O	 0.3595821231	-0.0452400395	-0.9954079155	-0.226166
C	-0.0368973998	 0.4574740861	 0.2840857824	 0.031855
C	-0.5600440166	-0.4774798993	 1.3403790392	 0.003124
C	-1.9089537083	-1.2535810775	 1.2341001049	 0.024598
C	-1.2869361557	-2.240902636	 0.2186908996	-0.227583
C	-0.2946514183	-2.0110732165	 1.3839138749	 0.02686
O	-1.4303727592	-2.1277248471	 2.3303753785	-0.31041
H	 2.0564033933	-0.2760321519	 0.2787140225	 0.117331
H	 1.8383531586	 1.397668766	-0.4536663658	 0.118769
H	-0.5743380024	 1.4066394988	 0.2275782536	 0.099331
H	-0.4490367337	-0.0160493995	 2.3267347195	 0.091281
H	-2.9286901823	-0.8734644965	 1.3052044933	 0.093747
H	-1.7517144485	-3.2275006519	 0.2148173929	 0.104927
H	-1.0104536632	-1.8776141847	-0.7692514472	 0.133669
H	 0.6220321724	-2.5455869597	 1.6353525374	 0.093602
