17
gdb 44820	2.96498	1.25084	1.01255	3.2868	78.8	-0.2402	-0.0097	0.2306	1190.3472	0.134114	-384.647299	-384.638742	-384.637798	-384.681178	32.038	
O	-0.4473426389	 0.119636075	-0.3718718369	-0.310942
C	-0.2303930714	 1.256465648	-0.0602396204	 0.361813
C	-1.1625961336	 2.4581853434	 0.2588968306	-0.356537
C	 0.069846673	 3.3556990779	 0.0724431888	-0.120968
C	 1.0935356124	 2.994613325	 1.0879551548	-0.309863
C	 0.99431198	 2.1182578544	-0.1522890419	 0.246438
C	 2.1643217963	 1.8799112332	-1.0823798941	-0.475599
C	 3.2000092968	 1.032810416	-0.4967210467	 0.321919
C	 4.0489037083	 0.3439341386	 0.0012252177	-0.454232
H	-1.9249331603	 2.5550100345	-0.5189300955	 0.133096
H	-1.6429481686	 2.4877978314	 1.2410729945	 0.122482
H	 0.0920087541	 4.278333416	-0.4924969653	 0.109121
H	 1.994879486	 3.599538871	 1.1117355822	 0.130047
H	 0.7927778447	 2.6114090114	 2.0593595535	 0.124258
H	 1.7969589713	 1.420573204	-2.0085571889	 0.146534
H	 2.6016991305	 2.8459866743	-1.3663976942	 0.133757
H	 4.7952649493	-0.2754482742	 0.4331670018	 0.198675
