17
gdb 37270	3.70096	1.98897	1.90623	2.9078	72.66	-0.225	0.0677	0.2927	792.8579	0.140069	-380.769027	-380.76355	-380.762606	-380.798466	24.472	
N	-0.0383027302	 1.477773418	-0.0120359966	-0.317639
C	 1.2835687496	 0.8122952148	 0.0251124561	-0.067221
C	 0.0337884039	-0.0002779996	 0.0402588657	-0.044559
C	-0.0085899222	-0.7021984309	-1.3154473945	 0.011335
C	 1.4535048611	-0.8751526653	-1.8065244318	-0.103774
C	 0.9804805242	-0.2938856742	-3.1731457491	-0.071068
C	 1.0048717576	 1.0400899801	-2.5301179093	-0.041333
C	 1.8840934244	 0.5697644909	-1.3566545527	-0.037038
N	-0.2502207519	 0.2135694827	-2.4982869607	-0.131182
H	-0.2617303249	 1.8197781364	 0.9212618385	 0.228714
H	 1.9171536276	 0.9359656537	 0.8971700604	 0.084338
H	-0.3266245334	-0.5118363583	 0.9266502556	 0.08562
H	-0.6668821897	-1.5694242845	-1.3759932898	 0.072294
H	 2.0689660924	-1.7511719908	-1.6091638792	 0.068953
H	 1.0125704852	-0.6245344107	-4.201569898	 0.096028
H	 0.914132296	 2.0305799539	-2.9541187191	 0.096187
H	 2.9423296903	 0.8041384138	-1.4740827856	 0.070344
