20
gdb 115414	2.64875	1.1268	0.88412	4.2235	79.4	-0.2785	0.0173	0.2958	1366.937	0.171456	-403.178251	-403.168992	-403.168048	-403.213648	33.413	
C	-0.0770463069	 1.5568753048	 0.0920105028	-0.385312
C	-0.0844272385	 0.040750844	-0.1221568197	-0.194742
C	-1.450750966	-0.591193192	 0.0926572293	 0.139715
C	-1.5284795165	-2.1108846262	-0.0967940118	-0.226901
C	-2.7316052398	-2.5173176817	 0.7792632946	-0.269839
C	-2.8874165208	-1.3046965158	 1.7530329179	-0.020058
O	-1.8355891467	-0.4035866667	 1.4644021655	-0.253223
C	-4.2022428185	-0.645681443	 1.5973400713	 0.268838
N	-5.2310295046	-0.1340860549	 1.4723510425	-0.326039
H	 0.9249461735	 1.9687985507	-0.0593188636	 0.113181
H	-0.7539531744	 2.0586929256	-0.6079822472	 0.117592
H	-0.4005188775	 1.8054823783	 1.1059490557	 0.138869
H	 0.2409708356	-0.1989847634	-1.1419945661	 0.101166
H	 0.6266413467	-0.4413877558	 0.5599434338	 0.103911
H	-2.1936304977	-0.096910413	-0.5561762046	 0.081029
H	-1.6566767496	-2.3981380471	-1.1428634477	 0.113156
H	-0.6063658643	-2.5713977017	 0.2718601478	 0.110636
H	-3.6377543303	-2.6531005904	 0.1862306275	 0.134748
H	-2.5554889185	-3.4405887354	 1.3333915047	 0.123525
H	-2.7873566951	-1.6005428865	 2.8018625175	 0.129747
