12
gdb 18846	4.30057	2.54356	2.10254	3.0767	57.02	-0.2531	-0.0449	0.2081	640.5525	0.085636	-377.49107	-377.485775	-377.484831	-377.520343	20.932	
O	 0.0542062715	 0.0545152654	 0.1568726518	-0.296637
C	-0.0524766167	 1.232298066	 0.0578205064	 0.445
C	-1.1224581779	 2.2427538212	-0.0588875127	-0.235028
C	-0.6554431784	 3.5700242158	 0.6422131569	-0.006708
N	 0.3468973555	 3.483494448	 1.6964078626	-0.185473
C	 1.2682974945	 2.7583019616	 1.2029116345	 0.006021
N	 1.0407446826	 2.270301204	-0.1459706702	-0.225205
C	-0.0534772593	 3.1778817745	-0.640937204	-0.038692
H	-2.160782247	 2.0941682591	-0.3208787782	 0.129934
H	-1.4197353458	 4.3309007774	 0.7335210935	 0.126636
H	 2.1497877054	 2.4284811917	 1.7394568488	 0.148592
H	-0.0016678743	 3.6551597455	-1.6097590694	 0.13156
