19
gdb 49636	2.92483	1.58186	1.46657	2.6435	78.13	-0.2418	-0.0205	0.2213	980.8878	0.160581	-385.856435	-385.849179	-385.848235	-385.888424	28.765	
O	-0.57883707	 0.6090305661	 0.5990206445	-0.251673
C	 0.1634019444	 0.9718806705	-0.2804123564	 0.141411
C	 1.2576723482	 1.990640278	-0.1412749315	-0.074646
C	 1.147934869	 3.3180870557	-0.9621208918	-0.072443
C	-0.1896398082	 4.0742011426	-0.7524372861	-0.232569
C	 0.2935622009	 4.5694671587	 0.6342811887	-0.031469
C	 0.2146446394	 3.4784501208	 1.7308270927	-0.231151
C	 1.4861983494	 2.7973077799	 1.1600283162	-0.061257
C	 1.7452826065	 4.0761081505	 0.279311201	-0.036942
H	 0.0655208303	 0.5550124897	-1.3123227061	 0.069472
H	 2.1944054642	 1.5001572344	-0.4410776957	 0.094199
H	 1.5809435337	 3.3196611652	-1.9625828675	 0.069261
H	-0.2642472453	 4.9055053173	-1.4599709125	 0.101878
H	-1.1223653467	 3.5013540711	-0.7921095639	 0.100965
H	 0.0397582738	 5.5914965672	 0.9171193866	 0.063859
H	 0.4363812588	 3.9086760576	 2.7122312583	 0.09771
H	-0.6945124695	 2.8791704535	 1.8046055613	 0.119924
H	 2.1986194415	 2.383002932	 1.8732031057	 0.070015
H	 2.6540000096	 4.6735005991	 0.2745701465	 0.063453
