18
gdb 35922	3.11862	1.39373	1.0786	3.646	76.21	-0.2352	0.0187	0.2539	1113.0981	0.150855	-398.103891	-398.096229	-398.095285	-398.136134	29.643	
N	-0.1167884129	-1.13643723	-0.2284382764	-0.318199
C	-0.0580681653	 0.0105937981	-0.1036627552	 0.275065
C	 0.0070188862	 1.4726846119	 0.030113668	-0.140743
N	-0.6523670357	 1.9050205021	 1.2600226983	-0.306964
C	-0.5887154162	 3.3632951677	 1.3620853063	-0.171736
C	 0.851502754	 3.7771388872	 1.6677746997	-0.129533
N	 1.8598112123	 3.1034380664	 0.8269381116	-0.110805
C	 2.2998021524	 1.7684228825	 1.2379696355	-0.234307
C	 1.464039792	 1.9439435616	 0.0259240161	 0.004431
H	-0.4790167819	 1.8979225238	-0.869207324	 0.107995
H	-1.6114586718	 1.5778893118	 1.2671206085	 0.238745
H	-0.9338084803	 3.8565252255	 0.4345418845	 0.091143
H	-1.2464045365	 3.6924227494	 2.1713666256	 0.11303
H	 0.9579701758	 4.8575452622	 1.5190146824	 0.109448
H	 1.0759308972	 3.567948616	 2.7189072005	 0.114695
H	 3.3648831538	 1.5747394442	 1.144017369	 0.118371
H	 1.8164899305	 1.3212372503	 2.1034081115	 0.131433
H	 1.9245023764	 1.8947321892	-0.9582472119	 0.107929
