20
gdb 14881	3.58907	1.21947	0.99502	2.4304	71.19	-0.2593	0.0731	0.3324	1194.7117	0.176524	-386.113212	-386.104096	-386.103152	-386.147101	33.047	
O	-0.1082993036	 1.4869952762	-0.2566142755	-0.423208
C	 0.0363135389	 0.1082934351	 0.0581995654	-0.087077
C	-1.3553191505	-0.5061235041	 0.0380179266	-0.009768
C	-1.9417905872	-0.646117657	-1.3971165023	-0.217707
C	-1.5565846239	-2.1509153194	-1.384072129	-0.219548
C	-1.4142244517	-2.0632698508	 0.1597306743	 0.042305
C	-0.2994298168	-2.8301849451	 0.8439582407	-0.107881
O	-0.5978555065	-4.2144530228	 0.7128658864	-0.423269
H	 0.7682207115	 1.880315121	-0.2958340796	 0.284589
H	 0.6893702943	-0.3938453958	-0.6739145363	 0.082321
H	 0.4955265948	-0.0237032247	 1.0516286155	 0.082029
H	-1.9736171295	 0.0445788916	 0.7529834334	 0.072259
H	-3.0245377374	-0.4972684008	-1.4130548057	 0.098102
H	-1.4942149129	-0.0087066233	-2.1627206317	 0.103233
H	-2.2804651984	-2.8661590686	-1.7788986754	 0.100331
H	-0.5931959074	-2.3378353952	-1.869092948	 0.094791
H	-2.3575002529	-2.3533679334	 0.6345917189	 0.08165
H	 0.6712681153	-2.5936735102	 0.3789515174	 0.078533
H	-0.2351154952	-2.536095401	 1.9050870351	 0.083262
H	 0.1186383092	-4.7161408316	 1.1123671297	 0.285051
