15
gdb 123957	3.56764	1.62552	1.15498	5.0839	66.88	-0.221	-0.0013	0.2198	991.1882	0.116028	-453.924644	-453.91807	-453.917125	-453.955642	25.98	
C	-0.0271660172	 1.4517252797	 0.0551538996	-0.191585
C	 1.4133860156	 1.9762668549	 0.0194353473	-0.087276
O	 2.1801390883	 1.4999830376	 1.1391809485	-0.260009
C	 1.9983983752	 0.1858679021	 1.3567545284	 0.438825
N	 2.8037930036	-0.5162992597	 2.1128104016	-0.249184
O	 2.2650391003	-1.8059931307	 2.0820223095	-0.176653
C	 1.1483147967	-1.8171026191	 1.3270375481	-0.014473
C	 0.9158638434	-0.5786296215	 0.8212772565	 0.074154
N	-0.1063663463	-0.0139375021	 0.0375775504	-0.413916
H	-0.5103631373	 1.8173115038	 0.9693132541	 0.133722
H	-0.584538209	 1.8510788103	-0.7959916501	 0.118471
H	 1.9103369336	 1.6705658952	-0.9115125566	 0.11138
H	 1.4388182991	 3.0656997188	 0.0901010711	 0.128012
H	 0.6454002905	-2.7665965421	 1.2353661325	 0.148123
H	-0.1334565164	-0.3851980773	-0.9038792309	 0.240407
