16
gdb 56620	2.4677	1.11576	1.0037	5.7118	73.47	-0.2532	-0.0389	0.2143	1251.169	0.120625	-437.883121	-437.873407	-437.872463	-437.918255	33.842	
C	 0.0584246798	 1.5084483738	 0.0877143	-0.379723
C	-0.0313009871	-0.0216392937	-0.0597188992	-0.19449
C	-1.4167510935	-0.4932855237	-0.0294246965	 0.336747
C	-2.5611424436	-0.8557227528	 0.0124438902	-0.445082
N	 0.6885359578	-0.5013472506	-1.260928817	-0.090333
C	 0.121810644	-0.2502761994	-2.5223917404	 0.170022
O	 0.610751691	-0.5200557925	-3.5828499698	-0.263402
C	 1.9066383857	-1.1722924124	-1.0794395894	 0.169565
O	 2.6287803029	-1.5865524335	-1.9401055618	-0.261574
H	 1.1063800842	 1.8193254854	 0.1084434687	 0.135125
H	-0.4393025316	 2.0114806003	-0.7451604005	 0.141073
H	-0.4252515527	 1.8236906605	 1.0155241273	 0.141749
H	 0.4915418928	-0.4727729222	 0.7916189231	 0.134558
H	-3.5694599358	-1.1894952238	 0.045926732	 0.214696
H	-0.8659369832	 0.2339749474	-2.4142119147	 0.104713
H	 2.1292847294	-1.2812498626	 0.0021729878	 0.086356
