20
gdb 82115	3.13989	1.15725	0.97819	4.1167	82.24	-0.2689	0.0397	0.3086	1249.6762	0.171459	-366.003459	-365.99472	-365.993776	-366.037019	33.192	
C	-0.3217712525	 1.5527901193	 0.1327636922	-0.422946
C	-0.04319288	 0.055521205	 0.0564551482	 0.007299
C	 0.4589921606	-0.5375203346	-1.2706621191	-0.048661
C	 1.8361222845	-0.0420626798	-1.6042340415	-0.286432
C	 1.6880660788	-1.1303767125	-0.5759136212	-0.078637
C	 1.2193877747	-0.5738787487	 0.7719591808	-0.009951
C	 2.2088437564	 0.3146288163	 1.546819936	-0.357111
C	 1.6501253186	 0.8229051112	 2.7984590869	 0.263792
N	 1.1869672147	 1.2093899102	 3.7845823997	-0.316668
H	 0.516959999	 2.1539831677	-0.2323078737	 0.111111
H	-1.1923210068	 1.8052028724	-0.4822207258	 0.119072
H	-0.5357826777	 1.8647165624	 1.1596771978	 0.141182
H	-0.9315833781	-0.4846715018	 0.3955207319	 0.084275
H	-0.173435449	-0.9977295025	-2.0202632693	 0.088632
H	 2.2254323675	-0.3740615171	-2.5612568449	 0.117083
H	 2.1570857788	 0.9599867618	-1.3319118247	 0.105501
H	 2.1411205206	-2.1050239318	-0.7131817288	 0.089522
H	 0.8977504677	-1.380751473	 1.4350012267	 0.094995
H	 3.1094785757	-0.2652809705	 1.7819308777	 0.150619
H	 2.5361201767	 1.1655113558	 0.9411338712	 0.147321
