20
gdb 22313	3.1467	1.09131	0.85729	1.2786	79.53	-0.2453	0.0059	0.2512	1362.397	0.171083	-440.255403	-440.246485	-440.245541	-440.288873	34.062	
C	-0.0084786141	 1.5389040133	 0.0241013538	-0.40628
C	 0.0159515096	 0.0097749189	-0.006689235	 0.012905
C	 0.7363996598	-0.522257872	-1.2507045665	-0.070265
O	 0.723152871	-1.9374872236	-1.3028956209	-0.246158
C	 1.4189880115	-2.5453147117	-0.2255893362	-0.172445
C	 0.8884290266	-2.0690072902	 1.1084617114	 0.363244
C	 0.6930026052	-0.5820687681	 1.2454249897	-0.288217
N	 0.5927652536	-2.8038715293	 2.1088964161	-0.195437
O	 0.8596257675	-4.1650642704	 1.8766047774	-0.396596
H	 1.007520885	 1.950762633	 0.0431684206	 0.115739
H	-0.5179824813	 1.9463852258	-0.8554273426	 0.116352
H	-0.5308606668	 1.9061602299	 0.9131840038	 0.119844
H	-1.014648535	-0.3661760175	-0.0484193736	 0.089547
H	 0.2411282637	-0.1821937025	-2.1654743515	 0.107704
H	 1.7758241302	-0.1456610695	-1.2693359294	 0.079874
H	 1.2902111031	-3.62152144	-0.3318803972	 0.142459
H	 2.4983124633	-2.3162720925	-0.2881985137	 0.098715
H	 1.6817855897	-0.1093279383	 1.3564896795	 0.105941
H	 0.1283489041	-0.3667277067	 2.1566088337	 0.116106
H	 0.5327239529	-4.5728238086	 2.6851080606	 0.306968
