15
gdb 125443	2.5499	1.48482	0.94457	3.5228	72.87	-0.2289	-0.0472	0.1817	1174.0269	0.113536	-450.179439	-450.171124	-450.17018	-450.212409	30.203	
C	-0.034892171	 1.4798168232	-0.0013537646	-0.509095
C	 0.0062655637	-0.010934774	-0.0471232236	 0.383001
N	 0.0114357217	-0.7291868035	-1.1397080172	-0.353555
C	 0.0564918193	-2.0277060775	-0.6655289642	 0.424031
N	 0.1333138061	-3.0832939002	-1.5313162855	-0.579602
N	 0.0713896909	-2.1560388025	 0.6441524779	-0.30669
N	 0.045644273	-0.8388419291	 1.0544737737	-0.076513
C	 0.0503206313	-0.4698916401	 2.4003690198	 0.177345
O	 0.0793840784	-1.234366493	 3.322950427	-0.2625
H	 0.8492705477	 1.8949333734	 0.4926862212	 0.153146
H	-0.0656083711	 1.8489960932	-1.0268005655	 0.165733
H	-0.918957656	 1.8467420466	 0.5295556411	 0.151624
H	-0.2396261289	-2.9026488845	-2.4499052508	 0.266341
H	-0.1126834149	-3.9798254718	-1.1410054339	 0.26834
H	 0.0226063998	 0.6289209797	 2.5048053644	 0.098392
