16
gdb 9331	5.15147	0.91612	0.78927	1.7421	63.91	-0.2536	-0.0973	0.1562	1399.5902	0.126331	-420.880868	-420.871589	-420.870644	-420.916039	30.667	
C	-0.0522576409	 1.3822902761	-0.0524805842	-0.385263
C	-0.1976525773	-0.0971051529	 0.2562090255	-0.029662
O	 0.8338558091	-0.4686201368	 1.155807294	-0.229133
C	 0.7941475835	-1.8136926338	 1.5089517398	-0.157649
C	 1.9218167903	-2.1326464014	 2.4677199793	 0.262768
O	 2.7391512019	-1.3448305531	 2.8721163823	-0.252189
C	 1.9998104814	-3.5893981435	 2.9430832335	 0.078833
O	 1.228786563	-4.4447120377	 2.5940481275	-0.216738
H	 0.921550204	 1.5847739022	-0.5065355922	 0.132629
H	-0.834696748	 1.7032333694	-0.7463474748	 0.117541
H	-0.133297144	 1.9742987094	 0.8631740163	 0.132613
H	-1.1827012344	-0.3078745305	 0.7048502711	 0.091617
H	-0.1275134052	-0.6976164182	-0.6660193824	 0.091625
H	-0.1566634143	-2.0999714456	 1.9951456385	 0.12516
H	 0.8882529578	-2.4873312191	 0.6373109074	 0.125142
H	 2.8434349331	-3.7679486844	 3.6427708384	 0.112705
