16
gdb 71925	2.52795	2.0789	1.46345	2.9857	68.22	-0.2366	-0.0161	0.2205	901.2237	0.125397	-437.8496	-437.842591	-437.841647	-437.880803	27.824	
O	 0.266023179	 1.4176957375	-0.2125970543	-0.470804
C	 0.0594418688	 0.0623613543	-0.0554551205	 0.279558
C	 0.5513473696	-0.8051097279	-1.256769143	-0.270307
C	-0.6148467698	-1.8142653351	-1.0745719154	-0.055519
C	-0.4096611499	-2.7489177686	 0.1412419958	-0.192084
N	-0.7342862408	-1.6057708348	 1.0769448595	-0.166991
C	-1.2681528427	-0.8044083357	-0.0817460106	-0.080486
C	 0.3933773022	-0.7120220294	 1.2216151471	 0.310207
O	 1.2530137778	-0.6772997467	 2.0513618506	-0.319805
H	 0.1945860212	 1.845769567	 0.6477941353	 0.297083
H	 0.3874801352	-0.2096395195	-2.1589682976	 0.13097
H	 1.5834866325	-1.1657533416	-1.2411142833	 0.115838
H	-1.0787132264	-2.2124570748	-1.9761615593	 0.082963
H	-1.1755946528	-3.5244713713	 0.2229743746	 0.123048
H	 0.5774531966	-3.1927229212	 0.302758715	 0.125582
H	-2.2934165505	-0.4444872221	-0.050533524	 0.090746
