21
gdb 90321	2.41365	1.69915	1.21419	1.3697	84.69	-0.2299	0.0196	0.2495	1099.4273	0.183471	-387.071908	-387.063544	-387.0626	-387.104648	33.437	
C	-0.3475585117	 1.4846529893	-0.0285902641	-0.397805
C	-0.0143285676	-0.0024756585	-0.0688084146	-0.010997
C	 1.3392881251	-0.3176863421	-0.828028372	-0.346903
C	 1.9483848856	-0.502345105	 0.5406604056	 0.335387
C	 2.9333176569	-0.168578563	 1.3694521493	-0.271713
C	 2.4147341185	-0.2467528924	 2.8025445822	-0.272128
C	 0.8558412164	-0.127975584	 2.6563889496	 0.082482
O	 0.4069829334	 1.1971754278	 2.8830987175	-0.422499
C	 0.6237608097	-0.6794451982	 1.2189712189	-0.070096
H	 0.5360755186	 2.088000362	 0.211933924	 0.100018
H	-0.6963540262	 1.8140689197	-1.0135689402	 0.110729
H	-1.1220691178	 1.7088442746	 0.7079545136	 0.136085
H	-0.8749104166	-0.55790383	-0.4517857735	 0.073156
H	 1.2757612877	-1.2467119416	-1.4040306126	 0.110089
H	 1.7495603935	 0.4665112558	-1.4711124182	 0.106726
H	 3.933572319	 0.1617268915	 1.1137203628	 0.090489
H	 2.6920392603	-1.1921450039	 3.2892781662	 0.106368
H	 2.7900402154	 0.5572640728	 3.4459889223	 0.104619
H	 0.3354980737	-0.724847438	 3.4104320123	 0.082176
H	 0.9047729162	 1.779671068	 2.2998184763	 0.279256
H	 0.2909961401	-1.7238144347	 1.2698319748	 0.07456
