21
gdb 73852	2.55084	1.31517	0.92262	3.0423	86.44	-0.2296	-0.0083	0.2212	1308.6262	0.18164	-387.141719	-387.132202	-387.131258	-387.176238	35.307	
C	 0.2892467066	 1.5937622277	 0.1633216946	-0.484426
C	 0.1777896393	 0.1015877348	-0.0216450118	 0.211811
C	-0.0252228052	-0.519051977	-1.1942494655	 0.199901
C	-0.2138647088	 0.1667444072	-2.5234309881	-0.476693
C	-0.0597763853	-2.0319150702	-1.3105535702	-0.38151
C	 0.1940868812	-2.8032698543	-0.0249022051	 0.381664
O	 0.7096002743	-3.8966110422	-0.0197631711	-0.312548
C	-0.2579776814	-2.0860777943	 1.2278424673	-0.30763
C	 0.3433194329	-0.6724021888	 1.2724614649	-0.292235
H	 1.2142008079	 1.8399649536	 0.7010501681	 0.125558
H	 0.2931951698	 2.1559473555	-0.7705104095	 0.122949
H	-0.5347082573	 1.9727194238	 0.7822774731	 0.124245
H	 0.5913185551	-0.1037742942	-3.2191243907	 0.126635
H	-1.1488432046	-0.1649390537	-2.9939022435	 0.122589
H	-0.2461891212	 1.2541689204	-2.4558161283	 0.123061
H	-1.0454932845	-2.3491517708	-1.6896191371	 0.128274
H	 0.6593643324	-2.3829941757	-2.0609015147	 0.128839
H	-1.3527393545	-2.002154524	 1.1892486642	 0.1176
H	 0.0115495523	-2.6797329452	 2.1041859354	 0.11658
H	 1.411913531	-0.7327580642	 1.5273018126	 0.119309
H	-0.1176462501	-0.1089239187	 2.0930190855	 0.106028
