17
gdb 3168	5.52406	2.28332	1.90741	0.156	70.45	-0.2177	0.03	0.2477	725.5603	0.15001	-272.584377	-272.578022	-272.577078	-272.614577	24.898	
C	-0.2208429719	 1.4405648418	 0.0063881764	-0.310161
C	 1.2233189298	 1.0128385042	-0.023822375	-0.315471
C	 0.1356566498	-0.034421486	-0.0004128982	 0.366369
C	-0.0955939845	-0.9427046221	 1.2191625301	-0.298116
C	-0.8732500538	-2.1724669448	 0.6710194659	-0.259393
C	-0.7148116482	-2.0506381656	-0.8278126108	-0.080548
C	-0.1753251764	-0.8839725005	-1.1801142159	-0.124988
H	-0.6122962159	 1.8577674534	 0.9288258164	 0.110174
H	-0.6500519717	 1.8690905577	-0.8935491612	 0.109328
H	 1.7828243637	 1.1528797856	-0.9433458756	 0.108966
H	 1.8134478451	 1.1425221335	 0.8782508117	 0.109013
H	 0.8685326549	-1.2656350961	 1.6266317988	 0.104076
H	-0.6314077723	-0.4335864409	 2.025028477	 0.097337
H	-0.4805915942	-3.117811061	 1.0628500552	 0.101806
H	-1.9353576866	-2.1457003578	 0.9516556507	 0.105183
H	-1.0441423519	-2.8215075029	-1.5154239821	 0.088655
H	 0.0079094343	-0.5511893085	-2.1965519534	 0.087767
