20
gdb 61549	3.31214	0.85727	0.74542	3.5839	76.36	-0.2446	-0.031	0.2136	1546.9207	0.168864	-440.27493	-440.264973	-440.264029	-440.310836	35.699	
C	-0.2412361744	 1.4108776804	 0.0223075523	-0.481687
C	 0.1034066805	-0.059963145	-0.0130453191	 0.365446
O	 0.4827446069	-0.660821	 0.970572779	-0.317146
C	-0.0306887982	-0.8210699087	-1.3350048399	 0.044412
O	 0.388546439	-2.146543549	-1.1614860196	-0.437144
C	-1.4767672997	-0.7830437685	-1.8768487276	-0.250888
C	-1.5994579944	-1.5085805043	-3.197944366	 0.045116
C	-2.6615754311	-1.1389914334	-4.1626849815	-0.252069
N	-1.2486691796	-0.8294088474	-4.458646829	-0.316604
H	 0.0916954763	 1.9244019345	-0.8843536807	 0.139057
H	-1.3294151605	 1.5293488453	 0.0835397477	 0.156812
H	 0.2060631408	 1.8713543555	 0.9041764177	 0.152978
H	 0.6240046721	-0.3132324807	-2.0657671361	 0.09262
H	 0.6229977331	-2.2155328766	-0.2208311332	 0.292978
H	-2.1307531163	-1.2548081383	-1.132183803	 0.114286
H	-1.8088695514	 0.2562578387	-1.9989225577	 0.087008
H	-1.2675826279	-2.5424510186	-3.1640254772	 0.117761
H	-3.1088274121	-1.8942851498	-4.802512176	 0.121522
H	-3.3289892517	-0.3223040221	-3.8967624617	 0.105411
H	-1.0773661212	 0.158536718	-4.2808662982	 0.220131
