19
gdb 47535	2.82683	1.53191	1.09071	2.5458	77.37	-0.2372	0.0165	0.2537	1112.1477	0.161904	-419.184867	-419.177183	-419.176239	-419.217076	30.237	
N	-0.0427876754	 1.382548804	-0.2317741426	-0.48062
C	-0.042302249	 0.1422020594	 0.0241895169	 0.366935
C	-1.341141512	-0.6346202551	 0.07746645	-0.295619
C	-1.6548955077	-1.2135644841	 1.4461959952	-0.000446
C	-2.142294294	-2.6147793096	 1.5884778667	-0.263711
N	-0.7986019006	-2.2485781856	 2.0263588592	-0.080724
C	 0.3415160628	-2.6813411025	 1.2224479693	-0.176718
C	 1.3705926495	-1.5605716912	 1.1210826902	-0.06801
O	 1.1321615944	-0.5587982451	 0.1206108303	-0.259165
H	 0.9196513882	 1.7285152548	-0.2497458381	 0.218278
H	-2.1347469715	 0.0542138356	-0.2177774967	 0.136679
H	-1.2964880875	-1.4297021276	-0.6738395471	 0.116824
H	-1.9843646869	-0.4732937806	 2.1729703912	 0.104224
H	-2.8391179354	-2.8873249862	 2.3764060471	 0.120596
H	-2.241050244	-3.1978193934	 0.6733297185	 0.110568
H	 0.8098852172	-3.5288057764	 1.7376568164	 0.112851
H	 0.0753581317	-3.0308574289	 0.2124757671	 0.098096
H	 1.4667667346	-1.0782284165	 2.1023198362	 0.12058
H	 2.3428039256	-1.975442301	 0.8441466503	 0.119382
