21
gdb 115207	3.8848	0.94087	0.79791	4.6976	79.18	-0.256	0.0149	0.2709	1462.6365	0.183378	-424.280959	-424.271833	-424.270889	-424.315314	33.812	
C	-0.0065754033	 1.6219531054	-0.0858304287	-0.395045
C	-0.0114608193	 0.0893198622	-0.0695950248	-0.187346
C	-1.4019600122	-0.552589469	 0.0587464806	 0.005314
C	-1.353507443	-2.0762115238	-0.0858118877	-0.226455
C	-2.7681504322	-2.6512180097	 0.0028403566	-0.344567
C	-3.6327140079	-2.0893875419	 1.1240523312	 0.405827
O	-4.6156909807	-2.6493180191	 1.5271703187	-0.323817
O	-3.3219788702	-0.8681811504	 1.6241536182	-0.232157
C	-2.0485552748	-0.2363034058	 1.4050635165	-0.060742
H	 1.0038734949	 2.0041919345	-0.2586329469	 0.119876
H	-0.6493914547	 2.0109796102	-0.8831604346	 0.119855
H	-0.3568673232	 2.0465982609	 0.8599751469	 0.12291
H	 0.4448735484	-0.2797150553	-0.996389679	 0.101504
H	 0.6288134004	-0.2745465743	 0.7456751164	 0.099711
H	-2.0477162825	-0.148072011	-0.7348166839	 0.080497
H	-0.8879393098	-2.364810426	-1.034409589	 0.1027
H	-0.7240931725	-2.4934917983	 0.7117972436	 0.105261
H	-3.3165955824	-2.4300197145	-0.922627426	 0.13864
H	-2.7762598854	-3.7383770557	 0.1084356102	 0.135978
H	-1.3752731437	-0.5434270211	 2.2182282025	 0.109744
H	-2.2476340258	 0.8310634929	 1.5230820189	 0.122311
