18
gdb 51715	4.02991	0.85188	0.78881	3.6121	74.05	-0.2427	-0.0238	0.2189	1440.1988	0.147852	-439.147189	-439.138476	-439.137532	-439.182068	31.615	
O	-0.0174991361	-0.0037000972	-0.7851147762	-0.319598
C	-0.0301428807	 1.0920450181	-0.2667553732	 0.152333
N	 1.0534968075	 1.7248246026	 0.2631210719	-0.290184
C	 2.3857620544	 1.1544476595	 0.2723359138	 0.039021
C	 3.4354480919	 1.9985564615	-0.489291071	-0.237262
C	 4.7806934676	 1.4495065244	 0.0041597242	-0.318515
C	 4.5148886749	 0.9825451077	 1.4416013665	 0.402214
O	 5.3517199913	 0.6759385122	 2.2486618075	-0.306143
C	 2.9991881166	 0.9778516675	 1.6729083473	-0.335251
H	-0.9482017845	 1.7045675806	-0.1693801857	 0.077511
H	 0.9170263905	 2.6389707602	 0.6673300686	 0.244378
H	 2.2821609077	 0.1793324424	-0.2108705147	 0.134913
H	 3.3015172378	 1.9392908424	-1.5715130651	 0.120241
H	 3.3300097382	 3.052904834	-0.2020640394	 0.09833
H	 5.0846422815	 0.5663319079	-0.5732324943	 0.140466
H	 5.6137901551	 2.1549681797	-0.03122198	 0.132663
H	 2.7612543689	 1.8412786421	 2.310527405	 0.12323
H	 2.6740186072	 0.0831282646	 2.2076453447	 0.141651
