20
gdb 117294	4.60145	0.69867	0.66448	2.1434	78.02	-0.2743	-0.0063	0.268	1780.9366	0.16772	-440.336682	-440.325977	-440.325032	-440.374296	36.701	
C	 0.0900923579	 1.5380865574	 0.150900387	-0.387168
C	 0.5360475314	 0.0801188474	 0.019839212	-0.159838
C	 0.2960148147	-0.71940501	 1.300687844	-0.307369
C	 0.7195936134	-2.1660903755	 1.1874160972	 0.449901
O	 1.1564640728	-2.7025506775	 0.2039647833	-0.350711
O	 0.521748057	-2.8064449233	 2.375642904	-0.243531
C	 0.8514634218	-4.1621264684	 2.4852309907	 0.382703
C	 2.3252090569	-4.4436405008	 2.4019848895	-0.477534
N	-0.1082085868	-4.941591435	 2.7177710714	-0.435475
H	 0.6300368551	 2.0509271824	 0.9548535477	 0.114515
H	 0.2727321505	 2.0894272303	-0.7761377361	 0.117738
H	-0.9801168196	 1.6096608957	 0.3750568851	 0.116924
H	 0.0072478272	-0.4047594722	-0.8073413434	 0.117688
H	 1.59958691	 0.0326603709	-0.2383352718	 0.111125
H	 0.8261929639	-0.2794717523	 2.1546848909	 0.130406
H	-0.7641120772	-0.7091485135	 1.5843723797	 0.140969
H	 2.5311232962	-5.4929421818	 2.6209941914	 0.128748
H	 2.6890331365	-4.2032447579	 1.4002993824	 0.17622
H	 2.8666374569	-3.8154112364	 3.1169017688	 0.144174
H	 0.2342974014	-5.8929221395	 2.851152146	 0.230516
