18
gdb 126912	2.63093	1.28923	1.00085	1.8913	74.76	-0.1952	0.031	0.2262	1224.4192	0.148637	-435.269816	-435.260509	-435.259565	-435.304843	33.461	
C	-0.3367946096	 0.9002372903	-1.0866853753	-0.372798
C	 0.0679421001	 0.0515955871	 0.1212079249	-0.155574
N	 1.2511792528	-0.8063963342	-0.0864404398	-0.401895
C	 1.10784847	-1.869921032	-0.984669063	 0.310229
C	 1.5016910089	-2.0475297157	-2.3006562455	 0.168867
O	 2.1205035541	-1.0774839372	-3.041517625	-0.461322
C	 1.1098681574	-3.3588602819	-2.6378147983	-0.115956
N	 0.5060642392	-3.9649387039	-1.614010285	-0.229227
N	 0.5243344998	-3.0510583762	-0.6291279409	-0.229367
H	 0.4675681597	 1.5879213966	-1.3694532804	 0.11622
H	-0.5579163381	 0.2683562392	-1.9517369679	 0.136523
H	-1.22678812	 1.496828695	-0.8596554631	 0.112821
H	 0.2832200115	 0.6940105704	 0.9822681999	 0.104621
H	-0.7611842268	-0.5999565126	 0.4174937181	 0.108176
H	 2.0487121771	-0.2423279787	-0.3591577823	 0.237774
H	 2.4709018397	-1.4773286031	-3.842492713	 0.29953
H	 1.2329211585	-3.8785856716	-3.5778381455	 0.100822
H	 0.1607913558	-3.2865848416	 0.2786877421	 0.270556
