16
gdb 130427	2.72476	1.49539	0.97597	2.4358	75.91	-0.2288	-0.0667	0.1622	1151.4205	0.126987	-430.245451	-430.237273	-430.236329	-430.27879	30.06	
N	 0.202584998	 1.4163104854	-0.1458056572	-0.493408
C	 0.0080951837	-0.0220537859	-0.0960177765	-0.241288
C	-1.4189023824	-0.5113362233	 0.0071856896	 0.289952
N	-2.3967602265	 0.3350603318	 0.0468250681	-0.318323
C	-3.6787732459	-0.1644353703	 0.1410641504	 0.066763
N	-4.0154463962	-1.4130830103	 0.195195569	-0.177759
N	-2.9888595113	-2.286547409	 0.1532050222	-0.292682
C	-1.6382337445	-1.9713707564	 0.059424387	 0.350212
N	-0.6559960452	-2.7939848699	 0.0188616146	-0.548574
H	-0.3254440128	 1.7961876875	-0.927269411	 0.232516
H	-0.2233732217	 1.8378704784	 0.6755665734	 0.232504
H	 0.4579241015	-0.4944512868	-0.9786729082	 0.146521
H	 0.5673139511	-0.4495618084	 0.746048675	 0.146529
H	-4.4862838479	 0.5567849583	 0.173209444	 0.134679
H	-3.2682770103	-3.2563063821	 0.1963608101	 0.267122
H	-0.9641948595	-3.7670871589	 0.0639301195	 0.205236
