14
gdb 44194	5.47751	1.02704	0.94291	1.3691	66.08	-0.2949	-0.0161	0.2788	1166.3813	0.101867	-436.705249	-436.698018	-436.697074	-436.737537	26.556	
O	-0.5378075221	 0.2884397859	 0.6169133542	-0.305094
C	-0.1639437367	 1.2978224483	 0.121639944	 0.450622
O	-0.9356607354	 2.2689247243	-0.5012790018	-0.250479
C	 0.2329576742	 3.0717110768	-0.8140960652	 0.105288
C	 0.4925942008	 4.1324393924	 0.3027598343	-0.172719
C	 1.4359370702	 3.099102101	 1.021803967	-0.261642
C	 1.1464977622	 2.0516398501	-0.0970518731	-0.224805
C	 1.1456975591	 5.3499106474	-0.1434358369	 0.267389
N	 1.6815715033	 6.3031366993	-0.5185608035	-0.311466
H	 0.2718452815	 3.3616789039	-1.8612962091	 0.129062
H	-0.4219691266	 4.3788329217	 0.8465895398	 0.150863
H	 2.4758027	 3.4245488941	 1.0231397114	 0.150845
H	 1.1469528493	 2.8168251327	 2.0343838075	 0.14451
H	 1.9774269603	 1.5104093322	-0.5420986885	 0.127626
