20
gdb 113143	2.10395	1.01794	0.75451	2.3961	85.5	-0.2345	0.0441	0.2785	1571.9378	0.168593	-403.098592	-403.087891	-403.086947	-403.135959	37.579	
C	 0.123851484	 1.4847449357	 0.1125002852	-0.503343
C	 0.0373971487	 0.0330036888	 0.0490579483	 0.117049
C	-0.0467798804	-1.1681289943	 0.0110113672	 0.061534
C	-0.0844245479	-2.6095822979	-0.0790883017	 0.076501
C	 1.1764140991	-3.2303997888	-0.6602518579	-0.46639
N	-0.7493771792	-3.3098939451	 1.0544890699	-0.366553
C	-1.3826422319	-3.3317217903	-0.2755992602	-0.062142
C	-2.7258822071	-2.6411114862	-0.3265990756	-0.082734
O	-3.6862831392	-3.3546313504	 0.4351593185	-0.422019
H	 1.1370382727	 1.8326351246	-0.1170630605	 0.148738
H	-0.5591635312	 1.9575226275	-0.6019080488	 0.149567
H	-0.1342474844	 1.8524324767	 1.111721076	 0.152683
H	 2.0419497151	-3.0035907105	-0.0296907117	 0.132767
H	 1.0750325091	-4.3180378937	-0.7356603279	 0.112287
H	 1.3778348745	-2.834183917	-1.6599715006	 0.135398
H	-0.2637053292	-4.1866298777	 1.2305965499	 0.231329
H	-1.3236356217	-4.2628905817	-0.8372878884	 0.088329
H	-2.6177862753	-1.60604824	 0.0241866401	 0.101888
H	-3.1018592488	-2.613043797	-1.354622066	 0.105303
H	-3.3177634569	-3.4153136526	 1.324813284	 0.289809
