21
gdb 40511	3.07764	1.31468	1.1429	1.8747	81.78	-0.2385	0.0718	0.3103	1166.2273	0.183501	-387.040116	-387.03199	-387.031046	-387.07315	31.831	
C	-0.1759800942	 1.2632798228	-0.4215012828	-0.27972
C	 1.2110952046	 1.0662144063	 0.1334257172	-0.272373
C	 0.2428336582	-0.0952760404	 0.0851071967	-0.110137
C	-0.3094882818	-0.7004892451	 1.33909289	 0.335391
C	 0.2898929888	-2.0658429136	 1.8064392482	-0.29613
C	-1.143730584	-2.6726167286	 1.9142925763	-0.228442
C	-1.7428667779	-1.3070209879	 1.5169282596	 0.071299
O	-2.0004679978	-0.4602163701	 2.654407224	-0.293433
C	-0.7183660337	 0.1931040602	 2.5300372843	-0.140618
H	-0.8833288802	 1.8405547968	 0.1639293526	 0.119467
H	-0.2883487614	 1.3885946685	-1.4927554629	 0.112627
H	 2.0518974976	 1.0673141602	-0.5510354075	 0.113387
H	 1.4309486528	 1.4996885128	 1.1036863353	 0.114385
H	 0.4450225191	-0.8295405569	-0.691522502	 0.080038
H	 0.9088948881	-2.5428243391	 1.0422163231	 0.101403
H	 0.8674719407	-2.0243727791	 2.7340496772	 0.09947
H	-1.334460635	-3.4622588326	 1.1820845425	 0.099473
H	-1.4580224631	-3.0204655189	 2.9005180955	 0.10972
H	-2.5493373824	-1.266723258	 0.7790491266	 0.070386
H	-0.1074516642	 0.0959314005	 3.43706352	 0.095949
H	-0.840624064	 1.2605049223	 2.3037519259	 0.097857
