16
gdb 44080	3.90823	1.49088	1.22902	3.3508	70.16	-0.2522	0.0003	0.2525	998.7439	0.125164	-437.831677	-437.82482	-437.823875	-437.862911	27.235	
N	-0.1008152917	 1.1984555579	-0.0767064571	-0.538974
C	-0.0613486239	-0.0486133893	 0.0005795796	 0.403773
O	 1.0300346914	-0.9242960002	 0.0445166732	-0.300945
C	 0.1574093859	-2.0514767855	 0.2290567205	 0.422184
C	 0.3022355606	-3.4918939323	-0.2112428278	-0.34515
C	-0.6674014485	-3.8552033932	 0.9750576474	-0.24881
C	-0.4837715781	-2.4224339976	 1.5787030097	 0.046403
O	-1.5880818698	-1.5084916076	 1.3855154544	-0.297374
C	-1.0947129496	-1.1728647832	 0.0692287524	-0.080055
H	 0.8355373785	 1.6073784439	-0.0847681048	 0.234955
H	-0.0031635362	-3.7473284129	-1.2281698785	 0.116426
H	 1.311315751	-3.8747265021	-0.0355980668	 0.127436
H	-1.697624458	-4.0413842684	 0.6684484368	 0.12773
H	-0.3262474322	-4.6701660086	 1.6144519169	 0.119495
H	-0.0206295565	-2.3360028831	 2.5621260541	 0.099597
H	-1.8492024429	-1.2221821078	-0.7169041701	 0.113309
