16
gdb 20433	4.7126	2.10771	1.50709	2.9722	70.43	-0.2287	0.0323	0.2611	818.9618	0.135427	-342.821092	-342.815027	-342.814083	-342.851268	23.614	
C	 0.1367025668	 1.4518877342	-0.3267791167	-0.215717
C	 1.4757587412	 1.9354360747	 0.2866232457	-0.166957
N	 2.0985498308	 0.671658151	 0.634512381	 0.060976
N	 3.3522279202	 0.4049970365	 1.0265796721	-0.300725
C	 3.3149139703	-0.9049343484	 1.2936772255	 0.009888
C	 2.0337422648	-1.4670059981	 1.0823609391	-0.388726
C	 1.2697210136	-0.3979982572	 0.6547472498	 0.411501
C	-0.112328692	 0.0281094167	 0.2630007936	-0.354145
H	-0.6827463067	 2.1423119606	-0.1187161798	 0.113149
H	 0.2427540936	 1.3808945977	-1.4126809919	 0.123029
H	 2.0962322182	 2.4978135103	-0.4149576514	 0.131779
H	 1.3297590042	 2.5499086905	 1.1833392669	 0.122918
H	 4.2144388697	-1.4051578553	 1.6230625713	 0.106684
H	 1.7284658887	-2.4917788706	 1.2162631932	 0.099789
H	-0.7738503922	 0.0691457976	 1.137241347	 0.123168
H	-0.5851600812	-0.6383346403	-0.4631928853	 0.123388
