17
gdb 56663	2.67867	1.31415	1.03415	3.7631	70.23	-0.2357	0.0094	0.2451	1159.4322	0.13252	-458.892045	-458.882593	-458.881649	-458.925895	36.096	
O	-0.4622392428	 1.2627035893	 0.0737763693	-0.425813
C	-0.056348963	-0.1100325125	 0.0208884272	-0.097508
C	 0.7525892521	-0.3808159741	-1.1700611027	 0.258664
C	 1.466818644	-0.579139243	-2.1171725932	-0.427389
C	 0.6909330946	-0.5641900838	 1.2846563069	 0.32023
O	 1.0451639103	-1.9143302728	 1.2341829821	-0.461493
C	 1.5930250145	 0.4051582938	 2.0309819744	-0.39788
C	 0.2723534679	-0.0539073782	 2.6292958475	 0.097115
O	-0.8062409154	 0.8015815863	 2.8182165072	-0.432636
H	 0.2921168993	 1.8034721902	-0.1860111706	 0.298354
H	-0.9878456562	-0.6851384125	-0.0361348099	 0.141055
H	 2.0717639964	-0.7580409554	-2.9723696732	 0.210644
H	 1.7152978985	-2.015266741	 0.545649113	 0.284952
H	 2.5135813847	 0.0085587865	 2.4450950733	 0.118739
H	 1.6497023666	 1.4327649111	 1.685126666	 0.097926
H	 0.337380753	-0.7786722578	 3.4343676249	 0.120142
H	-0.9296913745	 1.2971921039	 1.9962929976	 0.294896
