21
gdb 86076	2.12868	1.76547	1.17496	1.8067	85.38	-0.2259	0.0129	0.2388	1141.5801	0.182546	-387.069123	-387.060365	-387.059421	-387.102255	33.561	
C	 0.0616077812	 1.5846848489	 0.0315998946	-0.378992
C	 0.0085369027	 0.055476294	-0.0106884194	-0.039056
C	 0.9144135522	-0.528612989	-1.1553479581	-0.304359
C	 2.2796963812	-0.7210939242	-0.4822439356	 0.185059
C	 3.5694971697	-0.6486816473	-1.2327384406	-0.495877
C	 2.0665633811	-0.8398469031	 0.8258903462	 0.097548
C	 2.5031941769	-0.3538744101	 2.1856197011	-0.155391
O	 1.1592397635	 0.1893678328	 2.3770490018	-0.306637
C	 0.6561497359	-0.5961920723	 1.2350842926	 0.109129
H	 1.0922453134	 1.9399256391	 0.125577119	 0.119406
H	-0.3649753001	 2.0082741935	-0.8832810937	 0.105826
H	-0.4980234375	 1.9747135671	 0.8860635794	 0.125055
H	-1.0317108161	-0.264499552	-0.1325907749	 0.064272
H	 0.505730946	-1.4671070611	-1.5538633824	 0.103571
H	 0.9869706022	 0.1611199684	-2.0054503373	 0.099866
H	 3.6680491115	-1.4838428302	-1.9383836623	 0.130577
H	 3.6271082877	 0.2698502894	-1.8305146837	 0.126496
H	 4.4310761562	-0.6788908185	-0.5599810755	 0.123622
H	 2.7202040389	-1.1261995634	 2.9356345632	 0.104381
H	 3.2816226905	 0.4167781534	 2.21902736	 0.11337
H	 0.0740461826	-1.4446876953	 1.6200078558	 0.072133
