16
gdb 26606	2.34433	1.87468	1.0456	3.8793	78.08	-0.1806	-0.009	0.1716	1077.9323	0.127937	-434.145263	-434.137405	-434.136461	-434.177121	31.146	
N	-0.0330624596	 1.4035302599	 0.126580326	-0.59303
C	 0.0058062125	 0.0153816843	 0.0432723545	 0.270478
C	-1.1757900848	-0.6898289788	-0.0336033374	 0.076851
N	-2.4209469304	-0.0298009638	-0.0924629432	-0.608925
C	-1.1941649747	-2.1298780996	-0.1137745234	 0.39066
O	-2.2114001698	-2.8159472051	-0.2055781644	-0.433489
N	 0.0727118541	-2.7229748535	-0.0918903372	-0.379335
C	 1.2489566442	-2.0408547915	 0.0164096595	 0.02295
C	 1.2507218956	-0.6857576025	 0.0860766402	-0.232535
H	 0.8170450747	 1.8686080143	-0.1586101153	 0.246704
H	-0.8504069153	 1.7962431028	-0.3265817164	 0.257388
H	-2.5904201328	 0.548791388	 0.7250477862	 0.242798
H	-3.1494116201	-0.736203684	-0.1568706767	 0.257401
H	 0.0633909344	-3.7313616048	-0.1399100036	 0.258335
H	 2.1507700807	-2.6386489858	 0.0397169075	 0.129116
H	 2.1848151712	-0.1448194399	 0.1691923939	 0.094633
