19
gdb 40097	3.70508	1.32821	1.14733	1.4804	74.69	-0.2351	0.0711	0.3062	1104.5113	0.160498	-422.990449	-422.982915	-422.981971	-423.022741	29.562	
C	-0.1656692253	 1.4115536545	 0.2079561066	-0.334445
C	 1.2242946121	 0.8462836352	-0.0671607959	-0.342377
C	 0.0294901358	-0.047183848	-0.0291410097	 0.461376
O	-0.1441824508	-1.0140423265	 1.0121804168	-0.322371
C	-0.5069196611	-2.0260995002	 0.0373188106	 0.09812
C	-1.9557852177	-2.5277320906	 0.14083832	-0.10136
O	-2.605520821	-2.096699793	-1.0484018935	-0.249389
C	-2.0176757326	-0.8626136165	-1.4427131035	-0.095561
C	-0.5194237532	-0.9811093713	-1.1018418357	-0.1896
H	-0.3853734389	 1.7180144925	 1.2250410293	 0.127405
H	-0.6469315741	 2.0092835447	-0.5595544192	 0.116176
H	 1.6886598686	 1.0564293909	-1.0255644123	 0.114187
H	 1.9114889449	 0.7854537911	 0.7697822875	 0.125887
H	 0.2416042213	-2.8226053316	-0.0003751706	 0.087031
H	-2.0422993662	-3.616756457	 0.1861380256	 0.10786
H	-2.4162070301	-2.0911321118	 1.0400789698	 0.104183
H	-2.2162301062	-0.7314945364	-2.5093126847	 0.10869
H	-2.4694476808	-0.02045736	-0.8958644213	 0.097406
H	 0.1145997555	-1.1597324462	-1.9700742798	 0.086783
