18
gdb 77099	2.83997	1.22678	0.99401	4.4898	77.11	-0.2532	0.0018	0.255	1226.2596	0.146378	-401.928603	-401.919849	-401.918904	-401.962564	32.501	
C	-0.2539377134	 1.3465168374	-0.0369192378	-0.415698
C	-0.0281994647	-0.1531387235	 0.062333071	-0.150784
C	 1.2233673054	-0.726788775	-0.669002735	-0.009947
O	 1.7524633573	-1.2661864212	 0.5568361884	-0.307231
C	 0.6619664078	-0.7111273623	 1.3093533821	 0.466044
C	 0.8812595882	-0.0968937315	 2.6507899916	-0.338907
C	 0.1099979263	-1.4044443918	 2.5040300714	-0.330885
C	 0.9796727872	-1.7529035422	-1.6841742781	 0.274854
N	 0.7679685604	-2.5486459514	-2.4949638587	-0.319637
H	 0.6547769183	 1.9020641231	 0.2149126212	 0.128956
H	-0.5616511117	 1.6284740259	-1.0488867503	 0.131803
H	-1.0445814542	 1.6655585652	 0.6498258815	 0.128905
H	-0.9363394775	-0.7033206946	-0.1950872046	 0.111006
H	 1.8849940356	 0.0409168619	-1.0891859717	 0.124137
H	 1.8849131243	-0.1533387004	 3.0583463102	 0.13218
H	 0.3354115123	 0.8046970787	 2.9097355814	 0.119758
H	-0.9644755598	-1.3960327413	 2.6576488522	 0.12105
H	 0.6076750282	-2.3158923071	 2.8170442652	 0.134396
