21
gdb 78392	3.80075	1.1735	1.04648	1.3878	83.22	-0.2006	0.0695	0.2702	1244.175	0.180748	-387.01648	-387.007518	-387.006574	-387.049194	35.754	
C	-0.0271574581	 1.4738766832	 0.0072251452	-0.420695
C	-0.0116569798	-0.0412629767	-0.00143879	-0.032381
C	 1.33892937	-0.6794097298	-0.2152831164	-0.076816
C	 0.6975791367	-0.6935228785	 1.1624142617	-0.083581
C	 0.724184096	-2.2440546827	 1.1760225892	-0.153467
C	 1.377803074	-2.2300144167	-0.2286019718	-0.111734
C	 0.1000894376	-2.9702289314	 0.0089511831	 0.361699
C	 0.2622460793	-4.4817537856	 0.0701826264	-0.43521
O	-1.1007634019	-2.6087898754	-0.6324281328	-0.452356
H	 0.8919472626	 1.8815216321	 0.4436387694	 0.109255
H	-0.117558306	 1.8715224931	-1.0094427788	 0.117472
H	-0.8705795914	 1.8560474334	 0.592777304	 0.114136
H	-0.8884134785	-0.5066092608	-0.4271680328	 0.109581
H	 2.1933447909	-0.0993305605	-0.5420693992	 0.081693
H	 0.991526268	-0.1223726865	 2.0347621106	 0.08116
H	 1.0496561666	-2.7918263398	 2.0538221957	 0.078539
H	 2.2649831528	-2.7614356378	-0.5552759705	 0.082122
H	 1.2146887183	-4.7722762984	 0.5221236807	 0.119264
H	-0.5421211418	-4.9293996274	 0.6662621469	 0.106839
H	 0.2099194298	-4.9019658391	-0.9385699396	 0.127511
H	-1.8252794051	-2.8554288148	-0.0457188809	 0.27697
