17
gdb 33372	5.93292	0.60953	0.57145	1.3388	90.25	-0.2461	-0.0164	0.2297	1863.3405	0.134355	-384.611688	-384.602491	-384.601547	-384.647147	32.553	
C	 0.0035481224	-3.7400733125	-0.211827485	-0.549484
C	 0.0001181276	-2.5357272053	-0.1236683683	 0.290851
C	-0.0043294815	-1.1786193414	-0.0238704927	-0.22899
C	-0.0094485859	 0.0285822611	 0.0647206819	 0.361843
C	 0.012561748	 1.4794410111	 0.1720861974	-0.409806
C	 1.4352111354	 2.0570175525	 0.1500847218	-0.02005
C	 2.1603591508	 2.0268464331	-1.2132580402	-0.073063
O	 2.1115577111	 3.4657043957	-1.3206541882	-0.269472
C	 1.5245979564	 3.5908618117	-0.0112475689	-0.089351
H	 0.0065449868	-4.7988168421	-0.2898580298	 0.191707
H	-0.5673625598	 1.9173018268	-0.65210993	 0.143391
H	-0.4914358796	 1.7867536545	 1.0985821249	 0.139503
H	 2.0139556686	 1.648248542	 0.9802681988	 0.09508
H	 3.190948144	 1.6524108174	-1.189188208	 0.105778
H	 1.6215927787	 1.5311981235	-2.0303166183	 0.109673
H	 0.5658059582	 4.1259065484	-0.0369141254	 0.100781
H	 2.1943025389	 4.0987912935	 0.6942604299	 0.101607
