19
gdb 104695	2.6884	1.34032	1.10441	2.4047	70.85	-0.2441	0.0574	0.3015	1147.7983	0.159267	-460.100076	-460.091432	-460.090488	-460.133375	32.921	
O	 0.1748069131	 1.2968040086	 0.1905929759	-0.419684
C	 0.0404028683	-0.0539474978	-0.2750216314	-0.159289
C	-1.3789120113	-0.5607348051	-0.1240343806	 0.230439
C	-2.42022262	 0.237933895	-0.8988860153	-0.117691
O	-2.5716320991	 1.5596905091	-0.4198829542	-0.433225
C	-1.716118384	-2.0412024112	 0.011603642	-0.198339
C	-0.7049995139	-2.7560216334	 0.9029346329	-0.114086
O	-0.830218672	-1.7373168457	 1.9334400782	-0.294593
C	-1.8747631029	-1.1015975289	 1.1871735318	 0.060711
H	 0.0603012867	 1.2767684906	 1.1476596343	 0.297452
H	 0.3185450624	-0.0227812856	-1.3338038489	 0.115779
H	 0.7540813871	-0.7010975059	 0.2439924781	 0.113873
H	-2.150371326	 0.225144608	-1.9691044468	 0.086607
H	-3.4022917198	-0.2422817879	-0.8124133759	 0.097635
H	-1.6754982535	 1.9094055002	-0.3119070826	 0.285782
H	-2.459207188	-2.5247430324	-0.6089503956	 0.103511
H	-1.0767876912	-3.7168937958	 1.2752576856	 0.117023
H	 0.325223493	-2.874278722	 0.5486673413	 0.109775
H	-2.7364682388	-0.7280225099	 1.7282789013	 0.118321
