19
gdb 77759	2.48505	1.64467	1.14769	4.0913	76.25	-0.2354	0.019	0.2544	1107.7356	0.157074	-422.99549	-422.986591	-422.985647	-423.028274	34.626	
C	-0.1817134174	 1.544883438	 0.7926034019	-0.437845
C	-0.0630713962	 0.0591801777	 0.4905905343	 0.01085
C	 1.0576255301	-0.4631441767	-0.4822431866	-0.260893
C	 1.9977412362	-0.1664398499	 0.7039710712	 0.457209
O	 3.0192257389	 0.3904637231	 0.950121726	-0.331505
C	 0.8154030909	-0.8648381507	 1.4132574524	-0.228607
C	 0.8956625036	-1.8694360524	 0.2188176522	 0.450476
C	-0.2812241463	-2.76942332	-0.1310428986	-0.482815
O	 2.0779297714	-2.6425002948	 0.3034202297	-0.47422
H	 0.786274466	 2.0028505465	 1.0155304234	 0.143107
H	-0.6170721682	 2.0759745116	-0.0605357579	 0.121052
H	-0.8386073162	 1.7099026295	 1.6532952224	 0.121835
H	-1.042974019	-0.366994211	 0.2761478163	 0.079501
H	 1.1787210361	-0.2478580853	-1.5432051582	 0.081135
H	 0.6717145641	-1.0990270993	 2.4664444676	 0.088722
H	-1.2418463708	-2.25543938	-0.1767800226	 0.129353
H	-0.1133473945	-3.2321193457	-1.1114261741	 0.114529
H	-0.3530546152	-3.5731724291	 0.6072676004	 0.136795
H	 2.1902095064	-3.1231360515	-0.5238180298	 0.281321
