22
gdb 98285	2.51823	1.02319	0.84045	3.0598	82.86	-0.2358	-0.0137	0.2221	1482.7322	0.192164	-404.347154	-404.336581	-404.335637	-404.383962	37.572	
C	 0.1670688808	 1.0714558673	-0.7164186387	-0.377266
C	-0.1759439216	-0.3576209566	-0.3065674452	-0.292309
C	-1.4893357365	-0.4836366119	 0.448146807	 0.3987
O	-2.1621806658	 0.4793484892	 0.7399602201	-0.320311
C	-1.9552115573	-1.9030488961	 0.805738113	-0.118651
C	-2.4319561005	-1.9670674801	 2.2642295724	-0.395767
C	-3.0738664353	-2.2797642367	-0.158083825	 0.046662
C	-2.7845347314	-2.9403546831	-1.4554696393	-0.25108
N	-3.4406776001	-3.6872592724	-0.3652190094	-0.326609
H	 1.1269199508	 1.1057337688	-1.2391961421	 0.110022
H	-0.6014117911	 1.4827471694	-1.3760888621	 0.131619
H	 0.2241109889	 1.7235309697	 0.1586870713	 0.133647
H	-0.2263865834	-1.0265663601	-1.1770740852	 0.122774
H	 0.6085728043	-0.7890814866	 0.3326222038	 0.122956
H	-1.1225873229	-2.6021929168	 0.6508046706	 0.065066
H	-3.2007666907	-1.2100458597	 2.4362918967	 0.145763
H	-2.8507881884	-2.9515482333	 2.4916145415	 0.118411
H	-1.6083031748	-1.7756482056	 2.959062979	 0.114465
H	-3.9314249928	-1.6124358925	-0.1026156019	 0.111072
H	-3.4107804821	-2.7481964514	-2.321778996	 0.124391
H	-1.7483943788	-3.1726100711	-1.691449847	 0.108099
H	-2.7609303012	-4.2922897705	 0.0913457065	 0.228344
