17
gdb 131367	3.19962	1.50075	1.04538	2.3072	74.64	-0.2132	0.0329	0.2461	1106.5515	0.139814	-418.039942	-418.032509	-418.031565	-418.071703	29.009	
O	 0.1954178171	 1.3494688533	 0.0135255038	-0.43007
C	 0.1432635556	 0.0005860297	 0.0680673794	 0.258122
N	 0.2638730963	-0.7401753956	-1.0290982856	-0.339231
N	 0.152461035	-2.0298940889	-0.5835298118	-0.350362
C	-0.0130837273	-2.0778150042	 0.7533195767	 0.376846
C	-0.029129514	-0.7879049769	 1.2241902306	 0.156978
C	-0.2666097981	-0.7473106882	 2.7054270198	-0.360338
C	-0.0561868111	-2.2486214364	 3.1026349934	-0.194667
C	-0.2364452145	-3.1136182912	 1.8095893615	-0.34896
H	 0.3281054193	 1.5864368825	-0.9131129609	 0.29966
H	 0.2396891276	-2.7777709384	-1.2479900392	 0.267601
H	 0.4181350192	-0.0909073195	 3.251533783	 0.111765
H	-1.2828771266	-0.4096899074	 2.9472375209	 0.109062
H	 0.9666583143	-2.3778274325	 3.4686020659	 0.113276
H	-0.7275204568	-2.566427591	 3.9042077047	 0.101501
H	-1.246017822	-3.5404042352	 1.7441424402	 0.117196
H	 0.4660924362	-3.9528988802	 1.7753866876	 0.111622
