13
gdb 27136	3.45927	1.18154	0.91121	3.7078	62.34	-0.2142	-0.0096	0.2047	1174.4283	0.089359	-489.927948	-489.920005	-489.919061	-489.961266	28.209	
O	 0.3537088623	 1.1951014699	-0.5002129915	-0.438792
C	 0.1237002448	-0.1066828152	-0.2236934183	 0.259661
C	-0.2980529069	-1.0698887619	-1.1027843578	 0.259503
N	-0.3778436886	-2.2343450679	-0.3584199465	-0.302156
C	-0.0137421309	-1.9166710495	 0.909440995	 0.015951
N	 0.3035646617	-0.6409899674	 1.018310077	-0.32979
O	-0.6644587453	-1.0581873652	-2.4184486973	-0.219906
C	 0.2920730213	-0.6764025683	-3.3270550186	 0.164494
O	 0.0467127231	-0.581508589	-4.4852989041	-0.249806
H	 0.6277909336	 1.6071644045	 0.3281479469	 0.307107
H	-0.6903125714	-3.1254678862	-0.7070917736	 0.280878
H	 0.0009926728	-2.6402920186	 1.7091956082	 0.143883
H	 1.2624239734	-0.4791397752	-2.8404191696	 0.108972
