19
gdb 118946	2.49677	1.04876	1.01019	0.8188	71.91	-0.2486	-0.0305	0.2181	1303.5551	0.156334	-460.16052	-460.150481	-460.149537	-460.195966	35.837	
O	-0.3882357142	 1.5308530672	-0.3639617151	-0.423191
C	-0.099856107	 0.1493486037	-0.2018358946	-0.086758
C	-1.4306526073	-0.5672239243	 0.0003446447	-0.214991
C	-1.2803603944	-2.0802088177	 0.1826103568	 0.308224
O	-0.4868668573	-2.3389065667	 1.3154217449	-0.482208
C	-2.6528261705	-2.8372223644	 0.0370415189	-0.288811
C	-2.3140905409	-3.1821679186	-1.4474605563	-0.336876
C	-0.8633867196	-2.8469112858	-1.0883313813	 0.331746
O	 0.2063069011	-3.2723409749	-1.428914387	-0.318699
H	 0.4462371339	 2.0049998113	-0.4203737245	 0.286888
H	 0.4149450799	-0.2576221217	-1.0869035352	 0.095088
H	 0.5442848041	-0.0329249453	 0.668438254	 0.105112
H	-1.9217771033	-0.1647460304	 0.8939880963	 0.121092
H	-2.0866873503	-0.350366849	-0.8501677049	 0.106697
H	 0.179345792	-2.989326087	 1.0617345577	 0.293059
H	-2.669901973	-3.7248730825	 0.6718427335	 0.119481
H	-3.5466824484	-2.2375196408	 0.2125692808	 0.114005
H	-2.4903355535	-4.1982489656	-1.804511604	 0.132986
H	-2.7461652613	-2.4736058575	-2.1596383445	 0.137158
