17
gdb 33879	3.50886	1.49909	1.31797	1.9931	78.38	-0.2439	0.0211	0.2649	995.0383	0.136667	-384.607963	-384.601015	-384.60007	-384.639051	28.872	
C	 0.0062094846	-1.142234392	-0.0547893525	-0.35153
C	 0.0398024345	 0.0588846722	-0.0062541484	 0.203022
C	 0.0249255463	 1.4834940082	 0.0813750072	 0.253941
O	 0.3552724787	 2.2427138169	-1.1063213231	-0.297602
C	 1.1879369126	 2.3895360845	 0.048174168	-0.02593
C	 0.7551030508	 3.4711473096	 1.0603235845	-0.082875
C	-0.7319617161	 3.7084156361	 0.6771065066	-0.224375
C	-0.8801953631	 2.2237009441	 1.1052280431	-0.128842
C	 0.1953984666	 2.5471486243	 2.2007186982	-0.221334
H	-0.0098112942	-2.2027558913	-0.1068034576	 0.189686
H	 2.2165945424	 2.0612320923	-0.0552309139	 0.112528
H	 1.4489154418	 4.2878130234	 1.2559473299	 0.071425
H	-1.2258087459	 4.3768232331	 1.3843006198	 0.099021
H	-0.9664291159	 3.9781155226	-0.3504025139	 0.122442
H	-1.8403771382	 1.766897336	 1.3378913784	 0.07432
H	 0.8268160761	 1.7249886509	 2.5496719278	 0.104189
H	-0.206941131	 3.1053137991	 3.0496681658	 0.101912
