19
gdb 78137	1.90338	1.74652	0.98654	4.2599	84.29	-0.2298	-0.041	0.1888	1231.1212	0.159022	-385.927073	-385.918503	-385.917559	-385.960041	32.66	
C	-0.0987344478	 1.4406963235	-0.0023518167	-0.422154
C	 0.031312005	-0.0632246191	 0.0545585028	-0.009375
C	 1.3935600523	-0.6987880614	-0.1856584726	-0.180259
C	 0.7870132938	-0.7288329022	 1.19268397	-0.15584
C	 0.4107634862	-2.1579471194	 1.444553152	 0.335719
C	-0.252859974	-2.5757482914	 2.7153088573	-0.493673
C	 0.7106729956	-2.9276493358	 0.3816607733	-0.325483
C	 1.3830200989	-2.1329186909	-0.6772760061	 0.408284
O	 1.8480864418	-2.5365708567	-1.7197893366	-0.348331
H	 0.7903739577	 1.9329811516	 0.4043700635	 0.120098
H	-0.2269856692	 1.7828487237	-1.0347929203	 0.131576
H	-0.9655317793	 1.7827075041	 0.5736332075	 0.123259
H	-0.8271750897	-0.6156852535	-0.3194082592	 0.099506
H	 2.2196412926	-0.0546224624	-0.4596351383	 0.105096
H	 1.1529498076	-0.111520592	 2.0060484291	 0.093231
H	-1.1790455049	-2.0094003562	 2.8733994149	 0.138856
H	-0.4908555281	-3.6417926447	 2.7196862742	 0.134442
H	 0.391207134	-2.3621732912	 3.5774983077	 0.137957
H	 0.4978198474	-3.9831769657	 0.2693396777	 0.10709
