17
gdb 38154	3.07409	1.80658	1.31275	1.8834	71.55	-0.2474	-0.0086	0.2388	952.3904	0.138078	-421.808979	-421.802251	-421.801307	-421.840038	27.049	
C	 0.0100863371	 1.5731110893	-0.1101348403	-0.094117
O	 1.3352945318	 1.8417222342	-0.5697683234	-0.258772
C	 2.2481253561	 0.9638147395	 0.0893387239	-0.180319
C	 1.3855739263	-0.1755758548	 0.6006679913	 0.414199
O	 1.8210032069	-1.5059876048	 0.7812048725	-0.310136
C	 1.285505706	-0.7852147762	 1.9341044795	-0.096324
C	-0.1690840536	-1.0073047806	 2.1881825716	-0.084234
C	-0.8979800515	-0.5520854342	 1.1605876258	-0.109988
C	-0.0341224018	 0.044023216	 0.0744921766	-0.132981
H	-0.1887358091	 2.0823431295	 0.8461801876	 0.092955
H	-0.6816942508	 1.9572643301	-0.8629927134	 0.114875
H	 2.9895991013	 0.6185558009	-0.6389026827	 0.123329
H	 2.7741910521	 1.48537869	 0.9015042199	 0.103629
H	 2.0037748837	-0.624765629	 2.7321014371	 0.10245
H	-0.5568829726	-1.4769189422	 3.0839455121	 0.106748
H	-1.9753291145	-0.6405992887	 1.0725872381	 0.106815
H	-0.1938761472	-0.4411349492	-0.8949993861	 0.101872
