21
gdb 104792	2.40762	1.50701	1.13507	2.1628	77.88	-0.2479	0.0778	0.3256	1155.5956	0.181765	-424.182182	-424.172995	-424.172051	-424.215992	34.95	
C	-1.4044801283	-0.3141441369	-0.0005094127	-0.259403
O	-0.0354719795	 0.0250987012	-0.128452366	-0.299703
C	 0.6796533207	-0.6967973374	-1.1318496284	 0.374134
C	 0.3329615806	-0.1320629557	-2.5077790053	-0.104724
O	 0.5663645198	 1.2606365901	-2.5555673159	-0.429086
C	 2.2115703875	-0.7052348792	-0.8391960431	-0.29661
C	 2.1704063254	-2.2374436508	-0.8283221379	-0.039629
C	 1.232153938	-2.7155953508	 0.2377428496	-0.287622
C	 0.6547632878	-2.2293322954	-1.0654008689	-0.11344
H	-1.9986206112	-0.0147515793	-0.8752609737	 0.11174
H	-1.5360777333	-1.3926806621	 0.1582159592	 0.120461
H	-1.7818136533	 0.2215320924	 0.8739311295	 0.128176
H	 0.9611302756	-0.601890291	-3.2714672958	 0.107125
H	-0.7145343921	-0.3745408331	-2.7560043839	 0.08041
H	 0.2535614764	 1.6039344728	-1.708744249	 0.286222
H	 2.7871641048	-0.2663592642	-1.6555106126	 0.11739
H	 2.5014613517	-0.2312804458	 0.1023098948	 0.103332
H	 2.9061231603	-2.8897157224	-1.2812166034	 0.088482
H	 1.1878007007	-3.7902228376	 0.3819632627	 0.111806
H	 1.0928266635	-2.1319611703	 1.1438778808	 0.118445
H	 0.0618650848	-2.8709722946	-1.7071985901	 0.082493
