15
gdb 87544	2.73319	1.53657	1.15043	2.6921	66.56	-0.2445	-0.0439	0.2006	1056.1581	0.109942	-457.704908	-457.69694	-457.695996	-457.737603	29.287	
C	 0.0127298412	 1.5730618062	-0.0582711507	-0.417839
C	-0.0869812636	 0.0798066257	 0.0975066975	-0.01862
O	 1.1164413333	-0.6871435455	-0.120379274	-0.289222
C	 0.5742216604	-0.6467383956	 1.1811431177	 0.317374
C	 1.3129835622	-0.1786940473	 2.4343550966	-0.099721
O	 0.3002733982	-0.1371126754	 3.4386570311	-0.228266
C	 0.9441017747	-1.4050737639	 3.1883068645	-0.120361
C	 0.2308414518	-1.9534334846	 1.9430042344	 0.363298
O	-0.2373603209	-3.0021770678	 1.6252173183	-0.292755
H	 0.9229878932	 1.9578284706	 0.4083592447	 0.127212
H	 0.0265085595	 1.8466015802	-1.1180090194	 0.138308
H	-0.8516284534	 2.0587549438	 0.4059569727	 0.137408
H	-0.9722326172	-0.3902656893	-0.3321792376	 0.114956
H	 2.1941644048	 0.4404282587	 2.5396893724	 0.136336
H	 1.4301044158	-1.903521116	 4.0177150918	 0.131892
