18
gdb 31340	3.79527	1.24015	0.95166	1.3051	81.92	-0.1781	0.0541	0.2321	1232.2945	0.148776	-401.932441	-401.924129	-401.923185	-401.967677	30.343	
C	 0.0160427671	 1.3875089484	 0.1024133273	-0.242892
O	-0.0359852935	-0.0195812163	 0.0044310657	-0.266161
C	 0.5754719782	-0.5599207792	-1.0861033444	 0.155889
C	 0.6418986436	-1.9077612217	-1.3738129247	 0.255179
C	 0.4241210168	-3.4003335808	-1.2113222472	-0.385993
C	 1.2265178465	-3.5226289658	-2.566578608	-0.165845
N	 1.3316431104	-2.0556254676	-2.543380745	 0.020049
C	 1.7309202957	-0.8620982658	-3.0531381855	-0.150242
C	 1.2685371179	 0.0975062572	-2.155404384	-0.282682
H	 1.051124981	 1.7514992675	 0.1633619078	 0.115783
H	-0.475854497	 1.8717485843	-0.7526575686	 0.115785
H	-0.5126558535	 1.6565817509	 1.0190757931	 0.125847
H	 0.911930652	-3.8743969278	-0.3549237349	 0.121463
H	-0.6101032772	-3.7515452069	-1.2673235841	 0.121496
H	 2.1894694512	-4.0370759801	-2.4993479126	 0.124603
H	 0.6589328498	-3.9128354692	-3.4163102162	 0.12465
H	 2.2885616725	-0.7582171145	-3.9692264107	 0.117427
H	 1.4160269385	 1.1608395174	-2.2605173481	 0.095642
