13
gdb 53776	4.13213	0.7243	0.63498	2.6312	72.64	-0.2672	-0.1164	0.1508	1658.4259	0.084288	-456.558694	-456.548853	-456.547909	-456.595593	31.468	
C	 0.5804349884	 1.3157227854	 0.042200486	-0.487686
C	 0.3719076658	-0.1743687525	 0.0255434834	 0.315181
O	 0.3482547429	-0.8875311679	 0.9979802031	-0.263014
C	 0.1689714168	-0.8036288091	-1.3729498423	 0.079934
O	 0.1324519973	-0.1291456635	-2.377393395	-0.25795
C	 0.0201869339	-2.2432077735	-1.3884468055	 0.107986
C	-0.0940995558	-3.4461021258	-1.4563552841	 0.096054
C	-0.2615313699	-4.8800023871	-1.52125263	 0.025058
O	 0.6495620262	-5.6541571075	-1.6867427707	-0.210507
H	 1.4676311875	 1.5750473016	-0.5450074683	 0.163021
H	-0.2630246668	 1.8188382242	-0.441034273	 0.163174
H	 0.6927481337	 1.6580022761	 1.0708222097	 0.149519
H	-1.31089036	-5.2150912403	-1.4041465032	 0.119231
