15
gdb 4475	3.63877	1.70618	1.1701	1.7887	64.74	-0.1637	0.0669	0.2306	972.2789	0.117515	-399.830898	-399.822059	-399.821115	-399.864518	31.124	
C	-0.0689593313	 1.5218109341	 0.0990003885	-0.511635
C	 0.0163858297	 0.0403529856	-0.0175655727	 0.214213
C	 0.0855499617	-0.7758123562	-1.1169969018	 0.273578
O	 0.0985367054	-0.3088423154	-2.4048210847	-0.45679
C	 0.1539342977	-2.142889004	-0.6927302889	-0.440768
C	 0.1239317419	-2.1044219592	 0.6822672599	 0.392801
O	 0.157024797	-3.069696425	 1.6375988742	-0.436745
N	 0.0457392755	-0.8122653601	 1.0913818589	-0.352945
H	 0.7980409441	 1.9599807626	 0.6123623037	 0.116997
H	-0.1093132451	 1.9538689847	-0.9035943105	 0.147984
H	-0.9672896166	 1.8525708122	 0.6379662461	 0.115702
H	 0.03635303	-1.0600630117	-3.0001692192	 0.293084
H	 0.2218904214	-3.0225813215	-1.3148944762	 0.078362
H	 0.2166441866	-3.9241861059	 1.2007076189	 0.305907
H	 0.0041538121	-0.5274849402	 2.0539383237	 0.260255
