17
gdb 88358	2.15067	1.36523	0.91636	3.5054	79.15	-0.2469	0.0106	0.2575	1264.8256	0.133703	-380.804736	-380.795285	-380.794341	-380.83949	33.919	
C	-0.5042952718	 1.3171094332	 0.1024519796	-0.324596
N	 0.0266374378	-0.0377935298	 0.0830303081	-0.077452
C	 1.413917483	-0.2418849276	-0.3136523838	-0.255178
C	 0.9729294716	-0.4896183718	 1.0877430453	 0.025585
C	 1.4775459834	 0.4270595271	 2.2173804588	-0.36908
C	 0.5316244217	 0.4849862899	 3.3345363162	 0.331978
C	-0.265728272	 0.5233003366	 4.2305527741	-0.419219
C	 2.8012476263	-0.0386125924	 2.6651814109	 0.297137
N	 3.844087421	-0.4135539465	 2.990290473	-0.316385
H	 0.2453533657	 2.102800439	 0.2905170168	 0.101227
H	-0.9561415338	 1.5231039507	-0.8721898491	 0.134155
H	-1.2837542477	 1.390672871	 0.8659711253	 0.140927
H	 1.6107247845	-1.0700709183	-0.9883221116	 0.129102
H	 2.0310008163	 0.6409045752	-0.4856706339	 0.113765
H	 0.8100955497	-1.5093157158	 1.428315172	 0.121432
H	 1.6197730382	 1.4393710874	 1.8201701036	 0.154198
H	-0.9643928637	 0.5591895421	 5.0301849049	 0.212406
