20
gdb 11610	5.26682	0.82001	0.75947	0.195	86.55	-0.2259	0.0546	0.2806	1577.3943	0.175788	-311.839978	-311.830524	-311.82958	-311.875566	33.927	
C	 0.1155306306	 1.6070771139	-0.0506811722	-0.371936
C	 0.0088690685	 0.0709835934	 0.0304571093	-0.121908
C	 0.5864060988	-0.5961238081	-1.2338322364	-0.371281
C	 0.6556504987	-0.4356503028	 1.2418545189	 0.099412
C	 1.2070012753	-0.8458161689	 2.2333730046	 0.032163
C	 1.8602970646	-1.3308772828	 3.4156136978	-0.15223
C	 1.1424472188	-2.2878704601	 4.3545649874	-0.25181
C	 2.2834647854	-2.7879374129	 3.5185209266	-0.251639
H	 1.1632868782	 1.9166660865	-0.1165183701	 0.122121
H	-0.4086341132	 1.978518187	-0.9372652939	 0.109194
H	-0.3214579212	 2.0787032763	 0.8333567687	 0.122098
H	-1.0590361848	-0.1851253896	 0.0842791036	 0.099971
H	 1.6497671915	-0.3601167223	-1.3410161798	 0.122052
H	 0.4852719513	-1.6836057661	-1.1855748698	 0.119873
H	 0.0630122047	-0.2389127018	-2.1269244841	 0.108565
H	 2.5248866758	-0.6178606321	 3.8956537231	 0.106129
H	 1.2988741658	-2.1517059783	 5.4187946557	 0.115656
H	 0.1384584128	-2.5867365996	 4.078134292	 0.12411
H	 2.0549665386	-3.4264706123	 2.6736480132	 0.123867
H	 3.2299469199	-2.9984042794	 4.0038184153	 0.115593
