22
gdb 85890	2.07287	1.44122	1.08921	4.1304	84.03	-0.2359	0.0297	0.2657	1248.4008	0.192277	-404.380779	-404.370638	-404.369694	-404.415793	37.466	
C	-0.4078143244	 1.1008283769	 1.1829968864	-0.406095
C	 0.1729259742	-0.1350981415	 0.51216449	 0.07009
C	 0.6145301305	-0.0265456606	-0.9773687553	-0.320567
C	 2.0537893343	-0.4710233176	-0.5532895601	 0.319144
C	 2.4377603938	-1.8728026159	-1.0335663972	-0.429038
C	 3.1612782921	 0.5423334615	-0.8387219517	-0.429377
N	 1.5688019718	-0.4437931328	 0.8483550049	-0.064988
C	 2.0942216291	-0.8630289856	 2.0184479406	 0.11818
O	 1.4819025455	-0.9325856382	 3.0681647152	-0.342627
H	 0.2188995432	 1.9789900278	 0.9965478016	 0.112062
H	-1.4119419755	 1.3036468412	 0.7953368125	 0.115008
H	-0.4728240761	 0.9445721606	 2.2623346468	 0.153913
H	-0.4789191693	-0.9961082698	 0.7056613968	 0.092416
H	 0.1104827635	-0.7021412116	-1.6699115793	 0.108495
H	 0.5699226064	 0.9911682239	-1.3714332428	 0.106967
H	 2.6042306527	-1.8689719985	-2.1160790225	 0.121601
H	 3.359856964	-2.217697242	-0.554401763	 0.122634
H	 1.6467211159	-2.5946947387	-0.8104727193	 0.123697
H	 2.8846723001	 1.5362324528	-0.4769040841	 0.122307
H	 4.0980122163	 0.250767219	-0.3517625868	 0.121777
H	 3.3497288374	 0.6058522295	-1.915872218	 0.12092
H	 3.1677348746	-1.1300848406	 1.9270419852	 0.06348
