19
gdb 53412	4.01135	0.90283	0.81803	1.52	83.37	-0.2288	0.0563	0.2851	1459.1053	0.159305	-385.852198	-385.843317	-385.842372	-385.887586	32.357	
C	 0.3011271112	 1.6227559455	-0.3838273225	-0.497967
C	 0.165363928	 0.187671943	-0.1779987	 0.057415
C	 0.0514298535	-1.0002694901	-0.0150381062	 0.085566
C	-0.0824399581	-2.4345244238	 0.2014854734	-0.204402
C	 0.2911674514	-2.8682337091	 1.6531331123	-0.103957
O	-0.4559347306	-4.044758103	 1.9326133427	-0.253478
C	-1.6300237498	-4.0051412309	 1.1613986763	 0.107576
C	-2.4741349166	-2.7560875306	 1.1721095903	-0.326914
C	-1.4914664259	-3.0137904071	 0.0445239013	-0.06976
H	 0.9710208684	 1.8436228838	-1.2222832823	 0.147302
H	-0.6668934079	 2.0869656919	-0.6030241211	 0.147816
H	 0.7103149088	 2.1164628183	 0.5046715516	 0.146985
H	 0.5681847652	-2.968328377	-0.5032689254	 0.10389
H	 1.3524226769	-3.1013719189	 1.7677764929	 0.117316
H	 0.0375290513	-2.0639578819	 2.3555000244	 0.10662
H	-2.0774483012	-4.9861865936	 1.0568903337	 0.10248
H	-3.5272780102	-2.8717462317	 0.9397350358	 0.113917
H	-2.2613744544	-1.971869809	 1.8903930255	 0.123937
H	-1.8563304099	-3.2026675758	-0.9574771524	 0.095657
