11
gdb 3956	7.9989	2.04825	1.65318	0.737	47.37	-0.2859	-0.034	0.2519	683.7226	0.079215	-376.564691	-376.5586	-376.557655	-376.595223	20.626	
O	 0.092973074	 1.3588879315	-0.3581925732	-0.408882
C	 0.0366898686	 0.0531115788	 0.1512441921	-0.152773
C	-1.3423984478	-0.5191304432	 0.040107775	 0.412428
N	-2.3090951409	-0.0392839427	-0.6843182244	-0.332212
C	-3.3083426557	-0.9547964015	-0.4546703411	 0.04634
N	-2.994710692	-1.9318216549	 0.3478137789	-0.108892
O	-1.6596178984	-1.639987452	 0.6873312081	-0.194059
H	-0.6150314994	 1.4464685784	-1.0091567216	 0.305478
H	 0.7310044113	-0.627429615	-0.3708618091	 0.130765
H	 0.3416478385	 0.0672087894	 1.204373871	 0.14583
H	-4.2916873681	-0.8876046588	-0.8966255957	 0.155978
