19
gdb 127642	3.03184	1.36651	1.00805	2.6899	82.42	-0.2252	0.0249	0.2502	1195.7427	0.161062	-382.081696	-382.073183	-382.072239	-382.115983	31.174	
C	-0.4661676126	 1.2576737678	 0.181623761	-0.328728
N	-0.1050352279	-0.1400904584	 0.0874610122	-0.018471
N	-0.1583092885	-0.7634607211	-1.1095214126	-0.270534
C	 0.2536751512	-2.0033895631	-0.8609976259	-0.004762
C	 0.5813319248	-2.1834012216	 0.495848411	-0.318675
C	 0.3389458226	-0.9552042283	 1.0874005972	 0.378214
C	 0.486305033	-0.481958332	 2.4792635623	-0.133377
C	-0.690183759	-0.5277927723	 3.4433014944	-0.253127
C	 0.4737287791	-1.4636303737	 3.6222887852	-0.266128
H	 0.4181510262	 1.8937184179	 0.30324917	 0.134137
H	-0.9721374744	 1.5263573466	-0.7449832215	 0.15911
H	-1.1366032373	 1.422391183	 1.0293167995	 0.141715
H	 0.2992758305	-2.7217121889	-1.6665918617	 0.106453
H	 0.9513099974	-3.0716160528	 0.9817512907	 0.099026
H	 1.1457345425	 0.3740148994	 2.6039438476	 0.097638
H	-0.807577955	 0.2945320229	 4.1403059772	 0.114505
H	-1.6196629264	-0.9460770521	 3.074032469	 0.12335
H	 0.3171950518	-2.50941346	 3.3850399583	 0.123766
H	 1.1571567219	-1.2889550031	 4.445165106	 0.115889
