19
gdb 16175	4.27331	1.55981	1.35991	1.2322	70.72	-0.2439	0.0857	0.3296	975.7258	0.167091	-365.048783	-365.041141	-365.040197	-365.080735	29.087	
C	 0.2532200909	 1.481262723	 0.2406569662	-0.382141
C	-0.1784301248	 0.0563054929	-0.129820296	-0.264659
C	 0.5415331753	-0.4781009463	-1.3441302064	 0.332707
C	 0.2666257879	 0.1137041314	-2.7224802088	-0.149724
O	 0.8392509167	-0.7968413161	-3.6574198889	-0.259387
C	 0.7472664868	-2.1076153289	-3.1020950505	-0.108533
C	 0.8634646526	-1.9070649106	-1.6038223649	-0.099776
N	 1.9121607346	-0.9812725357	-1.1513186248	-0.373447
H	 1.3324310009	 1.5181846118	 0.4176160972	 0.132694
H	 0.0166989876	 2.1961866243	-0.5547929884	 0.114009
H	-0.2523736448	 1.820314507	 1.1496566875	 0.113286
H	 0.0219492398	-0.614641496	 0.7117714797	 0.109338
H	-1.2610058818	 0.0264700709	-0.3105696746	 0.094529
H	-0.8214171191	 0.2155288326	-2.8724564007	 0.093265
H	 0.7305627317	 1.0905010668	-2.8961298454	 0.11179
H	-0.2160885938	-2.5851859959	-3.3457007548	 0.096523
H	 1.5512914449	-2.7060481485	-3.5440092439	 0.113066
H	 0.5999056021	-2.714308461	-0.9276490306	 0.093138
H	 2.4977123523	-0.7180010615	-1.943400332	 0.233321
