21
gdb 106497	2.35146	1.59483	1.26061	1.6262	77.52	-0.2398	0.0712	0.311	1110.0845	0.182647	-424.212526	-424.203762	-424.202818	-424.245785	34.116	
C	 0.227541825	 1.519029714	 0.2104096684	-0.388384
C	-0.0899928991	 0.0487665445	-0.0901284051	-0.305171
C	 0.6202001892	-0.487222524	-1.3057825105	 0.44107
C	 0.7597899293	-1.9942506407	-1.6304242754	-0.284588
C	 2.0121343638	-1.4255589199	-2.3238277953	 0.075194
C	 1.4488883285	-0.6116719064	-3.5028412383	-0.258202
C	 0.3303934338	 0.1303722037	-2.7000949488	 0.079019
O	-0.9993819128	-0.1821952977	-3.0799754762	-0.442282
O	 2.0874983494	-0.4032398161	-1.2770029789	-0.343654
H	 1.3060940641	 1.6691026787	 0.3121945344	 0.136333
H	-0.1318732273	 2.1815122669	-0.5831006239	 0.117535
H	-0.2503605143	 1.833013291	 1.1429297274	 0.111345
H	 0.1839979015	-0.5700946599	 0.7718834085	 0.100387
H	-1.1665527645	-0.0846270253	-0.2508368944	 0.116572
H	 1.0096721745	-2.5704036637	-0.7385064628	 0.103186
H	-0.0135744945	-2.4779149261	-2.2293048091	 0.107783
H	 2.9334146579	-1.9917529996	-2.4599087901	 0.075845
H	 2.1980248873	 0.0649038956	-3.9200922408	 0.102618
H	 1.0297629474	-1.22891896	-4.3028789201	 0.096165
H	 0.4904869551	 1.214645453	-2.6846479566	 0.072468
H	-1.1775192942	 0.2312594023	-3.9296823625	 0.286763
