14
gdb 24323	4.10075	1.67571	1.1896	5.1695	77.77	-0.2092	-0.0481	0.1611	946.1393	0.106366	-395.798794	-395.792874	-395.79193	-395.82892	24.087	
N	-0.0077517536	 1.3386216317	 0.0098405451	-0.215059
C	 1.2423794998	 1.8799416985	 0.0005137634	-0.213057
C	 2.1316097328	 0.8105775989	-0.014103562	 0.205512
C	 3.5333720224	 0.641264302	-0.0288286047	-0.070661
N	 4.0764024936	-0.5528325693	-0.0407453306	-0.276383
C	 3.2263410202	-1.6317194337	-0.0383172463	 0.044679
N	 1.9178207896	-1.6392425041	-0.025470167	-0.332731
C	 1.3471162361	-0.4031814506	-0.0130554268	 0.268756
C	 0.009757583	-0.0316374101	 0.0021755453	-0.187527
H	-0.8536285278	 1.8851403026	 0.021165633	 0.275587
H	 1.3944493535	 2.9465799738	 0.0048850308	 0.140055
H	 4.2083438883	 1.4972935222	-0.0307714261	 0.111775
H	 3.7239455889	-2.598631209	-0.048519146	 0.109152
H	-0.895680707	-0.613812903	 0.0078953819	 0.139902
