22
gdb 104742	2.58487	1.1392	0.92987	1.8547	89.35	-0.2397	0.0367	0.2764	1372.5897	0.191845	-367.160721	-367.150234	-367.14929	-367.196154	38.965	
C	-1.6319132841	-0.3373273557	 0.0576691151	-0.370614
C	-0.1544888708	 0.0650689434	 0.0461387228	-0.261557
C	 0.6750896363	-0.4081565684	 1.244709308	 0.348474
C	 1.7365245577	 0.5732932531	 1.7258817135	-0.267171
C	 1.1596742348	 1.8028538142	 2.4413311551	-0.379961
N	-0.0245173534	-1.2109613241	 2.2586593084	-0.348531
C	 0.9961355342	-1.8691764266	 1.4055632118	-0.315722
C	 0.5694345953	-2.8794868436	 0.4774169809	 0.378492
C	 0.2669959589	-3.728535067	-0.3193356352	-0.432415
H	-2.1402658633	 0.059259453	 0.9403157976	 0.118908
H	-2.1308992991	 0.0551581478	-0.8343688949	 0.099367
H	-1.7524018568	-1.4221070133	 0.0690663849	 0.13752
H	 0.3245363225	-0.3102722415	-0.8669060156	 0.109608
H	-0.0865558399	 1.1576618293	-0.0088029295	 0.093879
H	 2.4250578753	 0.0544755272	 2.405122502	 0.092747
H	 2.3384924981	 0.8956322035	 0.8666440464	 0.107098
H	 1.9629012438	 2.4635045241	 2.7808875493	 0.117019
H	 0.5057627046	 2.3864020546	 1.7864944354	 0.126869
H	 0.5725471528	 1.5121559945	 3.3189855243	 0.118506
H	 0.3722093436	-1.04618065	 3.1818337507	 0.228509
H	 1.9564721646	-2.0846583775	 1.8710429956	 0.103248
H	-0.0141065151	-4.4792511469	-1.0156320966	 0.195725
