20
gdb 12288	2.72943	1.73075	1.47805	2.4259	71.55	-0.2464	0.0733	0.3197	988.2571	0.175979	-386.119416	-386.110545	-386.109601	-386.152519	32.942	
C	 0.1704955605	 0.8794950846	-0.765330741	-0.239232
O	-0.0454452246	-0.4248625117	-0.2688007824	-0.252228
C	-1.3450441838	-0.6181120997	 0.2732452379	 0.098968
C	-2.3917431425	-0.9512384273	-0.828536841	-0.279363
C	-2.0188390748	-2.4525337107	-0.6493315759	 0.13479
O	-1.036332614	-2.9053761646	-1.5550485871	-0.438633
C	-1.4683705376	-2.0845195306	 0.7687531836	-0.01952
C	-0.2580327555	-2.8097920505	 1.3308774644	-0.404407
H	 1.1951086809	 0.9179240796	-1.1425822007	 0.129944
H	-0.5193673605	 1.1329360565	-1.5830403993	 0.112022
H	 0.0539749928	 1.6308576489	 0.0299267512	 0.111198
H	-1.5760900506	 0.1886834671	 0.9827429034	 0.058725
H	-3.413318682	-0.7284745744	-0.5078756168	 0.101136
H	-2.2244787395	-0.5294056551	-1.8228396322	 0.101765
H	-2.8310545904	-3.1823092539	-0.6913729299	 0.075526
H	-0.3218410855	-2.2551208379	-1.535644454	 0.283362
H	-2.3015469271	-2.1238156048	 1.4799005358	 0.075161
H	 0.5776735701	-2.7950856519	 0.6291123411	 0.12473
H	 0.0786200649	-2.3474006255	 2.2647495212	 0.1106
H	-0.5029767507	-3.8559856881	 1.5410974117	 0.115456
