17
gdb 6151	4.78512	1.18137	1.17546	5.1338	67.29	-0.24	0.0267	0.2667	1074.6018	0.140638	-401.009061	-401.000502	-400.999558	-401.043021	30.539	
C	 0.2362143296	 1.4462376589	 0.050831694	-0.457124
C	-0.1362806247	-0.0260782104	-0.0344751577	 0.388235
O	-1.5176529669	-0.2145364805	-0.2365954153	-0.46373
C	 0.7961931764	-0.8835954798	-0.9679676921	-0.233101
N	 1.2921127488	-1.549845753	 0.234899124	-0.041291
C	 0.3577551877	-0.9037000379	 1.1529662478	-0.201062
C	 2.2203484052	-2.5029701216	 0.4613976923	 0.133411
O	 2.4679359998	-2.9785254603	 1.5510946301	-0.33213
H	 1.3026814101	 1.5728691932	 0.2589427856	 0.132365
H	 0.0191708185	 1.9576740598	-0.8953751057	 0.113409
H	-0.3340791472	 1.9349315861	 0.8465984934	 0.134509
H	-1.8107715585	 0.3870051214	-0.9296248045	 0.281477
H	 0.2274453415	-1.5376884908	-1.6384351729	 0.115335
H	 1.5548480113	-0.3346960945	-1.537154522	 0.109832
H	 0.8327476228	-0.3770525172	 1.9859754709	 0.122589
H	-0.4167859888	-1.5749963836	 1.5364035864	 0.131553
H	 2.7450276844	-2.7980704099	-0.4713573743	 0.065726
