23
gdb 40776	3.51797	1.10874	0.94952	0.1223	88.95	-0.2551	0.0862	0.3413	1332.2027	0.208384	-351.146631	-351.13843	-351.137486	-351.179566	33.135	
C	-0.2094248203	 1.4050740997	-0.1849995835	-0.273881
C	 1.2376829851	 1.1098514394	 0.1267514546	-0.276341
C	 0.2400951824	-0.0176147546	 0.0374702266	 0.034972
C	-0.1841262044	-0.7741972659	 1.2771229944	 0.017394
C	-1.5907658847	-1.4196081957	 1.1722173198	-0.242868
C	-1.5828598931	-2.5947241282	 2.1756701575	-0.218883
C	-0.1299502332	-3.0511600521	 2.2253487431	-0.030054
C	 0.5844794741	-3.2348822082	 0.9087201321	-0.290729
C	 0.7271124689	-1.936624576	 1.6691644836	-0.031156
H	-0.8075158583	 1.8732036341	 0.5906506859	 0.10652
H	-0.4674368343	 1.7183289721	-1.1906491029	 0.107258
H	 1.9689576791	 1.2198639927	-0.6664878462	 0.107878
H	 1.6084635609	 1.3819058247	 1.1100305636	 0.106397
H	 0.3090993356	-0.6379064331	-0.8534622747	 0.076368
H	-0.1887167823	-0.0663707248	 2.1192772945	 0.060228
H	-2.3902343689	-0.7007850204	 1.3691687381	 0.095527
H	-1.7504176814	-1.7884160667	 0.1529895865	 0.099395
H	-1.884026296	-2.2474423135	 3.1717108162	 0.095694
H	-2.2794637025	-3.3908609278	 1.8897382843	 0.093222
H	 0.1988898527	-3.642180104	 3.073335814	 0.075905
H	 1.4448179609	-3.8953135611	 0.9013071724	 0.105394
H	 0.00791624	-3.2616348703	-0.0106883577	 0.105342
H	 1.6959859896	-1.7022901402	 2.0967743377	 0.076419
