16
gdb 27165	3.16926	1.3056	0.98573	1.5078	73.53	-0.1872	0.0226	0.2099	1162.0115	0.12627	-434.076608	-434.068561	-434.067617	-434.109669	29.856	
N	 0.2882332567	 1.4796310004	 0.2203349484	-0.598513
C	 0.0812999348	 0.1052815886	 0.0710412547	 0.193838
C	-1.0967292107	-0.5808942806	-0.1435470082	 0.279476
N	-0.7050673655	-1.9029780212	-0.3096887129	-0.310793
C	 0.6406415754	-1.947561835	-0.1737533948	 0.01101
N	 1.1518134301	-0.7529024765	 0.045810917	-0.308865
C	-2.5017730247	-0.1764176877	-0.2558958364	-0.053446
C	-3.3864704895	-0.610906682	-1.3550921899	-0.181955
O	-3.4711888974	-1.2249669369	-0.0647980003	-0.252471
H	 1.2091342125	 1.6531323855	 0.603522047	 0.250272
H	-0.4144374744	 1.9387788649	 0.7856220125	 0.240161
H	-1.3495095776	-2.6752377666	-0.3577328412	 0.271666
H	 1.2010369595	-2.8680048167	-0.2357243839	 0.130548
H	-2.7540994324	 0.7635956349	 0.2356589598	 0.094774
H	-4.2435106989	-0.0004775531	-1.6371263896	 0.120322
H	-2.9778451077	-1.2370000879	-2.1466455321	 0.113975
