16
gdb 88053	2.51034	1.35665	1.1294	3.5359	69.26	-0.254	0.008	0.262	1111.4496	0.123268	-437.848883	-437.840509	-437.839565	-437.882227	30.825	
O	 0.0164613926	 1.3469820167	-0.0088188738	-0.429977
C	 0.0644876882	-0.0353410125	 0.1199384431	 0.06434
C	-0.5223518157	-0.7008279814	 1.363754441	-0.390942
C	-1.2375640422	-0.7645472507	 0.055622375	 0.400483
O	-2.4128376239	 0.0150497885	-0.1941080638	-0.309847
C	-2.8435525649	-0.9125414441	-1.2175952325	-0.082829
C	-1.7202986294	-1.9176273042	-0.8332242593	-0.318486
C	-0.8304844461	-2.3846483741	-1.8813838865	 0.295987
N	-0.1142386247	-2.7477956045	-2.7125904622	-0.321611
H	-0.8869761813	 1.5711414224	-0.274306943	 0.29622
H	 0.9477512822	-0.4823466882	-0.3290585066	 0.123324
H	-0.0499029794	-1.6027276017	 1.7403729361	 0.127491
H	-0.9505038214	-0.0453701343	 2.1155157039	 0.137286
H	-3.8665019106	-1.2564450865	-1.0484877329	 0.132243
H	-2.7437317839	-0.4932725679	-2.2232070914	 0.135683
H	-2.0965561494	-2.7683087577	-0.2593269272	 0.140634
