15
gdb 48610	2.75559	1.36769	1.07056	2.1355	71.1	-0.252	-0.0592	0.1928	1098.332	0.11256	-416.735906	-416.728157	-416.727213	-416.768869	28.223	
O	-0.7121815562	 0.9128875021	 0.7136784388	-0.232734
C	 0.1064912236	 0.968814987	-0.1687225703	 0.028851
C	 1.3454100135	 1.8083278253	-0.0802559256	 0.210833
C	 1.7658828222	 2.8148548713	 1.0053259824	-0.206771
N	 2.9492187903	 2.907135557	 0.0127694444	-0.140832
C	 2.8369534126	 1.3696042834	-0.0477481722	-0.229996
C	 1.8446628386	 2.9072792326	-1.0741176042	-0.157216
C	 2.2531190244	 2.5505270979	-2.4237286744	 0.28938
N	 2.5463895474	 2.2691683793	-3.5059736689	-0.320846
H	-0.0071258217	 0.3878332226	-1.1109403374	 0.097558
H	 1.1968938667	 3.7419459436	 1.0995707121	 0.123205
H	 2.056612444	 2.4168620544	 1.9776180102	 0.128492
H	 3.1863046259	 0.8761445201	 0.8604794231	 0.128173
H	 3.2732831579	 0.9284368938	-0.9449390686	 0.146698
H	 1.2724256008	 3.8380149397	-1.0902380794	 0.135207
