12
gdb 1653	5.44603	2.00059	1.47674	1.9931	47.89	-0.251	-0.0451	0.2059	774.4123	0.089078	-397.709232	-397.701624	-397.70068	-397.741402	25.503	
C	-0.0157098355	 1.3732872551	 0.012041104	-0.24215
O	 0.0251432014	-0.0612276393	-0.0327993195	-0.200597
C	 0.6296756789	-0.5801369683	-1.0938104747	 0.378653
O	 1.1312269869	 0.0526015502	-1.9940099112	-0.37411
C	 0.6209542415	-2.1260549437	-1.0499682704	 0.294363
N	 1.2443293944	-2.6294114181	-2.1409699158	-0.512794
O	 0.1192874909	-2.7639448329	-0.1524573071	-0.334158
H	 0.9972898127	 1.7829451481	 0.0244937	 0.146178
H	-0.5461984159	 1.7667770435	-0.8584617752	 0.146327
H	-0.5438234851	 1.6233547505	 0.9311093589	 0.145503
H	 1.6241509228	-1.9985479553	-2.8272421372	 0.281613
H	 1.316783997	-3.6258873196	-2.2546339018	 0.271172
