16
gdb 48858	3.96582	1.4214	1.22443	2.6544	77.28	-0.2235	-0.0581	0.1654	1002.5434	0.123846	-400.630439	-400.62333	-400.622386	-400.661897	27.809	
O	-0.6941419468	 0.9309732259	 0.6699033318	-0.262912
C	 0.1601184501	 1.0118492281	-0.1796294027	 0.094798
C	 1.3994061534	 1.7995817411	-0.0081817056	 0.201333
C	 1.6975211623	 2.6963872084	 1.2656650764	-0.317325
C	 2.7069533553	 3.3588995454	 0.3135601342	 0.017634
C	 3.9295866145	 2.7918036292	 0.3025630952	-0.106267
C	 3.9212255497	 1.6956962225	-0.7548678103	-0.185003
N	 2.473680581	 1.5478845818	-1.0959778522	-0.155168
C	 1.9265524234	 2.8607757328	-0.9240916771	-0.11435
H	 0.0747248696	 0.5043771321	-1.1623491414	 0.093277
H	 0.7805689765	 3.2455717987	 1.4982026466	 0.134349
H	 2.100508924	 2.2290709683	 2.1658660085	 0.11931
H	 4.5324147263	 2.6811854026	 1.198848834	 0.112082
H	 4.4462558068	 1.8774009108	-1.7014144997	 0.128718
H	 4.3295438749	 0.777615519	-0.3184318725	 0.130203
H	 1.4172417988	 3.4169588532	-1.7028867653	 0.109321
