15
gdb 48512	3.47437	1.65317	1.457	3.5806	68.3	-0.2455	-0.0384	0.2071	898.4495	0.112634	-420.542217	-420.535707	-420.534763	-420.573503	25.529	
O	-0.1000240333	-0.0188834089	-0.2783516856	-0.241982
C	-0.0379093808	 1.1612662978	-0.0328641488	 0.002748
C	 1.2234102621	 1.9327922318	 0.0494062893	 0.25613
C	 1.6767739158	 3.0086618076	 1.0904651902	-0.188118
C	 2.4293135085	 3.701149504	-0.0190876734	-0.09172
C	 3.0983092719	 2.5902061144	 0.7908025599	-0.086014
C	 2.6751238815	 1.3829876981	-0.0940565658	 0.017487
O	 2.7723281673	 1.8003118492	-1.476249654	-0.281597
C	 1.8182269757	 2.8133021669	-1.1338927286	 0.022939
H	-0.9601194735	 1.7627238784	 0.1390168195	 0.075689
H	 1.2165927331	 3.3848192412	 1.9920425995	 0.106611
H	 2.8128587259	 4.710081319	-0.0748258594	 0.103244
H	 3.9943994671	 2.7417060252	 1.3753300749	 0.104239
H	 3.007754901	 0.3659425433	 0.09776101	 0.103345
H	 1.2678323876	 3.2331865921	-1.9739035177	 0.096998
