17
gdb 37580	2.96826	2.48302	1.8964	0.7947	72.4	-0.2128	0.0502	0.263	780.572	0.140423	-380.773851	-380.768352	-380.767408	-380.803273	24.407	
C	-0.0031766029	 1.5021715057	-0.0270936087	-0.255704
C	 1.3771575489	 2.0903964573	 0.1039325197	-0.02225
C	 2.3881684272	 1.469647073	 0.9722362309	-0.052422
C	 2.2950297055	-0.0626507854	 0.9519079122	-0.005044
C	 2.4737684665	-0.0071608987	-0.5519921438	-0.005045
C	 1.1282313766	-0.73318837	-0.6914186581	-0.052422
C	 0.0412967929	-0.003318653	-0.0226237454	-0.02225
N	 0.9532020643	-0.7895650991	 0.840158245	-0.188688
N	 2.5729115681	 1.5197716154	-0.5584167814	-0.188688
H	-0.624523853	 1.869211752	 0.7994917702	 0.113852
H	-0.4763643808	 1.83977344	-0.9577666832	 0.113852
H	 1.412139043	 3.1761258069	 0.053425252	 0.098604
H	 3.0334179063	 2.0362472154	 1.6359707789	 0.094098
H	 2.9692955236	-0.6086522787	 1.6083705463	 0.089703
H	 3.3284098291	-0.4454429062	-1.0630618018	 0.089703
H	 0.9657389433	-1.6105795147	-1.3092431714	 0.094098
H	-0.9333334486	-0.4841192598	-0.0614764313	 0.098604
