19
gdb 61511	3.54068	0.78584	0.67131	1.4638	73.42	-0.258	-0.0418	0.2162	1627.1871	0.153372	-460.171572	-460.160783	-460.159839	-460.209295	36.568	
C	 0.4836881154	 1.2880325947	 0.3297157499	-0.401137
C	 0.2126812142	-0.2108353416	 0.2188515672	 0.032802
O	-1.1589805512	-0.5640593671	 0.2111044356	-0.277282
C	-1.8399390568	-0.5816763675	 1.4557789715	 0.029152
C	-2.7537941896	 0.6253150065	 1.6541157458	-0.395766
C	-2.6206354851	-1.8975216049	 1.5121857615	 0.153181
O	-3.5704180653	-2.091196868	 2.222292669	-0.238942
C	 0.7968365135	-0.802343636	-1.0637327705	 0.147683
O	 1.8147847501	-0.4231801416	-1.5777806721	-0.23973
H	 1.5432150302	 1.4732446802	 0.1367174385	 0.146594
H	-0.1057110338	 1.8322573836	-0.4133926662	 0.134566
H	 0.2343275696	 1.6666356765	 1.323965101	 0.119955
H	 0.7257171927	-0.7367916627	 1.045913982	 0.100041
H	-1.1084092969	-0.6363926174	 2.280819642	 0.102367
H	-3.3707734231	 0.4693032536	 2.5421885523	 0.144758
H	-2.1763938667	 1.5444216829	 1.7721843353	 0.122111
H	-3.4137643631	 0.7368988592	 0.7894856119	 0.135473
H	-2.2132477116	-2.6767630955	 0.8302669346	 0.0893
H	 0.1939800675	-1.6410357849	-1.4747076991	 0.094873
