14
gdb 132565	3.10396	1.40177	0.97143	1.9467	68.53	-0.2381	-0.0502	0.1879	1108.2747	0.100824	-478.039697	-478.032132	-478.031187	-478.071956	28.275	
C	-0.045797942	 1.5267966686	-0.0550915111	-0.476273
C	 0.0035104837	 0.0282519048	-0.0295445248	 0.239391
N	-0.0551582411	-0.6503725224	-1.1730903448	-0.337541
C	-0.0089443076	-1.9662355607	-1.1096695696	 0.289611
F	-0.0688321643	-2.6265814319	-2.2630968356	-0.07122
C	 0.096702793	-2.669348087	 0.0789409493	-0.156925
N	 0.1569239537	-2.0054418944	 1.238010157	-0.322548
C	 0.1112484562	-0.6860907242	 1.1831045423	 0.380583
O	 0.170108144	 0.0120375831	 2.3380285165	-0.413287
H	 0.8543168515	 1.9543962711	 0.3998214852	 0.144157
H	-0.1313877414	 1.8739224523	-1.0851932655	 0.144041
H	-0.8959279045	 1.8990061732	 0.526855406	 0.144155
H	 0.1325632449	-3.7530743431	 0.1001440961	 0.133265
H	 0.2405925937	-0.6391704295	 3.049747909	 0.30259
