11
gdb 14659	25.38693	0.54691	0.53717	6.6773	88.06	-0.2676	-0.0812	0.1864	1871.707	0.071054	-360.21621	-360.207978	-360.207034	-360.249553	27.171	
O	-0.0003022147	 1.4570627287	 0.0099557961	-0.402807
C	 0.0048667211	 0.0403137941	 0.0023952818	-0.243267
C	-1.3656573975	-0.4497988058	 0.0127551399	 0.291952
C	-2.4948112545	-0.888461525	 0.0210962924	-0.23855
C	-3.7554203731	-1.3738002252	 0.0304528065	-0.188514
C	-4.88962215	-1.8115079333	 0.0389056087	 0.451404
C	-6.1570090678	-2.3022247775	 0.0484176536	 0.079267
N	-7.2416157816	-2.7235836245	 0.056640819	-0.325265
H	 0.9167474425	 1.7507471796	 0.0029640199	 0.300467
H	 0.5108782223	-0.3644333006	-0.8898682548	 0.137657
H	 0.5276185332	-0.3738215104	 0.8805881968	 0.137657
