22
gdb 100013	2.48988	1.23335	1.16071	2.6345	77.45	-0.2331	0.0556	0.2887	1216.5121	0.192246	-441.459311	-441.448962	-441.448018	-441.493794	39.56	
C	-0.22434699	 1.6174593593	-0.1474766164	-0.422672
C	-0.0201233385	 0.0962475819	-0.07530787	 0.294224
O	 0.7724047869	-0.2184712137	 1.0703107629	-0.479876
C	-1.3693051992	-0.6318354415	 0.0874417824	-0.125981
O	-1.8529193045	-0.3050100465	 1.3911725937	-0.436918
C	 0.7285280457	-0.4408255568	-1.3064963411	 0.319234
C	 0.0151612874	-0.340815134	-2.6415920719	-0.472044
C	 2.2115741648	-0.3874680427	-1.284102489	-0.280667
N	 1.5077483246	-1.6803101573	-1.1358778535	-0.372651
H	 0.7464670978	 2.1185562118	-0.1673826794	 0.123275
H	-0.7876157686	 1.9107566503	-1.0382944144	 0.11149
H	-0.7780325365	 1.9607471395	 0.7306599951	 0.124985
H	 0.1527556188	-0.2330861292	 1.8119622273	 0.289142
H	-2.0828103712	-0.311653312	-0.6823797548	 0.09998
H	-1.2086721189	-1.7138611982	-0.0109672	 0.105377
H	-2.5510938157	-0.9220222804	 1.625428652	 0.297387
H	-0.1942883214	 0.6976008732	-2.9178041195	 0.11648
H	 0.6440747583	-0.7804562975	-3.4190715717	 0.130338
H	-0.9321982969	-0.8906164112	-2.6418526965	 0.115606
H	 2.7552831677	-0.2630257637	-2.2170862738	 0.10421
H	 2.6942676533	 0.0266073957	-0.4053181406	 0.125191
H	 1.5105398159	-1.9034681772	-0.1418290607	 0.23389
