17
gdb 35718	2.39486	1.57495	1.13194	5.3967	72.26	-0.2456	0.0214	0.2671	1089.0614	0.136863	-417.963916	-417.955685	-417.954741	-417.997474	29.947	
N	-0.2368799541	-1.1178105201	-0.4506313815	-0.333309
C	-0.1237919196	 0.0021070828	-0.1868829115	 0.295517
C	 0.0005723191	 1.4134196308	 0.1334875734	-0.171194
C	 0.2866347146	 1.8420766215	 1.6032032379	-0.175098
N	 1.3862824546	 2.7403329102	 1.1532424887	-0.311046
C	 1.3253602054	 2.182177476	-0.2255255767	-0.045492
C	 2.5131080201	 1.3102444808	-0.558726844	 0.083821
C	 3.8082831333	 1.5030390232	 0.1032612341	-0.171742
O	 2.9438371689	 0.4230675403	 0.4691477617	-0.226813
H	-0.8696815524	 1.9380646326	-0.2694319005	 0.126214
H	-0.5442746889	 2.3316356063	 2.1169883424	 0.115217
H	 0.6705486665	 1.02824685	 2.2219075782	 0.146168
H	 1.1001531807	 3.7126876784	 1.1663630875	 0.227831
H	 1.1964820717	 2.92515045	-1.0202462808	 0.08816
H	 2.4903745356	 0.8682977713	-1.5561618559	 0.105884
H	 4.720974838	 1.2130427339	-0.4144006707	 0.115728
H	 3.8970313165	 2.2859139621	 0.8518899978	 0.130154
