16
gdb 6183	3.94342	1.53898	1.43389	4.1513	67.37	-0.2406	-0.0494	0.1912	919.9071	0.129323	-383.776531	-383.768771	-383.767827	-383.808606	29.402	
C	-0.03104437	 1.5500517463	 0.0304933944	-0.442802
C	-0.0171068038	 0.0173344143	-0.0033254705	 0.348892
O	-1.3551731924	-0.4888694385	-0.0376647351	-0.463613
C	 0.7382291526	-0.5606752377	-1.2161900238	-0.368378
C	 1.9671632494	-1.2823358875	-0.6447603133	 0.376482
O	 2.8687398469	-1.7696319155	-1.2834870144	-0.324923
C	 1.8272537513	-1.2609198423	 0.8338230008	-0.188526
C	 0.7452589291	-0.5605130543	 1.1815850153	-0.088846
H	 0.9833818241	 1.9579172227	-0.0113589026	 0.129027
H	-0.6014467269	 1.9338373149	-0.8204020121	 0.133537
H	-0.4994195191	 1.9162554568	 0.9524353702	 0.107114
H	-1.844751053	-0.0911473375	 0.6910878139	 0.277201
H	 0.1021297969	-1.2878032955	-1.728278108	 0.15044
H	 1.0411132444	 0.1913428408	-1.9484946734	 0.125445
H	 2.5306319651	-1.7573026172	 1.4906269323	 0.11994
H	 0.4018496053	-0.3862848099	 2.1976949163	 0.109011
