15
gdb 19549	4.19549	1.79321	1.77153	4.4814	67.16	-0.2412	-0.024	0.2172	797.771	0.119765	-362.591566	-362.585242	-362.584298	-362.622205	24.207	
O	-0.1805649049	 0.0356237065	 0.1694003322	-0.268324
C	-0.0032858032	 1.2080867546	-0.0581586813	 0.008482
C	 1.272707812	 1.9056340535	-0.0189549766	 0.317529
C	 1.6702811995	 3.2755911618	 0.5255640225	-0.133229
C	 2.7901081609	 2.5660356922	 1.2749442306	-0.174829
N	 2.6915121637	 1.4094171002	 0.3001990338	-0.193062
C	 3.1280786159	 2.0743033928	-0.9901177941	-0.174818
C	 1.8885559559	 2.9574370282	-0.9387598545	-0.133134
H	-0.8452964343	 1.8883435998	-0.3312985714	 0.065913
H	 1.0038184378	 4.0663987418	 0.8469124323	 0.11009
H	 3.7789652762	 3.034529755	 1.3245193885	 0.106788
H	 2.4839842503	 2.229830304	 2.2674783642	 0.125844
H	 4.1179357912	 2.5414094238	-0.9475453269	 0.106819
H	 3.0914103015	 1.346174748	-1.8027296683	 0.12583
H	 1.3871638073	 3.507315218	-1.7255629512	 0.110101
