11
gdb 21094	5.49872	1.80071	1.44237	5.4135	57.31	-0.2508	-0.1012	0.1496	799.8326	0.071099	-426.818624	-426.811876	-426.810932	-426.850363	23.237	
C	-0.1042662257	 1.4242144273	-0.0168865049	-0.313689
N	 0.029079183	-0.0275276815	 0.0101789322	 0.067659
N	 0.6690202587	-0.6165802857	-1.0259802167	-0.03251
N	 0.721294505	-1.8808082835	-1.0392149594	-0.188869
C	-0.0251987108	-2.564681906	-0.0440619727	 0.455163
O	-0.5314857731	-3.6336614399	-0.2376236637	-0.284436
N	-0.0749395866	-1.911988087	 1.2156061198	-0.188877
N	-0.1183303739	-0.6474120911	 1.2035502695	-0.032484
H	 0.647914635	 1.8238868529	-0.6967353048	 0.175857
H	-1.1019282506	 1.7012317021	-0.3668143182	 0.166311
H	 0.0481219389	 1.8001527022	 0.9946178989	 0.175874
