19
gdb 49523	4.03251	1.07546	0.95516	3.0798	82.22	-0.241	-0.0238	0.2172	1257.2572	0.159044	-385.822388	-385.814474	-385.81353	-385.855058	30.874	
O	 0.1885573314	-0.1336127218	-0.4860990356	-0.256427
C	 0.0900387532	 1.0221490457	-0.1486357844	 0.115702
C	 1.2657300809	 1.9501560926	-0.077846895	-0.04578
C	 1.1702666269	 3.4174092362	-0.6461014352	-0.151577
C	 0.3057055163	 3.8083735223	 0.5916027294	-0.238892
C	 1.4569579474	 2.9178720587	 1.1516624513	-0.151485
C	 2.3983248687	 3.7229060519	 0.2340905098	 0.482105
C	 3.8617346199	 3.6624866242	-0.0156368837	-0.373287
C	 3.1944280623	 4.9595305159	 0.4512670608	-0.38305
H	-0.9023404312	 1.4393039633	 0.1257953321	 0.072747
H	 2.1621537715	 1.4005803766	-0.3736554489	 0.089828
H	 1.011208069	 3.6944763217	-1.6890459798	 0.084033
H	 0.339672402	 4.8613187638	 0.8787616903	 0.10371
H	-0.7113959957	 3.4209435578	 0.6461527743	 0.100236
H	 1.6294285255	 2.6175636047	 2.1860111961	 0.084015
H	 4.4940469527	 3.1383267433	 0.6942459783	 0.117802
H	 4.2178752771	 3.6208951548	-1.040301932	 0.117801
H	 3.1127553639	 5.7695876309	-0.2669674458	 0.116261
H	 3.3886360782	 5.2870973476	 1.4679824182	 0.116259
