16
gdb 69189	1.99622	1.74454	1.14293	4.1853	76.78	-0.2332	-0.0242	0.2089	1099.796	0.121938	-400.684671	-400.676106	-400.675162	-400.717844	32.14	
C	-0.0388427912	 1.5199701918	 0.0239937078	-0.507658
C	 0.0891987413	 0.0295578326	 0.0278369224	 0.33543
N	-0.7851254125	-0.8562347652	 0.7929590788	-0.349174
C	 0.7022897596	-0.89581584	 1.0500082523	-0.260917
C	 1.2547223856	-1.7686076697	-0.0441521398	 0.462043
O	 2.020645909	-2.6797306374	-0.0962563527	-0.298582
C	 0.6142734983	-0.8339203679	-1.1507142515	-0.370005
C	-0.3131375355	-1.3615363127	-2.1227028455	 0.342974
C	-1.0800361775	-1.8027268382	-2.9363678255	-0.445895
H	 0.8719011198	 1.9930910023	-0.3565725412	 0.135193
H	-0.8725109405	 1.8335723045	-0.6137062833	 0.147628
H	-0.2243885643	 1.900646968	 1.0339258641	 0.125472
H	-1.1803670733	-0.3148700761	 1.5636713913	 0.237373
H	 1.0959812198	-0.7053035373	 2.0404453943	 0.119888
H	 1.4581735309	-0.3311001504	-1.6414353058	 0.128219
H	-1.7620238994	-2.2018815142	-3.6455172856	 0.198009
