21
gdb 63889	2.73597	1.69966	1.50908	1.5674	80.87	-0.2429	0.0111	0.254	1000.2787	0.183914	-387.096126	-387.088318	-387.087374	-387.127627	32.58	
C	-0.1126310392	 1.5731109828	-0.0008139288	-0.454464
C	 0.0082956614	 0.046173871	-0.0127429629	 0.352848
C	-1.3878711661	-0.5928533012	-0.0661641028	-0.441933
C	 0.919992708	-0.5043483978	-1.1632053981	-0.279762
C	 1.9714618937	-1.3351367522	-0.3575616759	 0.02738
O	 1.1697791264	-1.8305443707	 0.723700357	-0.251392
C	 0.7883983709	-0.5438026524	 1.2288148147	-0.012419
C	 2.1351738161	 0.16010567	 1.345884034	-0.086647
C	 2.8769206537	-0.3354238687	 0.3555535317	-0.083953
H	 0.8671581845	 2.0582886043	 0.0033074377	 0.114487
H	-0.6560261867	 1.9245195745	-0.8849047703	 0.113298
H	-0.6672299941	 1.9182764526	 0.8801745102	 0.107757
H	-1.9075466412	-0.3234341829	-0.9922640889	 0.107767
H	-1.3145645874	-1.682281226	-0.018507259	 0.128979
H	-2.0072621362	-0.2521741018	 0.7719033215	 0.104443
H	 0.3557530912	-1.1557463377	-1.8355272359	 0.100221
H	 1.3822054838	 0.2856921286	-1.7602053156	 0.095807
H	 2.4472036275	-2.1559587658	-0.8931364871	 0.077661
H	 0.1916030022	-0.6464569166	 2.1357941047	 0.071316
H	 2.3719091691	 0.9572773106	 2.0368389849	 0.105622
H	 3.8659037424	-0.0402933508	 0.0323132988	 0.102983
