16
gdb 12149	6.13343	1.29479	1.26827	0.0066	65.24	-0.2596	0.052	0.3116	979.9134	0.128925	-383.680143	-383.672949	-383.672005	-383.714719	27.176	
C	 0.3395048875	 1.4840328766	 0.0067404047	-0.260538
O	 1.2465090966	 0.3706796131	-0.0079827817	-0.264312
C	-0.143766661	 0.104666757	 0.0039778567	 0.43988
C	-0.8276619106	-0.7070746278	 1.1172589046	-0.394229
C	-1.5353402521	-1.5048074882	 0.008727135	 0.439651
C	-2.0242798798	-2.8821477479	 0.006030241	-0.260618
O	-2.9267668212	-1.7651363779	 0.0207295656	-0.264209
C	-0.849063005	-0.6951271967	-1.1045879666	-0.394229
H	 0.3252905301	 2.0617633523	 0.9303307409	 0.117083
H	 0.3075634277	 2.0716602571	-0.9101387893	 0.117083
H	-0.1317823364	-1.2786659441	 1.7373914206	 0.122568
H	-1.5094940784	-0.1439965687	 1.7603211976	 0.122586
H	-2.0124387863	-3.4599871938	-0.9175289846	 0.117063
H	-1.9947115488	-3.4698838423	 0.9229229694	 0.117063
H	-1.5430969348	-0.1252374098	-1.7283055599	 0.122586
H	-0.1653165973	-1.2599450089	-1.744119864	 0.122568
