15
gdb 8780	3.66522	1.2946	1.16903	3.8678	64.45	-0.2594	-0.0158	0.2436	1059.82	0.117438	-395.983215	-395.974132	-395.973188	-396.017205	31.642	
C	-0.0937060433	 1.4218785523	 0.0362278461	-0.343321
N	-0.0230336235	-0.0287520672	 0.0102355398	-0.265901
C	 0.5839890557	-0.5887832402	-0.9549670589	 0.345858
N	 1.1536430874	 0.0036991304	-2.0744580452	-0.565921
C	 0.5833915083	-2.1158983896	-1.011107343	-0.060687
O	-0.2884262384	-2.6104578423	-2.0091824774	-0.400852
C	 1.9607325926	-2.6260476127	-1.2178475723	 0.250136
N	 3.0406894111	-2.9813640872	-1.4271336983	-0.326666
H	 0.8845338237	 1.905297619	-0.1220435389	 0.107243
H	-0.7828697827	 1.8060542564	-0.7295719057	 0.127123
H	-0.4681789013	 1.7466298948	 1.0095027745	 0.136149
H	 1.2484041804	 1.007851567	-2.0499874141	 0.26227
H	 1.9692876054	-0.458081797	-2.4553478971	 0.271371
H	 0.2077384175	-2.4709382853	-0.0503378618	 0.164259
H	-0.1253253031	-2.1086150685	-2.8171029377	 0.298939
