21
gdb 117534	2.19466	0.94708	0.78237	1.4324	80.9	-0.2591	0.0414	0.3005	1548.0427	0.179084	-424.188026	-424.176967	-424.176023	-424.224585	39.964	
C	 0.0337262852	 1.6012633245	-0.0177763538	-0.410744
C	 0.0555980588	 0.0777805397	 0.1021542081	 0.132837
O	 0.74290799	-0.3506455892	 1.2671869923	-0.433488
C	-1.3714109118	-0.5490939468	 0.0418440752	-0.19078
C	-1.3278300593	-2.0930216635	-0.0636101574	-0.213121
C	-0.9275133165	-2.6086226489	-1.4483764962	-0.070221
O	-0.9690118578	-4.024269851	-1.5229657721	-0.418421
C	-2.1290713576	-0.1388072157	 1.2240560021	 0.290907
C	-2.7009734573	 0.1850382967	 2.2323765649	-0.440379
H	 1.0512872668	 1.9926302305	 0.060018416	 0.125012
H	-0.3875506613	 1.9161991595	-0.9785015036	 0.113074
H	-0.5718065796	 2.0448760998	 0.7793745345	 0.125696
H	 0.6350270885	-0.3346440518	-0.7305190931	 0.090858
H	 0.2141105667	-0.0699982147	 2.0254856035	 0.282967
H	-1.8753137803	-0.1479309537	-0.8491809387	 0.10266
H	-0.6237104594	-2.4615138267	 0.6917654922	 0.112108
H	-2.311539507	-2.5048436444	 0.1795513217	 0.115068
H	-1.6420841416	-2.2534208196	-2.2001667444	 0.111091
H	 0.063080856	-2.227912138	-1.7408911388	 0.092594
H	-0.3144874378	-4.3690311174	-0.9069556628	 0.283092
H	-3.2385072246	 0.4721409507	 3.1023739105	 0.199191
