16
gdb 12810	3.66049	2.07597	1.61859	2.2917	65.5	-0.22	0.0116	0.2316	813.9911	0.13064	-383.715295	-383.708337	-383.707393	-383.745968	27.628	
O	-0.0899073353	 1.3901694317	 0.216286114	-0.470492
C	 0.0224519179	 0.0095498048	 0.0152106684	 0.320186
C	-0.4554089756	-0.5793569229	-1.3174598688	-0.394568
C	-1.2567392402	-0.7727645781	-0.0516391627	 0.096415
O	-1.377181523	-1.9829071508	 0.6267712255	-0.258302
C	-0.1985591557	-2.7773512797	 0.7198988311	-0.132308
C	 1.032919913	-1.9764447401	 1.045687072	-0.095676
C	 1.1243925852	-0.6860732334	 0.7234862243	-0.116587
H	 0.5590095334	 1.826232885	-0.3476628058	 0.28146
H	-0.8668526259	 0.1171900805	-2.0407110985	 0.117488
H	 0.1139296331	-1.400954163	-1.7371255269	 0.121892
H	-2.1770194052	-0.2074054169	 0.03846567	 0.118923
H	-0.404711638	-3.506335503	 1.5104930084	 0.12039
H	-0.0568244515	-3.3548164953	-0.2104265962	 0.102968
H	 1.8420722497	-2.4903862661	 1.5552093445	 0.097543
H	 1.9962922681	-0.0929412126	 0.9857220207	 0.090668
