13
gdb 20930	6.92653	1.19914	1.08022	1.6473	58.82	-0.2737	-0.0683	0.2054	1057.6802	0.09368	-431.843371	-431.835982	-431.835038	-431.876416	25.326	
C	 0.0464971586	 1.0862915369	 0.926479312	-0.360835
C	 0.1194043924	 0.2513511337	-0.3515494937	-0.151285
N	 0.8837204555	-0.9706820259	-0.113324925	-0.343877
C	 1.8304891408	-1.2819176982	-0.8519800579	 0.575614
O	 2.3474082665	-0.6447822368	-1.9663925432	-0.234753
N	 3.4181392719	-1.4166847196	-2.414950282	 0.061225
N	 3.5556039251	-2.4064229683	-1.6911254499	 0.070771
O	 2.603992287	-2.4102303558	-0.6853881699	-0.227197
H	-0.3764085766	 0.4975797407	 1.7448425107	 0.133775
H	 1.0421587671	 1.4234670146	 1.2298321439	 0.122937
H	-0.5812751936	 1.9683468167	 0.7679841678	 0.116997
H	-0.8925750767	-0.0506786574	-0.6469183127	 0.1225
H	 0.532213352	 0.8501032793	-1.1740593401	 0.114128
