16
gdb 44103	4.60263	1.18489	0.95922	1.5716	71.69	-0.2113	-0.004	0.2073	1157.5802	0.12581	-437.923612	-437.915968	-437.915024	-437.956177	28.207	
O	 0.0237612412	 0.0164459615	 0.0530853663	-0.356766
C	-0.0202071804	 1.2206888861	 0.0311042172	 0.415858
C	-1.2767299549	 2.1386838336	 0.0336087285	-0.497725
C	-0.6742373072	 3.5099382736	-0.0023326239	 0.191963
C	 0.6524356524	 3.4028890548	-0.0214266078	 0.301678
C	 1.3157139928	 4.7385815374	-0.0575607005	-0.17371
O	 0.2122999197	 5.6463330971	-0.0574706505	-0.273642
C	-1.0526670069	 4.9544957527	-0.0239364408	-0.177262
N	 1.0815065443	 2.0766126557	-0.0027067909	-0.433977
H	-1.9023434182	 1.8881258276	-0.8310139741	 0.148597
H	-1.8740417913	 1.9218943721	 0.9269082698	 0.148591
H	 1.9586887432	 4.927069044	 0.816515185	 0.113409
H	 1.9305365902	 4.8930779614	-0.9581564489	 0.113406
H	-1.6425892521	 5.2460675448	-0.9065538773	 0.107855
H	-1.6142162915	 5.2799982644	 0.8653076162	 0.107847
H	 2.0284473688	 1.7372859033	-0.0119915181	 0.263875
