23
gdb 96360	2.18289	1.61267	1.23231	1.6844	84.43	-0.2546	0.0777	0.3323	1154.1004	0.207445	-388.300888	-388.292248	-388.291304	-388.333624	34.619	
C	-0.1312163062	 1.6115136011	 0.0236886423	-0.403338
C	 0.018120988	 0.081438126	 0.0319810465	-0.042623
C	 0.7324817466	-0.4592565045	-1.2272162425	-0.210226
C	 2.2413906508	-0.1649989051	-1.2317325732	-0.191632
C	 2.9146747861	-0.7068126048	 0.0377097877	-0.19129
C	 2.2425537752	-0.1514684507	 1.304431234	-0.273766
C	 0.7487143059	-0.4173197421	 1.2740215979	 0.452329
C	 0.0079879094	-0.6543744048	 2.5183196915	-0.254159
O	 0.3813938566	-1.7515065005	 1.6790983801	-0.294438
H	 0.8336059277	 2.1257143815	-0.0229572589	 0.118826
H	-0.7158467428	 1.9322625708	-0.8446809348	 0.114666
H	-0.6476983579	 1.9610965328	 0.9235578235	 0.113366
H	-0.9874938033	-0.3540899958	 0.0651374602	 0.074561
H	 0.5864238783	-1.546068917	-1.2630749691	 0.107228
H	 0.2586485326	-0.0473712737	-2.1258488677	 0.086279
H	 2.7005408935	-0.6099271874	-2.1214970199	 0.092674
H	 2.4152075747	 0.9165493521	-1.3062382828	 0.093381
H	 2.8360517029	-1.8012563457	 0.0510131004	 0.109826
H	 3.9829176552	-0.4645357129	 0.0414028345	 0.088976
H	 2.6705078619	-0.6068322208	 2.2028737962	 0.099169
H	 2.4190793946	 0.9300028652	 1.3744243448	 0.098143
H	 0.5250118618	-0.6016723707	 3.4763693756	 0.106295
H	-1.0607040717	-0.443696223	 2.5613203237	 0.105753
