12
gdb 123533	4.14671	1.90293	1.30436	2.7709	69.97	-0.2782	-0.0967	0.1815	856.5511	0.082507	-427.869998	-427.86461	-427.863666	-427.899774	21.138	
C	 0.1048492635	 1.2729528913	 0.0083676675	 0.051923
N	 1.3506420622	 1.7636089842	-0.0009738611	-0.232034
N	 2.0750916027	 0.6393617291	-0.0142011182	 0.057454
N	 3.3972418842	 0.6070234339	-0.0272014455	-0.158967
C	 3.8834208002	-0.6164652661	-0.0386145391	 0.009946
C	 3.0628952579	-1.7754143601	-0.0370005635	-0.030961
N	 1.7484295468	-1.7204136069	-0.023950852	-0.305997
C	 1.2315872559	-0.4849744252	-0.0121702466	 0.509082
N	-0.0280670942	-0.0701895612	 0.0022803805	-0.336596
H	-0.742937795	 1.9424673371	 0.0202783064	 0.146401
H	 4.9646459627	-0.6902202663	-0.0495045787	 0.148776
H	 3.5219835732	-2.7601671996	-0.0468510998	 0.140973
