16
gdb 45330	2.53172	1.90418	1.18458	6.305	71.17	-0.2471	0.0062	0.2533	1004.9427	0.127247	-434.098827	-434.091537	-434.090593	-434.130942	27.782	
N	 0.1685436974	 1.088007162	 0.6577457416	-0.492444
C	 0.1771397788	-0.0307942679	 0.0873211796	 0.352924
C	 1.1402200303	-0.9501185402	-0.6860669846	-0.376665
C	-0.0269358151	-1.9735146443	-0.7040863804	 0.039075
C	-0.0346664965	-3.1940906114	 0.2419969227	-0.201165
N	-1.2376288102	-2.9236815267	 1.0235594274	-0.336744
C	-1.5617144191	-1.5746803832	 1.0820737484	 0.417396
O	-2.2684580592	-1.0303492769	 1.8858679419	-0.356717
N	-0.8825859525	-0.9792593732	-0.0194603161	-0.136483
H	 1.0773997964	 1.5435395188	 0.5775066759	 0.227547
H	 1.4602303095	-0.5763505125	-1.6609051117	 0.135806
H	 2.0176305673	-1.2561446014	-0.1107270741	 0.132266
H	-0.3965983284	-2.2334518686	-1.6989191125	 0.102676
H	-0.114153015	-4.1379733492	-0.3038840736	 0.123829
H	 0.8688683731	-3.2359705452	 0.8686926464	 0.109458
H	-1.4787358268	-3.47816474	 1.8297865391	 0.259243
