16
gdb 27061	3.32633	1.15151	0.85999	4.8743	76.47	-0.2058	0.0179	0.2237	1291.0325	0.125124	-434.107178	-434.098484	-434.09754	-434.14262	30.441	
C	-0.0113246357	 1.5236652392	 0.0487090075	-0.514025
C	 0.0125039652	 0.0379034256	-0.0305557641	 0.1856
C	 0.0098313064	-0.8279999451	-1.0952085869	 0.335198
O	-0.0183929241	-0.4153618655	-2.3960424538	-0.229886
C	-0.0172347445	-1.3459121002	-3.3864768851	 0.100438
N	-0.0436651356	-0.946145852	-4.5829713327	-0.444909
N	 0.0382039271	-2.1349807898	-0.7065301446	-0.342835
C	 0.0588453423	-2.090696315	 0.6096982564	 0.012609
N	 0.0446341955	-0.8118401246	 1.0654259722	-0.301132
H	 0.8753403173	 1.928272827	 0.5521212371	 0.130465
H	-0.0343574673	 1.9311883824	-0.9640950761	 0.163945
H	-0.8946460448	 1.8983996478	 0.5803386967	 0.13048
H	 0.0074268518	-2.370417318	-3.0125044882	 0.138369
H	-0.0389173007	-1.7509111438	-5.2070232204	 0.229602
H	 0.0839671771	-2.9453004347	 1.2679746901	 0.13782
H	 0.0553780599	-0.5230075532	 2.0293271119	 0.26826
