25
gdb 115505	4.76942	0.75547	0.68991	1.6037	89.77	-0.2367	0.0828	0.3195	1764.331	0.228896	-389.514607	-389.504212	-389.503268	-389.550762	38.109	
C	 0.0508804769	 1.5784226512	-0.0743171468	-0.385683
C	 0.0204235547	 0.0566888526	 0.1072664547	-0.195556
C	-1.3690855014	-0.5578398849	-0.0739225452	 0.018572
C	-1.9586795466	-0.4212180073	-1.4881458894	-0.069054
O	-2.8771841971	-1.4949743734	-1.6615939988	-0.282234
C	-2.7311387358	-2.4603582224	-0.6082702972	 0.157591
C	-2.7578183422	-3.8675202361	-1.1973554139	-0.180853
C	-4.0665282878	-4.1906446603	-1.9227768265	-0.381793
C	-1.4373602699	-2.0805812815	 0.1202383774	-0.268299
H	 1.0566319581	 1.9762849789	 0.0921555597	 0.113577
H	-0.2559757547	 1.8697256766	-1.084390747	 0.121245
H	-0.6241649631	 2.0742551571	 0.6322214891	 0.115255
H	 0.7126145336	-0.4136361134	-0.6045009452	 0.095168
H	 0.3937238643	-0.1961791091	 1.1076110775	 0.096205
H	-2.0605367715	-0.0846486148	 0.6371738749	 0.072787
H	-2.4884515448	 0.5251202011	-1.6453036893	 0.099445
H	-1.1592772059	-0.4866891631	-2.2448571805	 0.084188
H	-3.5874825332	-2.3478035338	 0.0788847479	 0.060189
H	-1.9111199575	-3.9668439317	-1.8882839146	 0.09424
H	-2.5904726247	-4.5851135087	-0.3833013459	 0.089633
H	-4.0439963031	-5.1969905957	-2.3520472124	 0.106085
H	-4.9206393292	-4.138832641	-1.2379895841	 0.109148
H	-4.2416318768	-3.4752875992	-2.73048558	 0.135651
H	-0.5769421242	-2.5602978879	-0.3647128779	 0.09522
H	-1.4417345881	-2.3832467029	 1.1708345736	 0.099271
