15
gdb 98503	2.42771	1.45488	0.97338	2.6398	68.99	-0.2671	-0.0192	0.2479	1181.5049	0.109019	-457.725493	-457.71627	-457.715326	-457.760233	32.335	
C	-0.2424297351	 1.3243637711	-0.1517838566	-0.249426
O	-0.2950565833	-0.0835429274	-0.4285538333	-0.237232
C	 0.8474818589	-0.6203476187	-0.8693765601	 0.429966
O	 1.8740472353	-0.0160940196	-1.0379465795	-0.36554
C	 0.7010556929	-2.1065662357	-1.1498873853	 0.066153
C	 1.6417237268	-2.6594275915	-2.1594261419	-0.196065
O	 1.8773165722	-2.8489562726	-0.7789277763	-0.248216
C	-0.563020228	-2.7491351323	-0.9071916059	 0.277594
C	-1.6120244977	-3.3023975873	-0.7175628444	-0.386724
H	 0.4959189266	 1.5318814852	 0.6261862518	 0.148998
H	 0.0267160736	 1.8807274483	-1.052801823	 0.14555
H	-1.2426222363	 1.5953493841	 0.1842394058	 0.140965
H	 1.3299745109	-3.5412690159	-2.7154872543	 0.131476
H	 2.3158712098	-1.9657438403	-2.656399452	 0.142539
H	-2.5412057566	-3.7857507873	-0.540499455	 0.19996
