23
gdb 96552	2.25434	1.43673	1.01457	2.173	81.54	-0.2406	0.0711	0.3117	1260.4612	0.206839	-425.429077	-425.419744	-425.4188	-425.462908	36.213	
C	-0.0041820379	 1.5991304167	 0.0264559092	-0.407315
C	 0.0407294667	 0.0642713892	 0.0080539611	 0.029688
C	 0.6100564	-0.4720578899	-1.3201509317	-0.09171
O	-0.007418346	-1.6809315416	-1.7345151102	-0.2441
C	 0.4389852932	-2.855235691	-1.0932798225	-0.058385
C	 0.2051244879	-2.9172794261	 0.4232395766	-0.220348
C	 1.122772835	-1.9797483613	 1.2229133056	-0.23557
C	 0.751799024	-0.4802163267	 1.2618526405	 0.115544
O	 1.9382638642	 0.2947786754	 1.4493600156	-0.433378
H	 0.9942086443	 2.0260855965	-0.0943417197	 0.134558
H	-0.6426737279	 1.9717702126	-0.7807676617	 0.10626
H	-0.4057104463	 1.9702571554	 0.9748536664	 0.109877
H	-0.9919835837	-0.3027604295	 0.0461153665	 0.081942
H	 0.3964548527	 0.2432971135	-2.1206852696	 0.099127
H	 1.703949512	-0.5850109583	-1.2627738261	 0.096244
H	-0.1047156357	-3.6705310066	-1.582275442	 0.101988
H	 1.5150212599	-3.0107759855	-1.290107161	 0.081477
H	-0.8524282483	-2.7270812274	 0.6417660357	 0.1058
H	 0.4045292073	-3.9503446349	 0.7348737846	 0.095468
H	 1.2013012829	-2.3374640385	 2.2574449668	 0.088033
H	 2.133591976	-2.0464826873	 0.8003447537	 0.10365
H	 0.0701300452	-0.3065013903	 2.1113458067	 0.060643
H	 2.4039070644	-0.0576373045	 2.2141431054	 0.280507
