17
gdb 67716	2.25108	2.02698	1.71234	2.6237	66.32	-0.2221	0.0658	0.2879	890.7099	0.137418	-458.932327	-458.925319	-458.924375	-458.963476	28.149	
O	-0.0433295537	 1.3714308353	 0.0805608838	-0.466176
C	 0.0227409044	-0.0110502626	 0.0127283434	 0.275424
C	-0.2451941018	-0.8903464823	-1.1793392451	-0.023887
O	 0.7001649693	-1.9168362148	-1.2879941006	-0.251244
C	 1.7201536209	-1.6836353119	-0.3097997936	-0.077336
C	 1.0629100599	-0.8536151132	 0.8050269647	-0.15026
C	 0.1562897473	-1.6919743824	 1.721082753	-0.077568
O	-1.0394409867	-1.9355537414	 0.9714154803	-0.252796
C	-1.1801305417	-0.8975714126	 0.0439271913	 0.026853
H	 0.6352631423	 1.7376567081	-0.498069491	 0.284918
H	-0.6235984149	-0.511616009	-2.1234808332	 0.104089
H	 2.092323683	-2.6566206716	 0.0244164413	 0.112418
H	 2.5549921322	-1.1265555482	-0.763019218	 0.089299
H	 1.7708498407	-0.2326664306	 1.3563975119	 0.087246
H	 0.5819744685	-2.6611431493	 1.9979379619	 0.1099
H	-0.0814553111	-1.1339308073	 2.6387058373	 0.100443
H	-2.1875846086	-0.511872366	-0.0711155772	 0.108678
