17
gdb 93177	2.79047	1.4053	0.97515	5.9047	69.7	-0.254	-0.0759	0.1781	1180.793	0.135261	-459.019884	-459.011437	-459.010493	-459.053809	31.049	
C	-0.2507235822	 1.4395979927	 0.0908376808	-0.400263
C	-0.0752125342	-0.0547737259	-0.1247220698	 0.141292
C	 0.922222007	-0.412253573	-1.2187399354	-0.237452
C	 1.0204369672	-1.9324542257	-1.3503163029	-0.330387
C	 1.3034401117	-2.5901344566	-0.0138385109	 0.27647
O	 1.7931417131	-3.6808251241	 0.1011603187	-0.257063
C	 0.9386835054	-1.8002073168	 1.2829068691	 0.316983
O	 1.2040421914	-2.2342377791	 2.365728326	-0.287768
O	 0.342165752	-0.5948860399	 1.1554298573	-0.237468
H	 0.7091612722	 1.9098481414	 0.3237328598	 0.133547
H	-0.659999719	 1.9051924413	-0.8104558418	 0.123404
H	-0.9355880445	 1.6257887393	 0.9213877907	 0.140628
H	-1.0491415203	-0.5063905927	-0.3627897067	 0.095361
H	 0.6026538881	 0.037619411	-2.1638667209	 0.119292
H	 1.8989441775	 0.0199622402	-0.968354932	 0.122329
H	 0.0608665041	-2.3363829384	-1.7048132305	 0.140579
H	 1.7803732804	-2.2594178237	-2.0650375715	 0.140516
