21
gdb 92107	2.57232	1.63285	1.33933	1.3656	81.	-0.2294	0.0805	0.3099	1059.2634	0.184124	-387.073976	-387.06607	-387.065125	-387.105788	32.625	
C	-0.2585044818	 1.5621113012	 0.0285561222	-0.399095
C	 0.0278958636	 0.0561346561	-0.012249565	 0.013287
C	 0.7453772104	-0.444457322	-1.3070535075	-0.226736
C	 2.1357269981	-0.9028180026	-0.8377935687	-0.034576
C	 2.9457344633	 0.2973357581	-0.2375817212	-0.306892
C	 2.4142362348	-0.1044262664	 1.1326746829	 0.401294
O	 2.979362735	 0.2434591745	 2.3464417936	-0.465913
C	 1.9423846144	-1.458233829	 0.6034401922	-0.191478
C	 0.9421712707	-0.4442439522	 1.107949097	-0.075656
H	 0.65864882	 2.1513824	-0.0668770187	 0.120664
H	-0.9334245386	 1.8574398436	-0.782123149	 0.10819
H	-0.7327751138	 1.8439475868	 0.9749118375	 0.112375
H	-0.9322898724	-0.4655191689	 0.0842568813	 0.068001
H	 0.1985148685	-1.2865557388	-1.7448458997	 0.092645
H	 0.8088119122	 0.3350923733	-2.0739973343	 0.09239
H	 2.6771854652	-1.5197252779	-1.5548712553	 0.064269
H	 4.0238511837	 0.1100879544	-0.3010990792	 0.086187
H	 2.7401675871	 1.3040686332	-0.6185795341	 0.090807
H	 3.9054610541	-0.0241261467	 2.331733168	 0.280002
H	 2.0693670146	-2.4689137941	 0.9677007061	 0.083978
H	 0.5308215709	-0.5956780125	 2.100796022	 0.086259
