16
gdb 110082	2.06318	1.34898	1.02331	4.9262	71.5	-0.2619	-0.0395	0.2224	1205.2427	0.121995	-437.876319	-437.867074	-437.86613	-437.911042	31.941	
C	-0.4732436946	 1.1455549643	-0.1574858891	-0.247852
O	 0.4382406254	 0.0823413686	 0.100544103	-0.228979
C	 0.8975311602	-0.53526315	-1.0405035787	 0.110726
C	 1.422645709	-1.9333359986	-0.882865541	-0.189404
C	 1.3994855836	-2.5958138396	 0.4575645759	 0.173691
O	 2.2903451765	-3.3146859687	 0.8324547686	-0.258197
C	 0.1009724226	-1.6823997553	-1.6440187813	-0.250021
C	-1.1541567197	-2.0566878798	-1.0571542986	 0.311096
N	-2.1812367891	-2.3427779894	-0.6077976762	-0.338129
H	-0.0067730655	 1.9189532108	-0.7833399985	 0.117564
H	-1.382546636	 0.7804553434	-0.6491543783	 0.138238
H	-0.7325040787	 1.5741465404	 0.8113887583	 0.147184
H	 1.4084799367	 0.1142807517	-1.7531239967	 0.115714
H	 2.2700133293	-2.2214126051	-1.4943037259	 0.130422
H	 0.5127313164	-2.3815468037	 1.083119954	 0.118687
H	 0.148283044	-1.8183489188	-2.7192786154	 0.149263
