15
gdb 50057	3.03273	0.97322	0.90896	4.2453	75.97	-0.2487	-0.0764	0.1722	1308.7091	0.109611	-420.599688	-420.59076	-420.589816	-420.634421	31.589	
O	 0.1723488381	-0.1278044678	-0.2308728492	-0.265056
C	 0.092199074	 1.0377217136	 0.0733886679	 0.145984
C	 1.2794960777	 1.9360102986	 0.1128390633	-0.098805
C	 1.1336196969	 3.391568056	-0.2422471587	-0.298287
C	 1.4413042748	 3.0399466236	 1.1852502991	-0.131648
C	 0.3837965817	 3.2550947601	 2.2194116128	 0.246844
O	-0.8024758072	 3.3232856563	 1.9621850921	-0.31316
C	 0.8746910409	 3.394476483	 3.5780671875	 0.246007
C	 1.2949886556	 3.5095419994	 4.7001825131	-0.396293
H	-0.8748925078	 1.5146920388	 0.3214880607	 0.115225
H	 2.2025778638	 1.4356189232	-0.1591886629	 0.120739
H	 1.9133045605	 3.8525939098	-0.8363017636	 0.13674
H	 0.1254740929	 3.7501396645	-0.4231349287	 0.154027
H	 2.4581226937	 3.1657263552	 1.537911972	 0.116719
H	 1.6469472744	 3.6117325759	 5.6983424445	 0.220964
