14
gdb 48608	2.30345	1.62918	1.15611	4.7648	67.27	-0.2789	-0.064	0.2149	1039.2312	0.099091	-436.625183	-436.617305	-436.616361	-436.658795	28.13	
O	-0.7833256947	 1.0228941636	-0.0512638514	-0.237215
C	 0.3867411336	 0.7489947685	-0.0103859618	 0.044643
C	 1.4587406228	 1.7974701972	-0.000819768	 0.317029
C	 1.9166792137	 2.7317343558	 1.1585555472	-0.263616
C	 2.8976044098	 2.8602095831	-0.0276675802	 0.045523
O	 2.8634072653	 1.3900820218	-0.1895915241	-0.324797
C	 1.683404827	 2.9837236941	-0.9997280937	-0.199644
C	 1.9022675047	 2.6570260495	-2.3967352961	 0.284115
N	 2.061131325	 2.4300653979	-3.5183506915	-0.312372
H	 0.7665714979	-0.2932850681	 0.0359716774	 0.116716
H	 1.2813823887	 3.5806975791	 1.4162042541	 0.12559
H	 2.3169214822	 2.2044862456	 2.0231243014	 0.134348
H	 3.8657070471	 3.3522419638	-0.0961135291	 0.130093
H	 1.0328104668	 3.8517209182	-0.8800080641	 0.139586
