23
gdb 97842	3.76334	0.69682	0.64161	0.0839	96.46	-0.2353	0.0563	0.2916	1883.6047	0.204786	-351.131654	-351.121148	-351.120204	-351.170129	37.842	
C	-0.6305333932	 1.6524187851	-0.3036544328	-0.361982
C	 0.1154535082	 0.3733159318	 0.1183884235	-0.315083
C	 0.879593759	-0.2313776987	-0.9684206385	 0.095938
C	 1.5058061163	-0.7053131357	-1.8841489885	 0.038936
C	 2.2650761123	-1.3007067064	-2.96492107	-0.160952
C	 3.6812835455	-1.8917884774	-2.6692455177	-0.221095
C	 3.3615165576	-3.0595489691	-3.6376136845	-0.227772
C	 1.8473823475	-2.709489802	-3.5387633494	 0.016073
C	 1.0617730903	-3.5912654447	-2.5760555837	-0.389482
H	 0.0713929261	 2.4109169543	-0.6608352338	 0.126506
H	-1.3366473902	 1.4411596677	-1.1113655189	 0.126114
H	-1.1872874317	 2.0680204054	 0.5418127532	 0.111387
H	 0.7892296605	 0.6033044476	 0.9542723054	 0.12563
H	-0.6052646267	-0.3569688458	 0.5091158599	 0.125393
H	 2.3383267025	-0.5908338743	-3.7967647707	 0.093628
H	 4.5364552874	-1.2532334439	-2.9009170375	 0.099366
H	 3.7635508678	-2.2213888916	-1.631252859	 0.110364
H	 3.7628818751	-2.8874159372	-4.640211133	 0.097969
H	 3.6504044682	-4.0640819579	-3.3178179728	 0.095486
H	 1.3202660542	-2.652291172	-4.4957252034	 0.067751
H	 1.567823649	-3.6844836544	-1.6092583555	 0.117007
H	 0.0662738433	-3.1789218987	-2.385539587	 0.120922
H	 0.9431037711	-4.5981878822	-2.9909901555	 0.107896
