17
gdb 18737	2.99497	2.39119	1.57007	3.5406	68.15	-0.2354	-0.0005	0.2349	840.3843	0.142824	-363.858914	-363.851754	-363.85081	-363.890208	27.453	
C	-0.3023895404	 1.5459322088	 0.0071490154	-0.398926
C	 0.0120745219	 0.0632868622	-0.0073215068	 0.052808
C	 1.1397889759	-0.477589166	-0.9434070693	-0.274309
C	 1.7286263236	-1.2190949804	 0.2873311789	 0.033132
C	 2.9086842195	-0.5900079056	 1.0597486487	-0.38355
C	 1.8134614266	 0.252535488	 1.7591275971	 0.391776
O	 1.7967527573	 1.2229083985	 2.4602958523	-0.327823
N	 0.7542017749	-0.5017358849	 1.1852246696	-0.154288
H	 0.6007420292	 2.1522601584	 0.1152604838	 0.133065
H	-0.7956158838	 1.8235419111	-0.9304880538	 0.118429
H	-0.9737206737	 1.7952546066	 0.8338850227	 0.140025
H	-0.9117815959	-0.5117425143	-0.1264758368	 0.093512
H	 0.818337497	-1.1035754439	-1.7780115074	 0.110845
H	 1.7926769901	 0.3136755369	-1.3251279366	 0.109905
H	 1.6622050043	-2.3084684023	 0.2738454465	 0.086496
H	 3.4579297566	-1.2728063004	 1.7130707029	 0.135193
H	 3.6213098569	 0.0054749972	 0.4844429729	 0.133711
