21
gdb 119750	2.80774	1.00503	0.77653	2.7042	84.08	-0.2226	0.019	0.2415	1517.8118	0.180789	-424.221799	-424.211688	-424.210743	-424.257768	35.175	
C	-2.3868310368	 1.0583242774	 1.4299690007	-0.220342
O	-2.2356418859	-0.23793094	 0.9037681075	-0.234175
C	-0.9461439366	-0.7767334554	 1.1409332213	-0.187259
C	-0.9052008651	-2.1741157569	 0.6194473653	 0.206247
C	-0.0080801384	-2.7549131123	-0.1796424765	 0.167053
C	 1.214447728	-2.1919567553	-0.8290596981	-0.502121
C	-0.3934303392	-4.2001168546	-0.3737299382	-0.137147
O	-1.5934389818	-4.3915592186	 0.36028502	-0.265731
C	-1.9595730294	-3.1779484838	 1.0099331806	-0.147747
H	-3.4059066762	 1.3842118009	 1.208713043	 0.129371
H	-2.2351900504	 1.0778158267	 2.5212933927	 0.103581
H	-1.6795001949	 1.7702184328	 0.9749895507	 0.103387
H	-0.1721377598	-0.1508418625	 0.6688875641	 0.091846
H	-0.7406752983	-0.771565598	 2.2281894119	 0.092807
H	 2.121703549	-2.6885400653	-0.461748319	 0.131325
H	 1.188528407	-2.3527554853	-1.9140996759	 0.131562
H	 1.3244773087	-1.1199424841	-0.6496768677	 0.128564
H	-0.5582730718	-4.4414434304	-1.4373954195	 0.099516
H	 0.3897107442	-4.8877885186	-0.0105753944	 0.096508
H	-2.0008297243	-3.3310841108	 2.1017212933	 0.094385
H	-2.9636461681	-2.8661263459	 0.6900226382	 0.118371
