21
gdb 69659	3.81385	1.14739	1.06737	1.1338	82.71	-0.2436	0.0834	0.3271	1215.078	0.18251	-387.046695	-387.038346	-387.037401	-387.079277	33.56	
O	-0.3808766273	 1.407295692	-0.1394743012	-0.46508
C	-0.1182030751	 0.0541604703	-0.0071581031	 0.412744
C	-0.3588895739	-0.9290589461	-1.1168948898	-0.350965
C	-1.1312829315	-1.0607473747	 0.1817741825	-0.175039
C	-0.2405880427	-1.707093969	 1.2530737611	 0.398567
C	-0.9013744744	-1.9787458984	 2.6301956788	-0.286433
C	-0.9689143501	-3.4850726688	 2.2608214446	-0.208532
C	 0.0894830987	-3.220869539	 1.1551850427	-0.280157
C	 0.7904058672	-0.5493769153	 1.0704583007	-0.401172
H	 0.2538555688	 1.7784096122	-0.7622255998	 0.283337
H	-0.9405966882	-0.5319221627	-1.9430009938	 0.110304
H	 0.3885164932	-1.6688520151	-1.397655841	 0.101828
H	-2.2140155607	-1.0133361401	 0.2042214414	 0.087886
H	-0.2020098278	-1.7920124947	 3.4516901496	 0.096329
H	-1.8381268349	-1.4573271891	 2.8466539347	 0.097363
H	-0.7151828184	-4.2066597625	 3.0406212926	 0.094761
H	-1.9394104153	-3.7597881286	 1.8385280795	 0.102919
H	-0.0539040346	-3.702551416	 0.183954939	 0.094305
H	 1.104193266	-3.4361346164	 1.5054717575	 0.096167
H	 1.8079083333	-0.8232943103	 0.7669948617	 0.084072
H	 0.8394051176	 0.0829087423	 1.9614758722	 0.106798
