20
gdb 7169	6.23605	0.83355	0.77674	1.3949	78.27	-0.255	0.0545	0.3094	1486.5619	0.173708	-348.965572	-348.95549	-348.954546	-349.000758	35.484	
C	 0.00750796	 1.4057199668	 0.0238918543	-0.228751
O	 0.0276707318	-0.0001705535	-0.0157154665	-0.234641
C	 0.6540512343	-0.5751301434	 1.1088093511	-0.054645
C	 0.6554947886	-2.0961262564	 0.9539589378	 0.008968
C	 1.4229196989	-2.5337897927	-0.296870435	-0.388944
C	 1.2248037905	-2.7392389743	 2.241378424	-0.363879
C	 1.1238699149	-4.1933004737	 2.2591056527	 0.299738
C	 1.0251295393	-5.391398223	 2.2620251451	-0.439376
H	 1.0242790208	 1.8293460976	 0.0502281184	 0.103563
H	-0.4956601963	 1.7522650535	-0.8820809007	 0.127505
H	-0.5417694171	 1.7827740119	 0.9015034815	 0.103114
H	 1.6906307701	-0.201960059	 1.2036828002	 0.080487
H	 0.1212342035	-0.2844185441	 2.0315444685	 0.080692
H	-0.3899055504	-2.4130067519	 0.8546143968	 0.095586
H	 1.3837284899	-3.6194512033	-0.4174650802	 0.12662
H	 0.9991329833	-2.0630522646	-1.1861595494	 0.132078
H	 2.4778838155	-2.2397542593	-0.2284962673	 0.105201
H	 2.2779879956	-2.4470623907	 2.3568828687	 0.127127
H	 0.6985808243	-2.3341250849	 3.1159142494	 0.126297
H	 0.9438907527	-6.449872515	 2.2733266406	 0.193263
