17
gdb 30319	3.06931	1.61065	1.12606	1.2759	74.79	-0.2161	0.0146	0.2306	1063.3472	0.137539	-421.845856	-421.838356	-421.837412	-421.878048	28.573	
C	 0.1147592493	 1.5620867009	-0.0606250171	-0.390217
C	-0.0430124919	 0.0522799717	 0.103123522	 0.022604
O	 0.4933451699	-0.6308575839	-1.0504059498	-0.298046
C	 1.4672512071	-1.6421944254	-0.7081879315	-0.18718
C	 1.6104333816	-1.520898102	 0.7744521398	 0.208532
C	 0.7528516915	-0.5718887729	 1.1983418758	 0.283522
O	 0.7984705581	-0.3965852194	 2.534886628	-0.200489
C	 1.7432430099	-1.2893364928	 2.9787002665	-0.014189
C	 2.2746357381	-2.0059630784	 1.9466515353	-0.363826
H	 1.1718344701	 1.8296438222	-0.1410077568	 0.122042
H	-0.4024229374	 1.8953850081	-0.9643887589	 0.126944
H	-0.3174413231	 2.0837843671	 0.7995741538	 0.120992
H	-1.1152290772	-0.1895213911	 0.1850655404	 0.090748
H	 1.0950169924	-2.6256333829	-1.0303020431	 0.110434
H	 2.3930508083	-1.4402523492	-1.2637810739	 0.113002
H	 1.9167555913	-1.2855326848	 4.0420444439	 0.137259
H	 3.033193752	-2.7683078474	 2.0323694058	 0.117868
