21
gdb 73215	2.09119	1.84743	1.36359	2.7494	81.24	-0.2313	-0.0144	0.2169	1063.9668	0.183286	-387.123147	-387.11468	-387.113736	-387.156196	33.034	
C	-0.1102919042	 1.5358966159	 0.0137142152	-0.472873
C	 0.0240132063	 0.0215617303	 0.0283573013	 0.230964
C	-1.2619380529	-0.8025088522	 0.3839528206	-0.265176
C	-0.4471912019	-1.6256875663	 1.4179906861	-0.230587
C	 0.7877601504	-0.7049811616	 1.1846890485	-0.046275
C	 2.03463957	-1.3680476913	 0.5686707613	-0.238179
C	 1.6652250535	-1.6201807364	-0.9032806127	-0.323931
C	 0.6758952314	-0.504217392	-1.2568263728	 0.365679
O	 0.4485091221	-0.0898031653	-2.3658906738	-0.329384
H	 0.869576207	 2.0248633292	-0.0245395026	 0.115307
H	-0.6723897744	 1.8540108196	-0.8696447121	 0.138597
H	-0.6309682497	 1.8915141003	 0.9085851298	 0.108293
H	-2.0286170056	-0.1695329044	 0.8385475861	 0.106948
H	-1.7241885882	-1.356391099	-0.4375190398	 0.108439
H	-0.8454156986	-1.6241396043	 2.4348217345	 0.103173
H	-0.2782425966	-2.6668391345	 1.1278010851	 0.099165
H	 1.0323967027	-0.0788990492	 2.0454615929	 0.066813
H	 2.884848381	-0.6780283552	 0.6219485867	 0.105269
H	 2.3248543889	-2.279456912	 1.1003908502	 0.102458
H	 2.506885897	-1.6289075568	-1.5986801115	 0.126064
H	 1.1406115922	-2.5771871747	-1.0272288031	 0.129237
