17
gdb 1783	4.95676	1.72855	1.56012	1.1297	60.4	-0.2527	0.0677	0.3205	835.1956	0.146501	-346.830523	-346.822237	-346.821293	-346.862654	30.218	
C	-0.1197422158	 1.619723309	 0.0684693258	-0.471356
C	-0.0729056897	 0.1048452474	 0.0353871193	 0.314885
C	-1.3330645537	-0.5682850763	-0.4768703923	-0.130632
O	-1.5803188827	-0.3376707827	-1.8572837855	-0.418482
C	 1.2502540669	-0.5680952612	-0.2832697332	-0.357112
C	 0.6859014966	-0.619371925	 1.1159149696	 0.059627
O	 1.2606717447	 0.154862601	 2.1297511544	-0.421597
H	 0.769364493	 2.0282118479	 0.5513740663	 0.135216
H	-0.1763387884	 2.0352342292	-0.9446229508	 0.106689
H	-0.9924728026	 1.9733574567	 0.6306861269	 0.114594
H	-1.245587849	-1.6552300349	-0.3759954312	 0.101574
H	-2.1934487321	-0.2520814326	 0.1359035139	 0.087393
H	-1.7611842568	 0.6000963789	-1.9719987567	 0.284344
H	 1.2455439536	-1.4689773228	-0.8879241946	 0.115068
H	 2.1071635271	 0.0796955706	-0.4378742793	 0.109055
H	 0.274414253	-1.5700853585	 1.4579796889	 0.08186
H	 2.1209372657	-0.2236099067	 2.3381347685	 0.288873
