17
gdb 20920	3.1018	1.98022	1.33875	4.8987	70.21	-0.2439	0.0065	0.2504	943.8134	0.143019	-360.057154	-360.04912	-360.048176	-360.090019	28.576	
C	-0.015017427	 1.5791488485	 0.0146272015	-0.380203
C	 0.0218919383	 0.0497104639	 0.0263969043	-0.146696
N	 0.6499711291	-0.4882086003	 1.2236461223	 0.005041
N	 1.9859285876	-0.7012791001	 1.2321014431	-0.156938
N	 2.3078429151	-1.1328109232	 2.416778083	-0.193576
C	 1.1842641665	-1.1971520021	 3.1794029347	-0.149647
C	 0.1023475421	-0.7850753599	 2.4328701499	 0.312698
C	-1.3490456962	-0.6671139463	 2.7549013044	-0.507522
H	 0.998480105	 1.9813907048	 0.0875623344	 0.15046
H	-0.4657326307	 1.9351740985	-0.9165257656	 0.125648
H	-0.6026304041	 1.9714010693	 0.8498413378	 0.126665
H	-0.9864219003	-0.3682494461	-0.046619903	 0.121484
H	 0.6033886983	-0.3264150139	-0.8180569981	 0.146642
H	 1.2089549112	-1.5365797202	 4.2028944819	 0.117782
H	-1.7065207273	 0.3662757622	 2.6838085663	 0.140756
H	-1.9676727541	-1.2758924421	 2.0854912944	 0.140641
H	-1.5287595036	-1.010741423	 3.7757503888	 0.146764
