27
gdb 122880	3.77251	0.61336	0.60626	0.8513	94.07	-0.2495	0.0791	0.3286	2082.4768	0.248469	-390.704855	-390.692648	-390.691704	-390.742874	44.016	
C	-0.0353463219	 1.5215155276	 0.0421327666	-0.382025
C	 0.0182101287	-0.0065402479	-0.0255542249	-0.183703
C	 0.7288151894	-0.5100182176	-1.2744745744	-0.027469
O	 0.7352453231	-1.9203831541	-1.2604791792	-0.255141
C	 1.3739065356	-2.4939148166	-2.3809617314	-0.050138
C	 1.3340313156	-4.0265829363	-2.2802054338	 0.237654
C	-0.1289357253	-4.5032203144	-2.2420940204	-0.397663
C	 2.0390811407	-4.6030271563	-3.5197415247	-0.410992
C	 2.066633637	-4.4790475041	-1.0044856405	-0.397672
H	 0.9701341906	 1.9567720125	 0.0519056385	 0.115904
H	-0.5689599135	 1.9413532158	-0.8178269928	 0.115902
H	-0.5500344979	 1.8572012527	 0.9469773053	 0.116811
H	 0.5344164824	-0.4084564584	 0.8539025205	 0.105666
H	-0.9952579672	-0.4237891321	-0.0102487866	 0.105666
H	 0.2194978868	-0.138260475	-2.1814536107	 0.080851
H	 1.7626872811	-0.122615949	-1.3097580564	 0.080855
H	 0.8748224494	-2.1664007885	-3.3101714012	 0.076423
H	 2.4216568837	-2.1492241563	-2.4373658829	 0.076426
H	-0.6614891349	-4.2128074179	-3.1550064853	 0.101973
H	-0.1802933693	-5.5940318866	-2.1582613757	 0.103628
H	-0.6567794834	-4.0659323966	-1.3912294725	 0.126857
H	 3.0837522573	-4.2764259024	-3.5748244847	 0.108044
H	 2.0348456001	-5.6976968042	-3.4910201483	 0.111654
H	 1.5401077757	-4.2932811511	-4.4450112383	 0.10805
H	 1.6045236544	-4.0412496301	-0.1164611691	 0.126829
H	 2.0399382433	-5.5696098735	-0.907037266	 0.10364
H	 3.1183320384	-4.1709823397	-1.0242237511	 0.101972
