23
gdb 120149	2.89403	0.96625	0.86404	0.8973	86.91	-0.2485	0.0836	0.3322	1486.4677	0.205328	-388.246889	-388.237234	-388.236289	-388.281765	35.986	
C	-0.5952361605	 1.4702594195	-0.133942615	-0.223558
O	-0.51763096	 0.0718735167	-0.2513860268	-0.231851
C	 0.4585965766	-0.3462071052	-1.1876213068	-0.098154
C	 0.4657421779	-1.8551116705	-1.1937823663	 0.001885
C	-0.3679457161	-2.7416194981	-2.073014736	-0.059851
C	-0.4445470068	-2.2135432806	-3.5125891331	-0.268038
C	 1.1130066309	-2.3542807777	-3.6320616049	 0.047255
C	 1.9749366776	-1.2090077993	-4.1532986231	-0.414198
C	 1.1685010124	-2.7796397061	-2.1547186478	-0.116888
H	 0.359153956	 1.9089603863	 0.2007428152	 0.100109
H	-0.8717054914	 1.9488989945	-1.0876867852	 0.099796
H	-1.3652119871	 1.6960799235	 0.6081967505	 0.124618
H	 0.2306203193	 0.0738575428	-2.1782354704	 0.086452
H	 1.4516164609	 0.039692513	-0.8962567777	 0.08226
H	 0.5226352753	-2.2361809354	-0.1752590067	 0.093178
H	-1.0401488444	-3.4802770554	-1.65334883	 0.082998
H	-0.9786509452	-2.8815434256	-4.1914360235	 0.100495
H	-0.8595127286	-1.2073032511	-3.6334555013	 0.096994
H	 1.3206025581	-3.2414816405	-4.2402541805	 0.076162
H	 1.8156949187	-0.2789791787	-3.6013717002	 0.117498
H	 3.0390726471	-1.4595833572	-4.0762744052	 0.11344
H	 1.758837181	-1.0094272164	-5.2091780648	 0.111774
H	 1.8459085384	-3.5369888685	-1.7744348404	 0.077621
