18
gdb 34142	2.77596	1.66113	1.34144	1.2805	82.11	-0.2377	0.0368	0.2745	1007.614	0.149296	-364.722737	-364.715528	-364.714584	-364.754198	29.36	
C	-0.0109602556	-1.2262631349	 0.045574714	-0.347637
C	-0.0254762056	-0.022765716	 0.0458180602	 0.011777
C	-0.0340263437	 1.4154786726	 0.031267786	 0.245544
C	-0.6439659746	 2.4184174121	 1.0276230852	-0.215886
N	-0.0354532439	 3.3647893248	-0.0053778186	-0.184331
C	 1.1756840001	 2.405138615	-0.0412198208	-0.008323
C	 1.7476118428	 2.455479584	-1.4486141708	-0.243974
C	 0.4153371084	 2.4394796614	-2.2480715412	-0.243974
C	-0.5565273161	 2.3843288027	-1.0806671317	-0.008323
H	-0.0003386921	-2.2882200407	 0.0490714744	 0.182338
H	-1.7341513045	 2.4751981304	 1.0900053103	 0.104195
H	-0.1872615608	 2.4937799689	 2.0182595701	 0.104194
H	 1.850289954	 2.4847743546	 0.8131914525	 0.077582
H	 2.3298980045	 3.3662764071	-1.6111679181	 0.113347
H	 2.3894353972	 1.5957270451	-1.6595372085	 0.111271
H	 0.2688007569	 3.341527847	-2.8479620094	 0.113347
H	 0.3147434973	 1.5708155718	-2.9045041559	 0.111271
H	-1.6290827243	 2.4429777541	-1.2746752676	 0.077582
