21
gdb 86910	4.25072	0.82492	0.77206	2.1222	79.46	-0.2381	0.076	0.314	1537.3725	0.181382	-424.183104	-424.173983	-424.173039	-424.217719	34.687	
O	 0.3908447139	-0.0772076516	-0.9097704546	-0.430513
C	-0.2660341888	-0.5520412512	 0.2355195592	 0.173145
C	 0.0905807695	 0.0167956396	 1.6378961221	-0.285685
C	-1.4017444078	-0.111573682	 2.0186016992	 0.129651
C	-1.7494700164	-0.1734013089	 0.5012940895	-0.2923
O	-1.5882829064	-1.3306181613	 2.7164168131	-0.26431
C	-2.9040061873	-1.569928485	 3.1113968502	 0.151091
C	-3.8055134727	-2.4446696419	 2.274293504	-0.284828
C	-3.2162530755	-2.954045154	 3.5759462449	-0.295499
H	 0.2996012609	 0.8814223891	-0.9303429361	 0.274925
H	-0.1405555244	-1.6372719769	 0.219558903	 0.102841
H	 0.7995095084	-0.5313885656	 2.2610548693	 0.113379
H	 0.396246339	 1.0665723085	 1.5733419534	 0.091093
H	-1.8484553925	 0.7138606043	 2.5882152201	 0.064897
H	-1.9704285412	 0.8283920505	 0.1145606166	 0.088803
H	-2.5350438018	-0.858553335	 0.1808440407	 0.110381
H	-3.3629982821	-0.7347836154	 3.6424632992	 0.081873
H	-4.8646208053	-2.2143243207	 2.2303007647	 0.111368
H	-3.3884990556	-2.851155088	 1.3603844188	 0.119529
H	-2.4124641462	-3.6776890888	 3.5019312144	 0.125854
H	-3.8639293676	-3.0794709658	 4.4361161883	 0.114304
