19
gdb 96402	2.04781	1.74878	1.22186	0.3006	77.	-0.2394	0.0349	0.2743	1099.7076	0.158633	-422.98882	-422.980122	-422.979178	-423.021805	33.407	
C	-0.0550351442	 1.5173287115	-0.0842105632	-0.418001
C	 0.0440637147	 0.0040727126	-0.006177623	 0.124309
O	 0.6547190455	-0.4578539559	-1.2013907311	-0.259646
C	 0.7244318084	-1.8750973597	-1.2448551378	-0.079324
C	 1.495735865	-2.4061993596	-0.0441490649	-0.087299
O	 0.9030628455	-1.9443863606	 1.1658414877	-0.256573
C	 0.8276232722	-0.5190654989	 1.2219221604	-0.088617
C	 2.154767381	 0.0926765172	 1.361896622	 0.357824
C	 3.2402763627	 0.5925140456	 1.4917222454	-0.484493
H	 0.9395747884	 1.9617902853	-0.1657657215	 0.141164
H	-0.6395414004	 1.8031359097	-0.9623930068	 0.126836
H	-0.5466438316	 1.9186536526	 0.8073157697	 0.116329
H	-0.9638491897	-0.4378469687	 0.0774721834	 0.072134
H	-0.2912041407	-2.3038520439	-1.2523377501	 0.092859
H	 1.2240582138	-2.1397900755	-2.1816931291	 0.108701
H	 1.4612388779	-3.4987042483	-0.0032387491	 0.109084
H	 2.5453724044	-2.0848036682	-0.0996470633	 0.11032
H	 0.2413717883	-0.3040885684	 2.1230598496	 0.113469
H	 4.1992332688	 1.0340600534	 1.6089079217	 0.200923
