14
gdb 128614	2.76668	1.55433	1.00158	3.5366	71.84	-0.2342	-0.0754	0.1587	1102.8042	0.099685	-469.934569	-469.926672	-469.925728	-469.967375	28.846	
C	-0.0042153386	 1.3761601579	 0.0993743056	-0.256897
O	 0.0582052657	-0.0399921581	 0.0281980783	-0.231697
C	 0.610296318	-0.5800468881	-1.0706685528	 0.244518
C	 1.1165244504	 0.0953720148	-2.1242098107	-0.028971
O	 1.661340107	-0.513865291	-3.2055937524	-0.240106
N	 1.7072502395	-1.950532924	-3.2421777708	 0.048581
N	 1.2522873263	-2.5821746029	-2.2943662676	-0.167969
C	 0.6581821561	-2.0312111092	-1.1108385657	 0.330865
N	 0.2188759316	-2.7912792544	-0.1899440354	-0.494632
H	 0.9991338299	 1.8204359576	 0.0712028779	 0.131384
H	-0.6063532567	 1.7894416227	-0.7200847238	 0.131385
H	-0.478480405	 1.6092459874	 1.0525035887	 0.153471
H	 1.1443776536	 1.1720269384	-2.2229941177	 0.144757
H	 0.3706210321	-3.7659409412	-0.4595134236	 0.23531
