19
gdb 43046	2.36083	2.18205	1.60734	3.1158	77.68	-0.2272	-0.0025	0.2247	914.8886	0.163304	-385.912815	-385.906287	-385.905343	-385.943502	27.48	
O	 0.0149093538	 0.0518338723	 0.1470688189	-0.355843
C	-0.0392829388	 1.2502985181	 0.0652570284	 0.449526
C	-1.2458959761	 2.1701163735	 0.0119665776	-0.147714
C	-0.8598144618	 3.1236363894	 1.1939444253	-0.252148
C	 0.2814582237	 3.5478522509	 0.239388321	-0.037566
C	-0.6942056895	 3.3016125817	-0.9496453807	 0.000502
C	 0.1148552809	 2.85248318	-2.174503201	-0.253813
C	 1.4498390467	 2.3448241947	-1.5488062346	-0.220706
C	 1.1162360808	 2.2670846109	-0.0391716894	-0.132667
H	-2.2276179411	 1.7115956964	-0.090926521	 0.078761
H	-1.5997431225	 3.9146096741	 1.3362749369	 0.10707
H	-0.6099629625	 2.6690058363	 2.1568224219	 0.106257
H	 0.8299482945	 4.4822723932	 0.360892625	 0.068184
H	-1.4356712971	 4.0840993703	-1.1187576281	 0.075056
H	-0.4008898578	 2.0681373678	-2.7377777138	 0.112353
H	 0.2824785973	 3.6849324693	-2.8638919457	 0.102835
H	 1.7717540891	 1.3785135804	-1.9446729379	 0.118338
H	 2.260952796	 3.0606004188	-1.7183125345	 0.101555
H	 1.9639110843	 2.0532992918	 0.6125902617	 0.080022
