17
gdb 40534	4.51843	1.2173	1.11463	1.5651	73.9	-0.226	0.0326	0.2586	1117.2392	0.137588	-417.97316	-417.965905	-417.964961	-418.005335	27.979	
C	-0.17778248	 1.1455336938	 0.3657357302	-0.229506
C	 1.1136545531	 0.4601179048	 0.0681377787	-0.212046
N	-0.1078253231	 0.0517917753	-0.6054254334	-0.142474
C	-0.6581574488	-1.1757680981	-0.2987219878	 0.449512
N	-0.0355763471	-2.2606292582	-0.0290629504	-0.336205
C	-1.0572888249	-3.261474041	 0.1630101869	-0.013702
C	-2.0070871676	-3.0315485229	 1.3244007606	-0.319772
C	-2.3763196204	-2.5433964949	-0.0472033509	 0.061916
O	-2.021609658	-1.2060290107	-0.365763807	-0.246751
H	-0.6504339218	 0.9375283106	 1.3218110872	 0.131931
H	-0.3969657153	 2.1212734146	-0.0556973631	 0.131549
H	 1.8492435278	 0.9409025512	-0.5687370731	 0.128749
H	 1.5118107508	-0.2226591047	 0.8123784441	 0.145531
H	-0.832720963	-4.2665834857	-0.1730731408	 0.101183
H	-2.5632911305	-3.8898587829	 1.6860655826	 0.119476
H	-1.7229949495	-2.3098772477	 2.0836641445	 0.117856
H	-3.2477070016	-2.8879355737	-0.5882634683	 0.112755
