22
gdb 13138	3.80224	1.11215	0.94559	1.6664	78.64	-0.2393	0.0859	0.3252	1329.7215	0.199475	-350.198107	-350.188641	-350.187697	-350.233129	33.874	
C	-0.2437297466	 1.5051279394	 0.0225834852	-0.38329
C	-0.0357564876	-0.0105044644	-0.0221357031	-0.163305
C	 0.7901248031	-0.4683668614	-1.2312751711	-0.184592
C	 0.9448287764	-1.9789403749	-1.278914202	 0.142635
O	-0.3247392316	-2.6582681194	-1.4558437283	-0.294552
C	 0.1692781456	-3.3999685687	-2.5871976218	-0.07321
C	 1.5349122397	-2.6793233275	-2.5392191448	-0.055027
C	 1.9092977169	-1.838172647	-3.7529853258	-0.407196
H	 0.7128574204	 2.0377355067	 0.0746297428	 0.109891
H	-0.7689747912	 1.8592166536	-0.8715575389	 0.113578
H	-0.836308604	 1.8005243242	 0.8941490828	 0.111335
H	 0.4596715115	-0.3421582535	 0.900092958	 0.091227
H	-1.004971021	-0.5207943532	-0.0507849955	 0.119651
H	 0.3099312573	-0.1185816139	-2.1528230156	 0.094447
H	 1.789140791	-0.0113898779	-1.197428745	 0.089825
H	 1.425021151	-2.3201868222	-0.3487218724	 0.065043
H	 0.193060113	-4.4800449737	-2.3924089758	 0.095353
H	-0.4295670405	-3.2183629317	-3.4898483788	 0.095256
H	 2.3629019475	-3.3477379024	-2.2881491206	 0.076028
H	 1.0873694933	-1.1874154216	-4.0665309935	 0.122803
H	 2.7813282501	-1.2069946255	-3.5522963454	 0.118309
H	 2.1589437356	-2.4851694151	-4.6010260804	 0.115792
