21
gdb 73668	2.15182	1.9328	1.44921	1.4036	82.47	-0.2369	0.0233	0.2603	1026.9372	0.184457	-387.117128	-387.109137	-387.108193	-387.14956	31.881	
C	-0.1118540843	 1.5472169214	-0.0069772662	-0.459445
C	-0.0280249135	 0.0152069178	-0.0143128142	 0.252809
C	-1.414872417	-0.6605532627	 0.1138016381	-0.259371
C	-1.082037506	-1.9620915045	 0.8406553778	-0.085443
O	-0.0530736753	-1.6172364656	 1.7620652919	-0.269349
C	 0.7618186814	-0.5878442105	 1.2004360525	 0.081618
C	 2.0911073201	-1.1465243076	 0.6314947219	-0.279337
C	 1.8845886033	-1.1209232757	-0.8614923645	-0.079052
C	 0.7583366914	-0.498859083	-1.2035396666	-0.110613
H	 0.8852435581	 1.998808904	-0.0325552097	 0.117074
H	-0.6622280195	 1.9147697193	-0.8802201706	 0.113688
H	-0.6282691426	 1.9073055704	 0.8896528082	 0.115576
H	-2.078799857	-0.043817708	 0.7293615076	 0.099152
H	-1.8990124617	-0.820121531	-0.8540019719	 0.096716
H	-1.9179204013	-2.3756054837	 1.4122774496	 0.103253
H	-0.7346637596	-2.7306161413	 0.1330684374	 0.092209
H	 0.9383699284	 0.1436302566	 1.9956386273	 0.071113
H	 2.9525810312	-0.5321056711	 0.9260109803	 0.102836
H	 2.2721582397	-2.1506681766	 1.0306478092	 0.116188
H	 2.5975632255	-1.5476226576	-1.5594492838	 0.092392
H	 0.4111526788	-0.3432547505	-2.2206086541	 0.087984
