19
gdb 128205	2.53632	1.33752	0.88781	3.1285	81.22	-0.1809	0.0508	0.2317	1312.6063	0.160612	-415.400907	-415.391281	-415.390337	-415.435363	34.99	
C	 0.0622980782	 1.4159773941	 0.0526482645	-0.32192
N	 0.0289769992	-0.0381510434	 0.0763629262	-0.401722
C	-1.2245158384	-0.6389532547	 0.0360334038	 0.461688
C	-2.5007158056	-0.0992066972	 0.0633367443	-0.403869
C	-3.3523484434	-1.2321663059	 0.0622191759	 0.383459
N	-4.7468627286	-1.2320778672	 0.1576748402	-0.592245
N	-2.6781567023	-2.3730141423	 0.0226869662	-0.361052
N	-1.359154448	-1.9889417482	 0.0359590137	-0.034994
C	-0.3177718232	-2.982006551	-0.0009828514	-0.336911
H	 1.1023997603	 1.7480727104	 0.0914116803	 0.124142
H	-0.4150314435	 1.8535034764	-0.837864401	 0.115446
H	-0.451107747	 1.8044357595	 0.9371733805	 0.142428
H	 0.6866355985	-0.4503864024	-0.5720633525	 0.237627
H	-2.7753909241	 0.9414722698	 0.095298309	 0.088514
H	-5.181191945	-0.5178632253	-0.4119056045	 0.239572
H	-5.125539144	-2.1416887959	-0.0759962533	 0.244562
H	 0.0185819705	-3.2019421074	-1.0237731142	 0.121995
H	 0.5380481014	-2.6402041479	 0.5888449578	 0.136942
H	-0.7122059651	-3.8997534113	 0.4368095843	 0.156337
