17
gdb 71268	2.56667	2.13905	1.47328	3.5527	72.15	-0.2263	0.0201	0.2464	912.9995	0.137572	-417.968081	-417.960992	-417.960048	-417.999207	28.799	
C	-0.0477449463	 1.51564485	 0.0105155021	-0.501771
C	-0.0839139575	 0.0144948985	 0.0650702206	 0.184557
N	 0.343193248	-0.7301946614	-1.2053469873	-0.350282
C	-0.8136914277	-1.6203537855	-1.0129522119	-0.060502
C	-0.797594506	-2.1107511777	 0.4198186647	 0.090858
O	 0.3932017585	-1.9725808126	 1.1797209416	-0.246183
C	 0.7701244672	-0.6519575604	 1.1283186126	 0.471518
N	 1.6843582949	-0.1167362733	 1.8087196843	-0.564572
C	-1.4215381743	-0.7902980498	 0.1127875043	-0.197029
H	 0.9812203817	 1.8565894455	-0.1332782676	 0.153165
H	-0.6719324876	 1.8942784556	-0.8051745721	 0.112782
H	-0.4094884278	 1.9419233327	 0.9504405518	 0.138518
H	 0.1372785689	-0.1094250849	-1.9860482694	 0.223108
H	-1.2587927807	-2.1834035337	-1.8254293634	 0.101529
H	-1.3759803624	-2.9799000299	 0.7021991614	 0.117763
H	 2.1329873048	-0.8010605041	 2.4201928444	 0.225493
H	-2.4168853238	-0.4497082589	 0.3708243439	 0.101049
