23
gdb 107466	2.13748	1.50473	1.23606	1.7254	84.89	-0.2258	0.0727	0.2985	1190.1396	0.20346	-388.266674	-388.256827	-388.255883	-388.300774	38.022	
C	-0.4526708247	 1.5236975564	-0.0773665686	-0.373245
C	 0.017037561	 0.0692245874	 0.0725166151	-0.299257
C	 0.7470343419	-0.4456029652	-1.1389920912	 0.255413
C	 0.020760655	-0.9840409425	-2.3639685841	-0.362952
C	 1.0196160395	-1.8391013055	-1.6507205454	 0.038274
O	 2.3433244362	-1.5247402805	-2.0789095296	-0.340257
C	 2.2274778592	-0.1734394137	-1.5065424601	 0.369617
C	 2.5507978411	 0.9030835169	-2.5321067185	-0.436555
C	 3.1402562789	-0.0863979163	-0.2890553826	-0.429405
H	 0.3947427333	 2.2027103693	-0.2199005945	 0.117531
H	-1.1137311946	 1.6343089315	-0.9429449934	 0.120291
H	-0.9981673072	 1.8555767639	 0.8114899201	 0.111329
H	 0.6533343483	-0.0202151119	 0.961459316	 0.100192
H	-0.8519806196	-0.5741963673	 0.2584631351	 0.097477
H	-1.023141809	-1.2245259451	-2.1813574595	 0.107966
H	 0.2387448835	-0.6378131451	-3.3697618142	 0.111351
H	 0.8371760335	-2.8254939135	-1.2383335648	 0.098006
H	 1.8805144837	 0.857102971	-3.3928702976	 0.119216
H	 2.4686504391	 1.8983180227	-2.0825799334	 0.11588
H	 3.5766655579	 0.7790699117	-2.8946013142	 0.123617
H	 4.1834192314	-0.1870877096	-0.60389281	 0.121979
H	 3.0290215544	 0.8751391868	 0.2237135601	 0.112228
H	 2.9199766473	-0.8880588114	 0.4207612652	 0.121304
