19
gdb 72691	2.27768	1.50017	1.44031	2.1741	76.65	-0.2372	-0.027	0.2102	1048.8248	0.158177	-423.015644	-423.007033	-423.006089	-423.049205	32.768	
O	-0.1634643707	 1.3630935065	-0.1852773967	-0.460629
C	-0.0800796121	-0.0100653558	-0.0211183859	 0.382165
C	 0.5739549348	-0.867650832	-1.1194509395	-0.288677
C	-0.5638860302	-1.9226500521	-0.9988164181	-0.291245
C	-1.3514498616	-1.045057816	 0.0050217831	 0.192158
C	-1.048080109	-1.2994889373	 1.4964856579	-0.298688
C	 0.227948566	-0.4112955664	 1.4370419555	-0.257362
C	-2.6914296434	-0.5603589423	-0.4057575773	 0.060849
O	-3.1154309141	-0.5857261021	-1.5395476867	-0.271479
H	-0.3464028215	 1.5554949318	-1.1120624429	 0.288058
H	 0.5577927364	-0.3584498606	-2.0891927367	 0.101401
H	 1.5989005284	-1.195964776	-0.9229838959	 0.104975
H	-1.1184352038	-2.0803876314	-1.9246562667	 0.13199
H	-0.2574802274	-2.8902494178	-0.5943896255	 0.10234
H	-1.8169006541	-0.8787843845	 2.1522009388	 0.108303
H	-0.9016083469	-2.347850721	 1.768509616	 0.104466
H	 1.1816263535	-0.928437721	 1.5723413018	 0.103904
H	 0.1999701561	 0.4520638983	 2.104114392	 0.120527
H	-3.2900469004	-0.0965136404	 0.412384737	 0.066945
