20
gdb 14477	3.73859	2.08513	2.0851	0.0087	76.6	-0.2601	0.0837	0.3437	798.1118	0.180443	-311.892406	-311.885988	-311.885044	-311.92227	27.626	
C	-0.0141394458	 1.4804810458	 0.0271166112	-0.481796
C	 0.0154862816	-0.0353787179	 0.0192728422	 0.286794
C	 0.7106860939	-0.7223313278	-1.1875473424	-0.240285
C	 0.4894322003	-2.1660897075	-0.753377595	-0.057197
C	 0.5029178121	-2.1727470127	 0.7649308898	-0.057094
C	 0.7313237361	-0.7330401256	 1.2078864036	-0.240178
C	-0.818453493	-2.1952281515	 0.0173881559	-0.056906
C	-1.3530750493	-0.7684591906	 0.0278177187	-0.240284
H	 0.9989442982	 1.8980256246	 0.0207787845	 0.110763
H	-0.5399473763	 1.8727500734	-0.8506336062	 0.110738
H	-0.5246910646	 1.8636252872	 0.9178662727	 0.11077
H	 0.2243152615	-0.4791593109	-2.1392338039	 0.087974
H	 1.7704316488	-0.4529154666	-1.2634139586	 0.087987
H	 0.8312688452	-3.014250913	-1.3320190034	 0.075601
H	 0.8547546132	-3.0260355409	 1.3298499982	 0.075619
H	 1.7920479695	-0.4637799216	 1.2680879044	 0.087989
H	 0.2613424366	-0.4983870459	 2.1699131065	 0.087968
H	-1.4616379542	-3.0654869654	 0.018924141	 0.075588
H	-1.941948143	-0.5355660674	 0.9224493089	 0.087959
H	-1.9574404708	-0.5285589358	-0.8545857382	 0.087988
