16
gdb 68270	2.49012	1.49969	1.45302	3.5248	69.46	-0.277	0.0125	0.2896	995.6991	0.122459	-437.832886	-437.824731	-437.823787	-437.865257	31.338	
C	 0.0157990406	 1.4606108632	 0.1394473975	-0.518502
C	-0.0074273824	-0.017938146	-0.0585273048	 0.338356
C	 0.712972926	-0.9373392011	-1.0700901191	-0.293186
C	 0.051726811	-1.8359185316	-0.0122294705	-0.01464
O	 0.511541149	-0.8986033505	 1.0414850591	-0.370471
C	-1.261244714	-0.984403657	-0.0816352887	 0.318193
O	-2.0793919843	-0.9743826227	 1.0374620684	-0.480404
C	-2.0838112348	-1.0393426151	-1.2864945564	 0.245779
N	-2.6961647151	-1.073830086	-2.2655101393	-0.337194
H	 1.0340715102	 1.8062727988	 0.3387563957	 0.145022
H	-0.3552418758	 1.962160708	-0.7593532075	 0.14917
H	-0.6243855051	 1.7408768847	 0.9812416513	 0.143571
H	 0.3412978819	-0.9733569469	-2.0953389812	 0.13794
H	 1.799936598	-0.904578164	-1.0060132793	 0.124048
H	 0.1574332162	-2.902298054	 0.1818888119	 0.116597
H	-1.4576081814	-0.9525742098	 1.7826171327	 0.295722
