20
gdb 30812	2.23824	1.36946	0.90484	1.4619	83.87	-0.2154	0.0173	0.2327	1355.1744	0.169898	-403.213773	-403.203951	-403.203007	-403.248871	34.973	
C	-0.0390801157	 1.5535750373	 0.4812582681	-0.370669
C	-0.0359076252	 0.1126499798	-0.0592107736	-0.30031
C	-1.3966063989	-0.4725959095	-0.1991079775	 0.264619
C	-2.1646753581	-0.9094122481	-1.2302927416	 0.157189
C	-1.8699991292	-0.9614378555	-2.6920054144	-0.495781
N	-3.3899805987	-1.3529959724	-0.7255134452	-0.345519
C	-3.3116696287	-1.169058904	 0.5526560992	 0.36779
C	-4.3294716516	-1.4637949481	 1.5949025779	-0.489828
O	-2.1303660144	-0.6366137545	 0.957460546	-0.216196
H	 0.9829406889	 1.9300317489	 0.5855357563	 0.113583
H	-0.5843913764	 2.2221950603	-0.1916627152	 0.121751
H	-0.5204951527	 1.5975181624	 1.4620748496	 0.130771
H	 0.448333303	 0.0820319457	-1.0404112351	 0.11524
H	 0.5688388516	-0.519959175	 0.6041626576	 0.116907
H	-1.9375086357	-1.9881960746	-3.0676438444	 0.136247
H	-2.5936272965	-0.3644855768	-3.2576752274	 0.135955
H	-0.8689482113	-0.5824029574	-2.9131725987	 0.119419
H	-3.9470647041	-2.180378292	 2.3294981207	 0.142233
H	-4.6131069445	-0.5564066364	 2.1385630325	 0.14195
H	-5.2144455018	-1.88306499	 1.115812695	 0.154649
