21
gdb 59276	3.0044	1.31994	1.02609	1.6535	82.77	-0.2436	0.0005	0.2441	1224.7648	0.182228	-387.082291	-387.073529	-387.072584	-387.1159	33.853	
C	 0.0533920984	 1.5560609141	 0.0238023401	-0.399
C	 0.030351969	 0.0218899669	 0.0517133976	 0.045593
C	 0.7600951564	-0.5010376397	 1.2976201612	-0.397388
C	-1.4133989617	-0.5360783305	-0.0225729178	-0.060266
C	-2.1823989582	-0.1494370543	-1.2784695979	-0.091612
C	-2.6582589018	-1.2058129736	-1.9423320264	-0.096112
C	-2.2523731973	-2.4674381753	-1.254675306	-0.005284
O	-0.8158104193	-2.6515447229	-1.1950524826	-0.262206
C	-1.4796112808	-2.0668976114	-0.0696529621	 0.0203
H	 1.081381102	 1.9267138953	 0.092203332	 0.112575
H	-0.3797783579	 1.9605481385	-0.8953241212	 0.113783
H	-0.5043988356	 1.9746824793	 0.8706652212	 0.109573
H	 0.5558610023	-0.3527954461	-0.8348064909	 0.094331
H	 0.8377359671	-1.5919536001	 1.2957693045	 0.123474
H	 1.7766188104	-0.0975977136	 1.3480503411	 0.111318
H	 0.2398287811	-0.1998576975	 2.2154586769	 0.10732
H	-1.9560810898	-0.184654801	 0.8692221199	 0.077686
H	-2.2893965512	 0.8809536099	-1.5967032059	 0.104255
H	-3.2324005525	-1.1790172501	-2.8601254198	 0.101537
H	-2.8282226143	-3.3852736728	-1.3239107412	 0.095309
H	-1.4478096563	-2.6533215451	 0.8444094872	 0.094812
