19
gdb 36087	3.62287	1.18551	1.12414	1.9054	80.39	-0.239	0.055	0.294	1159.6137	0.159394	-385.836798	-385.828839	-385.827895	-385.869392	31.69	
C	-0.014276317	-1.2160011258	-0.1991969472	-0.45991
C	 0.0063332084	-0.0313264865	-0.0003583306	 0.323462
C	 0.02770859	 1.4108289718	 0.2198762468	-0.464539
C	 1.3944431488	 2.03061229	 0.0112913711	 0.464514
C	 2.2384192587	 1.9203067364	-1.2848236827	-0.263873
C	 3.0405124207	 3.0480737235	-0.5616633662	-0.078661
C	 1.6607294914	 3.5598444141	-0.0402028382	-0.280904
C	 3.5235831392	 2.2785892741	 0.6730018022	-0.073773
O	 2.3085807454	 1.5842554207	 1.032591724	-0.311234
H	-0.0301977756	-2.2648265454	-0.3626453328	 0.194459
H	-0.6838924927	 1.8979501775	-0.4578455421	 0.129762
H	-0.3013636331	 1.6383161567	 1.2416889367	 0.140412
H	 2.7316745986	 0.9645402422	-1.4735481851	 0.107564
H	 1.7145650167	 2.2759707548	-2.1737197784	 0.100199
H	 3.7534100725	 3.6912593021	-1.0752287939	 0.073845
H	 1.0832481646	 4.0765251012	-0.8089751561	 0.099711
H	 1.6302263454	 4.1028846091	 0.907938244	 0.098701
H	 4.3201839044	 1.5574232222	 0.4553348524	 0.101249
H	 3.8439283336	 2.9269378513	 1.497214476	 0.099017
