16
gdb 45518	4.4417	1.30981	1.05778	3.0748	71.26	-0.2492	0.0063	0.2555	1083.0376	0.128773	-434.134795	-434.127999	-434.127055	-434.165957	27.081	
O	 0.0634737503	-0.0567842324	-0.1420725468	-0.381524
C	-0.0180746717	 1.139703796	-0.0404754139	 0.437128
N	-1.1748615004	 1.9158971115	-0.0292858465	-0.367008
C	-0.8437778934	 3.3276060308	-0.1398191391	-0.0445
C	-1.384578747	 4.4107561812	 0.8023604381	-0.258546
C	-0.0930944878	 5.2674340375	 1.0110857717	-0.162769
N	 1.0490616081	 4.3222986228	 0.9357731761	-0.31345
C	 0.5944733177	 3.3035716661	 0.3326013971	 0.436912
N	 1.0710970798	 2.0338430503	 0.1159150217	-0.436333
H	-1.9848646859	 1.5142496585	-0.4751456692	 0.258459
H	-0.8968685982	 3.669348662	-1.1860393528	 0.105223
H	-2.2234383851	 4.9802516674	 0.3962018725	 0.103979
H	-1.6893376899	 3.9572455907	 1.7506299232	 0.120438
H	 0.0028655345	 6.0405212903	 0.2363979882	 0.11004
H	-0.0808165106	 5.7784801034	 1.9772910571	 0.117352
H	 1.9530489796	 1.6901904038	 0.4628809726	 0.2746
