20
gdb 92752	3.32711	1.04826	0.88339	4.4898	85.99	-0.1988	-0.0213	0.1775	1369.4905	0.170683	-403.191828	-403.182476	-403.181532	-403.226224	34.622	
C	 0.1868999801	 1.5365767601	 0.036148689	-0.393895
C	-0.0670709031	 0.0279791937	-0.019611084	 0.041422
C	 0.6367135326	-0.6609744433	-1.2284027393	-0.353085
C	 1.8701310585	-1.2906632895	-0.5973920899	 0.173377
C	 1.7182402588	-1.2395283454	 0.7472677829	-0.065763
N	 0.5386646034	-0.6661625994	 1.1394977723	-0.286387
C	 3.012444746	-1.9125517264	-1.2579423282	 0.272257
C	 3.0191120116	-1.8971425614	-2.7810731499	-0.487472
O	 3.9335065601	-2.4199606764	-0.6330911106	-0.348468
H	 1.2615057961	 1.7460159926	 0.0189932561	 0.1319
H	-0.2746440246	 2.0335273249	-0.823223451	 0.123441
H	-0.2371378825	 1.9784705342	 0.9447366287	 0.111878
H	-1.1453613925	-0.1586285395	-0.0295726823	 0.088126
H	-0.0180308256	-1.4195467845	-1.6770167392	 0.110732
H	 0.8622947565	 0.0662225913	-2.0160897568	 0.106182
H	 2.4109734886	-1.6324297442	 1.4799808848	 0.144621
H	 0.4779162664	-0.2287062735	 2.0472607231	 0.242838
H	 2.9908014347	-0.8688766374	-3.1605331055	 0.127165
H	 3.920491133	-2.3929033315	-3.1429280616	 0.133345
H	 2.1346318319	-2.4074321244	-3.1803862887	 0.127787
