17
gdb 69869	2.67705	1.67166	1.19726	4.327	77.67	-0.2281	0.0157	0.2439	1037.4538	0.135988	-380.809372	-380.80148	-380.800536	-380.841495	30.855	
C	-0.0616476576	 1.5363848873	 0.0741170433	-0.519723
C	 0.0765746809	 0.0492758066	 0.033307983	 0.278076
N	-0.8466518851	-0.8853733716	 0.7100077942	-0.374448
C	 0.6152883923	-0.9384262135	 0.9883522928	-0.113008
C	 1.3016566163	-1.7433830013	-0.146745931	-0.104882
C	 0.3450459527	-2.1995530277	-1.1989848367	-0.333727
C	 0.7359606071	-0.7318393687	-1.1676413325	 0.165617
C	 1.4241825463	-0.0809018533	-2.2252153319	 0.196747
N	 1.9811208877	 0.4765603128	-3.0753360996	-0.363254
H	 0.8596800001	 2.0233357304	-0.2601316009	 0.150111
H	-0.8727959237	 1.8747436469	-0.5806326503	 0.141163
H	-0.2787192599	 1.8764718719	 1.0919395678	 0.121478
H	-1.2828939157	-0.3744902662	 1.4767924815	 0.23436
H	 1.0066360562	-0.8057422545	 1.9881650504	 0.106124
H	 2.3281765598	-2.0795358367	-0.0968822687	 0.120479
H	 0.7920849015	-2.7557626329	-2.01583592	 0.135857
H	-0.6698589091	-2.4684240496	-0.9380290615	 0.159028
