14
gdb 24343	3.88265	1.59056	1.13834	2.0908	70.03	-0.2173	-0.0086	0.2087	977.2646	0.10424	-436.71738	-436.710918	-436.709974	-436.748895	24.617	
C	 0.0278722436	 1.4917575043	 0.1309679332	-0.187381
O	 1.2188451404	 2.0481662653	-0.4766559252	-0.23607
C	 2.2727411088	 1.2611412643	-0.7862580279	 0.116234
N	 2.371766307	-0.0096008557	-0.7756341419	-0.360172
C	 1.206272725	-0.6735591344	-0.3989268631	 0.204585
C	 0.9227095068	-2.0047984489	-0.3735145843	-0.096667
O	-0.3621948589	-2.1928326446	 0.0363421554	-0.149723
C	-0.9017902431	-0.962455872	 0.2737321317	-0.125176
C	 0.0143739932	 0.0029958339	 0.0243931691	 0.145512
H	 0.0181079179	 1.8312997932	 1.1750401629	 0.133125
H	-0.8175551993	 1.9644026481	-0.3793348	 0.136626
H	 3.1095584209	 1.8807575676	-1.0977616721	 0.131134
H	 1.4866816176	-2.8899324653	-0.6126334288	 0.146272
H	-1.92478397	-0.960853906	 0.6125839711	 0.141702
