18
gdb 58173	2.1691	1.29659	0.96768	4.6653	73.46	-0.2825	-0.0825	0.2	1266.6534	0.144249	-439.108034	-439.097628	-439.096684	-439.144033	36.409	
C	-0.0602088131	 1.4601788805	 0.4343531073	-0.421201
C	-0.1489436897	-0.0444359765	 0.1945259536	 0.151354
O	 0.1940331428	-0.7776574127	 1.3651456645	-0.432823
C	-1.5340065936	-0.4961188387	-0.3534208099	-0.13362
C	-1.8154754007	 0.0162788775	-1.7705572045	-0.410341
C	-1.564704259	-2.0199262382	-0.3252667012	 0.323909
O	-1.2400757474	-2.7258491023	-1.2455794956	-0.28323
C	-2.0443532223	-2.6201863917	 0.9390756443	 0.238459
N	-2.4705756605	-3.0640192497	 1.9183196379	-0.317738
H	 0.919070641	 1.7016796541	 0.8560328056	 0.138128
H	-0.186122052	 2.031723221	-0.488761882	 0.130501
H	-0.8307390673	 1.7884099416	 1.1431390162	 0.116092
H	 0.6056660858	-0.3438065382	-0.5424813898	 0.112011
H	-0.3636500665	-0.4805245942	 2.0936617902	 0.288648
H	-2.3027357543	-0.1338634286	 0.3427425958	 0.095199
H	-1.0520084754	-0.338863403	-2.4667907794	 0.14618
H	-2.7837880139	-0.3428709459	-2.1292607313	 0.133234
H	-1.8331928539	 1.1080375948	-1.7925393017	 0.125238
