20
gdb 104869	2.08377	1.53172	1.17131	1.237	74.75	-0.2523	0.0149	0.2672	1158.1229	0.171346	-440.300674	-440.291491	-440.290547	-440.334826	33.989	
C	-0.017670107	 1.5464774127	-0.0507010405	-0.392343
C	 0.1153523215	 0.0229005266	 0.0446965047	-0.222693
C	 0.7286032967	-0.5132663118	 1.3539972854	 0.255298
C	-0.1345997896	-0.1743604438	 2.5821598609	-0.103393
O	 0.4446911061	-0.6514122553	 3.7813188868	-0.425948
C	 1.0083596802	-2.0431321088	 1.2714994478	-0.151606
O	 2.4547769497	-2.1522263501	 1.3068644046	-0.215319
C	 2.8973452986	-0.8975001938	 1.5139291512	 0.111628
N	 2.0782134454	 0.0700531113	 1.568602324	-0.311115
H	 0.9421107592	 2.0294776846	 0.1482641224	 0.142023
H	-0.3475157758	 1.835319077	-1.0532800015	 0.111291
H	-0.7494440138	 1.9430203228	 0.659134625	 0.117719
H	-0.8663064201	-0.4507912845	-0.0927912444	 0.095803
H	 0.7443598884	-0.3329722007	-0.7805375171	 0.102217
H	-0.2986732223	 0.9098981526	 2.6260930298	 0.101975
H	-1.111987016	-0.6621199504	 2.4932054871	 0.106169
H	 1.3058967226	-0.2217914647	 3.8519891103	 0.288135
H	 0.6133633679	-2.5875276135	 2.1322501189	 0.133332
H	 0.6582512405	-2.5007075638	 0.3430932452	 0.114724
H	 3.9747815778	-0.8142638664	 1.6144924795	 0.142104
