22
gdb 105533	2.34608	1.43754	1.09116	1.5294	81.62	-0.2322	0.0733	0.3054	1217.2574	0.193451	-404.290609	-404.281212	-404.280268	-404.325721	34.972	
C	 0.313062333	 1.4126332477	 0.0775970986	-0.403882
C	-0.0656579051	-0.0708117952	 0.114653011	-0.226109
C	-1.557985336	-0.4110552728	 0.0187790576	 0.260525
C	-2.52755527	 0.3763476926	 0.9535056213	-0.126027
O	-3.2728125938	 0.87762966	-0.1711681898	-0.276606
C	-2.3838830591	 0.245157674	-1.1144357051	-0.101981
N	-1.6543662288	-1.8697718436	-0.0321906888	-0.099363
C	-1.7658522786	-2.6205244159	 1.2115802764	-0.232536
C	-2.913386118	-2.5400918024	 0.2641315674	-0.239129
H	 1.4006587866	 1.5202766785	 0.1315100828	 0.117515
H	-0.0166978525	 1.8994415436	-0.8453191382	 0.123375
H	-0.1103920003	 1.972387597	 0.9170375027	 0.121057
H	 0.435307595	-0.6018129315	-0.7029255876	 0.111903
H	 0.3173694192	-0.5189028517	 1.0411722343	 0.099021
H	-3.1528343322	-0.2167732495	 1.6319448548	 0.094624
H	-2.0664889151	 1.1845787047	 1.5332243112	 0.096703
H	-1.8555668218	 0.9776893648	-1.7358682565	 0.098277
H	-2.9037222781	-0.4686857634	-1.7633837392	 0.105381
H	-1.1628452368	-3.5217506896	 1.2795288794	 0.118314
H	-1.8562927923	-2.0662956432	 2.1447884796	 0.112906
H	-3.7739462239	-1.9450022863	 0.5609536697	 0.128497
H	-3.1505995013	-3.3813973078	-0.3812117116	 0.117532
