16
gdb 66026	2.52899	1.28817	1.12873	4.087	75.31	-0.2812	-0.012	0.2692	1135.5046	0.122084	-400.702673	-400.693675	-400.692731	-400.736693	32.637	
C	-0.1896669545	 1.5650196929	 0.0183497787	-0.452488
C	-0.0680774124	 0.0378452519	 0.0033611009	 0.042914
C	 1.1926206108	-0.4800379265	-0.7543714922	-0.098187
O	 1.8619263146	-0.8113125552	 0.4818753362	-0.274936
C	 0.6747953677	-0.5801666164	 1.2512727333	-0.030145
C	 0.8965469831	 0.2865806763	 2.4081764741	 0.291946
N	 1.0497794013	 0.9776955681	 3.321550692	-0.324118
C	-1.3241377936	-0.6066961186	-0.3305485164	 0.28106
C	-2.3641860475	-1.1426714198	-0.6060157856	-0.44451
H	 0.7680619849	 2.0250780611	 0.2763042538	 0.142815
H	-0.495711158	 1.9199934807	-0.9695038817	 0.134101
H	-0.9363571834	 1.8895126677	 0.7471622804	 0.147546
H	 1.0163300863	-1.3659332331	-1.3727081653	 0.122181
H	 1.740961637	 0.2756392087	-1.3253121168	 0.12316
H	 0.2171318557	-1.5170448	 1.5907815277	 0.131501
H	-3.2844935819	-1.6138757876	-0.8502742991	 0.20716
