19
gdb 55414	2.61549	1.50421	0.98701	5.3203	77.86	-0.2376	-0.011	0.2267	1196.7777	0.160833	-419.268942	-419.260328	-419.259384	-419.302374	32.149	
C	 1.2949723672	-0.7816712293	 0.1413504241	-0.498983
C	 0.0230286897	 0.0378235094	 0.0054521827	 0.404345
O	 0.0392429405	 1.2529479705	 0.0921990485	-0.349788
N	-1.1404296623	-0.6738299647	-0.2266503466	-0.143125
C	-1.2074863166	-2.1389196556	-0.3277399109	-0.171175
C	-2.5820712985	-2.3951938576	-0.9641300416	-0.232668
C	-3.4285879215	-1.2263167542	-0.447312731	-0.281408
C	-2.4406241684	-0.0831665376	-0.3085192611	 0.38338
N	-2.7634163915	 1.1376006606	-0.2679406956	-0.532558
H	 2.1002698309	-0.1003356511	 0.4132792958	 0.152523
H	 1.1997720681	-1.560968813	 0.9036680206	 0.13989
H	 1.5489668832	-1.2736863668	-0.8035122148	 0.145568
H	-0.3879739272	-2.5311426094	-0.9332148196	 0.121207
H	-1.1402122775	-2.5983061601	 0.667954997	 0.116812
H	-2.4967813286	-2.3473532594	-2.0543538283	 0.120289
H	-2.9779325182	-3.3775069831	-0.6999930908	 0.112701
H	-4.2570076848	-0.9421994105	-1.0962686545	 0.1361
H	-3.8463800271	-1.4515677324	 0.5417996273	 0.126699
H	-1.9330010574	 1.7185146044	-0.1483849013	 0.250192
