16
gdb 125203	3.22471	1.56383	1.07709	2.7993	72.58	-0.2182	-0.0069	0.2114	1082.2251	0.125469	-437.876877	-437.869263	-437.868319	-437.909391	28.073	
C	 0.0551905919	 1.5159773992	 0.0351889502	-0.502464
C	-0.0838816134	 0.0381709961	 0.0404655879	 0.274215
C	-1.1108701571	-0.8411900298	-0.0497863131	 0.176698
O	-2.4623962179	-0.8478036887	-0.1713235307	-0.292405
C	-2.8245331514	-2.2361105871	-0.4346494324	-0.101155
C	-1.6146479448	-3.1485113319	-0.0423152788	-0.368464
C	-0.5271846735	-2.1188096012	 0.0221723321	 0.310182
N	 0.7693223615	-2.0775358548	 0.1501647945	-0.241482
O	 1.0615401706	-0.7047917919	 0.1648523194	-0.22911
H	 0.7152515446	 1.8486925859	-0.7729179108	 0.147939
H	-0.924773528	 1.9771269995	-0.1052288165	 0.14522
H	 0.4773571746	 1.880748887	 0.9779244308	 0.147841
H	-3.7300580268	-2.4498487534	 0.1356699698	 0.127793
H	-3.0477584272	-2.327137862	-1.5034010458	 0.12396
H	-1.7662104022	-3.6291480177	 0.929663975	 0.140795
H	-1.4443484909	-3.9339751591	-0.7817684814	 0.140436
