12
gdb 21698	3.5024	2.37669	1.41662	2.7822	63.16	-0.2361	-0.0714	0.1648	790.4185	0.084604	-410.776246	-410.769636	-410.768692	-410.806851	25.062	
N	 0.0209843707	 1.3075411822	-0.0267029177	-0.547746
C	 0.0071337015	-0.0443643949	 0.0230869517	 0.44715
N	-1.1263153829	-0.6792117969	 0.0834785497	-0.204734
O	-1.086961816	-2.0730782106	 0.189950887	-0.213692
N	 0.0636956314	-2.784379214	 0.2238371047	-0.046718
C	 1.1853964128	-2.1515149687	 0.1426768354	-0.012142
C	 1.3141180219	-0.7175457899	 0.0197773577	 0.19957
N	 2.3804487957	-0.0120451391	-0.0933444042	-0.540308
H	 0.9051428606	 1.729655241	-0.2639737031	 0.284919
H	-0.8367091687	 1.8006188916	-0.2077991309	 0.270617
H	 2.0705118031	-2.781906349	 0.1713520648	 0.136465
H	 3.2167773398	-0.5995105716	-0.0906606851	 0.226618
