20
gdb 113051	5.57239	0.66086	0.62523	4.1101	80.21	-0.2726	0.0353	0.3079	1748.9082	0.170705	-403.151558	-403.141997	-403.141053	-403.186934	34.491	
O	 0.0683535843	 1.3108457995	-0.2015736816	-0.421517
C	 0.0322077446	-0.069916079	 0.1279728866	-0.097625
C	-1.4079527407	-0.5277462613	 0.0431409148	 0.054663
C	-2.087178397	-0.5789063662	-1.3534578504	-0.25385
C	-2.7658232828	-1.9084779556	-0.9267877368	 0.040447
C	-2.8784993879	-3.0230040598	-1.9729769441	-0.364542
C	-3.3981151646	-4.2694384557	-1.4114962515	 0.260813
N	-3.8083622169	-5.2438091493	-0.9445505332	-0.309318
C	-1.7106806202	-2.0427741862	 0.2054227774	-0.261871
H	 0.9816973181	 1.6086880649	-0.159645699	 0.288485
H	 0.6480893864	-0.6631562941	-0.5692785242	 0.077867
H	 0.4211377928	-0.2523603203	 1.1435581053	 0.088545
H	-2.0100980394	 0.0669671043	 0.7373458865	 0.085783
H	-2.730925211	 0.2530892605	-1.6441806524	 0.110238
H	-1.3472244056	-0.7407404483	-2.1457960102	 0.097572
H	-3.754963064	-1.716064921	-0.5006971283	 0.094639
H	-3.5352647924	-2.7100827135	-2.7937281696	 0.151245
H	-1.8952269348	-3.2246393504	-2.4150867478	 0.144321
H	-0.8603314229	-2.6566840191	-0.1140135315	 0.099997
H	-2.0502803062	-2.4016649396	 1.1787367199	 0.114106
