17
gdb 67969	2.29701	1.87471	1.32469	4.5428	67.43	-0.267	0.007	0.274	995.5203	0.136584	-459.001897	-458.994287	-458.993343	-459.033896	29.184	
C	-0.2027401728	 1.5579693959	 0.1322896557	-0.471227
C	 0.0375765789	 0.0686839564	 0.0810610498	 0.415113
C	-1.1717048524	-0.8243310007	-0.1982567949	-0.128279
O	-0.8357980904	-2.1076262609	 0.3082488951	-0.248171
C	-0.0969797341	-1.9001507836	 1.5057248831	-0.100335
C	 0.7832818811	-0.6791885949	 1.2193861505	-0.301908
C	 1.8412340023	-0.9185794856	 0.1401802182	 0.458813
O	 2.8983654682	-1.4541354218	 0.0518989973	-0.329165
O	 1.1438028956	-0.2674768434	-0.8427537188	-0.280877
H	 0.7244378841	 2.092858812	 0.3534712412	 0.137686
H	-0.5819896644	 1.9207389122	-0.8283712744	 0.140836
H	-0.9391482867	 1.8013185143	 0.9040998367	 0.129295
H	-2.0564830159	-0.4138965946	 0.3161900726	 0.093943
H	-1.3898035091	-0.9213261015	-1.2642122093	 0.132214
H	-0.7671986572	-1.6907481519	 2.3549342752	 0.100371
H	 0.4687742955	-2.8101938155	 1.7169522079	 0.139009
H	 1.1135079375	-0.1251641463	 2.0973544941	 0.11268
