12
gdb 132461	3.29444	1.43473	0.99981	2.2489	62.96	-0.2188	-0.0612	0.1576	1045.8985	0.077406	-513.960117	-513.952852	-513.951908	-513.991857	27.372	
N	 0.0160146058	 1.3291872945	-0.0131698486	-0.545718
C	-0.0527156193	-0.0279098995	 0.0128443759	 0.263881
N	-1.1778836147	-0.6692079123	 0.0666347121	-0.318639
C	-1.1367410047	-2.045721144	 0.1440856489	-0.245487
C	 0.0339419434	-2.6973539372	 0.1528675649	 0.33949
F	 0.1963500203	-3.9989757505	 0.2268329948	-0.03767
O	 1.221113014	-2.0668189414	 0.0806841456	-0.208324
C	 1.2754263191	-0.6933458437	-0.001361526	 0.404511
O	 2.3357805641	-0.135118465	-0.0872813509	-0.337674
H	 0.9027195954	 1.7418659076	-0.2515524725	 0.280839
H	-0.830175365	 1.8425669088	-0.1935931854	 0.270288
H	-2.0729848584	-2.5838933073	 0.197171741	 0.134504
