23
gdb 121370	2.79107	1.07424	0.8616	1.3846	82.29	-0.2426	0.0774	0.32	1436.92	0.205513	-425.424215	-425.414265	-425.413321	-425.459588	36.198	
C	 0.3847850795	 1.4530259171	-0.6518898444	-0.225211
O	 0.7557213591	 0.1012086667	-0.5357264168	-0.230489
C	-0.2324379885	-0.7833659487	-1.0164168471	-0.079667
C	 0.2570100849	-2.2207570812	-0.8346361398	 0.101695
O	-0.887934819	-3.0742283089	-0.9525980071	-0.278075
C	-0.7238613387	-3.9895959543	-2.0343532835	-0.069894
C	 0.3733149341	-3.3995608197	-2.9170211825	-0.232773
C	 1.2866282252	-2.7364523267	-1.8720312397	 0.006464
C	 2.2811290805	-1.7187667995	-2.4290466719	-0.405412
H	 0.2176880458	 1.7437534735	-1.7014680484	 0.102292
H	-0.5350337598	 1.6730927224	-0.0871053433	 0.10515
H	 1.2013137296	 2.0549556378	-0.245269249	 0.125528
H	-1.1706368249	-0.6700641712	-0.4505293368	 0.09918
H	-0.4649066415	-0.5772988926	-2.0754475566	 0.079482
H	 0.6588771876	-2.3005477653	 0.183759974	 0.081479
H	-0.427555909	-4.9781600969	-1.6500223536	 0.08961
H	-1.6887361014	-4.1005177855	-2.5400166673	 0.102134
H	 0.8880672397	-4.151950688	-3.520477921	 0.099222
H	-0.0398418625	-2.6463442081	-3.5985780995	 0.101375
H	 1.8557633685	-3.5350274797	-1.3780527161	 0.077896
H	 1.7758539785	-0.9183408171	-2.9781634639	 0.114613
H	 2.8647855617	-1.2516042823	-1.6323713379	 0.129385
H	 2.9736747407	-2.210000242	-3.120599198	 0.106016
