19
gdb 120588	3.26912	0.90534	0.86968	0.9044	80.46	-0.229	0.0298	0.2588	1444.7815	0.155042	-422.961361	-422.951144	-422.9502	-422.99677	37.236	
C	-0.1738863866	 1.3652280534	-0.0534893341	-0.386373
C	-0.3625029742	-0.1028128693	-0.3901288323	-0.039836
O	-1.2499293926	-0.6664611237	 0.5748214658	-0.244283
C	-1.4774319041	-2.0136227525	 0.3914775775	 0.090769
C	-2.789984161	-2.5437948247	 0.8712251534	-0.383182
C	-2.5236642324	-2.4588091658	-0.6326502295	 0.155779
O	-3.1246718087	-1.4099419495	-1.3385570188	-0.437214
C	-2.30498787	-3.6725081145	-1.3716618458	 0.309667
C	-2.138763437	-4.6886006743	-1.9950036333	-0.481634
H	 0.5072753343	 1.8337532886	-0.7700759431	 0.114957
H	-1.1320951233	 1.8908644395	-0.0901000165	 0.130383
H	 0.2441095419	 1.4812607702	 0.9506242825	 0.124446
H	-0.7864607718	-0.2267799751	-1.3946324729	 0.116727
H	 0.6012141096	-0.6364467054	-0.3624716207	 0.086455
H	-0.5975825376	-2.653738975	 0.4733451487	 0.098605
H	-2.8317652169	-3.5183469781	 1.3426579289	 0.125439
H	-3.4797081455	-1.796400653	 1.2471986964	 0.133158
H	-4.0237853095	-1.6789638441	-1.5575820654	 0.289716
H	-1.9820800846	-5.5804032565	-2.5496677107	 0.196423
