15
gdb 94499	4.39888	0.76357	0.69156	5.8663	81.28	-0.2612	-0.0487	0.2125	1556.2912	0.112827	-416.758985	-416.750386	-416.749442	-416.793158	30.693	
O	 0.1873279146	 1.4111066722	-0.1188936583	-0.414882
C	 0.0890348548	 0.0262185198	 0.0065789498	 0.158954
C	 0.1931399908	-0.5433505409	 1.4455602401	-0.215421
N	-1.2868762046	-0.5946683785	 1.5034583238	-0.30332
C	-1.3788236398	-0.5671766809	 0.0228269291	-0.290949
C	-2.4509510636	 0.2347123875	-0.5295444197	 0.127891
C	-3.330088849	 0.9202512439	-0.9970365343	 0.10309
C	-4.327416395	 1.6905697112	-1.5211866355	 0.203402
N	-5.1775322532	 2.3455852358	-1.9663261159	-0.335292
H	-0.4014676994	 1.820243607	 0.5268101561	 0.297246
H	 0.7500483461	-0.4039082099	-0.7457641911	 0.110232
H	 0.692300566	-1.5219123164	 1.469542977	 0.103172
H	 0.6545626517	 0.1138245859	 2.1892228156	 0.116899
H	-1.700293003	-1.4050918298	 1.9512984227	 0.23157
H	-1.3853203863	-1.5611021268	-0.4499713395	 0.107406
