21
gdb 86139	2.38094	1.42383	0.99604	2.777	77.92	-0.2487	-0.0277	0.221	1240.9965	0.18194	-424.265571	-424.256234	-424.255289	-424.299468	35.704	
C	-0.1616177999	 1.5326160283	-0.1050785428	-0.411242
C	 0.0792178122	 0.0261228992	-0.0266675944	 0.014038
C	 0.8891464846	-0.5475782886	-1.2149612109	-0.252494
C	 1.2427114037	-1.9598679259	-0.7383957876	 0.062661
O	 2.2829609118	-2.6022868518	-1.4191771594	-0.445555
C	 1.5773469141	-1.7224729277	 0.7324671446	 0.371794
O	 2.4086764147	-2.369181392	 1.324573318	-0.342846
C	 0.8277175252	-0.4898009072	 1.242816139	-0.121701
C	 1.8293428398	 0.4801025213	 1.8930241182	-0.394089
H	 0.7767176738	 2.0951854731	-0.1300073169	 0.121289
H	-0.7183548986	 1.781634878	-1.0144780323	 0.117462
H	-0.7457441974	 1.8914979258	 0.7488449476	 0.116045
H	-0.9024671826	-0.4662491299	-0.0403277189	 0.080322
H	 0.3292539625	-0.5353802243	-2.1531551151	 0.108506
H	 1.8155775786	 0.0196953089	-1.3694377271	 0.110024
H	 0.3200994705	-2.5726721898	-0.7605712995	 0.08849
H	 2.8307067723	-3.0094447	-0.7308288988	 0.290334
H	 0.1156494041	-0.8049887826	 2.0147102144	 0.103014
H	 2.5550973913	 0.8614889901	 1.1676671654	 0.123495
H	 1.3163819921	 1.3346122028	 2.3412864524	 0.120179
H	 2.3858699072	-0.0439641377	 2.6738503639	 0.140277
