21
gdb 58481	2.38074	1.3154	0.9833	4.8599	83.84	-0.2705	0.0161	0.2866	1276.5112	0.181107	-383.266587	-383.256422	-383.255478	-383.302895	37.465	
C	-1.2076265468	-0.5847083823	-0.5100727585	-0.419911
C	 0.0192567903	 0.1745080646	 0.0127126042	-0.027221
C	-0.4075061004	 1.5867918732	 0.4609776948	-0.394029
C	 0.7828894883	-0.5227905996	 1.1501290014	 0.315946
C	 2.0306592769	 0.2151897528	 1.6163342348	-0.469825
N	-0.0311608756	-1.1770861333	 2.1782528923	-0.336934
C	 0.8555794002	-2.0179605087	 1.3499301898	-0.237499
C	 0.2678107483	-3.0516310628	 0.532421254	 0.334827
N	-0.1300823927	-3.929669877	-0.1064137557	-0.34811
H	-1.893522059	-0.825699392	 0.3067847538	 0.138819
H	-1.7420997976	 0.0433728813	-1.229219821	 0.106384
H	-0.942452841	-1.5124870995	-1.0170454649	 0.145737
H	 0.734911541	 0.2844969393	-0.8140848854	 0.081045
H	-1.0648066046	 1.5288263102	 1.335649199	 0.126961
H	 0.4407732118	 2.2287565715	 0.7119662083	 0.111783
H	-0.9636813416	 2.0796649595	-0.3414185646	 0.11813
H	 1.7688881981	 1.1562730964	 2.1077734754	 0.136344
H	 2.6041716075	-0.3839490269	 2.3303083222	 0.117061
H	 2.6865598382	 0.4509340181	 0.7719835984	 0.134532
H	 0.3709554381	-1.065213088	 3.1060169145	 0.239426
H	 1.7833830507	-2.3644404869	 1.8009064171	 0.126535
