21
gdb 60574	3.60599	0.94215	0.84421	3.0481	79.35	-0.2348	0.0584	0.2933	1438.8623	0.182556	-420.348221	-420.33848	-420.337536	-420.383307	35.791	
C	 0.0393963784	 1.4784382178	-0.3241084488	-0.402096
C	-0.0542589536	 0.030726428	 0.0999157606	-0.011072
N	 1.1894984222	-0.7554756563	 0.0886144842	-0.339058
C	 0.5015946066	-0.5290428451	 1.3681615206	-0.054665
C	 1.2470302847	 0.2886786903	 2.4058865313	 0.083818
O	 0.3340067787	 0.8723141915	 3.3322095551	-0.44463
C	 2.2040886429	-0.5885921541	 3.1917294797	 0.024688
C	 2.6253157439	-0.2280179044	 4.5632680363	-0.25106
N	 1.7114458346	-1.368837576	 4.3374830915	-0.331082
H	 0.9584832492	 1.9446297387	 0.0371128488	 0.133444
H	 0.0399105698	 1.553763804	-1.4165698967	 0.127147
H	-0.8163506725	 2.0546611068	 0.0466762218	 0.110723
H	-0.9499519697	-0.4750602374	-0.2606457042	 0.085932
H	 1.0242655243	-1.7003110345	-0.2455431405	 0.235751
H	-0.0450041279	-1.3660339257	 1.8020671374	 0.092266
H	 1.8347122091	 1.0644695978	 1.8936550595	 0.080943
H	-0.3573538221	 1.3105863062	 2.8273450165	 0.289079
H	 2.9002754479	-1.124720481	 2.5507708493	 0.099188
H	 3.618239375	-0.4972782806	 4.9122539251	 0.111271
H	 2.2097509377	 0.6768215361	 4.9949041242	 0.123464
H	 0.7668096509	-1.0477941021	 4.5436594682	 0.235947
