20
gdb 81912	2.31971	1.73058	1.20708	2.4184	78.26	-0.2363	-0.0214	0.2149	1089.1351	0.171131	-403.15373	-403.145127	-403.144183	-403.186657	33.226	
C	-0.914991964	 1.1665642653	 0.1837215511	-0.396073
C	-0.012162093	-0.0562105175	 0.070681122	 0.029917
C	 0.7722393873	-0.2467927423	-1.2624791547	-0.141103
C	 0.8881974564	 0.9318969447	-2.2423677086	-0.408706
C	 2.1585781316	-0.749568849	-0.8082056683	 0.418286
O	 2.9924597218	-1.2485136033	-1.5214540783	-0.335344
C	 2.2597875042	-0.552102528	 0.6724770892	-0.145771
C	 2.0395100996	 0.8633391104	 1.1113106144	-0.24918
N	 0.9611125561	-0.1068792764	 1.2066349259	-0.097215
H	-0.3621554721	 2.1014102554	 0.0531583761	 0.11705
H	-1.7055216077	 1.136198318	-0.5720218635	 0.120451
H	-1.3859208772	 1.1877539809	 1.1705401718	 0.130736
H	-0.6339400161	-0.9465331729	 0.2153207507	 0.092353
H	 0.3263067876	-1.079863582	-1.8162274536	 0.111485
H	 1.3219348977	 1.8252840205	-1.7839551414	 0.121231
H	 1.5314621285	 0.641629155	-3.0779049036	 0.14187
H	-0.0909911763	 1.2066377796	-2.6447315274	 0.121198
H	 2.8723606498	-1.2298160134	 1.2568656185	 0.113887
H	 2.4645742286	 1.1783897924	 2.0596867971	 0.131305
H	 2.0042811973	 1.6401537624	 0.3527755926	 0.123624
