16
gdb 110178	2.86258	1.14355	0.89413	2.583	73.59	-0.2691	0.0001	0.2692	1270.4413	0.123094	-437.84021	-437.831511	-437.830567	-437.873959	31.949	
O	-0.0066509557	 1.3778628038	 0.1011914501	-0.417761
C	-0.0564355129	-0.0015214459	-0.1765778337	-0.075387
C	-1.4833802477	-0.5245157074	 0.0073180688	-0.178482
C	-1.7359501588	-2.0533098614	 0.1648713874	-0.093528
O	-2.2282943961	-1.8130015644	 1.5416470424	-0.256594
C	-1.9515284336	-0.4710944911	 1.4403369596	 0.456588
N	-1.9852120271	 0.4527892467	 2.2906427371	-0.558987
C	-2.7184921373	-2.6772864625	-0.690997606	 0.326528
C	-3.5243902087	-3.1867666501	-1.4218496302	-0.420862
H	-0.4054382235	 1.5085203446	 0.9745177604	 0.30371
H	 0.2732643196	-0.1350560827	-1.2120668285	 0.117017
H	 0.6289843968	-0.5784497079	 0.4674018905	 0.09039
H	-2.1654705873	-0.0410248644	-0.6938900905	 0.131059
H	-0.8198931141	-2.6495613143	 0.2210176581	 0.126961
H	-2.2907676565	 0.1298661184	 3.2094458639	 0.236041
H	-4.2384359968	-3.6419285515	-2.0637330096	 0.213308
