17
gdb 86479	2.50228	1.39537	1.04408	0.992	80.71	-0.2577	0.0211	0.2788	1160.1046	0.132848	-384.600891	-384.591758	-384.590814	-384.634366	35.087	
O	 0.1902599078	 1.3959675287	-0.1730671938	-0.435254
C	 0.0514388312	 0.0010162287	-0.0347129283	 0.146006
C	 0.2402444509	-0.5378816441	 1.4098308002	-0.275157
C	-1.332619938	-0.5779633516	 1.579543838	-0.050194
C	-1.4139112244	-0.5130573519	 0.0004677261	-0.275159
C	-1.892830662	-1.7598148954	 2.2162372448	 0.219966
C	-2.3327861837	-2.7608212372	 2.7150144692	-0.417587
C	-1.8335626977	 0.6524669469	 2.1891670268	 0.290983
C	-2.2171291098	 1.6921026454	 2.6576601466	-0.460198
H	-0.367989007	 1.8214679728	 0.4895906553	 0.283343
H	 0.695466321	-0.4390434524	-0.7983566387	 0.090492
H	 0.6468034944	-1.5509163551	 1.430810086	 0.120261
H	 0.7865701215	 0.0991398063	 2.1068471332	 0.121019
H	-2.1775975394	 0.1436099174	-0.4186640617	 0.121018
H	-1.5167226453	-1.5184509904	-0.4125512392	 0.120261
H	-2.7290739395	-3.6374003092	 3.1647640008	 0.195389
H	-2.5733981901	 2.5938750709	 3.0916889446	 0.204812
