17
gdb 37591	2.89316	2.38492	2.01297	2.1908	67.99	-0.249	0.079	0.328	772.8057	0.140981	-421.824341	-421.819091	-421.818147	-421.853639	23.732	
C	-0.0109125694	 1.5620017368	-0.066447815	-0.22758
C	 1.469048998	 1.8860538185	 0.0595047341	-0.06781
C	 2.4685755331	 0.8662675034	-0.4801072294	-0.082409
C	 2.0945270804	 0.8803765378	 0.9858571025	-0.081148
C	 1.1923364458	-0.3661059007	 0.9902641047	 0.029176
O	 1.9353390466	-1.3094727463	 0.2054827004	-0.242542
C	 1.9282344946	-0.5084694275	-0.9685949852	 0.146472
O	 0.5504134001	-0.4075984676	-1.2709870288	-0.257434
C	 0.0190823776	 0.0375531122	-0.0097842411	 0.042016
H	-0.56185515	 1.9996983135	 0.775145949	 0.095526
H	-0.4731615607	 1.8998393679	-0.9977953542	 0.112706
H	 1.7876800283	 2.9232178216	 0.0823048081	 0.086666
H	 3.4350355527	 1.2093013649	-0.8269953322	 0.092109
H	 2.779699848	 1.1032603812	 1.7930138014	 0.090986
H	 0.9033811513	-0.7980509776	 1.9452257665	 0.086439
H	 2.4622581173	-0.9905573323	-1.7851632149	 0.092524
H	-0.9356132838	-0.4562645357	 0.1728492441	 0.084302
