16
gdb 11941	3.04031	2.03727	1.56092	2.7578	66.79	-0.2445	-0.0348	0.2097	857.5365	0.128659	-383.712234	-383.704527	-383.703583	-383.744129	28.37	
C	-0.0285904569	 1.4920282349	 0.2498701811	-0.493466
C	-0.0027036717	 0.0086820254	 0.0380555905	 0.217348
C	-0.9090840958	-0.9576656078	 0.7413659221	-0.368578
C	 0.5784062381	-1.1059398852	 0.9366445414	 0.315151
O	 1.1727445603	-1.7869395543	-0.1656801986	-0.322311
C	 0.7414950147	-0.7362150081	-1.0728454452	-0.131144
C	 1.2889050134	-0.9740026368	 2.2126300294	 0.071052
O	 0.8422188003	-0.3806067687	 3.1694790853	-0.278315
H	 0.9247186934	 1.9522498586	-0.0299316695	 0.124967
H	-0.8193034412	 1.9618895492	-0.3467224034	 0.129552
H	-0.2190388151	 1.7236924785	 1.3019745003	 0.151277
H	-1.43312418	-0.5507931808	 1.5998747225	 0.145383
H	-1.4192752663	-1.7484899155	 0.1981703709	 0.123423
H	 0.1475177728	-1.1267603502	-1.9071593333	 0.112137
H	 1.6064128986	-0.1835210931	-1.4571750884	 0.114463
H	 2.2966427954	-1.4425556861	 2.2205120049	 0.089062
