20
gdb 104042	2.89208	1.2917	1.17515	1.8337	73.32	-0.232	0.0633	0.2952	1133.0677	0.171569	-440.256821	-440.248313	-440.247369	-440.289614	33.623	
O	 0.1939451375	 1.1999577509	 0.4940941647	-0.426123
C	-0.0419888172	-0.190120921	 0.4430522173	-0.08084
C	-1.4714496537	-0.5019988445	-0.0192701648	 0.359021
O	-1.5086789511	 0.0878801573	-1.3245903636	-0.48947
C	-1.7802876115	-2.0249778005	-0.0426137891	-0.302933
C	-2.7669523244	-2.2665128424	 1.0850231884	-0.016908
C	-2.4002330077	-1.8259904139	 2.4550451288	-0.24879
N	-3.270125432	-0.9830592492	 1.62417343	-0.091577
C	-2.5682376272	 0.0953705246	 0.9170689043	-0.241265
H	-0.09749261	 1.5385678615	-0.361616881	 0.289278
H	 0.6569817745	-0.693890371	-0.2440899464	 0.095269
H	 0.1363343036	-0.5835182815	 1.4476001457	 0.108347
H	-2.4265381566	 0.1449069489	-1.6087886496	 0.28129
H	-2.2303316326	-2.2773399959	-1.0080326999	 0.106364
H	-0.870798383	-2.6285397413	 0.0501377017	 0.110861
H	-3.5034355921	-3.0554005261	 0.9596104116	 0.091859
H	-2.8936385088	-2.2695794556	 3.3153487126	 0.117589
H	-1.3791561172	-1.5044790446	 2.6451533076	 0.114288
H	-2.1466627783	 0.8221728025	 1.6167508827	 0.130602
H	-3.307488242	 0.6301124917	 0.3068528691	 0.093137
