20
gdb 122478	3.53581	0.65963	0.58948	3.0727	80.69	-0.2694	0.0308	0.3002	1854.441	0.170114	-403.149437	-403.139411	-403.138467	-403.185731	35.41	
O	-0.0880994	 1.4171070076	-0.337734206	-0.421607
C	 0.0001484474	 0.057342755	 0.0583233583	-0.076411
C	-1.3863759858	-0.5582337293	-0.0784139133	-0.164617
C	-1.4223580729	-2.0337408129	 0.3367144063	-0.224343
C	-2.8040623693	-2.6358389551	 0.1982232039	 0.003025
C	-3.2737894269	-3.2014289801	-1.1076421296	-0.280985
C	-3.0024474211	-4.1424497749	 0.0596070305	-0.189828
C	-1.8668649464	-5.0195207715	 0.0142722707	 0.287455
N	-0.9497914373	-5.7249809304	-0.0172652188	-0.344995
H	 0.7864640851	 1.8098354231	-0.2640275893	 0.286872
H	 0.7159418018	-0.4974122206	-0.570220637	 0.089026
H	 0.346460885	-0.0338437754	 1.1011827744	 0.086474
H	-2.0860251293	 0.0251105947	 0.5327192944	 0.106243
H	-1.7160507467	-0.4508560268	-1.1185090824	 0.110025
H	-0.7120388585	-2.6105933283	-0.2678816774	 0.118731
H	-1.0874848884	-2.1353492942	 1.3773140269	 0.109878
H	-3.5674105909	-2.1572010003	 0.8065055398	 0.102828
H	-4.3084489898	-3.0770594328	-1.4050288558	 0.129997
H	-2.5655852653	-3.2294352371	-1.928404232	 0.139302
H	-3.8656104806	-4.5714555507	 0.5570037864	 0.132932
