13
gdb 5453	3.51765	1.96477	1.27056	3.2803	68.04	-0.2446	-0.0303	0.2143	886.3379	0.097551	-357.708562	-357.70146	-357.700515	-357.740221	25.267	
C	 0.0300033991	 1.5151422744	 0.085514677	-0.498351
C	 0.0427370799	 0.0265948297	 0.0013190064	 0.210914
C	-0.0675590867	-0.7663251414	-1.1296068824	 0.152269
N	 0.0014182936	-2.0746368835	-0.6731321268	-0.318696
C	 0.1455257495	-2.0114119713	 0.67139918	 0.022118
N	 0.174161246	-0.7695528505	 1.108183111	-0.294104
C	-0.2189651497	-0.4373814591	-2.4905813594	 0.206146
N	-0.3438115607	-0.1643500785	-3.6108609928	-0.349548
H	 0.9584932584	 1.8830784905	 0.5336670666	 0.147067
H	-0.0822816556	 1.9655326584	-0.9032620639	 0.142435
H	-0.793298435	 1.8571949612	 0.7207262278	 0.147054
H	-0.0486777594	-2.9016814253	-1.2454080303	 0.284533
H	 0.2247702706	-2.8973971147	 1.2836787269	 0.148162
