19
gdb 37355	2.64822	1.95184	1.83547	1.8148	72.73	-0.2487	0.0814	0.3301	877.2485	0.163225	-423.007601	-423.00124	-423.000296	-423.037915	27.522	
C	-0.0102823956	 1.5140369585	 0.077365252	-0.284856
C	 1.3049748934	 0.7904200418	-0.0019394434	-0.03972
C	-0.0011054397	 0.0124836881	 0.0061985119	-0.039721
C	-0.0737471137	-0.6628153973	-1.3811448743	 0.098588
C	 1.418462337	-0.9030970635	-1.6826338723	-0.27374
C	 1.9205838506	 0.525061295	-1.3935702643	 0.098588
O	 1.3994173629	 1.4260063621	-2.3858360489	-0.2743
C	 0.3469972478	 0.8804596209	-3.1481467893	 0.014048
O	-0.6268626391	 0.2191008047	-2.3732111091	-0.2743
H	-0.2671121962	 1.9552478984	 1.034893878	 0.106869
H	-0.3482308511	 2.0723870658	-0.7860042315	 0.13434
H	 1.976257945	 0.7981300547	 0.8492554901	 0.081662
H	-0.319735547	-0.5694273089	 0.8635594058	 0.081662
H	-0.6923754385	-1.5632558861	-1.3741981051	 0.077423
H	 1.8371179071	-1.5983243663	-0.9508122912	 0.106461
H	 1.6378785783	-1.2819532792	-2.6843593572	 0.10544
H	 3.0069888931	 0.6401833389	-1.3972456498	 0.077423
H	-0.1548581712	 1.7178858348	-3.6396928374	 0.117271
H	 0.747533157	 0.1999578978	-3.916805264	 0.086861
