20
gdb 17975	2.59367	2.2842	1.40875	0.7727	71.01	-0.2548	0.0903	0.3451	937.0511	0.179711	-386.139947	-386.132381	-386.131436	-386.171598	29.273	
C	 0.1315680413	 1.495354053	 0.3595723793	-0.176939
C	 1.5963454283	 1.9145447688	 0.139921763	-0.198939
C	 2.1532153497	 1.5763446615	-1.2466925323	-0.076785
O	 1.1588595701	 1.8280674964	-2.2407845872	-0.24034
C	 0.8283336187	 0.7059822861	-3.0142020145	-0.001725
O	 0.5220846242	-0.4342874248	-2.2646386763	-0.231454
C	-0.5936066085	-0.3243236835	-1.3840564386	-0.06256
C	-0.2332662518	 0.0268533368	 0.0670235669	-0.195239
H	-0.1141673688	 1.7123507272	 1.4056395144	 0.0897
H	-0.5130705587	 2.1425051415	-0.2453820556	 0.10617
H	 1.6636982958	 2.995977448	 0.307812813	 0.1003
H	 2.2427968866	 1.4447475435	 0.8927471948	 0.093816
H	 3.036111927	 2.1890346546	-1.4694003071	 0.09576
H	 2.4525480923	 0.5246026666	-1.2835660167	 0.113216
H	-0.0240918398	 1.0280650654	-3.6298917184	 0.096875
H	 1.663129175	 0.3965609886	-3.6598164151	 0.095486
H	-1.3179799122	 0.4032017784	-1.7796435045	 0.093752
H	-1.0711895918	-1.3106094773	-1.397400904	 0.102155
H	 0.5636901611	-0.6496451062	 0.401894195	 0.101521
H	-1.1175467185	-0.2303227246	 0.6647465039	 0.095232
