15
gdb 20813	6.19109	1.23888	1.11003	1.9095	64.	-0.2463	0.0005	0.2467	1062.2143	0.119076	-399.808065	-399.800551	-399.799607	-399.840438	27.399	
C	 0.1364237805	 1.5921562533	-0.0824238936	-0.375469
C	-0.0439927987	 0.0718150376	 0.0717093047	-0.293553
C	 0.5729271196	-0.4650744247	 1.3189531946	 0.472126
C	 0.0643774506	-1.05765459	 2.4325338007	-0.447939
C	 1.2189159785	-1.3004506902	 3.2255033967	 0.474002
O	 1.2193381632	-1.8806338733	 4.435718196	-0.418441
N	 2.3254927272	-0.8942734263	 2.6521107611	-0.261184
O	 1.911558297	-0.3572774067	 1.4258658155	-0.223595
H	 1.1966417359	 1.8568845323	-0.0949218818	 0.142228
H	-0.3156320092	 1.9367853773	-1.0166225805	 0.119352
H	-0.3365940226	 2.1280072653	 0.745729909	 0.126868
H	-1.1067882761	-0.1875623595	 0.079683443	 0.12054
H	 0.4021033259	-0.4381533586	-0.7907715693	 0.130356
H	-0.9607400726	-1.2912410508	 2.6627287656	 0.123442
H	 2.136216261	-1.9190036257	 4.7397513083	 0.311266
