15
gdb 19959	4.04543	1.50395	1.16177	2.3538	62.21	-0.2525	0.0268	0.2793	984.4988	0.119001	-399.791402	-399.783943	-399.782999	-399.824036	26.462	
O	-0.2644671507	 0.0038245061	 0.0693281037	-0.355216
C	-0.1482278575	 1.1982955762	 0.0387274409	 0.408983
N	-1.0500291187	 2.2304620159	-0.0282288974	-0.320501
C	-0.0605870591	 3.3117883822	-0.0220625544	-0.180429
C	 1.040581571	 2.2094401195	 0.0650498528	-0.17535
C	 1.8929570494	 2.1787327104	 1.2999836464	 0.096942
C	 3.186157495	 1.4873033845	 1.3286917066	-0.178681
O	 3.1198015447	 2.9134513441	 1.2547451782	-0.241715
H	-2.0554238937	 2.2322590537	-0.1154392823	 0.254457
H	-0.041657607	 3.9128037327	-0.9359687227	 0.119865
H	-0.1216995273	 3.9706659805	 0.8499651488	 0.120107
H	 1.6666513153	 2.1450623194	-0.8278434708	 0.109553
H	 1.3500533242	 2.2795100737	 2.2416728965	 0.099124
H	 3.5589819731	 1.0820547267	 2.2676732038	 0.121588
H	 3.5460638714	 0.9872411244	 0.4309079098	 0.121274
