18
gdb 23301	2.86774	1.29965	0.95622	1.7015	85.93	-0.2115	-0.0262	0.1853	1234.1896	0.147704	-401.918929	-401.910651	-401.909707	-401.951546	32.098	
C	-0.0247132629	 1.4796662289	 0.0819475455	-0.49501
C	-0.0054205701	-0.0100209166	-0.0197684227	 0.321978
C	 0.0498356064	-0.7531143649	-1.143042408	-0.283885
C	 0.0372998189	-2.1809913179	-0.8135858031	 0.41004
N	-0.0122098504	-3.2120969555	-1.5715132809	-0.259732
O	-0.0177723262	-2.8460906533	-2.930670422	-0.395346
C	 0.0601296709	-2.3071954842	 0.6768502724	-0.123738
C	 1.254957117	-1.7065443732	 1.3921626972	-0.285283
C	-0.0048759226	-0.8858163863	 1.1966459765	-0.138614
H	 0.8352900353	 1.8448715112	 0.6575653965	 0.135053
H	-0.0082156946	 1.9532951801	-0.9026247964	 0.13047
H	-0.9210557567	 1.8242281011	 0.6133124344	 0.132543
H	 0.1175591388	-0.379223269	-2.1545898454	 0.113242
H	-0.067383299	-3.702262521	-3.3675900823	 0.304597
H	-0.4660256409	-3.1268524137	 1.1478817672	 0.103975
H	 1.4588054067	-2.0840342682	 2.3888449306	 0.116555
H	 2.1325308205	-1.4413212962	 0.8126106408	 0.122173
H	-0.5934831912	-0.6082109712	 2.0643055395	 0.090981
