20
gdb 94350	3.3976	1.05519	0.91594	3.7976	81.71	-0.2473	0.0033	0.2506	1329.7722	0.170027	-403.137754	-403.128704	-403.12776	-403.171759	33.538	
C	-0.4076975743	 1.4524150805	 0.0228613004	-0.420174
C	 0.1233315492	 0.0373032899	-0.1335579533	-0.026801
C	 1.5504846453	-0.1903279838	-0.7238082708	-0.230967
C	 1.7949428369	-1.3096915324	 0.3309791184	-0.306403
C	 0.598204184	-0.7405206506	 1.1035593575	 0.340941
C	 0.6142763158	-0.2824431907	 2.5317831734	-0.304965
N	-0.2316064402	-1.3775509657	 2.0985768419	-0.123508
C	-0.1194900203	-2.6755267055	 2.5619619532	 0.131823
O	 0.1096922479	-2.9875193366	 3.7051487368	-0.287336
H	 0.3103527428	 2.0883540908	 0.5519560361	 0.116232
H	-0.6004867587	 1.9077616961	-0.954157726	 0.120114
H	-1.3481751522	 1.4630572337	 0.5845851551	 0.126317
H	-0.6026389396	-0.5790727063	-0.6773618635	 0.083905
H	 1.6137506007	-0.4765609542	-1.7748622011	 0.105222
H	 2.1966596773	 0.6753993666	-0.5536944288	 0.107851
H	 1.5907509241	-2.3044913629	-0.075561945	 0.113903
H	 2.7591809596	-1.3297840574	 0.8436605438	 0.114096
H	 1.4741466701	-0.5406012324	 3.1457645624	 0.133922
H	 0.0966921834	 0.6291589263	 2.8181456009	 0.125667
H	-0.3355892717	-3.4134285955	 1.7651546686	 0.080159
