18
gdb 82145	3.03811	1.16833	1.00966	2.5728	73.32	-0.2477	0.0266	0.2743	1211.3466	0.147173	-439.073262	-439.06465	-439.063706	-439.107302	31.59	
C	-0.170861306	 1.5927156321	-0.2560526214	-0.41194
C	-0.0299708609	 0.0842477339	-0.1329126231	-0.032355
C	 0.7501443827	-0.6596374041	-1.2258638835	 0.01766
O	 2.1114940839	-0.2023819678	-1.1651769051	-0.259765
C	 1.6944961883	-1.2342389084	-0.2562914646	-0.003406
C	 1.0127525935	-0.5163665397	 0.9136384058	-0.004141
N	 1.8613783496	 0.3851647889	 1.645630518	-0.270938
C	 1.7934826623	 0.55377023	 2.9942842793	 0.151672
O	 1.0224084464	-0.021596295	 3.7327433029	-0.32539
H	 0.7847173677	 2.0555275803	-0.5170617052	 0.122681
H	-0.8954464763	 1.8524585087	-1.034901016	 0.119538
H	-0.5177632974	 2.0306987367	 0.6849747269	 0.128947
H	-1.0035692393	-0.3875670255	 0.0332956873	 0.088128
H	 0.4066518973	-1.0493147352	-2.1766942856	 0.110027
H	 2.2589779653	-2.1594325205	-0.2640690198	 0.111659
H	 0.5302624568	-1.1766748328	 1.6336219655	 0.123343
H	 2.534292586	 0.9171258788	 1.1152595921	 0.258108
H	 2.5405108802	 1.2892279896	 3.3530102963	 0.076171
