18
gdb 8631	2.04766	1.85695	1.54942	0.5812	79.14	-0.2612	0.0326	0.2938	997.9591	0.149655	-310.604907	-310.595273	-310.594328	-310.638433	35.751	
C	-0.0722612592	 1.5679111093	 0.1054404774	-0.39696
C	 0.0070167815	 0.0467510271	-0.0074746698	-0.180994
C	 0.7345865509	-0.4794155248	-1.285837085	-0.130083
C	 0.7391298728	-2.0325257229	-1.2655451786	-0.40615
C	 0.028906322	-0.0179337978	-2.4914621169	 0.371869
C	-0.5776327811	 0.3315837981	-3.4680744176	-0.496261
C	 2.1240600484	 0.0036486652	-1.3079329558	 0.371875
C	 3.2680002731	 0.3711744739	-1.2957388	-0.496266
H	 0.9266351272	 2.0129291846	 0.1295606654	 0.130488
H	-0.6146883805	 1.9972802549	-0.7418160414	 0.13049
H	-0.5941043159	 1.8547076335	 1.0233039645	 0.111868
H	 0.5357308578	-0.3691889964	 0.8574804875	 0.104881
H	-1.000159165	-0.3848452491	-0.010218455	 0.104885
H	-0.2884860959	-2.4053348742	-1.2509205911	 0.124654
H	 1.2428675901	-2.4270537018	-2.1501276321	 0.134849
H	 1.2627782472	-2.3893407361	-0.3746637864	 0.124654
H	-1.0994155075	 0.6491551641	-4.3368249271	 0.1981
H	 4.2763706842	 0.7043477426	-1.3002523181	 0.1981
