20
gdb 122691	4.57875	0.59248	0.5809	5.1564	85.71	-0.256	-0.0385	0.2175	1967.8988	0.169714	-399.347389	-399.336727	-399.335783	-399.384183	37.49	
C	-0.3704251211	 1.7876863704	-0.1505646104	-0.380012
C	-0.2681128685	 0.2782884809	 0.0851276365	-0.162358
C	-1.6094091085	-0.4437172006	-0.0783203879	-0.161753
C	-1.5058369723	-1.9598324355	 0.1628068654	-0.19351
N	-2.8091304998	-2.6038538282	 0.1129780654	-0.256355
C	-3.2374132845	-3.050090875	-1.0003293798	 0.262015
N	-2.6136522293	-3.0694212912	-2.2366078735	-0.556001
C	-4.5438774309	-3.6886726955	-1.0091158151	 0.271036
N	-5.5820196632	-4.194555005	-1.0551379634	-0.319203
H	 0.6004651418	 2.2767645768	-0.0258803665	 0.115518
H	-0.7266505096	 2.007754358	-1.1631064248	 0.11322
H	-1.0704618813	 2.2511512828	 0.5530303632	 0.119953
H	 0.4669448647	-0.1522045475	-0.6082430725	 0.092553
H	 0.1214913907	 0.0892838992	 1.0936984616	 0.103163
H	-2.3463822003	-0.0332172395	 0.6217237006	 0.118613
H	-2.010623134	-0.2563538124	-1.0841959797	 0.08537
H	-0.784543063	-2.4043916643	-0.5431499585	 0.088378
H	-1.0996005837	-2.1285877616	 1.1661340319	 0.115871
H	-1.8835798653	-2.3953569175	-2.398418447	 0.269978
H	-3.1884791821	-3.2694606544	-3.0393607554	 0.273523
