16
gdb 55208	2.77453	1.6001	1.02759	2.9619	72.56	-0.2586	-0.0533	0.2052	1102.1748	0.124475	-437.971029	-437.962905	-437.96196	-438.004019	29.762	
C	 0.0358506541	 1.4911180779	 0.008386317	-0.471349
C	 0.0345229052	-0.0171861872	 0.0028934678	 0.4018
O	 1.0455095977	-0.688084841	-0.0078226387	-0.34396
N	-1.2054468263	-0.6658272667	 0.0111187858	-0.173224
C	-1.2528873729	-2.1230104086	 0.0063512418	-0.208103
C	-2.7245722826	-2.4087030599	 0.0175937159	-0.090005
C	-3.4267010113	-1.2745858261	 0.0274648006	-0.179386
C	-2.5051792657	-0.1116033499	 0.0240038422	 0.422233
O	-2.7831173577	 1.0658383712	 0.0304563354	-0.375978
H	 1.0748826831	 1.8201266441	 0.0003243989	 0.135752
H	-0.5006222153	 1.8857264833	-0.8576085195	 0.157482
H	-0.4848782793	 1.8792285046	 0.8868640877	 0.157465
H	-0.7480994474	-2.5298596192	-0.8779167052	 0.150804
H	-0.7334802302	-2.536092022	 0.8791913502	 0.1508
H	-3.1137963026	-3.4185964652	 0.0172338585	 0.131702
H	-4.4989824388	-1.1428470353	 0.0368421016	 0.133964
