14
gdb 44559	3.68716	1.59088	1.51653	6.6196	60.18	-0.2602	0.0506	0.3108	876.6205	0.103183	-473.816998	-473.810877	-473.809933	-473.847665	24.248	
O	 0.0034632314	 0.0207489073	 0.1087341003	-0.364794
C	-0.0133740158	 1.2054429734	 0.05570188	 0.511937
O	-1.1524689192	 1.9611058856	 0.0078304146	-0.245514
C	-0.8185402743	 3.335233911	 0.0344905469	 0.069623
C	-0.7851781149	 4.0250844787	 1.4093854302	-0.078824
N	-0.0088773658	 3.1336885491	 2.2865361073	-0.323
C	 0.7183803624	 4.0455859047	 1.388681194	-0.078823
C	 0.7326958395	 3.3563290934	 0.0131642047	 0.06963
O	 1.1030094085	 1.991776278	-0.0231487835	-0.245512
H	-1.3517921365	 3.8713088876	-0.7503336584	 0.108817
H	-1.4895331543	 4.7444556135	 1.8053322702	 0.110304
H	-0.0014768437	 3.5362643676	 3.2214028062	 0.24704
H	 1.4135031358	 4.7840363386	 1.765350599	 0.110304
H	 1.2294010069	 3.9063975915	-0.7858286714	 0.108812
