18
gdb 65238	2.90572	1.23311	1.11166	0.7706	72.51	-0.2664	0.0187	0.2852	1157.398	0.146832	-439.062212	-439.053598	-439.052653	-439.096173	31.795	
C	 0.1318209695	 1.5079146044	-0.3648150444	-0.486742
C	 0.0547953061	 0.0226270069	-0.0918376997	 0.429089
C	 1.2373479542	-0.8201925013	-0.3220034787	-0.223341
O	 0.8574889869	-0.445628099	 1.0050616036	-0.281968
C	-1.3088318135	-0.6347391665	-0.1531920433	-0.203439
C	-2.4763277521	-0.043655241	 0.6732008931	-0.102315
O	-3.2340408827	 0.1925894576	-0.5560952555	-0.255945
C	-2.2067443615	-0.2967211502	-1.3339540864	 0.432184
N	-2.0942859613	-0.3919671566	-2.5785679156	-0.545502
H	 1.1623009009	 1.8542670661	-0.2609637632	 0.131587
H	-0.2146622496	 1.7276603748	-1.3789970704	 0.147219
H	-0.4842648637	 2.0777340646	 0.3384074359	 0.126221
H	 1.1160948297	-1.8742790555	-0.5670807037	 0.117727
H	 2.1527907992	-0.3621973488	-0.6932074271	 0.117716
H	-1.19598332	-1.7112467877	-0.0097457308	 0.112004
H	-3.0011959234	-0.7407632157	 1.3292346874	 0.127922
H	-2.2786379586	 0.8942946591	 1.1959576317	 0.127363
H	-2.9274036103	-0.043962431	-3.0566055428	 0.23022
