20
gdb 6609	4.1411	1.49581	1.3688	1.5157	75.51	-0.2211	0.0851	0.3062	1013.9412	0.175039	-348.986884	-348.978437	-348.977493	-349.019613	32.759	
C	-0.5027731398	 1.5876486592	-0.0114403532	-0.427574
C	-0.0007892845	 0.151732127	-0.0613796556	 0.430108
C	-1.0743027671	-0.8547363636	 0.3271316694	-0.427563
C	 0.8429405705	-0.219252009	-1.3131151075	-0.413882
C	 1.98895781	-0.3501417114	-0.3217298175	 0.469761
C	 3.0659998572	-1.3791930541	-0.2230825774	-0.334955
C	 3.4107140428	 0.0927674183	-0.4271676052	-0.334962
O	 1.1764573088	-0.0046411536	 0.7978302205	-0.344791
H	 0.2970633727	 2.2861447635	-0.2723083567	 0.119498
H	-1.3339446818	 1.7335019357	-0.7102218867	 0.112418
H	-0.8551283463	 1.8325757468	 0.9958079667	 0.122274
H	-1.9264659005	-0.7987175353	-0.3592320024	 0.112417
H	-0.6761564798	-1.8728937984	 0.3042729646	 0.1195
H	-1.4366516519	-0.6523330604	 1.3402597892	 0.122272
H	 0.5452118547	-1.1432065734	-1.8142068517	 0.105284
H	 0.9481189813	 0.5778925665	-2.052660597	 0.105284
H	 3.2551689741	-1.8012368392	 0.758250545	 0.122108
H	 3.2086639396	-2.0675462454	-1.0502959754	 0.110345
H	 3.7889653981	 0.4104142499	-1.3938588005	 0.110346
H	 3.8239447119	 0.6274621869	 0.4215154715	 0.12211
