20
gdb 28454	3.00567	1.31038	0.92821	2.3341	90.73	-0.2368	-0.0129	0.224	1300.6278	0.170876	-366.097293	-366.087962	-366.087018	-366.131758	34.189	
C	 0.0454371396	 1.5238334877	-0.0223705863	-0.503491
C	 0.0427966552	 0.0184525653	 0.0167418428	 0.1966
C	 0.0805215826	-0.7250487488	-1.1634028941	-0.069398
N	 0.0816746711	-2.0554674795	-1.2359735047	-0.335797
C	 0.0436090267	-2.7390913158	-0.0851943338	 0.321129
C	 0.0457356778	-4.2423117908	-0.1926724194	-0.466773
C	 0.0040097012	-2.0906080541	 1.1499245314	-0.234489
C	 0.0028961717	-0.6991036751	 1.2229750645	 0.240923
C	-0.0397418076	 0.0064217051	 2.553067947	-0.495904
H	 0.9086748066	 1.9439194223	 0.5077419928	 0.129129
H	 0.0793011	 1.8870108801	-1.0529621946	 0.126724
H	-0.8496722893	 1.9455170421	 0.4505278778	 0.129129
H	 0.1120340494	-0.1991484286	-2.1171762065	 0.094881
H	 0.942247841	-4.5860551579	-0.7187183546	 0.137293
H	 0.0133899976	-4.7197596633	 0.7898632984	 0.113342
H	-0.8153761932	-4.5844620559	-0.775801134	 0.137293
H	-0.0262543354	-2.6766572582	 2.0636890804	 0.085316
H	 0.8356437237	 0.6517882857	 2.6914538929	 0.134513
H	-0.921099151	 0.653384172	 2.6342923241	 0.134513
H	-0.0672917478	-0.7073687325	 3.3798292058	 0.125066
