19
gdb 40482	3.32893	1.49764	1.25729	1.6146	79.57	-0.2611	0.087	0.3481	1043.0069	0.160167	-385.787815	-385.780603	-385.779659	-385.819736	28.825	
C	 0.3313541266	 1.4756091543	 0.1456760084	-0.177651
O	 1.1279447398	 0.3507293101	-0.2265948401	-0.23071
C	-0.2487291197	 0.1248298129	 0.1052684253	-0.090806
C	-0.5340448112	-0.6571780736	 1.3385235301	 0.383573
C	-1.8768152377	-0.7654044012	 2.0966683067	-0.317634
C	-0.9120677046	-1.6593436415	 2.8956417656	-0.044866
C	-0.1891702469	-2.1751517609	 1.6049420303	-0.082305
C	 1.2083980091	-1.8393143251	 2.1637630801	-0.263126
C	 0.3058440889	-0.6958375507	 2.668902197	-0.084775
H	 0.5768750233	 1.9228220443	 1.1075184575	 0.112849
H	 0.1141319086	 2.1801673067	-0.65600638	 0.114216
H	-0.8708928163	-0.1269037489	-0.7565262208	 0.089499
H	-2.2356277382	 0.1443629767	 2.5899749974	 0.090696
H	-2.6977824919	-1.2680218149	 1.5738717954	 0.090753
H	-1.0997778363	-2.2430963187	 3.7975420593	 0.070802
H	-0.5073585791	-3.016226161	 0.9859241886	 0.068747
H	 1.5976405531	-2.5206174447	 2.9276170968	 0.086191
H	 1.9812548633	-1.5713671604	 1.4412901373	 0.117487
H	 0.5593376891	 0.1671450766	 3.2879299551	 0.06706
