21
gdb 78808	2.3353	1.6697	1.41778	1.3258	81.5	-0.2441	0.0716	0.3157	1062.1299	0.181894	-387.047567	-387.038954	-387.03801	-387.079953	34.617	
C	 0.0552719692	 1.6257280999	 0.0081474678	-0.430671
C	 0.1072619698	 0.1027962052	-0.016047797	-0.006556
C	 0.7965234271	-0.6662501071	-1.1479771707	-0.093058
C	 2.2733740215	-0.8493777904	-0.7653355513	-0.05999
C	 1.217454449	-1.7846488939	-0.230001225	-0.181481
C	 1.0511094077	-0.6840487068	 0.9282283224	 0.373759
O	 0.6183829544	-0.8581234581	 2.2290757576	-0.48215
C	 2.4940899799	-0.1911545107	 0.5993186827	-0.050086
C	 3.5674181399	-0.8722739337	 1.442984485	-0.434711
H	 1.0249173219	 2.0776918178	-0.2190605235	 0.116555
H	-0.6598666367	 1.9969072239	-0.7341101824	 0.111054
H	-0.2687422983	 1.9879160723	 0.9899090983	 0.122178
H	-0.900284423	-0.3074351029	 0.1198298488	 0.076074
H	 0.4748124978	-0.7504475364	-2.1783576973	 0.081569
H	 3.0249420068	-1.0676469058	-1.5139202083	 0.080755
H	 1.0812660011	-2.8544988199	-0.2900682223	 0.087443
H	 1.3198494877	-1.2862460513	 2.7323350068	 0.283684
H	 2.6439010495	 0.8949192983	 0.6193242	 0.060273
H	 3.4449250693	-1.9620406027	 1.4406572908	 0.115287
H	 4.5697796161	-0.6541733597	 1.0607441441	 0.119278
H	 3.5370020994	-0.5214707682	 2.4819902634	 0.110795
