15
gdb 2273	7.46815	1.50703	1.34761	1.4936	62.1	-0.2477	0.0462	0.2939	875.4879	0.124159	-308.459001	-308.451696	-308.450752	-308.491322	25.587	
C	-0.0488318678	-1.1561830665	-0.2422956902	-0.44135
C	-0.0443515649	 0.0322786937	-0.0623194922	 0.295791
C	 0.0035321051	 1.4743648985	 0.1495626894	-0.370923
C	 1.4352305755	 2.0246496573	 0.134373457	-0.019032
C	 2.1341325752	 2.0595347329	-1.2424628058	-0.072182
O	 2.1251028695	 3.5032579636	-1.2601846683	-0.270896
C	 1.5596222643	 3.5628524648	 0.0635101936	-0.090438
H	-0.0681688112	-2.2060108599	-0.4000061149	 0.198048
H	-0.5851192475	 1.980149914	-0.6276257998	 0.136596
H	-0.4734677215	 1.7240005884	 1.1065010405	 0.132409
H	 2.0216060636	 1.5544069799	 0.9259538136	 0.091877
H	 3.1538923267	 1.6560736625	-1.2643152364	 0.102825
H	 1.5645282751	 1.6301117261	-2.0758421552	 0.108206
H	 0.6133891575	 4.1201642991	 0.0843774599	 0.099181
H	 2.2511373804	 4.0131511255	 0.7870640888	 0.099889
