16
gdb 63506	1.99306	1.72206	1.09695	3.2331	72.62	-0.2701	-0.0501	0.22	1101.9416	0.121228	-437.898937	-437.889714	-437.88877	-437.932472	33.805	
C	 0.0977865549	 1.5103905168	 0.0056380796	-0.479398
C	 0.1222830934	 0.0040935748	-0.0486161504	 0.38688
O	-0.9843847403	-0.5937945517	-0.619170972	-0.421054
C	 1.3593035747	-0.7705908059	-0.2216766922	-0.33973
C	 0.7444812325	-0.8199072358	 1.1872939684	-0.034405
C	 1.4584335953	-0.0994658575	 2.2780813955	 0.097522
O	 2.2799769233	 0.7670628233	 2.0902121243	-0.27121
C	-0.0020197299	-1.973975518	 1.5934136508	 0.235695
N	-0.6090388631	-2.884269831	 1.9705326393	-0.336387
H	 0.994149817	 1.9102869736	 0.478446052	 0.171842
H	 0.0311137091	 1.8957067956	-1.0167109153	 0.143693
H	-0.7780665928	 1.8656367272	 0.5606879691	 0.123161
H	-1.7816987415	-0.2665659588	-0.185734544	 0.299815
H	 1.3000838179	-1.6825353405	-0.8032758796	 0.156811
H	 2.2987231578	-0.2294812338	-0.2522645814	 0.158729
H	 1.1727096618	-0.4173641483	 3.3007470761	 0.108037
