15
gdb 44730	2.44724	1.72094	1.19632	6.504	69.47	-0.2616	0.0066	0.2681	1009.5753	0.114105	-416.823377	-416.815913	-416.814968	-416.855811	27.92	
O	-0.1292843746	 0.0328545018	 0.0281764625	-0.340379
C	-0.0568800729	 1.2261243061	-0.0312823293	 0.436999
N	-1.0108916547	 2.226928632	-0.1156122276	-0.321085
C	-0.0677580143	 3.3395909331	-0.0419371987	 0.021736
C	 0.307465905	 3.7976419356	 1.3953693017	-0.257533
C	 1.4946574096	 2.7707107833	 1.4061210343	-0.157185
C	 1.5466703351	 1.8026767903	 2.4897131319	 0.290407
N	 1.5791368338	 1.0580234273	 3.3732831815	-0.322927
C	 1.0800813099	 2.2780094834	-0.0252550869	-0.214959
H	-1.9980694924	 2.1899755018	 0.1006973005	 0.255006
H	-0.1806560583	 4.0980514209	-0.8161813729	 0.101002
H	 0.6498427733	 4.831409099	 1.4656360431	 0.125958
H	-0.4659409912	 3.6238029732	 2.1442861831	 0.130584
H	 2.4554059659	 3.2889504336	 1.3619784205	 0.138164
H	 1.8635559158	 2.1892506585	-0.7737976738	 0.114212
