15
gdb 12185	3.53904	1.51373	1.25716	2.5952	68.87	-0.2433	-0.0315	0.2118	990.5885	0.116601	-362.618756	-362.610589	-362.609645	-362.651567	29.607	
C	 0.1776882385	 1.6021197889	-0.0551555663	-0.389016
C	 0.0645020843	 0.0887551009	 0.044906682	-0.070258
N	 0.9849256908	-0.696411632	-0.8254338485	-0.322534
C	 1.4008389976	-1.6127365664	 0.2771435431	-0.30091
C	 2.8181394447	-1.8728916908	 0.4191970631	 0.354096
C	 3.9919593845	-2.0842597149	 0.5663164128	-0.42309
C	 0.7102379892	-0.606743735	 1.2533999379	 0.386896
O	 0.7234603384	-0.4316476713	 2.4296709373	-0.274455
H	 1.2224865079	 1.9122703698	 0.0254664743	 0.135257
H	-0.2131268906	 1.9561910571	-1.0139340693	 0.123741
H	-0.3958736986	 2.0760564744	 0.7472815951	 0.132636
H	-0.9904936997	-0.2217488544	-0.0286848813	 0.097798
H	 0.5370118099	-1.170256532	-1.6012059087	 0.227653
H	 0.8393343169	-2.5607200531	 0.3046970373	 0.120535
H	 5.0306947563	-2.2664108512	 0.6914931914	 0.201652
