14
gdb 29810	3.17516	1.30232	0.92896	4.2695	74.12	-0.2244	-0.0403	0.1841	1166.9495	0.102144	-432.920038	-432.911912	-432.910967	-432.953029	29.229	
C	-0.0493996375	 1.4611899725	 0.0437491859	-0.357047
N	 0.0109098987	 0.0106580327	-0.0124606014	-0.042049
C	 0.06612991	-0.7538297449	-1.1523118035	-0.208004
C	 0.1105095485	-2.0613393414	-0.7083239116	 0.344767
O	 0.1718467362	-3.1629020074	-1.4776793783	-0.433329
N	 0.0848763272	-2.1249065981	 0.6412651522	-0.390431
C	 0.0244753684	-0.857051914	 1.0426741381	 0.254306
C	-0.0217284701	-0.4151667948	 2.3873119546	 0.241854
N	-0.0609700566	-0.0164571412	 3.4747607097	-0.355684
H	 0.8346998351	 1.8966259553	-0.4298232176	 0.155825
H	-0.9456305154	 1.8240717871	-0.4667453029	 0.155819
H	-0.08377403	 1.7730863463	 1.0879828938	 0.1789
H	 0.0687892536	-0.3222302487	-2.1378687086	 0.146219
H	 0.1901111319	-3.9196681836	-0.8783408505	 0.308855
