19
gdb 53593	5.60084	0.58619	0.5534	3.5524	87.43	-0.2468	-0.0201	0.2267	1982.1946	0.156564	-385.866124	-385.855849	-385.854905	-385.905381	35.157	
C	-0.0728152581	 1.4736503434	-0.3451744893	-0.496713
C	-0.0311872779	 0.044826556	-0.0678024585	 0.095419
C	 0.0145968628	-1.1361645572	 0.1614410069	 0.046148
C	 0.0354699011	-2.5701136897	 0.4386008108	-0.390538
C	-1.3367467516	-3.2061515872	 0.2387609554	 0.013076
C	-1.7549650255	-3.7677779606	-1.0735594775	-0.2882
C	-1.533425021	-4.7178109751	 0.1023368447	-0.124418
C	-0.388108575	-5.6523435212	 0.0551882649	 0.167174
O	-0.3825616274	-6.7481938901	 0.5609137149	-0.272059
H	 0.8923309929	 1.8342591718	-0.7177411699	 0.149172
H	-0.8283318775	 1.7101778125	-1.1026144321	 0.14789
H	-0.3154456815	 2.0487887781	 0.555193371	 0.148071
H	 0.7774100562	-3.056042458	-0.2060888154	 0.128684
H	 0.3720953281	-2.7435580958	 1.4693451922	 0.136905
H	-2.1159931001	-2.7248557655	 0.8219995296	 0.111125
H	-2.773556369	-3.6344798147	-1.4184904933	 0.129387
H	-1.0131852505	-3.7972318237	-1.8665120306	 0.126031
H	-2.4086371333	-5.1360095446	 0.5877301254	 0.108679
H	 0.4983810375	-5.2832032683	-0.5113269092	 0.064167
