18
gdb 89667	2.90873	1.28753	1.07442	1.3102	81.71	-0.2067	0.03	0.2368	1176.1316	0.145075	-401.866716	-401.857396	-401.856452	-401.900411	35.29	
C	-0.160522467	 1.5131982441	-0.0056456056	-0.403538
C	 0.1117758595	 0.0194993385	 0.0074100187	 0.003301
N	 1.2724112494	-0.4445940451	-0.8428927448	-0.379727
C	 1.7827532624	-1.2631149533	 0.2882777307	 0.176988
C	 2.1912580926	-0.2914448637	 1.3817757209	-0.387256
C	 0.7399559032	-0.6373038621	 1.2397188271	 0.295522
O	-0.0235566	-1.1876668806	 2.2446865936	-0.453152
C	 2.281567112	-2.5797661374	 0.1382501016	 0.185961
C	 2.6801388983	-3.7060165001	-0.0146337747	-0.437745
H	 0.7383753992	 2.0805456972	 0.2516090001	 0.119622
H	-0.48981642	 1.8391886058	-0.997465261	 0.121122
H	-0.9506348258	 1.7624944147	 0.7111876149	 0.117168
H	-0.7993572325	-0.5377341502	-0.2416325907	 0.089291
H	 0.9439949076	-1.0517739504	-1.5883228596	 0.225586
H	 2.6743771583	-0.7654257486	 2.2311325866	 0.125906
H	 2.5877242411	 0.6793140362	 1.0948935599	 0.120696
H	 0.2435980561	-0.8031256231	 3.0857252284	 0.292188
H	 3.0408611357	-4.696146092	-0.1431003061	 0.188066
