19
gdb 84910	2.59807	1.40314	1.02661	3.2323	76.88	-0.2468	-0.0148	0.232	1173.5567	0.159433	-423.049655	-423.041051	-423.040106	-423.082991	32.492	
O	 0.0720637478	 1.4485388025	-0.1524421195	-0.432068
C	 0.0989278539	 0.0252255225	 0.0135898778	 0.079417
C	 0.7855725635	-0.3595503646	 1.2973145568	-0.102906
C	 0.1507031693	-0.8958808415	 2.3408453995	-0.040335
C	-1.3247443215	-1.1966005701	 2.3590652126	-0.274165
C	-2.0759836289	-0.461770997	 1.2426959514	-0.210087
C	-1.3190975593	-0.5826140907	-0.0811704992	-0.110786
C	-2.0583039033	 0.0349119147	-1.2526072513	 0.154414
O	-3.1820105791	 0.4642302645	-1.2028945098	-0.250752
H	-0.2161204523	 1.8322927147	 0.6829410967	 0.283521
H	 0.691219268	-0.3269107914	-0.8398993962	 0.092742
H	 1.8490125919	-0.1411539535	 1.3498445122	 0.096817
H	 0.7144383449	-1.1442370603	 3.2375585504	 0.095434
H	-1.4720477218	-2.2832294685	 2.2630321071	 0.115373
H	-1.7429260455	-0.9339222799	 3.3382541343	 0.11017
H	-3.0946915283	-0.8405376276	 1.1319303028	 0.116382
H	-2.1765854491	 0.600497983	 1.4981543527	 0.10155
H	-1.1909638671	-1.6493761967	-0.3313183362	 0.096593
H	-1.4796844532	 0.0508975299	-2.2040317621	 0.078684
