19
gdb 47734	2.53729	1.64906	1.131	2.7471	75.73	-0.2322	-0.0205	0.2117	1096.2625	0.160283	-423.038427	-423.030448	-423.029503	-423.071141	31.001	
O	-0.0072987927	 0.1078306846	 0.5669380074	-0.326781
C	 0.0134640721	 1.2406186975	 0.1340521032	 0.300887
C	-1.3011880799	 1.9618126195	-0.1769879105	-0.181063
O	-1.2020478628	 3.0564693854	-1.0610191743	-0.242796
C	-0.1786421308	 3.9648009825	-0.6856414053	-0.085124
C	 1.1876286373	 3.3041659982	-0.8514008249	-0.298399
C	 1.276081742	 2.0338232224	-0.0162171452	 0.23339
C	 2.1514090612	 2.0152906392	 1.2434798993	-0.282967
C	 2.568732431	 1.2482599682	 0.0335447564	-0.297887
H	-1.9981827512	 1.2426538046	-0.6134116045	 0.139662
H	-1.717756582	 2.2783463069	 0.7975320227	 0.115505
H	-0.2816995506	 4.8322756457	-1.3430638332	 0.111802
H	-0.3265525316	 4.3036785969	 0.3539402496	 0.089389
H	 1.3192199581	 3.0625674035	-1.9133068793	 0.11526
H	 1.9878801867	 4.0012697046	-0.5768098709	 0.097741
H	 2.6684067461	 2.9374450413	 1.4870090938	 0.117397
H	 1.7755810672	 1.4539407476	 2.0910405466	 0.136096
H	 2.4679205385	 0.1697894804	 0.0661090197	 0.141857
H	 3.3897572114	 1.6292816811	-0.5642671605	 0.11603
