17
gdb 53001	3.39877	0.94396	0.8439	2.1565	80.33	-0.2376	0.021	0.2586	1424.1242	0.133796	-421.762655	-421.753546	-421.752602	-421.798252	32.723	
C	 0.0192252009	 1.4688943911	-0.1045597193	-0.51404
C	-0.0230226853	 0.0188193822	-0.0079245562	 0.315401
C	-0.062425443	-1.1837136365	 0.0625770529	-0.2543
C	-0.0628517202	-2.5966185784	 0.1988396789	 0.282462
O	-0.2747664063	-3.4344908279	-0.9670771511	-0.304184
C	-1.1376862769	-3.6186298229	 0.1619563731	-0.060739
C	-0.4074742384	-4.5358241616	 1.1391075021	-0.289821
C	 0.7775398642	-3.4923326804	 1.1495096992	 0.060579
O	 2.0238736896	-3.8936896966	 0.668835998	-0.432198
H	 0.7638187633	 1.887771421	 0.5810718246	 0.155072
H	 0.2847223968	 1.7876272314	-1.1184965357	 0.15695
H	-0.9507534519	 1.9144525352	 0.1422902311	 0.152419
H	-2.1998276563	-3.4825707408	-0.0040363779	 0.116454
H	-0.896637167	-4.6235258417	 2.1122008232	 0.111851
H	-0.1612575112	-5.5290666963	 0.7561224436	 0.1116
H	 0.9314625761	-3.0420089497	 2.1320863757	 0.102236
H	 1.8834395358	-4.157468258	-0.2500713325	 0.290258
