19
gdb 68962	2.53598	1.61097	1.21635	0.9647	87.74	-0.2224	0.0142	0.2366	1088.3477	0.158351	-348.727815	-348.719328	-348.718383	-348.760261	33.804	
C	-0.0376295276	 1.5116635528	-0.0133107822	-0.477796
C	 0.049353601	 0.005308882	-0.0170361399	 0.27861
C	-0.785855235	-0.7879274045	 0.9446896387	-0.352976
C	 0.73645315	-0.7782279108	 1.1274797617	 0.144642
C	 1.4305636299	-1.9212899531	 0.4510433953	-0.150816
C	 1.247060199	-1.902848439	-0.869184952	-0.084061
C	 0.4456643249	-0.7016674157	-1.3186311457	-0.332779
C	 1.3136818767	-0.1500679578	 2.2758161951	 0.193317
C	 1.8052218255	 0.3738712941	 3.2418207272	-0.424264
H	 0.878703022	 1.9600102971	-0.4126834123	 0.120845
H	-0.8756663016	 1.8559015163	-0.630646167	 0.11731
H	-0.1825622594	 1.8977432078	 0.9993081565	 0.128464
H	-1.3627071901	-0.2247842049	 1.670992496	 0.119115
H	-1.2316206228	-1.7257243187	 0.6285439538	 0.114371
H	 1.9814851847	-2.6661371305	 1.0124281462	 0.103674
H	 1.606566114	-2.6561415897	-1.560625135	 0.097714
H	-0.4338316726	-0.9867117381	-1.9107241881	 0.111525
H	 1.0452865542	-0.0397162358	-1.9590273953	 0.108307
H	 2.240242277	 0.8348500684	 4.0933477368	 0.184797
