17
gdb 38538	3.14444	1.80542	1.2927	2.3269	75.02	-0.2258	0.0164	0.2421	967.0946	0.138421	-417.954194	-417.947329	-417.946384	-417.985178	27.921	
C	-0.0585817442	 1.382479787	 0.2245612482	-0.362631
C	 1.2979688744	 0.7775464698	-0.0402670057	-0.113226
N	 1.7835024135	-0.0110157749	 1.1172310324	-0.376408
C	 0.6383935498	-0.8575667335	 1.0181694067	 0.371562
N	 0.3437908003	-1.9968889265	 1.4702471998	-0.35213
C	-0.7708644589	-2.6029413628	 0.7152763068	-0.167276
C	-1.5349602388	-1.6800110589	-0.2650579934	-0.118442
O	-0.6743703613	-0.8077971006	-1.0326388083	-0.294037
C	 0.0502952678	-0.0994764459	-0.1032274801	 0.357731
H	-0.3242579369	 1.7389520091	 1.2175719312	 0.112116
H	-0.4658430818	 1.9647173445	-0.5983809565	 0.128208
H	 1.9863897348	 1.094115373	-0.8127999982	 0.124703
H	 1.9772865921	 0.4763705659	 1.9869243875	 0.237515
H	-0.3472757916	-3.4544499283	 0.1674666273	 0.120817
H	-1.5004206419	-3.0210152903	 1.4193564317	 0.111502
H	-2.083852334	-2.2798366708	-0.9943655117	 0.116051
H	-2.2558703733	-1.0597826768	 0.2864764725	 0.103944
