17
gdb 35882	2.08526	1.66022	1.00699	0.5373	78.77	-0.2568	0.0366	0.2934	1160.7112	0.134796	-384.61906	-384.610284	-384.609339	-384.653617	32.706	
C	-0.2740712795	-1.2476626143	-0.0936123391	-0.47155
C	-0.1300080496	-0.0554186635	-0.050101987	 0.354844
C	-0.0007464755	 1.3877039988	 0.0239092415	-0.21495
C	-0.6103200211	 1.989211072	 1.3240195067	-0.09499
O	 0.1299305908	 3.1659207429	 1.5771835115	-0.233706
C	 1.4799081252	 2.8147088382	 1.351556579	-0.094996
C	 1.4755016566	 1.9710290531	 0.0432090177	-0.214911
C	 2.5578150653	 1.0066961355	-0.0154444865	 0.354808
C	 3.4787755376	 0.2353176342	-0.0454381816	-0.471512
H	-0.3886473107	-2.3022613976	-0.1389701899	 0.197746
H	-0.5120484026	 1.8303528829	-0.8364355015	 0.117428
H	-1.6629365795	 2.2576069701	 1.217162396	 0.121641
H	-0.5049892386	 1.2679745623	 2.1482268596	 0.106668
H	 2.0673102986	 3.7307758633	 1.2664911929	 0.121646
H	 1.8769429587	 2.2085145987	 2.1795006171	 0.106665
H	 1.5653454521	 2.6515737126	-0.8090532495	 0.117426
H	 4.2841861721	-0.455726789	-0.0791255071	 0.197743
