18
gdb 59193	3.80943	1.06663	1.01356	3.3297	73.57	-0.2293	-0.0136	0.2157	1235.6237	0.145292	-438.99632	-438.987651	-438.986707	-439.029828	32.061	
C	 0.03102883	 1.3825781336	-0.1239273839	-0.325427
N	 0.022501597	-0.0554096485	 0.1058195728	-0.055099
C	 0.6847279011	-0.4066176124	 1.3543297322	-0.325427
C	-1.3023361586	-0.6032030986	 0.0286016712	 0.047408
C	-1.9256523384	-0.7533766308	-1.3918198212	-0.105516
O	-1.0107867895	-1.8902000879	-1.6576943666	-0.286424
C	-1.4223428616	-2.1312115251	-0.2532124876	-0.105527
C	-2.8487602016	-1.854528557	-0.8020843808	 0.468243
O	-3.9368377174	-2.3176166931	-0.8814910374	-0.306585
H	 1.0632971255	 1.7447531113	-0.1187328685	 0.126044
H	-0.4001616681	 1.6109097384	-1.1024345008	 0.123152
H	-0.5323848714	 1.9495094621	 0.6419816518	 0.095309
H	 0.1777058608	 0.0062561749	 2.2475966008	 0.095308
H	 0.733968142	-1.4935383204	 1.4625497283	 0.123154
H	 1.7092850198	-0.0233337105	 1.3419443	 0.126046
H	-1.997831831	-0.21933066	 0.800565967	 0.071484
H	-2.0692485968	-0.0206468324	-2.1822628472	 0.116929
H	-0.9874073218	-2.9823379737	 0.26517761	 0.116928
