17
gdb 98640	4.44237	0.88878	0.8259	5.6823	70.76	-0.2496	0.0129	0.2625	1400.3882	0.1355	-455.196	-455.186616	-455.185671	-455.231981	32.576	
C	 0.0213827333	 1.4764895423	 0.0761845822	-0.335191
N	-0.0541356836	 0.0271796386	 0.080315329	-0.313805
C	-1.2305262374	-0.6504536882	-0.016763085	 0.401543
O	-2.3190919661	-0.1155423506	-0.1263448979	-0.371273
C	-1.0814167049	-2.1730130108	 0.0060324454	-0.092561
C	-0.8501107333	-2.825123998	 1.4084469672	-0.399283
C	-2.2817798878	-3.3918813745	 1.228147398	 0.429362
O	-3.0517764806	-4.0126576985	 1.9036487144	-0.338749
N	-2.3560319731	-2.8827382893	-0.0567289704	-0.303525
H	 0.6427149389	 1.8385544097	-0.7499417372	 0.129895
H	-0.9941766738	 1.853314106	-0.0486198345	 0.175419
H	 0.4307800782	 1.858459298	 1.0177892232	 0.130774
H	 0.798300643	-0.5006109327	 0.1763145135	 0.250072
H	-0.3672915552	-2.4884136699	-0.7642644817	 0.100407
H	-0.0561869123	-3.5715406207	 1.4642336563	 0.134343
H	-0.7605547612	-2.1226486092	 2.2390305891	 0.141128
H	-3.181249104	-2.5736188621	-0.5527617917	 0.261447
