16
gdb 50291	2.92315	1.3621	1.17298	4.1677	69.27	-0.2365	-0.0369	0.1996	1064.04	0.12469	-437.869973	-437.862443	-437.861499	-437.902623	28.379	
O	-0.5604283892	 0.7457517241	 0.8857083035	-0.250267
C	 0.2332822592	 0.7613891263	-0.0179217318	 0.176162
C	 1.4372660864	 1.687026905	-0.0750894864	-0.082776
N	 2.6398009481	 0.943785875	-0.5775492809	-0.320922
C	 3.0496451864	 1.7656774494	-1.7369583066	-0.118834
C	 2.815862752	 3.2412605164	-1.2726433318	-0.258496
C	 1.3172910579	 2.784662487	-1.1667905663	-0.17216
C	 1.6792628281	 1.9579865206	-2.4257834591	 0.45983
O	 1.2009077916	 1.7572393273	-3.4981263267	-0.311578
H	 0.1494050605	 0.0801826819	-0.8934916171	 0.094854
H	 1.5798976248	 2.12340264	 0.9183773484	 0.098534
H	 3.365980635	 0.9365706095	 0.1302417291	 0.23457
H	 3.9407000433	 1.4166385056	-2.2520418415	 0.100395
H	 3.2985157131	 3.5328836532	-0.3367857626	 0.113031
H	 2.9797152893	 3.9872592892	-2.0527776944	 0.129193
H	 0.4754252634	 3.4705099495	-1.1180002458	 0.108463
