21
gdb 65923	3.24628	1.09836	1.08541	0.374	77.14	-0.2473	0.0628	0.3101	1227.6195	0.182198	-424.176526	-424.167471	-424.166527	-424.211317	32.982	
C	-0.0810193916	 1.6407664365	-0.0165681712	-0.477023
C	 0.0195366956	 0.1185316471	-0.0045042942	 0.271689
C	 1.0401398628	-0.5057756346	-0.9961408446	-0.114558
O	 1.6971293175	-1.2269377136	 0.0642498545	-0.274113
C	 0.9644062487	-0.4949001472	 1.0659564697	-0.114458
C	-1.3218251931	-0.6182053623	-0.0493905308	-0.069656
C	-2.4189108917	-0.1666079908	 0.944030343	-0.099787
O	-3.1988755441	 0.4170945554	-0.1191341987	-0.271021
C	-2.3467660816	-0.1746050024	-1.1207428554	-0.099951
H	 0.9177499058	 2.0866392596	 0.0208434064	 0.117229
H	-0.5731582907	 2.0099742	-0.9215437438	 0.127628
H	-0.6442058389	 2.0197473316	 0.8417452394	 0.12784
H	 0.6405375319	-1.1768431687	-1.7664338414	 0.099794
H	 1.710381777	 0.2240691195	-1.471269865	 0.093274
H	 1.5982411197	 0.2400941757	 1.5815307774	 0.093286
H	 0.5094109794	-1.1579869361	 1.8120746262	 0.099804
H	-1.1252455694	-1.6935885622	-0.0383713421	 0.087182
H	-2.9521938321	-0.9918587349	 1.4345497001	 0.099049
H	-2.1382795338	 0.5710973702	 1.704612015	 0.102353
H	-2.0137876275	 0.5573447907	-1.8656329415	 0.102394
H	-2.844535674	-1.0040426136	-1.640618993	 0.099046
