21
gdb 6551	3.04908	1.56015	1.40281	2.4895	74.77	-0.2438	0.0682	0.3119	1030.9142	0.186463	-366.240648	-366.231008	-366.230064	-366.274326	36.302	
C	 3.2699043374	-0.239479095	-0.3921312554	-0.385874
C	 2.0470510897	-1.0640427059	-0.0664965282	 0.002437
N	 2.1403987391	-2.0303424044	 1.0353225411	-0.33252
C	 1.1908865409	-0.9099440075	 1.1495629014	-0.076046
C	 1.3787721426	 0.148137338	 2.2549226959	 0.355167
C	 0.0675608142	 0.2684650464	 3.0493949794	-0.421262
C	 2.5353752968	-0.1745473968	 3.2001804433	-0.38517
O	 1.6952835595	 1.4280197437	 1.6837663396	-0.456191
H	 3.7676598427	 0.1235340243	 0.5058475756	 0.141354
H	 3.9822185285	-0.8402134882	-0.9687009648	 0.110696
H	 2.9959983982	 0.631855235	-0.9957444016	 0.109792
H	 1.5047983552	-1.3988525295	-0.9520737837	 0.075752
H	 1.6536483249	-2.8937758036	 0.8125614427	 0.228301
H	 0.1417928044	-1.159789125	 0.9861460685	 0.069747
H	-0.1952081654	-0.6809429604	 3.5281510264	 0.115207
H	 0.1634554152	 1.0360379645	 3.8217808439	 0.12031
H	-0.7620695189	 0.5502005363	 2.3894064827	 0.098985
H	 3.4758973251	-0.2853126346	 2.659913337	 0.130077
H	 2.6401553282	 0.6344339925	 3.9288843934	 0.111233
H	 2.3473121878	-1.1117028733	 3.7289089441	 0.115522
H	 1.020100354	 1.6308624737	 1.0275470487	 0.272484
