15
gdb 50415	2.24759	1.72746	1.12346	1.9202	71.57	-0.2408	-0.0395	0.2013	1054.935	0.1123	-416.782863	-416.774753	-416.773809	-416.816168	29.631	
O	 0.2297626101	-0.2034605346	 0.1772722141	-0.25534
C	 0.0787345036	 0.98244221	 0.0250163088	 0.161025
C	 1.2424235395	 1.9638497173	-0.0235849788	-0.113622
N	 2.5277456225	 1.2732067372	 0.0028729238	-0.298824
C	 3.0415411304	 1.3787397947	-1.2843634719	 0.068753
N	 2.4975310745	 2.202443895	-2.091579578	-0.231108
C	 1.3629333311	 2.8071803422	-1.3581163158	-0.171816
C	 0.1421536154	 2.8591188905	-2.1563939806	 0.334487
C	-0.8723572002	 2.9067959827	-2.7983356865	-0.443497
H	-0.9264119577	 1.4405748951	-0.0541137809	 0.108614
H	 1.1192960488	 2.6405029129	 0.8317945324	 0.117177
H	 2.4795568182	 0.3349134434	 0.3872509808	 0.255415
H	 3.9155723545	 0.7888944876	-1.5451037128	 0.135922
H	 1.6449019133	 3.8342944285	-1.0923292463	 0.127068
H	-1.7597025741	 2.9470866976	-3.3809728281	 0.205745
