21
gdb 89540	3.83344	1.10898	1.05609	1.663	82.79	-0.2265	0.0782	0.3046	1245.6282	0.182613	-387.033274	-387.024969	-387.024025	-387.066337	32.489	
C	-0.3564647149	 1.4629353434	-0.0258786715	-0.391844
C	 0.0381815776	-0.0092126234	-0.0245934363	 0.042059
C	 1.2739093259	-0.3532028986	-0.9205315485	-0.32028
C	 2.0953685066	-0.5352863165	 0.3586419714	 0.372623
C	 0.8401720846	-0.468330021	 1.2378842452	-0.335076
C	 3.3175373334	-1.3692838082	 0.6560936446	-0.231925
C	 4.3122796917	-1.2188759933	-0.4909443664	-0.088408
O	 4.2411223134	 0.2328297789	-0.4217930553	-0.286554
C	 3.3759472291	 0.1448276008	 0.7130599372	 0.025423
H	 0.5092618603	 2.1023256077	 0.1817730509	 0.117923
H	-0.7633789628	 1.7616689782	-0.9981687209	 0.114137
H	-1.1161674721	 1.6714495189	 0.7357392916	 0.111209
H	-0.8401377928	-0.6270344078	-0.2307936042	 0.067113
H	 1.1480344659	-1.2751564926	-1.496971754	 0.094145
H	 1.6185339306	 0.4364317928	-1.5937723729	 0.109474
H	 0.8627008808	 0.2380098936	 2.0744919271	 0.096254
H	 0.5239956421	-1.444346166	 1.6194023217	 0.097367
H	 3.3516000882	-2.1134205118	 1.4415611885	 0.094369
H	 5.323950053	-1.561759178	-0.2467768183	 0.107898
H	 4.0173499767	-1.6032451835	-1.4748794837	 0.105117
H	 3.5173338128	 0.8559552964	 1.5205522339	 0.098976
