20
gdb 86035	3.60048	0.94341	0.88874	3.639	80.35	-0.2268	0.0274	0.2542	1382.1773	0.17075	-399.313427	-399.303912	-399.302968	-399.347916	35.267	
C	 0.0393170973	 1.4962089258	 0.1876869304	-0.32111
N	 0.1462085729	 0.0582453476	 0.0971187716	-0.073154
C	 1.1150315616	-0.5279633026	-0.8458299244	-0.203897
C	 1.3468731531	-1.6782796943	 0.169716606	 0.285004
N	 0.5369071481	-2.8395983071	-0.1650279042	-0.557729
C	 2.801365691	-2.1198266392	 0.3801870136	-0.37512
C	 2.9357553519	-3.0135599106	 1.5304688357	 0.260054
N	 3.0035402029	-3.7155484483	 2.4463178881	-0.314838
C	 0.7464535802	-0.6858248199	 1.2196649335	-0.207721
H	 1.0073897112	 1.9907952486	 0.3976189855	 0.090191
H	-0.3518364988	 1.9003117661	-0.7520071501	 0.123962
H	-0.6596795037	 1.7665202074	 0.9859590333	 0.125527
H	 0.7117050876	-0.8087231217	-1.8244561283	 0.110747
H	 2.0182069533	 0.0902557065	-0.9882728699	 0.080901
H	 0.5182012882	-3.4904392651	 0.6171498931	 0.241309
H	-0.4222861751	-2.5404326886	-0.3174062692	 0.241268
H	 3.1506569594	-2.6451113835	-0.5152178319	 0.161319
H	 3.4472243357	-1.25040313	 0.5359723165	 0.145898
H	 1.525168237	-0.1147787254	 1.7545699573	 0.081975
H	 0.0359537461	-1.0897517655	 1.9488243634	 0.105413
