17
gdb 64751	2.63115	1.29644	1.13119	2.3209	74.31	-0.231	-0.028	0.203	1143.7773	0.132442	-421.796354	-421.787053	-421.786109	-421.830638	34.314	
O	 0.0427025945	 1.5482497595	 0.2005029809	-0.469942
C	-0.0217910221	 0.1625070622	 0.0058728712	 0.308756
C	 0.8351243841	-0.6025707165	 1.043074797	-0.407571
C	 2.2193393205	-0.1467377195	 1.0383885336	 0.274625
C	 3.3415368957	 0.2841530709	 1.0127341803	-0.419563
C	-1.4765160646	-0.3772408614	-0.1126399555	-0.282273
C	-1.123159227	-1.1241025931	-1.4346706103	-0.346659
C	 0.1982368539	-0.3371742138	-1.4553699312	 0.349821
O	 1.00898498	-0.0786899181	-2.2946718269	-0.292614
H	 0.9755287464	 1.8005392922	 0.1769426383	 0.293559
H	 0.3897266579	-0.4317076364	 2.0313004954	 0.144016
H	 0.7872448944	-1.6816905079	 0.8517825186	 0.133442
H	 4.343243522	 0.636655451	 0.9910985329	 0.205299
H	-1.8232451161	-0.9933190206	 0.718602268	 0.107939
H	-2.1721371612	 0.4483299675	-0.2687411652	 0.130706
H	-0.9654006131	-2.2003912571	-1.3115548235	 0.133008
H	-1.7751299855	-0.9680174292	-2.2968000436	 0.13745
