14
gdb 17424	3.12688	2.75893	1.87717	1.6805	62.16	-0.2579	0.0151	0.273	717.5167	0.107915	-378.654738	-378.648431	-378.647486	-378.684844	25.036	
O	 0.1111837584	 1.4346695954	-0.0951022102	-0.464491
C	 0.0040519374	 0.0753028219	-0.0466265978	 0.32327
C	 0.5057603884	-0.7965483859	-1.2230742335	-0.285859
C	-0.4521336253	-1.8666212766	-0.6937739253	-0.030063
C	-1.2924556759	-0.9032836467	 0.0210776793	-0.136165
N	-0.4255788403	-1.8655069431	 0.8234696156	-0.201894
C	 0.4028459509	-0.721173193	 1.1617896203	 0.350746
N	 1.0028569141	-0.3784344099	 2.2106254849	-0.572729
H	 0.2595025479	 1.7463658911	 0.8079291959	 0.304908
H	 0.1576652053	-0.4074559619	-2.1829235765	 0.124544
H	 1.578744656	-1.0088103037	-1.2610311337	 0.114867
H	-0.7231369487	-2.8120941545	-1.1433003831	 0.115815
H	-2.3474109285	-0.7801835803	 0.2184867047	 0.124362
H	 0.9858323202	-1.1250384227	 2.9087314495	 0.232689
