17
gdb 27773	1.95441	1.76353	0.93336	5.4529	82.	-0.1939	-0.0145	0.1794	1217.6757	0.137443	-418.093086	-418.084613	-418.083669	-418.126011	32.403	
C	-0.0274501915	 1.5129692119	 0.0275713753	-0.488417
C	 0.0049292038	 0.006393846	-0.0077837466	 0.379913
C	-0.0333846676	-0.6717763144	-1.1968248488	-0.380767
C	-0.0003333178	-2.1112367639	-1.2582922195	 0.435304
O	-0.0180855089	-2.8240012425	-2.2496520167	-0.411452
N	 0.0683367069	-2.7211230296	 0.0216036249	-0.422896
C	 0.1041584151	-2.067344076	 1.2157549139	 0.452786
N	 0.2407575711	-2.8599924003	 2.3454080125	-0.57949
C	 0.0667235247	-0.6968097124	 1.2281288917	-0.330143
H	 0.8684868896	 1.9098663139	 0.5186629519	 0.133927
H	-0.0845624182	 1.9372019746	-0.976936955	 0.13088
H	-0.889880878	 1.8708430254	 0.6016847019	 0.132256
H	-0.0829646349	-0.1533560821	-2.1461169331	 0.100186
H	 0.1539947133	-3.7279078819	-0.0120435486	 0.25032
H	-0.253995979	-3.7413777113	 2.3182027282	 0.255695
H	 0.070004989	-2.3683363549	 3.2104420561	 0.261419
H	 0.0795627425	-0.1655318325	 2.1714938718	 0.080478
