14
gdb 125561	3.47963	1.77321	1.18328	5.	68.76	-0.2284	-0.0126	0.2157	964.4516	0.103972	-429.055919	-429.048975	-429.048031	-429.087296	26.012	
C	-0.0158823385	 1.4834872645	 0.0680084921	-0.492459
C	-0.0106645931	-0.0005164653	 0.0148340973	 0.338633
N	-0.0419739137	-0.7563457684	-1.0639300744	-0.265886
N	-0.0243180954	-2.1084835536	-0.7165768189	-0.36305
C	 0.0177062497	-2.0940071826	 0.5880120403	 0.502707
N	 0.0572205698	-2.9205527575	 1.6907126074	-0.412057
C	 0.0885674732	-2.0866505056	 2.7859026709	 0.064152
N	 0.0729693701	-0.8153467477	 2.4864430302	-0.250532
N	 0.0285711395	-0.8352018188	 1.1085719223	-0.025233
H	 0.8824801893	 1.8706809082	 0.5606876103	 0.142486
H	-0.0514738851	 1.865277144	-0.9531866569	 0.159814
H	-0.883282577	 1.8623486821	 0.6191649775	 0.142481
H	 0.0618314033	-3.9249161408	 1.6893951281	 0.294755
H	 0.122969908	-2.4592940885	 3.7977116539	 0.164189
