20
gdb 9908	4.68431	0.88348	0.83589	2.6697	71.63	-0.2599	0.0784	0.3383	1419.9912	0.174814	-386.119837	-386.110259	-386.109315	-386.15483	34.016	
C	 0.2063526407	 1.5818959787	-0.3104858204	-0.462019
C	-0.0109661582	 0.0921907539	-0.1504842939	 0.432409
C	-1.4309418858	-0.4239473987	-0.3127746462	-0.267187
C	-2.400528399	 0.1113838231	 0.748713092	-0.167244
C	-3.7855467262	-0.5119362569	 0.6378922245	-0.0751
O	-4.6097436028	 0.0740037612	 1.6338702409	-0.421359
C	 1.1135080309	-0.8257956789	-0.3889950142	-0.232345
O	 0.709210667	-0.5019152556	 0.9436256727	-0.276063
H	 1.2621987354	 1.8305081659	-0.1794276382	 0.125754
H	-0.1101372891	 1.9166867974	-1.3044775567	 0.118237
H	-0.367146657	 2.145228093	 0.4318289264	 0.132825
H	-1.7921501002	-0.1632836845	-1.3170452545	 0.096244
H	-1.4045265648	-1.5186162778	-0.2600948556	 0.100367
H	-1.9988705166	-0.0927193902	 1.747301004	 0.123493
H	-2.5100535842	 1.1983659548	 0.6642805132	 0.107298
H	-4.1941078877	-0.3350966099	-0.3715602914	 0.080555
H	-3.7130437664	-1.6040372718	 0.7707110885	 0.085217
H	-5.4789084095	-0.3340542831	 1.5838006993	 0.284965
H	 0.9199952073	-1.8519573994	-0.7007566105	 0.106456
H	 2.0816284761	-0.4283484212	-0.6931592498	 0.1075
