17
gdb 8127	4.28194	1.72831	1.44815	3.0745	69.2	-0.2455	0.0262	0.2718	899.443	0.142977	-363.874716	-363.86754	-363.866596	-363.90594	27.976	
C	-0.3145773856	 1.5344864205	 0.083864903	-0.482379
C	 0.0695585957	 0.0778416206	-0.0036514207	 0.311155
C	-0.6854205464	-0.9654738764	 0.8077994464	-0.358169
C	 0.7555276108	-0.6631438571	 1.1104931103	 0.05951
O	 1.7084884991	-1.5644020399	 0.5811289695	-0.235448
C	 1.6766888207	-1.5376577673	-0.7919095439	 0.400481
N	 2.3383643949	-2.3121052666	-1.5350107054	-0.534092
C	 0.7357131302	-0.4416905656	-1.2687333135	-0.375023
H	 0.5344387388	 2.1834119518	-0.1593577855	 0.12248
H	-1.1268370658	 1.7722077421	-0.6123583849	 0.126166
H	-0.6581295367	 1.7946453437	 1.0899934147	 0.118913
H	-1.4318129282	-0.6013034879	 1.5060998294	 0.118197
H	-0.9137040797	-1.9273896404	 0.3588656069	 0.125485
H	 1.0782751552	-0.2194990441	 2.0444630958	 0.108874
H	 2.8942413056	-2.9595822021	-0.973766543	 0.223203
H	 0.0428074546	-0.8364364908	-2.0164122536	 0.137681
H	 1.320570597	 0.3469757294	-1.7551256053	 0.132965
