15
gdb 130342	4.88791	1.14031	0.96765	3.2612	68.09	-0.2283	0.0111	0.2394	1163.2726	0.115503	-450.103437	-450.095878	-450.094933	-450.135761	28.198	
N	 0.116404281	 1.4533326112	 0.412020811	-0.497987
C	 0.0491808504	 0.1014565979	-0.084123864	-0.120297
C	-1.3855454238	-0.5871293229	-0.0119071476	-0.169547
N	-1.2649480976	-0.7374280038	-1.4720827647	 0.074147
N	-1.649673857	-1.4189163456	-2.5855615581	-0.34714
C	-0.573868517	-1.1863360184	-3.3444491688	 0.408548
O	-0.5266390435	-1.6240307448	-4.6080365497	-0.398773
N	 0.4665441557	-0.4787444737	-2.7880926668	-0.4635
C	-0.0424984702	-0.2359837026	-1.5885426494	 0.320256
H	 1.07109721	 1.7959323685	 0.3879818884	 0.244841
H	-0.4378590411	 2.0780234143	-0.1661495126	 0.238687
H	 0.8058484354	-0.4992753088	 0.4275046063	 0.119384
H	-1.412966532	-1.5351573197	 0.5307033184	 0.142981
H	-2.2021826627	 0.0635298815	 0.3087788576	 0.136261
H	 0.3327602424	-1.3571960031	-4.9563928601	 0.31214
