22
gdb 59671	2.40756	1.38023	0.98335	2.4063	82.28	-0.232	0.0607	0.2927	1271.0263	0.193764	-404.312463	-404.302949	-404.302005	-404.346678	36.322	
C	 0.0083125529	 1.5584270127	-0.030140642	-0.407439
C	 0.0265794578	 0.0353913123	 0.0845517025	 0.103475
O	 0.713339648	-0.3906822335	 1.2683755393	-0.434727
C	-1.3636474105	-0.5839086646	 0.0337178912	-0.050825
C	-2.1933293271	-0.5274165068	-1.2859096235	-0.249765
C	-2.6317737811	-2.0034700697	-1.0500251623	-0.295051
C	-1.4993359916	-2.114362791	-0.0253766084	 0.359625
C	-0.4005293644	-3.1058708551	 0.00551205	-0.30716
N	-1.4357558761	-3.0766128074	 1.0653969682	-0.375206
H	 1.0247161752	 1.9576974339	 0.0266454037	 0.124831
H	-0.4392809199	 1.8778432012	-0.9764716375	 0.124988
H	-0.5817681101	 2.0021580688	 0.7820577658	 0.106202
H	 0.6241431481	-0.3801234579	-0.7361343389	 0.087846
H	 0.3044512683	 0.0571491933	 2.0176260522	 0.277177
H	-1.9601532268	-0.189165362	 0.870039497	 0.059643
H	-2.9807121669	 0.2261495359	-1.3458022902	 0.099723
H	-1.545605912	-0.4282245761	-2.162321329	 0.102898
H	-3.6153671768	-2.076122155	-0.5763922966	 0.108172
H	-2.6031788534	-2.6793079454	-1.9079189192	 0.101746
H	-0.4432518055	-3.9752833951	-0.6460400483	 0.108946
H	 0.5973693745	-2.7645014336	 0.261495461	 0.130811
H	-1.0395642827	-2.621147525	 1.8857464248	 0.22409
