17
gdb 43346	2.86693	1.75241	1.44275	2.5711	73.21	-0.2427	-0.0574	0.1853	934.4651	0.139126	-421.860432	-421.853666	-421.852722	-421.891556	27.123	
O	-0.0051723496	-0.034899037	 0.057874448	-0.34293
C	-0.0350502921	 1.1770065193	 0.005070717	 0.390085
C	-1.3026298608	 1.9505029452	 0.0080890785	-0.159137
C	-1.2808048976	 3.2874892354	-0.0830138697	-0.047397
C	 0.0444083686	 4.0245529768	-0.1774825034	 0.054181
C	 1.0253615952	 3.2044269562	-1.0207874354	-0.252189
C	 1.2271031859	 2.0385740116	-0.0307002058	-0.155489
C	 1.362089132	 2.8237192739	 1.301811619	-0.090012
O	 0.664865438	 4.0606003974	 1.119031814	-0.263599
H	-2.2214725925	 1.3791962353	 0.0928428251	 0.113204
H	-2.1987339686	 3.8674688047	-0.049633372	 0.11405
H	-0.0866952186	 5.0586375881	-0.5002427799	 0.085371
H	 0.6187298496	 2.8943545666	-1.9852416381	 0.116937
H	 1.9555955282	 3.7568035193	-1.1823648115	 0.111879
H	 2.0883825735	 1.4007368659	-0.2307361061	 0.094115
H	 0.9441904876	 2.277927971	 2.1556970406	 0.116714
H	 2.4148486112	 3.0440710302	 1.5147378799	 0.114217
