21
gdb 122909	4.71937	0.55012	0.50894	3.5697	81.62	-0.2567	0.0263	0.283	2154.2644	0.181183	-420.409437	-420.398446	-420.397502	-420.446933	37.815	
C	-0.1170332562	 1.5329016219	-0.0393411749	-0.384968
C	-0.0287626743	 0.0177670776	 0.0256699106	-0.030096
O	-1.3391839616	-0.5121537793	-0.0091453286	-0.245935
C	-1.3724520461	-1.9194366167	 0.0518057868	-0.056325
C	-2.8367934384	-2.3459313172	 0.0543039937	-0.194009
C	-3.0043538588	-3.8750546342	 0.0429303422	-0.136977
N	-2.3957629042	-4.4778827886	 1.2325403907	-0.493385
C	-4.4325219177	-4.2306502232	-0.1169276261	 0.257384
N	-5.5453581209	-4.5336573067	-0.2004228421	-0.320714
H	 0.8836474771	 1.974426361	-0.0149068797	 0.115537
H	-0.6141588477	 1.8491082279	-0.9607433015	 0.127475
H	-0.6889568637	 1.920621294	 0.8084236395	 0.127178
H	 0.5610412856	-0.3725918121	-0.8213190216	 0.085608
H	 0.48508797	-0.3024430587	 0.9478736642	 0.086741
H	-0.8505625371	-2.3585240929	-0.8176197471	 0.082145
H	-0.8616020389	-2.2892302296	 0.9525604298	 0.108728
H	-3.3376930138	-1.9288607047	 0.9354807315	 0.119924
H	-3.3356030627	-1.9219116438	-0.8224059663	 0.130419
H	-2.4765231922	-4.2769098922	-0.8312177984	 0.133079
H	-2.9026334208	-4.1811021104	 2.0625023731	 0.242254
H	-2.4763915777	-5.4895112823	 1.1928512342	 0.245938
