20
gdb 94241	3.08395	1.02122	0.96441	2.691	77.7	-0.256	0.0169	0.2729	1332.6457	0.168521	-440.267735	-440.257974	-440.25703	-440.302588	35.409	
C	-0.5064688329	 1.3408528995	-0.0072026632	-0.422451
C	 0.2089384369	 0.009302189	 0.0036671044	 0.126623
O	 1.5066507257	 0.0550547226	-0.643778417	-0.294668
C	 2.0880037266	-0.7810758953	 0.3713149563	-0.118777
C	 0.8568160047	-0.5690878636	 1.2882920577	 0.303633
C	 1.0653139912	 0.3952171967	 2.4455726355	-0.439084
O	 0.156071604	-1.7366053542	 1.7190103635	-0.228859
C	 0.8367997414	-2.6327210486	 2.4602817798	 0.113182
N	 0.2358935733	-3.6229313191	 2.9621728116	-0.441635
H	 0.0921148349	 2.1280719694	 0.457711424	 0.121747
H	-0.7108034517	 1.6361187263	-1.0409662394	 0.135138
H	-1.4641930461	 1.2638504383	 0.5176417222	 0.129465
H	-0.420149665	-0.766619636	-0.4546701956	 0.090768
H	 2.2062063023	-1.8205366456	 0.0364160662	 0.105327
H	 3.0507927483	-0.3946803464	 0.7235910822	 0.106271
H	 1.5618775172	 1.3072244744	 2.1042108729	 0.135544
H	 0.1075127462	 0.6633594387	 2.9001774736	 0.137771
H	 1.6938337287	-0.0595271654	 3.2180541669	 0.120574
H	 1.9093280762	-2.4132201395	 2.549857896	 0.090279
H	 0.896767238	-4.2101050614	 3.4668545223	 0.229152
