15
gdb 24449	3.53562	1.69408	1.1878	3.3474	66.69	-0.1965	0.0093	0.2057	971.4861	0.116659	-453.961198	-453.954731	-453.953787	-453.992066	25.53	
C	-0.0197078473	 1.398988581	 0.0823301976	-0.193947
C	 1.4319276251	 1.9248526159	 0.0018602459	-0.09047
O	 2.2447015567	 1.4484673837	 1.0806156179	-0.261859
C	 2.0018528929	 0.1342500016	 1.2956164793	 0.301108
C	 0.9744655842	-0.5684045267	 0.7583778258	 0.232423
N	-0.1040880003	-0.0719203034	 0.0335308798	-0.398408
O	 1.0508322667	-1.8456515835	 1.2484675728	-0.180376
C	 2.1535047189	-1.8173714391	 2.0438739878	 0.044816
N	 2.752165751	-0.6693033987	 2.1210092056	-0.326913
H	-0.4661871197	 1.7361507435	 1.0241546233	 0.136521
H	-0.6046852298	 1.8196711393	-0.7392242655	 0.11814
H	 1.8822615574	 1.6136393917	-0.9515001939	 0.107109
H	 1.4535415998	 3.0153009828	 0.0634330013	 0.123357
H	-0.1494813313	-0.4230747438	-0.9184338876	 0.239138
H	 2.4348623258	-2.7476281443	 2.5096005098	 0.14936
