19
gdb 77974	2.63174	1.56434	1.31678	2.4353	76.2	-0.2213	0.0023	0.2236	1050.3841	0.159176	-423.014271	-423.005851	-423.004906	-423.046528	33.522	
C	 0.0024963982	 1.5545324233	-0.0060189491	-0.488621
C	-0.023387539	 0.0454136702	 0.0228436967	 0.242518
C	-1.2907083865	-0.6865911763	-0.2738608364	-0.100506
C	-1.4372360488	-1.7799243285	 0.4728834255	-0.134481
C	-0.273333603	-1.9670289349	 1.4292096825	 0.043194
O	 0.445401712	-3.2022286082	 1.200021157	-0.43649
C	 0.6491111164	-0.7918048827	 1.1143163607	-0.170553
C	 1.2457830749	-0.7551975513	-0.2719848754	 0.089342
O	 1.2750960109	-1.8666390256	-1.1004168516	-0.430284
H	 0.9990951218	 1.9358932916	 0.2379903906	 0.117703
H	-0.2605104286	 1.9334110877	-1.0005996627	 0.121499
H	-0.7041612044	 1.9846257697	 0.7132698234	 0.117643
H	-1.9755641337	-0.3573554272	-1.0484201922	 0.100386
H	-2.2459684809	-2.499850587	 0.3996385992	 0.090421
H	-0.5955898091	-1.9504238861	 2.4806444987	 0.080926
H	-0.1838084564	-3.9286507768	 1.2632699095	 0.288216
H	 1.1929948056	-0.3318930329	 1.931267634	 0.085191
H	 2.1375114698	-0.1368378404	-0.3746544021	 0.089416
H	 1.1089909707	-2.6378615447	-0.5393295981	 0.294479
