10
gdb 132041	2.44453	1.87098	1.05982	4.2713	52.56	-0.2735	-0.0641	0.2094	959.3036	0.052827	-557.833494	-557.826763	-557.825818	-557.865145	24.174	
F	 0.0925422025	 0.0454162165	 0.0019612664	-0.007621
C	-0.0429880071	 1.3432214478	 0.0109058398	 0.280942
C	-1.213146165	 2.0033056113	 0.0306497603	-0.083712
F	-2.3602032746	 1.344614054	 0.0428839121	-0.028107
C	-1.2273476562	 3.4702150796	 0.0388650618	 0.332998
O	-2.2376184243	 4.127020684	 0.0563781962	-0.322794
N	 0.0671704115	 4.0652084024	 0.0242284419	-0.293802
C	 1.101205244	 3.3374184301	 0.0059300638	 0.131103
O	 1.1450711695	 1.9697895114	-0.0020893234	-0.181133
H	 2.1105799197	 3.7346819429	-0.0057412688	 0.172127
