21
gdb 113871	5.70349	0.55274	0.53414	1.2267	88.94	-0.2409	0.0606	0.3015	2104.6096	0.18022	-387.045957	-387.035027	-387.034083	-387.084139	37.737	
C	-0.0895911679	 1.4386958272	-0.425496827	-0.496479
C	-0.0448680645	 0.0205042698	-0.0979039124	 0.091783
C	-0.00182725	-1.1522039634	 0.171580998	 0.050869
C	 0.0195056569	-2.5754681352	 0.5030360199	-0.388047
C	-1.336188636	-3.2416466499	 0.2910953683	 0.001178
C	-1.7215681483	-3.818438384	-1.0456958672	-0.274187
C	-1.5085915149	-4.7360898528	 0.1345352208	-0.005204
C	-0.3587165831	-5.708244737	 0.1596725385	-0.094525
O	-0.7640556337	-6.8761857392	-0.544467189	-0.421892
H	 0.6230835664	 1.6884555692	-1.2195450785	 0.145049
H	-1.0857581952	 1.7359806766	-0.7719847593	 0.145948
H	 0.1551976493	 2.0585368702	 0.4443878519	 0.144556
H	 0.7850531586	-3.0765856458	-0.1015257675	 0.122322
H	 0.3327961502	-2.6999842669	 1.5490213027	 0.123762
H	-2.1322773484	-2.7458075886	 0.8391274547	 0.092497
H	-2.7284756991	-3.6655014599	-1.417128631	 0.111412
H	-0.9605973899	-3.8284552063	-1.82042953	 0.112671
H	-2.4073378509	-5.1485179707	 0.5854650001	 0.089849
H	 0.5350576476	-5.26278562	-0.3038293658	 0.079818
H	-0.0969095461	-5.9515423086	 1.2026278584	 0.085
H	-0.063236011	-7.5300654448	-0.4633671256	 0.28362
