15
gdb 27549	5.62154	0.96487	0.86893	2.8437	68.43	-0.2086	0.0204	0.2289	1281.9586	0.113644	-453.952666	-453.944914	-453.943969	-453.985379	28.785	
N	 0.6726122936	 1.2441252279	 0.48573334	-0.590653
C	 0.1424066295	 0.0041273502	 0.2403155289	 0.456996
N	-0.6780433893	-0.6741354339	 0.9829580678	-0.39546
C	-0.817010933	-1.8830352648	 0.2965830742	 0.254293
C	-0.0667370155	-1.858276504	-0.8261353097	-0.138803
O	 0.5657784521	-0.6264305189	-0.8754890696	-0.18132
C	-1.6750677784	-2.967871837	 0.807799941	-0.045457
C	-2.8722513964	-3.4270429588	 0.0786492621	-0.16506
O	-1.661601778	-4.1819126231	 0.0552348535	-0.229977
H	 0.9309628276	 1.7676763547	-0.3374087064	 0.266021
H	 0.1404225152	 1.7766427319	 1.157313989	 0.272356
H	 0.1437703412	-2.5461479804	-1.6236566203	 0.154797
H	-1.6624465971	-3.0920446988	 1.8904441106	 0.108039
H	-3.6963202941	-3.8811067098	 0.6275684306	 0.117802
H	-3.1367995474	-2.9383638853	-0.8572627917	 0.116426
