21
gdb 76424	2.86209	1.06277	0.95934	0.9378	84.8	-0.242	0.0426	0.2847	1349.9576	0.178879	-387.049512	-387.038866	-387.037922	-387.084903	39.289	
C	-0.205688233	 0.9294798513	-1.9047882794	-0.419961
C	-0.0553730035	-0.2494631765	-0.9687993339	-0.072912
C	 1.2938711063	-0.6610741991	-0.3809118552	-0.083694
C	 2.58405528	 0.062432092	-0.7030211786	-0.408882
C	 0.2461963363	-0.0455586087	 0.5034202574	 0.3877
O	 0.5277426038	 1.2519661146	 0.9489204669	-0.466179
C	-0.4637619609	-0.8976603416	 1.5519933326	-0.403149
C	-1.7287356432	-0.2912687588	 1.9610524835	 0.279132
C	-2.7461989334	 0.2702437188	 2.2716778636	-0.44296
H	 0.3406662415	 1.801396233	-1.539528792	 0.130508
H	 0.160121702	 0.6919776267	-2.9096409955	 0.114933
H	-1.2595795245	 1.2146904529	-1.9967096853	 0.11504
H	-0.722131397	-1.0791828765	-1.1937712243	 0.077319
H	 1.418297905	-1.7348679978	-0.2552341873	 0.077967
H	 2.4509054417	 1.1449473495	-0.7105431155	 0.13651
H	 3.3503573484	-0.1670020604	 0.0451307867	 0.116876
H	 2.9712075074	-0.2457382573	-1.6803511832	 0.112354
H	-0.3162187072	 1.6624549656	 1.1772224206	 0.287105
H	-0.640202112	-1.9039084427	 1.154932728	 0.127808
H	 0.1884643826	-1.0080731547	 2.4280384199	 0.135687
H	-3.6575126304	 0.7342810795	 2.557759071	 0.198797
