22
gdb 59179	2.53335	1.35958	1.05213	1.6589	82.89	-0.2408	0.0681	0.3089	1241.9173	0.193594	-404.27772	-404.268399	-404.267455	-404.311592	36.083	
C	-0.0447845774	 1.4294767807	-0.006148279	-0.385679
C	 0.0755993208	-0.0928432009	-0.1666825986	-0.035063
C	 0.8882198526	-0.4728448585	-1.4154952334	-0.393442
C	 0.738375247	-0.6986861949	 1.0628987275	 0.070506
N	 0.0324397999	-0.5968605839	 2.4433357579	-0.15967
C	-0.8291029466	-1.785272497	 1.9886220857	-0.248871
C	 0.5902084581	-2.1697152612	 1.4986645467	 0.325488
O	 1.0209182941	-3.2522092252	 0.7471487879	-0.467497
C	 1.0458075312	-1.6601528278	 2.890716371	-0.232547
H	 0.945280448	 1.892043396	 0.0846729245	 0.110196
H	-0.5410973532	 1.8753796539	-0.8742053642	 0.10672
H	-0.6154832224	 1.6855900262	 0.8907016293	 0.132196
H	-0.9331855062	-0.5007387626	-0.2932809453	 0.074195
H	 1.9049755265	-0.0658284953	-1.3599022757	 0.111287
H	 0.9674951542	-1.5587650091	-1.5213096209	 0.134261
H	 0.420387895	-0.0709247058	-2.3200081915	 0.108749
H	 1.7621158016	-0.3101129095	 1.1379578422	 0.066911
H	-1.2503433558	-2.3497572013	 2.8253795855	 0.094414
H	-1.6006270905	-1.5348086433	 1.2615813183	 0.108217
H	 0.8099724622	-4.0650286221	 1.2200417297	 0.282004
H	 2.0650478737	-1.279627759	 2.9944917817	 0.103395
H	 0.7239672872	-2.2120800394	 3.7780677408	 0.09423
