17
gdb 2804	3.96982	2.2858	1.66922	2.4748	60.55	-0.2471	0.078	0.3251	788.2389	0.147951	-346.829695	-346.822193	-346.821249	-346.861198	27.509	
C	 0.1070278762	 1.2202451181	 0.1984052273	-0.235826
O	-0.2204092876	-0.0850582607	-0.2225219852	-0.264266
C	 0.5798693483	-0.572385882	-1.2830894891	 0.08873
C	 1.9209656315	-1.1923503952	-0.8024913107	-0.25282
C	 1.1960054113	-2.5589251043	-0.6496097817	-0.253578
C	 0.0789499494	-2.0130966273	-1.5890772052	 0.153825
O	-1.2647470608	-2.2931736795	-1.3348270077	-0.437491
H	 1.1317612313	 1.282328842	 0.5916367808	 0.111644
H	 0.0080945382	 1.9426597189	-0.6258505445	 0.110866
H	-0.5915703878	 1.4902465277	 0.9939526237	 0.129675
H	 0.6091652962	 0.1605140403	-2.1014933524	 0.059521
H	 2.6706448469	-1.1966515573	-1.5985877158	 0.104515
H	 2.3651787417	-0.7549345635	 0.0941659423	 0.104334
H	 1.7244091216	-3.4626107343	-0.9600295906	 0.097281
H	 0.8101134301	-2.6988842137	 0.3631501067	 0.107989
H	 0.2840808189	-2.2806751896	-2.6304483868	 0.085556
H	-1.5157285155	-1.7224018797	-0.5965894212	 0.290046
