20
gdb 107323	2.54526	1.54211	1.17041	2.8427	79.96	-0.2286	0.0162	0.2447	1115.5311	0.171232	-403.125272	-403.116507	-403.115563	-403.15851	33.743	
C	-0.1663502917	 1.5261579303	 0.0061342581	-0.397327
C	-0.0058836748	-0.0003656068	-0.0477916273	-0.070141
C	 0.8714366449	-0.4883538576	-1.1886911232	-0.084204
C	 1.8794892239	-1.2596464843	-0.7772646148	-0.062111
C	 1.8675073135	-1.3814408846	 0.7107434954	-0.158774
N	 2.0573493592	-0.0681348207	 1.3904350559	-0.35965
C	 0.691603707	-0.6001608375	 1.1849989568	 0.351116
C	-0.1243246731	-1.0215461625	 2.3713536456	-0.197574
O	-0.6457390767	 0.1445227583	 3.0006347121	-0.413499
H	 0.809067639	 1.9981673827	 0.1464073314	 0.137323
H	-0.6100163602	 1.9063739905	-0.9200648207	 0.099511
H	-0.8104187484	 1.8081061171	 0.8427250676	 0.12822
H	-1.0077298485	-0.4476507371	-0.1382751189	 0.071711
H	 0.6888735066	-0.1896243535	-2.2158324636	 0.092481
H	 2.6369016733	-1.7115086811	-1.4063815701	 0.096692
H	 2.2125463308	-2.2806573115	 1.2121256076	 0.083601
H	 2.3175149862	-0.2299277215	 2.3632519888	 0.224871
H	-0.9383042899	-1.6854001233	 2.0389910232	 0.091814
H	 0.5078692514	-1.5985665068	 3.0673935727	 0.077146
H	-1.2698036625	-0.1327438102	 3.6780373535	 0.288795
