13
gdb 129865	5.43234	1.29594	1.04734	5.1731	69.18	-0.2008	-0.0098	0.1909	1040.7121	0.091476	-452.732651	-452.725977	-452.725033	-452.763567	25.972	
N	 0.0634015199	 1.3454784213	 0.1767759318	-0.589022
C	-0.0713930116	-0.0178947148	 0.061947589	 0.413788
C	-1.1788050228	-0.8365593954	 0.0201054969	-0.478925
C	-0.6100623404	-2.1427323226	-0.007432754	 0.41281
C	 0.7492794844	-2.0235561445	 0.0143493461	 0.178438
O	 1.1142027777	-0.7027994118	 0.0585208274	-0.22813
C	 1.2463847691	-3.3326075472	-0.0273967385	-0.111789
N	 0.2439132685	-4.1953979745	-0.0690706523	-0.159241
O	-0.9591320135	-3.4284605215	-0.0572524649	-0.237056
H	 0.9297596477	 1.7048915741	-0.2001152594	 0.267591
H	-0.7402166835	 1.871546965	-0.1328665192	 0.267471
H	-2.2089427702	-0.5245174446	 0.0129998936	 0.125181
H	 2.2563429547	-3.7140429536	-0.0283771165	 0.138884
