20
gdb 112943	4.19861	0.87399	0.77554	3.	75.73	-0.2332	0.0316	0.2648	1502.9952	0.170319	-440.313931	-440.304229	-440.303285	-440.349492	35.137	
C	-1.1369308796	 1.1489962326	-0.3820094494	-0.383319
C	-0.0061854948	 0.1827962203	-0.0180925755	-0.189099
C	 0.8929011363	-0.134265857	-1.1980730929	 0.16569
C	 1.8985620092	-1.2980425862	-1.0606878414	-0.314662
C	 1.1393513396	-1.9180885075	-2.2530369612	 0.048506
O	 0.1798689222	-0.8353589954	-2.2631994257	-0.321612
C	 1.9462854328	-2.0501749326	-3.5433468472	 0.354798
N	 1.5736686008	-1.1787792884	-4.512941663	-0.515525
O	 2.8385793067	-2.8710324359	-3.641324746	-0.373314
H	-0.7414801332	 2.113772762	-0.7186697535	 0.113636
H	-1.7476183636	 0.7351813047	-1.1896002757	 0.135184
H	-1.7885622691	 1.3362144404	 0.4762463607	 0.115578
H	 0.6179835625	 0.6061887786	 0.7803212418	 0.100364
H	-0.4225738029	-0.7558072762	 0.3681899612	 0.101199
H	 1.3371529867	 0.7896389822	-1.5945044775	 0.076633
H	 2.9476602983	-1.066194624	-1.2441583271	 0.127695
H	 1.8086717204	-1.8583596494	-0.1286280961	 0.114979
H	 0.6615669732	-2.8845019498	-2.0587361455	 0.110859
H	 0.7942041624	-0.5641533578	-4.3443827619	 0.271392
H	 2.016293682	-1.2221865106	-5.4151697241	 0.261018
