19
gdb 31338	3.75335	1.21161	0.9356	1.4502	86.13	-0.1636	0.0523	0.2159	1267.8845	0.161348	-382.057252	-382.048826	-382.047881	-382.090841	31.524	
C	 0.0559217999	 1.4240151842	 0.0923358631	-0.3184
N	-0.1721657518	-0.0012358324	-0.0692651568	-0.388309
C	 0.5472593601	-0.6633768087	-1.0774108982	 0.114189
C	 0.7176177322	-2.0237468327	-1.2507222145	 0.240959
C	 0.374796806	-3.4955864856	-1.0912754555	-0.379895
C	 1.147140231	-3.6782943843	-2.453620142	-0.164784
N	 1.4404127879	-2.2357837166	-2.3966834494	 0.017454
C	 1.7280171017	-1.0635596864	-3.0222644791	-0.155717
C	 1.2225802529	-0.065392959	-2.195778081	-0.215231
H	 1.1139584967	 1.6962402459	 0.2453655165	 0.103262
H	-0.3005062151	 1.960109093	-0.7938303928	 0.129407
H	-0.5219511904	 1.7825070968	 0.9483261815	 0.113876
H	-0.1202865232	-0.4913956374	 0.8124949985	 0.226787
H	 0.8198823253	-4.0212086536	-0.240478897	 0.11182
H	-0.6871584405	-3.7526733733	-1.1461032688	 0.119803
H	 2.0358701245	-4.3156300087	-2.431356918	 0.119024
H	 0.5110211499	-3.9626829625	-3.2968071185	 0.125573
H	 2.300784182	-0.9982248951	-3.9330558033	 0.112834
H	 1.3526731009	 0.9933400865	-2.3606397547	 0.087348
