20
gdb 56886	2.35902	1.33471	1.07352	3.6624	78.84	-0.2586	0.0345	0.2931	1228.052	0.169939	-403.160333	-403.150794	-403.14985	-403.194956	34.769	
C	-0.2016284833	 1.5394132994	-0.1849051608	-0.393405
C	-0.0418734868	 0.0151984913	-0.0212272315	-0.164909
C	-1.3499159979	-0.647686876	 0.0017971485	 0.290139
N	-2.3751691061	-1.1812425507	 0.0239729984	-0.341489
C	 0.8547041043	-0.5616037265	-1.1309866071	 0.16077
C	 0.9214397472	-2.0839983679	-1.363082078	-0.344743
C	 0.4882995845	-1.7382449568	-2.8077522449	 0.1771
C	-0.773412246	-2.3616888675	-3.3635875181	-0.411138
O	 0.3088916602	-0.3385031977	-2.4411547425	-0.308993
H	 0.7774932906	 2.021663259	-0.1131351209	 0.124188
H	-0.630052605	 1.7647880644	-1.1636467508	 0.160126
H	-0.8508320817	 1.9533083735	 0.5897318105	 0.135329
H	 0.445330696	-0.1992675035	 0.9396660914	 0.125572
H	 1.8419555399	-0.0872404948	-1.0276334936	 0.078753
H	 1.9019716031	-2.5457269056	-1.2426017132	 0.110383
H	 0.1753678609	-2.6560073036	-0.8075054656	 0.130265
H	 1.3110617672	-1.8255087395	-3.5301614567	 0.078181
H	-1.5933284186	-2.2897258003	-2.6440549196	 0.150325
H	-1.0734380266	-1.854330218	-4.2859961201	 0.127157
H	-0.599258912	-3.4178779993	-3.5976793654	 0.11639
