17
gdb 88331	3.0776	0.90572	0.85177	1.9263	71.33	-0.2545	-0.0495	0.205	1402.952	0.131939	-458.964225	-458.954662	-458.953718	-459.000496	32.92	
C	 0.4646606589	 1.4646185514	-0.4798265791	-0.434678
C	-0.1113481321	 0.1675145335	 0.019412943	 0.08826
O	 0.736009552	-0.9706572992	 0.0325017645	-0.226077
C	 0.290295188	-0.4963554081	 1.2946434048	-0.061751
C	 1.3117252217	 0.1218156285	 2.2061213655	 0.355586
O	 2.4072906946	 0.4724602456	 1.831270543	-0.311528
C	 0.8725300874	 0.3316640689	 3.654675744	-0.388459
C	 1.1358008447	 1.7649069015	 4.1009226511	 0.162805
O	 0.3575621179	 2.4145716418	 4.7456935466	-0.230464
H	 1.4703576314	 1.6227753411	-0.0890440938	 0.163176
H	 0.5146973411	 1.4437863038	-1.5733636024	 0.136771
H	-0.178055322	 2.3027334509	-0.1906684174	 0.126466
H	-1.1318604743	-0.0484390879	-0.3046854952	 0.10419
H	-0.4511023821	-1.1247783783	 1.7896436484	 0.106001
H	-0.1720113091	 0.074418108	 3.8418054504	 0.131725
H	 1.5078335926	-0.3172719724	 4.2738217344	 0.164925
H	 2.1182409492	 2.1629190308	 3.7753504723	 0.11305
