15
gdb 27331	3.32485	1.36526	0.96881	3.0485	74.35	-0.1975	-0.009	0.1885	1134.1372	0.11425	-453.976855	-453.969081	-453.968137	-454.008752	30.624	
N	 0.0347643713	 1.3604164675	 0.1508114283	-0.586904
C	-0.0095238611	-0.0160776848	 0.0534200117	 0.219133
C	-1.1400448842	-0.7480818918	 0.0268697379	-0.065122
O	-1.1402883926	-2.1319358062	-0.0119905615	-0.24052
C	 0.0373485809	-2.7655240702	-0.0153740522	 0.475748
O	-0.1006839176	-4.0992715391	-0.0410604392	-0.408435
C	 1.2329751939	-2.1385995351	 0.0006211566	-0.370887
C	 1.3054646602	-0.6966607888	 0.0170060374	 0.295621
N	 2.3545821162	 0.0539692557	-0.0072391908	-0.575693
H	 0.9601229345	 1.7065483156	-0.0785555615	 0.268366
H	-0.7262403634	 1.8749031371	-0.2636939341	 0.242805
H	-2.1487689223	-0.3628832295	 0.0413932319	 0.121035
H	-1.044652325	-4.3020363992	-0.0446276171	 0.309032
H	 2.1340143551	-2.7379099093	-0.0145754174	 0.108039
H	 3.2064277141	-0.5060441419	-0.0400601801	 0.207783
