13
gdb 50484	4.38208	0.99569	0.90834	3.7023	66.66	-0.2733	-0.0732	0.2001	1218.2496	0.089057	-452.765726	-452.757899	-452.756955	-452.799156	26.96	
O	-0.673836729	 0.7508282368	 0.6683938194	-0.223977
C	 0.2068861685	 0.8993664642	-0.1351339979	 0.155655
C	 1.3263753313	 1.9338128225	 0.016833336	-0.105715
C	 1.4365217945	 2.5347117831	 1.4357478857	-0.13153
O	 2.7509043557	 2.1057689085	 1.88642303	-0.245919
C	 3.2802549316	 1.4284435796	 0.8481762251	 0.333171
N	 2.6222375379	 1.2790221461	-0.2314299277	-0.315049
C	 4.6038999539	 0.9112838843	 1.0580950872	 0.29117
N	 5.668895851	 0.4983452717	 1.2275507942	-0.304256
H	 0.2782900963	 0.2932057133	-1.0604044316	 0.11732
H	 1.157271159	 2.6924787173	-0.7593099125	 0.129397
H	 1.4145511465	 3.6253699306	 1.4578360549	 0.138832
H	 0.6817904728	 2.128409742	 2.1119920671	 0.160899
