25
gdb 57405	2.69966	1.18973	1.18092	0.2224	91.93	-0.2429	0.076	0.3189	1271.7787	0.228672	-352.32676	-352.317112	-352.316168	-352.360683	38.521	
C	-0.1572549344	 1.5487297933	 0.4109367429	-0.417045
C	 0.0054538857	 0.0433140412	 0.134207274	 0.224932
C	 0.7293964845	-0.6167259596	 1.3244221225	-0.390823
C	-1.4097979468	-0.5606415561	 0.0059037462	-0.39987
C	 0.7726430754	-0.3300389682	-1.1502770009	 0.03912
C	 1.0325133632	 0.4066534342	-2.4383933018	-0.10744
C	 1.5277359782	 1.8542424094	-2.278865466	-0.222068
C	 2.6906953982	 1.3524645174	-1.3673561557	-0.229934
C	 2.2014882544	-0.0905936241	-1.5570131304	-0.098657
H	 0.7979748663	 2.0631019413	 0.5330173474	 0.114152
H	-0.716829537	 2.0442897048	-0.3873184482	 0.116057
H	-0.7221332095	 1.687396855	 1.339773938	 0.103199
H	 0.1687011564	-0.4735098201	 2.2550196722	 0.102854
H	 0.8458662663	-1.6947003373	 1.1669625333	 0.104955
H	 1.728993006	-0.1918818604	 1.461850128	 0.112693
H	-1.9331185336	-0.151203381	-0.8649447254	 0.112016
H	-1.3690359738	-1.6493814044	-0.1091204524	 0.105556
H	-2.0114689891	-0.3414988381	 0.8947857899	 0.104215
H	 0.5323052878	-1.3662127348	-1.3978599813	 0.078568
H	 0.6848796915	-0.000086983	-3.382094605	 0.078863
H	 1.9111585822	 2.243542833	-3.2251554692	 0.098083
H	 0.8337208826	 2.5895343667	-1.8684437087	 0.095747
H	 3.6670733085	 1.5189922953	-1.8285238923	 0.100109
H	 2.7366945655	 1.72954103	-0.3420436736	 0.097296
H	 2.8664901013	-0.9285846244	-1.7361332535	 0.077422
