24
gdb 100048	2.35962	1.26994	1.06164	2.2017	86.26	-0.215	0.0792	0.2942	1304.853	0.214189	-405.501217	-405.490247	-405.489303	-405.537049	40.667	
C	 1.4004309645	 1.562068073	-0.2571776278	-0.241609
O	 1.198016784	 0.1753151935	-0.4112322977	-0.275782
C	 1.5128266156	-0.418119548	-1.6837477713	 0.348607
C	 0.7035702501	 0.24050592	-2.8185315697	-0.431272
C	 3.0126616493	-0.293228059	-2.0003345496	-0.442932
C	 0.9835025583	-1.853515755	-1.5400212375	 0.001922
C	 1.7647455919	-3.08646913	-1.863677704	-0.264335
N	 1.3329566707	-2.8168597288	-0.5030071203	-0.084691
C	 2.3210956702	-2.5463447092	 0.5292578315	-0.311215
H	 2.4507572525	 1.8586202807	-0.3871880873	 0.104158
H	 0.7844698329	 2.1609717221	-0.9422072667	 0.105826
H	 1.1030319027	 1.8026442355	 0.7669687925	 0.12745
H	 1.0586753737	 1.250512638	-3.0402284016	 0.112516
H	 0.7964327917	-0.351522141	-3.7341934776	 0.122918
H	-0.3553904094	 0.2939834863	-2.5498679107	 0.12489
H	 3.6377178683	-0.6907236282	-1.1992221296	 0.127106
H	 3.2541763248	-0.82373598	-2.9250319915	 0.121169
H	 3.2854940867	 0.7555856074	-2.1501117628	 0.114007
H	-0.0853557135	-1.8840014557	-1.7504092789	 0.084927
H	 1.2922798956	-3.9265216373	-2.3689558839	 0.107019
H	 2.8226698228	-2.9654634253	-2.0926754833	 0.102131
H	 3.2792146145	-2.1488383537	 0.1641072131	 0.097046
H	 1.9067665176	-1.8308965652	 1.2422250027	 0.135924
H	 2.5315310948	-3.48496842	 1.0533889819	 0.114219
