17
gdb 125141	2.94388	1.35026	0.99767	2.7019	77.15	-0.2343	-0.0157	0.2186	1184.2525	0.136985	-417.981048	-417.972847	-417.971903	-418.014729	29.685	
C	-0.3272677801	 1.5375996322	 0.1709878593	-0.516286
C	-0.0559923618	 0.0718885994	 0.0378623373	 0.040266
C	 0.2000175386	-0.6671259318	-1.0822107732	 0.385983
O	 0.3865806282	-1.962746931	-0.7491809835	-0.238953
N	 0.2569140156	-2.1093647394	 0.6314148212	-0.144964
C	 0.0006736051	-0.9056264487	 1.0739546118	-0.020041
C	 0.2904920949	-0.3286503882	-2.5084242891	-0.113122
C	 1.2473177942	-1.0532862403	-3.3965335559	-0.233243
N	-0.1942933864	-1.2787008235	-3.5322497604	-0.317097
H	 0.4867446016	 2.0543158118	 0.6919051289	 0.139078
H	-0.4449105465	 2.012620945	-0.8062684477	 0.135032
H	-1.2447418959	 1.7223212941	 0.7396510022	 0.138486
H	-0.1440560174	-0.7608291672	 2.1363893679	 0.13158
H	 0.0624091776	 0.709809842	-2.7280123395	 0.101656
H	 1.7105848139	-0.5192152741	-4.2212359971	 0.126179
H	 1.8574889421	-1.8273805318	-2.9411135794	 0.135741
H	-0.4446427735	-2.1531508485	-3.0750665429	 0.249704
