17
gdb 95113	2.49327	1.57014	1.17272	4.2496	72.98	-0.2612	0.0109	0.2722	1066.8926	0.138001	-418.008242	-418.000344	-417.9994	-418.04068	30.373	
O	 0.0658127011	 1.3965336306	-0.1101915599	-0.429584
C	 0.0331077861	-0.0094862072	-0.0924809145	 0.09265
C	 0.7510069317	-0.6481627915	 1.1279770697	-0.258537
C	 0.0149997453	-1.9693057159	 1.4332843371	-0.223369
C	-1.4024859865	-1.7270972728	 0.9451579725	-0.072736
N	-1.951818198	-0.4213180275	 1.3487342781	-0.375058
C	-1.3847650347	-0.5887227928	-0.0195665848	 0.179317
C	-2.2573832118	-0.5310031389	-1.156038387	 0.189284
N	-2.9607280619	-0.4760764188	-2.0731829096	-0.337906
H	-0.4102692624	 1.697001589	 0.6740760593	 0.290474
H	 0.4948113769	-0.3280712482	-1.0326636385	 0.109301
H	 1.8166517022	-0.7886180751	 0.937806991	 0.113673
H	 0.6552872828	 0.0395823211	 1.9718832176	 0.119985
H	 0.4412347544	-2.8050844377	 0.8673507198	 0.115861
H	 0.0502224347	-2.2364204071	 2.4937021147	 0.118378
H	-2.0887468582	-2.5557316793	 0.8052229546	 0.114799
H	-2.9677545918	-0.4459259979	 1.2951124499	 0.253467
