15
gdb 131468	3.28226	1.60787	1.1307	1.3386	72.74	-0.2114	-0.0249	0.1865	1012.3077	0.11617	-416.815956	-416.809078	-416.808134	-416.847218	26.994	
O	 0.139711781	 1.4145728763	-0.2215124364	-0.417999
C	 0.0313658389	 0.0110822346	-0.0460115643	-0.062814
C	 0.6437981105	-0.53803956	 1.2506108483	-0.143157
C	-0.2353674575	-1.2904977031	 1.9371367548	-0.20756
C	-1.5142935323	-1.3166657635	 1.2130608869	 0.208868
C	-1.3685263115	-0.5441790108	 0.0785918795	 0.324143
N	-2.544773156	-0.5685750909	-0.5720228842	-0.332768
N	-3.472560309	-1.3143939479	 0.0802720893	-0.221411
C	-2.8444172544	-1.7772042277	 1.1672652452	-0.163326
H	-0.2244388871	 1.8287257563	 0.5693591813	 0.287885
H	 0.5474477553	-0.4229211922	-0.9125093015	 0.120002
H	 1.6678161484	-0.3201727571	 1.5243918887	 0.107136
H	-0.038014736	-1.7977329075	 2.8732145379	 0.11023
H	-2.8125607655	-0.1005948021	-1.4216595223	 0.27757
H	-3.3834637547	-2.4151295043	 1.8519544067	 0.113201
