21
gdb 70348	2.71456	1.7532	1.46412	1.7531	80.76	-0.2558	0.0887	0.3445	1004.0483	0.184756	-387.082339	-387.074921	-387.073976	-387.113555	31.176	
C	-0.0582042932	 1.4978831979	 0.0145293231	-0.481973
C	 0.0372846338	-0.0062077574	-0.0090317053	 0.422028
O	-0.2309566467	-0.6624268117	 1.2418247072	-0.299804
C	 1.1000999513	-0.7370512975	 0.7023819484	-0.010199
C	 1.5539085778	-2.0730236877	 0.1305679058	-0.241305
C	 0.8024848117	-2.4087937555	-1.1690237152	-0.01247
C	 0.7550162514	-1.1612883819	-2.1016934499	-0.226719
C	-0.4829612724	-0.7148154385	-1.2638051844	-0.087858
C	-0.7306861795	-2.2202524608	-0.980843439	-0.226449
H	 0.4256446429	 1.9313333265	-0.867728049	 0.121854
H	-1.1071451994	 1.814921198	 0.0082284465	 0.125507
H	 0.4172657779	 1.9056480173	 0.9102123338	 0.124686
H	 1.8344819234	-0.1815385528	 1.2861044998	 0.08359
H	 2.6305706064	-2.0119991145	-0.0732931808	 0.098003
H	 1.415686203	-2.8648333216	 0.877353826	 0.108935
H	 1.1571948129	-3.3512239329	-1.5932766237	 0.05894
H	 1.6262324389	-0.4982470822	-2.12492727	 0.087413
H	 0.4777452951	-1.4314875943	-3.1237786285	 0.096667
H	-1.272270467	-0.1394101925	-1.7540397984	 0.054992
H	-1.2924187757	-2.6826062981	-1.796640785	 0.090278
H	-1.1716055426	-2.4854348097	-0.0200073013	 0.113883
