15
gdb 42812	4.20266	1.19699	1.17529	2.5832	71.51	-0.238	-0.03	0.208	1057.9646	0.111826	-420.569024	-420.561612	-420.560667	-420.600955	28.651	
O	 0.0210641757	-0.0103561863	-0.0099877432	-0.305623
C	-0.0173506933	 1.1797233832	-0.0334385676	 0.435225
C	-1.0650991835	 2.3149506099	 0.060654124	-0.018456
C	-0.0417723118	 2.9700010533	 1.0272796006	-0.262514
C	 1.0035444748	 2.3483305386	 0.0387548981	-0.193971
C	 0.6106116053	 3.0788657266	-1.2693045987	-0.098976
O	-0.8491761937	 3.0136195784	-1.1779318206	-0.280516
C	 1.0712519324	 4.4562375796	-1.3713290575	 0.343355
C	 1.4744361753	 5.5850337587	-1.4567840386	-0.425214
H	-2.1275030408	 2.1937954742	 0.2519161988	 0.107116
H	-0.0704716051	 4.0592168396	 1.0773558891	 0.136417
H	-0.017697645	 2.5156771272	 2.0191194239	 0.127046
H	 2.0602286542	 2.222806169	 0.2563266766	 0.108626
H	 0.9335210642	 2.5161458351	-2.1535864078	 0.122756
H	 1.8243275913	 6.584758313	-1.5389174069	 0.204729
