18
gdb 78899	3.02942	2.03903	1.62711	1.7271	72.76	-0.2224	0.0603	0.2827	876.8678	0.149825	-401.887746	-401.881318	-401.880374	-401.918225	27.039	
C	-0.0540589875	 1.5190873828	 0.0206634145	-0.403381
C	 0.013946707	-0.002212133	-0.058239426	 0.047085
C	 0.8108487412	-0.5252310183	-1.2526807408	 0.063612
O	 0.5580407019	-1.9566873722	-1.3688757795	-0.307941
C	 1.6686059297	-2.1863678571	-0.4857214564	 0.100398
C	 1.3978981859	-1.8268640678	 1.0000187428	-0.076102
C	 2.1643412077	-0.5372678997	 0.8546214701	-0.086209
C	 2.248912181	-0.772454596	-0.677691685	-0.117313
N	 0.7375096102	-0.5178604758	 1.1310382232	-0.113686
H	 0.9483238676	 1.9605191051	-0.0130741737	 0.116885
H	-0.6318499936	 1.9249672933	-0.815378814	 0.116065
H	-0.5263457266	 1.8303433086	 0.9559963146	 0.13095
H	-0.9901156548	-0.4366514575	-0.0758730456	 0.094724
H	 0.6651355991	-0.0046047943	-2.2021173139	 0.07872
H	 2.2077862939	-3.1170826685	-0.6708483413	 0.083791
H	 1.3074187948	-2.5139844881	 1.8339288774	 0.094528
H	 2.8729275314	-0.0433035113	 1.5075383108	 0.09552
H	 3.134861481	-0.5539106703	-1.2656438874	 0.082353
