21
gdb 65389	3.18723	0.93487	0.90013	3.3885	85.46	-0.2404	-0.0156	0.2247	1409.2222	0.181033	-387.077111	-387.067687	-387.066743	-387.111819	35.426	
C	 0.0164400159	 1.6092123541	-0.0980643718	-0.489869
C	 0.0087293415	 0.091944727	-0.0365611487	 0.331797
C	 1.1015751672	-0.6517711585	-0.7363531327	-0.341818
C	 1.091282811	-0.635234506	 0.7888806136	-0.130534
C	 2.1514494887	 0.0878572839	 1.5211855291	 0.152014
O	 2.5531147464	-0.223464334	 2.6169612883	-0.272587
C	-1.3376359656	-0.5866145106	 0.0125331159	-0.023135
C	-2.5128430981	-0.033868619	 0.780533927	-0.275148
C	-2.550970026	-0.0747524105	-0.7276202444	-0.284046
H	 1.0292261814	 2.0031002272	-0.2040024652	 0.123101
H	-0.5548234378	 1.9622509647	-0.9625233047	 0.126591
H	-0.4183385695	 2.0567336145	 0.8011742766	 0.130778
H	 0.8773335197	-1.5972312717	-1.2180886153	 0.123236
H	 1.8793595909	-0.0738420954	-1.2267277058	 0.118448
H	 0.7663046468	-1.5366531306	 1.2979020609	 0.102913
H	 2.5900128227	 0.9598633941	 0.9837014741	 0.06245
H	-1.2509094628	-1.6700704236	 0.0357990741	 0.083144
H	-3.1304479712	-0.7295645628	 1.3374109118	 0.115776
H	-2.409694234	 0.9369912228	 1.2517817522	 0.116736
H	-2.4812117464	 0.8677817965	-1.2583308379	 0.115355
H	-3.1901761006	-0.8041979421	-1.212661967	 0.114797
