22
gdb 61452	3.47375	0.84966	0.76988	3.4755	83.95	-0.2359	0.0388	0.2747	1580.2286	0.192698	-404.377282	-404.366656	-404.365712	-404.414793	37.909	
C	 0.0508084655	 1.6723846142	-0.1933443778	-0.411603
C	 0.0825635637	 0.1385979184	-0.160661318	 0.042389
N	 0.7125498873	-0.3470285991	 1.068627082	-0.317668
C	 2.0635743563	-0.4655906881	 1.205595937	 0.413054
C	 2.541796322	-0.9597188029	 2.5637093848	-0.482642
O	 2.8411410337	-0.1965731605	 0.3050711197	-0.384641
C	-1.2602967812	-0.5598460173	-0.3066274659	-0.001646
C	-2.4976744693	-0.1129264994	 0.4425207319	-0.272741
C	-2.4257125098	 0.0230317786	-1.0585375596	-0.275867
H	 1.0703952604	 2.0461704795	-0.075785689	 0.144711
H	-0.3346534538	 2.0411918646	-1.1480774339	 0.119111
H	-0.5615534747	 2.0877562186	 0.6138748726	 0.109388
H	 0.7381988038	-0.1916603462	-0.9730190728	 0.115497
H	 0.1125495031	-0.538533816	 1.8543418164	 0.240421
H	 1.7323832868	-1.2546511979	 3.2368173689	 0.108307
H	 3.2088287134	-1.8115311039	 2.4104771025	 0.15131
H	 3.1279300562	-0.1688703083	 3.0405247985	 0.149744
H	-1.1490183399	-1.637515587	-0.3954340904	 0.092087
H	-3.1441539574	-0.8742899438	 0.8647560621	 0.112933
H	-2.4503755768	 0.8001379928	 1.0262582996	 0.114922
H	-2.3343980387	 1.023448475	-1.4650757482	 0.118029
H	-3.0204308908	-0.6477515112	-1.6683693603	 0.114906
