15
gdb 56061	5.27465	0.71316	0.63441	4.0241	71.8	-0.2555	-0.0112	0.2443	1644.5531	0.112335	-450.170155	-450.160719	-450.159775	-450.205679	32.576	
N	-0.409851682	 1.4597194308	 0.0875339674	-0.562191
C	-0.0072796638	 0.1604307961	 0.3680960737	 0.461044
O	 0.6620249442	-0.1425931213	 1.3223173073	-0.332998
N	-0.5378719242	-0.7506167078	-0.5638640656	-0.386546
C	-0.2905190929	-2.1087188697	-0.6619090479	 0.122679
N	 0.620354709	-2.7178544151	-0.0289034693	-0.206152
C	 0.7879369345	-4.1451932936	-0.2149587279	-0.238315
C	-0.1169620581	-4.8007022123	-1.1785021663	 0.231296
N	-0.854789332	-5.2512414683	-1.946224457	-0.316366
H	 0.0667057198	 2.1414987751	 0.6586717651	 0.269038
H	-0.5131817496	 1.731723862	-0.8787165611	 0.253176
H	-1.2892205605	-0.4129646301	-1.1437614333	 0.257712
H	-0.9723071364	-2.5889071704	-1.374945534	 0.11875
H	 1.8206196913	-4.3399498984	-0.5299289657	 0.162805
H	 0.6726587208	-4.643486737	 0.7556631145	 0.166068
