19
gdb 52141	4.03344	0.93829	0.87666	4.4423	78.56	-0.2417	0.028	0.2698	1367.1547	0.160532	-419.11065	-419.102445	-419.101501	-419.144634	30.45	
N	-0.284941906	 0.8835493384	 1.2657385946	-0.443655
C	-0.4535407454	-0.3584465055	 1.1202704773	 0.129612
O	-0.4967926839	-0.8817728186	-0.1264335201	-0.184184
C	-0.6966206544	-2.2927014457	-0.2175825939	-0.157794
C	-2.1517888126	-2.6561449708	 0.0206481473	 0.079862
C	-2.6962785193	-4.1064710181	 0.0230871533	-0.085309
C	-2.0268424296	-4.2396505816	 1.406990418	-0.179914
N	-2.6408684522	-2.8256052867	 1.4850941867	-0.154896
C	-3.864409762	-3.4932097192	 0.8279494305	-0.165642
H	-0.2712923042	 1.1131647713	 2.2574060628	 0.22804
H	-0.5822585211	-1.1020728142	 1.915505304	 0.105961
H	-0.4241248064	-2.5514119727	-1.2452488983	 0.128038
H	-0.0037845262	-2.8137654688	 0.451330052	 0.11087
H	-2.766493091	-1.9257981756	-0.516837554	 0.093462
H	-2.7310521795	-4.8269362791	-0.80158202	 0.070787
H	-2.4736281983	-4.9351904195	 2.1220080326	 0.107349
H	-0.9391717862	-4.2709797449	 1.4773811577	 0.102792
H	-4.5286307188	-2.7866213876	 0.3238874566	 0.109142
H	-4.4145952727	-4.1479850912	 1.5081114629	 0.105479
