23
gdb 103837	2.71723	1.01972	0.86139	1.4564	82.5	-0.2477	0.0702	0.3179	1468.0979	0.202852	-425.41534	-425.404503	-425.403558	-425.451091	40.627	
C	-0.2707379974	 1.5959035907	 0.171984352	-0.398463
C	 0.1336437408	 0.1367910573	-0.0730770171	-0.240318
C	 0.7995666788	-0.5020655852	 1.1307015968	 0.405352
O	 2.0114155265	 0.107701605	 1.5163708193	-0.47769
C	-0.0336884519	-1.1037478998	 2.2424984227	-0.373507
C	 0.8147659966	-1.9869260994	 1.3395207418	-0.058709
C	 0.2037578881	-3.0063566652	 0.3788165953	 0.091744
C	 0.4145606936	-4.4353560151	 0.8853348546	-0.403845
O	-1.176770055	-2.7682305281	 0.1068555046	-0.418717
H	 0.6004129681	 2.2224575678	 0.395054864	 0.106826
H	-0.7553972963	 2.0222317624	-0.7111943889	 0.1159
H	-0.9714205366	 1.6786495988	 1.0104315477	 0.114028
H	-0.7419321412	-0.4562932388	-0.3480795528	 0.127287
H	 0.8327872711	 0.0904808835	-0.9178111057	 0.098195
H	 1.8004094282	 0.9711497768	 1.8875066991	 0.280175
H	 0.2983983997	-0.9588620403	 3.2644674939	 0.107881
H	-1.1103653353	-1.1184400367	 2.1048742195	 0.102404
H	 1.7399239791	-2.3287786486	 1.7952497551	 0.094805
H	 0.688081759	-2.9052595214	-0.6003504349	 0.095919
H	-0.0329697779	-4.5629119802	 1.8789913423	 0.110771
H	-0.0494116539	-5.1507187258	 0.2009943116	 0.121148
H	 1.4799717516	-4.6717495292	 0.9689256506	 0.120164
H	-1.6650217556	-2.9613723584	 0.9150239986	 0.278649
