20
gdb 75834	2.50581	1.59491	1.19486	3.5447	78.6	-0.2357	0.0266	0.2622	1105.4883	0.171477	-403.192853	-403.184162	-403.183218	-403.225725	33.827	
C	-0.22918005	 1.5216646841	-0.0052689665	-0.395603
C	 0.0291642576	 0.014249788	 0.0225386	-0.184893
C	 0.8649405708	-0.4415392701	-1.1914446246	 0.39582
O	 0.7477271169	-0.0547253849	-2.333006232	-0.377961
N	 1.7854536585	-1.3602776488	-0.7417809608	-0.313096
C	 1.8738877105	-1.427013147	 0.6886680162	-0.050305
C	 2.2304978548	-0.1419461993	 1.4040045103	-0.348293
C	 0.7754941282	-0.5447848332	 1.2335260813	 0.341543
C	-0.0267997686	-0.9344422296	 2.4525719193	-0.481692
H	 0.6964622837	 2.0853613584	 0.1473766989	 0.117565
H	-0.639247588	 1.8044721671	-0.9780630651	 0.142011
H	-0.937654884	 1.8154927148	 0.77474714	 0.111722
H	-0.9374890049	-0.5033578812	-0.0555080083	 0.099899
H	 2.5556267526	-1.6093613968	-1.3446445313	 0.248972
H	 2.1044201983	-2.3961151695	 1.1174164151	 0.101179
H	 2.6388436595	-0.2138683505	 2.4069468467	 0.113985
H	 2.6420867044	 0.6645020996	 0.805178544	 0.117787
H	-0.4768991969	-0.0547957168	 2.9268108548	 0.124873
H	-0.8380546514	-1.6226158925	 2.1887202257	 0.120728
H	 0.599897588	-1.427332062	 3.2026071661	 0.115758
