14
gdb 16397	3.77977	2.31412	1.8149	3.5548	62.31	-0.2333	-0.0622	0.171	731.3287	0.10909	-382.535585	-382.529732	-382.528788	-382.565411	23.242	
O	 0.0148888723	-0.020713304	-0.0531304088	-0.330371
C	 0.002343856	 1.1866524843	 0.029099683	 0.407673
C	-1.2322302963	 2.0157322844	 0.1147858963	-0.171962
C	-1.0692827406	 3.3460028923	 0.1026943733	-0.042523
C	 0.3583382917	 3.8528143474	 0.0858036956	 0.039496
C	 1.1393824919	 3.1656000381	-1.0679640194	-0.255246
C	 1.2700126973	 2.0567287137	 0.0082287231	-0.027002
O	 1.1291430858	 3.0693482682	 1.0451438345	-0.288257
H	-2.1923532673	 1.5125311212	 0.1416781533	 0.119497
H	-1.9000147705	 4.0446084751	 0.0946936967	 0.118043
H	 0.4532326892	 4.9277584419	 0.2480403499	 0.089656
H	 0.6098149246	 2.9484023406	-1.9965872267	 0.11843
H	 2.0999856889	 3.6449111112	-1.2632877598	 0.122474
H	 2.1791401569	 1.4596468655	 0.0921465688	 0.100092
