18
gdb 22778	3.33396	1.01646	0.87405	1.5519	73.31	-0.2455	-0.0075	0.2379	1344.1295	0.145082	-476.14746	-476.137898	-476.136954	-476.182516	34.608	
C	-0.1442674033	 0.635740174	-0.5680103778	-0.252348
O	-0.4260265407	-0.171283081	 0.5653879619	-0.251454
C	 0.6779568067	-0.3262596964	 1.4263995987	 0.071693
C	 0.2382280639	-1.0133801498	 2.7462814341	-0.348681
C	 0.8763205613	-2.2932948569	 2.2427237523	 0.357436
N	 0.8351013319	-3.5200206265	 2.5501326043	-0.225657
O	 0.0555075174	-3.7287508103	 3.699644833	-0.388728
C	 1.5356636803	-1.6048988847	 1.0500090626	 0.047554
O	 1.3594736226	-2.1331067644	-0.2319071114	-0.418265
H	 0.6554190343	 0.2074736233	-1.1837052294	 0.130322
H	-1.0638608484	 0.6903145062	-1.1555997733	 0.1292
H	 0.1446568886	 1.6528023181	-0.2643743732	 0.11151
H	 1.2328594946	 0.6148055546	 1.5252564324	 0.066207
H	 0.7007446901	-0.6032271608	 3.6485380818	 0.127382
H	-0.8438645938	-1.0560032439	 2.8925882699	 0.140887
H	 0.0945953755	-4.6861547997	 3.8011191486	 0.30855
H	 2.6110194304	-1.4550834568	 1.1913464999	 0.106148
H	 0.4057512984	-2.1848233351	-0.3745429245	 0.288245
