17
gdb 77353	2.97282	1.20481	0.90471	1.7749	69.35	-0.2675	-0.0451	0.2224	1233.669	0.135102	-459.021195	-459.012509	-459.011565	-459.0554	30.874	
C	-0.3908444654	 1.4337294155	 0.0196513597	-0.405866
C	 0.127017252	-0.0011485802	 0.0592982052	-0.170069
C	 0.9409781981	-0.4777941139	-1.1602868054	-0.10451
C	 1.8651462025	-1.5374576963	-0.5211191493	-0.115339
O	 2.0407941355	-1.1460228777	 0.8458253867	-0.216342
C	 1.0811100074	-0.2603316763	 1.2284087292	 0.449059
O	 1.0352048651	 0.2076086393	 2.3269859597	-0.334139
C	 0.0709055339	-1.0505954919	-2.2550626709	 0.152034
O	 0.0321891101	-0.6518741832	-3.3880776737	-0.23712
H	 0.4254035996	 2.1382890043	-0.1663410962	 0.132268
H	-1.138015171	 1.5606367855	-0.7683713705	 0.129556
H	-0.8436594752	 1.689359559	 0.9804299791	 0.150101
H	-0.7190524648	-0.6888979022	 0.2149053479	 0.116422
H	 1.5268648426	 0.3462525598	-1.5766203539	 0.110916
H	 1.4161203448	-2.5387312999	-0.5471023744	 0.120899
H	 2.8490245014	-1.582041638	-0.9908037725	 0.142353
H	-0.5700445266	-1.9007366037	-1.9175382408	 0.079776
