19
gdb 77702	3.09359	1.29904	1.07582	0.6313	75.62	-0.2574	0.0573	0.3147	1162.5951	0.157223	-422.972187	-422.963589	-422.962645	-423.005631	32.697	
C	-0.4985645422	 1.1975123014	-0.1517735263	-0.40858
C	-0.0551790393	-0.2417140424	 0.0601004885	-0.151593
C	 1.1424390333	-0.75891385	-0.7651823396	 0.422487
C	 1.2548279554	-1.0849863465	-2.183184229	-0.269553
O	 1.8553868761	 0.1028026633	-1.6410130945	-0.261356
C	 1.8130186513	-1.3683559128	 0.4738910484	-0.405706
C	 0.7667290508	-0.615270073	 1.3103797169	 0.43933
C	 0.9491304721	 0.1301469049	 2.5555782757	-0.26096
O	 0.2086135968	-1.1008446049	 2.5142661875	-0.27617
H	 0.3503031904	 1.8835850766	-0.0884644555	 0.128986
H	-0.9536169895	 1.3245085249	-1.1392337814	 0.121801
H	-1.2413004961	 1.4900072301	 0.5974043191	 0.119922
H	-0.9058213257	-0.9286861517	-0.0284701964	 0.092349
H	 1.9551893475	-1.8524207257	-2.5110579868	 0.116381
H	 0.4085382949	-0.915921017	-2.8485561944	 0.115099
H	 1.7005289149	-2.4543861709	 0.545119302	 0.12059
H	 2.861224674	-1.0984519752	 0.6217175297	 0.122981
H	 1.9041989843	 0.0831380814	 3.0775365144	 0.116298
H	 0.3564097111	 1.0227979975	 2.7499517118	 0.117694
