15
gdb 44649	2.56222	1.99037	1.22555	5.6757	74.43	-0.2516	-0.0479	0.2036	969.0829	0.114656	-416.835905	-416.829021	-416.828076	-416.867427	26.654	
N	-0.1012153426	 1.3188222302	-0.0211427892	-0.492683
C	 0.041433448	 0.0592830844	-0.0439290698	 0.298844
C	 1.2508508974	-0.8046351313	-0.0832280098	-0.128893
C	 0.9227639639	-2.1008255248	-0.021520589	-0.108399
C	-0.5713672829	-2.2499321239	-0.0273334545	-0.021045
C	-1.3953920534	-2.580187833	 1.2529226668	-0.397855
C	-1.7910196106	-1.0898798093	 1.2393906201	 0.40251
O	-2.4054100777	-0.3546015854	 1.9451724436	-0.293652
N	-1.0535850358	-0.8499730161	 0.0369563811	-0.127007
H	 0.8104269951	 1.7772300348	-0.02233009	 0.223607
H	 2.2495129973	-0.390450808	-0.1421842309	 0.120294
H	 1.6079538873	-2.9391446496	-0.0460896038	 0.125014
H	-0.9187678542	-2.7848366242	-0.9189553962	 0.11194
H	-2.2118531525	-3.2946053223	 1.1350982244	 0.141834
H	-0.8022931492	-2.8412241814	 2.1317899573	 0.145492
