18
gdb 67163	2.78799	1.55904	1.48773	2.5803	75.18	-0.2324	-0.0158	0.2166	988.1181	0.148517	-401.93736	-401.929924	-401.92898	-401.969022	29.585	
C	-0.0491107354	 1.5197676965	-0.0765177365	-0.514198
C	 0.0505015659	 0.0292755509	-0.0001725805	 0.329713
C	 0.542429722	-1.0243401083	-0.9447516954	-0.089409
C	 1.2725712489	-1.7564830027	 0.1847216207	-0.25881
C	 0.5015749045	-0.8471230135	 1.2115117911	-0.214212
C	-0.7497574239	-1.6158950123	 1.5975917051	 0.414018
O	-1.0702485833	-2.036065292	 2.677191289	-0.323839
C	-1.5308427175	-1.7648460059	 0.2754822352	-0.28443
N	-0.8998981302	-0.8544846894	-0.6835861562	-0.139376
H	 0.9114102135	 1.9934744535	 0.1518038984	 0.123468
H	-0.3562865591	 1.8215025037	-1.0814785193	 0.137948
H	-0.7899493724	 1.9039408866	 0.6341834511	 0.127831
H	 0.8647010982	-0.9473751945	-1.9774309266	 0.096325
H	 1.1511321336	-2.8412972942	 0.2744371429	 0.109126
H	 2.3382717142	-1.5179176056	 0.1864412406	 0.121151
H	 1.064451405	-0.4255542677	 2.0404081946	 0.092307
H	-1.5226904062	-2.8044327523	-0.0685345033	 0.134524
H	-2.5761045378	-1.4752346028	 0.4229926191	 0.137862
