13
gdb 132009	2.41179	1.86153	1.05753	5.5901	63.99	-0.261	-0.0524	0.2086	1029.0932	0.088313	-497.893085	-497.885477	-497.884533	-497.925564	27.379	
C	 0.0833111941	 1.5185242594	 0.0174854374	-0.488246
C	-0.0279691559	 0.0348371539	 0.0105719422	 0.244519
C	-1.1480970182	-0.6946165769	-0.1398705483	 0.054007
F	-2.3188123332	-0.0877194212	-0.3045601464	-0.051497
C	-1.1412180191	-2.1628267467	-0.1309026207	 0.329458
O	-2.1338096473	-2.8372570101	-0.2640437326	-0.330653
N	 0.1457804547	-2.7303365262	 0.0496218219	-0.306893
C	 1.1504977492	-1.9656404525	 0.1839539165	 0.122271
O	 1.1674830434	-0.6134076691	 0.1789061073	-0.205794
H	 0.7474630924	 1.8570868187	-0.784731546	 0.156554
H	-0.9006199389	 1.9661228057	-0.1209670453	 0.162929
H	 0.5057632383	 1.8670023362	 0.9658235988	 0.156552
H	 2.1567375204	-2.3502429911	 0.3248005953	 0.156794
