16
gdb 34081	3.47653	1.56092	1.34149	4.3362	77.01	-0.2465	-0.0086	0.2379	957.934	0.126461	-363.597803	-363.591181	-363.590237	-363.628596	27.187	
N	-0.0384341866	-1.1636810926	 0.0416952702	-0.344916
C	-0.0109968956	-0.0085691341	-0.0026795009	 0.171086
C	 0.0135490992	 1.4363849371	-0.0563820133	 0.152289
C	-0.8968561444	 2.2124578363	 0.9955779875	-0.257757
C	-1.3267204243	 3.1414104413	-0.1296434591	-0.080645
C	-0.1422131449	 3.5357716379	-1.0528317254	-0.08827
C	 1.2472655894	 3.3388196965	-0.5537198615	-0.090239
C	 1.3748289807	 2.1133959006	-0.0391332139	-0.14035
C	-0.8010284102	 2.1906913404	-1.1752063988	-0.104342
H	-1.7314840796	 1.5817782795	 1.3074092327	 0.131197
H	-0.3790276384	 2.6174460725	 1.8695983124	 0.109309
H	-2.2341762154	 3.7315115557	-0.1430566769	 0.101899
H	-0.3728381904	 4.3006733875	-1.7847081152	 0.098277
H	 2.0098826845	 4.1066741697	-0.5730162736	 0.112015
H	 2.2315110412	 1.6912772433	 0.4687576726	 0.120619
H	-1.2492461752	 1.7589262484	-2.060690567	 0.109829
