18
gdb 31855	4.83192	1.03138	0.85906	0.9309	84.41	-0.2203	-0.015	0.2052	1351.254	0.148549	-402.018687	-402.010093	-402.009149	-402.052268	31.349	
C	-0.013763399	 1.4083569857	-0.0243738708	-0.229191
O	-0.0074836517	-0.0169333754	 0.0160049838	-0.265473
C	 0.6238940935	-0.5959296354	 1.0581609645	 0.447589
N	 1.1992090153	 0.1591912914	 1.9797055195	-0.364823
C	 1.8146092024	-0.4623817256	 2.9964055615	-0.075531
C	 1.8913103959	-1.8399822093	 3.1515643527	 0.254401
C	 2.5995654713	-2.4697001518	 4.3223840474	-0.497323
C	 1.2703175186	-2.6115203619	 2.1551026547	-0.136109
C	 0.6298241863	-1.9998741552	 1.0975329687	-0.213798
H	 1.0038243097	 1.8069926308	-0.0705406282	 0.13217
H	-0.5653088367	 1.6714364384	-0.9282521698	 0.124254
H	-0.5075671981	 1.8266272214	 0.8574993046	 0.132195
H	 2.2764655164	 0.1910834675	 3.7347766034	 0.099549
H	 1.9181640925	-3.0805202307	 4.9257732644	 0.130352
H	 3.4146612298	-3.1256760672	 3.9959640393	 0.130057
H	 3.0293841034	-1.7070023674	 4.9776565514	 0.125932
H	 1.2942812031	-3.6961211501	 2.2168950521	 0.099336
H	 0.1407785372	-2.5619182853	 0.3113917406	 0.106413
