20
gdb 70322	2.98036	1.4765	1.21004	0.7074	77.44	-0.2369	0.0727	0.3097	1079.7553	0.173028	-403.114006	-403.1063	-403.105355	-403.145752	31.904	
O	-0.0801961434	 1.3760105405	 0.0853591877	-0.476439
C	 0.017637324	-0.0231567461	-0.0097372379	 0.412275
C	-0.4536930587	-0.6829629054	-1.2818125506	-0.365184
C	-1.2955752587	-0.7476172419	-0.017243899	-0.049212
C	-1.379485575	-2.0141894184	 0.8350241056	-0.255237
C	-0.725876492	-1.7945671909	 2.1978103337	-0.014898
N	 0.5232967178	-2.5359876337	 2.4659460474	-0.341081
C	 0.5793188334	-1.0839968636	 2.2013679917	-0.014574
C	 1.1192005905	-0.6638232633	 0.8375698699	-0.295958
H	 0.6499800844	 1.7560021146	-0.4159555215	 0.277241
H	-0.8057835972	-0.0318384205	-2.0747192799	 0.107926
H	 0.0439582902	-1.5882830878	-1.6180258306	 0.107638
H	-2.1688421372	-0.1035365238	-0.0097678221	 0.093353
H	-2.4225683631	-2.3213240948	 0.9535169604	 0.100439
H	-0.8630893603	-2.8430314472	 0.3405670733	 0.114522
H	-1.3964316692	-1.6236510238	 3.0361992823	 0.080962
H	 0.6147568293	-2.7102856027	 3.4638789999	 0.22667
H	 0.7983747455	-0.4265764334	 3.0382929711	 0.084009
H	 1.5158193963	-1.5536284313	 0.3397856773	 0.115331
H	 1.9472138433	 0.0438059135	 0.9449922714	 0.092219
