19
gdb 9371	4.43732	0.99042	0.86241	2.2862	71.55	-0.2483	0.0287	0.277	1368.5082	0.162821	-402.201197	-402.191094	-402.190149	-402.237535	34.176	
C	 0.0262078106	 1.4359120369	-0.0868085272	-0.326317
N	 0.0388194721	-0.0104313654	-0.050119682	-0.282761
C	-1.0422720394	-0.6635051042	 0.0073878934	 0.411304
C	-2.4682255644	-0.1610048601	 0.0533548254	-0.487684
O	-1.0215434046	-2.0210222335	 0.0382960471	-0.271616
C	 0.262803196	-2.6574199467	-0.0282012164	-0.063441
C	-0.0109822959	-4.1508251429	-0.0268962579	-0.067388
O	-0.7821417979	-4.5516693191	-1.1434241735	-0.421453
H	 0.6001163553	 1.8263785702	 0.7621443186	 0.126384
H	 0.5371400454	 1.7802238103	-0.9939060491	 0.127339
H	-0.9693220614	 1.9001148492	-0.0642944981	 0.100504
H	-2.7193476983	 0.3786036515	-0.8647500368	 0.146405
H	-3.1558875127	-0.9991435078	 0.1657681161	 0.13841
H	-2.6126422812	 0.5275065987	 0.8903895263	 0.146062
H	 0.775553526	-2.3462262339	-0.9437259271	 0.121513
H	 0.8763190502	-2.3524726421	 0.8264926092	 0.112059
H	 0.9400070914	-4.6904570438	-0.0852151815	 0.111596
H	-0.4980850034	-4.4313329443	 0.920797236	 0.091423
H	-1.5574267181	-3.9793897832	-1.1523103724	 0.287658
