22
gdb 121447	2.4565	0.82108	0.65068	1.4188	82.65	-0.2427	0.0246	0.2673	1790.2836	0.191788	-441.48352	-441.472238	-441.471294	-441.521708	38.94	
C	-0.2385182285	 1.6593712104	 0.7152225756	-0.379321
C	-0.0314639634	 0.1668771381	 0.4490569041	-0.153849
C	 0.7711163285	-0.5263200296	 1.5596392171	-0.150346
N	 0.8526867307	-1.9552485523	 1.325783061	-0.305518
C	 1.9212477759	-2.5230333463	 0.9648166611	 0.370619
C	 3.3046897875	-1.9559003495	 0.6706767126	-0.14137
O	 4.3487850768	-2.8343149621	 1.0250794932	-0.417799
O	 1.946189928	-3.8602013802	 0.7272381757	-0.261404
C	 0.7279322292	-4.5731080343	 0.9350078449	-0.227083
H	 0.7178292502	 2.1886703507	 0.7926276626	 0.114427
H	-0.8127155493	 2.1287054092	-0.089205857	 0.114807
H	-0.783037673	 1.8239287508	 1.6517454245	 0.116412
H	-0.9977722128	-0.3407225678	 0.3515217938	 0.107307
H	 0.489151571	 0.0241260681	-0.5063120698	 0.093656
H	 1.7501804621	-0.0330432321	 1.6587594431	 0.087614
H	 0.2483525555	-0.3775448278	 2.5134724633	 0.103862
H	 3.3365252078	-1.6985369661	-0.4024849263	 0.109444
H	 3.4576686904	-1.0294581693	 1.2279125871	 0.127296
H	 4.0508951589	-3.7197105229	 0.7873199756	 0.294243
H	 0.9490165681	-5.6139559662	 0.6944085092	 0.124874
H	 0.397009707	-4.4797716516	 1.9728703164	 0.136953
H	-0.0619378707	-4.1859847195	 0.2857692221	 0.135176
