17
gdb 71414	3.43108	1.3001	1.23156	2.5524	75.71	-0.263	0.0164	0.2795	1069.9923	0.137089	-380.834575	-380.826991	-380.826047	-380.866596	29.24	
C	-0.0872934474	 1.4813309702	 0.0503194625	-0.499918
C	 0.0956026485	-0.0014007568	-0.0396392063	 0.342185
C	 0.0891605658	-0.8669777663	-1.2929135624	-0.299191
C	-0.2440080258	-2.0068917568	-0.3192740368	-0.021937
C	 1.0119008274	-2.209416712	 0.5715120685	-0.143282
C	 2.3054004261	-2.477965949	-0.0452401464	 0.266136
N	 3.3254067973	-2.6757588922	-0.552246534	-0.332858
C	 0.6684057359	-0.8147953771	 1.078482111	-0.101525
N	-0.7845341142	-0.9719577045	 0.7137594469	-0.197118
H	 0.8061958161	 2.0042844795	-0.3077516292	 0.132793
H	-0.9396390237	 1.8060435099	-0.5547643408	 0.130849
H	-0.2702574415	 1.7882840371	 1.0844314623	 0.133793
H	-0.7736918352	-0.6245762031	-1.9187965312	 0.11813
H	 0.9898069047	-0.9452958393	-1.909019793	 0.125485
H	-0.8550423094	-2.8600815077	-0.6027997224	 0.100468
H	 0.8062622582	-2.9509180634	 1.3483097569	 0.136202
H	 0.9735460672	-0.3781842085	 2.0221900445	 0.109789
