19
gdb 55652	3.11661	1.0274	0.93768	2.0739	72.52	-0.2598	-0.0349	0.2249	1325.3705	0.153813	-460.217735	-460.206931	-460.205987	-460.254547	37.337	
C	-0.0944736749	 1.5124644304	-0.1757997213	-0.472997
C	 0.0192575316	 0.0371411014	 0.130025505	 0.43407
O	 0.1099027272	-0.4369797249	 1.2338150387	-0.353351
O	 0.0027845732	-0.6749383255	-1.0189058691	-0.299119
C	 0.0904806448	-2.1263955621	-0.9972444	 0.278695
C	 1.4414783741	-2.5960845216	-0.4354380215	-0.430692
C	-1.1028943456	-2.7649898919	-0.2857641444	-0.427432
C	 0.0653221758	-2.4793825262	-2.4894535434	 0.142269
O	-0.1345921594	-3.5883417257	-2.9063325784	-0.253554
H	-0.0693459533	 2.0771954013	 0.7551803929	 0.150256
H	 0.7262305597	 1.8260160902	-0.8269832639	 0.150116
H	-1.0274557051	 1.7134626791	-0.7099259215	 0.15129
H	 1.5067916784	-2.3687858881	 0.6284043735	 0.159185
H	 1.5310973604	-3.6750549013	-0.5859499734	 0.140193
H	 2.2695543053	-2.1049362858	-0.956130253	 0.121972
H	-2.038742452	-2.3225465161	-0.6396650587	 0.122177
H	-1.1185434393	-3.8307349136	-0.5253546783	 0.142765
H	-1.0291731943	-2.6266375674	 0.7923787652	 0.150728
H	 0.2769206233	-1.6183965822	-3.1600325183	 0.093429
