16
gdb 125686	3.156	1.39777	1.04185	1.4542	70.86	-0.25	-0.0051	0.2449	1112.5976	0.1256	-434.053469	-434.045426	-434.044482	-434.086767	28.939	
C	 1.1189184766	 0.9239359741	 0.5849759608	-0.51433
C	 0.2796130772	-0.2571804202	 0.2181331063	 0.2324
N	 0.2665692622	-0.7561078009	-1.0198361962	-0.253561
N	-0.5834756059	-1.7723662911	-0.9401850754	-0.08201
N	-1.1455695495	-1.9826039392	 0.2388724917	-0.281473
C	-0.606553905	-1.0315574963	 1.0072386252	 0.258646
C	-0.9944982091	-0.9234322576	 2.4272825776	-0.020711
C	-0.0448305704	-0.5914439595	 3.5033103767	-0.185907
O	-0.9675665086	 0.3833124499	 3.0205539058	-0.231181
H	 2.0739457066	 0.6151686434	 1.0265993075	 0.132206
H	 1.3439182416	 1.5156220167	-0.3048757727	 0.141781
H	 0.5991982814	 1.5473787532	 1.3151397348	 0.157766
H	-0.8092186958	-2.3376024058	-1.7422507286	 0.29277
H	-1.8659424772	-1.5216340237	 2.6879252032	 0.11158
H	-0.2329640721	-0.956916415	 4.5118422798	 0.123673
H	 1.0002805181	-0.4090186881	 3.2598612534	 0.118351
