21
gdb 60857	2.15888	1.33083	1.11916	3.3252	78.12	-0.2449	-0.0323	0.2125	1218.1224	0.17986	-424.214903	-424.204867	-424.203923	-424.250438	36.	
C	 0.0478632821	 1.5571758299	-0.2238400031	-0.433344
C	-0.009626851	 0.0370066584	-0.0259138207	-0.112738
C	 0.8033291783	-0.3797676839	 1.1899226852	 0.153671
O	 1.3800849774	-1.4326058164	 1.295922606	-0.252169
C	-1.4558268715	-0.5206936277	 0.098434013	 0.288608
C	-2.2435650034	 0.0531632427	 1.2741139102	-0.48342
C	-2.1944308243	-0.5368337021	-1.2674772007	-0.120327
O	-2.0236951925	-1.9577176811	-1.400199427	-0.274366
C	-1.5036588206	-2.0656423497	-0.0584996078	-0.12538
H	 1.0672963379	 1.8817240076	-0.4541610919	 0.128716
H	-0.5942327608	 1.8725826168	-1.0513799453	 0.128092
H	-0.2744345829	 2.0953741529	 0.6733312253	 0.126587
H	 0.4456343516	-0.4674109485	-0.8859649804	 0.109182
H	 0.8246591628	 0.3634861903	 2.0217214755	 0.076612
H	-2.3570164827	 1.1392999529	 1.1982889363	 0.123375
H	-3.2475501343	-0.3808252532	 1.3060477767	 0.125823
H	-1.7612629076	-0.1666989971	 2.2329560829	 0.124917
H	-3.2541999782	-0.2506540117	-1.2074827846	 0.094008
H	-1.7254661137	 0.0130515578	-2.0926770535	 0.100115
H	-0.5438375357	-2.5893788415	-0.0230063564	 0.128019
H	-2.2136595207	-2.5631701265	 0.6159921702	 0.09402
