19
gdb 51623	6.57411	0.70475	0.69416	4.0533	78.95	-0.2751	0.0101	0.2852	1629.4396	0.158233	-423.023441	-423.014718	-423.013774	-423.057941	32.154	
O	-1.1924537799	 0.6377148772	-0.4669718074	-0.276082
C	-0.6297388116	 1.6670348055	-0.2448065976	 0.161683
O	 0.6865097351	 1.7366213937	 0.0271115485	-0.187098
C	 1.2687835899	 3.0111174231	 0.2797309464	 0.148617
C	 2.101518377	 3.11982155	 1.5796487403	-0.331089
C	 3.1709937946	 3.8485830594	 0.7515193371	 0.37725
C	 3.6622129867	 5.2458266058	 0.9990619316	-0.317542
C	 4.6156785856	 4.0715129183	 1.0658097626	-0.329271
C	 2.530288858	 3.3465132032	-0.5516072652	-0.331107
H	-1.1213809093	 2.6601708429	-0.2384374025	 0.076192
H	 0.5022441654	 3.7904122583	 0.2083908228	 0.091607
H	 1.6497167014	 3.6483791769	 2.4228637726	 0.106118
H	 2.428169441	 2.1277956368	 1.9062117723	 0.12233
H	 3.742077773	 5.9199896052	 0.1519036702	 0.114047
H	 3.3845736531	 5.7305991841	 1.9299092039	 0.114047
H	 4.9804373576	 3.7643011556	 2.040852223	 0.115928
H	 5.3376480318	 3.9535456418	 0.2639434783	 0.115923
H	 2.9970498166	 2.4285234905	-0.9216246305	 0.12233
H	 2.4143870341	 4.0525527316	-1.3777867465	 0.106118
