17
gdb 61294	4.48756	0.7358	0.6659	2.5604	69.92	-0.2515	0.0094	0.2609	1599.3099	0.134919	-455.192923	-455.183162	-455.182218	-455.228582	34.707	
N	 0.552661868	 0.1497919669	 0.8632873064	-0.514417
C	-0.0958517409	 0.2090674673	-0.3298566822	 0.372668
O	 0.1584357741	 1.0252572631	-1.1936729508	-0.357016
C	-1.224675892	-0.8164807979	-0.5196107364	-0.312635
C	-0.9851783423	-2.2127139148	 0.0706515547	 0.093142
O	-0.9191809951	-2.2009613811	 1.4944809572	-0.411904
C	-2.0607780926	-3.2060456776	-0.421949539	-0.36798
C	-1.8766518615	-4.5511600233	 0.1176500169	 0.272077
N	-1.7303245018	-5.6166040431	 0.5388214849	-0.295258
H	 1.3146156526	 0.7892447442	 1.0185513023	 0.260303
H	 0.3424545456	-0.57400225	 1.5338262448	 0.271164
H	-2.1446099952	-0.3968344416	-0.0872517564	 0.119187
H	-1.3871068469	-0.8801822186	-1.5983809054	 0.137877
H	-0.0037600059	-2.5827001507	-0.2429739145	 0.130276
H	-1.7729162395	-1.9112324075	 1.8387411771	 0.290796
H	-3.0577421346	-2.8434975685	-0.1392488774	 0.146723
H	-2.0440802821	-3.2561701467	-1.5160791221	 0.164998
