23
gdb 97678	2.44827	0.84582	0.70623	0.081	96.73	-0.2251	0.0575	0.2827	1753.3846	0.20385	-351.131322	-351.120425	-351.119481	-351.170133	39.214	
C	-0.405078974	 1.3976286131	-0.0256316883	-0.361856
C	 0.2205907582	-0.0012332504	-0.1759120631	-0.317576
C	 0.8532773542	-0.4859807986	 1.0470961964	 0.092922
C	 1.362604734	-0.8740532703	 2.0695887457	-0.004885
C	 2.001279193	-1.3271715258	 3.2799465218	 0.188007
C	 3.2962733115	-0.6058058426	 3.6488633994	-0.249907
C	 3.1030514067	 0.8879118679	 3.9247230232	-0.375681
C	 1.1063747727	-1.8021163911	 4.4171477852	-0.2888
C	 1.888064235	-2.8062952675	 3.6186139513	-0.305753
H	 0.3543620638	 2.1347588159	 0.2495096446	 0.125885
H	-0.8676021384	 1.7138324233	-0.9656980628	 0.111296
H	-1.1717112286	 1.3983816123	 0.7540077913	 0.126164
H	-0.5525457506	-0.7144623756	-0.4906259691	 0.125952
H	 0.9586018153	 0.0147913177	-0.9886884944	 0.125596
H	 3.7232284391	-1.0945650917	 4.5332167898	 0.089898
H	 4.0208059794	-0.7418684648	 2.836762572	 0.102476
H	 4.0555564836	 1.3680665981	 4.1693179026	 0.107913
H	 2.6818210262	 1.3922701157	 3.0500141924	 0.127702
H	 2.4181462349	 1.0483645278	 4.7640985781	 0.1134
H	 1.435399589	-1.5796059457	 5.4269366813	 0.113024
H	 0.0343273029	-1.751688517	 4.2694938535	 0.120481
H	 1.3490019914	-3.4386558917	 2.9233990352	 0.120965
H	 2.7516864007	-3.273569459	 4.0802158737	 0.112776
