16
gdb 62286	2.9707	1.69462	1.35706	2.2868	73.41	-0.2393	0.0248	0.2641	954.5399	0.123326	-400.630787	-400.623238	-400.622294	-400.662395	30.164	
O	-0.0352379653	 1.3529353114	 0.0706377216	-0.481478
C	 0.011211553	-0.0640033082	-0.011712133	 0.275982
C	 0.8431039145	-0.6238376042	 1.0481651494	 0.255766
C	 1.5597124389	-1.0599581252	 1.9103126845	-0.455046
C	-1.4314937738	-0.5458703212	-0.2072999078	-0.065528
C	-1.3166445827	-0.4264541687	-1.6779694255	-0.068593
C	 0.2413483861	-0.5588072815	-1.4824649895	-0.14571
C	-0.0219280555	-2.0652671314	-1.3841051396	-0.16567
N	-1.4647542256	-1.7741000469	-1.0641189312	-0.152258
H	 0.8665514132	 1.6640100088	 0.206327858	 0.284258
H	 2.1790873286	-1.4516976616	 2.679492745	 0.200289
H	-2.2712024071	-0.3693476264	 0.4507556841	 0.1098
H	-1.9644109672	-0.01425264	-2.4382557794	 0.102954
H	 1.0422970787	-0.111539551	-2.0683726338	 0.07851
H	 0.015183503	-2.579640944	-2.3473936212	 0.111799
H	 0.5228021614	-2.6388330999	-0.6274062618	 0.114926
