20
gdb 19291	3.16522	1.81653	1.41373	1.0878	74.88	-0.2407	0.0815	0.3222	971.2043	0.176585	-348.966458	-348.958048	-348.957103	-348.999168	31.387	
C	-0.0915501697	 1.3522176797	 0.0065175057	-0.240168
O	 0.2566162665	-0.0084026863	 0.1335130142	-0.240033
C	 0.7067387677	-0.5984198474	-1.0626106205	 0.119791
C	 1.3752146333	-1.9502952584	-0.8712452896	-0.080057
C	 0.3910847573	-2.9587613765	-0.3472871555	-0.278992
C	 0.3522368455	-2.6071439576	-1.8064691985	-0.055616
C	-0.3554889051	-1.2632477797	-2.0351586159	-0.023359
C	-1.841066021	-1.1544604288	-1.7110350218	-0.405509
H	 0.7597952309	 1.9551369851	-0.3472166425	 0.103161
H	-0.9323230721	 1.5086113089	-0.6844884945	 0.107257
H	-0.3847345866	 1.7063763338	 0.9980719679	 0.125274
H	 1.3485773722	 0.1074982107	-1.6083675553	 0.06098
H	 2.4448671041	-2.1073304546	-0.8065787964	 0.082047
H	 0.8185149218	-3.9301118779	-0.1197603375	 0.108272
H	-0.3979572087	-2.652511613	 0.331647703	 0.120629
H	 0.5354440003	-3.3477808142	-2.5755696638	 0.0814
H	-0.1753930123	-0.9098983343	-3.0556462186	 0.06726
H	-2.044403476	-1.372730442	-0.659638463	 0.12569
H	-2.2217477586	-0.1487889858	-1.9188311101	 0.110231
H	-2.4188962794	-1.8581151317	-2.3205446272	 0.111744
