19
gdb 74731	2.27606	2.18607	1.51397	1.4926	80.67	-0.2206	0.0114	0.232	952.1605	0.159439	-385.765243	-385.757832	-385.756887	-385.796636	30.443	
C	 0.1002050267	 1.4129268394	 0.076693286	-0.51704
C	 0.0290437619	-0.0671694867	-0.0571745185	 0.265811
C	 0.0802261474	-0.9009082051	-1.0983229328	-0.186597
C	-0.0110822497	-2.2770331604	-0.4430253595	-0.132304
C	 1.0188762463	-2.085163453	 0.8007327547	-0.306538
C	-0.1247682544	-1.0391488286	 1.1361762598	 0.32738
O	-1.032320238	-0.5233246628	 2.1557895693	-0.360139
C	-2.1279733233	-1.046198088	 1.2881983538	-0.168969
C	-1.1138888555	-2.0631928565	 0.6821693717	-0.018644
H	 1.0043336075	 1.71875416	 0.6192317655	 0.130694
H	 0.1124917988	 1.9017238976	-0.9013577612	 0.12226
H	-0.7470848018	 1.7973551043	 0.6546801707	 0.138343
H	 0.1985616926	-0.6968777179	-2.153681763	 0.099185
H	 0.0301221157	-3.1740939183	-1.0599835636	 0.07445
H	 1.0680444144	-2.9466361415	 1.4710205744	 0.109201
H	 2.0139989791	-1.709685857	 0.5480292775	 0.101928
H	-2.9397112689	-1.4595118231	 1.8907210687	 0.114405
H	-2.4915627867	-0.2618852367	 0.6187434215	 0.117661
H	-1.1014048923	-2.9271753858	 1.3517092049	 0.088912
