16
gdb 71269	2.57359	2.14864	1.48507	5.0833	66.91	-0.2354	0.0052	0.2405	893.4103	0.125365	-437.869245	-437.862288	-437.861344	-437.900309	27.874	
C	-0.0593438494	 1.5244728404	 0.0158588545	-0.507302
C	-0.1118164156	 0.0239128026	 0.0537710402	 0.124245
N	 0.3319267571	-0.7234931385	-1.2054089209	-0.348346
C	-0.8205505217	-1.6202250918	-1.0178395421	-0.060771
C	-0.8092140825	-2.1028616823	 0.4180220755	 0.100012
O	 0.3776288822	-1.9615990787	 1.1791301232	-0.228873
C	 0.7760439097	-0.6522792851	 1.109466202	 0.493614
O	 1.6890892379	-0.2063489312	 1.735608205	-0.34998
C	-1.4379665871	-0.7843430414	 0.1004206025	-0.19926
H	 0.9761712581	 1.8564764039	-0.1021133319	 0.15358
H	-0.6604146379	 1.920348435	-0.8087618369	 0.118806
H	-0.4399154251	 1.9456053546	 0.9512472833	 0.140082
H	 0.1371573259	-0.1091995988	-1.9936074729	 0.227548
H	-1.2543430268	-2.1913900769	-1.8302445333	 0.106925
H	-1.388608895	-2.9693413957	 0.7049410611	 0.124412
H	-2.4373355698	-0.4525749861	 0.3538740008	 0.105308
