15
gdb 131686	2.75986	1.47518	0.96706	4.1965	73.5	-0.2202	-0.0504	0.1698	1134.2209	0.113753	-450.094596	-450.086483	-450.085539	-450.127672	29.65	
O	 0.003013513	 1.4283145344	 0.0065815768	-0.428073
C	 0.0147111524	 0.0112097083	 0.00235739	-0.167756
C	-1.3931233779	-0.4898984812	 0.0121206179	 0.18673
C	-2.4651078305	 0.3236083555	 0.0230594566	-0.031873
N	-3.7203533399	-0.2301679377	 0.0314438082	-0.250318
N	-3.9667249115	-1.5581495911	 0.0296341191	-0.037039
N	-2.9958458952	-2.3641852428	 0.0195368331	-0.265801
C	-1.6350392612	-1.9235818045	 0.0098195846	 0.311999
N	-0.6706221246	-2.7667650631	-0.0003262153	-0.530679
H	 0.9133316257	 1.7351281074	 0.0011229512	 0.296825
H	 0.5266000956	-0.3999565851	-0.8818162973	 0.125145
H	 0.5406313814	-0.4051121698	 0.8758126006	 0.125143
H	-2.399011925	 1.4031768555	 0.0257110116	 0.162818
H	-4.5571028477	 0.3292373189	 0.0398120086	 0.282145
H	-1.0567819347	-3.7133893147	 0.0000484742	 0.220732
