20
gdb 61767	3.38798	0.81191	0.75476	2.6297	82.53	-0.2261	-0.0275	0.1986	1553.2045	0.166339	-403.101507	-403.090786	-403.089842	-403.137686	38.128	
C	-0.1185150703	 1.5801226325	 0.232552759	-0.396858
C	 0.0036578247	 0.0670095614	-0.0645367473	-0.153427
C	-1.311125296	-0.5770541547	 0.0195974442	 0.3236
C	-2.400977137	-1.0759233733	 0.10700963	-0.430959
N	 0.662463999	-0.2776507083	-1.3357350689	-0.065435
C	-0.0239607841	 0.1924464729	-2.5328294352	-0.341071
C	 2.0834849725	 0.0049800988	-1.3658810575	-0.239855
C	 2.8027481626	-0.9173778752	-2.3431760022	 0.154714
O	 3.8071149779	-0.6284285628	-2.9372954385	-0.238739
H	 0.8660647857	 2.0562902456	 0.2064404824	 0.120903
H	-0.7669604671	 2.0744340308	-0.4949130444	 0.131589
H	-0.548705956	 1.7332159637	 1.2257524193	 0.131225
H	 0.6321843974	-0.3743476439	 0.720725451	 0.110262
H	-3.3571562422	-1.5317498801	 0.1850356986	 0.198091
H	 0.0376512476	 1.2849035769	-2.6786642816	 0.103282
H	 0.4178713139	-0.2815149855	-3.4156108218	 0.127198
H	-1.0765257792	-0.0957587961	-2.4874423244	 0.140074
H	 2.3521428313	 1.0472256939	-1.6100144339	 0.110483
H	 2.5115068903	-0.2146343403	-0.3770199761	 0.126104
H	 2.3179724389	-1.9154299962	-2.4407253928	 0.088819
