22
gdb 11468	3.5811	1.36031	1.06384	1.182	78.66	-0.2459	0.0849	0.3308	1200.6026	0.200625	-350.231253	-350.222254	-350.22131	-350.265407	33.187	
C	 0.0988494352	 1.5985740854	-0.039347236	-0.381791
C	 0.0206049364	 0.0698534525	-0.0169541612	-0.196714
C	 0.7677029752	-0.5526211257	 1.1541968939	 0.165842
C	 0.7204560819	-2.0957300753	 1.2304396748	-0.244331
C	 2.1204847455	-2.4811655377	 1.7687770963	-0.23826
C	 2.84304795	-1.1209526993	 1.9257540305	 0.165399
C	 4.3193241783	-1.1191437485	 1.5704789789	-0.409349
O	 2.1517140152	-0.2357497905	 1.0528061358	-0.271671
H	 1.1401318527	 1.9279035014	-0.0831541986	 0.135145
H	-0.4295202585	 2.009527441	-0.9049970438	 0.106949
H	-0.3509325141	 2.0301492705	 0.861978928	 0.109505
H	-1.0261501671	-0.255444525	 0.0328010982	 0.093363
H	 0.4371922744	-0.3425734871	-0.9444550562	 0.098937
H	 0.3746010709	-0.1331135302	 2.0990023232	 0.053183
H	-0.0940544265	-2.4434471507	 1.8710697348	 0.098611
H	 0.5555820712	-2.5159231711	 0.2335915301	 0.101112
H	 2.0775141708	-3.0248678096	 2.7161151374	 0.098944
H	 2.6560701047	-3.1127205117	 1.0536111507	 0.101019
H	 2.7164574416	-0.7673112308	 2.9646015973	 0.057717
H	 4.4622024455	-1.4588699846	 0.5397671781	 0.119749
H	 4.738921192	-0.1134370018	 1.6630058608	 0.123071
H	 4.8743915048	-1.7862958413	 2.2373859767	 0.113569
