16
gdb 94257	2.20513	1.56278	1.22861	3.1641	72.13	-0.2408	-0.0511	0.1897	1064.6693	0.121775	-437.821882	-437.81292	-437.811976	-437.855745	32.949	
O	 0.2361165174	 1.3783327195	-0.0835504826	-0.421069
C	 0.1431689798	 0.0072202367	 0.0942404973	 0.11141
C	 0.2253620682	-0.5251567129	 1.5469990918	-0.195984
N	-1.2419405562	-0.7059513418	 1.560934001	-0.33341
C	-1.3493667021	-0.6171047846	 0.0820116477	-0.043018
C	-2.4120551077	 0.3764344461	-0.3886193018	 0.130267
O	-2.5389438884	 1.4619473789	 0.1190508922	-0.261268
C	-1.445427737	-1.8831554458	-0.622068365	 0.276292
C	-1.5405386538	-2.9350066061	-1.1989559051	-0.435226
H	-0.4967155513	 1.797418863	 0.3928465848	 0.305121
H	 0.8085639871	-0.4644470706	-0.6286073531	 0.109617
H	 0.8097382313	-1.4510130069	 1.6237888039	 0.105313
H	 0.592117627	 0.196055327	 2.2843714765	 0.113256
H	-1.5847805782	-1.5781906202	 1.9474593575	 0.229096
H	-3.0310667742	 0.0596995787	-1.2527755683	 0.104775
H	-1.6195779518	-3.8644521309	-1.7074169168	 0.204829
