17
gdb 72120	2.55119	2.23182	1.63995	2.6988	70.74	-0.2342	0.0041	0.2383	859.2483	0.13756	-421.79587	-421.789282	-421.788338	-421.826352	27.93	
O	-0.0776319229	 1.3572019288	 0.0241631646	-0.507737
C	 0.030808565	-0.0388830277	 0.040029039	 0.373445
C	 0.6614301106	-0.7332818468	-1.2319179993	-0.278626
C	-0.3612354339	-1.8718096954	-1.306492203	 0.05384
O	-1.5960904713	-1.1017627868	-1.4228680957	-0.293926
C	-1.3526182678	-0.7852131434	-0.0390261888	 0.055284
C	-0.7370547842	-2.1784190814	 0.2162155456	-0.086839
C	 0.2917858355	-1.9757835697	 1.2853581179	-0.098161
C	 0.6909394799	-0.6987617912	 1.2370603891	-0.163845
H	 0.793897752	 1.7330571472	-0.1351940617	 0.279904
H	 0.5639946847	-0.0999059624	-2.1169375147	 0.11419
H	 1.6991768848	-1.0392231115	-1.084792607	 0.094246
H	-0.2506623668	-2.6569727983	-2.0533506596	 0.083869
H	-2.1945752161	-0.3585739821	 0.5064235252	 0.090693
H	-1.4399598253	-3.0044306823	 0.3073019513	 0.082417
H	 0.6457887114	-2.7436699958	 1.9617899871	 0.103704
H	 1.4452878544	-0.2169504814	 1.8489288402	 0.097543
