19
gdb 8181	2.78231	2.45866	1.70962	0.9172	70.01	-0.2243	0.0651	0.2894	838.1416	0.16718	-365.029229	-365.021999	-365.021054	-365.060035	29.385	
C	-0.0725097671	 1.5389409689	 0.0671884197	-0.421514
C	 0.0607098001	 0.0187354109	 0.0517833473	 0.010365
C	 1.0121214645	-0.5864742508	-1.0325046351	-0.184552
N	 1.9888691563	-1.3915613035	-0.2270961436	-0.124361
C	 2.2859266023	-0.4019480397	 0.8784682188	-0.244958
C	 0.7886964041	-0.5921527827	 1.2660424239	 0.381705
O	 0.2159038308	-0.2480920105	 2.485434264	-0.486869
C	 1.0372380659	-2.0411394683	 0.7570699346	-0.240288
H	 0.9017621986	 2.0360245368	 0.1242768489	 0.111446
H	-0.5692051955	 1.8945551572	-0.8417684988	 0.111826
H	-0.6650992809	 1.8654055851	 0.9270354079	 0.130384
H	-0.9419751486	-0.4186081393	-0.0157853629	 0.073386
H	 0.5019396207	-1.2399905462	-1.7444650959	 0.104024
H	 1.5518386116	 0.180467099	-1.5957505716	 0.104357
H	 2.98342451	-0.8408643522	 1.5977657751	 0.096075
H	 2.6490792027	 0.5745922182	 0.5485865871	 0.102157
H	 0.7306085069	-0.6504177569	 3.1924949476	 0.281998
H	 0.2105770614	-2.6012039994	 0.3096158712	 0.099284
H	 1.5923336161	-2.6724580866	 1.4569272018	 0.095535
