16
gdb 8811	3.99997	1.27328	0.97818	3.9781	65.58	-0.2487	-0.0632	0.1855	1154.8002	0.128286	-417.077133	-417.067883	-417.066939	-417.111158	32.39	
C	-0.0311717847	 1.4180102839	 0.0591423375	-0.343969
N	-0.0306969468	-0.0322183032	 0.0529902212	-0.275769
C	 0.5711020833	-0.6171450247	-0.9131861357	 0.282077
N	 1.2570201922	-0.06555176	-1.959278278	-0.552763
C	 0.5760971692	-2.1235577608	-0.9241550368	 0.329291
O	 1.0750279512	-2.73642584	-1.8499552011	-0.349331
C	-0.0534992294	-2.869129083	 0.2345684466	-0.129009
O	 0.027718038	-4.253438965	 0.0442212587	-0.426581
H	 0.9898075994	 1.8308217964	 0.0572384506	 0.12189
H	-0.5537103648	 1.8353607887	-0.8173174485	 0.114452
H	-0.5434138755	 1.7820312184	 0.9522166331	 0.132537
H	 1.1089966239	 0.8975481422	-2.2055251572	 0.26263
H	 1.5242179779	-0.7021642996	-2.6947854126	 0.273251
H	 0.4533140302	-2.5538359291	 1.1588520756	 0.133171
H	-1.0948360288	-2.533154175	 0.3375788249	 0.136291
H	 0.4953717248	-4.3762408992	-0.7955636784	 0.291834
