13
gdb 25312	2.31396	1.59724	0.94497	3.9183	79.01	-0.2465	-0.0737	0.1728	1137.268	0.088447	-419.43516	-419.427529	-419.426585	-419.467565	28.004	
O	 0.0047968613	-0.082073549	-0.0009947443	-0.274334
C	-0.0012469002	 1.1287647644	 0.0096517637	 0.048685
C	 1.1852804964	 1.9701615844	 0.0029849761	 0.176988
C	 1.3168582909	 3.3479566039	 0.0134837842	 0.086292
C	 2.72669925	 3.6063556293	-0.0010108751	-0.301788
C	 3.3273696265	 2.3859045293	-0.018666073	 0.012503
O	 2.4155316958	 1.3918965377	-0.0165522315	-0.151854
C	 0.2746411501	 4.3004656357	 0.0341120587	 0.230454
C	-0.5966275957	 5.1313932319	 0.0515275673	-0.417514
H	-0.9405086351	 1.7187902979	 0.0258707629	 0.094803
H	 3.2060383921	 4.5715536733	 0.0016842487	 0.135502
H	 4.3596873232	 2.0753459664	-0.0335578951	 0.15811
H	-1.3717334554	 5.857457905	 0.0665830575	 0.202152
