23
gdb 87154	3.33301	0.96361	0.94394	1.2995	86.15	-0.247	0.0816	0.3285	1397.7446	0.205205	-388.263722	-388.254087	-388.253143	-388.298241	37.018	
C	 0.0852954341	 1.6239150862	 0.1843405939	-0.475507
C	 0.0230055355	 0.1118951313	 0.0755975718	 0.315728
C	 1.0683066598	-0.5613325126	-0.8070281663	-0.377181
C	 1.1455025315	-0.6842822098	 0.6947712941	 0.070271
O	 2.1321066044	 0.013723558	 1.4007228766	-0.425435
C	-1.3475984802	-0.5337356596	 0.1085119843	-0.000115
C	-2.3334867266	-0.2725774503	 1.2871458627	-0.237911
C	-3.5005266888	-0.3387843736	 0.265597488	-0.209195
C	-2.4726963751	-0.0752363219	-0.8676670467	-0.238742
H	 1.1204239209	 1.9587313877	 0.2682503466	 0.128441
H	-0.3628218191	 2.1040995519	-0.6918922028	 0.112067
H	-0.4438469804	 1.9845714207	 1.0727376021	 0.117355
H	 0.7848717056	-1.4306064187	-1.3920402645	 0.104379
H	 1.802427117	 0.083759213	-1.2794107101	 0.107291
H	 0.8792969013	-1.6465369307	 1.134020342	 0.079529
H	 2.9825309972	-0.3864752083	 1.1925906203	 0.286471
H	-1.2218638072	-1.6181408373	 0.0016109124	 0.06011
H	-2.3302037021	-0.9841180328	 2.1166158994	 0.09317
H	-2.2198292565	 0.7350930003	 1.696660213	 0.102822
H	-3.924991736	-1.3450159212	 0.2006610768	 0.099031
H	-4.3192696987	 0.374762884	 0.3834573276	 0.094349
H	-2.3987846131	 0.9922763844	-1.0945895528	 0.101608
H	-2.5852273233	-0.6220117509	-1.8072701086	 0.091465
