19
gdb 122765	5.50805	0.5601	0.5149	1.8299	80.99	-0.2557	-0.0585	0.1973	2098.4648	0.15488	-422.999749	-422.989014	-422.98807	-423.037182	36.558	
C	 0.0567149659	 1.5438064122	 0.1451087009	-0.385602
C	 0.0281307779	 0.0285293915	 0.0430455693	-0.030719
O	 0.6961646572	-0.5123483263	 1.1659289632	-0.250612
C	 0.7251095868	-1.9218118484	 1.1664885694	-0.061689
C	 1.4670796718	-2.365261094	 2.4192602699	-0.316896
C	 1.5700646893	-3.8711067081	 2.5436279393	 0.22719
O	 1.1081409437	-4.6396625186	 1.7268432542	-0.291495
C	 2.270349879	-4.3513162615	 3.7254387035	 0.243136
C	 2.8523300826	-4.7300495775	 4.7086192339	-0.381534
H	 1.0878553143	 1.9079611306	 0.1656636066	 0.126127
H	-0.4534433956	 1.9930825977	-0.7121185715	 0.115606
H	-0.4420605195	 1.876731212	 1.0597976455	 0.126116
H	-1.0116274344	-0.3386026123	 0.0076033788	 0.087516
H	 0.5175121809	-0.3071346949	-0.8869979795	 0.087517
H	-0.2938184343	-2.3393377939	 1.1598091344	 0.102672
H	 1.230653045	-2.3083746699	 0.2678392474	 0.102681
H	 2.4794763177	-1.9416498156	 2.4359767124	 0.142588
H	 0.9736264299	-1.9716928503	 3.3171769704	 0.142572
H	 3.3629639019	-5.0828945929	 5.5717100819	 0.214827
