21
gdb 45582	2.54851	1.52618	1.18827	2.7925	81.74	-0.2356	-0.0133	0.2223	1122.3086	0.184956	-387.123413	-387.115557	-387.114613	-387.155839	31.425	
O	-0.1118841398	-0.0581233321	-0.0343367472	-0.304927
C	-0.1093462741	 1.1385017592	 0.0058007898	 0.385308
C	-1.1996800534	 2.213111884	 0.1817760936	-0.352554
C	-0.070817858	 3.1403019811	 0.7369446377	-0.033309
C	 0.0061682941	 3.1372354867	 2.2731086956	-0.200144
C	 1.4490825761	 3.1767956917	 2.7949689683	-0.190592
C	 2.227617142	 1.9500335114	 2.2994553475	-0.193031
C	 2.3372787243	 1.9361416433	 0.7670713665	-0.232038
C	 1.0001257307	 2.200249672	 0.0781609159	-0.085551
H	-1.5858194067	 2.5411953981	-0.7888919432	 0.123845
H	-2.040838903	 1.9694016814	 0.8352755834	 0.122001
H	-0.0716099044	 4.1618366271	 0.351077045	 0.071099
H	-0.5822975531	 3.9705474164	 2.6724553335	 0.096073
H	-0.4640679684	 2.2215352085	 2.6581696864	 0.100332
H	 1.9493818553	 4.0956805786	 2.4580535552	 0.091037
H	 1.4452243561	 3.2063790984	 3.8900136276	 0.093945
H	 3.2316045727	 1.9270423591	 2.7364254823	 0.092904
H	 1.7156753848	 1.0413601547	 2.6432503642	 0.106692
H	 3.0526343888	 2.7086299399	 0.4572285089	 0.096448
H	 2.739259362	 0.9789296829	 0.4160196423	 0.113945
H	 1.1670724139	 2.5295667576	-0.9565514635	 0.098518
