18
gdb 12529	2.86789	2.10194	1.4919	1.9357	74.19	-0.2376	0.0136	0.2512	899.1973	0.155363	-347.806212	-347.798579	-347.797635	-347.83853	29.143	
O	 0.1194814108	 1.4961312283	-0.1439952057	-0.433383
C	 0.0457470633	 0.0773323756	 0.0173820674	 0.087426
C	-1.4044218569	-0.3868684979	 0.2288471	-0.268704
C	-2.3288425374	-0.0288890628	-0.9092046804	-0.076928
C	-2.1782579754	-0.3903620562	-2.1827537778	-0.049206
C	-1.0830732177	-1.2393414176	-2.7763342913	-0.30408
C	 0.3151429601	-1.167425205	-2.2189224011	-0.041968
C	 0.7872033535	-0.6328534518	-1.0917649844	-0.088668
H	-0.3101257491	 1.6943038946	-0.9845564513	 0.27553
H	 0.5900370306	-0.109346095	 0.9507110091	 0.08455
H	-1.4050808771	-1.4721429788	 0.3972009458	 0.108716
H	-1.768549533	 0.0763026434	 1.1506447682	 0.105386
H	-3.1994520386	 0.5702854528	-0.653482826	 0.089443
H	-2.943216308	-0.0830474232	-2.8933098711	 0.089126
H	-1.4090963421	-2.2946591535	-2.7685467645	 0.128705
H	-1.0099221684	-1.0033328767	-3.8468118862	 0.116813
H	 1.0477998931	-1.6280042065	-2.8813581415	 0.089438
H	 1.864573772	-0.6723811697	-0.9434142691	 0.087805
