18
gdb 116522	2.22662	1.22538	0.8723	3.0615	83.49	-0.257	-0.0504	0.2065	1367.4218	0.146611	-398.112655	-398.103135	-398.102191	-398.148065	33.367	
C	 0.0645699299	 1.5679090298	 0.3386770798	-0.364266
C	 0.0329433423	 0.0480973562	 0.1575359377	-0.157172
N	 0.7312119503	-0.6010835637	 1.2532041648	-0.258769
C	 0.1631143052	-1.4769451191	 1.9750382401	 0.23759
C	-1.2262159421	-1.8965320996	 1.8308457735	 0.261384
N	-2.3376174861	-2.1954462746	 1.7172652504	-0.337741
N	 0.8399241027	-2.2000462983	 2.959375308	-0.098512
C	 1.8944091423	-1.5638967607	 3.7245189837	-0.21501
C	 0.6040363049	-1.9392899173	 4.3805072653	-0.228617
H	 1.0939954445	 1.9227719107	 0.4382164155	 0.129001
H	-0.3945858544	 2.0614861079	-0.5228377851	 0.120142
H	-0.4867852207	 1.8639394651	 1.2363930784	 0.120702
H	-1.0037684939	-0.2991548247	 0.0424532556	 0.118531
H	 0.5680327557	-0.2135357544	-0.7643360844	 0.120479
H	 2.7791848829	-2.1715259452	 3.8860400704	 0.133667
H	 2.0780294337	-0.5133109279	 3.5213368133	 0.143413
H	-0.0792130894	-1.1340217764	 4.6379661535	 0.137468
H	 0.539377392	-2.8214599879	 5.0091873294	 0.13771
