14
gdb 50805	4.5702	0.88057	0.73831	3.4426	77.17	-0.2469	-0.1033	0.1436	1431.0873	0.099893	-432.851902	-432.842912	-432.841968	-432.886315	31.572	
N	 0.9903342921	-0.1208545085	-0.3668571633	-0.461513
C	-0.0891763384	 0.4412227826	-0.0004292283	 0.102712
N	-1.3008330618	-0.1943094522	-0.1962982408	-0.308697
C	-2.5246507597	 0.311355417	 0.1557192233	 0.305737
N	-2.6866638896	 1.4481098333	 0.7145608153	-0.528987
C	-3.649322829	-0.6504877411	-0.2039064277	 0.201773
O	-3.4245788864	-1.716957655	-0.734778498	-0.297131
C	-4.9892468724	-0.2132331207	 0.1258092153	 0.246615
C	-6.1179839343	 0.1155746281	 0.3845966335	-0.374668
H	 1.7867301991	 0.476137139	-0.1522127423	 0.232289
H	-0.2019601694	 1.4165466452	 0.4771419135	 0.140829
H	-1.2939129515	-1.1070247272	-0.6338768261	 0.277707
H	-3.6766747465	 1.6197573671	 0.8855841323	 0.234666
H	-7.1176665323	 0.4005330225	 0.6107982832	 0.228669
