16
gdb 42487	6.26	0.64638	0.61732	2.4138	79.57	-0.253	-0.0468	0.2061	1721.6829	0.123011	-396.908701	-396.898884	-396.897939	-396.944411	34.264	
N	-0.4360569174	 0.8373968985	 0.994684953	-0.521256
C	-0.1857419181	-0.0643066004	 0.1199124961	 0.290629
N	-1.1220218635	-0.5166266851	-0.762191262	-0.308165
C	-2.4905312357	-0.0333785609	-0.7470325563	-0.163031
C	-3.3454032624	-0.6632063738	 0.3787490594	-0.345236
C	-4.723158017	-0.1954185276	 0.3311257572	 0.291379
C	-5.8516494971	 0.2107514914	 0.2537373212	-0.434478
C	 1.1214775021	-0.6870161848	-0.0383289549	 0.2274
N	 2.1711320229	-1.1635171099	-0.1285142524	-0.317382
H	 0.3939085737	 1.0726325439	 1.5316630682	 0.242527
H	-0.8853577649	-1.305316376	-1.3393473695	 0.267313
H	-2.4700328427	 1.0510283761	-0.6150863131	 0.157573
H	-2.9364849552	-0.2509072915	-1.7204744552	 0.124515
H	-3.3162796095	-1.7562487486	 0.2880822927	 0.126492
H	-2.889387618	-0.4075428733	 1.3410081416	 0.162433
H	-6.8521367873	 0.5630493619	 0.2049418641	 0.199289
