19
gdb 59029	3.12529	1.16441	1.06593	2.6295	76.93	-0.244	-0.0026	0.2414	1217.789	0.158179	-423.011948	-423.003071	-423.002127	-423.046015	33.119	
C	 0.0244464613	 1.5735879789	 0.079061196	-0.402614
C	-0.0223684085	 0.0409541942	 0.0302544648	 0.00867
O	 0.72781428	-0.526533255	 1.1063824191	-0.42898
C	-1.4264171386	-0.4975226139	-0.0055690758	 0.356211
C	-1.9686638243	-1.2943677824	-0.9334693321	-0.203922
C	-3.4096883752	-1.6540816752	-0.6371780535	-0.289613
C	-3.6548060259	-0.9889338893	 0.7120083928	 0.047282
O	-2.825643425	-1.4717428199	 1.7697570274	-0.257111
C	-2.4319831132	-0.2578006538	 1.0854634898	-0.096791
H	 1.0648324855	 1.908289785	 0.1061217846	 0.126563
H	-0.4662803553	 2.0113464667	-0.7961532649	 0.11801
H	-0.4757999608	 1.9574956053	 0.9755200179	 0.109974
H	 0.4976783736	-0.296105326	-0.8733207805	 0.090531
H	 0.2229003939	-0.4112797401	 1.918845684	 0.286165
H	-1.4372117445	-1.6870967005	-1.7939603206	 0.100602
H	-4.0967921154	-1.2657205752	-1.4002245	 0.113451
H	-3.5662882802	-2.7385174601	-0.5895555488	 0.129011
H	-4.6518016347	-0.674246892	 1.0083354155	 0.096763
H	-2.4303389127	 0.6353791033	 1.7041341541	 0.095798
