12
gdb 3841	5.73104	2.83546	1.89694	1.8535	60.81	-0.2129	-0.0553	0.1576	624.6814	0.093522	-319.567241	-319.561845	-319.560901	-319.596299	20.663	
N	-0.045098002	 1.34334635	 0.0103050752	-0.557409
C	-0.022056196	 0.0600732967	 0.003419981	 0.386702
N	 1.1368761033	-0.7336279981	-0.007759184	-0.292538
N	 1.2295844496	-2.0741409935	-0.0153927148	-0.173248
C	 0.1113932877	-2.7342121493	-0.0121179121	-0.004504
C	-1.1715629287	-2.0887638269	-0.0009644046	-0.106797
C	-1.2363932945	-0.7399755567	 0.0065374514	-0.086202
H	 0.8960785094	 1.7406698981	 0.006705657	 0.196959
H	 2.0327450163	-0.2677683185	-0.0107226425	 0.263984
H	 0.2017288543	-3.81425381	-0.0183606228	 0.125883
H	-2.0709156797	-2.6950968825	 0.0012730544	 0.116264
H	-2.1700656397	-0.1912935294	 0.0150695918	 0.130907
