20
gdb 99298	2.82621	0.97259	0.83717	3.0838	76.53	-0.2337	0.0369	0.2706	1454.7545	0.169629	-440.289411	-440.279359	-440.278415	-440.326058	35.318	
C	 0.8523003193	 0.9962573239	-1.1607571016	-0.332814
N	 0.8706737721	-0.4481783225	-1.0596558155	-0.295656
C	-0.2583927661	-1.1870486877	-0.9133412797	 0.36888
O	-1.3910686212	-0.7388204302	-0.8984017355	-0.379068
C	-0.0141322131	-2.6887327802	-0.7221884346	-0.183436
O	 1.3348522609	-3.0894363128	-0.9310591888	-0.260246
C	 1.5438092576	-3.8247340897	-2.1042627783	 0.138587
C	 1.6563335373	-3.1166867331	-3.4295399311	-0.292893
C	 2.8836605186	-3.6933464306	-2.749373608	-0.286434
H	 1.328864013	 1.4664326963	-0.292763631	 0.126137
H	 1.3644501029	 1.3377568637	-2.0667017592	 0.124503
H	-0.1927766718	 1.3068820803	-1.2013859375	 0.169195
H	 1.7426445209	-0.9494060129	-0.9946596789	 0.254501
H	-0.2862565267	-2.9319471043	 0.3116491772	 0.136425
H	-0.7051581276	-3.2230784524	-1.3815508706	 0.13116
H	 1.073541867	-4.8074026651	-2.0900745944	 0.095707
H	 1.2673807283	-3.6095561674	-4.3135628713	 0.119365
H	 1.545590573	-2.0387810678	-3.4243908341	 0.124741
H	 3.5757827871	-2.9934539008	-2.2948219561	 0.120951
H	 3.3474994084	-4.5813668365	-3.1630490009	 0.120396
