16
gdb 130214	3.14857	1.32125	0.99676	2.4918	71.92	-0.2143	-0.0027	0.2116	1154.6966	0.127749	-430.221281	-430.213298	-430.212354	-430.254382	29.507	
N	-0.1125543681	 1.3934424786	-0.3343094368	-0.597424
C	-0.0015861377	 0.0288156107	-0.0858985264	 0.242224
N	-1.0567421317	-0.7847445812	-0.060835529	-0.276035
N	-0.5049735243	-1.9853016943	 0.1308593291	-0.086207
N	 0.8126816291	-2.0169472074	 0.2339384516	-0.298971
C	 1.1746570349	-0.7386839508	 0.099798837	 0.310829
C	 2.5826852993	-0.3006873665	 0.1430498345	-0.133007
C	 3.4614020696	-0.701448398	 1.283576481	-0.231581
N	 3.65849514	-1.2858543331	-0.0469113285	-0.314755
H	 0.4638580682	 1.9627163957	 0.2707592737	 0.254145
H	-1.0748775448	 1.7041366779	-0.2988395257	 0.256647
H	-1.0611025872	-2.8228193502	 0.1564415366	 0.290916
H	 2.7663735631	 0.6554937792	-0.3417495172	 0.09665
H	 4.2537535781	-0.0367628008	 1.617870853	 0.117748
H	 3.0068604194	-1.3110914851	 2.059564613	 0.120486
H	 3.235938002	-2.2120818948	-0.0761234358	 0.248335
