21
gdb 120291	3.1823	0.97421	0.93544	1.2758	83.12	-0.224	0.0218	0.2457	1368.5233	0.183485	-387.080499	-387.071742	-387.070798	-387.11457	33.349	
O	-0.0234235295	 1.4023502316	 0.0101560443	-0.422374
C	-0.0593786067	 0.0022695189	-0.2258906639	-0.065976
C	-1.3999314566	-0.5243943307	 0.2750112549	-0.204654
C	-1.5139605162	-2.0252178139	 0.1340088875	-0.010666
C	-2.8200275616	-2.7814181231	 0.111357071	-0.086731
C	-4.117270166	-2.0358512838	-0.2146539197	-0.271708
C	-3.9080855643	-1.54984216	-1.6342745725	-0.072532
C	-2.7389171822	-1.9583193929	-2.1346338948	-0.070902
C	-1.9510079212	-2.7429241269	-1.1422599978	-0.096739
H	 0.812264403	 1.7414499361	-0.3229226834	 0.283559
H	 0.0471509081	-0.2265143654	-1.2983945584	 0.087012
H	 0.7638122941	-0.5108239256	 0.2991629004	 0.078568
H	-1.5102407651	-0.2431297328	 1.3299405376	 0.101918
H	-2.1960476069	-0.0140312757	-0.2734531107	 0.112812
H	-0.7281129349	-2.5618183232	 0.6638920215	 0.079575
H	-2.8865990303	-3.6817909581	 0.7112027922	 0.081082
H	-4.9866923429	-2.7026473173	-0.1424118438	 0.105403
H	-4.3127625511	-1.2056778111	 0.4777087317	 0.111022
H	-4.6275541686	-0.9212458146	-2.1472886761	 0.091793
H	-2.3730169733	-1.7362147644	-3.1309986381	 0.08977
H	-1.3687918777	-3.5966656171	-1.473316502	 0.079767
