20
gdb 78249	2.04575	1.61726	1.38612	1.6069	79.17	-0.2279	-0.0293	0.1987	1080.0811	0.169675	-403.106126	-403.097	-403.096056	-403.13989	33.949	
C	-0.1039370826	 1.6327108902	-0.8800920663	-0.42604
C	-0.0279904285	 0.1274831533	-0.7443118395	 0.033134
C	 0.632689354	-0.8547282252	-1.625093833	-0.065833
C	 2.0080977376	-0.4405119934	-2.1360143078	-0.143045
C	 2.1741876441	 0.6579870553	-3.1497218464	 0.139057
O	 1.2816406047	 1.2179765956	-3.7361710085	-0.24511
C	 2.4144897398	-0.2475678801	-0.6256472557	 0.056691
C	 2.9953037488	 1.0455656283	-0.0733591937	-0.419924
N	 1.0540722228	-0.695519191	-0.1565047953	-0.17119
H	 0.6870314082	 2.071684077	-1.4830717692	 0.136012
H	-1.0493846506	 1.8872184872	-1.3702164857	 0.127928
H	-0.1038267105	 2.105119535	 0.1082147624	 0.118865
H	-0.9623330985	-0.271409609	-0.3483784506	 0.101207
H	 0.1225014646	-1.7500101694	-1.9668544837	 0.099051
H	 2.5672285404	-1.2959874591	-2.5345476435	 0.10735
H	 3.2395025764	 0.9263912476	-3.345357429	 0.075064
H	 3.0923308147	-1.0592508819	-0.3478284725	 0.095414
H	 2.4750398182	 1.9430229438	-0.408649769	 0.127276
H	 2.9479781247	 1.0182710519	 1.0204944696	 0.134911
H	 4.0489480718	 1.1380935139	-0.3580751924	 0.119181
