21
gdb 39645	4.41783	0.94999	0.91631	2.0567	82.91	-0.2316	0.085	0.3166	1361.9952	0.183742	-387.003003	-386.995188	-386.994244	-387.035978	30.84	
C	-0.2269416323	 1.4446769406	-0.1567749138	-0.208095
C	 1.3243257785	 1.4582115286	-0.1126404119	-0.227969
C	 1.280611957	 0.0856043501	 0.6255738879	-0.004849
C	-0.1811794055	-0.0834385478	 0.110295056	-0.227994
C	 2.297860483	-0.9635314543	 0.239667454	 0.033029
C	 3.742989124	-1.0337506144	 0.8203880245	 0.028352
C	 3.2028610267	-1.5663590679	 2.1692181927	-0.232926
C	 2.5008979998	-2.3062956162	 1.0053902188	 0.028326
O	 3.8205481796	-2.4348504346	 0.342403497	-0.309606
H	-0.6608611607	 1.9903163641	 0.6861248819	 0.101936
H	-0.7116656097	 1.7853338534	-1.0744426015	 0.097645
H	 1.7570752212	 1.353315414	-1.1130593012	 0.100871
H	 1.8185522334	 2.2919225521	 0.3923823184	 0.095585
H	 1.2668431813	 0.2553062687	 1.7062800049	 0.067495
H	-0.9167634292	-0.5090506595	 0.7974281426	 0.095586
H	-0.2057837396	-0.6566703946	-0.8223965743	 0.100873
H	 2.3058571529	-1.1287111217	-0.842858981	 0.07537
H	 4.6015272299	-0.3902479812	 0.6234706144	 0.090483
H	 3.9107396065	-2.1754438746	 2.7322748326	 0.107595
H	 2.6179685833	-0.9025206599	 2.80852983	 0.097809
H	 1.8659281499	-3.1929304048	 1.0309295481	 0.090483
