21
gdb 118107	3.07808	0.83324	0.78655	1.0191	75.05	-0.2553	0.0622	0.3176	1547.5996	0.180184	-461.336099	-461.325742	-461.324798	-461.371643	38.343	
O	-0.0231461202	 1.3934833946	-0.2744380194	-0.425679
C	 0.0430995476	 0.0076365058	 0.0349047219	-0.081654
C	-1.347576201	-0.5793557668	-0.1633227349	-0.194056
C	-1.4098027641	-2.0793795708	 0.1597266858	 0.066625
O	-0.9761688918	-2.34068557	 1.4895394675	-0.441155
C	-2.8039091518	-2.6510128206	-0.0380517016	 0.397576
O	-3.7204073171	-2.1707965755	 0.9228868037	-0.478818
C	-3.3200490239	-3.0030371058	-1.405582322	-0.329543
C	-2.9873252081	-4.0898054031	-0.398478794	-0.306688
H	 0.8338673753	 1.7831487021	-0.0792421014	 0.284711
H	 0.7608742021	-0.5121201987	-0.6219692373	 0.080385
H	 0.3629065386	-0.1639418346	 1.0712006781	 0.105814
H	-2.0448293322	-0.0308833213	 0.4836712178	 0.088111
H	-1.6650781572	-0.4102442553	-1.1993891524	 0.103464
H	-0.714306021	-2.6151037835	-0.4993087426	 0.078466
H	-1.7529465314	-2.19734733	 2.0461772189	 0.284741
H	-3.981070242	-1.2786262603	 0.6672409285	 0.289136
H	-4.369634688	-2.813147333	-1.6013789946	 0.116334
H	-2.6655575349	-2.8663070322	-2.2602612029	 0.115899
H	-2.1028423564	-4.696079298	-0.5581645338	 0.121544
H	-3.8195214623	-4.603700853	 0.0679148845	 0.124787
