18
gdb 114605	2.45089	1.40259	1.05259	3.2691	73.94	-0.2477	-0.0449	0.2028	1170.3071	0.145885	-439.031871	-439.023003	-439.022058	-439.065926	31.834	
C	 0.1248630547	 1.0952086068	 0.3740276942	-0.247203
O	-0.2978805849	 0.2120453021	-0.6445360225	-0.233658
C	-1.4010492953	-0.5700483952	-0.2772479664	 0.031145
C	-1.8021437452	-1.6227585623	-1.3266273075	-0.198974
N	-1.69369265	-2.7553272721	-0.3352216387	-0.143965
C	-0.3073829367	-2.7694754776	 0.1037740645	-0.268599
C	-1.1782626938	-1.7244691677	 0.7074522113	 0.208682
C	-1.618530855	-1.7925773106	 2.1191123824	 0.068109
O	-1.5419979688	-2.7797893191	 2.8088910173	-0.253979
H	 0.9753261005	 1.6575928909	-0.016592015	 0.136322
H	-0.6726386825	 1.8006147677	 0.6536645622	 0.110389
H	 0.4435778394	 0.5545278715	 1.2778651361	 0.113093
H	-2.2440410083	 0.0657184834	 0.0350249633	 0.079129
H	-2.8259960751	-1.5339169447	-1.6906745575	 0.122588
H	-1.1106747299	-1.7114827086	-2.1691555395	 0.124125
H	-0.0764356829	-3.6051327645	 0.7561162615	 0.150998
H	 0.4775531647	-2.4559049574	-0.5810257423	 0.130769
H	-2.0379464009	-0.8401748026	 2.5173202964	 0.071027
