13
gdb 25459	2.76535	1.41785	0.93729	2.6615	71.29	-0.2678	-0.0938	0.174	1131.6546	0.089581	-452.799169	-452.791655	-452.790711	-452.831766	26.364	
O	-0.041915312	-0.0548876819	-0.0019481334	-0.262271
C	-0.0362367609	 1.1440394944	 0.0075511901	 0.174163
N	 1.1504904932	 1.8996562438	 0.0000478786	-0.112164
C	 2.4161508305	 1.3486615776	-0.01813238	-0.087498
C	 3.2817934128	 2.4072178463	-0.019212086	-0.083495
N	 2.6012768132	 3.5981213617	-0.0023474377	-0.262565
C	 1.325499767	 3.2926321136	 0.0091209542	 0.257543
C	 0.2180518121	 4.2653942529	 0.0285850779	 0.090174
O	 0.3793497439	 5.4598046775	 0.0371092741	-0.235303
H	-0.9430216945	 1.7656010473	 0.0224551743	 0.126887
H	 2.5487357639	 0.2805837892	-0.0278907741	 0.176327
H	 4.3606494681	 2.3792852912	-0.0312565938	 0.138035
H	-0.8020622373	 3.8262591066	 0.0351481659	 0.080168
