16
gdb 25977	4.52875	1.00854	0.86461	5.0181	71.16	-0.2118	0.0123	0.2241	1284.4659	0.126669	-434.144977	-434.136754	-434.13581	-434.178701	30.025	
N	 0.2169653577	 1.1833019974	-0.2996637393	-0.513648
C	-0.0272061324	 0.0177972114	 0.3521302794	 0.426802
O	 0.6565172665	-0.3569494355	 1.2919992988	-0.375803
C	-1.2504610069	-0.7672116786	-0.1317160472	-0.446539
C	-1.0161316621	-2.2430621406	-0.1949769741	 0.31187
C	-1.4405356389	-3.2139292093	-1.0679730844	-0.17666
N	-0.9933737018	-4.4539505445	-0.6744212638	-0.261266
C	-0.3035490188	-4.2356647881	 0.4234843381	 0.008772
N	-0.2965340488	-2.9187524219	 0.765473094	-0.278098
H	 1.0037756417	 1.7398769875	-0.0062114825	 0.26735
H	-0.3039813861	 1.4688074164	-1.109317423	 0.266799
H	-2.0514096147	-0.5290571777	 0.5846662987	 0.14946
H	-1.594925454	-0.4144990377	-1.1079587527	 0.117673
H	-2.0456014494	-3.0881901748	-1.9540257308	 0.09729
H	 0.2093020773	-4.985104314	 1.0076458587	 0.125395
H	 0.2277634906	-2.4399090701	 1.4846205703	 0.280604
