18
gdb 84666	3.25298	1.49977	1.10838	2.4947	81.56	-0.2112	-0.0086	0.2026	1103.2981	0.149926	-398.117385	-398.109388	-398.108444	-398.151072	29.983	
C	 0.4446268946	 1.3935288983	-0.0107074984	-0.351099
N	-0.1748567686	 0.0631453285	-0.0007247106	-0.096553
C	-0.2782191727	-0.5675595729	-1.2452447172	 0.102658
N	-0.7619814179	-1.6832305079	-1.6003745883	-0.26979
C	-1.4078243291	-2.6047367476	-0.7407954266	-0.001699
C	-0.5830883026	-3.6064473447	 0.0482311925	-0.295928
C	-1.439291314	-2.5810139543	 0.7704151332	-0.001593
N	-0.8294205135	-1.6324844052	 1.6268278268	-0.269758
C	-0.3305399594	-0.5281017279	 1.2576358276	 0.102434
H	 1.5406783609	 1.3434612252	-0.0072512491	 0.13672
H	 0.1220941787	 1.9418885501	-0.8973909974	 0.146035
H	 0.1174299025	 1.9562191969	 0.864962457	 0.146002
H	 0.160892611	 0.0518595831	-2.0288028916	 0.105533
H	-2.2939605595	-3.0257789834	-1.211012029	 0.100395
H	-0.8697542051	-4.6529578339	 0.0586503251	 0.116269
H	 0.4857560923	-3.4232826871	 0.0676004604	 0.124447
H	-2.3445772318	-2.987698601	 1.2161633713	 0.100378
H	 0.0755223439	 0.1158138938	 2.0391905444	 0.105548
