23
gdb 93003	2.56658	1.47026	1.09629	0.2792	91.11	-0.2199	0.0258	0.2457	1221.0858	0.206841	-351.171507	-351.162664	-351.16172	-351.204264	35.6	
C	 0.1086902135	 1.5757566223	 0.0093550229	-0.390916
C	 0.0398974428	 0.0433307337	 0.0223891202	 0.009778
C	 0.5142767919	-0.5461187894	-1.3232533375	-0.277078
C	 0.7486697864	-2.0334778056	-1.2705108169	-0.097354
C	 1.0874684411	-2.6662704407	-0.1460608812	-0.093771
C	 1.264477294	-1.9776893827	 1.1613637747	 0.302039
C	 1.1285181696	-2.8509220312	 2.3927840341	-0.477693
C	 2.2636126785	-0.8244639261	 1.2008579983	-0.326475
C	 0.7831588277	-0.5424170229	 1.2131442736	-0.053243
H	 1.1455660927	 1.9170072919	-0.0871663297	 0.114314
H	-0.4619474662	 1.9914025526	-0.828363255	 0.107535
H	-0.2964974926	 2.0005765246	 0.9339028302	 0.108118
H	-1.0133172745	-0.2485350523	 0.1437324174	 0.073851
H	-0.2226578417	-0.3056553	-2.0987326158	 0.099286
H	 1.4378693053	-0.0362852584	-1.6380009991	 0.106137
H	 0.6598090596	-2.5903498379	-2.1994019573	 0.083004
H	 1.259148328	-3.7405398863	-0.1564208174	 0.077589
H	 1.8658289451	-3.6627989769	 2.3853190886	 0.11447
H	 1.2836870141	-2.2711075676	 3.3079985174	 0.110743
H	 0.1333389699	-3.3068270942	 2.4504061592	 0.11704
H	 2.8192233878	-0.6695938774	 2.1205518058	 0.10396
H	 2.831634154	-0.6259576799	 0.2985642155	 0.113167
H	 0.3812106129	-0.2251887155	 2.1732489122	 0.0755
