23
gdb 111224	3.12629	1.2045	1.11742	0.253	89.93	-0.2282	0.0244	0.2525	1246.8996	0.208159	-351.158875	-351.150625	-351.149681	-351.191435	33.495	
C	-0.0028781581	 1.5617909976	 0.0547653657	-0.382424
C	-0.0286930987	 0.0367822195	-0.0965125803	-0.211664
C	-1.4340318917	-0.551679346	 0.0147362226	 0.062534
C	-1.5087405957	-2.1121110049	 0.028739712	-0.032927
C	-1.3739286569	-2.0371083133	 1.5779456657	-0.226771
C	-2.0499190837	-0.6366489519	 1.456966613	-0.060818
C	-3.541443383	-0.8580266412	 1.3078906581	-0.066572
C	-3.9550217936	-1.7849253903	 0.4423079425	-0.059737
C	-2.9301230741	-2.5687210549	-0.3501052197	-0.264566
H	 1.0136227347	 1.9546667294	-0.046982037	 0.110079
H	-0.6249942783	 2.0440126076	-0.7074580018	 0.113968
H	-0.3821046767	 1.8730431062	 1.0339685685	 0.116602
H	 0.3847789707	-0.2375070767	-1.0768060773	 0.091432
H	 0.6388511222	-0.4146818016	 0.6473542774	 0.093836
H	-2.0860145536	-0.0638994215	-0.7193855722	 0.057964
H	-0.7453681921	-2.6613548222	-0.5305085996	 0.0525
H	-1.8956572933	-2.7893118565	 2.174879366	 0.090551
H	-0.3317827306	-1.9779929424	 1.8980728199	 0.095488
H	-1.7984489733	 0.1364467599	 2.1855036052	 0.053365
H	-4.2367072518	-0.2696869408	 1.8990451726	 0.082195
H	-5.0084926891	-1.9997290241	 0.287086914	 0.083118
H	-3.0978117168	-2.4318427323	-1.428275973	 0.101078
H	-3.0479456264	-3.6461497996	-0.1643200123	 0.10077
