21
gdb 100508	3.01838	0.92919	0.81747	0.3815	79.7	-0.2357	-0.0805	0.1552	1519.4468	0.17829	-424.27099	-424.259788	-424.258844	-424.308509	38.7	
C	 0.0466672236	 1.5574169243	-0.031182274	-0.39761
C	-0.008231757	 0.0290510705	-0.1067076163	-0.170966
C	-1.4346861935	-0.5427668776	-0.1193880714	-0.06129
C	-2.2336551159	-0.1659022545	-1.3889822647	-0.409209
C	-1.4113587575	-2.0566844988	-0.0082639581	 0.261002
O	-0.4616792788	-2.7481257839	-0.2996370177	-0.293599
C	-2.7039012486	-2.7447092022	 0.5128075123	 0.311924
C	-2.6993025114	-4.253452106	 0.4957994907	-0.472637
O	-3.6279358593	-2.0752682075	 0.9136298601	-0.279896
H	 1.082532566	 1.9023902345	 0.0426307606	 0.116704
H	-0.391591786	 2.0304310105	-0.9153044458	 0.118918
H	-0.4907667563	 1.9323417542	 0.847313876	 0.115463
H	 0.5258514568	-0.3263771536	-0.9949154011	 0.110309
H	 0.5288603456	-0.394990005	 0.7495222835	 0.101957
H	-2.0016610127	-0.1686259257	 0.7414375441	 0.106018
H	-1.7247953259	-0.5270809848	-2.2890965258	 0.12506
H	-3.2402071238	-0.5901273525	-1.3616011747	 0.136057
H	-2.3338282864	 0.9192995881	-1.4665212239	 0.129661
H	-1.8459721349	-4.6328749556	 1.0657662367	 0.158319
H	-3.6357182854	-4.6290009828	 0.9085624188	 0.140002
H	-2.5628067685	-4.6149648316	-0.5288232993	 0.153813
