18
gdb 16076	3.12266	1.80822	1.44394	2.0825	67.82	-0.231	0.0737	0.3047	940.8085	0.152169	-384.879278	-384.870979	-384.870035	-384.912005	30.271	
C	-0.355641032	 1.291201165	-0.0186909088	-0.25379
O	 0.3885012448	 0.0948077256	 0.1593548865	-0.271754
C	 0.7982294929	-0.480848653	-1.0194157743	 0.333027
C	 0.0193404764	-1.5610985916	-1.7752482185	-0.152391
O	 1.2550955882	-2.2613683874	-2.0871441774	-0.282774
C	 2.0067151254	-1.3339522746	-1.2947195984	-0.010185
C	 1.9332065746	 0.0595814449	-1.8764196077	-0.092568
C	 1.87220909	 0.3431587524	-3.3603466363	-0.422623
H	 0.2298371425	 2.0507129701	-0.5540587265	 0.114737
H	-1.2879161324	 1.1121353558	-0.5723857344	 0.112284
H	-0.6020154928	 1.66271915	 0.9781863348	 0.130513
H	-0.6068979519	-2.1628037693	-1.1071958987	 0.115564
H	-0.5426022361	-1.2824908637	-2.6738358056	 0.10291
H	 2.8012030353	-1.7246461675	-0.6698937269	 0.111416
H	 2.5329863775	 0.7522200889	-1.2868766593	 0.095021
H	 1.4125272453	-0.4926520581	-3.8935221768	 0.137783
H	 1.2997156918	 1.2512326904	-3.5774478087	 0.112919
H	 2.8796554705	 0.4778045521	-3.7682003728	 0.119911
