18
gdb 54454	3.37544	1.37054	1.1162	2.4738	76.91	-0.2305	-0.0182	0.2124	1108.4638	0.146392	-401.881549	-401.873413	-401.872469	-401.914404	31.348	
C	 0.0813766883	 1.3167919816	-0.5271303772	-0.496832
C	-0.073825361	 0.0473839682	 0.2905499405	 0.298761
O	 0.8184013957	-0.3651018294	 1.0063475787	-0.328232
C	-1.3546998324	-0.6831694478	 0.1624628758	 0.208445
C	-1.7080884624	-1.7942433981	 1.1322596221	-0.347188
C	-1.4911612549	-2.153692169	-0.2885558586	-0.01998
N	-2.5598335944	-1.8274017225	-1.3048254476	-0.141236
C	-3.7229424307	-1.1934458299	-0.6466373585	-0.255433
C	-2.4954059916	-0.3963925096	-0.8364512039	-0.105253
H	 1.0455398997	 1.7745686753	-0.304816722	 0.142888
H	 0.0233834555	 1.0913189085	-1.5983755722	 0.144177
H	-0.7258608425	 2.024032435	-0.304672137	 0.137412
H	-0.8630371439	-2.0398733851	 1.7669405751	 0.154833
H	-2.6707655847	-1.8268173949	 1.627377113	 0.121861
H	-0.6932793381	-2.8066616187	-0.6177796097	 0.127047
H	-4.527813064	-1.0188128668	-1.3548589285	 0.130856
H	-4.0614083182	-1.517097634	 0.330125719	 0.125804
H	-2.4324740504	 0.4068218672	-1.5631606791	 0.102069
