17
gdb 84564	2.97384	1.88091	1.43614	2.5584	72.	-0.2284	0.0074	0.2359	915.9846	0.138082	-421.789332	-421.78265	-421.781706	-421.820101	27.836	
O	-0.0473782827	 1.4201853628	 0.0676463486	-0.441782
C	 0.0732666456	 0.0034037652	-0.037109545	 0.091419
C	 0.9240876161	-0.5466947982	 1.0833013697	-0.130164
C	 0.5541553338	-1.5796788157	 1.8431486171	-0.0357
C	-0.7067148916	-2.3191774833	 1.6062797607	-0.120848
C	-2.0742598711	-1.6303242931	 1.587939505	 0.091334
O	-1.9709108915	-0.253696449	 1.2534718519	-0.304162
C	-1.3208429206	-0.6115090993	-0.0145825695	 0.063733
C	-1.4561439378	-2.107733755	 0.3083548761	-0.183655
H	-0.5218153407	 1.5774205932	 0.8947895103	 0.288324
H	 0.5459801986	-0.1712922627	-1.013299204	 0.090411
H	 1.854355872	-0.0171914207	 1.2675930841	 0.098227
H	 1.1806755782	-1.9074929633	 2.6680274505	 0.093371
H	-0.7589589535	-3.3344905697	 1.9886274239	 0.094863
H	-2.9324279369	-1.9512671769	 2.1669220838	 0.110334
H	-1.9307178144	-0.2611529875	-0.8516027679	 0.09315
H	-1.7352000435	-2.8941974467	-0.3791603651	 0.101144
