15
gdb 45457	2.68385	1.68972	1.21376	3.9153	64.96	-0.2371	-0.0963	0.1408	993.4035	0.112608	-457.773633	-457.766284	-457.765339	-457.80621	27.186	
O	 0.0451119952	-0.043781199	-0.1656157261	-0.268056
C	-0.0265638457	 1.1392436008	 0.0164763611	 0.309353
C	-1.2702878873	 1.9844585248	 0.259676716	-0.353163
C	-0.7627001265	 3.3334012826	 0.7670668559	 0.104215
O	-0.5086073032	 3.316654917	 2.1910184092	-0.286194
C	 0.8779135264	 3.6607684501	 2.0007091858	-0.082592
C	 0.7562207355	 3.4661401419	 0.4674719339	-0.208132
C	 1.2134598048	 2.0969641491	 0.0068725253	 0.315753
O	 2.3199944608	 1.7591063393	-0.3144076503	-0.281717
H	-1.7962091725	 2.097376798	-0.6979567316	 0.141577
H	-1.9582123688	 1.5078023061	 0.9620372697	 0.156523
H	-1.3994598664	 4.1770072698	 0.4829574365	 0.089429
H	 1.0902852799	 4.6963766123	 2.292392917	 0.117754
H	 1.5559671511	 2.9871564425	 2.5352110891	 0.128791
H	 1.1271132567	 4.2702736947	-0.1670100114	 0.116459
