13
gdb 46812	2.7832	1.68252	1.1937	5.4483	64.71	-0.2887	-0.0368	0.2519	977.9128	0.089842	-452.739516	-452.732347	-452.731403	-452.771339	26.509	
N	-0.0612518634	 1.2513949374	 0.2833634072	-0.523242
C	-0.0017397487	 0.0300570281	-0.0077119949	 0.386766
O	 1.1266552954	-0.6916498173	-0.2753723479	-0.250078
C	 0.8194386387	-1.9806489761	-0.8350290171	-0.116152
C	-0.6656666446	-2.1735781486	-0.6248048874	-0.053803
O	-1.0421098947	-2.0396995682	 0.7384899813	-0.264379
C	-1.1846959846	-0.8877653888	-0.1178038635	 0.223358
C	-2.5133756773	-0.3843503008	-0.3383591153	 0.251202
N	-3.5827338097	 0.0075100881	-0.5278436567	-0.323121
H	 0.8644229189	 1.6823534635	 0.272524168	 0.240516
H	 1.0726245924	-1.985296092	-1.9010533541	 0.136523
H	 1.4180960133	-2.7323709354	-0.3135217388	 0.148448
H	-1.2513180958	-2.8531371499	-1.2354827008	 0.143963
