20
gdb 47933	2.08901	1.67654	1.14247	3.9663	75.36	-0.2174	-0.0229	0.1944	1130.6733	0.17261	-440.280149	-440.271648	-440.270704	-440.3136	32.369	
O	 0.0841613	-0.0092793037	 0.5496368726	-0.300392
C	 0.0115906731	 1.1369572497	 0.1757619661	 0.36854
C	-1.3533360317	 1.7908783169	-0.0669870504	-0.272011
N	-1.3045607264	 2.9669337487	-0.91739106	-0.286173
C	-1.3462302861	 2.7064831273	-2.353957919	-0.16028
C	-0.1075689398	 1.9607304913	-2.8686276088	-0.21592
C	 1.2440820602	 2.526508262	-2.390835655	-0.058302
O	 1.8304078425	 1.7970408517	-1.323178434	-0.24814
C	 1.2798418308	 1.9884822372	-0.0303415824	-0.141391
H	-2.0469112703	 1.0026745187	-0.4054535294	 0.113778
H	-1.6986428588	 2.1006578465	 0.9286994682	 0.129891
H	-2.0437338822	 3.6106137876	-0.6671527738	 0.226631
H	-2.2466238891	 2.1393918891	-2.6553669327	 0.084825
H	-1.4048613649	 3.6822317709	-2.8508252204	 0.101492
H	-0.1394437777	 0.9014001525	-2.5888307975	 0.127237
H	-0.1478838732	 1.979309722	-3.9638112463	 0.102999
H	 1.9792271168	 2.4511726486	-3.1975904181	 0.107844
H	 1.144086539	 3.5884062565	-2.1217694806	 0.096902
H	 1.0769321011	 3.0495782119	 0.1604082367	 0.102425
H	 2.0292810567	 1.6142738549	 0.6720356449	 0.120045
