17
gdb 68644	2.42324	2.02386	1.5444	2.3973	71.88	-0.2264	-0.0279	0.1985	920.378	0.136307	-421.847725	-421.840352	-421.839408	-421.879234	29.408	
C	 0.0521814642	 1.5207730131	-0.0534040266	-0.496654
C	-0.0287651754	 0.0185508293	-0.0253618159	 0.24215
O	 0.6781689549	-0.6206312293	-1.1040399199	-0.276058
C	 0.3586136076	-1.9796607661	-0.7636873613	 0.002196
C	 1.0103739327	-2.0920976429	 0.6406988043	-0.340244
C	 0.6577308102	-0.6924915236	 1.1826360145	 0.4058
O	 0.8702758779	-0.2317184516	 2.2704985763	-0.323752
C	-1.1556136534	-1.901815673	-0.5567364834	-0.080352
C	-1.3924588719	-0.6764563761	-0.0889670718	-0.126573
H	 1.0939549894	 1.8414528222	-0.1346795257	 0.13654
H	-0.509185341	 1.9302176928	-0.8969969567	 0.127763
H	-0.3539018499	 1.924743883	 0.877989421	 0.139599
H	 0.7319095378	-2.6619248613	-1.5258210544	 0.090295
H	 0.6274607292	-2.8919024274	 1.2768602062	 0.128488
H	 2.0978813489	-2.1865218956	 0.5687364909	 0.135626
H	-1.8474357488	-2.7234369913	-0.6831156686	 0.114821
H	-2.3173363725	-0.2507642022	 0.2749431311	 0.120354
