10
gdb 21376	5.55601	2.36018	1.6565	5.7129	53.8	-0.2738	-0.0676	0.2062	670.5099	0.063527	-409.594958	-409.589907	-409.588962	-409.623997	19.402	
N	-0.0466994521	 1.350395142	 0.0101975127	-0.403168
C	 1.285305986	 1.7599931549	-0.000680805	 0.044839
N	 2.1743181672	 0.8042370918	-0.0145954553	-0.318274
C	 1.3944810732	-0.339266086	-0.0130398724	 0.379432
N	 1.5320480347	-1.6389853591	-0.0213715427	-0.193643
O	 0.2364310415	-2.1054117047	-0.0111180137	-0.155025
N	-0.7284869616	-1.0883614716	 0.0038406648	-0.230924
C	 0.0097338722	-0.0201888128	 0.0023295455	 0.425974
H	-0.8577141933	 1.9447114893	 0.0217805546	 0.290847
H	 1.5244232221	 2.8151582961	 0.0026356614	 0.159942
