20
gdb 110584	3.07633	1.31632	1.08154	1.7399	79.49	-0.2402	0.0698	0.3101	1190.8398	0.170405	-403.057078	-403.048623	-403.047679	-403.090046	32.839	
C	-0.1974957744	 1.5524546953	 0.1348590599	-0.374847
C	 0.1901324753	 0.0923332892	-0.128596746	-0.223676
C	 0.8493866745	-0.557679031	 1.0750801654	-0.00404
N	-0.0495896744	-0.8112431987	 2.2907068587	-0.167761
C	-0.5581010293	-2.1458676808	 1.6898846028	-0.080317
C	-0.2307084424	-2.9046575442	 2.9799386561	-0.27004
C	 0.9228059382	-1.9191083007	 2.7744869093	-0.027495
C	 0.9457388199	-2.0774208478	 1.234227366	 0.331038
O	 1.7064858629	-3.0169429786	 0.5601102228	-0.46872
H	 0.6851367977	 2.1574656485	 0.3690728342	 0.114928
H	-0.6858017008	 1.9971740154	-0.7374401183	 0.10942
H	-0.8821121037	 1.6212623905	 0.9849124506	 0.138877
H	-0.6996644162	-0.4785193045	-0.4220998275	 0.093532
H	 0.8849498907	 0.039508228	-0.9776754925	 0.095565
H	 1.7514787123	-0.0040760574	 1.3701554083	 0.068573
H	-1.4616842573	-2.1756799885	 1.0802900041	 0.08108
H	-0.8857802163	-2.7104868715	 3.832737109	 0.106838
H	 0.0080478207	-3.9650969907	 2.8789591549	 0.109228
H	 1.761915808	-1.6617988308	 3.4228683981	 0.083737
H	 1.4360309546	-3.0276296618	-0.3647967159	 0.28408
