13
gdb 11186	4.13822	1.58615	1.38701	4.6049	59.45	-0.2723	0.0146	0.2869	881.0578	0.096391	-398.609525	-398.602547	-398.601602	-398.641065	25.53	
O	-0.0730032882	 0.0384353875	-0.3047678385	-0.380078
C	-0.0586272562	 1.2207002897	-0.122555579	 0.482388
N	-1.1054429096	 2.0321134859	 0.2879082108	-0.352121
C	-0.7964846894	 3.4393280494	 0.0636627893	-0.182968
C	 0.7560605685	 3.3476462279	 0.0932494718	-0.086395
O	 1.0542493798	 2.0017708266	-0.2730363421	-0.231761
C	-1.3338773624	 3.9661757048	-1.1920597742	 0.338098
C	-1.7856358686	 4.3934830854	-2.2202163507	-0.462613
H	-2.0353856985	 1.6834812836	 0.1134003505	 0.267548
H	-1.1525058031	 4.0548070114	 0.8964886984	 0.126929
H	 1.2319509839	 4.0246353277	-0.6159689534	 0.141873
H	 1.1317296219	 3.5403737051	 1.1037649708	 0.126011
H	-2.1816019282	 4.7692360449	-3.1318155237	 0.213087
