21
gdb 93583	4.32884	0.92145	0.85137	1.8188	87.68	-0.2191	0.0224	0.2415	1447.1692	0.182555	-387.087572	-387.078605	-387.077661	-387.121942	33.631	
C	-0.0243810435	 1.546936	-0.0177767818	-0.385313
C	-0.0451434065	 0.0191276306	 0.0338130472	 0.109981
O	 0.6580948729	-0.5115377692	-1.0982261715	-0.280582
C	 1.6315112979	-1.4567052637	-0.6801035394	-0.17118
C	 1.617776927	-1.4210769849	 0.8320587289	 0.33566
C	 0.6530792457	-0.5864911065	 1.2194072507	-0.251835
C	 2.521788885	-2.2064205896	 1.6892703797	-0.092995
C	 3.0126144264	-3.5862166908	 1.2836303751	-0.272267
C	 3.9778160502	-2.4382743795	 1.3192296937	-0.271258
H	 1.002170753	 1.9182689563	 0.0530990943	 0.116551
H	-0.4590729915	 1.897840379	-0.9582142384	 0.123133
H	-0.6080728649	 1.9673859323	 0.8081659349	 0.108306
H	-1.0965222993	-0.3158698104	-0.0166015333	 0.075471
H	 1.379502675	-2.4582112576	-1.067724483	 0.099119
H	 2.6099899188	-1.185863427	-1.1058110672	 0.103223
H	 0.3792284273	-0.3567627116	 2.2420802858	 0.0925
H	 2.3335358072	-2.0782076835	 2.7508227912	 0.085331
H	 3.0725251559	-4.3419620875	 2.0586842546	 0.117775
H	 2.7106199331	-3.9687602031	 0.3152751805	 0.120439
H	 4.3334471131	-2.0399977948	 0.375920732	 0.120105
H	 4.7066680671	-2.3956554284	 2.120772316	 0.117839
