19
gdb 83564	2.80548	1.44067	1.19285	2.198	75.94	-0.2444	-0.0317	0.2127	1094.5296	0.159381	-423.010466	-423.002308	-423.001364	-423.043493	30.912	
C	 0.0307596683	 1.4760854268	 0.896858302	-0.442396
C	 0.0917726678	 0.0216065107	 0.4621589003	 0.022716
C	 0.732084386	-0.4014091952	-0.9059602448	-0.107291
C	 2.1463750204	 0.1683128714	-0.757651632	-0.094789
O	 2.4320831116	-0.20860107	 0.6106529306	-0.278561
C	 1.2262261972	-0.8972625437	 0.9841900978	 0.08489
C	 0.9812954969	-1.8211392339	-0.2420057252	-0.089221
C	-0.1803623987	-2.7711696557	-0.2514277723	 0.118757
O	-1.1088170097	-2.7793261808	 0.5211094001	-0.252135
H	 1.0252607753	 1.9227684999	 0.9689465231	 0.13379
H	-0.5680633723	 2.072455352	 0.1996278018	 0.115779
H	-0.4388209006	 1.5560508567	 1.8827101878	 0.122687
H	-0.8713984811	-0.4712961902	 0.5895293641	 0.114865
H	 0.2273410074	-0.2831759964	-1.8645263522	 0.079505
H	 2.8777427347	-0.2878362788	-1.4342162046	 0.104599
H	 2.1896147638	 1.2571315344	-0.87022017	 0.107866
H	 1.3042726604	-1.262704948	 2.0062722681	 0.089503
H	 1.8691172459	-2.3418754942	-0.6157972666	 0.08748
H	-0.1275114232	-3.525026325	-1.070395478	 0.081957
