16
gdb 128355	3.35377	1.29774	0.94784	6.5582	67.62	-0.2287	0.0289	0.2577	1193.7072	0.124485	-471.225589	-471.216724	-471.21578	-471.259353	31.192	
C	-0.0392161406	 1.4266093354	 0.0327059085	-0.325225
N	-0.0856794983	-0.0305839949	-0.0442498241	-0.399268
C	 0.6024446294	-0.6399467025	-1.0547341673	 0.517174
N	 1.1742514766	-0.016432841	-2.04261476	-0.239052
O	 1.6645326294	-1.0686606561	-2.8840952471	-0.240687
C	 1.3795991945	-2.2782819551	-2.3405683633	 0.506694
O	 1.6593262394	-3.3505877619	-2.8039714158	-0.408549
N	 0.7004444796	-2.0055405094	-1.1560217287	-0.207949
C	 0.1433549366	-3.026486643	-0.2972351897	-0.363033
H	 0.9714036573	 1.810682604	 0.2191215407	 0.138837
H	-0.388208441	 1.8413593755	-0.9149878504	 0.167427
H	-0.7071555689	 1.7534559456	 0.8314850176	 0.131051
H	-0.0362001843	-0.5099070513	 0.8429569355	 0.252675
H	 0.3222804306	-3.9830220399	-0.7916857774	 0.183672
H	 0.6330057285	-3.0408625838	 0.6829135558	 0.13764
H	-0.932485479	-2.8788940415	-0.1633033543	 0.148592
