20
gdb 7513	4.68411	1.15514	1.08911	0.7324	81.04	-0.2571	0.053	0.3101	1174.9245	0.174424	-311.832021	-311.822625	-311.82168	-311.865647	35.082	
C	-0.0303923839	 1.4364138982	-0.3006559925	-0.414033
C	 0.0815896075	-0.0352404101	 0.034488012	-0.040454
C	 1.4127761294	-0.754361597	 0.0125631544	-0.320369
C	 0.685367748	-0.5593504641	 1.322352804	 0.359073
C	 1.2591460229	 0.3886316393	 2.3571795096	-0.464921
C	 0.0038419457	-1.7916901835	 1.9254905097	-0.426346
C	 0.9114793628	-2.6537897739	 2.6788144616	 0.324317
C	 1.6713763523	-3.3529222553	 3.2947127873	-0.461343
H	 0.8449406657	 2.0025539382	 0.0289672921	 0.116727
H	-0.1189053873	 1.576892855	-1.3837383543	 0.118576
H	-0.9134632414	 1.8890717431	 0.1645864814	 0.115923
H	-0.7589452142	-0.6205077906	-0.3337448407	 0.077426
H	 1.465196046	-1.7518408922	-0.4116943971	 0.109857
H	 2.3024982263	-0.1560801111	-0.1592673692	 0.105653
H	 1.7948489823	 1.2224003472	 1.8979559395	 0.113895
H	 0.4697993518	 0.8073804485	 2.9934968892	 0.111063
H	 1.9630717698	-0.1415109823	 3.0068530329	 0.13224
H	-0.8156427648	-1.4692275449	 2.5832292386	 0.125564
H	-0.4630205369	-2.3783680211	 1.1245825994	 0.12387
H	 2.3360268479	-3.9772423533	 3.8383424321	 0.193283
