19
gdb 94065	4.47355	0.97532	0.84229	4.8316	77.36	-0.2321	0.0153	0.2474	1358.6507	0.160652	-419.215375	-419.20678	-419.205836	-419.248513	32.54	
C	-0.0067196054	 1.5378290955	 0.0032777258	-0.415029
C	 0.0131035458	 0.0132550654	-0.0055757432	 0.04445
C	 0.7070968671	-0.5455044366	-1.2536694478	-0.074191
O	 0.7763463534	-1.9681233916	-1.2231882328	-0.256458
C	 1.474986038	-2.4367561143	-0.0833811096	-0.02717
C	 0.7945961877	-1.9402001696	 1.2149998144	-0.179786
N	 0.639489938	-0.4923177839	 1.2245685567	-0.29898
C	 1.5181026992	-3.9018410746	-0.1427176613	 0.276116
N	 1.5606510223	-5.0559031283	-0.1257844664	-0.313935
H	 1.0116284575	 1.9449335197	-0.0187237769	 0.114454
H	-0.5404839239	 1.9295855991	-0.8675569714	 0.124673
H	-0.4984308854	 1.9043511611	 0.9077904881	 0.13576
H	-1.0188738223	-0.3641631214	-0.0079914537	 0.095532
H	 0.1584343638	-0.2978786309	-2.1669151364	 0.118043
H	 1.7239962554	-0.1213022412	-1.3340985564	 0.083372
H	 2.5154333548	-2.065055846	-0.1010802902	 0.104578
H	-0.1958947635	-2.405008506	 1.2781586792	 0.131833
H	 1.3725999104	-2.2575772381	 2.08790658	 0.12245
H	 1.5455932271	-0.0466176885	 1.3497164218	 0.21429
