17
gdb 23555	2.18311	1.49634	0.97134	1.802	72.58	-0.239	-0.0061	0.2329	1186.9626	0.135188	-455.038793	-455.030169	-455.029225	-455.072326	32.113	
O	 0.9431548254	-0.9477197503	 0.6753348662	-0.416507
C	 0.1803628448	-0.0499729224	-0.1102263763	-0.082114
C	-1.2943724649	-0.4131180896	-0.0617516566	-0.072701
N	-1.9709791753	-0.3216899849	 1.3034652794	-0.153311
C	-2.0532708602	 1.1057733041	 1.6475710172	-0.249292
C	-3.0395588725	 0.5782975714	 0.6721874164	-0.123306
C	-2.3954200224	 0.4473852168	-0.6575922917	 0.411464
N	-2.7996193151	 0.7694403901	-1.8129887005	-0.260672
O	-1.8713147886	 0.3645993113	-2.7904409875	-0.393785
H	 0.5396627879	-0.9776445818	 1.5503228662	 0.295036
H	 0.3457156118	 0.9943759292	 0.1951320999	 0.088925
H	 0.5331346767	-0.1437970223	-1.1412867849	 0.135465
H	-1.4060870103	-1.4460890392	-0.408975616	 0.125373
H	-2.408232252	 1.2707244317	 2.6603947556	 0.134387
H	-1.2850777195	 1.7996183631	 1.3184125856	 0.128292
H	-4.0960189262	 0.477211214	 0.8907881048	 0.121794
H	-2.2985926897	 0.6435885487	-3.6073738077	 0.310953
