19
gdb 50148	3.96646	1.00746	0.92651	3.0461	83.68	-0.2281	-0.0261	0.2019	1302.7022	0.159082	-385.89838	-385.890008	-385.889064	-385.932479	31.602	
O	-0.6758061469	 0.4874440675	 0.1186745987	-0.251132
C	-0.1402270658	 1.5476154175	-0.0715825786	 0.159531
C	 1.3532924014	 1.8098142183	 0.0506854655	-0.11724
C	 1.8951772241	 2.654033802	-1.1435865357	-0.345993
C	 2.1448183393	 4.0642279567	-0.5809536682	 0.357027
C	 3.1418562071	 5.0113543405	-1.2082965543	-0.314479
C	 1.6706978335	 5.3174916278	-1.2925031066	-0.310897
C	 2.0089264692	 3.9254169307	 0.8898351054	-0.124979
C	 1.6072891047	 2.7061472249	 1.2502092142	-0.117145
H	-0.7296694291	 2.4553102069	-0.3444266116	 0.073896
H	 1.8432484524	 0.8355098825	 0.1418990945	 0.094605
H	 2.8282486269	 2.2104857892	-1.5031962112	 0.117101
H	 1.1988499237	 2.6633698998	-1.9887605475	 0.106983
H	 3.7585806762	 5.616661755	-0.5518753726	 0.114909
H	 3.6466453337	 4.6771635701	-2.1093507828	 0.115255
H	 1.1744009135	 5.1909065119	-2.2493775669	 0.116369
H	 1.2774771695	 6.1301855547	-0.6906694978	 0.115408
H	 2.223592055	 4.7423717426	 1.5708708246	 0.101603
H	 1.4273940615	 2.3696248714	 2.264147931	 0.109177
