21
gdb 104455	3.12154	1.20698	1.08344	1.8895	73.8	-0.2469	0.0771	0.3239	1214.3762	0.182889	-461.36791	-461.358884	-461.35794	-461.40127	34.751	
C	-0.1105451303	 1.5661818284	 0.0521606961	-0.394194
C	 0.0096100945	 0.0398506377	-0.0236467027	-0.20818
C	 0.754979345	-0.4762012779	-1.2567742119	 0.347236
O	 0.0678828276	 0.0056011154	-2.4057987419	-0.477849
C	 2.2241145019	-0.0141682014	-1.3143822194	-0.124566
O	 2.8691558864	-0.5986251227	-2.4450317356	-0.249022
C	 2.816598248	-1.9999948989	-2.3859331185	 0.008866
O	 1.4996909812	-2.4830159674	-2.4147032312	-0.248513
C	 0.7623633298	-2.0166703739	-1.2864689356	-0.122554
H	 0.861878825	 2.048373254	 0.1947664739	 0.114301
H	-0.552504766	 1.9598331541	-0.8658289005	 0.14348
H	-0.7450585494	 1.8579656494	 0.8941003242	 0.111782
H	 0.5042906905	-0.3469111198	 0.8757935138	 0.094008
H	-0.9951860504	-0.3997815095	-0.0423445698	 0.107127
H	 0.5548423603	-0.3267951221	-3.1699280442	 0.286871
H	 2.2857102161	 1.0664946162	-1.4513292971	 0.120276
H	 2.7565951898	-0.2907884581	-0.3895508804	 0.086678
H	 3.320715598	-2.3805173152	-3.2762865003	 0.120866
H	 3.3275077809	-2.3556649558	-1.4704589156	 0.079336
H	 1.1948956901	-2.4230312829	-0.3573524036	 0.085441
H	-0.2562733891	-2.3944829994	-1.4009792297	 0.11861
