22
gdb 100646	2.41799	1.08459	0.95688	3.4368	82.35	-0.2942	0.0202	0.3143	1377.811	0.191086	-404.372373	-404.361277	-404.360333	-404.408183	40.585	
C	-0.0032732656	 1.5892664566	 0.2124397903	-0.397172
C	-0.0068396022	 0.0775568955	-0.0410604893	-0.191909
C	-1.4213824299	-0.5270754115	-0.137793791	 0.01686
C	-2.1484493842	-0.120467114	-1.4271926281	-0.425462
C	-1.3883160695	-2.0756130991	 0.0742936351	 0.192398
C	-0.5715422292	-2.8366287464	-0.9768644793	-0.406395
O	-0.7966234922	-2.4045059679	 1.3284199298	-0.442313
C	-2.7840463234	-2.5866136674	 0.0719955591	 0.258905
N	-3.8743042276	-2.9695543046	 0.1052846851	-0.347409
H	 1.021109367	 1.9620518388	 0.3067536536	 0.118573
H	-0.4801914733	 2.1448575167	-0.6006922168	 0.121089
H	-0.5323863774	 1.8370855434	 1.1395164563	 0.115204
H	 0.5433657933	-0.1337684208	-0.9663630997	 0.099675
H	 0.5334539034	-0.4253253634	 0.766812796	 0.114206
H	-2.0076382411	-0.1386958071	 0.7094619687	 0.074195
H	-1.5830214456	-0.4202841039	-2.3159349541	 0.121318
H	-3.1439067788	-0.5685554114	-1.488841128	 0.144242
H	-2.2733256688	 0.964463929	-1.4692301979	 0.125437
H	 0.4654192799	-2.4970685115	-0.9469265304	 0.137534
H	-0.5929270863	-3.9047484629	-0.7521823641	 0.14534
H	-0.9737823951	-2.6803530458	-1.979348029	 0.136215
H	-1.3099839835	-1.9812663323	 2.0266062736	 0.289468
