20
gdb 56222	4.83063	0.62549	0.56146	3.9791	77.85	-0.2557	-0.0218	0.2339	1961.3868	0.16729	-440.319882	-440.308991	-440.308047	-440.357853	36.987	
C	-0.127411224	 1.4391338064	-0.2068193388	-0.441926
C	-0.0126389571	-0.0281379215	 0.0945905443	 0.409377
N	 0.0887094931	-0.4639841312	 1.280641988	-0.519465
O	-0.0371936644	-0.7418929137	-1.0681798591	-0.246858
C	 0.0615979293	-2.1603544952	-0.9827395578	-0.085679
C	 0.0104957611	-2.6997061882	-2.4035275109	-0.323827
C	 0.1072685391	-4.2180057413	-2.4540133487	 0.379703
C	 0.0650044295	-4.850309025	-3.8320051529	-0.473887
O	 0.2120907193	-4.8779372572	-1.4446296316	-0.290355
H	 0.696527838	 1.7588448823	-0.8524864246	 0.136203
H	-1.0583158231	 1.6436587503	-0.7449359165	 0.13621
H	-0.1075938838	 2.0051926018	 0.7231501256	 0.147681
H	 0.1581840464	-1.4793987191	 1.3283190773	 0.221311
H	 0.9985718379	-2.4517455511	-0.4936872931	 0.126058
H	-0.7630619988	-2.5680040792	-0.3862781305	 0.126067
H	-0.9170440704	-2.382818898	-2.897308573	 0.134515
H	 0.8221495864	-2.2684462808	-3.0033587509	 0.134502
H	 0.8855841392	-4.4708519404	-4.4512368417	 0.141678
H	 0.1416599354	-5.9344626086	-3.7439950045	 0.147013
H	-0.866738393	-4.5860225702	-4.3446270608	 0.141677
