20
gdb 16381	2.84779	2.17897	1.54922	0.1656	81.55	-0.2019	0.0322	0.2341	925.8671	0.177895	-311.853326	-311.845631	-311.844686	-311.88484	30.182	
C	-0.0309391815	 1.4787635342	 0.1020574821	-0.520683
C	 0.0085543566	-0.00797833	 0.0097734696	 0.238813
C	-0.003600803	-0.8445804597	-1.0387348959	 0.238818
C	-0.0608656449	-0.6039276685	-2.5081852639	-0.520683
C	 0.0590724848	-2.2353517258	-0.3737704819	-0.104046
C	-0.9738128537	-2.0441753255	 0.7876971543	-0.206009
C	 0.0774447526	-0.9658654653	 1.2172727048	-0.104047
C	 1.1566094495	-1.9832168918	 0.7144716259	-0.206009
H	 0.8544129987	 1.8741489536	 0.617735883	 0.122998
H	-0.0769018446	 1.9461856688	-0.8859455003	 0.120619
H	-0.9015454808	 1.8239532891	 0.6756610735	 0.123012
H	-0.1009422541	 0.463581127	-2.7439076829	 0.120619
H	 0.8141023815	-1.0263785574	-3.020141917	 0.123013
H	-0.941718227	-1.0791002412	-2.9603046242	 0.122998
H	 0.0621620933	-3.1162593017	-1.0172826388	 0.052228
H	-1.9743429818	-1.6947457251	 0.5204421116	 0.086456
H	-1.0274541666	-2.8990146882	 1.4703827824	 0.08661
H	 0.099515898	-0.5341344303	 2.2188896946	 0.052228
H	 1.305695683	-2.8322499296	 1.3901960941	 0.08661
H	 2.11485268	-1.5777454727	 0.3798828391	 0.086455
