17
gdb 74111	2.45606	1.64881	1.08211	5.4221	78.42	-0.2132	-0.022	0.1912	1096.6221	0.138464	-418.02487	-418.017148	-418.016204	-418.056929	30.488	
N	 0.0860311686	 1.3454715688	-0.0425402495	-0.55857
C	-0.0007586295	-0.0239766443	-0.0060525585	 0.392944
C	-1.1877825922	-0.6800405269	-0.0098692995	-0.313555
C	-1.3111144669	-2.1238733299	 0.08231289	 0.437831
O	-2.3730809866	-2.7016000682	 0.2580158938	-0.378
C	-0.0371571411	-2.9153750955	-0.0577381892	-0.160436
N	 0.7314843098	-2.6763172767	-1.3087859581	-0.33317
C	 1.2769309216	-2.2195235641	-0.0298446596	-0.040591
C	 1.3297800217	-0.7201451819	 0.1628809099	-0.315678
H	 0.954971985	 1.7556616435	-0.3441435059	 0.255791
H	-0.7363995406	 1.8578299549	-0.3208424399	 0.261109
H	-2.1203526596	-0.1253468849	-0.0609284301	 0.080861
H	-0.1110127554	-3.9343845816	 0.3096749657	 0.097613
H	 1.1810082461	-3.5444479828	-1.589593108	 0.236978
H	 2.1218088573	-2.7624672123	 0.3874786425	 0.090283
H	 2.0558046999	-0.2903235131	-0.5414457835	 0.114435
H	 1.7051652317	-0.491249375	 1.1692367099	 0.132153
