18
gdb 63525	3.46788	1.12193	1.03446	3.955	75.18	-0.2462	0.0291	0.2753	1216.7638	0.145312	-439.063599	-439.054719	-439.053775	-439.096889	33.908	
C	 0.1501078972	 1.5713486985	-0.2775249702	-0.449497
C	 0.0117716072	 0.0814138065	-0.0592504314	 0.309737
O	-1.1837807498	-0.4749925437	-0.5231356914	-0.450747
C	 1.2541876079	-0.8136480809	-0.0872086706	-0.432523
C	 0.530792618	-0.5414311434	 1.1939315279	 0.42395
C	 0.9843980194	 0.0655443348	 2.5173678177	-0.446626
C	 0.1865757749	-1.0808196072	 3.1086446949	 0.430714
N	-0.0703734169	-1.4784670711	 4.2680542025	-0.542317
O	-0.1926890629	-1.5883183392	 1.8778042689	-0.259846
H	 1.0645086849	 1.9621690041	 0.1783728195	 0.121736
H	 0.1914494029	 1.8010483794	-1.3491574336	 0.115793
H	-0.7069776876	 2.1007467355	 0.150377837	 0.134043
H	-1.1599288697	-0.4700622119	-1.4867002005	 0.285263
H	 1.1140673784	-1.8052695583	-0.5046523259	 0.132705
H	 2.232940897	-0.370974867	-0.2457866113	 0.117415
H	 2.0561169633	 0.0265117636	 2.7213338877	 0.139427
H	 0.5987311853	 1.0595738381	 2.7512416211	 0.140843
H	-0.6600014793	-2.3123157978	 4.2512077678	 0.229931
