18
gdb 105843	2.17096	1.59042	1.24863	2.9279	73.1	-0.2327	-0.0286	0.2041	1088.2781	0.146154	-439.046262	-439.037298	-439.036354	-439.080225	32.906	
C	-0.1341625812	 1.4965924497	 0.0144230628	-0.329103
N	 0.1212518441	 0.05884306	 0.0361572104	-0.111188
C	 1.4102369183	-0.5334536899	-0.194663397	-0.116114
C	 2.5678332048	 0.3168145047	 0.3692076229	-0.377582
C	 1.8687314378	 0.1733540247	 1.7442817722	 0.365642
O	 2.1973536963	 0.4054396286	 2.8770698592	-0.3246
C	 0.7186991464	-0.6284328154	 1.1733761799	 0.203685
C	-0.0134448476	-1.6783060855	 1.9625916808	-0.1833
O	-0.6463592139	-1.0929423469	 3.0907747007	-0.41952
H	 0.6736276905	 2.1259787093	 0.4101179332	 0.117123
H	-0.3301199829	 1.7957569496	-1.0195138295	 0.130693
H	-1.0348187296	 1.6875071347	 0.6033028674	 0.145342
H	 1.5049927056	-1.3207977631	-0.9341896591	 0.115012
H	 3.5320159272	-0.2001049479	 0.3864192524	 0.137909
H	 2.7083833587	 1.3169598987	-0.0474607113	 0.129802
H	-0.7982882792	-2.1295040591	 1.3497736069	 0.124236
H	 0.6868592357	-2.4728481399	 2.2647756107	 0.094528
H	 0.0497779993	-0.6822115921	 3.6185076472	 0.297436
