19
gdb 68617	2.40384	1.64602	1.33829	1.8444	81.21	-0.237	0.0403	0.2774	1048.0608	0.158954	-385.84036	-385.832196	-385.831252	-385.872604	32.561	
C	-0.0278622343	 1.5149981375	 0.0513365247	-0.505516
C	 0.0003508799	 0.0085918667	-0.0102739047	 0.271769
C	 0.355213133	-0.8138568389	-1.2931206141	-0.281945
C	-0.300119819	-1.9444835626	-0.468589039	 0.094651
O	 0.5934677959	-2.1205204804	 0.6315686299	-0.272101
C	 0.8538880714	-0.7519357825	 1.0170010856	-0.110266
C	-1.3180898265	-0.8708561645	 0.0400453618	-0.247065
C	-2.0264977949	-1.0595494942	 1.2844860918	 0.323951
C	-2.6120950363	-1.1986672657	 2.3261810239	-0.439757
H	 0.9786182424	 1.9329833886	-0.06399574	 0.121596
H	-0.6567491054	 1.933254851	-0.7408469781	 0.120063
H	-0.4252774745	 1.8581043945	 1.0129529535	 0.130852
H	-0.2241834288	-0.5081465603	-2.1664449421	 0.100347
H	 1.4104447638	-0.9396434843	-1.5445971831	 0.101998
H	-0.6017607536	-2.9114187623	-0.8663477341	 0.086888
H	 1.9238265046	-0.529167772	 0.9264497637	 0.09786
H	 0.5329579436	-0.5871814128	 2.0511208267	 0.112949
H	-1.9987644193	-0.5670529707	-0.760149136	 0.101194
H	-3.129778982	-1.3355018173	 3.2430443795	 0.192532
