21
gdb 121860	1.90157	0.83408	0.60623	2.077	84.75	-0.248	0.0381	0.2861	1894.7944	0.178334	-424.190602	-424.178785	-424.177841	-424.230631	39.43	
C	 0.0507494169	 0.3752578612	 1.4000190605	-0.384887
C	-0.187101501	-0.2132414266	 0.0198605376	-0.023519
O	-1.4159849249	-0.911229968	 0.0336130637	-0.240465
C	-1.7418724523	-1.4942879452	-1.2019537474	-0.061706
C	-3.0738526832	-2.2482238499	-1.056893957	-0.05473
O	-3.5330221216	-2.6584548892	-2.3442625504	-0.420192
C	-2.9754595994	-3.3703846185	-0.1245319205	 0.090451
C	-2.8782773927	-4.3309049425	 0.5957195082	 0.021381
C	-2.7733224615	-5.4780479014	 1.4853648121	-0.497884
H	 0.9984697514	 0.9214787153	 1.4236472543	 0.113611
H	-0.7550189941	 1.0649378052	 1.6668248985	 0.126993
H	 0.0861622304	-0.4171724749	 2.1528731845	 0.127844
H	-0.2113901965	 0.5837817036	-0.7427796542	 0.085867
H	 0.633413146	-0.8968830256	-0.2570987937	 0.08572
H	-1.8673507666	-0.7325710307	-1.9878791594	 0.094434
H	-0.9565667395	-2.1951123765	-1.5335939528	 0.079186
H	-3.8181235402	-1.5308934332	-0.6910493395	 0.121751
H	-3.100624594	-3.4946796251	-2.5474519153	 0.284519
H	-3.519044306	-6.241722885	 1.2385216471	 0.150227
H	-1.7843260248	-5.9451245175	 1.4232802709	 0.147722
H	-2.9355464864	-5.1820595254	 2.5275917628	 0.153675
