17
gdb 10544	2.99154	1.45948	1.10594	5.5795	70.05	-0.239	0.0246	0.2636	1104.487	0.142361	-360.010719	-360.002139	-360.001194	-360.044192	30.471	
C	 0.0827647146	 1.4659689762	 0.0589861922	-0.312387
N	 0.2000301226	 0.0152456328	 0.0432336363	-0.268495
C	 0.5560308291	-0.529109142	-1.2520440349	-0.211152
C	 0.6228299287	-2.0459564152	-1.207892922	 0.125109
C	 1.5433171031	-2.7635309676	-2.139458273	-0.266009
N	 1.8522017576	-2.7084156412	-0.7088147102	-0.324327
C	-0.6092198443	-2.7044212957	-0.8161892027	 0.300942
N	-1.6017952973	-3.2322296126	-0.548999627	-0.338665
H	 0.9895668411	 1.9990574789	-0.2796819557	 0.094678
H	-0.7433504382	 1.7714456879	-0.592767582	 0.130733
H	-0.1522294083	 1.800670255	 1.0727322399	 0.129024
H	 0.8617013351	-0.2926037407	 0.7476549209	 0.22365
H	-0.2120326281	-0.2208518905	-1.9730739204	 0.127954
H	 1.5239833266	-0.159938054	-1.6484387599	 0.075591
H	 1.2641917371	-3.744402116	-2.5096855191	 0.147465
H	 2.115402397	-2.1513609594	-2.8316560042	 0.126693
H	 2.5593542934	-1.997718026	-0.5307550983	 0.239198
