17
gdb 30441	3.51892	1.21371	0.91272	1.3997	85.03	-0.2173	-0.0662	0.1511	1272.2895	0.135243	-418.028251	-418.019442	-418.018498	-418.062466	31.389	
C	 0.1016338344	 1.3857291273	 0.3597160778	-0.325136
N	 0.0332675507	-0.0369789793	 0.0736324292	-0.277149
C	-1.0831591231	-0.5595478219	-0.2092344934	 0.345039
O	-1.0545115755	-1.9266395311	-0.4687374022	-0.246306
C	-2.1871084944	-2.5942290969	-0.7821891162	 0.3789
C	-1.9483052806	-4.0457049694	-1.0237339637	-0.472758
C	-3.3737454762	-1.953823015	-0.8517405945	-0.153001
N	-3.4896044118	-0.5973951157	-0.6086097325	-0.221252
C	-2.413377095	 0.0459042477	-0.3090126584	-0.081719
H	-0.2213562932	 2.004501747	-0.4895724049	 0.119732
H	-0.5048477142	 1.6725290944	 1.230591479	 0.119672
H	 1.1386770523	 1.6489734979	 0.5813958194	 0.12927
H	-1.5139343502	-4.5151592767	-0.1345285468	 0.152246
H	-2.8817945285	-4.5524405123	-1.2736753784	 0.140319
H	-1.2355648586	-4.1849277145	-1.843715824	 0.152246
H	-4.2804663682	-2.4883021652	-1.1026868265	 0.115004
H	-2.4900203578	 1.1121104938	-0.1156175139	 0.124894
