21
gdb 73860	3.14998	1.03801	0.81863	1.0363	92.87	-0.2228	0.0309	0.2537	1446.0702	0.180808	-349.953099	-349.943268	-349.942324	-349.987622	36.825	
C	-0.0140990323	 1.5215567537	 0.1169540427	-0.499249
C	 0.0253693261	 0.029569041	-0.0011434183	 0.224025
C	 0.0131791878	-0.7228364415	-1.1102973104	 0.223995
C	-0.0434146852	-0.2804732271	-2.5395079509	-0.499245
C	 0.0003568715	-2.2008621587	-0.779399201	-0.303247
C	 0.3951599953	-2.2403433206	 0.7247680184	-0.163078
C	 0.0226547777	-0.8242278621	 1.2499512299	-0.303246
C	-0.1862874333	-3.3412981537	 1.4780284052	 0.311602
C	-0.6792864466	-4.246673754	 2.0975140931	-0.462286
H	 0.8533034228	 1.8954407772	 0.6762097935	 0.123629
H	-0.0274344251	 2.021159231	-0.8545771363	 0.122165
H	-0.9031152623	 1.8475025889	 0.67299999	 0.125524
H	-0.0456125789	 0.8070170018	-2.6444411744	 0.122167
H	 0.810718542	-0.6719919774	-3.1070450923	 0.123615
H	-0.9448259412	-0.6661308405	-3.0339969012	 0.125533
H	-0.9992214257	-2.6294357268	-0.9370580505	 0.112816
H	 0.6893471337	-2.7882284214	-1.3974118409	 0.103584
H	 1.48783466	-2.3269445136	 0.7715318763	 0.105236
H	 0.7268154103	-0.4742658809	 2.0137121975	 0.103585
H	-0.9700197687	-0.8260262725	 1.721420617	 0.112817
H	-1.1090216778	-5.0476695626	 2.6458148027	 0.190059
