15
gdb 74508	3.7976	1.26607	1.07602	1.9686	73.32	-0.2225	0.0365	0.2591	1102.6938	0.112541	-416.77546	-416.767709	-416.766765	-416.807352	30.638	
N	 0.0625241581	 1.3162116749	-0.2049745359	-0.58023
C	-0.0455736695	-0.035659201	-0.0439386729	 0.446533
N	-1.1247189739	-0.7204682001	 0.0244069311	-0.384969
C	-0.7110674631	-2.108150211	 0.0569739248	 0.148529
C	 0.0552942194	-2.5937866776	-1.1758114076	-0.346241
C	 0.8206358587	-2.0679743595	-0.0026625397	 0.019415
O	 1.1543097986	-0.6932368765	-0.0172312068	-0.243289
C	-1.464991507	-3.0306923357	 0.8512109982	 0.217436
C	-2.0856106648	-3.8225204738	 1.5094806866	-0.391457
H	 0.9118156203	 1.7252491414	 0.1545898117	 0.265989
H	-0.7804013864	 1.8212525769	 0.0219340232	 0.273024
H	 0.0984637033	-3.6662944504	-1.3270179927	 0.13187
H	-0.0183233603	-1.9898636754	-2.0740125243	 0.13036
H	 1.50278611	-2.6678540204	 0.5842138862	 0.125367
H	-2.6417460033	-4.5135464916	 2.0928240081	 0.187662
