18
gdb 22831	2.22599	1.53594	0.96651	1.0443	71.75	-0.252	-0.0061	0.2458	1191.4053	0.14778	-476.180574	-476.172005	-476.171061	-476.213677	32.602	
O	-0.020675706	 1.3370843687	 0.0346282931	-0.395854
N	 0.0526573485	-0.0579067815	-0.025450202	-0.215475
C	-1.0829557436	-0.6330405778	-0.0218539686	 0.343004
C	-2.4427164137	 0.0282524944	-0.0068832528	-0.180485
O	-3.288686904	-0.5202549876	-1.0026940837	-0.239779
C	-3.4275156923	-1.9292923381	-0.8957926204	-0.087687
C	-2.0866536539	-2.6353596845	-1.0951442328	-0.217965
C	-1.0747248137	-2.1472129661	-0.0478490242	 0.073466
O	 0.1974140009	-2.6934664353	-0.2870180837	-0.445148
H	 0.9042702978	 1.597091522	-0.0320908706	 0.310708
H	-2.8933416522	-0.0932134993	 0.9942569858	 0.104964
H	-2.3509788798	 1.0940401328	-0.2140207619	 0.14687
H	-3.8609528714	-2.1943436834	 0.0846040069	 0.088876
H	-4.1446982727	-2.2207293796	-1.6674427649	 0.116273
H	-2.2033714197	-3.7210138525	-1.0147487251	 0.108466
H	-1.6952569011	-2.4099043227	-2.0927715645	 0.117705
H	-1.4406102161	-2.475392495	 0.9444708043	 0.081841
H	 0.828484853	-1.9656869446	-0.199884665	 0.29022
