22
gdb 111578	3.20162	1.33737	1.22869	1.6699	84.3	-0.2023	0.0803	0.2826	1142.9119	0.196392	-367.152515	-367.144638	-367.143694	-367.18498	31.622	
C	 0.0298358623	 1.5745086318	 0.0771081985	-0.379143
C	-0.1442566049	 0.0556654201	-0.0372351277	-0.207937
C	 0.6709906601	-0.5500949869	-1.1728407085	 0.047048
C	 2.2313245821	-0.5416482818	-1.1501627778	-0.074716
C	 2.8420957123	-1.2048593067	 0.1017576976	-0.175952
N	 2.5673129221	-2.5903073732	-0.4115151453	-0.146999
C	 1.1163395377	-2.9276082924	-0.2143496057	-0.174851
C	 0.6804049063	-2.0862579776	-1.431368704	-0.092306
C	 2.2034380849	-1.9784342004	-1.7625072091	 0.004589
H	 1.0744562641	 1.8406723409	 0.2717527577	 0.11896
H	-0.2712965641	 2.0782307241	-0.8482499873	 0.113814
H	-0.5743018258	 1.985122197	 0.8918947796	 0.112663
H	 0.1272187784	-0.4128317677	 0.9162673719	 0.095444
H	-1.2043439646	-0.1832172427	-0.1971449626	 0.095134
H	 0.3702053353	-0.073877318	-2.1156385845	 0.07105
H	 2.7419984202	 0.3201671909	-1.582097351	 0.064115
H	 3.9242276606	-1.0495695666	 0.1669005466	 0.103769
H	 2.4046502515	-0.9828448719	 1.0819103573	 0.096043
H	 0.9685352782	-4.000006935	-0.3806564096	 0.103499
H	 0.7145954391	-2.6761801896	 0.773687052	 0.09612
H	-0.0875926617	-2.4906773698	-2.0929153843	 0.062665
H	 2.7086400259	-2.3206823743	-2.6651271638	 0.066989
