13
gdb 130805	8.06715	0.65399	0.60495	3.9264	84.8	-0.2477	-0.0672	0.1805	1682.61	0.090545	-415.609233	-415.60143	-415.600486	-415.642815	27.004	
O	-0.1262705235	-0.0398193156	 0.000376386	-0.239559
C	-0.028769703	 1.1686324682	 0.0083417818	-0.008305
C	 1.2104560043	 1.888568621	 0.0000271623	 0.161169
C	 2.2448193356	 2.5208195378	-0.0066503813	-0.056535
C	 3.444160793	 3.249496774	-0.0144788567	 0.102994
C	 4.7424764466	 2.7471926969	-0.0328958045	-0.149615
N	 5.5587838915	 3.8157177578	-0.0337964684	-0.171002
N	 4.9031406118	 4.9989777746	-0.0173244117	-0.198424
C	 3.6246023174	 4.6638766108	-0.005600257	-0.116374
H	-0.9268591122	 1.8199745341	 0.0232435065	 0.095453
H	 5.1079171534	 1.7331658748	-0.0448071808	 0.16094
H	 6.5653916927	 3.8196687799	-0.0450393623	 0.288472
H	 2.8588908826	 5.4245127857	 0.0088488562	 0.130785
