21
gdb 88101	2.36175	1.53992	1.11071	1.5387	86.72	-0.2036	0.0243	0.2279	1192.7839	0.1813	-387.091595	-387.08232	-387.081375	-387.125545	34.942	
C	 0.037847798	 1.5659082968	 0.19092719	-0.402353
C	-0.0311527115	 0.0589357603	 0.091514462	-0.06969
C	 1.1724004804	-0.7410619434	-0.374216705	-0.359632
C	 0.7395456384	-0.8035497051	 1.0698588005	 0.378178
O	 1.5659206032	-0.1470669663	 2.0112733152	-0.314994
C	 1.5103487409	-0.8421817497	 3.2575411392	-0.132435
C	 0.6261884791	-2.0276884859	 3.0002373414	-0.223593
C	 0.1837154758	-2.0085875416	 1.7428421555	 0.269161
C	-0.7172013911	-2.9881511935	 1.0631667607	-0.507693
H	 1.002920733	 1.8833413245	 0.5926162984	 0.134042
H	-0.1000336386	 2.0325958199	-0.7906574183	 0.111244
H	-0.740076813	 1.9523627585	 0.8584744556	 0.114168
H	-0.9978858928	-0.3339868828	-0.2154321219	 0.079151
H	 1.0218479591	-1.6037595226	-1.0151687179	 0.106101
H	 2.0888811752	-0.1904116931	-0.5606245618	 0.120337
H	 2.5298792566	-1.1250751942	 3.5630997838	 0.104673
H	 1.1120421879	-0.1761333892	 4.0402509324	 0.102642
H	 0.3948078307	-2.7719900159	 3.7519015139	 0.096546
H	-0.9996041868	-3.7983183019	 1.7397031393	 0.128488
H	-1.637357408	-2.5084202314	 0.7084145104	 0.133033
H	-0.2334261265	-3.4331266236	 0.1852995165	 0.132627
