19
gdb 106348	4.9183	0.90151	0.87279	3.4348	78.05	-0.2435	-0.0245	0.219	1352.0261	0.158152	-422.97978	-422.970899	-422.969955	-423.013884	32.734	
O	-0.1214889236	 1.4099834402	 0.0111180394	-0.421941
C	-0.0486345809	-0.00861022	 0.0044723585	-0.218338
C	-1.4519022551	-0.540381293	 0.0118815199	 0.358778
C	-2.5586553427	-0.2748453518	-1.054335904	-0.292836
C	-3.2081601375	-1.2098111102	 0.0210910862	 0.24676
C	-1.8941904385	-2.0353503824	 0.0091617073	-0.31402
C	-2.5440550116	-0.2831573198	 1.0950113227	-0.292655
C	-4.6060960644	-1.717131742	 0.0291734778	 0.031658
O	-4.9102771968	-2.88465769	 0.0304176357	-0.249426
H	 0.7749992255	 1.757795086	 0.0068312013	 0.290864
H	 0.4786472431	-0.3817818183	-0.8889599725	 0.089974
H	 0.4909699691	-0.3894948681	 0.8872213821	 0.089979
H	-2.9387607363	 0.7466802337	-1.1175108702	 0.107853
H	-2.4078953955	-0.717664998	-2.0426541727	 0.09861
H	-1.6894849142	-2.6084815768	-0.8984324695	 0.099877
H	-1.6772987621	-2.6153512769	 0.9095183899	 0.099945
H	-2.3801008297	-0.7337161383	 2.0777048417	 0.098678
H	-2.9232611673	 0.7378062427	 1.1712294452	 0.107875
H	-5.3855359416	-0.919056957	 0.0344200012	 0.068366
