18
gdb 37139	3.24108	1.67825	1.63382	1.4373	73.76	-0.239	0.0794	0.3185	914.9868	0.150189	-401.876988	-401.870349	-401.869405	-401.907643	27.788	
C	-0.0465290001	 1.566314149	 0.0030533524	-0.20755
C	 1.4586645157	 1.9797776519	 0.0156225187	-0.302997
C	 2.1116010441	 0.8305130808	 0.7365869871	 0.317923
O	 1.4570224859	 0.4021271814	 1.9367562142	-0.301236
C	 1.2007992043	-0.3413458296	 0.7392629862	 0.317924
C	-0.0756582755	 0.0056806422	 0.0201290876	-0.302997
C	 2.3782361683	-1.2652551973	 0.4767678807	-0.145334
N	 2.985649355	-0.7922071955	-0.7955595668	-0.334235
C	 3.2969573658	-0.0832067903	 0.4740663958	-0.145334
H	-0.5331974671	 1.9466228771	 0.9038343671	 0.120267
H	-0.5795828113	 1.9786536344	-0.8576465114	 0.099824
H	 1.8649054167	 2.0205215955	-1.0008351046	 0.12138
H	 1.6132669132	 2.9576598238	 0.4814275411	 0.105893
H	-0.9840940404	-0.384168037	 0.4890558456	 0.105893
H	-0.017121254	-0.400940603	-0.9953070476	 0.12138
H	 2.5577916317	-2.2668131386	 0.8471336325	 0.100191
H	 3.7755033941	-1.4065790884	-1.0018930531	 0.228816
H	 4.3126641537	-0.0089536964	 0.8419731145	 0.100191
