17
gdb 87898	2.64145	1.54239	1.14399	2.9739	75.54	-0.2373	-0.0415	0.1957	1075.7881	0.135989	-421.847251	-421.839234	-421.83829	-421.879785	30.663	
O	-0.1458733505	 1.414914389	-0.069274656	-0.422731
C	-0.0788934112	 0.0218582728	-0.0144420465	 0.070467
C	-0.4685875975	-0.6984560782	 1.2355333286	-0.367887
C	-1.4112395951	-0.6923379146	 0.0428753021	 0.199095
C	-2.739113404	 0.0442894732	-0.0082345973	-0.364591
C	-3.5807875017	-0.8449040134	-0.8916196144	-0.062548
C	-2.9359168691	-1.9431759707	-1.3057724045	-0.175806
C	-1.5568588811	-1.9563509552	-0.7640024189	 0.334571
O	-0.6962369237	-2.7962365734	-0.9262625021	-0.361907
H	 0.593426401	 1.7697567586	 0.4353500201	 0.293613
H	 0.6753878388	-0.4416806114	-0.6495294069	 0.110485
H	 0.0203352564	-1.6424186003	 1.4540734243	 0.13528
H	-0.7607403657	-0.0957843771	 2.0892893701	 0.115982
H	-3.2019972979	 0.1616758363	 0.9800007375	 0.120562
H	-2.6391903516	 1.0530817069	-0.4246203314	 0.142626
H	-4.6042857557	-0.5886219512	-1.1441082784	 0.115547
H	-3.3214533312	-2.7298509712	-1.9410379564	 0.117241
