12
gdb 129048	3.0708	1.5604	1.03465	4.1243	71.38	-0.2656	-0.0985	0.1671	1034.1513	0.078607	-431.644001	-431.636965	-431.636021	-431.67581	25.927	
N	-0.0443532807	 1.3092661799	 0.2020573735	-0.519649
C	-0.0046201072	 0.0426231842	 0.032064292	 0.238998
C	-1.1953429416	-0.7632442756	-0.154715481	-0.171711
C	-1.0800872324	-2.0843496209	-0.3272210588	 0.086704
O	 0.1024329171	-2.759035137	-0.3426512199	-0.226238
N	 1.2808848693	-2.083366295	-0.1744261936	-0.105187
C	 1.2205598039	-0.801107567	-0.0037143179	 0.166852
C	 2.4940697059	-0.1579320552	 0.1665576454	 0.288115
N	 3.4799548163	 0.429111706	 0.3104442199	-0.308735
H	 0.8910840953	 1.7056380911	 0.3165155379	 0.240257
H	-2.1658901352	-0.2850360837	-0.1523306687	 0.147213
H	-1.8986890107	-2.7773972168	-0.4745590988	 0.163381
