18
gdb 80440	2.26027	1.75133	1.23134	2.4118	72.53	-0.2347	-0.0352	0.1995	1048.4168	0.145057	-439.030732	-439.021845	-439.0209	-439.064079	33.312	
C	-0.1497126212	 1.465974612	-0.2623395633	-0.336018
N	 0.1334358176	 0.0727115035	 0.0660371235	-0.063038
C	 1.4076858383	-0.568203577	-0.0963349691	-0.055244
C	 2.6013072273	 0.3159665638	 0.3397137796	-0.319015
C	 2.0169848048	 0.3574301272	 1.7821636077	 0.300774
O	 2.7216572142	-0.4446033484	 2.7132766182	-0.474829
C	 1.8243544707	 1.6823466201	 2.4896946736	 0.13647
O	 1.7529117964	 2.7559255534	 1.9478839719	-0.254245
C	 0.7489092732	-0.4124163627	 1.2641400735	-0.151471
H	 0.6705823388	 2.1636200965	-0.0710403282	 0.147841
H	-0.4216464058	 1.5118130778	-1.3213537267	 0.121434
H	-1.0157269672	 1.7891301235	 0.3227437933	 0.127466
H	 1.4740639381	-1.4447239815	-0.7328930829	 0.098433
H	 3.5616511671	-0.2036977193	 0.3366875615	 0.113227
H	 2.7077803202	 1.273964242	-0.1732663932	 0.124907
H	 2.7109360133	-1.3541772638	 2.3946051024	 0.286846
H	 1.7513188162	 1.5766282043	 3.5938512006	 0.095326
H	 0.219768438	-1.1216371215	 1.8960747876	 0.101137
