19
gdb 86886	2.89109	1.20335	0.9955	2.8579	75.66	-0.246	0.0284	0.2745	1225.9515	0.160099	-419.22132	-419.212157	-419.211213	-419.255976	33.774	
C	-0.2296425545	 1.5380919439	-0.0104278376	-0.402031
C	 0.1003237503	 0.0547744143	 0.080040146	 0.033232
N	 0.9576008624	-0.3867105973	-1.0321103394	-0.290605
C	 1.434932498	-1.7202332834	-0.6813974248	-0.124462
C	 1.7740064012	-1.5722448851	 0.8256398803	-0.253338
C	 0.9153792515	-0.3732310491	 1.3227934618	 0.133137
O	 1.7174715891	 0.7140888634	 1.7566059409	-0.425727
C	 0.4253884946	-2.7812031786	-0.91151245	 0.253741
N	-0.3838253574	-3.5810755478	-1.1199651796	-0.332236
H	 0.6840509025	 2.1334753823	-0.0189224833	 0.144343
H	-0.7981857633	 1.7466607369	-0.9227943491	 0.107922
H	-0.8402449798	 1.8487674496	 0.8423098849	 0.118781
H	-0.8407230527	-0.5226746553	 0.1059626197	 0.078546
H	 0.4751822667	-0.3699428208	-1.9242923252	 0.23059
H	 2.3196082419	-1.9804994885	-1.2710824484	 0.124495
H	 1.5916083738	-2.4954191874	 1.3779220676	 0.12278
H	 2.8276608247	-1.3046006841	 0.9281180018	 0.121
H	 0.2326757404	-0.6795662794	 2.1255207008	 0.073489
H	 2.1532027905	 0.4559290863	 2.5742719235	 0.286343
