16
gdb 130072	5.00039	0.84063	0.75809	2.6426	68.31	-0.2318	-0.014	0.2178	1454.5575	0.125536	-467.365337	-467.356521	-467.355577	-467.399935	30.964	
N	-0.0661440583	 1.2747808193	-0.250075941	-0.576326
C	-0.0247743877	-0.0876289829	-0.0735594753	 0.454715
N	-1.0794425125	-0.8911580768	-0.1897610037	-0.33457
N	-0.508439279	-2.0869881313	 0.0106365767	 0.136143
C	-1.2457809468	-3.332819704	-0.051880126	-0.136727
C	-1.6932587183	-3.6549819141	-1.4780110061	-0.079509
O	-2.4080902768	-4.8732034866	-1.3943761962	-0.413728
N	 0.7903751559	-2.0314865243	 0.2303239177	-0.125956
N	 1.1246587683	-0.7629380443	 0.1862196143	-0.277625
H	 0.7039004886	 1.7572971922	 0.1890901841	 0.266837
H	-0.9631095281	 1.6939965667	-0.05629914	 0.264173
H	-0.5806938265	-4.1108511755	 0.3246128679	 0.157012
H	-2.1192081021	-3.260311362	 0.6009569877	 0.144851
H	-2.3155837798	-2.8317999312	-1.855810548	 0.117558
H	-0.8072061668	-3.7369555937	-2.1254837024	 0.10712
H	-2.72725571	-5.0991867413	-2.2724781097	 0.296032
