17
gdb 67673	2.62593	1.86145	1.36337	3.9493	71.97	-0.2253	-0.0045	0.2208	968.1254	0.136405	-421.820724	-421.813185	-421.812241	-421.852663	28.956	
C	-0.0409060415	 1.523818046	 0.0176157001	-0.505874
C	-0.0221345957	 0.0253921906	-0.0488839708	 0.185066
C	-0.9069322925	-0.8751517728	 0.8176822171	-0.127254
C	-1.5044992086	-2.1315191476	 0.1889140892	-0.106904
O	-0.3846961708	-2.9050657165	-0.2504678256	-0.256931
C	 0.739685064	-2.0397449563	-0.2448084688	-0.049546
C	 0.5615360985	-1.0533108872	 0.9335496949	-0.127286
C	 0.5552268528	-0.7927954555	-1.1625259796	 0.371352
O	 0.9664348508	-0.4958833768	-2.2512510153	-0.333755
H	 0.9040065895	 1.9386059951	-0.3458776432	 0.141152
H	-0.8428393636	 1.9294075661	-0.6082816039	 0.139182
H	-0.2044672795	 1.8770942712	 1.0404424922	 0.12263
H	-1.4550761195	-0.3590935229	 1.5980704908	 0.106036
H	-2.0693202204	-2.7217252738	 0.9195215506	 0.112853
H	-2.1637278254	-1.8969076954	-0.6572227856	 0.110888
H	 1.6523776457	-2.6213988695	-0.3613388	 0.103554
H	 1.193546366	-0.8999580846	 1.7961751477	 0.114837
