19
gdb 92613	4.1103	1.26818	1.04097	3.9723	77.36	-0.216	0.0565	0.2724	1176.3169	0.162383	-419.233483	-419.225785	-419.224841	-419.265692	29.55	
C	-0.2305522019	 1.4952909124	-0.0668190542	-0.384583
C	 0.1574498868	 0.0277627159	 0.0591291482	 0.057362
C	 0.9382335998	-0.5284016738	-1.1806697981	-0.207135
N	 1.8204253792	-1.4918749303	-0.5281408138	-0.12144
C	 3.1597625322	-1.8710014072	-0.9386395559	-0.195882
C	 3.7236961901	-2.3090274738	 0.4300401763	-0.094532
O	 2.9999561579	-1.5221471357	 1.4020602382	-0.261591
C	 1.9112532032	-1.0302943397	 0.7862242802	 0.484878
N	 1.0486719113	-0.2088688983	 1.2215908682	-0.39033
H	 0.6605602938	 2.1202542228	-0.1849784092	 0.114946
H	-0.8851331699	 1.6552578025	-0.9309091793	 0.105579
H	-0.7581972645	 1.8263961877	 0.8314403313	 0.129611
H	-0.756404608	-0.5687470708	 0.1969982976	 0.082005
H	 0.2912443457	-0.9961253266	-1.9268627817	 0.110578
H	 1.5205326594	 0.270292231	-1.6708290412	 0.090454
H	 3.1677409342	-2.6865978035	-1.6668201975	 0.120037
H	 3.7241545783	-1.0209307709	-1.3569800963	 0.103707
H	 3.5295952097	-3.369366779	 0.6231306919	 0.126655
H	 4.7888220027	-2.1064893028	 0.5522705554	 0.12968
