16
gdb 18247	4.60374	1.62883	1.32321	3.3155	65.26	-0.2516	-0.0002	0.2514	919.898	0.132003	-379.901673	-379.894587	-379.893642	-379.933032	26.588	
O	 0.1234134318	 1.3566054376	-0.0220964623	-0.423056
C	 0.0271775397	-0.0396512043	 0.0683767409	-0.124302
C	-1.3946401877	-0.5108272521	 0.0528269314	 0.317552
N	-2.3770100056	 0.2993685642	 0.0224815458	-0.289795
C	-3.6161892543	-0.4951741423	 0.0426024292	-0.191912
C	-3.1446752582	-1.9488505422	-0.0129717466	-0.03154
C	-2.3016289579	-2.3662756745	-1.1558742817	-0.248999
N	-1.662173539	-1.9142360938	 0.1116253774	-0.156535
H	-0.7874621567	 1.685136558	-0.0106132535	 0.295223
H	 0.5662150144	-0.5216050199	-0.7631334661	 0.113955
H	 0.4973491652	-0.4150765522	 0.9917697165	 0.121573
H	-4.1695006019	-0.2908864151	 0.9665739479	 0.124238
H	-4.2638770777	-0.2060054442	-0.792310259	 0.123
H	-3.6534270414	-2.7016219747	 0.5793535842	 0.108254
H	-2.1661790093	-3.4208245729	-1.3732378607	 0.130159
H	-2.2258022013	-1.7015426916	-2.0128243034	 0.132186
