15
gdb 45419	2.73901	1.81142	1.79435	4.3447	64.56	-0.251	-0.0345	0.2165	849.4958	0.11509	-457.791592	-457.785233	-457.784289	-457.822186	25.608	
O	-0.0121897656	-0.0238927202	-0.0254851671	-0.344169
C	 0.0087759214	 1.1717925343	 0.0079016755	 0.465535
O	-1.1299393927	 1.9153463081	 0.0900468085	-0.243179
C	-0.8651915994	 3.3460389871	 0.0555525398	 0.019767
C	-0.004787901	 3.6346900873	 1.2996702231	-0.067376
O	 1.190977782	 2.8687492088	 1.2038184823	-0.271735
C	 1.2398399811	 2.0829383996	-0.0111794937	-0.095841
C	 1.0977752721	 2.9951203743	-1.208507577	-0.078167
C	-0.0402018581	 3.687604493	-1.1614702983	-0.079261
H	-1.8380771984	 3.8325937507	 0.0973098277	 0.105381
H	 0.2372532693	 4.7020927277	 1.3649376448	 0.113546
H	-0.5501457435	 3.3313799789	 2.2016940669	 0.121291
H	 2.1549851686	 1.4980702264	 0.0278631962	 0.112159
H	 1.8583436368	 3.0667035758	-1.9756841861	 0.123994
H	-0.3522451527	 4.4484534283	-1.8658703026	 0.118055
