21
gdb 68597	2.27378	1.84677	1.46113	1.6826	81.71	-0.2471	0.0894	0.3365	1023.6617	0.183458	-387.064785	-387.056786	-387.055841	-387.096696	32.447	
C	-0.0567568668	 1.5152605321	 0.0477107109	-0.505465
C	-0.0131479456	 0.007918463	 0.0233966246	 0.248629
C	 0.3154670775	-0.8135905568	-1.2724138929	-0.275125
C	-0.4188527531	-1.9655366004	-0.5181017382	-0.119683
C	 0.529130794	-2.2239376065	 0.6702423533	-0.220478
C	 0.835440875	-0.7403441959	 1.0766527449	-0.248766
C	-1.2992351029	-0.8448377104	 0.0493822401	 0.505785
C	-2.5337331572	-0.7960006339	 0.8221391088	-0.315736
O	-2.4927379691	-0.41260365	-0.572200544	-0.310256
H	 0.9228508192	 1.9437843352	-0.1911577189	 0.115468
H	-0.7832080861	 1.8937907529	-0.6778393071	 0.130193
H	-0.3451971599	 1.8876170795	 1.0378913051	 0.112733
H	-0.2420535121	-0.457465963	-2.140566148	 0.113139
H	 1.3702534442	-0.9623879275	-1.5230780664	 0.085491
H	-0.8472291145	-2.8219831964	-1.0373563354	 0.068951
H	 0.0477663413	-2.7884420652	 1.4738737525	 0.09718
H	 1.426644618	-2.7700698947	 0.3668957683	 0.099277
H	 1.8976028568	-0.4901734245	 0.9943854214	 0.096646
H	 0.5164893073	-0.5101252467	 2.0980668172	 0.094186
H	-3.0873394209	-1.710664282	 1.0312537948	 0.114503
H	-2.715899335	 0.0225678513	 1.5175833688	 0.113328
