17
gdb 48156	2.822	1.09484	0.92967	2.677	69.64	-0.2474	-0.0928	0.1546	1286.2317	0.133815	-458.957161	-458.948033	-458.947089	-458.993387	31.028	
O	-0.2026713055	 1.9282839354	 1.0765759378	-0.212606
C	 0.7051270279	 1.2580024356	 0.6625104604	 0.089917
C	 1.7076816712	 1.7400716981	-0.3957105369	 0.312524
O	 2.4841157508	 0.9332434836	-0.8521308377	-0.286754
C	 1.671617174	 3.2048777077	-0.7756183079	-0.331935
C	 2.8621808996	 3.9216368853	-0.1322819308	 0.164127
C	 2.8317073923	 5.4639389036	-0.0697331347	-0.303438
C	 2.8718686125	 5.2583325381	 1.4589905306	-0.05838
O	 2.8280545544	 3.8218896253	 1.3092430235	-0.295143
H	 0.8928389025	 0.211252551	 0.9811320362	 0.107895
H	 1.7511562042	 3.2868549512	-1.8647312542	 0.129962
H	 0.7347103524	 3.6516470193	-0.4345609533	 0.131841
H	 3.7934696591	 3.4975833549	-0.5295606148	 0.096088
H	 3.6910292826	 5.9719557075	-0.5089469679	 0.117574
H	 1.9131886215	 5.9151245529	-0.4496395763	 0.116622
H	 3.7949456727	 5.586425259	 1.9514873783	 0.108228
H	 2.0126951478	 5.6356329614	 2.024339168	 0.113478
