15
gdb 28971	2.96276	1.54033	1.0198	2.2352	83.5	-0.2504	-0.0518	0.1986	1102.8906	0.113001	-379.702572	-379.694552	-379.693608	-379.735453	29.445	
C	-0.0381686406	 1.5038434264	-0.0359711853	-0.497231
C	-0.0113133273	 0.0039955772	-0.004761186	 0.27393
N	-0.0273196758	-0.6448905689	-1.1720131918	-0.294553
C	-0.0025889658	-1.9776316815	-1.132992747	 0.073174
N	 0.036700521	-2.7514860001	-0.0479251288	-0.250941
C	 0.0525877011	-2.1057491611	 1.1158351325	-0.044053
C	 0.030133518	-0.7096290698	 1.2135085955	 0.038002
C	 0.0484621036	-0.0572492402	 2.4748074544	 0.22286
C	 0.064014424	 0.4918443133	 3.5467908891	-0.408861
H	 0.8518931817	 1.9178021914	 0.450184599	 0.146323
H	-0.0815578453	 1.8488017381	-1.0691249769	 0.144784
H	-0.9024100906	 1.8885768534	 0.5159082827	 0.146135
H	-0.0160331566	-2.4879598166	-2.0929973822	 0.12349
H	 0.0844693631	-2.7104612364	 2.0187054108	 0.126027
H	 0.0774277294	 0.9752564348	 4.4924306939	 0.200914
