17
gdb 89949	3.37937	1.33774	1.14378	2.0475	72.99	-0.2591	0.0048	0.264	1071.0027	0.137627	-417.975668	-417.967931	-417.966986	-418.007849	30.174	
O	 0.2204687497	 1.3110899488	-0.2751148344	-0.426773
C	 0.0428419506	-0.0538279031	-0.0104810861	 0.123703
C	 0.1910111015	-0.4818806126	 1.4855902342	-0.299122
C	-1.3423929308	-0.6416065075	 1.5559665099	 0.232465
N	-2.0372172309	 0.68737897	 1.5793630003	-0.378524
C	-2.5053214365	 0.5163289635	 0.172734922	-0.18778
C	-1.4478902238	-0.5783927793	-0.0103300505	-0.109696
C	-1.9374867945	-1.6818532745	 2.3677866393	 0.175266
N	-2.4213600163	-2.5033461605	 3.0236601956	-0.338402
H	-0.2514480601	 1.7937833554	 0.4168547998	 0.293627
H	 0.6925335587	-0.5895029822	-0.7046691533	 0.101011
H	 0.710304039	-1.4375402079	 1.5968140926	 0.123282
H	 0.6249928287	 0.2569067469	 2.1628170086	 0.117569
H	-2.7610211301	 0.780210267	 2.2831665315	 0.239605
H	-3.5247662992	 0.1220625359	 0.085952693	 0.116004
H	-2.4062868829	 1.4143966815	-0.4434541305	 0.120204
H	-1.6650163532	-1.4461306416	-0.6287730722	 0.097562
