19
gdb 133808	3.67758	0.67395	0.65405	2.7185	65.79	-0.2361	0.0721	0.3082	1751.5806	0.154956	-550.71442	-550.704388	-550.703444	-550.750982	35.199	
C	 0.1217825815	 1.1191593362	 0.6497245158	-0.380434
C	-0.1327185808	-0.0433209581	-0.312658133	-0.181532
C	-1.4357053052	-0.7815519524	-0.0125425986	-0.116926
N	-1.629619848	-1.8952577708	-0.9409397802	-0.294167
C	-2.8581742144	-2.6429846241	-0.766405365	-0.30009
C	-2.6879310728	-3.7989546544	 0.2124841167	 0.299807
F	-2.3166920645	-3.3788306661	 1.4351985206	-0.083676
F	-3.8531440737	-4.455567946	 0.3536606546	-0.082543
F	-1.7732960621	-4.6793903726	-0.202785992	-0.0707
H	 1.0573235333	 1.6331596081	 0.410498126	 0.116164
H	-0.6852338429	 1.8587299958	 0.6048872221	 0.115432
H	 0.1910265707	 0.767354744	 1.6847946991	 0.120126
H	-0.1618141377	 0.3344429382	-1.3445711281	 0.089182
H	 0.6939854182	-0.7613392185	-0.2705888798	 0.113323
H	-1.4022308621	-1.1879239902	 1.0030019969	 0.120109
H	-2.2816349183	-0.0673464307	-0.0368941789	 0.075703
H	-1.5667747322	-1.5603074074	-1.8942176324	 0.223172
H	-3.7077771335	-2.0394591768	-0.4044352586	 0.10906
H	-3.1563425856	-3.0959843743	-1.7160766553	 0.127991
