21
gdb 82360	2.46453	1.49332	1.19251	2.7218	81.44	-0.2468	-0.0258	0.221	1128.6584	0.182923	-387.102209	-387.093599	-387.092655	-387.135681	33.237	
C	-0.931528355	 1.0503301242	 0.0349564923	-0.396613
C	-0.0230577717	-0.1774020527	-0.0605182356	-0.000043
C	 0.9871662044	-0.1434970076	-1.2015611804	-0.022853
C	 2.2304639372	 0.6928790887	-1.0292848112	-0.296492
C	 2.2713030581	-0.7902484768	-0.744298067	-0.028662
C	 2.0906059508	-1.2435830512	 0.6977097944	-0.255422
C	 0.8318887362	-0.5103702736	 1.2224680745	-0.107413
C	 1.16707179	 0.6983188816	 2.0822994514	 0.14965
O	 0.3837766931	 1.2374199685	 2.822111238	-0.26203
H	-0.3529544217	 1.9765014452	 0.1015743825	 0.120641
H	-1.5661448281	 1.1174916373	-0.8545510432	 0.107678
H	-1.5763984944	 1.0026818918	 0.916487185	 0.131897
H	-0.661920444	-1.0545086152	-0.226929991	 0.082304
H	 0.6079451687	-0.2939353333	-2.2069007581	 0.082651
H	 2.7256052324	 1.0334705796	-1.9321360867	 0.113535
H	 2.2942844746	 1.4046112521	-0.2123753733	 0.109301
H	 2.851226706	-1.4208245756	-1.4090224862	 0.082952
H	 1.9292314865	-2.3265411889	 0.7222895494	 0.105925
H	 2.9685805647	-1.0421080899	 1.3246100117	 0.100804
H	 0.2323612469	-1.1516184893	 1.8758317031	 0.105748
H	 2.2198966854	 1.0617770449	 2.0146281403	 0.076439
