20
gdb 85829	2.42159	1.25324	1.09613	1.5087	82.88	-0.2135	0.0324	0.2458	1237.7599	0.167217	-403.087949	-403.077772	-403.076828	-403.12248	37.831	
C	 0.0218249332	 1.5415872488	-0.046201646	-0.401245
C	 0.0542973551	 0.02814852	 0.0416890439	 0.033751
N	 1.0206858997	-0.6627779462	-0.8376050513	-0.082268
C	 0.5562201378	-1.1798212872	-2.1039235229	-0.326525
C	 1.3687782628	-1.619725125	 0.2224991009	-0.217039
C	 0.7482211895	-0.6456880116	 1.2733475511	 0.207382
O	 1.6886824807	 0.2479307133	 1.8428564293	-0.464707
C	-0.1091610232	-1.2345537076	 2.2908576488	 0.287532
C	-0.7858254414	-1.72656397	 3.1550580952	-0.481632
H	 1.0162695316	 1.9564738249	 0.1241144093	 0.140863
H	-0.3249584574	 1.8527639329	-1.0375421874	 0.111462
H	-0.6671641414	 1.9564383393	 0.6966042898	 0.118409
H	-0.9627124124	-0.3870218505	-0.0615513223	 0.063245
H	 0.2482774106	-0.3539818184	-2.7537841274	 0.122047
H	 1.3684441111	-1.7137235209	-2.6087838511	 0.121084
H	-0.2999970247	-1.8755257519	-2.0036011652	 0.089177
H	 0.816195257	-2.5709860224	 0.1671384745	 0.09067
H	 2.4397146661	-1.8199199216	 0.3370424475	 0.103195
H	 2.0628525535	-0.1783281949	 2.6211244638	 0.284826
H	-1.3938327083	-2.1574037209	 3.9119193794	 0.199771
