16
gdb 34503	4.32816	1.34037	1.17486	1.5664	83.32	-0.2128	-0.0328	0.18	1040.5718	0.125615	-363.541123	-363.534239	-363.533294	-363.572254	27.967	
C	 0.096835296	-1.1900947212	-0.0122833064	-0.418596
C	-0.0027148798	 0.0115345651	-0.011042818	 0.205381
C	-0.0562417085	 1.419790701	-0.0345295102	 0.210352
C	-1.1206581184	 2.2308412376	 0.0961699637	-0.200936
C	-0.6530724921	 3.6363194221	 0.0682466261	-0.067365
C	 0.5219645383	 4.0496505661	 0.9235087786	-0.040468
C	 1.3766343851	 2.888980974	 1.3991976273	-0.245056
C	 1.1806227843	 2.3058154281	-0.0376394277	-0.131334
N	 0.7058298607	 3.6810110267	-0.5248459646	-0.136132
H	 0.1670996876	-2.2494942285	-0.009977115	 0.193439
H	-2.1514272562	 1.930080866	 0.2231884666	 0.115316
H	-1.3213875108	 4.43090768	-0.2486046688	 0.097776
H	 0.6096137638	 5.0761156834	 1.2678636911	 0.097846
H	 2.4066096595	 3.219866275	 1.5469555318	 0.11978
H	 1.0534162892	 2.2882420595	 2.253843066	 0.108805
H	 2.0517999313	 1.9160646852	-0.5600088804	 0.09119
