21
gdb 123209	12.16089	0.42051	0.4117	0.7644	83.62	-0.2553	0.0537	0.309	2597.3863	0.178662	-424.169049	-424.157762	-424.156818	-424.207242	38.019	
C	 0.8416735634	 1.6262120491	-0.3199550596	-0.22526
O	 0.8445498847	 0.2436134326	-0.058823663	-0.232438
C	-0.1612984056	-0.4490251116	-0.7595921138	-0.068564
C	-0.0480619589	-1.9201996979	-0.3904734304	-0.071264
O	-1.0547804491	-2.616622233	-1.0911539093	-0.2482
C	-1.0574679464	-4.0017626167	-0.8341064508	-0.045085
C	-2.1932757371	-4.6220338065	-1.6550608277	-0.350999
C	-2.2885171589	-6.0626300742	-1.4639251322	 0.287117
C	-2.3440884522	-7.2500490351	-1.2874146446	-0.448374
H	 1.0124091971	 1.8410303401	-1.3868361115	 0.104992
H	-0.1100867347	 2.0959335703	-0.024906609	 0.104997
H	 1.6509911814	 2.0714895479	 0.2637190118	 0.127546
H	-1.1637591347	-0.0755635152	-0.493673788	 0.094819
H	-0.0444483368	-0.3294725332	-1.8491625123	 0.094824
H	 0.9532454736	-2.293738321	-0.6573950413	 0.098773
H	-0.1659112617	-2.0397559317	 0.6982017314	 0.098777
H	-0.0949698065	-4.4565928303	-1.1172090226	 0.101165
H	-1.2128388852	-4.2029470037	 0.2377133431	 0.101161
H	-3.1348806772	-4.1367765342	-1.3719934929	 0.139799
H	-2.0280906172	-4.3879308088	-2.7134201724	 0.139798
H	-2.4043024279	-8.299797507	-1.140526605	 0.196418
