23
gdb 122314	4.61576	0.67202	0.64707	1.5625	86.71	-0.2434	0.0804	0.3238	1810.1627	0.205607	-388.260068	-388.250347	-388.249403	-388.295411	36.189	
O	-0.0048091486	 1.4325834674	 0.2623771646	-0.422381
C	 0.0603645761	 0.0356273181	 0.0159371528	-0.074727
C	-1.3540596584	-0.5229362844	 0.0849977954	-0.157313
C	-1.4122367004	-2.0356515443	-0.1726944697	-0.332509
C	-2.8120777994	-2.584464311	-0.1232472483	 0.410445
C	-3.4925409233	-2.9820953345	 1.1599455756	-0.315938
C	-3.314960164	-4.0184786893	 0.0813842866	-0.117741
C	-4.3818816092	-3.8279437109	-1.001368627	-0.218003
C	-3.8814793996	-2.3599880465	-1.2078316376	-0.28406
H	 0.888459801	 1.786347504	 0.2247021761	 0.283905
H	 0.4950028828	-0.1741057318	-0.975838159	 0.081513
H	 0.6966987613	-0.4711726372	 0.7608017066	 0.081196
H	-1.7746660731	-0.2955637964	 1.0714955387	 0.107892
H	-1.9730339491	 0.0082266997	-0.6481749238	 0.10774
H	-0.967259312	-2.2552833119	-1.1540631475	 0.090978
H	-0.7926299286	-2.5586389743	 0.5684654483	 0.092174
H	-2.8342461914	-3.0884983681	 2.0172147457	 0.104338
H	-4.4855295053	-2.6103503717	 1.4067913393	 0.098946
H	-2.7433397322	-4.9233603794	 0.2546158407	 0.07906
H	-4.217041117	-4.4476393555	-1.8856884264	 0.100027
H	-5.4205460539	-3.9554578966	-0.6776418169	 0.093307
H	-4.6017932992	-1.5571407506	-1.0185047739	 0.093144
H	-3.4498301163	-2.2091449548	-2.2012264105	 0.098006
