22
gdb 100112	3.79263	0.84111	0.81897	3.7451	78.45	-0.2364	0.0567	0.2931	1501.5634	0.192421	-441.452519	-441.442103	-441.441158	-441.487849	38.792	
C	-0.0195093662	 1.553001631	-0.1141670347	-0.431678
C	-0.0018276102	 0.0173274643	-0.0422175884	 0.368226
O	 0.6579678517	-0.4107641938	 1.1484831523	-0.477482
C	-1.435795928	-0.5341666515	-0.0127868079	-0.113636
O	-2.0327897934	-0.070897694	 1.196377094	-0.434953
C	 0.7702252038	-0.6188244314	-1.2107762186	-0.243353
C	 2.2254756244	-0.2096997484	-1.2795168155	 0.032173
C	 2.9800426453	-0.3313126736	-2.5496493961	-0.253914
N	 2.6511556983	 1.0006195992	-2.007535159	-0.317277
H	 0.9973566566	 1.9457965517	-0.0566689193	 0.144842
H	-0.4774761986	 1.9018546502	-1.0470280508	 0.098155
H	-0.6033422533	 1.9584949804	 0.7161842125	 0.125354
H	 0.0364109541	-0.2367630718	 1.8666557052	 0.283922
H	-2.0017333169	-0.1898845622	-0.8914959278	 0.088299
H	-1.3958867511	-1.6321288874	-0.0313569655	 0.092435
H	-2.824822817	-0.5869310586	 1.3673975998	 0.295151
H	 0.7163373564	-1.7084742355	-1.0910259018	 0.105356
H	 0.272095497	-0.3720705447	-2.1581308849	 0.082691
H	 2.7653397768	-0.3547547535	-0.3478998022	 0.113019
H	 4.0368232307	-0.58292213	-2.5398122726	 0.116117
H	 2.4426899876	-0.6822442861	-3.4279845074	 0.103581
H	 1.8609596421	 1.3870533958	-2.5193569214	 0.222972
