19
gdb 99801	2.04178	1.0599	0.98399	1.5408	86.85	-0.2519	0.021	0.2728	1408.4949	0.153862	-385.818272	-385.806994	-385.80605	-385.855893	39.207	
C	 0.1119175758	 1.3629534993	-0.0001250494	-0.244916
O	 0.0037074816	-0.0496408981	 0.005913618	-0.240311
C	-1.3265713344	-0.569359049	 0.0147480652	-0.046188
C	-1.1484734636	-2.1000404011	 0.0157587985	-0.406761
C	-2.0488751062	-0.1492806345	 1.2340673322	 0.367475
C	-2.6173096815	 0.1732345104	 2.242477629	-0.494812
C	-2.0831189115	-0.1445191232	-1.1787256027	 0.141411
C	-2.6867324318	 0.1814362327	-2.168143421	 0.014029
C	-3.4225854843	 0.5772009119	-3.359950411	-0.500998
H	 1.1809990278	 1.5856442329	-0.013053207	 0.125555
H	-0.3603719937	 1.7999790545	-0.8893070525	 0.115721
H	-0.3391619177	 1.8067415704	 0.8968223332	 0.118116
H	-0.5772575733	-2.3928275198	 0.8992077319	 0.132412
H	-2.1209933163	-2.5950487208	 0.0293030909	 0.130987
H	-0.6023640753	-2.392823711	-0.8833010225	 0.131623
H	-3.1262641057	 0.462783482	 3.1286721227	 0.199202
H	-4.1295555883	-0.2025785471	-3.6634525105	 0.152664
H	-3.9931834387	 1.496434721	-3.1890124746	 0.152142
H	-2.7449697229	 0.7558229795	-4.2018714904	 0.152648
