15
gdb 31602	3.30959	1.10289	0.85235	0.9044	65.7	-0.1794	0.0255	0.205	1276.9838	0.112326	-491.107238	-491.098148	-491.097204	-491.14136	32.551	
O	 0.0927337519	 1.2811121719	-0.4115828049	-0.41843
C	-0.0322488285	 0.043582867	 0.2851633606	-0.171666
C	-1.410443681	-0.5222178669	 0.1852394608	 0.277025
N	-1.7440132008	-1.7907729302	 0.0324729606	-0.377128
C	-3.108379298	-1.8203305601	 0.0375917466	 0.200623
O	-3.8370717971	-2.9623395642	-0.1036351506	-0.460476
C	-3.6206936651	-0.5589489806	 0.1843623657	 0.291156
O	-4.8741994486	-0.0406904428	 0.2257220778	-0.445051
N	-2.524778218	 0.2659522606	 0.2838954187	-0.320564
H	-0.0748950739	 1.1037760924	-1.3437829866	 0.285457
H	 0.6765411215	-0.7187222083	-0.0629147234	 0.121328
H	 0.2276906849	 0.2831009574	 1.3237654412	 0.124193
H	-3.2019381669	-3.6825733257	-0.186134599	 0.301453
H	-5.4924352998	-0.7688945683	 0.1009334835	 0.315373
H	-2.5366963404	 1.2697572979	 0.3594567392	 0.276706
