17
gdb 78008	3.3055	1.24126	1.06217	2.7865	76.66	-0.2273	0.0284	0.2557	1142.082	0.134555	-421.757621	-421.749135	-421.748191	-421.790222	33.318	
O	-0.0880087072	 1.4217528815	-0.0081958119	-0.434621
C	-0.0964842418	 0.0329691557	 0.037787282	 0.0778
C	-0.458977599	-0.7582244933	 1.2508368275	-0.182287
C	-1.5737834565	-0.0639079298	 2.0181800735	 0.092658
O	-1.1465380962	 1.1740187621	 2.5828195941	-0.4364
C	-2.4717627092	-0.0267948999	 0.7388159036	-0.338704
C	-1.3751760763	-0.7865956201	-0.0264355616	 0.149924
C	-1.5902519137	-1.8380387191	-0.9562576132	 0.158413
C	-1.7799030289	-2.7256883888	-1.7479193112	-0.394587
H	-0.300978115	 1.7410606237	 0.8806403531	 0.298516
H	 0.7076768827	-0.3986635897	-0.5524979319	 0.113118
H	 0.1744061235	-1.5413237417	 1.6495884134	 0.100606
H	-2.0062508333	-0.706082799	 2.79323343	 0.091505
H	-1.9097123101	 1.6150355896	 2.9712037511	 0.292715
H	-3.3963295587	-0.5938720519	 0.8525530055	 0.116267
H	-2.690009017	 0.9689060071	 0.3434986823	 0.112105
H	-1.9448922634	-3.5050524865	-2.4494562362	 0.182973
