17
gdb 120424	3.14525	0.89965	0.78118	2.0226	64.98	-0.2691	-0.0068	0.2623	1441.6092	0.134108	-496.109795	-496.100252	-496.099307	-496.145192	33.096	
O	 0.0838305491	 1.3167376476	 0.2383632339	-0.415245
C	 0.00982845	-0.0892455715	 0.0796113167	-0.071799
C	-1.4334309921	-0.5814994292	-0.073798411	-0.211853
C	-1.5162217539	-2.0722821465	-0.3161568205	 0.09532
O	-1.0369210011	-2.854711424	 0.8497158611	-0.254117
C	-2.2739067781	-3.3947570088	 1.0667417392	 0.41626
O	-2.6333858666	-4.0875469014	 1.964127977	-0.326929
C	-2.8979068305	-2.7516225528	-0.1843243936	-0.076301
O	-3.9769412656	-1.8811809395	 0.0188924884	-0.41793
H	-0.3022368362	 1.5389862788	 1.0915335184	 0.284482
H	 0.5801044088	-0.3155301184	-0.8286551428	 0.111749
H	 0.4977768525	-0.6195238071	 0.9099691561	 0.112386
H	-2.0175343756	-0.329973172	 0.8184417935	 0.109365
H	-1.9050806447	-0.0636339475	-0.9167810462	 0.12591
H	-0.9461862613	-2.3786150812	-1.1976009189	 0.103055
H	-3.096593204	-3.4886415667	-0.974709848	 0.109656
H	-4.6709842508	-2.3695756797	 0.4758529267	 0.30599
