21
gdb 122354	3.55151	0.7299	0.69179	2.2689	76.67	-0.2335	0.051	0.2845	1729.3429	0.179975	-461.322928	-461.312467	-461.311523	-461.359602	37.322	
C	 0.0317816246	 1.2409094541	 0.7616784014	-0.38452
C	-0.0496019458	 0.027095659	-0.1488148352	-0.023625
O	-1.344899447	-0.5247591074	-0.0480909697	-0.246888
C	-1.5254304962	-1.6632856038	-0.8653903782	-0.058708
C	-2.9306096893	-2.1629184255	-0.64936305	-0.110684
C	-3.3946591766	-3.488125013	-1.1983735799	 0.008088
O	-2.4108877859	-4.2707762043	-1.8367428672	-0.425079
C	-3.2202923205	-3.3210439717	 0.2933554318	 0.091309
O	-2.1669971696	-4.0137845213	 0.8872459074	-0.428078
H	 1.0263907654	 1.6937931102	 0.7073943343	 0.111615
H	-0.7082833575	 1.9908352769	 0.4678586759	 0.123638
H	-0.1644549082	 0.954756713	 1.7988270047	 0.128135
H	 0.1639086489	 0.3125974829	-1.1938333157	 0.080878
H	 0.7074657239	-0.7228438433	 0.1378931268	 0.085402
H	-1.3663992304	-1.402270958	-1.9255287414	 0.086723
H	-0.7925075522	-2.4415403064	-0.6086815826	 0.08914
H	-3.6729266494	-1.3700798516	-0.6748010855	 0.097701
H	-4.3854583819	-3.5522185601	-1.643247723	 0.093546
H	-2.7518692359	-5.169342485	-1.9077702795	 0.297535
H	-4.0889903356	-3.2651763366	 0.9419643382	 0.100483
H	-1.7177603508	-4.483356948	 0.1704637674	 0.283388
