11
gdb 2828	4.56491	2.0934	1.65777	3.2825	49.	-0.2667	-0.0725	0.1942	713.1821	0.075524	-380.371074	-380.364309	-380.363364	-380.402434	22.455	
O	-0.4392926397	 0.429430053	 0.4976882587	-0.23781
C	 0.2499742065	 0.8193876037	-0.4099018645	 0.132579
C	 1.3748098765	 1.7892716606	-0.187851243	-0.04479
O	 2.4136938228	 1.7832802941	-1.1560134583	-0.207805
C	 1.6126709026	 2.9469904277	-1.1077085813	-0.028513
C	 0.7150076762	 3.2312473202	-2.2816776897	 0.144497
O	 0.3724207029	 2.4107465465	-3.0914837234	-0.238023
H	 0.1233846295	 0.4930063515	-1.4585386752	 0.130841
H	 1.6799602541	 1.9078333156	 0.851456843	 0.129705
H	 2.0857453177	 3.8256816123	-0.6662320848	 0.122907
H	 0.3843186209	 4.2909192646	-2.3422394414	 0.096413
