23
gdb 36979	4.77182	0.63041	0.6177	2.0043	85.84	-0.2414	0.0803	0.3217	1889.6126	0.206055	-388.255576	-388.246042	-388.245098	-388.291645	34.669	
C	-0.0339579622	 1.5607263202	 0.2144251822	-0.207657
C	-0.0008994732	 0.0285477864	 0.1223877124	-0.202196
C	-1.3860624958	-0.6052460948	 0.1443224859	-0.021463
C	-2.2544051944	-0.480735037	-1.1308897572	-0.073687
O	-2.3314380383	-1.9125165367	-1.2782667715	-0.272182
C	-1.482966272	-2.1231321084	-0.1316886696	-0.09112
C	 1.3419760308	 2.1907219485	 0.1709611599	 0.036568
C	 2.009895857	 2.4766757997	-1.1516074784	-0.254525
C	 1.5235724699	 3.6146931297	-0.2869257731	-0.277797
H	-0.6380467166	 1.9639688654	-0.6101088076	 0.093739
H	-0.5475338594	 1.8571806094	 1.1397742755	 0.095149
H	 0.5217117186	-0.2698780275	-0.7963460991	 0.102113
H	 0.5924708742	-0.3724329315	 0.9557559461	 0.094664
H	-1.9229622248	-0.3053489602	 1.0494890035	 0.076002
H	-3.2455916268	-0.0272557412	-1.007959392	 0.098816
H	-1.7532864848	-0.0065964809	-1.986942617	 0.092973
H	-0.5337853718	-2.6042600336	-0.406067121	 0.094966
H	-1.9764989576	-2.7289404123	 0.6382915169	 0.097749
H	 2.004794831	 1.8656448961	 0.9700407333	 0.079512
H	 3.0786112263	 2.3167477856	-1.2418434397	 0.110402
H	 1.4526458708	 2.25720209	-2.0572039595	 0.10862
H	 0.6419100206	 4.1570423103	-0.6134784355	 0.10911
H	 2.2599873986	 4.231517453	 0.2163156252	 0.110243
