16
gdb 33445	2.47402	1.59142	1.13804	4.4537	79.94	-0.2637	0.0072	0.2709	1077.7564	0.123768	-363.559226	-363.551155	-363.550211	-363.591668	30.89	
C	 0.0556466374	-1.1782365657	 0.0206777502	-0.417356
C	 0.0417295706	 0.0234763483	 0.0283284993	 0.242079
C	 0.0384807296	 1.4622717757	 0.0472724219	 0.018978
C	-1.0534590399	 2.0781760335	-0.6741556207	 0.224697
N	-1.9212149358	 2.5843771024	-1.2467803367	-0.337507
C	 0.4930407131	 2.2748841122	 1.2727225602	-0.077477
C	 1.5874000499	 1.5133681428	 2.0265704288	-0.251451
C	 2.4583776476	 1.5324477459	 0.7243397898	-0.251459
C	 1.3334945706	 2.293317582	 0.0161670954	-0.077485
H	 0.0557475236	-2.2403171902	 0.0047614031	 0.204142
H	-0.1755860954	 3.0268166296	 1.6726011675	 0.119569
H	 2.0249289949	 2.1128222795	 2.8266632756	 0.118381
H	 1.3059181225	 0.5349443185	 2.4216760099	 0.123478
H	 3.3567321514	 2.1419887441	 0.8354412786	 0.118377
H	 2.7292164893	 0.5661225609	 0.2936260611	 0.12347
H	 1.4374666007	 3.0621841404	-0.7390828241	 0.119565
