18
gdb 60985	2.41487	1.15638	0.90776	4.3244	77.1	-0.2566	-0.0296	0.227	1306.6732	0.145844	-401.964108	-401.954646	-401.953702	-401.999174	33.539	
C	 0.1555854612	 1.2912277645	 0.381647719	-0.396681
C	-0.1231761417	-0.1792766143	 0.0657960117	-0.109211
C	-1.6163203311	-0.480420193	 0.0047747488	 0.147256
O	-2.4830403424	 0.3410812232	 0.1555723313	-0.235853
C	 0.527607652	-0.6208216194	-1.2383410843	-0.002776
C	 1.9704407015	-1.0219596552	-1.2864722063	-0.298303
C	 0.8987150296	-2.0794872771	-1.5038481896	-0.18286
C	 0.6778714981	-3.0764749927	-0.4942709347	 0.289019
N	 0.4909711588	-3.8735450152	 0.3239039348	-0.342134
H	 1.2304036532	 1.4693408284	 0.4735067979	 0.115854
H	-0.2376046807	 1.9403841592	-0.4060469173	 0.130424
H	-0.3306162233	 1.5825375565	 1.3152961108	 0.136421
H	 0.2738946063	-0.8185726901	 0.8685899205	 0.117264
H	-1.8614179868	-1.5457613493	-0.2011449939	 0.095991
H	 0.1510767768	-0.1036011158	-2.1172960874	 0.114401
H	 2.567876627	-0.7454662107	-2.1471507926	 0.13648
H	 2.5142813733	-1.0639406537	-0.3494032578	 0.144494
H	 0.7590497682	-2.4426571052	-2.516130191	 0.140214
