22
gdb 105253	2.24124	1.32764	1.00028	2.1129	81.92	-0.2374	0.074	0.3114	1284.9451	0.193393	-404.300797	-404.290948	-404.290004	-404.335678	37.085	
C	 0.7047661651	-0.2538938447	-1.6424218705	-0.388781
C	 0.1548818402	 0.1229232218	-0.2601774527	-0.234004
C	-1.2582554786	-0.3882573025	 0.0115234871	 0.311147
C	-2.1297307869	 0.4600157436	 0.9237239431	-0.412005
C	-2.4089230906	 0.3958527356	-0.5596444612	 0.075574
O	-2.104501885	 1.4865939502	-1.3804111657	-0.421257
C	-1.376053852	-1.8909706818	 0.0486707491	-0.067744
C	-1.142764355	-2.6478654808	 1.3052420573	-0.237669
N	-2.4857101844	-2.6051610321	 0.6978795862	-0.330691
H	 1.7046000976	 0.1686502112	-1.7837748181	 0.108658
H	 0.7882520647	-1.3372686911	-1.7731159845	 0.115331
H	 0.0570404852	 0.137726244	-2.4317854396	 0.136719
H	 0.8197162197	-0.2603427183	 0.5244226764	 0.09298
H	 0.1546097307	 1.2126407449	-0.1714871976	 0.103183
H	-2.8355677516	-0.002191727	 1.6078061247	 0.103554
H	-1.6803202346	 1.3717406124	 1.3032450755	 0.114673
H	-3.2836847989	-0.1765933603	-0.8700333729	 0.092992
H	-2.7580009786	 2.1746605681	-1.217765692	 0.288881
H	-1.0781920756	-2.3703838799	-0.8814198951	 0.097074
H	-0.6584651918	-3.6200155931	 1.2854544311	 0.116041
H	-0.9683881047	-2.069284499	 2.2091174647	 0.110102
H	-3.0725920446	-1.9601326812	 1.2208931048	 0.225238
