20
gdb 88580	3.58966	1.07005	0.90595	0.8306	81.79	-0.2255	0.0109	0.2364	1322.7136	0.170919	-403.110048	-403.101231	-403.100287	-403.144734	32.277	
C	-0.3958766316	-1.9558267381	 3.0525277845	-0.308967
N	-0.1155669956	-1.6721679299	 1.652020969	-0.084412
C	-0.9188091828	-0.6311868668	 1.0247577599	-0.247782
C	 0.5413600136	-0.4176454463	 1.2748409585	-0.118683
C	 1.0205276461	 0.6222276959	 2.2232757824	 0.283916
C	 1.7444055458	 0.5051580462	 3.3347600139	-0.210551
C	 2.0487105621	 1.8607494884	 3.9035439081	-0.103756
O	 1.4625173354	 2.7893438373	 2.9952646009	-0.264447
C	 0.7958284696	 2.0928827655	 1.9505235023	-0.145199
H	-0.6723080756	-1.0724714794	 3.6461663037	 0.106165
H	-1.2205926462	-2.6743307551	 3.0963688744	 0.122934
H	 0.4809024399	-2.4211392743	 3.514495487	 0.12052
H	-1.2875277801	-0.8390577506	 0.0235764763	 0.115566
H	-1.6106140817	-0.0782232277	 1.6600219557	 0.108144
H	 1.2002692599	-0.5430348759	 0.4141073089	 0.105539
H	 2.085670459	-0.4146740327	 3.7913884296	 0.105362
H	 1.625110975	 2.0002977353	 4.9116647629	 0.10393
H	 3.1313363024	 2.0494814868	 3.9824060508	 0.105836
H	 1.2030854192	 2.4009935209	 0.9738382239	 0.103472
H	-0.2759462142	 2.3496265903	 1.9448358174	 0.102412
