19
gdb 117005	3.38805	0.58153	0.50249	2.2686	84.1	-0.2547	-0.0453	0.2094	2171.5029	0.155757	-423.015863	-423.004796	-423.003852	-423.055097	37.009	
C	-0.0044856041	 1.6005253301	-0.0181932269	-0.369065
C	 0.0298582794	 0.06198835	-0.0470656219	-0.325912
C	 0.6979523143	-0.4837963373	-1.2202599651	 0.196273
C	 1.2524759636	-0.934420302	-2.1940624136	-0.050166
C	 1.9195039891	-1.4652663095	-3.3656712549	 0.19928
O	 2.038880999	-2.6601785388	-3.5520350564	-0.301523
C	 2.4541541464	-0.4285634803	-4.3357690739	-0.281311
C	 3.1435005172	-1.0429185704	-5.5451564868	-0.083909
O	 3.5899417265	 0.0316702004	-6.3596995091	-0.427449
H	 1.0080044489	 2.0125237402	-0.021113337	 0.133241
H	-0.5329534215	 1.994436598	-0.890226867	 0.133241
H	-0.5166721407	 1.9499161637	 0.8826558149	 0.121955
H	 0.5318342533	-0.3186267876	 0.851847958	 0.144121
H	-0.9921688791	-0.336515136	-0.0077043615	 0.144121
H	 1.6253489424	 0.2155965072	-4.6564602703	 0.136876
H	 3.1455694547	 0.2337955312	-3.7991803777	 0.136874
H	 3.9775242375	-1.6767285695	-5.2120942334	 0.103145
H	 2.4386191606	-1.6951792207	-6.0798897458	 0.103147
H	 4.0284471324	-0.3420283986	-7.1293872115	 0.287059
