22
gdb 101654	3.7707	0.71451	0.68128	4.5296	80.63	-0.2404	0.0319	0.2723	1709.1514	0.191991	-441.506752	-441.495613	-441.494669	-441.543937	38.825	
C	-0.0166383374	 1.497290223	 0.2942944829	-0.3951
C	-0.047919714	-0.0088531912	 0.017809712	 0.023387
C	-1.4823984955	-0.5330376157	-0.0659135947	-0.074862
O	-2.1023432926	-0.3252053473	 1.1933110678	-0.421272
C	 0.7093052341	-0.3825573952	-1.2714295426	-0.190595
N	 2.1183337691	-0.0327415109	-1.2670334424	-0.026548
C	 3.0195569522	-0.7598140876	-0.3896229461	-0.349724
C	 2.6214024487	 0.9137834916	-2.1121167161	 0.152662
O	 3.7847168119	 1.2495158219	-2.1882183185	-0.344487
H	 1.0075250827	 1.8595137987	 0.4180375343	 0.124546
H	-0.4705887234	 2.0544845307	-0.5349636684	 0.107123
H	-0.5791777608	 1.7263177099	 1.2014441112	 0.138675
H	 0.420680182	-0.5319581197	 0.8616910089	 0.09091
H	-2.0229815127	-0.0029366676	-0.8685180501	 0.085309
H	-1.4730790421	-1.6036935602	-0.3287639606	 0.08385
H	-3.0238422981	-0.5906956937	 1.1252504925	 0.289061
H	 0.6126896527	-1.4631284843	-1.4523027677	 0.102708
H	 0.245239706	 0.1268812159	-2.1248718656	 0.113041
H	 2.9219426239	-1.8402774669	-0.550913258	 0.121614
H	 4.0359363981	-0.4439851021	-0.6249330058	 0.168935
H	 2.8148471044	-0.548314561	 0.6657992083	 0.130972
H	 1.8268951708	 1.3569584417	-2.7441570911	 0.069796
