18
gdb 120109	4.18969	1.04945	0.97891	3.3365	71.87	-0.2276	0.0373	0.2649	1233.8275	0.146577	-438.964616	-438.956601	-438.955657	-438.997845	30.843	
O	-0.3847473667	 1.6824741514	 0.0209750744	-0.422075
C	 0.0245271291	 0.3340546337	 0.1195527737	-0.05591
C	-1.1730427986	-0.6140301265	 0.2162735387	-0.136236
N	-2.0475093643	-0.3466972109	-0.9362479242	-0.076992
C	-2.5087646152	-1.236730494	-1.9583892961	-0.102905
C	-3.1188003696	-2.5894711656	-1.4062566209	-0.005564
O	-2.9961872246	-2.6153048261	 0.0203672452	-0.225763
C	-4.0527007048	-1.8523308628	-0.5647183634	 0.000066
C	-3.4688507355	-0.4778166632	-1.0778551086	-0.097763
H	-1.0653691596	 1.6793670125	-0.6651889505	 0.278622
H	 0.6502235183	 0.0418007094	-0.7412273943	 0.078101
H	 0.6420500863	 0.2442769133	 1.0201232534	 0.10136
H	-0.8391267014	-1.6534755842	 0.2489159598	 0.113529
H	-1.7344363461	-0.4089705919	 1.1325269847	 0.113403
H	-2.2401642714	-1.08122431	-2.9976145509	 0.103494
H	-3.2114459396	-3.5322688975	-1.9305449564	 0.11597
H	-5.0707337887	-2.0634060024	-0.2616940208	 0.115429
H	-4.0798929878	 0.3908492549	-1.2977281939	 0.103233
