18
gdb 28489	3.0603	1.39173	0.96908	3.2668	84.25	-0.2156	-0.0228	0.1928	1215.5624	0.148152	-398.202353	-398.193361	-398.192417	-398.236716	33.164	
C	-0.0686635545	 1.4895446631	 0.0129824817	-0.46063
C	-0.0210993833	-0.0142009384	-0.0084124843	 0.327091
N	-0.0320660992	-0.6253041071	-1.1962210338	-0.281332
C	 0.0073903144	-1.9565087211	-1.1849922048	-0.053114
C	 0.0648113567	-2.7103234145	-0.0142137101	 0.208842
N	 0.1754679041	-4.1012134587	-0.0275756802	-0.596368
C	 0.0736428751	-1.9724724852	 1.1858746097	 0.282864
C	 0.1406021591	-2.6649949106	 2.5189683734	-0.50281
N	 0.027829641	-0.64201282	 1.1743314057	-0.326548
H	 0.8037216801	 1.8944212131	 0.5360945952	 0.132893
H	-0.0924201271	 1.8792812958	-1.0051799639	 0.131504
H	-0.9539977726	 1.8390863176	 0.5543915659	 0.131944
H	-0.0041835814	-2.455393544	-2.1545441134	 0.095688
H	-0.1051462761	-4.5309858604	-0.8983676633	 0.24917
H	-0.2470424991	-4.5706753075	 0.7605322143	 0.250687
H	 1.0115569975	-3.3287652469	 2.5753543675	 0.138711
H	 0.2021126233	-1.9208732781	 3.3134046914	 0.1471
H	-0.748756568	-3.2853835071	 2.6958722992	 0.12431
