23
gdb 104178	2.87719	1.12212	1.0692	0.6336	81.71	-0.2549	0.0856	0.3405	1315.4204	0.204569	-425.444221	-425.434235	-425.433291	-425.479154	37.503	
C	 0.0287843303	 1.3858042377	 0.0555625819	-0.253402
O	-0.0390688443	-0.029165914	 0.0439920379	-0.283377
C	-1.3445892414	-0.5894223463	-0.0163678377	 0.490953
C	-2.1058799267	-0.1650688601	-1.2679706386	-0.453714
C	-1.1389552715	-2.1169917276	 0.1445031723	-0.306609
C	-1.7711856058	-2.4603973543	 1.5125327535	 0.037655
C	-1.0247954716	-3.5205200548	 2.3192206964	-0.410707
C	-1.8304227146	-1.0766040273	 2.1748689459	-0.103952
O	-2.1142586424	-0.1801673707	 1.1064802492	-0.275481
H	 1.0506166948	 1.6463169991	 0.3428023238	 0.120441
H	-0.1738422056	 1.8198360731	-0.9333317576	 0.104903
H	-0.6695950857	 1.8142139636	 0.7831546719	 0.124461
H	-1.5095270439	-0.3720850378	-2.1607540169	 0.122504
H	-3.0467820806	-0.717024809	-1.332373808	 0.120755
H	-2.344555343	 0.9007266052	-1.2391630394	 0.125816
H	-1.5965735899	-2.6743507058	-0.6759733362	 0.101548
H	-0.0660722686	-2.3225410643	 0.1370047626	 0.116026
H	-2.803139437	-2.794361808	 1.3504695775	 0.075343
H	 0.0117900787	-3.2154305973	 2.5015771631	 0.119877
H	-1.5011870208	-3.6916748931	 3.2907990284	 0.113847
H	-1.0018055202	-4.4786208479	 1.790234652	 0.117985
H	-2.6231154205	-0.9717145732	 2.9202928148	 0.101981
H	-0.8674781194	-0.8294836872	 2.6476608732	 0.093146
