12
gdb 9025	4.79688	0.92677	0.80113	4.3702	76.69	-0.2621	-0.0425	0.2196	1321.5223	0.082526	-340.323028	-340.314673	-340.313729	-340.356209	29.245	
N	-0.0440111083	 1.4915839704	 0.0794807799	-0.479586
C	-0.0205096594	 0.0251518823	-0.0254068745	-0.357039
C	-1.3910254118	-0.4957669122	 0.1561384101	 0.325269
N	-2.4606608412	-0.907597216	 0.2931907661	-0.310048
C	 0.5655703457	-0.5043770153	-1.2644400742	 0.513096
C	 1.0876229684	-0.8831641137	-2.2879523813	-0.330526
C	 1.6665406507	-1.3125254645	-3.441535384	 0.297053
C	 2.1826025374	-1.6924121254	-4.4644195535	-0.533632
H	 0.9102961618	 1.8337964332	 0.008755348	 0.249638
H	-0.5499791964	 1.8761158573	-0.7139692971	 0.252311
H	 0.5691254311	-0.3469128048	 0.8240914697	 0.170865
H	 2.6323184521	-2.0301563512	-5.3654404293	 0.2026
