13
gdb 72	9.55216	3.57844	2.7341	2.6168	46.19	-0.2423	-0.0072	0.2351	489.8518	0.112006	-232.377706	-232.371073	-232.370129	-232.408256	21.716	
C	-0.0438410206	 1.5409979282	-0.0391381448	-0.371881
C	 0.0276513168	 0.0188581665	 0.0477877255	-0.274276
C	 0.7681464421	-0.4884221754	 1.280008471	 0.386407
C	 0.8785020847	-1.997463118	 1.4239332319	-0.472442
O	 1.2417914178	 0.2665133994	 2.097887025	-0.289712
H	 0.9579645387	 1.9769019761	-0.0681601165	 0.131015
H	-0.5844771694	 1.8535603138	-0.9369036936	 0.108122
H	-0.5517362558	 1.9573775883	 0.8344052943	 0.131207
H	-0.976928243	-0.4270987744	 0.0535317769	 0.118573
H	 0.5185348649	-0.4080650708	-0.8380940874	 0.118396
H	 1.3992498034	-2.4267818837	 0.56053177	 0.136522
H	 1.4200118686	-2.2444936695	 2.3377642594	 0.141799
H	-0.1175060181	-2.4536065107	 1.4514196483	 0.136271
