17
gdb 124548	3.97836	1.04651	0.88184	5.7626	70.24	-0.2537	0.0006	0.2543	1307.5245	0.135535	-455.181941	-455.173192	-455.172248	-455.215907	31.885	
C	 0.0415300114	 1.5907959272	 0.0250003553	-0.382294
C	-0.0248235616	 0.05945025	-0.018622711	-0.105339
C	 0.7338078695	-0.5772790006	 1.1636858032	-0.389925
C	-1.4432281592	-0.4271059701	-0.058343452	 0.439621
N	-2.4842918791	 0.3247512849	 0.0889221267	-0.181802
O	-3.6016082241	-0.5459985003	-0.0083488908	-0.234499
C	-3.1834187523	-1.8324043019	-0.2206532516	 0.506522
O	-3.8906197023	-2.7898911238	-0.3486110952	-0.392304
N	-1.7988209258	-1.7394537523	-0.2476009711	-0.4291
H	 1.0859056589	 1.9141520419	 0.0103607314	 0.115768
H	-0.4750133063	 2.0360290137	-0.8279915506	 0.138454
H	-0.4273499309	 1.9750528359	 0.9346644374	 0.142648
H	 0.4503024438	-0.2853362477	-0.9483594572	 0.102931
H	 0.2981164221	-0.2599332362	 2.1160001553	 0.140033
H	 0.7112844774	-1.6709742448	 1.1302436148	 0.11366
H	 1.7813704538	-0.2642814776	 1.145460426	 0.13084
H	-1.1959883052	-2.5291822283	-0.3986656206	 0.284787
