15
gdb 79733	2.52812	1.91661	1.52042	4.2168	63.64	-0.2337	-0.0346	0.1992	890.069	0.111976	-457.70339	-457.696322	-457.695378	-457.734878	27.692	
O	 0.1318958264	 1.4268232317	 0.2339959837	-0.42601
C	 0.0008687772	 0.0577103841	 0.0259173412	 0.0395
C	-1.4087831727	-0.6282059172	 0.0525172144	-0.128257
C	-2.5577850818	 0.1767502556	-0.5993802885	 0.025569
O	-1.9890667642	 0.952151804	-1.6702742731	-0.258944
C	-2.3040124741	-0.433387316	-1.9127946109	 0.029129
C	-1.1364854809	-1.2884873636	-1.3505475994	-0.218434
C	 0.2174943693	-0.5352590016	-1.4040413699	 0.371505
O	 1.0787395389	-0.4313940429	-2.2228628089	-0.291945
H	-0.3474341426	 1.8590782187	-0.4849899996	 0.301554
H	 0.6776461893	-0.4512136885	 0.7241693432	 0.119352
H	-1.6752089946	-1.2259331039	 0.9214679701	 0.08856
H	-3.46611739	 0.5584253824	-0.1488228081	 0.120271
H	-2.9524217704	-0.6429205678	-2.7547133331	 0.123009
H	-1.17410442	-2.3604480749	-1.5345881109	 0.10514
