15
gdb 62407	2.40088	1.54919	1.36364	2.4888	71.77	-0.2435	-0.0406	0.2029	1007.3493	0.109264	-420.560745	-420.552292	-420.551348	-420.593637	31.426	
C	-0.0317693665	 1.5821691464	-0.0736374319	-0.45549
C	-0.0120922167	 0.0525605036	-0.0359815378	-0.041217
C	-1.3086700075	-0.5354767742	 0.2479110896	 0.281779
C	-2.3788465577	-1.0356696423	 0.4730509318	-0.442317
C	 0.7230894919	-0.6740216604	-1.1985723497	 0.003996
O	 2.0560454674	-0.1947191253	-1.1985082055	-0.234818
C	 1.7356012436	-1.296589038	-0.3148868781	-0.103694
C	 1.0899543372	-0.6335106747	 0.8947748942	 0.396088
O	 1.2445090158	-0.6823930096	 2.0732644161	-0.286374
H	 0.9490622189	 1.9598831136	-0.3699258987	 0.141757
H	-0.7852159167	 1.9425372101	-0.7798018346	 0.130656
H	-0.2770412974	 1.9737564613	 0.9170567775	 0.14477
H	-3.3256847991	-1.4700051653	 0.680651797	 0.203083
H	 0.3003878669	-1.0560893914	-2.1193283776	 0.130564
H	 2.3207117601	-2.2031079638	-0.4092614422	 0.131214
