21
gdb 90879	3.13068	1.61767	1.42709	1.6367	80.81	-0.2428	0.0818	0.3246	1012.8114	0.18515	-387.060456	-387.053235	-387.052291	-387.091701	30.275	
C	-0.6523779085	 1.4260452112	-0.0601474048	-0.415782
C	-0.0405005579	 0.0311643572	-0.0079403633	 0.040306
C	 1.1189065678	-0.3103180891	-0.9994443561	-0.255947
C	 1.996995352	-0.8058905715	 0.1820770534	-0.021676
C	 3.0983330035	 0.1584605138	 0.659957387	 0.062253
C	 3.0350576889	 0.0319993102	 2.2009354015	-0.229627
C	 1.6950917158	 0.7473038256	 1.8939282795	 0.058661
O	 2.3744869778	 1.4260961091	 0.7857111132	-0.295424
C	 0.8791388397	-0.3558022645	 1.1923487731	-0.043131
H	 0.1217971078	 2.1947775751	 0.0009602402	 0.138798
H	-1.2027734851	 1.5711184121	-0.996579943	 0.107499
H	-1.3594174445	 1.5808380361	 0.763252835	 0.104195
H	-0.8381964355	-0.7141564457	-0.0978843915	 0.066092
H	 0.8756936334	-1.0731526092	-1.7429434936	 0.089483
H	 1.5321273452	 0.5629200205	-1.5099526065	 0.105039
H	 2.3044035563	-1.8526479606	 0.1671203028	 0.066255
H	 4.0273660075	 0.2388210009	 0.0947105394	 0.07737
H	 3.0187136881	-0.9628740073	 2.6547884741	 0.093446
H	 3.7466671875	 0.6920384101	 2.6978270149	 0.109444
H	 1.2043400922	 1.4288568288	 2.5886964646	 0.078858
H	 0.4731288679	-1.0820193027	 1.9001203201	 0.063889
