17
gdb 68556	2.43424	1.91504	1.5443	2.5063	72.59	-0.2378	0.0063	0.2441	926.1768	0.135321	-421.760283	-421.752816	-421.751872	-421.791678	30.209	
O	-0.1020768163	 1.4142976945	 0.0319657826	-0.484784
C	-0.0020852765	 0.0335746464	-0.0110115323	 0.276967
C	 0.3248348715	-0.7993326168	-1.3066837717	-0.284524
C	-0.337354555	-1.946450441	-0.4675612538	-0.186743
C	 0.6006308509	-2.0135715026	 0.736575019	-0.08499
C	 0.8205824522	-0.7281875032	 1.0373954785	-0.168006
C	-1.2999400503	-0.8262893031	 0.0407646409	 0.51454
C	-2.5106263526	-0.780700486	 0.841410505	-0.311644
O	-2.5005997106	-0.4733307428	-0.5791073783	-0.295492
H	 0.7846293189	 1.7890684328	 0.0082627464	 0.283687
H	-0.2800925704	-0.4903415795	-2.1634913293	 0.118864
H	 1.3781150731	-0.9256684599	-1.568328104	 0.089256
H	-0.7067223695	-2.8613951362	-0.9237208037	 0.078768
H	 0.9311954051	-2.9096109342	 1.242623199	 0.106784
H	 1.3657799693	-0.2796051193	 1.8566511025	 0.103062
H	-3.0285961167	-1.7002592958	 1.1081777412	 0.117517
H	-2.7001331831	 0.0728537867	 1.4893511478	 0.12674
