21
gdb 75198	2.49376	1.60421	1.1864	1.2679	84.46	-0.2176	0.028	0.2455	1136.6247	0.181056	-387.099755	-387.090417	-387.089473	-387.13296	36.268	
C	-0.0345541449	 1.5101963124	 0.0461314401	-0.51021
C	-0.0198474193	 0.0175710584	-0.0344996831	 0.289563
C	 0.0187431327	-0.7582102014	-1.1219490128	-0.18718
C	-0.0163399528	-2.2345177451	-0.7889107744	-0.33341
C	-0.0187832808	-2.2728976228	 0.7426012999	 0.298414
C	-0.802637804	-3.3475895069	 1.4543943879	-0.477561
C	 1.2016260168	-1.6780986952	 1.4268466965	-0.394287
C	-0.0323366765	-0.8285835842	 1.2070590722	 0.27037
O	-0.8139810559	-0.4259776507	 2.2937982878	-0.469253
H	 0.8586966811	 1.8929152244	 0.5581912896	 0.118052
H	-0.0782945062	 1.9677675275	-0.9454749304	 0.123041
H	-0.8994490087	 1.8539529453	 0.6252459849	 0.135165
H	 0.0912074328	-0.3937441505	-2.1412025505	 0.084705
H	-0.9139817072	-2.7181560778	-1.1998939898	 0.102784
H	 0.8417836625	-2.7744245774	-1.2111101886	 0.105217
H	-0.3323186999	-4.3307205834	 1.3363107789	 0.111674
H	-0.8776614231	-3.1308335961	 2.5234823644	 0.123307
H	-1.8224459435	-3.4158487919	 1.0591390217	 0.116527
H	 1.3789764918	-2.0214812987	 2.4425522303	 0.103439
H	 2.0961109106	-1.4590167933	 0.8513093667	 0.105545
H	-0.2565146555	 0.0779381776	 2.8951809088	 0.284096
