17
gdb 55881	2.44683	1.22902	1.00957	1.7839	75.21	-0.2469	0.0115	0.2584	1242.8681	0.132513	-421.813276	-421.80373	-421.802786	-421.848875	33.95	
C	-0.3213698897	 1.3656778249	 0.0823258645	-0.483038
C	-0.1459222297	-0.1131171449	-0.1498887591	 0.434123
O	 0.6720500235	-0.6305694738	-0.8620556674	-0.342997
O	-1.0568333422	-0.8144954619	 0.5813998715	-0.239922
C	-1.0442555858	-2.2072913566	 0.3967916419	 0.144869
C	-2.2205782568	-2.9338193706	 0.9416174981	-0.337073
C	-2.0476936331	-2.8086333955	-0.5746095599	-0.22468
C	-2.9190903777	-1.9586897666	-1.327471761	 0.333917
C	-3.6428243322	-1.2466393741	-1.9723629679	-0.460412
H	 0.4649055503	 1.9105584907	-0.4383723432	 0.148952
H	-1.3006794915	 1.679046948	-0.2911263919	 0.15782
H	-0.2930779321	 1.5890650484	 1.15208805	 0.149635
H	-0.0543076608	-2.6460574281	 0.4289483242	 0.127357
H	-2.070298971	-3.9073994026	 1.3931951602	 0.127673
H	-3.0028780215	-2.3293143147	 1.3843830594	 0.142428
H	-1.7060380394	-3.6985595384	-1.0949032992	 0.124101
H	-4.2863317805	-0.6240214342	-2.5426522401	 0.197248
