23
gdb 122204	3.41166	0.72941	0.69087	1.9935	82.23	-0.2525	0.0743	0.3268	1732.7174	0.204199	-425.412515	-425.402074	-425.401129	-425.448454	38.5	
O	 0.0854331341	 1.3223407109	-0.2109785981	-0.422085
C	 0.0559773829	-0.0960557433	-0.1618402009	-0.074862
C	-1.3946606707	-0.5288280566	 0.0064691289	-0.194497
C	-1.5535352995	-2.0497309035	 0.1037440977	-0.235732
C	-3.00902956	-2.5245155875	 0.202123404	 0.42093
O	-3.6558424496	-1.9910926237	 1.3435098729	-0.48472
C	-3.7976224995	-2.4463959212	-1.1471700754	-0.277168
C	-3.5270069702	-3.9614275105	-1.3536205824	-0.211586
C	-3.147583185	-4.0662559766	 0.1482310587	-0.257853
H	 1.0006778493	 1.601715074	-0.3047591789	 0.285753
H	 0.469538398	-0.5362153006	-1.0842789446	 0.084719
H	 0.6572308156	-0.4796187752	 0.6787193374	 0.086808
H	-1.7800686633	-0.0449633654	 0.912713753	 0.101693
H	-1.971727339	-0.1316358605	-0.8377137793	 0.109512
H	-1.087429917	-2.5240302928	-0.7701525138	 0.093509
H	-1.01756817	-2.4199545502	 0.9873567427	 0.100651
H	-3.6546899283	-1.030555199	 1.2731117264	 0.276665
H	-4.8532688637	-2.2433731092	-0.9500492317	 0.103969
H	-3.4372502086	-1.7547921112	-1.9136860266	 0.090514
H	-4.364849436	-4.5714849319	-1.6962437101	 0.100184
H	-2.6759887986	-4.1470424275	-2.0142509357	 0.101152
H	-2.266810676	-4.6553079546	 0.4176236117	 0.091355
H	-3.9916549947	-4.3823524138	 0.7654476138	 0.111091
