25
gdb 106676	2.52618	1.1866	1.01372	0.2688	93.63	-0.2344	0.0851	0.3195	1373.6775	0.227803	-352.348681	-352.338452	-352.337508	-352.383362	39.271	
C	 0.0457328558	 1.5251240151	-0.3157059982	-0.370298
C	 0.0286202415	 0.0459216997	 0.0964003792	-0.297394
C	-1.3607407671	-0.5288049342	 0.1666178844	 0.354718
C	-2.110772066	-1.0110950643	-1.0507016862	-0.381017
C	-1.8612031413	-1.9799179494	 0.0783016195	 0.290368
C	-1.1147759613	-3.2695059477	-0.1226434772	-0.500832
C	-2.8972368976	-1.7059894885	 1.1909314975	-0.016079
C	-2.7102082719	-2.4960274856	 2.480650796	-0.411601
C	-2.3833616342	-0.228346338	 1.271211139	-0.307722
H	 1.0673325649	 1.9168601968	-0.3476114656	 0.107574
H	-0.4007386222	 1.659720784	-1.3062921182	 0.11748
H	-0.5244988209	 2.1382718155	 0.3903481919	 0.117319
H	 0.6280723156	-0.5367832895	-0.614950919	 0.092684
H	 0.5204930473	-0.0641825337	 1.0726599078	 0.090712
H	-3.1167297561	-0.6525227023	-1.2645617052	 0.094023
H	-1.502532165	-1.1701805162	-1.9372795375	 0.099779
H	-0.2828409318	-3.1375168135	-0.822558973	 0.114569
H	-0.6996327816	-3.6545937161	 0.8150820012	 0.115183
H	-1.7680879611	-4.0473154487	-0.5381122562	 0.116461
H	-3.936860905	-1.8043145173	 0.852315157	 0.057872
H	-1.68064052	-2.4183612053	 2.8489081115	 0.111996
H	-3.3727032843	-2.1153029466	 3.2656997428	 0.112223
H	-2.9354486358	-3.5590731784	 2.3409772925	 0.11243
H	-1.9158279868	-0.0187288674	 2.2388469138	 0.092271
H	-3.1102928751	 0.5636756616	 1.0591090523	 0.087278
