12
gdb 23935	9.24379	0.68739	0.63981	5.9886	92.11	-0.2419	-0.0716	0.1703	1592.3652	0.078899	-398.366814	-398.359547	-398.358603	-398.399343	26.046	
N	 0.1268646337	-3.6950054377	-0.0194430839	-0.333872
C	 0.0759768992	-2.533009823	-0.0122199886	 0.157796
C	 0.0144942677	-1.1732356227	-0.0037385005	 0.297989
C	-0.0460524257	 0.0380550809	 0.0038258869	-0.079589
C	-0.1306308681	 1.4319536133	 0.0125282599	 0.162374
C	-1.2018546852	 2.2907908013	 0.0321238385	-0.28831
C	-0.663265912	 3.6064845425	 0.0317106033	-0.15429
C	 0.692068048	 3.4571558151	 0.0119875555	-0.018631
O	 1.0374097067	 2.1528100978	 0.0001295979	-0.161521
H	-2.2401700226	 2.0007313023	 0.0450531256	 0.135713
H	-1.2074349907	 4.5371412418	 0.0443364306	 0.13139
H	 1.5125348791	 4.1561262585	 0.0043173248	 0.15095
