18
gdb 31975	5.13683	0.88941	0.80082	1.8771	76.49	-0.185	0.0542	0.2392	1457.0483	0.148572	-435.287022	-435.277694	-435.27675	-435.321862	32.998	
C	 0.4763282151	 0.8983860192	-0.6046533096	-0.326009
N	-0.3471446841	 0.1649369652	 0.3659287294	-0.393834
C	 0.3526366484	-0.4855175978	 1.3930448085	 0.287443
C	 0.6583438135	-0.1853344472	 2.6899872805	-0.173399
N	 1.3423239194	-1.2331463156	 3.297275168	-0.366167
C	 1.4532565119	-2.136967479	 2.3632105619	 0.490233
N	 0.8837306635	-1.7602324759	 1.1859319069	-0.372063
O	 2.0473766284	-3.3360510376	 2.4379038243	-0.274426
C	 2.6208802618	-3.6342754116	 3.7110438188	-0.233464
H	 1.1439645612	 0.1995471595	-1.1170784897	 0.126141
H	-0.1758792058	 1.3506838821	-1.3572601575	 0.12006
H	 1.0966780275	 1.6851353289	-0.1494625091	 0.11274
H	-1.052230417	 0.7732874443	 0.7620246569	 0.236417
H	 0.4230004905	 0.7172693818	 3.2333620684	 0.096422
H	 0.768036739	-2.3274694353	 0.3634784069	 0.26584
H	 3.3909882494	-2.9018418595	 3.9705967579	 0.138473
H	 1.85545433	-3.6261759576	 4.4926617102	 0.138792
H	 3.0571765574	-4.6290770741	 3.6141107571	 0.126801
