15
gdb 25481	5.47992	0.97473	0.82754	1.1575	83.32	-0.2283	-0.0519	0.1764	1310.2699	0.116017	-413.045102	-413.037709	-413.036765	-413.077452	27.331	
N	-0.5089594927	-2.9916042639	-0.1878697433	-0.471052
C	-1.575427707	-2.3120885859	-0.0443635549	 0.0929
N	-1.5635483982	-0.9543250251	-0.2947000027	-0.361109
C	-2.6366485406	-0.0935004869	-0.1823723727	 0.436253
N	-3.8157696088	-0.5836783923	 0.2026515076	-0.31888
C	-4.8206522326	 0.2902320517	 0.2954613387	-0.012111
C	-4.6645557504	 1.6397220628	 0.0104572781	-0.032734
N	-3.4800373067	 2.1333409251	-0.3765505241	-0.223655
C	-2.4767183298	 1.2777332233	-0.4723030167	-0.086325
H	-0.6835420397	-3.9694445256	 0.034274473	 0.23061
H	-2.5565455562	-2.6725668919	 0.2675104868	 0.138561
H	-0.6729673725	-0.5772166785	-0.5867844764	 0.262013
H	-5.782571367	-0.1074116399	 0.6091580089	 0.118866
H	-5.4933386679	 2.3355429962	 0.0915521013	 0.116269
H	-1.5098827599	 1.667865751	-0.7858687934	 0.110396
