17
gdb 69710	3.93543	1.35159	1.24006	5.1021	72.36	-0.2257	0.0287	0.2545	1038.1333	0.136791	-417.97163	-417.964101	-417.963157	-418.003344	29.725	
C	-0.0876744173	 1.5178840624	 0.0380631829	-0.517019
C	 0.1103028352	 0.0348806243	 0.0163214073	 0.332404
N	-0.777569288	-0.9059351388	 0.7278993223	-0.369707
C	 0.6805548959	-0.9212234226	 1.0072525267	-0.104928
C	 1.3531687624	-1.7671036492	-0.1023189283	-0.211822
C	 0.7628676531	-0.7845049925	-1.1539590076	-0.038067
N	 0.0364163703	-1.9101660535	-1.7356793138	-0.318316
C	 0.4332805398	-2.8304029044	-0.7673785352	 0.433697
O	 0.1470886817	-3.9783268	-0.5821751233	-0.353958
H	 0.8033920832	 2.0396209643	-0.3274356801	 0.129475
H	-0.9314177912	 1.8144166633	-0.5966982734	 0.130996
H	-0.2905562958	 1.8743934802	 1.0538282735	 0.122705
H	-1.223882718	-0.3886028449	 1.4847024541	 0.230274
H	 1.054995247	-0.7577520123	 2.0099297164	 0.100393
H	 2.419058965	-1.960944103	-0.0104604151	 0.100074
H	 1.3863026188	-0.2100194304	-1.8400760962	 0.087263
H	-0.8468602422	-1.9077823329	-2.2278721801	 0.246536
