16
gdb 29316	3.35869	1.26993	0.92678	1.8031	85.14	-0.1888	0.0061	0.1949	1217.0969	0.123076	-400.761547	-400.752346	-400.751402	-400.795225	33.97	
C	 0.011009317	 1.5360420948	-0.0038242487	-0.503339
C	-0.0054949414	 0.0391810107	-0.0119854066	 0.204574
C	-0.1315776126	-0.8027242294	-1.1020610191	-0.165957
N	-0.0997188711	-2.0976075458	-0.6804670918	-0.339458
C	 0.0484406962	-2.1340811729	 0.7004984075	 0.098893
C	 0.1191637841	-3.3021071434	 1.4707331823	 0.20588
C	 0.1847263864	-4.2824139727	 2.1744108004	-0.461393
C	 0.1072471379	-0.8082937423	 1.118266446	 0.150384
O	 0.2486562803	-0.3552538908	 2.3887454952	-0.443735
H	 0.9447399653	 1.9271228094	 0.4158430721	 0.131558
H	-0.0934486744	 1.9343074337	-1.0170178341	 0.116298
H	-0.8042851398	 1.9454101749	 0.6033337297	 0.131554
H	-0.2415216401	-0.5604028086	-2.1475366142	 0.121031
H	-0.170942478	-2.9125434939	-1.2624556093	 0.266849
H	 0.2416046765	-5.1481491263	 2.7858659277	 0.188009
H	 0.3043347436	-1.1187914671	 2.9762932128	 0.298851
