21
gdb 91740	3.01108	1.38237	1.32284	2.1155	77.14	-0.2376	0.0768	0.3145	1084.1881	0.184443	-424.241795	-424.233733	-424.232789	-424.273982	32.569	
C	-0.2907787637	 1.5309285109	-0.0293243937	-0.413286
C	 0.0333767176	 0.0466376747	 0.0286829687	 0.165989
O	 0.7507534918	-0.3472160778	-1.1660669738	-0.306172
C	 1.8521128139	-1.1633814786	-0.7399899434	 0.108075
C	 1.3468881562	-1.8271149224	 0.5446617815	-0.241223
C	 0.9461922084	-0.4683975773	 1.1612218923	-0.055523
C	 2.2961272418	 0.2882698109	 1.1228547128	-0.262155
C	 2.9391945599	-0.206274992	-0.2163802146	 0.125369
O	 4.1374712802	-0.9454645603	-0.0292005387	-0.443834
H	 0.6109306031	 2.1443544876	-0.1014104799	 0.118958
H	-0.9055272781	 1.7401978629	-0.9096635986	 0.126856
H	-0.8544443986	 1.8363837241	 0.8587808456	 0.110593
H	-0.9159897563	-0.5112784753	 0.0617607832	 0.067671
H	 2.1697451015	-1.7998138567	-1.5656823619	 0.078363
H	 0.5046329392	-2.5026459321	 0.3767745447	 0.098411
H	 2.1400949946	-2.3424750398	 1.0897671263	 0.111686
H	 0.4609170027	-0.4910632244	 2.1382563423	 0.063572
H	 2.1885723574	 1.3738256238	 1.1748649276	 0.099073
H	 2.92864534	-0.0269489362	 1.9585013742	 0.096176
H	 3.0875151325	 0.6122724902	-0.9321130627	 0.06877
H	 4.792338926	-0.3607516523	 0.3644073283	 0.282632
