16
gdb 16556	3.11046	2.77112	2.26476	2.2448	62.98	-0.2521	-0.0007	0.2514	694.8175	0.133897	-383.740073	-383.734366	-383.733422	-383.7695	23.805	
C	-0.0019775491	 1.4014771474	 0.0889313688	-0.070594
C	 1.4316164906	 1.9736261075	-0.0091680912	-0.220306
C	 2.192837599	 1.214871397	-1.1154664994	 0.030899
O	 2.1516387333	-0.1643313566	-0.7187829579	-0.239806
C	 0.8231068841	-0.5284916875	-1.030636688	 0.140548
O	-0.0577612934	-0.02407551	-0.0398851625	-0.264783
C	 0.5931938319	 0.1519226088	-2.3794884222	-0.096648
C	 1.3981232859	 1.2093307688	-2.4165140583	-0.097079
H	-0.4461997846	 1.6279602386	 1.0615474251	 0.110754
H	-0.6303725333	 1.8663265376	-0.6820131831	 0.098247
H	 1.3785207459	 3.0512297684	-0.2022557068	 0.097353
H	 1.9739772784	 1.8216131395	 0.9289097129	 0.116626
H	 3.2357189948	 1.5266623876	-1.2072171557	 0.083644
H	 0.7248092399	-1.6141515103	-0.9976946482	 0.091029
H	-0.1745673982	-0.1369168076	-3.0840942184	 0.11128
H	 1.4461427748	 1.9889316008	-3.1654775551	 0.108836
