15
gdb 43003	2.31608	1.69724	1.30981	6.1918	69.4	-0.256	-0.0458	0.2101	992.3542	0.114186	-416.817887	-416.810438	-416.809493	-416.850233	27.878	
O	 0.0245993836	 0.0736221402	 0.1411311828	-0.301612
C	-0.0649905028	 1.2640133432	 0.0405019302	 0.451101
C	-1.2945368574	 2.068400267	-0.2361945059	-0.162292
N	-1.3593444467	 3.2620180351	 0.6578848156	-0.31583
C	-0.8660455533	 3.4179943904	-0.7061428795	-0.029262
C	 0.6540250053	 3.499786651	-0.7564048461	-0.238045
C	 1.1506672094	 2.2587387738	 0.042664747	-0.268376
C	 1.588002176	 2.5591386975	 1.4008372975	 0.298596
N	 1.9639489071	 2.7930726515	 2.4684794991	-0.328955
H	-2.201853537	 1.5702714261	-0.5539967027	 0.118251
H	-2.331071713	 3.5557673367	 0.7225166515	 0.251499
H	-1.4567118092	 3.9601844424	-1.4370263087	 0.108688
H	 0.9961959039	 3.4237725699	-1.7926274198	 0.122374
H	 1.027023493	 4.4376442654	-0.3398221788	 0.141314
H	 1.9746723111	 1.75237515	-0.4671820822	 0.15255
