16
gdb 261	8.36053	1.7817	1.52355	2.5426	57.31	-0.2415	-0.0071	0.2345	817.4605	0.140374	-271.666055	-271.658117	-271.657173	-271.699054	26.57	
C	-0.1023394744	 1.5595399137	 0.0594664884	-0.387397
C	 0.0536447415	 0.0401969255	-0.03770121	-0.155048
C	 0.6813665815	-0.5711821615	 1.2144517977	-0.278396
C	 0.8506190926	-2.0842988847	 1.1494159526	 0.375995
C	 1.4709115214	-2.7439446624	 2.3703202405	-0.472809
O	 0.5114274376	-2.7269614972	 0.1820960188	-0.289837
H	 0.866061779	 2.053143594	 0.2003523676	 0.111839
H	-0.5535340791	 1.9689382941	-0.8495274052	 0.115699
H	-0.7413029016	 1.8431468451	 0.903615386	 0.111839
H	-0.9200732679	-0.4296599377	-0.2125568266	 0.111753
H	 0.6663614799	-0.2223988208	-0.90665902	 0.111756
H	 1.6685576765	-0.1292116646	 1.4152218349	 0.115273
H	 0.0846132501	-0.3361644485	 2.1082324496	 0.115271
H	 2.4681006233	-2.3321097287	 2.5625109639	 0.136242
H	 0.8678260369	-2.5412195655	 3.2625771635	 0.136242
H	 1.5430451029	-3.8208035208	 2.2135543983	 0.14158
