23
gdb 106305	3.45131	1.18475	1.08782	1.0856	85.78	-0.2397	0.0838	0.3235	1249.111	0.20613	-388.284718	-388.27576	-388.274816	-388.317887	35.479	
C	 0.0383094167	 1.3404113293	-0.1053034962	-0.261737
O	-0.030650242	-0.0507816796	 0.1271293305	-0.299813
C	-1.3102825007	-0.5911321105	 0.0668965997	 0.459275
C	-2.1639991662	-0.624127757	-1.244196929	-0.326351
C	-2.8435064061	-1.8249022876	-0.5149144825	 0.342245
C	-3.6511264089	-2.8635785985	-1.2564600919	-0.492142
C	-1.4332542175	-2.1314491898	 0.0788303965	-0.316073
C	-3.5210040071	-1.1094580936	 0.6789778101	-0.245009
C	-2.3589856611	-0.1693401061	 1.1247382856	-0.280602
H	 1.0967009517	 1.6114918492	-0.1055158745	 0.125454
H	-0.3963492857	 1.6125942603	-1.0783189468	 0.108765
H	-0.4717495366	 1.9202764496	 0.676881517	 0.109105
H	-2.7852891515	 0.2411455462	-1.4959105553	 0.081675
H	-1.5730144684	-0.9389934017	-2.1077828157	 0.09535
H	-3.0794948376	-3.3058435925	-2.0790728018	 0.11236
H	-3.9570212832	-3.6763828002	-0.5870412313	 0.113512
H	-4.5624443029	-2.4251282601	-1.6800093884	 0.112731
H	-0.7629506504	-2.5972126341	-0.6473157602	 0.096937
H	-1.3735743339	-2.6459887202	 1.0428044179	 0.08579
H	-4.4158620355	-0.5594201168	 0.3698765884	 0.091951
H	-3.8170592276	-1.8153978314	 1.4615130764	 0.094207
H	-2.0058140451	-0.3684048677	 2.1405637012	 0.099165
H	-2.6257324707	 0.8890474528	 1.0587084904	 0.093206
