16
gdb 3390	5.50387	1.8883	1.84209	2.2156	59.69	-0.2318	0.0622	0.294	749.7962	0.1378	-325.714378	-325.707654	-325.70671	-325.745187	25.095	
O	 0.333201064	 1.0708935694	-0.1872006382	-0.413665
C	 0.0990682434	 0.0838758704	 0.8085772942	-0.096897
C	-1.2948333474	-0.4917861501	 0.6739443479	-0.01416
C	-1.6575092392	-1.6894767368	-0.1197722308	-0.049018
C	-0.5967555714	-2.7883477806	-0.0587888573	-0.25114
C	-0.7246020638	-2.6964447946	 1.4814339362	-0.151127
N	-1.8237744152	-1.6634726508	 1.3991258638	-0.157767
H	 0.2216044017	 0.6467197372	-1.0445696465	 0.28323
H	 0.8726579048	-0.6947864686	 0.7821026041	 0.091928
H	 0.1939264217	 0.6025940601	 1.7686268684	 0.120514
H	-2.0463598793	 0.295820182	 0.6534997018	 0.103278
H	-2.5205094129	-1.6989046117	-0.7790824167	 0.095748
H	-0.9531438854	-3.7416626549	-0.4522181442	 0.115252
H	 0.3739825949	-2.5685405065	-0.5146751741	 0.100834
H	-1.1275028927	-3.6029258546	 1.9367335001	 0.114652
H	 0.1537897067	-2.3822552598	 2.0523617014	 0.108337
