15
gdb 60771	4.46464	0.9022	0.75416	5.3714	66.9	-0.2638	-0.0449	0.2189	1399.349	0.111307	-491.156194	-491.146946	-491.146001	-491.191436	31.38	
C	-0.05901011	 1.466256979	-0.0282674607	-0.380927
N	-0.00849986	 0.0083857085	 0.0259204247	-0.196267
C	-0.0171605759	-0.6004917441	 1.2852234399	 0.179987
O	-0.0639472364	 0.0193479444	 2.3192479271	-0.31722
C	 0.0483694186	-0.8305859102	-1.1073196981	 0.560524
O	 0.0892491012	-2.0308153222	-1.0324506378	-0.341674
N	 0.0519217607	-0.1218451821	-2.3145150941	-0.414502
C	 0.1027787275	-0.6694598733	-3.5991122203	 0.170993
O	 0.1503463732	-1.830245745	-3.8857420323	-0.240051
H	 0.8349857004	 1.8810624979	-0.5059252504	 0.142813
H	-0.9564530144	 1.8174159825	-0.5485634915	 0.142854
H	-0.0958681725	 1.814038523	 1.0041864891	 0.189278
H	 0.0234196182	-1.6932289644	 1.2075552069	 0.151622
H	 0.0164391924	 0.884444692	-2.2802295131	 0.260714
H	 0.0926969171	 0.1479990542	-4.3483995994	 0.091854
