21
gdb 37917	3.0032	1.66745	1.24485	0.0699	88.3	-0.2337	0.0391	0.2728	1063.8787	0.186519	-349.912865	-349.905896	-349.904952	-349.944069	29.32	
C	 0.1589988865	 1.8392373227	 0.0097930942	-0.217158
C	 1.5620510516	 1.1585036508	-0.0067534693	-0.08618
C	 0.992868903	 0.2116630245	 1.1004865083	 0.063472
C	 1.6484697609	-1.0724461598	 1.5893193131	-0.319173
C	 2.1653015882	-2.1031409226	 0.6347071747	-0.049408
C	 2.1533424484	-2.0959457786	-0.6942792891	-0.04941
C	 1.61949273	-1.0550364896	-1.6282166024	-0.319148
C	 0.9729478787	 0.2236558103	-1.1137798496	 0.063417
C	-0.1185287495	 0.3046566642	 0.0037403994	-0.086235
H	-0.1107576078	 2.3813812366	 0.919507109	 0.085566
H	-0.1271835093	 2.3914841406	-0.8887451456	 0.085531
H	 2.532087809	 1.6605290056	-0.0127624994	 0.062756
H	 0.714040845	 0.7716354598	 2.0023340196	 0.059227
H	 2.4771882925	-0.7815374084	 2.2548962624	 0.107202
H	 0.9318633702	-1.5665763215	 2.2652007943	 0.107179
H	 2.6075486977	-2.9687110388	 1.127141529	 0.077986
H	 2.5865725434	-2.9560899254	-1.2039350589	 0.077986
H	 2.4360998405	-0.7568882103	-2.3054571263	 0.107205
H	 0.8907523747	-1.5418973276	-2.2963576252	 0.107186
H	 0.6780059939	 0.7933182994	-2.0043560283	 0.059226
H	-1.0958651975	-0.1830098221	 0.00988762	 0.062772
