16
gdb 27545	5.69321	0.92197	0.83654	2.5952	73.02	-0.1878	0.03	0.2179	1337.8891	0.124717	-437.883237	-437.875119	-437.874175	-437.916369	30.14	
N	 0.1286746793	 1.3993781166	-0.0512771707	-0.593782
C	-0.0624753581	 0.0257351955	-0.0238002596	 0.408385
C	-1.168744766	-0.7705535953	 0.0100351359	-0.418215
C	-0.6769732373	-2.1221251211	-0.0912036942	 0.281341
C	 0.6743729531	-2.0361828397	-0.1668716322	-0.131278
O	 1.063393	-0.7166465564	-0.1287239999	-0.178569
C	-1.4762397323	-3.3635207215	-0.1029904642	-0.050049
C	-1.5215882023	-4.2589052037	-1.2753903255	-0.166685
O	-0.7455132443	-4.5924661283	-0.1256700711	-0.231191
H	 1.0095013272	 1.6773691346	 0.362799395	 0.25684
H	-0.6389811152	 1.9101151537	 0.3619809298	 0.256286
H	-2.1952460891	-0.4494838081	 0.0866084698	 0.096442
H	 1.4634723222	-2.7641774745	-0.2188281928	 0.14491
H	-2.3429740198	-3.372482264	 0.559872302	 0.095281
H	-2.3964193722	-4.8855254595	-1.4470701217	 0.113029
H	-0.9507290252	-3.9871908582	-2.1614135205	 0.117254
