15
gdb 3023	6.46314	1.60213	1.46833	2.3369	53.	-0.2578	0.0721	0.3299	830.6439	0.124578	-382.757134	-382.749909	-382.748965	-382.788458	26.288	
O	 0.1610483106	 1.3341323511	-0.1512688868	-0.424805
C	 0.0796302754	-0.0614034601	 0.0268490766	-0.062076
C	-1.3848244141	-0.5082280414	 0.127362235	 0.066179
O	-2.1044296919	-0.0084779173	-0.9931858102	-0.44425
C	-1.5108072903	-2.0182761498	 0.2116519439	 0.056994
C	-2.7311738853	-2.7121406075	-0.2075246372	-0.184313
O	-1.5771251939	-2.6721180724	-1.0649834575	-0.248397
H	-0.5120972272	 1.5455018968	-0.811459035	 0.287591
H	 0.563125751	-0.6093142255	-0.8011019772	 0.089701
H	 0.6193141335	-0.3087973896	 0.9482622489	 0.104183
H	-1.8349837035	-0.0453807809	 1.0140605557	 0.103138
H	-1.9392092395	-0.643119221	-1.7068651188	 0.294158
H	-0.8561218093	-2.5081221813	 0.9330386682	 0.103941
H	-2.9619021617	-3.6923646741	 0.20405426	 0.125276
H	-3.5790986741	-2.126378457	-0.5533301758	 0.132679
