20
gdb 22810	2.64785	1.38593	0.96113	0.8177	87.6	-0.2187	-0.0211	0.1976	1247.3091	0.171842	-403.137444	-403.128748	-403.127804	-403.170584	33.876	
C	-0.1476106787	 1.5593457366	-0.0769460667	-0.471065
C	-0.0196809608	 0.0546016128	-0.0117146722	 0.242815
C	-0.0220997097	-0.6696220472	-1.146716862	-0.12307
C	 0.0978939724	-2.1637610175	-1.2482870128	-0.252739
C	 0.5160159606	-2.8094593605	 0.0768347644	-0.212258
C	-0.2379648054	-2.1510564441	 1.2377898922	-0.274521
C	 0.0549511145	-0.6654540574	 1.2799271718	 0.303773
N	 0.3292092844	-0.2235791314	 2.4547579011	-0.218644
O	 0.6241475885	 1.1461339809	 2.5123262069	-0.398213
H	 0.7646028261	 2.058309862	 0.2577435317	 0.14029
H	-0.3617936535	 1.8687811389	-1.1040483058	 0.103366
H	-0.9509374153	 1.9213274147	 0.5709182267	 0.128956
H	-0.1243445672	-0.1365703235	-2.0904581459	 0.08482
H	-0.8700072506	-2.5726345522	-1.5787807448	 0.111371
H	 0.805196631	-2.4219758338	-2.046782154	 0.106836
H	 0.326852341	-3.8875218205	 0.0572595824	 0.095708
H	 1.5939816221	-2.6751821497	 0.2274624406	 0.107987
H	-1.3178390782	-2.2999649064	 1.0955866061	 0.105717
H	 0.0302550933	-2.5907605581	 2.2005974636	 0.113978
H	 0.7862215057	 1.2699322466	 3.4530985265	 0.304892
