15
gdb 4474	3.58901	1.76936	1.19566	2.3981	65.96	-0.1688	0.0469	0.2157	965.0547	0.118007	-399.826876	-399.818425	-399.817481	-399.859562	30.328	
C	 0.1649117248	 1.4716183699	 0.0683251637	-0.500007
C	-0.0321970296	 0.0060642356	-0.0147784474	 0.247128
C	-1.1198076912	-0.7936471126	-0.1573269461	 0.248664
O	-2.4027841634	-0.3396465851	-0.2580428153	-0.449618
C	-0.6746226904	-2.1629887623	-0.1612621035	-0.416878
C	 0.679640263	-2.0909222282	-0.0201829788	 0.392777
N	 1.6898324487	-3.0433834529	-0.031394167	-0.594978
O	 1.0924862014	-0.8117743906	 0.0726035922	-0.214316
H	 0.824650918	 1.8480117517	-0.7237898031	 0.125918
H	-0.8057306	 1.9622235248	-0.0395280175	 0.142936
H	 0.595941129	 1.784080596	 1.0284314219	 0.123398
H	-2.9759033214	-1.0843555016	-0.458109036	 0.297345
H	-1.2755655722	-3.0539733071	-0.2554482797	 0.089302
H	 1.3766322138	-3.9525014252	 0.2796278217	 0.253612
H	 2.5017854294	-2.7457454923	 0.4949060448	 0.254716
