19
gdb 84538	2.54482	1.53739	1.2993	1.9538	76.7	-0.2192	0.0071	0.2264	1055.5905	0.158282	-423.010719	-423.002026	-423.001081	-423.04329	34.227	
C	-0.1199334863	 1.5921662341	-0.1014098059	-0.450015
C	 0.0264075387	 0.0952766552	 0.028421583	 0.412818
O	-1.1304102232	-0.610809136	-0.3539161307	-0.468639
C	 1.3254090551	-0.6693083102	-0.2412623566	-0.167775
C	 2.6082782942	 0.080076881	-0.123453616	-0.08478
C	 2.8158771257	 0.5164296227	 1.1203148832	-0.126694
C	 1.6958430612	 0.1048277532	 2.0666798608	 0.057754
O	 1.0546306809	 1.209074338	 2.7111673413	-0.430151
C	 0.7135082853	-0.6254511562	 1.1563832351	-0.101931
H	 0.7803116222	 2.1236592375	 0.2019529305	 0.132879
H	-0.3433068106	 1.855160573	-1.1443655406	 0.090907
H	-0.9471805566	 1.9387569648	 0.5236620318	 0.132031
H	-1.3339276455	-0.3632006439	-1.2630104209	 0.277739
H	 1.2500020553	-1.5546613289	-0.8625315716	 0.088127
H	 3.2614738175	 0.2635579462	-0.9700613753	 0.097605
H	 3.6523716191	 1.1245010051	 1.4490047028	 0.08942
H	 2.0714336946	-0.5889687885	 2.8368831457	 0.072582
H	 1.6984912256	 1.6216005219	 3.2960090816	 0.280545
H	 0.1791015267	-1.4812365288	 1.5488746018	 0.097576
