18
gdb 127940	2.42314	1.63875	0.98956	1.0366	86.45	-0.2032	-0.045	0.1582	1186.2846	0.148801	-398.148772	-398.140223	-398.139278	-398.181782	31.964	
C	-0.0215348924	 1.4230896053	 0.0077352892	-0.34321
N	-0.0175198704	-0.024215148	-0.0332718828	-0.318988
C	 0.5588915479	-0.6545532246	 0.9271454466	 0.349452
N	 1.1880515885	-0.0461388513	 2.018226582	-0.313893
N	 1.8101891008	-0.6369984051	 3.0577578285	-0.193165
C	 1.8274787561	-1.9349182708	 3.044243398	-0.000951
C	 1.2311479437	-2.7174766163	 2.0031704828	-0.20487
C	 0.6071044861	-2.1154767938	 0.9607891797	 0.259306
C	-0.0414965451	-2.8511537847	-0.167644883	-0.474241
H	 0.994028949	 1.8571170945	-0.0029210623	 0.104168
H	-0.5449171098	 1.8099618641	-0.8703194069	 0.124565
H	-0.5373221237	 1.8273763011	 0.8967686343	 0.104164
H	 1.1986809959	 0.9594347852	 2.0695875907	 0.269545
H	 2.3289435699	-2.4059088402	 3.8823444085	 0.121833
H	 1.286308441	-3.7999229281	 2.0612294621	 0.104087
H	 0.0528949327	-3.9324449906	-0.0434779603	 0.113288
H	-1.1002871288	-2.581498293	-0.2382124448	 0.149446
H	 0.4036019884	-2.5516608436	-1.1220599222	 0.149461
