21
gdb 78232	1.87797	1.6726	1.00211	2.1021	84.9	-0.223	0.0151	0.238	1262.1401	0.182196	-387.095731	-387.086573	-387.085629	-387.129106	35.317	
C	-0.1343180327	 1.4080541744	 0.0542866186	-0.423668
C	 0.0341668112	-0.0944936799	 0.0198357177	-0.011467
C	 0.7192358435	-0.7303413013	-1.1686561237	-0.080411
C	 1.4119758282	-0.7153259656	 0.1760397284	-0.147096
C	 1.4127073445	-2.1394066748	 0.6504148974	 0.329095
C	 1.9729865433	-2.5229772405	 1.9835555512	-0.495053
C	 0.8268901745	-2.9336850939	-0.2522580613	-0.24652
C	 0.3913703894	-2.1900129362	-1.5030928605	 0.087456
O	-0.9579267148	-2.4350141983	-1.8883089905	-0.434214
H	 0.7252796168	 1.9119277922	-0.3999305706	 0.116506
H	-1.0284238282	 1.7194867044	-0.4973010003	 0.121285
H	-0.2299734113	 1.7752231937	 1.0820822533	 0.117478
H	-0.7764912576	-0.6533905369	 0.4847160466	 0.070579
H	 1.0318112396	-0.0712903623	-1.9703443827	 0.083044
H	 2.2558921798	-0.0669141352	 0.3899553566	 0.08089
H	 1.4790819496	-1.970194336	 2.7926854158	 0.127624
H	 1.860028857	-3.5928198463	 2.1771066629	 0.12531
H	 3.0406627623	-2.2773297791	 2.0471891818	 0.127481
H	 0.6395054746	-3.9952773854	-0.1322557838	 0.090076
H	 0.9707703256	-2.5158861663	-2.3764036791	 0.088707
H	-1.5184676054	-2.1457447866	-1.1596894178	 0.272896
