12
gdb 21628	3.96699	2.0527	1.35315	6.0896	60.26	-0.2288	-0.0469	0.1819	822.6034	0.085931	-410.872163	-410.86567	-410.864726	-410.902598	24.657	
N	-0.082401966	 1.339098688	-0.1181335591	-0.568791
C	-0.0217895223	-0.0148380993	-0.0533589501	 0.396232
N	-1.1612497008	-0.7002843464	-0.0941576813	-0.405188
C	-1.0202156418	-2.0288758795	-0.0626444352	 0.487702
O	-2.1427343405	-2.7559393456	-0.106892151	-0.384109
N	 0.1073679279	-2.7351584421	 0.0122888393	-0.264204
N	 1.2403172699	-2.0317783459	 0.0582865593	-0.161209
C	 1.2059172942	-0.7153788326	 0.025643325	-0.053624
H	 0.7269581985	 1.8894253805	 0.1100357048	 0.270154
H	-0.9865056488	 1.7710981444	-0.0179392654	 0.268518
H	-2.8751032666	-2.1276020821	-0.1610543077	 0.304492
H	 2.1598521562	-0.1986351492	 0.0624344514	 0.110025
