17
gdb 55321	2.09741	1.55708	1.0836	5.4009	73.07	-0.2426	-0.0233	0.2193	1145.1881	0.134978	-418.00944	-418.000358	-417.999414	-418.044069	32.056	
C	 0.2195265709	 1.5702328667	-0.186707395	-0.500021
C	 0.1474289947	 0.084145288	 0.0996107448	 0.386417
O	 0.4100057233	-0.3976256102	 1.1733492131	-0.284671
C	-0.2252291085	-0.8214547512	-1.07414326	-0.079828
N	-0.7176001119	-2.1559266176	-0.7274748867	-0.281622
C	-1.6650460736	-2.1542514594	-1.854542802	-0.164117
C	-1.527222037	-0.5998340877	-1.9289822216	-0.204204
C	-2.5935843573	 0.1388383464	-1.273743798	 0.308713
N	-3.4407290417	 0.7432076595	-0.7695014559	-0.332068
H	 0.7506131761	 2.0740575304	 0.6217252471	 0.150135
H	 0.7140281809	 1.7695009595	-1.1438628127	 0.127813
H	-0.7961428528	 1.9768641727	-0.2538418736	 0.175198
H	 0.6374717019	-0.8093084557	-1.7657264539	 0.094415
H	-0.0360380005	-2.9031748181	-0.6866574358	 0.233617
H	-1.2987040808	-2.6159006198	-2.7822890822	 0.104559
H	-2.6568669864	-2.5489888354	-1.619902959	 0.133936
H	-1.3661445772	-0.1881387481	-2.9259776286	 0.131728
