20
gdb 102219	2.091	0.91959	0.70573	3.9964	86.12	-0.2424	0.0274	0.2698	1672.625	0.168559	-403.152463	-403.141506	-403.140562	-403.190861	37.013	
C	 0.2757460513	 0.9984855704	 0.4555335853	-0.377503
C	-0.0873931553	-0.3111230163	-0.2516991354	-0.159485
N	 0.5889188189	-0.4973833875	-1.5267726442	-0.032996
C	 2.0199951956	-0.8056673114	-1.5462291202	-0.326183
C	 2.3557277772	-2.0287017348	-0.8193604291	 0.085721
C	 2.638132375	-3.0291165089	-0.2117494372	 0.0424
C	 2.988268198	-4.2468326265	 0.5053359278	-0.497041
C	-0.0779693029	-0.4064895279	-2.7127905967	 0.157584
O	 0.414030535	-0.5346036905	-3.8149569483	-0.344576
H	 1.3417046489	 1.0444406157	 0.6976118256	 0.128463
H	 0.0296539315	 1.8623211615	-0.1693690732	 0.126131
H	-0.2795311095	 1.0827504131	 1.3948822866	 0.122007
H	 0.1464360133	-1.1654259071	 0.3941724893	 0.124678
H	-1.1644649958	-0.3413037502	-0.4456659509	 0.116276
H	 2.2868851455	-0.8930087028	-2.6036785516	 0.174818
H	 2.5896771886	 0.0384870281	-1.1355994453	 0.132366
H	 3.8574279159	-4.7348623109	 0.0509952392	 0.153606
H	 3.2325852873	-4.0405935926	 1.5531109697	 0.147692
H	 2.1617353902	-4.9655820032	 0.4909152372	 0.151869
H	-1.1541505986	-0.1940747382	-2.5586919987	 0.074173
