20
gdb 26665	2.25083	1.52965	0.93012	1.4591	84.44	-0.1799	0.058	0.2379	1280.9918	0.170655	-399.366863	-399.356114	-399.35517	-399.402967	38.094	
C	-0.0131835663	 1.5387455606	 0.12814906	-0.50897
C	 0.0122961635	 0.0530435502	 0.012699547	 0.308757
C	 0.002890343	-0.7479898504	-1.1120327873	 0.012198
N	-0.034108934	-0.2336563568	-2.4461768842	-0.608485
C	 0.0346120313	-2.1187926974	-0.6889940108	 0.210179
C	 0.0351490315	-3.3255669699	-1.5740358157	-0.515452
C	 0.0636470978	-2.1047754086	 0.6899245933	 0.134567
N	 0.1003195031	-3.1156474569	 1.6832864416	-0.616013
N	 0.0534313749	-0.7883169162	 1.0963114577	-0.323283
H	 0.904043797	 1.942093146	 0.5768141327	 0.116618
H	-0.1132605052	 1.9606537381	-0.8741522707	 0.151728
H	-0.8553265526	 1.8938129507	 0.7357190695	 0.115738
H	 0.8353370938	-0.4256293065	-2.93687949	 0.228803
H	-0.7659078619	-0.6852923349	-2.9873385606	 0.227934
H	 0.8793307373	-3.3228648976	-2.2753153436	 0.115176
H	 0.1031377032	-4.2443425041	-0.9828253224	 0.103749
H	-0.8765027287	-3.3972997161	-2.1817511887	 0.115649
H	 0.9212307115	-3.7056266531	 1.5941754966	 0.239929
H	-0.7108540474	-3.7236706997	 1.6362966384	 0.240006
H	 0.0692534281	-0.5171598074	 2.0645928873	 0.251171
