15
gdb 44889	3.16876	1.57821	1.39139	5.4549	65.1	-0.2662	0.0066	0.2728	941.4682	0.113531	-457.745683	-457.739066	-457.738122	-457.776698	26.229	
O	-0.0048539591	 0.0842514364	 0.0562877999	-0.343643
C	 0.0643333056	 1.2730722837	 0.0373250269	 0.474155
O	-1.0270092691	 2.1174235259	 0.0602264758	-0.246086
C	-0.4040585603	 3.4357419067	 0.0126450618	-0.01739
C	 0.6711114923	 3.2486182054	-1.0845308755	-0.245377
C	 1.2470518517	 2.238969422	-0.0229248526	-0.31211
C	 0.744429123	 3.2760462968	 1.0137947812	 0.527441
C	 1.4579312252	 4.2280827238	 1.8520124843	-0.298117
O	 0.6714062397	 3.1440568202	 2.3990197061	-0.277134
H	-1.1663950208	 4.2093941966	 0.0318734846	 0.109655
H	 0.3259338059	 2.8334803519	-2.0319970486	 0.132123
H	 1.3089700112	 4.1206369088	-1.2342443057	 0.123249
H	 2.2439219102	 1.8106412493	-0.0467170311	 0.110227
H	 2.5336274899	 4.1324717006	 1.9874896516	 0.132165
H	 1.0497137446	 5.223055222	 2.0211348411	 0.130841
