17
gdb 68171	3.62794	1.4558	1.24537	4.7016	67.86	-0.247	0.0009	0.248	1017.9329	0.136446	-458.9861	-458.978526	-458.977582	-459.017937	29.356	
C	-0.0085167069	 1.5543626161	 0.0163378334	-0.477548
C	 0.0056445205	 0.0480477874	-0.0654906409	 0.365957
C	 0.7347207675	-0.6835085721	-1.218688333	-0.300117
C	 1.0899959792	-1.6529768401	-0.0754746975	-0.059387
O	 0.9196142828	-0.5831558703	 0.891565552	-0.317547
C	-0.055379852	-2.638700829	 0.1042085176	 0.454358
O	 0.0449902134	-3.8320227667	 0.1284502178	-0.332446
O	-1.2711982458	-2.0393566903	 0.2071699889	-0.246245
C	-1.3532844978	-0.5991840365	 0.1836641659	-0.088674
H	 1.0040624029	 1.9454693719	-0.1094044548	 0.136181
H	-0.6468430879	 1.9783041853	-0.7657797991	 0.129297
H	-0.3874365251	 1.8869703538	 0.9881223808	 0.136987
H	 0.1505161904	-1.0546992228	-2.063124582	 0.121464
H	 1.6070431262	-0.1263657064	-1.5633914048	 0.120166
H	 2.0584587506	-2.1484264896	-0.0224218285	 0.110079
H	-1.7444587463	-0.2811393071	 1.1557650275	 0.127487
H	-2.0754269316	-0.3311515335	-0.5953364934	 0.119989
