19
gdb 84280	3.02173	1.46271	1.15762	1.0474	78.06	-0.2351	0.0076	0.2427	1091.324	0.160443	-423.002021	-422.993976	-422.993032	-423.034499	31.757	
O	 0.0219123058	 1.4488547936	 0.0320484837	-0.442647
C	 0.0291125871	 0.0243713624	-0.0316494567	 0.092172
C	 0.6412193256	-0.6176156359	 1.2075427814	-0.308926
C	-0.0962270535	-1.6586341834	 1.5769532079	 0.313045
C	-0.6410130338	-2.4300141795	 2.7547629414	-0.322531
C	-2.0583976678	-2.1443708095	 2.1190555523	-0.23819
C	-1.338952038	-1.8501030018	 0.7571319649	-0.047833
C	-1.4470985424	-0.558360111	-0.0761620608	 0.048173
O	-2.3383760165	 0.3450773089	 0.5484287035	-0.435279
H	-0.2003563355	 1.6766084576	 0.9428950818	 0.280648
H	 0.5652231089	-0.2105849472	-0.9590852886	 0.091447
H	 1.4893190003	-0.1761558029	 1.7188328375	 0.096601
H	-0.4040034537	-3.4986628991	 2.7221335202	 0.113989
H	-0.4284700926	-2.0506882659	 3.7569485619	 0.112125
H	-2.781849719	-2.9621958232	 2.1388303371	 0.09961
H	-2.5066071081	-1.2376292505	 2.5256401618	 0.131296
H	-1.3258017883	-2.740529225	 0.1194541143	 0.077915
H	-1.7614441515	-0.7491564148	-1.1123726715	 0.057295
H	-2.149980707	 1.2068751271	 0.154866908	 0.281091
