20
gdb 73578	2.36231	1.97455	1.49912	1.1011	76.95	-0.2288	0.0703	0.2991	977.9073	0.172342	-403.108222	-403.100576	-403.099632	-403.13991	30.928	
C	-0.0952703131	 1.4604211509	-0.0358891525	-0.465723
C	 0.0267122658	-0.0510604049	-0.0026308862	 0.402127
O	-1.1390013158	-0.6838456038	-0.5262090295	-0.301395
C	-1.8759190588	-1.2338489781	 0.5658767076	-0.085314
C	-0.8377364217	-1.6889020236	 1.617805363	-0.264689
C	 0.3396523968	-0.7459239993	 1.3429242171	-0.017961
N	 1.661367289	-1.2879013681	 0.824043854	-0.153278
C	 1.388103543	-2.0916494102	-0.3834571151	-0.254286
C	 1.3551824816	-0.629646854	-0.5191296082	-0.071425
H	 0.8013958041	 1.9344034075	 0.3757610737	 0.122679
H	-0.227217475	 1.8074702562	-1.065762351	 0.127655
H	-0.9598707273	 1.792593156	 0.5478145616	 0.118145
H	-2.5525512125	-0.4777690571	 0.9939712552	 0.093525
H	-2.4899292767	-2.04907926	 0.1726559879	 0.109318
H	-1.2213832374	-1.5950946849	 2.6365948021	 0.105976
H	-0.5532124835	-2.7338324508	 1.4686277756	 0.118555
H	 0.5586328001	-0.0720206851	 2.1723602042	 0.084196
H	 2.2764111139	-2.6064668669	-0.7362492384	 0.121279
H	 0.4675763687	-2.6587817778	-0.4801925461	 0.120772
H	 2.1093201789	-0.059544126	-1.0520725351	 0.089844
