16
gdb 28814	3.12927	1.42646	1.09686	3.3223	83.81	-0.2399	-0.0722	0.1677	1106.7664	0.125406	-396.944445	-396.936565	-396.935621	-396.976976	29.404	
C	-0.353349679	 1.4181083844	 0.1549868548	-0.48963
C	-0.0506413987	-0.0529662601	 0.0067958074	 0.231132
C	-0.3571216304	-0.7135103418	-1.1447807329	-0.062816
N	 0.0609329223	-1.9595856515	-1.5463945614	-0.182949
C	 0.3007090588	-2.9351317296	-0.7567315468	-0.003216
C	 0.0461569175	-2.9205441386	 0.71367047	 0.286172
N	-0.6708667204	-3.8322876185	 1.2352793359	-0.494628
N	 0.7420172454	-1.9330475748	 1.4096698245	-0.248681
C	 0.678610353	-0.6872535621	 1.0889967494	-0.045389
H	-0.9554821365	 1.6122036019	 1.0497947439	 0.139698
H	 0.5672078348	 2.0057369488	 0.2557731659	 0.139211
H	-0.8995578812	 1.7988785612	-0.7110545318	 0.134668
H	-0.8817390052	-0.1679685208	-1.926710195	 0.114548
H	 0.7123236926	-3.8520524039	-1.1798155822	 0.141359
H	-0.7304623351	-3.6890415253	 2.2478013635	 0.223866
H	 1.2423619422	-0.0097487492	 1.7368726747	 0.116657
