22
gdb 78264	3.25258	1.19644	1.04609	1.2824	87.8	-0.1911	0.0815	0.2726	1281.3478	0.192367	-367.130182	-367.120968	-367.120024	-367.163242	36.219	
C	-0.191913306	 1.3217685448	-0.0802296588	-0.427034
C	 0.0355684921	-0.17187777	 0.0163638439	-0.010275
C	 1.4468969622	-0.6661140323	-0.1798111588	-0.090869
C	 0.8148606146	-0.6686824613	 1.2086012758	-0.130996
C	 0.9745937094	-2.2261266979	 1.2611352384	 0.349613
C	 1.3106918788	-2.9491920365	 2.5281539139	-0.514179
C	 1.560536022	-2.2129782433	-0.1027617562	-0.120153
N	 0.2169466572	-2.7989687998	 0.1245216332	-0.140127
C	 0.1897057938	-4.2532449317	 0.0388653162	-0.326277
H	 0.6626814851	 1.8866384686	 0.3088761764	 0.109384
H	-0.3469924073	 1.6287728366	-1.1202990668	 0.116665
H	-1.076327149	 1.6217611892	 0.4924842784	 0.116597
H	-0.7719296408	-0.7927425894	-0.3530296285	 0.107206
H	 2.2404742615	-0.0309437234	-0.5535407929	 0.081231
H	 1.0516997507	-0.0321713515	 2.0532840449	 0.078454
H	 0.4656067689	-2.9205226461	 3.2277396183	 0.124305
H	 1.5721853016	-3.9956511709	 2.3554334921	 0.12395
H	 2.1625059821	-2.4710326201	 3.0240878248	 0.125385
H	 2.3490155569	-2.8196072481	-0.5325132139	 0.0848
H	 1.1315739805	-4.7538799641	 0.3172654894	 0.097448
H	-0.6041655569	-4.6413637492	 0.6854428044	 0.121632
H	-0.0443481975	-4.5348034637	-0.993022994	 0.12324
