19
gdb 23244	2.52694	1.34804	1.10502	1.0382	80.25	-0.227	0.0008	0.2278	1182.4362	0.157846	-419.122529	-419.113399	-419.112455	-419.15608	34.385	
C	-0.0851605425	 1.5634910103	-0.0026748067	-0.428464
C	 0.0809721903	 0.063033258	-0.0951989141	 0.019683
C	 0.629141303	-0.6805514239	-1.264685356	-0.15804
N	 1.3407312023	-0.6719660008	 0.103059052	-0.154306
C	 2.4653792534	 0.1414662042	-0.5199720377	-0.047407
C	 3.790923052	-0.6005621871	-0.4274181529	-0.395144
C	 1.7699443164	 0.0476723726	-1.8685083619	 0.430542
N	 2.0515541772	 0.2585659503	-3.0859126775	-0.266659
O	 3.2846687159	 0.9309035597	-3.2076326335	-0.393848
H	 0.6014750919	 2.1133065004	-0.648165644	 0.137224
H	-1.1028909724	 1.8327554593	-0.3023524506	 0.127999
H	 0.0583164204	 1.9037473559	 1.028718265	 0.128591
H	-0.7233640722	-0.4819666426	 0.3978003971	 0.102812
H	 0.1521906181	-1.5638053571	-1.675583131	 0.110713
H	 2.5594987522	 1.1443606042	-0.0924740944	 0.094054
H	 3.6954640478	-1.6140455984	-0.8266935748	 0.124855
H	 4.5585763813	-0.0716037849	-0.9965064009	 0.136084
H	 4.1025179466	-0.6735425103	 0.6186431923	 0.123135
H	 3.3864045382	 0.9935369704	-4.1631707306	 0.308176
