23
gdb 86240	2.55732	1.10336	0.826	2.94	86.89	-0.2447	-0.0165	0.2282	1455.3278	0.205107	-388.329511	-388.319623	-388.318679	-388.365056	36.61	
C	-0.143340463	 1.5712982769	 0.0097263913	-0.41067
C	 0.0457470166	 0.0557789859	-0.0243617007	 0.0503
C	 0.9035243089	-0.4665044084	-1.1871217098	-0.220136
C	 1.284649575	-1.891781225	-0.7589654979	 0.020202
C	 2.4110470246	-2.5460202465	-1.5553227749	-0.415875
C	 1.6059975747	-1.7284352229	 0.7598877176	-0.049339
C	 0.7461031154	-0.5216202668	 1.2354228973	-0.264413
C	 1.2991897622	-3.0034563652	 1.5033538465	 0.151127
O	 2.1134316314	-3.7731704993	 1.9447069025	-0.2579
H	 0.8226091282	 2.0841708241	 0.0871172185	 0.113517
H	-0.6410451141	 1.9316593981	-0.8967925799	 0.114243
H	-0.7522774411	 1.8785985988	 0.8666954304	 0.114946
H	-0.9442951847	-0.4126727107	-0.1084701826	 0.071457
H	 0.3832542954	-0.4388700963	-2.150192622	 0.094981
H	 1.8128909359	 0.1430450822	-1.2887569645	 0.092754
H	 0.3825713966	-2.5163493195	-0.8482161392	 0.07337
H	 3.316895565	-1.9297801817	-1.5269871515	 0.116652
H	 2.6664012958	-3.5298555498	-1.1488285228	 0.13081
H	 2.1281702702	-2.6781748468	-2.6047223287	 0.114054
H	 2.6744990144	-1.5261265824	 0.8805400886	 0.086365
H	 1.3919725096	 0.2313222255	 1.6981110892	 0.107612
H	 0.0159692124	-0.8134814332	 1.9989299817	 0.100764
H	 0.2043321708	-3.211212087	 1.6000626309	 0.065179
