15
gdb 130891	5.82028	1.06295	0.90922	6.3478	77.67	-0.2421	-0.0426	0.1995	1217.1638	0.114435	-416.801647	-416.794424	-416.79348	-416.833704	26.499	
O	-0.1242219319	 0.0011693475	 0.2928540161	-0.265784
C	-0.0103641969	 1.1964868433	 0.1662360044	 0.099561
C	 1.2454438772	 1.9286982071	-0.052154696	 0.25226
N	 2.4415250361	 1.2933895736	-0.1343578596	-0.334449
N	 3.260888536	 2.3125543496	-0.3277293381	 0.105647
C	 4.6534976094	 2.7456197545	-0.5348468201	-0.169247
C	 4.0529856897	 4.2102189373	-0.6012666135	-0.375212
C	 2.7034161999	 3.5356729273	-0.3769433308	 0.406327
C	 1.3495985361	 3.349443913	-0.1986345185	-0.48248
H	-0.8979907453	 1.8690545454	 0.2079764289	 0.064809
H	 5.3084653363	 2.536401256	 0.3134836126	 0.147266
H	 5.0964727151	 2.3694317223	-1.4593502379	 0.147283
H	 4.3915703317	 4.873035953	 0.1974720178	 0.140397
H	 4.1818231718	 4.7073851484	-1.5646608751	 0.140395
H	 0.5452690149	 4.0657030817	-0.1707310301	 0.123226
