18
gdb 97177	3.18508	1.17341	0.93016	3.3128	75.59	-0.2467	-0.0275	0.2191	1265.5382	0.146878	-439.119127	-439.110218	-439.109274	-439.154483	31.862	
C	 0.6616833567	 1.3649606639	-0.2440853055	-0.318024
N	 0.2386865975	-0.022381089	-0.107152048	-0.292738
C	 0.1589199279	-0.5130555117	 1.0521681375	 0.393291
C	-0.2827092944	-1.9398480834	 1.2755032622	-0.410065
C	 0.5777440836	-2.6830066964	 2.2943993508	 0.397229
O	 0.794580612	-3.8660931192	 2.2309073118	-0.298984
C	 1.1224495934	-1.7912615725	 3.4059366664	-0.322472
C	 0.3971452521	-0.4495065307	 3.4378743456	-0.095514
O	 0.4734690397	 0.212488054	 2.1707514005	-0.254306
H	 1.636498359	 1.5473806297	 0.2261530893	 0.119373
H	 0.7350563448	 1.6109279867	-1.3058258967	 0.118675
H	-0.0532040445	 2.0552422414	 0.2222739854	 0.120822
H	-1.3053359495	-1.9367032879	 1.6853320671	 0.147469
H	-0.3108637671	-2.4727038211	 0.3266783698	 0.159534
H	 1.0485182322	-2.3160987053	 4.3627418086	 0.13899
H	 2.1895373599	-1.6282015123	 3.2072129601	 0.149698
H	-0.6549785542	-0.5790485289	 3.7265688745	 0.115974
H	 0.8554324509	 0.2371379825	 4.1523269206	 0.131048
