14
gdb 8745	3.84314	1.26111	1.21648	3.9046	63.86	-0.2774	0.0143	0.2917	1017.8094	0.105615	-378.679407	-378.670537	-378.669593	-378.713047	31.17	
N	 0.1919971654	 1.5860347326	-0.0884615173	-0.508313
C	 0.1084775635	 0.1289808317	-0.0275642883	-0.134413
C	 0.6428577826	-0.5396630805	-1.2317538008	 0.259335
N	 1.0608295303	-1.03277545	-2.1901773731	-0.317597
C	 0.8631869429	-0.3696718725	 1.2477422015	-0.042555
O	 2.1410667345	 0.2355384851	 1.3301591631	-0.416589
C	 0.0550371664	-0.1314293986	 2.4443646012	 0.304285
C	-0.6001870965	 0.0779228601	 3.429278465	-0.43593
H	 1.1145520784	 1.8537008478	-0.4175410786	 0.249595
H	-0.4772456057	 1.951014102	-0.7576604968	 0.251058
H	-0.9430891522	-0.1569001549	 0.0734404482	 0.144625
H	 1.0477447282	-1.44391491	 1.1400903019	 0.141088
H	 2.0049855197	 1.1259253899	 1.6756107735	 0.297625
H	-1.1765379275	 0.2546365273	 4.3041220105	 0.207785
