19
gdb 95361	2.99647	1.52728	1.10998	1.9023	77.21	-0.2387	0.0049	0.2435	1109.003	0.160441	-423.025185	-423.017276	-423.016332	-423.057792	30.248	
C	-0.2023440824	 1.5140411608	 0.1005529272	-0.392247
C	 0.0217474288	 0.0089798568	-0.0049620486	 0.043565
O	 0.8743941727	-0.3041576573	-1.1375469588	-0.291825
C	 2.1046978654	-0.8984134468	-0.7022311179	-0.106401
C	 1.7236764258	-1.6141364343	 0.6015096462	 0.051907
O	 2.7136741196	-1.7642661434	 1.6009568556	-0.28022
C	 2.2076116588	-1.2144352277	 2.8259050904	-0.110674
C	 1.0231084626	-0.3642078388	 2.4193641318	-0.275339
C	 0.7441168123	-0.6122781747	 1.1470980308	 0.284735
H	 0.7419262195	 2.033115213	 0.2858228275	 0.123003
H	-0.6349155092	 1.8939221337	-0.8286566322	 0.128254
H	-0.8922494009	 1.7409394352	 0.9204415018	 0.114842
H	-0.9414757917	-0.4873530368	-0.1923120999	 0.093115
H	 2.4519539739	-1.5530304528	-1.5054760777	 0.108947
H	 2.8761347377	-0.1428082234	-0.4921847716	 0.097352
H	 1.2576531309	-2.5866435799	 0.3704335205	 0.082518
H	 1.9375571107	-2.0236784702	 3.5248268153	 0.105285
H	 2.9990915007	-0.6217667007	 3.3037626252	 0.114928
H	 0.5593779046	 0.3594231073	 3.0776743443	 0.108255
