20
gdb 133873	3.08572	1.9131	1.87526	1.9005	81.97	-0.2086	0.0824	0.291	871.4877	0.175911	-365.922771	-365.916841	-365.915897	-365.952493	26.965	
C	-0.7778971189	 1.7887034422	 0.3690105058	-0.276637
N	 0.6580763081	 1.5284302262	-0.1869655035	-0.193392
C	-0.0448564622	 0.401553045	-0.9915671011	 0.056297
C	 0.5671294385	-0.9621387979	-1.3325600265	-0.262655
C	 0.4523269563	-1.6781013218	 0.0343344356	-0.021135
C	 1.4475698358	-0.8648368177	 0.8958872231	-0.262655
C	 0.7272617467	 0.486884472	 0.9627069026	 0.056296
C	-0.6804798735	 0.2284777734	 0.3986482141	 0.269082
C	-0.9845553623	-1.2560193476	 0.5836054703	-0.367242
H	-1.4415655452	 2.2559600081	-0.3628850235	 0.103377
H	-0.77714419	 2.3293900302	 1.3188067167	 0.103377
H	-0.6562810323	 0.8232513255	-1.7929667018	 0.064566
H	 1.5961466151	-0.9387135435	-1.7037241731	 0.105877
H	-0.0542399643	-1.4303066619	-2.1039885159	 0.095846
H	 0.6288877741	-2.7550986001	 0.0116026372	 0.06205
H	 2.4517399383	-0.8441596321	 0.4618336688	 0.105877
H	 1.5340623853	-1.2547737504	 1.9161085705	 0.095846
H	 0.8149612988	 0.985847267	 1.9308264522	 0.064566
H	-1.7919297544	-1.6495368263	-0.0410135598	 0.10033
H	-1.1363209138	-1.5770823202	 1.6183730682	 0.10033
