12
gdb 19223	3.23168	2.0475	1.45754	6.2164	59.98	-0.2648	-0.0469	0.2179	816.5125	0.084044	-377.493135	-377.486539	-377.485594	-377.524216	24.	
O	-0.077691258	 0.0072005123	-0.1009249119	-0.274861
C	-0.0965521893	 1.1881922497	 0.0221263112	 0.452881
C	-1.1367681735	 2.2719939602	-0.094459787	-0.184486
N	-0.9290814623	 3.1345991933	 1.118482352	-0.307391
C	-0.062322717	 3.3249102072	-0.0378406392	-0.052498
C	 1.0618576209	 2.2818945572	 0.1019104862	-0.286696
C	 1.928146673	 2.3443969752	 1.2617833014	 0.302676
N	 2.6261921793	 2.3896139063	 2.1819140699	-0.322636
H	-2.087725119	 2.2498971719	-0.6094583495	 0.134083
H	-1.6639502875	 3.8413785434	 1.0945083648	 0.253917
H	-0.0083811281	 4.2525459669	-0.5906320214	 0.130755
H	 1.6551072215	 2.1836258364	-0.8135014665	 0.154256
