14
gdb 130273	2.08615	1.88587	0.99201	2.6526	74.37	-0.2072	0.0089	0.216	1107.2472	0.100727	-432.839973	-432.831474	-432.83053	-432.872637	32.383	
N	 0.0420354628	 1.339309632	 0.1741968714	-0.599988
C	 0.029741058	-0.0287876318	 0.0416655125	 0.347758
N	-1.0911223723	-0.7127562507	 0.0168920864	-0.250087
O	-0.6729693626	-2.0815304305	-0.0504518553	-0.221548
C	 0.6541346627	-2.1291317454	-0.07599071	 0.41234
N	 1.2370855681	-3.3530196323	-0.2001103009	-0.60447
C	 1.1976289166	-0.8636799933	-0.0199510741	-0.062939
C	 2.5513337377	-0.4898650398	-0.0174636852	 0.122063
C	 3.7124548727	-0.1602720544	-0.0187778082	-0.397643
H	 0.849821814	 1.7914984397	-0.2278340352	 0.261901
H	-0.8307545352	 1.7886949014	-0.062342711	 0.262275
H	 0.6794630484	-4.1376985282	 0.1018276017	 0.27232
H	 2.2086929484	-3.3956627544	 0.0674495664	 0.274971
H	 4.7336259608	 0.1292760978	-0.0154428485	 0.183048
