13
gdb 133299	5.21631	1.07096	0.89353	3.4781	63.79	-0.2532	-0.0827	0.1704	1185.7431	0.088958	-494.036787	-494.029447	-494.028503	-494.069058	26.386	
C	-0.0103399923	 1.3998806146	 0.0087932875	-0.239287
O	-0.0338746328	-0.0334871694	 0.0045436132	-0.263084
C	-1.2341463217	-0.6209123491	 0.0121432972	 0.442944
C	-1.2797077489	-2.0323274477	 0.0080987271	-0.061106
N	-2.4382662548	-2.6532500405	 0.0152324495	-0.27225
C	-3.4984416229	-1.8429886978	 0.0260246231	 0.386027
F	-4.6723880519	-2.4391646561	 0.0335338095	-0.049893
N	-3.5214986562	-0.5299551257	 0.0303484882	-0.253237
N	-2.3407954861	 0.1015164197	 0.0230747309	-0.275494
H	 1.0455313677	 1.6697304307	 0.0013122478	 0.139667
H	-0.5161475437	 1.7988717835	-0.8743664219	 0.148101
H	-0.5021538846	 1.7933722279	 0.9022642707	 0.148101
H	-0.366666162	-2.6213149802	-0.0009056728	 0.149511
