18
gdb 94341	2.65127	1.35746	1.10622	3.5287	77.16	-0.27	0.0264	0.2964	1139.657	0.14755	-401.939371	-401.930795	-401.929851	-401.972748	32.35	
O	 0.4008226907	 0.9482282201	-0.5135394205	-0.429397
C	 0.10502504	-0.2304757847	 0.1863891444	 0.08222
C	-0.0816912069	-0.0765140999	 1.7140093366	-0.241002
C	-1.28663994	-1.0661020147	 1.6393668522	-0.319695
C	-1.3297907709	-0.7854085155	 0.1350251141	 0.32928
C	-2.4242087758	-0.1318667727	-0.6288390622	-0.324727
C	-1.9701048665	-1.5389007103	-1.0147372399	-0.272453
C	-1.1763567256	-1.7044945265	-2.1990340239	 0.289107
N	-0.4914964177	-1.8016219603	-3.1279694791	-0.354967
H	 0.6969941735	 0.7083172007	-1.3982795221	 0.297951
H	 0.8280025937	-1.0245852994	-0.0455786598	 0.087005
H	 0.7609925991	-0.3406028112	 2.3547397842	 0.106817
H	-0.4120681389	 0.9388753192	 1.9453246294	 0.123318
H	-0.9970362538	-2.0950534041	 1.8705304393	 0.114451
H	-2.1787254139	-0.8109306141	 2.2149542865	 0.111871
H	-3.4081419472	-0.0559643218	-0.178267985	 0.127013
H	-2.1513011943	 0.6823012854	-1.2911229476	 0.143595
H	-2.6372802355	-2.3632692503	-0.7860060066	 0.129615
