14
gdb 128071	4.52516	1.04091	0.8508	1.47	66.68	-0.2633	-0.0558	0.2075	1271.9308	0.100781	-470.014192	-470.005951	-470.005007	-470.047963	28.49	
C	-0.0180992655	 1.4187364893	 0.0934749776	-0.337646
N	 0.1212757572	-0.0188936505	-0.0228382201	-0.329108
C	 0.5438934248	-0.6204667836	-1.1638030979	 0.335032
O	 0.8473407843	-0.0416876964	-2.1949151964	-0.386698
C	 0.6181589351	-2.0993207111	-1.0763909811	 0.17455
C	 0.9997027999	-2.9888360746	-2.0337695146	-0.003112
O	 0.9213711857	-4.2143124839	-1.5420037614	-0.160644
N	 0.4581723939	-4.0750327354	-0.182534347	-0.002594
N	 0.3001655893	-2.8505067856	 0.0344433428	-0.195258
H	 0.6317154386	 1.8169009906	 0.8802293623	 0.13291
H	 0.2708473342	 1.8549602401	-0.8632404605	 0.173357
H	-1.0529404686	 1.6991146906	 0.317699381	 0.132911
H	-0.0999926838	-0.6092890876	 0.7641475593	 0.267684
H	 1.330296225	-2.8633611319	-3.0511947641	 0.198617
