19
gdb 36626	5.93388	0.68285	0.64231	1.2589	85.25	-0.2301	0.0144	0.2445	1717.0399	0.158037	-385.859508	-385.850188	-385.849244	-385.894878	33.337	
C	 0.011413236	-1.2280971442	-0.0722016865	-0.436935
C	-0.0143618915	-0.0270665133	-0.1128577057	 0.2976
C	-0.0070659328	 1.4291278489	-0.1524296946	-0.352092
C	 1.396899036	 2.0243364531	 0.1377878821	-0.312475
C	 1.4138926347	 3.521324036	 0.1064900565	 0.316147
C	 1.6314385013	 4.368677536	 1.109436416	-0.217749
C	 1.5707467041	 5.7860254793	 0.6206503656	-0.101549
O	 1.2719193432	 5.6880261456	-0.770383188	-0.264262
C	 1.189422673	 4.3217180253	-1.1555506391	-0.150985
H	 0.0184442708	-2.2893218717	-0.0405547417	 0.195768
H	-0.3578916963	 1.7694968703	-1.1343146812	 0.135685
H	-0.7207397291	 1.8248340385	 0.5805645394	 0.137207
H	 1.7350416959	 1.6676942152	 1.1150032309	 0.119868
H	 2.0976767443	 1.6230177313	-0.6053296946	 0.119829
H	 1.839710776	 4.1050169669	 2.1393353346	 0.100144
H	 0.7913199301	 6.3779631369	 1.1263381592	 0.105007
H	 2.5237046396	 6.3211135005	 0.7644192329	 0.104084
H	 1.949954383	 4.0942748356	-1.9218230705	 0.101918
H	 0.2071045316	 4.1282376196	-1.6157016352	 0.102791
