17
gdb 5321	4.42107	1.4965	1.16321	2.5887	70.27	-0.2046	0.0443	0.2489	1014.9989	0.143287	-363.897813	-363.889967	-363.889022	-363.930156	29.816	
C	 0.1941325063	 1.3545873449	-0.4071965219	-0.393559
C	-0.0113176989	 0.0074918927	 0.2926041422	 0.021843
O	 0.3834045381	 0.0766804684	 1.6639690685	-0.425585
C	-1.4190299797	-0.5166279097	 0.1622254363	 0.250697
C	-2.0902580763	-1.2231407058	 1.1383485375	-0.182905
N	-3.3332041657	-1.5425495669	 0.6543435101	-0.240138
C	-3.4744820522	-1.0560383226	-0.6193426381	-0.071084
C	-2.3056178409	-0.4139881508	-0.953059395	-0.263999
H	 1.2207544243	 1.6979022084	-0.2538474097	 0.117605
H	 0.0116199689	 1.2767286053	-1.4835677461	 0.115417
H	-0.4923460089	 2.1081649475	-0.0046254518	 0.108371
H	 0.6928621565	-0.7145942623	-0.1424172225	 0.097521
H	-0.2580003687	 0.6442793886	 2.1073338872	 0.270746
H	-1.7707024267	-1.528274125	 2.1207290806	 0.125698
H	-4.0364240994	-2.0501259486	 1.161269597	 0.260535
H	-4.3881978414	-1.2001212041	-1.1733109841	 0.11781
H	-2.1068753753	 0.0756063899	-1.8939425203	 0.091027
