19
gdb 115487	3.77929	0.96514	0.81558	3.4913	75.	-0.2176	0.0514	0.269	1423.2694	0.160455	-456.360134	-456.350734	-456.34979	-456.395412	33.212	
C	 0.0212726231	 1.3363166305	 0.0167396389	-0.327236
N	-0.0260315004	-0.1115130871	-0.0935367051	-0.369015
C	 0.5798595055	-0.7978423466	-1.0974273585	 0.511383
N	 0.8634381234	-2.0468186778	-1.0925311898	-0.408926
C	 1.4029155041	-2.354225993	-2.4236768187	-0.003275
C	 0.505170482	-3.3948182518	-3.1033034563	-0.048009
O	 0.3694485106	-4.5427052803	-2.2979778101	-0.424252
C	 1.4388489788	-0.9860690865	-3.1527958601	-0.129966
O	 0.8658719871	-0.0597906822	-2.2031779841	-0.254604
H	 0.991894351	 1.7126024583	 0.3690571526	 0.124038
H	-0.1859759622	 1.7811009843	-0.9570237636	 0.158019
H	-0.7521167309	 1.6616948959	 0.7166000567	 0.131107
H	-0.0902086776	-0.6418142627	 0.7607265897	 0.25836
H	 2.4069137563	-2.7844291422	-2.322269361	 0.083892
H	-0.4730540308	-2.9276215761	-3.3171971113	 0.075123
H	 0.9379413739	-3.7142484478	-4.0592202243	 0.096842
H	 0.2110105179	-4.2045942043	-1.4058882335	 0.291461
H	 2.4484538253	-0.6450578159	-3.3960597827	 0.118538
H	 0.8266797929	-0.9636191746	-4.0606860288	 0.11652
