16
gdb 84182	3.48663	1.07582	0.86035	2.9582	78.44	-0.2625	-0.0559	0.2066	1289.6351	0.123832	-400.803404	-400.794963	-400.794019	-400.837007	30.655	
C	-0.1423674798	 1.5935704616	 0.0382909072	-0.395102
C	 0.0236975871	 0.0665867993	-0.0264682118	-0.150129
C	 0.8017691333	-0.4575411804	-1.1996258812	-0.154853
C	 1.8284777107	-1.2437945257	-0.8374250007	 0.173268
C	 1.9348300484	-1.4017583495	 0.6626278667	-0.429057
C	 0.8113283129	-0.489032615	 1.179312541	 0.392477
O	 0.5916806384	-0.2296036344	 2.3310210885	-0.299752
C	 2.7313312738	-1.8767359269	-1.7346274946	 0.21145
N	 3.4821358923	-2.4050739056	-2.4410766381	-0.327315
H	 0.8267492424	 2.0972815807	-0.0252740738	 0.129043
H	-0.769939908	 1.9538424706	-0.7814306431	 0.125768
H	-0.6103561602	 1.8681830285	 0.9867107577	 0.149709
H	-0.9789102181	-0.3873145799	-0.0014629178	 0.127314
H	 0.5531710737	-0.2187999304	-2.2269430859	 0.13021
H	 1.7687463337	-2.4332888394	 0.9962266917	 0.158354
H	 2.9040596692	-1.0943556534	 1.0701985343	 0.158614
