19
gdb 68815	2.84751	1.26278	1.05018	3.1483	76.81	-0.2417	-0.0337	0.208	1204.7071	0.155882	-423.001657	-422.99223	-422.991285	-423.035974	34.417	
C	 0.1198931461	 1.6061884555	 0.0810422766	-0.490586
C	 0.126239706	 0.1152270817	 0.0154656044	 0.435846
C	 1.2733220373	-0.7838889009	-0.331050297	-0.39242
C	 0.5120565138	-1.0002895223	 0.9728951471	 0.188573
C	 1.142432011	-1.0282884559	 2.3326843009	-0.494975
C	-0.8761267273	-1.5716677697	 0.6358707619	 0.000825
O	-1.1117896783	-0.5352146477	-0.3417505916	-0.339607
C	-0.9268966743	-2.97834378	 0.082425445	 0.132156
O	-1.0717996019	-3.9517535284	 0.7774936071	-0.24727
H	 1.08198959	 1.9789517857	 0.4437669744	 0.126041
H	-0.0514604618	 2.0310547948	-0.9145701672	 0.13774
H	-0.6708709476	 1.9676478631	 0.7455004236	 0.130928
H	 1.2012321427	-1.4684690647	-1.1705123747	 0.116401
H	 2.2601226242	-0.3543430919	-0.1837159574	 0.116896
H	 1.9928996301	-0.3408861524	 2.3840231727	 0.122689
H	 0.4276633386	-0.7399741793	 3.1112255152	 0.125022
H	 1.5137880958	-2.0305041412	 2.5752976188	 0.138341
H	-1.5701920893	-1.4885721997	 1.481302798	 0.104716
H	-0.7915003852	-3.0509049268	-1.0190734879	 0.088686
