23
gdb 91386	2.99993	1.19464	1.03824	1.6959	85.11	-0.2386	0.0787	0.3173	1287.887	0.206845	-388.29989	-388.291043	-388.290098	-388.333504	34.551	
C	-0.204201019	 1.4505146224	-0.2818416966	-0.407318
C	-0.085112255	-0.0055979466	 0.1173674411	 0.152813
O	 0.5590530257	-0.8156467832	-0.8974729517	-0.316636
C	 1.3609072207	-1.4997419719	 0.0972218154	 0.13556
C	 2.878241991	-1.3577234452	-0.0925502688	-0.242311
C	 3.3599531404	-0.6110193237	 1.1730256812	 0.053505
C	 4.7111746267	 0.0853400394	 1.0260530655	-0.4048
C	 2.1826769842	 0.3349614326	 1.5046573353	-0.240471
C	 0.923354459	-0.4937784925	 1.1928272321	-0.099446
H	 0.7681919801	 1.8869253964	-0.5233386967	 0.122261
H	-0.8396001126	 1.5384043975	-1.1690681807	 0.126473
H	-0.6627679657	 2.0339761452	 0.524024441	 0.114295
H	-1.0895492604	-0.4041682309	 0.3274797423	 0.067137
H	 1.029650296	-2.538156297	 0.2175076367	 0.067136
H	 3.3893410662	-2.3144788098	-0.2337890583	 0.092935
H	 3.0562596527	-0.7487496244	-0.9863529494	 0.108363
H	 3.4357176483	-1.3468111475	 1.9869150992	 0.070441
H	 4.6805651209	 0.8289577425	 0.2208961516	 0.113664
H	 4.9966888732	 0.6031407219	 1.9481328198	 0.111173
H	 5.5059132465	-0.6295857895	 0.7878891129	 0.112973
H	 2.2115386787	 0.6906792232	 2.5387264424	 0.094563
H	 2.2451954217	 1.2208716097	 0.8623284517	 0.099048
H	 0.4676913608	-0.9074446786	 2.0943106238	 0.068641
