20
gdb 78321	2.82544	1.63018	1.31354	2.0532	78.19	-0.2294	0.0704	0.2998	1044.5705	0.170837	-403.082731	-403.074505	-403.073561	-403.114965	32.388	
C	-0.254623689	 1.1936137172	 0.5518661787	-0.42823
C	 0.2413961406	-0.2316742909	 0.4226726451	 0.011722
C	 0.6603097889	-0.8767183306	-0.8356352265	-0.082998
C	 1.4428331215	 0.0652727163	-1.7361913298	 0.046944
O	 2.4364894958	-0.6374681691	-2.4970383439	-0.294622
C	 3.3942795991	-0.5495643802	-1.4177869624	-0.108916
C	 2.4242994607	 0.2593685501	-0.5281372605	 0.289475
C	 2.9822046849	 1.5012050909	 0.1257613038	-0.506375
N	 1.648408231	-0.6945590226	 0.3307914246	-0.183881
H	 0.158634676	 1.870153502	-0.1977331071	 0.129686
H	-1.3435185817	 1.1989162227	 0.4316523601	 0.124168
H	-0.032147218	 1.60078533	 1.5440153055	 0.127748
H	-0.2857016744	-0.9089987148	 1.0929661361	 0.099542
H	 0.3241542614	-1.8601669599	-1.1481112218	 0.103309
H	 0.9228559546	 0.8186914716	-2.3343339121	 0.079097
H	 3.6748118192	-1.5283896673	-1.0135803439	 0.112447
H	 4.2912903215	-0.0022036529	-1.7319902057	 0.098559
H	 3.4692547594	 2.1437741456	-0.614769908	 0.124235
H	 2.2263843825	 2.0899188577	 0.6469014357	 0.12571
H	 3.7384966361	 1.2078331643	 0.8637917321	 0.132378
