22
gdb 6135	2.97848	1.66317	1.39387	1.3113	78.07	-0.2508	0.0693	0.3202	1036.1127	0.198369	-350.20552	-350.19606	-350.195116	-350.238717	36.211	
C	-0.5200564278	 0.8131241065	-1.5581479361	-0.429668
C	 0.3628237738	-0.2151751481	-0.8675890878	 0.024218
C	 1.8770224765	-0.249716668	-1.211025074	-0.276784
C	 2.205286769	-0.4362474463	 0.3049955811	 0.328268
C	 2.4119825711	-1.9085331982	 0.6716838556	-0.439535
C	 3.3313245713	 0.4277986985	 0.862464561	-0.444358
C	 0.7456414995	 0.0230828438	 0.6305139138	 0.074207
O	 0.7329892131	 1.3844401067	 1.0223911762	-0.43215
H	-0.1290945	 1.8242330447	-1.4083807818	 0.122206
H	-0.5653447723	 0.6274863271	-2.6366091331	 0.116718
H	-1.5494655392	 0.7856369313	-1.1793714615	 0.103654
H	-0.0760675349	-1.2126366974	-0.9759039829	 0.067682
H	 2.2185494773	-1.0352991774	-1.8912865149	 0.087442
H	 2.2304957823	 0.715043195	-1.5875452909	 0.095849
H	 3.3590555717	-2.2794763885	 0.2640317711	 0.111931
H	 2.4402867845	-2.0406515111	 1.7594187316	 0.11184
H	 1.6115018842	-2.5456885925	 0.2800822827	 0.108897
H	 3.1604467372	 1.4845880518	 0.6490629585	 0.126556
H	 3.4206424	 0.316066856	 1.9489203271	 0.108617
H	 4.2883337514	 0.1326709486	 0.4162836307	 0.102763
H	 0.2109668775	-0.5931766248	 1.368519035	 0.047552
H	-0.1846602459	 1.6701629321	 1.0717070885	 0.284096
