21
gdb 38226	2.99275	2.0161	1.67367	0.3049	86.67	-0.2418	0.0731	0.3149	907.5277	0.186298	-349.844189	-349.837957	-349.837013	-349.874084	28.768	
C	 0.0030961075	 1.751613352	-0.0314565876	-0.207615
C	 1.4892565712	 1.5037196683	 0.0715415251	-0.045705
C	 1.0785927262	 0.2964398587	 1.0457632055	-0.335661
C	-0.0614106748	 0.1669643614	-0.0556730331	 0.286147
C	-1.4165651099	-0.2333273991	-0.6407399447	-0.325114
C	-1.1639978977	 0.4056666947	-2.0847780737	-0.234752
C	 0.3940515399	 0.388390848	-2.2969278148	-0.087622
C	 1.6722819271	 0.8400864721	-1.3356153262	-0.069728
C	 0.8949396725	-0.3863709998	-1.1670543492	-0.024747
H	-0.4637249831	 2.0882379703	 0.89924929	 0.081366
H	-0.3510206841	 2.3522409146	-0.8657094153	 0.099731
H	 2.2018231008	 2.269980551	 0.38090213	 0.058141
H	 1.760928767	-0.5508481885	 1.1505738707	 0.094116
H	 0.7679230368	 0.6609033914	 2.0275670404	 0.097672
H	-1.5769935215	-1.3132692093	-0.7246459714	 0.094865
H	-2.2808063958	 0.2094791222	-0.1381843252	 0.094564
H	-1.5875453087	-0.240824839	-2.8620984538	 0.097447
H	-1.6520657418	 1.3783852638	-2.1868670396	 0.105197
H	 0.7372149865	 0.1926287967	-3.3097576589	 0.076632
H	 2.6173320334	 0.8733827729	-1.8700222901	 0.075534
H	 1.2243489885	-1.4199345223	-1.1057578381	 0.069533
