17
gdb 50670	2.06212	1.85491	1.15323	2.693	67.57	-0.2492	-0.0388	0.2104	1065.3632	0.134719	-458.946453	-458.938288	-458.937344	-458.979995	29.934	
O	-0.7018920968	 0.6404270447	-0.3980647736	-0.238032
C	 0.4159555299	 0.7906320072	 0.0209532071	 0.124105
C	 1.1650132895	 2.1247766133	 0.035895693	-0.065884
O	 2.4652587332	 1.9453574315	 0.5693399682	-0.255163
C	 3.3591782614	 1.7649066231	-0.53256041	-0.096278
C	 2.8576993207	 2.7239934553	-1.6167903851	-0.313455
C	 1.3542300616	 2.77082628	-1.3516842158	 0.395057
C	 0.3065665728	 2.8262321099	-2.376377042	-0.247583
O	 0.6668193077	 3.9867064114	-1.6114864811	-0.269272
H	 1.0001571573	-0.0429853369	 0.4728036717	 0.095321
H	 0.6065990708	 2.8096658631	 0.6846642591	 0.136619
H	 4.3690200958	 1.9798035334	-0.177916544	 0.1245
H	 3.330604014	 0.7212205416	-0.8840848973	 0.098602
H	 3.2648834339	 3.7282936591	-1.4677680714	 0.133763
H	 3.1047809173	 2.3960169336	-2.6288190021	 0.116109
H	 0.592675265	 2.8557157932	-3.4269819919	 0.114403
H	-0.673626364	 2.4092924765	-2.1616761146	 0.147188
