19
gdb 91721	2.61272	1.57365	1.46349	3.6117	74.5	-0.2259	-0.0168	0.2091	1008.5865	0.160851	-423.058905	-423.051388	-423.050444	-423.090739	30.187	
C	-0.2407831261	 1.5414557363	-0.0327443087	-0.41532
C	 0.0404360991	 0.0495569625	 0.0336459686	 0.160887
O	 0.7382273265	-0.3703761768	-1.1675586879	-0.301518
C	 1.8159131258	-1.2382710119	-0.7569522376	 0.006913
C	 1.3070791806	-1.8612889034	 0.5451312403	-0.257837
C	 0.9501253137	-0.4825875886	 1.1597479531	-0.065513
C	 2.3152327427	 0.2369231824	 1.1037540567	-0.343481
C	 2.8919263111	-0.2675236074	-0.2371464469	 0.441049
O	 3.9276125078	 0.0489793377	-0.7552526264	-0.326584
H	 0.6769571202	 2.128503231	-0.1161844748	 0.128266
H	-0.8557875872	 1.7609775859	-0.9100531518	 0.132743
H	-0.7898989563	 1.8672121883	 0.8570119983	 0.11515
H	-0.9212559591	-0.4841079164	 0.0754698798	 0.075352
H	 2.1100232709	-1.8749884428	-1.5890656134	 0.091491
H	 0.4427751751	-2.5121113455	 0.393405651	 0.113295
H	 2.0803555904	-2.4010226824	 1.0995234697	 0.109136
H	 0.4751114277	-0.4992398355	 2.141098305	 0.075546
H	 2.2788068456	 1.3271684214	 1.1424780647	 0.131298
H	 2.9700658614	-0.094944865	 1.9173678302	 0.129124
