19
gdb 106114	2.59662	1.43453	1.18157	0.9298	74.59	-0.2254	0.0705	0.2959	1129.7902	0.158484	-422.952985	-422.9446	-422.943656	-422.986113	32.156	
C	 0.1594685675	 1.5694899342	-0.2554716903	-0.373666
C	-0.0611796295	 0.0719927816	-0.0034158423	-0.338385
C	 0.6287878784	-0.4310125214	 1.2232581864	 0.33031
C	 2.0387771682	-0.7164575683	 1.6107629593	 0.023057
O	 2.0254561984	 0.045300975	 2.8230454728	-0.295949
C	 0.5794016423	-0.0657153672	 2.7646428094	-0.035139
C	 0.3137946831	-1.5695975499	 3.0709626338	 0.116882
O	-1.0529618358	-1.9218575064	 2.9932812464	-0.434874
C	 0.9858787711	-1.8315003595	 1.7343942395	-0.196466
H	 1.2231062156	 1.7956321509	-0.3794441057	 0.122314
H	-0.3657978243	 1.8961459938	-1.1580670938	 0.11233
H	-0.2112374442	 2.1687719419	 0.5825855159	 0.118959
H	-1.1347550112	-0.1404852016	 0.0776841295	 0.113859
H	 0.2968200458	-0.5072115096	-0.8646065081	 0.103405
H	 2.958809674	-0.7972500542	 1.0461264645	 0.108169
H	 0.0450640474	 0.7414808604	 3.2650330123	 0.079954
H	 0.7887867374	-1.9619222217	 3.9812379191	 0.067933
H	-1.476056504	-1.6332384076	 3.8087596683	 0.284307
H	 1.0357120099	-2.7603203404	 1.1801446231	 0.092999
