16
gdb 50615	1.96865	1.80717	0.95328	5.3269	77.18	-0.2288	-0.0738	0.155	1166.8272	0.124548	-437.934097	-437.925795	-437.92485	-437.96792	29.357	
O	-1.1348036474	 1.9208937325	-0.0396615969	-0.334069
C	-0.1062156084	 1.2784465852	 0.0197664175	 0.113585
N	 1.1271843619	 1.8800373698	 0.0123399912	-0.168128
C	 1.2474171502	 3.3508891459	-0.0689040723	-0.172033
C	 2.7780957258	 3.6157386088	-0.0476444607	-0.28779
C	 3.3711396001	 2.2365339196	 0.0436891437	-0.191999
C	 2.4042838129	 1.3017634065	 0.0744007489	 0.318053
C	 2.6919811119	-0.1361920148	 0.1622019573	 0.092989
O	 1.8772693263	-1.0306104608	 0.1941054357	-0.274003
H	-0.0520067081	 0.1837134527	 0.0837346025	 0.135082
H	 0.7642165613	 3.7070222654	-0.9819678522	 0.140095
H	 0.7221768989	 3.8074127102	 0.7734990688	 0.140192
H	 3.1183035389	 4.1416038283	-0.9473016766	 0.133687
H	 3.0770820088	 4.2395160372	 0.8027812072	 0.133703
H	 4.4301707142	 2.0218626704	 0.0800733481	 0.125896
H	 3.7813912927	-0.3445821468	 0.1987957178	 0.094741
