16
gdb 83728	2.62793	1.78066	1.26129	5.8551	63.93	-0.2456	0.0029	0.2485	979.1373	0.126389	-475.032058	-475.0248	-475.023856	-475.064181	27.889	
O	-0.0423972422	 1.4473327941	 0.0238794496	-0.416112
C	 0.0068424478	 0.0490754193	 0.0305210175	 0.006357
C	-1.3681617553	-0.6174724848	-0.0374122464	-0.065111
N	-2.2660480841	 0.1133390024	-0.971327959	-0.333769
C	-2.3988072269	-1.0885942508	-1.8432974112	-0.187182
C	-1.2314931337	-1.752470331	-1.0822825685	 0.092154
O	 0.0328162859	-1.5878023259	-1.7210713355	-0.228659
C	 0.7403251447	-0.5337048207	-1.2042950844	 0.379746
O	 1.7702968682	-0.168419137	-1.6802839721	-0.315363
H	-0.7147706767	 1.6699796501	-0.6391096516	 0.287351
H	 0.5657690776	-0.2570650434	 0.9217306623	 0.119517
H	-1.7977478662	-0.8802973535	 0.9315112384	 0.082788
H	-3.130801266	 0.4472449978	-0.5641078183	 0.235503
H	-3.3409988479	-1.6348546872	-1.7177706561	 0.109138
H	-2.2272803826	-0.8975735609	-2.9063244298	 0.129715
H	-1.3404151025	-2.7945916985	-0.784056405	 0.103926
