22
gdb 117361	4.98294	0.6554	0.62271	3.2188	84.48	-0.2374	0.034	0.2715	1900.2046	0.193016	-404.374685	-404.364195	-404.363251	-404.412187	37.209	
C	-0.1050459573	 1.500332679	 0.1853956894	-0.385782
C	-0.287778342	 0.0120973469	 0.4886188513	-0.149045
C	-1.3110308333	-0.6622355088	-0.4305161377	-0.30597
C	-1.3593753723	-2.176368468	-0.2293484008	 0.408739
O	-0.3779870829	-2.8340440413	 0.0618364101	-0.370209
N	-2.595391087	-2.7420399161	-0.4101983548	-0.330993
C	-2.7894946547	-4.1611516726	-0.4175639127	 0.065589
C	-2.8397898094	-4.8967968788	 0.8933512578	-0.235318
C	-4.1019076758	-4.6929816248	 0.0925989575	-0.297958
H	 0.6307678014	 1.9523217796	 0.8576237602	 0.114779
H	 0.2435369112	 1.6564017449	-0.8419148355	 0.113225
H	-1.0440213243	 2.0537593846	 0.3018671982	 0.109343
H	 0.6610236922	-0.5227444743	 0.3879364735	 0.128083
H	-0.6001520716	-0.119748529	 1.5317546781	 0.099819
H	-2.3069238937	-0.2216863389	-0.2962352582	 0.092034
H	-1.0334936462	-0.4842954952	-1.479237008	 0.123244
H	-3.3350463704	-2.1636869813	-0.7763361355	 0.242209
H	-2.3253120507	-4.6836113749	-1.2506578508	 0.102253
H	-2.3988559782	-5.8857982278	 0.9323027494	 0.120583
H	-2.7115448366	-4.3058645195	 1.7917845209	 0.124341
H	-4.8216182133	-3.9724012817	 0.4666884648	 0.112519
H	-4.541175505	-5.539790062	-0.4220469569	 0.118514
