16
gdb 97185	2.79293	1.38369	0.96736	3.672	69.55	-0.2681	-0.0086	0.2595	1182.697	0.124186	-475.074715	-475.066285	-475.065341	-475.108915	29.653	
C	 0.091610951	 1.4351726473	 0.1193267453	-0.341081
N	-0.0263764551	-0.0019337032	 0.3014643092	-0.281559
C	-1.0653399955	-0.6218960285	-0.0276162189	 0.420979
C	-1.2524731205	-2.0986941234	 0.141201394	-0.316363
C	-1.9997485785	-2.6217435288	-1.0735633385	-0.085221
O	-3.2491883335	-1.9250646273	-1.213459062	-0.243922
C	-3.3011852591	-0.5953076897	-1.0377469757	 0.47802
O	-4.2822862661	 0.0386035029	-1.2651834445	-0.342529
O	-2.163551084	 0.0300056566	-0.5940068451	-0.267105
H	 0.9473027388	 1.6333511074	-0.5351676565	 0.135322
H	-0.7972561971	 1.9171279103	-0.2977714908	 0.139969
H	 0.3246851034	 1.8884643411	 1.0885911988	 0.136908
H	-0.2766260928	-2.5705382217	 0.2596167875	 0.149074
H	-1.8451561183	-2.2998559538	 1.0421777213	 0.143676
H	-1.4132523929	-2.4917978422	-1.9908603016	 0.13366
H	-2.2677360398	-3.674498087	-0.9760140725	 0.140172
