20
gdb 59431	3.305	1.01937	0.89264	3.174	75.64	-0.2419	0.0602	0.3021	1361.6784	0.169526	-440.228685	-440.219212	-440.218268	-440.263535	34.683	
C	 0.2032895853	 1.4833356437	 0.2249598043	-0.409966
C	-0.1610256191	 0.0199353614	-0.0179845664	 0.140813
O	-1.5719597026	-0.1865961891	-0.0240008732	-0.430038
C	 0.4686730603	-0.5211729748	-1.2872542276	-0.121418
N	 1.8375531939	-1.0702443636	-1.1525289054	-0.377244
C	 0.7280143926	-1.9597974626	-1.4677423898	 0.279878
C	 0.2932525775	-3.168034621	-0.6452820874	-0.133908
O	 0.0760491938	-3.9267625353	-1.8607727726	-0.276424
C	 0.5296350912	-2.8432562797	-2.6960568328	-0.148544
H	 1.2883731545	 1.6016652909	 0.301093632	 0.132539
H	-0.1478642995	 2.1145648105	-0.6019139682	 0.101987
H	-0.257501616	 1.8433193166	 1.1485830172	 0.125651
H	 0.2079556597	-0.5849322313	 0.8172686492	 0.097632
H	-1.9516659578	 0.3786988624	-0.7056781764	 0.277062
H	 0.2430722318	 0.0513272495	-2.1898983249	 0.075232
H	 2.3911746582	-0.8776485547	-1.9844654452	 0.231824
H	 1.0780158596	-3.6065248721	-0.0169090473	 0.107659
H	-0.6291872981	-3.0473261092	-0.0664543106	 0.12339
H	-0.2364216044	-2.5213403694	-3.4136418603	 0.104302
H	 1.4495421089	-3.0981862823	-3.2422893345	 0.099573
