12
gdb 3211	3.54485	3.52494	2.13434	2.6297	50.	-0.2431	-0.0216	0.2216	603.575	0.089909	-360.47888	-360.472707	-360.471763	-360.508877	22.322	
O	-0.1293280053	 1.4893669181	 0.1208608841	-0.424045
C	-0.0361128585	 0.0922661893	 0.0240777905	-0.010551
C	-1.3579198536	-0.6597387879	-0.0133122935	-0.033825
C	-2.0945777377	-0.3795647577	-1.2496090432	-0.237981
N	-0.9771354483	-1.3784254966	-1.3251796361	-0.177412
C	 0.2209006073	-0.5579944454	-1.3615221984	 0.358668
O	 1.0891410505	-0.5118352875	-2.1746076209	-0.294929
H	 0.7396567819	 1.857966857	-0.0740314139	 0.30045
H	 0.6508573359	-0.3370874482	 0.7690179404	 0.106787
H	-1.7722544185	-1.2312492187	 0.8069993896	 0.118295
H	-3.064477133	-0.8450316756	-1.3856530794	 0.144455
H	-1.9695007606	 0.5781907032	-1.7457226491	 0.150088
