16
gdb 38203	3.42777	1.92692	1.57043	1.166	67.21	-0.2549	0.0004	0.2553	847.6292	0.127444	-437.85204	-437.846121	-437.845177	-437.882043	25.012	
C	-0.0335586341	 1.5954228659	-0.0035583625	-0.260788
C	 1.4695488191	 1.308932508	 0.0041342064	 0.093618
C	 1.1561643838	 0.0936028452	 0.9588373507	-0.331889
C	-0.0623933901	 0.0257281484	-0.0005811138	 0.310219
N	-1.3445877828	-0.644722543	-0.1457701706	-0.364719
C	-1.4723179233	-0.6816037406	-1.4187574106	 0.082302
O	-0.4396815211	-0.2832502836	-2.2324240206	-0.266907
C	 0.6722688094	-0.2718287684	-1.2947333376	 0.23324
O	 1.6567855735	 0.720644484	-1.328264034	-0.294059
H	-0.421234228	 1.9978764233	 0.9328429024	 0.114011
H	-0.4365485663	 2.1192969602	-0.8708278432	 0.119214
H	 2.250267638	 2.0411914022	 0.1913101202	 0.098701
H	 1.8518387445	-0.7483342359	 0.9652615872	 0.1126
H	 0.9274557857	 0.4257526418	 1.9719037607	 0.121347
H	-2.361564882	-1.0010997952	-1.9509311091	 0.142212
H	 1.1359816537	-1.2629883824	-1.3794380856	 0.090897
