13
gdb 127711	3.28596	1.51632	1.04439	6.701	64.68	-0.249	-0.0762	0.1728	1046.7098	0.089138	-486.068126	-486.06033	-486.059386	-486.101573	27.649	
C	-0.034312888	 1.4814869691	 0.0254042412	-0.328932
N	-0.0076494723	 0.0261891071	 0.070174762	-0.083965
N	-0.0465120271	-0.6202117802	-1.1548806019	-0.03591
N	-0.0276993031	-1.8652587342	-1.1944787706	-0.202708
C	 0.0349941855	-2.6699667751	 0.0278627978	 0.421679
O	 0.0511650188	-3.8652486901	-0.0830931955	-0.320896
N	 0.0717398674	-1.9963349543	 1.2419174894	-0.418461
C	 0.049065472	-0.7092627819	 1.2056669414	 0.546168
O	 0.0809973353	 0.0160057647	 2.3254551198	-0.389746
H	 0.8642685126	 1.8965156386	 0.4876885913	 0.159812
H	-0.0736727933	 1.7582549917	-1.0280177199	 0.17068
H	-0.9144694887	 1.8663333713	 0.5458315803	 0.159661
H	 0.1203586508	-0.6220317767	 3.0555928946	 0.322617
