19
gdb 37905	3.03746	2.11288	1.96288	0.8848	83.66	-0.2072	-0.0222	0.1851	828.3288	0.162451	-348.659595	-348.653739	-348.652795	-348.689243	26.444	
C	 0.0049506586	 1.5756817208	 0.2623423394	-0.20667
C	 1.5198114929	 1.5735517702	-0.1147430087	-0.063889
C	 2.6047412178	 0.9043163336	 0.8680329757	-0.018965
C	 2.3561147398	 0.8084369488	 2.4002952451	-0.260312
C	 1.0197325485	 0.0582330298	 2.3951969555	-0.124633
C	 0.8459634848	-0.5164455545	 1.193992193	 0.094504
C	-0.0506487816	 0.0289078973	 0.0476036479	-0.11078
C	 1.279235251	 0.166136652	-0.7970003152	-0.03468
C	 2.1118969814	-0.4576751306	 0.3399809502	-0.070244
H	-0.3227181137	 1.9710996752	 1.227953811	 0.090732
H	-0.537466419	 2.0887406167	-0.5423341019	 0.092159
H	 1.8818701951	 2.4456550137	-0.6586545057	 0.068415
H	 3.6161511802	 1.220191825	 0.5871333627	 0.053354
H	 3.2009645475	 0.3118063839	 2.9004027172	 0.103366
H	 2.2270880614	 1.7791305074	 2.8954706261	 0.103082
H	 0.2160205493	 0.3439683823	 3.0672672017	 0.092251
H	-0.9679503068	-0.4477024187	-0.2989207553	 0.068845
H	 1.3694509412	-0.0405926201	-1.860983884	 0.061548
H	 2.7566426615	-1.3336555726	 0.2450561452	 0.061915
