25
gdb 58421	1.87657	1.30117	1.19367	1.3884	88.81	-0.2504	0.0709	0.3214	1307.4586	0.225963	-389.487054	-389.475521	-389.474576	-389.523022	42.781	
C	-0.5162644302	 0.5796000343	-2.7068391873	-0.415336
C	-0.2853556155	-0.4034021237	-1.554804881	 0.075293
O	 0.6995644754	 0.0976004956	-0.6465678822	-0.443419
C	-1.5652766976	-0.802985798	-0.8218429468	 0.335323
C	-2.3030746836	 0.3492122778	-0.1572078833	-0.48514
C	-2.4220008393	-1.944081861	-1.351141825	-0.063626
C	-2.1535075342	-2.6967388161	-2.6391332157	-0.416966
C	-1.6011532242	-2.1322143922	-0.0879245229	-0.065918
C	-0.4185562202	-3.0745687671	 0.0113914732	-0.412727
H	 0.4317041761	 0.7919417154	-3.2088530571	 0.120603
H	-1.2173017891	 0.1707725036	-3.4412280344	 0.119782
H	-0.9263353511	 1.5306853481	-2.3486977482	 0.108933
H	 0.1823733427	-1.299121564	-1.9695015613	 0.07822
H	 0.3940757169	 0.9517684687	-0.3240149963	 0.276088
H	-2.6569131756	 1.091309833	-0.8816427083	 0.115035
H	-3.1789290148	-0.0166525674	 0.3866999534	 0.116843
H	-1.6685935304	 0.8650492132	 0.5743767963	 0.105555
H	-3.4875188222	-1.8038961647	-1.1774098835	 0.073655
H	-1.0916931846	-2.8728875844	-2.8240534231	 0.118719
H	-2.6440794752	-3.6765193979	-2.6178133113	 0.116101
H	-2.5502647665	-2.1522233317	-3.5035952029	 0.115999
H	-2.1820300019	-2.1065699074	 0.8321766788	 0.073762
H	 0.1083295054	-3.2072440263	-0.9361553403	 0.114387
H	 0.3114738579	-2.7047590297	 0.7385269642	 0.129431
H	-0.747932608	-4.067283438	 0.3378678352	 0.109405
