22
gdb 59307	2.63909	1.20381	0.91089	2.7381	83.91	-0.257	0.0311	0.2881	1358.0334	0.192892	-404.365838	-404.355786	-404.354842	-404.400813	37.212	
C	-0.6726336158	 1.4142399347	 0.8199332424	-0.393516
C	-0.2691084466	 0.0164930368	 0.3284084253	 0.012575
C	 0.2248767048	 0.0609142975	-1.1250103197	-0.401018
C	 0.8034738776	-0.5690555188	 1.2364052583	 0.129029
O	 0.3760313934	-0.6003261464	 2.6472433054	-0.272317
C	 0.57528967	-1.9593337755	 2.7279700881	 0.435576
N	 0.3828789283	-2.7600670143	 3.6743897173	-0.549731
C	 1.0700355633	-2.106067026	 1.3031197598	-0.156863
C	 0.3175563064	-3.0997070513	 0.4246516877	-0.413853
H	 0.1757699679	 2.1071212471	 0.7678614351	 0.112486
H	-1.4759324285	 1.8241486166	 0.1999604376	 0.112383
H	-1.0175803258	 1.3807019624	 1.8559104632	 0.136164
H	-1.1524175206	-0.632188795	 0.3832931071	 0.080262
H	 1.1134797744	 0.6966951731	-1.2156445904	 0.117235
H	 0.4825719672	-0.93151662	-1.5051770978	 0.120422
H	-0.5466809848	 0.4786377732	-1.7788464118	 0.12044
H	 1.7215281575	 0.0260464134	 1.1617256725	 0.085399
H	 0.0233542113	-2.2796523152	 4.5010856645	 0.224678
H	 2.1409738516	-2.3286150506	 1.2788657214	 0.107065
H	-0.7531617019	-2.8830062746	 0.3814207306	 0.127522
H	 0.710096886	-3.1139075687	-0.5960904129	 0.12157
H	 0.4320344444	-4.1028297885	 0.8452186963	 0.144494
