23
gdb 114198	2.59004	1.1568	0.96836	1.3337	85.85	-0.2578	0.0783	0.3361	1339.5034	0.204928	-388.26229	-388.252537	-388.251593	-388.296798	37.246	
C	-0.7287460446	 1.1672728348	-0.0616261981	-0.419561
C	-0.1361743266	-0.2359360414	-0.0922646705	-0.056678
C	 1.0288157811	-0.5943564878	-1.07919811	 0.00839
C	 1.8644684121	 0.578324844	-1.5630435503	-0.088403
O	 2.9711122765	 0.0439337937	-2.2791249685	-0.423899
C	 1.7122885039	-1.4023722204	 0.0646052036	-0.309588
C	 0.7656403632	-0.7205626319	 1.0598592398	 0.380042
C	 1.1934271931	 0.0898472262	 2.2517846135	-0.319208
C	 0.3723308076	-1.1682015504	 2.433143259	-0.337435
H	 0.0368112806	 1.9360692453	 0.0809738387	 0.116275
H	-1.2630049607	 1.3917786389	-0.9912916962	 0.114249
H	-1.449554226	 1.2656986389	 0.7583738049	 0.11254
H	-0.9493626351	-0.9576356423	-0.2387111134	 0.072011
H	 0.7298913258	-1.1830377753	-1.9509416114	 0.069386
H	 1.2576909542	 1.2362597949	-2.2057821042	 0.082286
H	 2.205469133	 1.1799351833	-0.7053059736	 0.086537
H	 3.5312797778	 0.7753796742	-2.5542055748	 0.284147
H	 1.5402785829	-2.4799974531	-0.017657246	 0.095188
H	 2.7844340708	-1.2292900367	 0.1898501456	 0.104153
H	 2.24091977	 0.0642165559	 2.5364466928	 0.10757
H	 0.7073309695	 1.0429733521	 2.4356082678	 0.107724
H	-0.6657010757	-1.0568884373	 2.7331049867	 0.10588
H	 0.8608451669	-2.0458337556	 2.8454566743	 0.108395
