18
gdb 23218	2.48107	1.58599	1.16577	1.5548	75.11	-0.2445	0.0058	0.2503	1089.6931	0.147822	-439.018926	-439.010928	-439.009984	-439.051251	31.196	
C	-0.0445452049	 1.5292067593	 0.017846457	-0.407495
C	 0.0306691099	 0.002562945	 0.0112037691	-0.07302
C	 0.9742392762	-0.5807593699	-1.077304728	 0.067151
C	 1.1917148637	-2.0517747335	-0.6601097834	-0.245212
C	 1.9476553227	-1.2988885894	 0.4645236658	-0.019782
O	 2.2977444017	-0.272696106	-0.5271516969	-0.296254
C	 0.8077680754	-0.59782746	 1.1831343669	 0.461138
N	 0.5114751835	-0.46847878	 2.4070863073	-0.28173
O	 1.424768737	-1.1523271185	 3.2371836294	-0.3983
H	 0.9622024565	 1.9550719099	 0.0062939292	 0.135726
H	-0.5906757307	 1.8970389771	-0.8573083255	 0.109279
H	-0.5573876486	 1.8829913953	 0.9160797066	 0.132243
H	-0.9748788822	-0.4282002315	-0.0569948714	 0.091305
H	 0.8335955963	-0.2573841234	-2.1084050823	 0.08534
H	 0.3285799452	-2.6703883626	-0.4015621388	 0.107333
H	 1.8814723101	-2.5718437237	-1.3256446964	 0.118091
H	 2.7804807855	-1.698237805	 1.0351368363	 0.107788
H	 1.0959356428	-0.9388715829	 4.1168860651	 0.3064
