18
gdb 68197	3.81288	1.1922	1.12704	3.2469	75.76	-0.265	0.0298	0.2948	1129.693	0.148589	-401.955236	-401.947397	-401.946453	-401.987449	30.585	
C	 0.0581122204	 1.5207488719	 0.106796633	-0.49728
C	 0.0077556391	 0.0270134903	-0.0335444507	 0.414636
C	 0.6533625301	-0.7668613474	-1.1997364718	-0.280148
C	 0.7202805338	-1.7995607752	-0.0631042998	 0.066416
O	 0.8923863458	-0.7178395667	 0.8835132883	-0.321701
C	-0.7762076801	-2.1756343051	 0.1906139296	-0.150234
C	-1.3359895549	-0.708537038	 0.1933186611	-0.273797
C	-1.3541597193	-3.0528707296	-0.8166772251	 0.264238
N	-1.7953203138	-3.7462520892	-1.6303850566	-0.332726
H	 1.0777306934	 1.8896304708	-0.030937784	 0.13379
H	-0.5872926027	 1.9930369075	-0.640792372	 0.129927
H	-0.2894698381	 1.8261181961	 1.0990370904	 0.13369
H	 0.0664710897	-0.9871271117	-2.0944167817	 0.118989
H	 1.6418266453	-0.380785899	-1.4494116664	 0.11797
H	 1.4607689849	-2.5946745921	 0.0054813877	 0.099778
H	-0.875770883	-2.6453919084	 1.1716884914	 0.131506
H	-1.7794160965	-0.447293496	 1.1557518531	 0.119804
H	-2.0661129643	-0.5281862285	-0.5981354966	 0.125142
