20
gdb 126896	2.59723	1.22172	0.95199	3.6384	82.63	-0.1877	0.0454	0.2331	1316.0524	0.172003	-399.350301	-399.340623	-399.339679	-399.386196	34.837	
C	-0.7246379529	 0.7396661727	-0.5236737475	-0.377308
C	 0.4512682724	 0.1156860263	 0.2371428041	-0.161616
N	 1.4355601016	-0.5803202656	-0.5925142307	-0.385688
C	 1.0597435434	-1.7037076249	-1.3199251233	 0.356994
C	 1.5026137153	-2.1608027792	-2.5548675487	 0.11121
C	 2.4791711359	-1.4933552392	-3.4729907216	-0.526052
C	 0.8209010065	-3.3887143181	-2.7204508978	-0.067564
N	 0.0203487112	-3.6844983639	-1.7058613696	-0.254205
N	 0.1839513236	-2.6332692349	-0.8557680739	-0.261208
H	-0.3715460137	 1.4907701199	-1.238244237	 0.117259
H	-1.2809873686	-0.0201667001	-1.0799386563	 0.138218
H	-1.4151227826	 1.2313610055	 0.1694212927	 0.118325
H	 0.9938333886	 0.8870205389	 0.7931461394	 0.114838
H	 0.0811681504	-0.5857948706	 0.9947575114	 0.109069
H	 1.9781547677	 0.0545397246	-1.1624800031	 0.238382
H	 2.2562803501	-0.4265842078	-3.6095670117	 0.110164
H	 3.5149163827	-1.5620891842	-3.1155166335	 0.124797
H	 2.4505705894	-1.952654646	-4.4652551631	 0.129496
H	 0.8867233892	-4.064681107	-3.5624178173	 0.099527
H	-0.3007439103	-2.6409570564	 0.0237300976	 0.265361
