22
gdb 110319	2.01587	1.50029	1.01542	2.0253	83.06	-0.1958	0.0727	0.2685	1273.0244	0.192578	-404.293441	-404.283608	-404.282663	-404.327705	37.095	
C	-0.0328056884	 1.3141286454	-0.2622192837	-0.368176
C	 0.4104069537	-0.151386414	-0.3456981916	-0.222222
C	 0.877705266	-0.705653152	 0.9865856381	-0.071503
C	 0.0344652743	-1.171703237	 2.1758501386	-0.095951
N	-1.1591773566	-1.9453360641	 1.8622646849	-0.057971
C	-2.3706636253	-1.3221507877	 1.3700173202	-0.328278
C	-0.3839010877	-2.8929293994	 1.0241126974	-0.251578
C	 0.9066390528	-2.1509458055	 1.411167439	 0.318136
O	 2.0442683134	-2.7989817907	 1.8600021377	-0.458706
H	 0.7772613088	 1.950823721	 0.1101876308	 0.113276
H	-0.331688737	 1.6950162312	-1.2439455032	 0.109457
H	-0.8819914891	 1.4308971616	 0.4187019331	 0.120256
H	-0.4039492765	-0.7588497609	-0.7515337965	 0.101972
H	 1.2340493322	-0.2387183688	-1.0679558742	 0.090917
H	 1.7665060895	-0.2016658395	 1.3711948654	 0.085429
H	 0.1665263609	-0.7423988018	 3.1641819378	 0.09506
H	-2.2727955388	-0.7968236986	 0.4053130542	 0.097649
H	-3.1502046549	-2.0842010191	 1.2587948479	 0.118013
H	-2.7236103009	-0.5971489018	 2.1111989682	 0.120572
H	-0.4178281468	-3.9157392546	 1.4154670092	 0.109955
H	-0.6423064201	-2.9078695157	-0.0438157565	 0.088387
H	 2.6683773404	-2.8535578582	 1.1285300033	 0.285307
