16
gdb 33951	3.27766	1.42433	1.26116	3.8538	72.57	-0.2747	0.0211	0.2958	1011.5503	0.125972	-400.741552	-400.734551	-400.733607	-400.772894	27.758	
N	 0.0865856169	-1.1606111374	 0.0131851833	-0.345255
C	 0.0649517988	-0.0034229654	 0.0292392027	 0.190352
C	 0.0297401389	 1.4264610694	 0.0642872737	 0.187239
C	 0.3051223092	 2.2437362129	-1.192630091	-0.313378
C	 1.2974084452	 2.2871308176	-0.0722477692	-0.090716
C	 1.2363632086	 3.398615402	 0.9790493923	-0.266652
C	-0.1229819006	 3.2749328636	 1.651857173	 0.042662
O	-1.2458885844	 3.4255514931	 0.7676301605	-0.24916
C	-0.8360843971	 2.1040571384	 1.1185492918	-0.041598
H	 0.5838827119	 1.6847869247	-2.0782719115	 0.137426
H	-0.3506949212	 3.0899153732	-1.3522684039	 0.152814
H	 2.2484166912	 1.7931166594	-0.232888606	 0.118185
H	 2.0200080763	 3.2440722646	 1.7285188983	 0.121486
H	 1.3859463869	 4.3940378258	 0.5478432307	 0.128974
H	-0.2746818431	 3.664244248	 2.655467275	 0.109676
H	-1.5518423574	 1.5090699399	 1.6768309601	 0.117945
