19
gdb 115609	3.41573	0.99822	0.91401	4.0915	67.48	-0.2461	0.046	0.2921	1316.248	0.157572	-497.263505	-497.253842	-497.252898	-497.298244	35.339	
O	-0.0325489743	 1.3576601346	-0.4964959174	-0.426857
C	 0.1083812778	-0.0177356577	-0.1917690196	-0.067187
C	-1.2196102152	-0.559655941	 0.3178864559	 0.046562
O	-2.2608973205	-0.337059897	-0.6729264276	-0.308405
C	-2.3461563636	-1.7524461169	-0.9670291142	-0.130451
C	-1.4434529017	-2.0858983663	 0.2498781331	 0.358067
O	-0.2831622891	-2.8361695291	 0.0024449959	-0.481421
C	-2.1873358412	-2.6511616805	 1.4506068272	-0.148286
O	-2.4152338988	-4.0277418226	 1.1619992222	-0.436982
H	-0.8082066796	 1.4166761696	-1.0687173189	 0.290234
H	 0.4405846421	-0.5982866286	-1.0636008916	 0.100101
H	 0.878792804	-0.1066868924	 0.5804507215	 0.111544
H	-1.4830635257	-0.0724561431	 1.2659250049	 0.076437
H	-3.3791597352	-2.1145804777	-0.9469974419	 0.108686
H	-1.8783387857	-2.0085199474	-1.9243729278	 0.108075
H	-0.5202547158	-3.7565247653	 0.1783074621	 0.290801
H	-1.5612419109	-2.5318039729	 2.3471981239	 0.101777
H	-3.1289251146	-2.1063179912	 1.6066598193	 0.107957
H	-2.7099238423	-4.4705924245	 1.9624916629	 0.299348
