19
gdb 58169	2.93944	1.04564	0.92206	5.3369	79.14	-0.2654	-0.0464	0.219	1341.5718	0.157257	-419.247758	-419.237296	-419.236352	-419.284026	36.448	
C	-0.0607558196	 1.5944858097	-0.0456939607	-0.401875
C	-0.0063104406	 0.0635515902	-0.0471039681	 0.029118
C	-1.3946342265	-0.5724706478	 0.1024390641	-0.392336
N	 0.6896158395	-0.4523035843	-1.2450822424	-0.11065
C	 0.2646887907	 0.0016236187	-2.5609647112	-0.364644
C	 1.671565371	-1.3724043658	-1.0532675279	 0.372079
O	 2.0400907214	-1.8114677011	 0.0204343097	-0.36431
C	 2.3376548937	-1.8597767686	-2.2811388001	 0.20432
N	 2.9107621441	-2.2942275196	-3.1861535986	-0.332852
H	 0.9361217642	 2.0263611839	-0.1734763372	 0.129963
H	-0.7132597058	 1.987023384	-0.8320693377	 0.121156
H	-0.4588931838	 1.9400905943	 0.9124064479	 0.130507
H	 0.6118796908	-0.2659429277	 0.7894844632	 0.137004
H	-2.0661950094	-0.2898622188	-0.7151935124	 0.118621
H	-1.3209609459	-1.6628037385	 0.1309724743	 0.136412
H	-1.8555061703	-0.2379856103	 1.0366270227	 0.127819
H	 0.4872296169	 1.0636189466	-2.7047840374	 0.142756
H	 0.7807263244	-0.5645710566	-3.3358661865	 0.176698
H	-0.8119914549	-0.1484288784	-2.6895327817	 0.140216
