20
gdb 115107	2.06325	1.72095	1.1442	2.5761	76.	-0.2379	0.0287	0.2667	1148.0808	0.170975	-440.290688	-440.2816	-440.280656	-440.324699	33.3	
C	-0.0077707685	 1.4139016406	-0.1222180601	-0.235966
O	-0.0278136114	 0.0300373724	 0.1422515429	-0.244826
C	-1.3043706331	-0.5773123618	 0.0466703802	 0.073465
C	-1.7285502878	-0.8287002204	-1.4072804412	-0.178484
N	-0.9895797135	-1.9074552265	-2.0548545805	-0.271392
C	-0.3822114494	-2.7339425403	-1.3167485523	 0.142578
O	-0.3432808088	-2.8179363273	 0.032805094	-0.239285
C	-1.2176267994	-1.9300703654	 0.7594164004	 0.135166
C	-0.6975099212	-1.8606682255	 2.1840577037	-0.410145
H	 1.0100881215	 1.7605990296	 0.0715630297	 0.131652
H	-0.262206513	 1.651357492	-1.164787996	 0.114061
H	-0.701093	 1.9610528509	 0.5359998677	 0.10344
H	-2.0565082164	 0.0443642673	 0.5606815932	 0.066187
H	-2.80322507	-1.0525660626	-1.4438093687	 0.109078
H	-1.5938391393	 0.0798770598	-2.0038894937	 0.111641
H	 0.2243306355	-3.5263211796	-1.7521122249	 0.121505
H	-2.2222783204	-2.3753339296	 0.7461501569	 0.086247
H	 0.2841090505	-1.3847205362	 2.2020416176	 0.146302
H	-1.383863514	-1.2772793436	 2.8057228038	 0.113416
H	-0.6175933213	-2.8661676338	 2.6048710872	 0.125362
