23
gdb 119991	2.27454	0.94967	0.79693	2.5763	82.77	-0.2385	0.0754	0.314	1568.7381	0.203584	-425.395727	-425.384712	-425.383767	-425.432488	39.087	
C	 0.0223275896	 1.1532854587	-0.1882308095	-0.233622
O	-0.1592738392	-0.0413831812	 0.5466275838	-0.237242
C	-1.3612595441	-0.684730135	 0.2494661742	 0.103915
C	-1.4002937449	-1.7337035089	-0.8455137158	-0.074074
C	-0.1921659215	-2.0154648994	-1.7135012602	-0.409555
C	-1.4511086001	-2.1371462671	 0.6241191735	-0.082104
C	-0.3031675525	-2.8320587773	 1.3286938433	-0.220061
C	-0.3333511703	-2.5910386847	 2.8415588768	-0.055004
O	 0.6858244497	-3.2999234043	 3.5306485661	-0.42217
H	 0.9745290195	 1.5856498437	 0.1284202789	 0.125764
H	 0.0523560639	 0.9675941926	-1.2707225622	 0.112173
H	-0.781961597	 1.8758229231	 0.0172399959	 0.108137
H	-2.2394491926	-0.0516603957	 0.3894156979	 0.078101
H	-2.3496315065	-1.8154199698	-1.36954815	 0.080927
H	 0.7350664053	-1.7119505528	-1.2227969777	 0.129968
H	-0.1140422729	-3.0811487288	-1.9548877301	 0.11746
H	-0.2605259848	-1.467820218	-2.6597291405	 0.112514
H	-2.4298330137	-2.4549549668	 0.9777982724	 0.083248
H	-0.3422587891	-3.912263356	 1.1431689431	 0.100787
H	 0.654571415	-2.4727007945	 0.939675963	 0.096857
H	-0.2790664413	-1.5101090605	 3.0390719784	 0.101513
H	-1.2785563666	-2.9532107816	 3.2620814981	 0.103011
H	 1.5321739141	-2.9506410355	 3.2339924908	 0.279455
