18
gdb 49305	3.25116	1.19816	0.9015	6.231	87.17	-0.1988	-0.0268	0.1719	1263.2455	0.150114	-401.985574	-401.977467	-401.976522	-402.018397	30.826	
O	-0.2006758874	-0.0343162303	 0.0044902227	-0.309192
C	-0.0562409323	 1.1693397683	-0.0652947847	 0.099059
C	 1.2218725347	 1.8816558431	-0.011652068	 0.10472
C	 1.1216495775	 3.2450242114	-0.0628867282	-0.029496
N	 2.0925342936	 4.1771372497	 0.0330114226	-0.296901
C	 3.4581992169	 3.9463972959	 0.4799966344	-0.172097
C	 4.2045166502	 2.8518544921	-0.3089291683	-0.25886
C	 3.7086533066	 1.454183041	-0.0614877226	-0.105869
C	 2.4306680939	 1.0737763572	 0.0712533823	-0.113164
H	-0.9434093476	 1.8381444219	-0.1753127618	 0.044728
H	 0.1284834299	 3.6678471403	-0.2022995719	 0.111999
H	 1.7976440917	 5.1375458542	-0.0122171873	 0.255304
H	 3.9850097455	 4.899065263	 0.3727128582	 0.110629
H	 3.4672035123	 3.6834251683	 1.5450312094	 0.128689
H	 4.1579106596	 3.1040895501	-1.3764856007	 0.122125
H	 5.2629461871	 2.9149254324	-0.0301649087	 0.10754
H	 4.4747876953	 0.6880534518	 0.0226584334	 0.088073
H	 2.2169962225	 0.0197733195	 0.2271092989	 0.112713
