21
gdb 39681	4.04811	1.05112	0.90689	0.9277	78.82	-0.2491	0.0907	0.3398	1341.818	0.183819	-424.215681	-424.207075	-424.206131	-424.250371	31.474	
C	 0.1101069827	 1.2206708869	-0.4444700916	-0.205805
C	 1.5040656209	 1.5909772289	 0.1355546432	-0.224759
C	 1.5129048701	 0.2483521374	 0.9233214327	-0.010364
C	-0.0083879098	 0.1005729712	 0.6268658471	-0.225849
C	 2.359844514	-0.8221809832	 0.272416712	 0.222769
O	 3.7422026514	-0.5035673144	 0.3796266307	-0.274777
C	 4.4557506587	-1.7083945623	 0.6384032853	-0.087709
C	 3.3619514386	-2.7929252666	 0.6462892761	-0.110642
O	 2.1844235788	-2.0567781308	 0.9294991172	-0.252437
H	-0.6550733963	 2.0003441938	-0.4349716643	 0.096045
H	 0.1734830515	 0.8212747711	-1.4604847243	 0.102209
H	 2.3222199408	 1.7464812965	-0.5715728426	 0.109287
H	 1.4622954419	 2.4523538789	 0.8064854348	 0.100766
H	 1.8029840998	 0.3026443947	 1.9753028528	 0.073601
H	-0.617932878	 0.4020952347	 1.4821147444	 0.101041
H	-0.3469028119	-0.8838651993	 0.2947634791	 0.106978
H	 2.1048994952	-0.9355388812	-0.8005204216	 0.053513
H	 5.2105886788	-1.8815286782	-0.1377216561	 0.103105
H	 4.9619663457	-1.6266566802	 1.6079257827	 0.107615
H	 3.2882533951	-3.2894945212	-0.3334690815	 0.097659
H	 3.4952316721	-3.5522588568	 1.4196443239	 0.117753
