18
gdb 35815	3.07546	1.42127	1.12475	4.8791	75.85	-0.2328	0.0404	0.2731	1088.0265	0.151502	-398.119937	-398.112358	-398.111414	-398.152175	29.37	
N	-0.3614672062	-1.0036043386	-0.7438143442	-0.332106
C	-0.1947529283	 0.0715763512	-0.3527187389	 0.277168
C	 0.0016980184	 1.4282288662	 0.1360371474	-0.151511
C	-0.3143116804	 1.6244962019	 1.6522677139	-0.194309
N	 0.3752341978	 2.8593913435	 2.0418488443	-0.287398
C	 1.5909733972	 2.9456940993	 1.2374237304	-0.020849
C	 2.7847745777	 2.0781273036	 1.7210630414	-0.160482
N	 2.4170479101	 1.0321351972	 0.738058724	-0.304379
C	 1.4630997135	 1.9223643839	 0.0542254084	-0.020512
H	-0.6304607218	 2.1042006679	-0.4541095698	 0.112142
H	-1.3834955591	 1.68837459	 1.8619808909	 0.118568
H	 0.0953936919	 0.7761490814	 2.2070831803	 0.144355
H	-0.2171445411	 3.6569847444	 1.8395048083	 0.223666
H	 1.829455347	 3.9835569758	 1.0062824545	 0.081489
H	 3.754420517	 2.5599931932	 1.5407477584	 0.096579
H	 2.7384142861	 1.7500861394	 2.7647035602	 0.113502
H	 3.1644086709	 0.657284333	 0.1688331	 0.228203
H	 1.7442499294	 2.2586415965	-0.9483013193	 0.075874
