22
gdb 118268	1.96718	0.97374	0.73609	3.2232	83.2	-0.2812	0.0127	0.2939	1639.9356	0.191623	-404.363371	-404.352373	-404.351429	-404.400926	38.514	
C	 0.2827625417	 1.4984274475	 0.2036750428	-0.382812
C	 0.4745531317	-0.0196585416	 0.2456574716	-0.171751
C	 0.5658874859	-0.6444388295	-1.1503481418	-0.171918
C	 0.7604415107	-2.1597327824	-1.1399456928	 0.114806
C	 0.7352846243	-2.7630809498	-2.5440702873	-0.403975
O	 2.0306683111	-2.4022402021	-0.5032815056	-0.242734
C	 2.2046395792	-3.6812976199	 0.0393099489	-0.194252
C	 1.3478253269	-3.9325444743	 1.2182241845	 0.252637
N	 0.6706744702	-4.1232110235	 2.13484869	-0.306829
H	 1.1155347153	 1.9892702687	-0.3125181029	 0.113516
H	-0.6381718359	 1.770058605	-0.3248778483	 0.111335
H	 0.223031784	 1.9190634946	 1.2120988557	 0.114728
H	 1.3833869959	-0.2662559965	 0.803908389	 0.113004
H	-0.3569310378	-0.4810073118	 0.7943151863	 0.100658
H	-0.3466280308	-0.4231290303	-1.7184772513	 0.095566
H	 1.3979298297	-0.1943210148	-1.7081740748	 0.102178
H	-0.0309658429	-2.6159841257	-0.5256898662	 0.091399
H	 1.5137549585	-2.3109920638	-3.1662574109	 0.127479
H	 0.8940830339	-3.845815363	-2.5290219034	 0.114692
H	-0.2353082032	-2.5828294158	-3.0161349761	 0.124182
H	 2.0208771848	-4.4846338163	-0.6892399319	 0.138494
H	 3.2515240467	-3.7559430045	 0.3500456348	 0.159597
