20
gdb 115779	2.71727	0.95664	0.80251	4.1113	77.4	-0.25	0.0285	0.2785	1459.195	0.170807	-440.292258	-440.28262	-440.281676	-440.327925	34.566	
O	-0.0234846557	 1.3117901171	-0.1538619655	-0.418775
C	 0.028992118	-0.0999522384	-0.2896296541	-0.086099
C	-1.3269185313	-0.649688136	 0.1198748827	-0.00646
C	-2.4656863094	-0.3261388228	-0.8898629738	-0.220824
C	-2.3197767002	-1.7534508017	-1.487251636	-0.254507
C	-1.5471708979	-2.1636603184	-0.2077172943	 0.048545
N	-0.4198419113	-3.0576052442	-0.3401887941	-0.288593
C	-0.185874316	-4.1064666748	 0.497672306	 0.150206
O	-0.8611192656	-4.3999518151	 1.4603766631	-0.319376
H	 0.8413173775	 1.6694780684	-0.3749047256	 0.287213
H	 0.2602736868	-0.3839502557	-1.331769878	 0.067325
H	 0.8127424759	-0.5371243447	 0.3483381863	 0.092547
H	-1.513499138	-0.3661231061	 1.1589284764	 0.084333
H	-3.4282139279	-0.1810859007	-0.3942665562	 0.107737
H	-2.2865794968	 0.5190141456	-1.5563407207	 0.112855
H	-3.2272963038	-2.3139858196	-1.7219941635	 0.108232
H	-1.6737894849	-1.7627221992	-2.371574018	 0.094558
H	-2.2047743615	-2.6171156086	 0.534737476	 0.125733
H	 0.2074484592	-2.9339637351	-1.1195416057	 0.243907
H	 0.713301563	-4.67926429	 0.1932864748	 0.071442
