23
gdb 78109	2.16974	1.5948	1.12865	1.6158	86.13	-0.2367	0.0729	0.3096	1207.7586	0.203756	-388.271429	-388.261536	-388.260592	-388.304982	38.796	
C	-0.0451622261	 1.5037825297	 0.0773606954	-0.499809
C	-0.0142306239	 0.0013592023	 0.0385773301	 0.290972
C	-1.2630016463	-0.8925110065	-0.0505974176	-0.337183
C	-0.6580928253	-1.8582571325	 1.028320033	 0.348196
C	-1.3632855497	-1.6746119377	 2.3762334732	-0.433305
C	-0.5640489666	-3.3437457728	 0.6770284428	-0.454396
C	 0.6429611249	-1.0282326012	 1.0020424492	-0.167265
C	 1.1916035893	-0.7919337501	-0.3671170587	 0.03722
O	 1.18212772	-1.7968165521	-1.3472535082	-0.417668
H	 0.9451257227	 1.9174468986	 0.2958203004	 0.116206
H	-0.3734208966	 1.9208526754	-0.8835061987	 0.114873
H	-0.7359193236	 1.8718312062	 0.8449138629	 0.117979
H	-2.1759487986	-0.3961691283	 0.2887577472	 0.092895
H	-1.4459880426	-1.3339697949	-1.0348464404	 0.086271
H	-2.3763788429	-2.0914396272	 2.3442623346	 0.108476
H	-0.816391535	-2.1866984959	 3.1767413003	 0.108541
H	-1.4400291808	-0.6166868427	 2.6493022124	 0.107518
H	-0.0756849602	-3.4927853501	-0.2859905835	 0.13966
H	 0.0089997102	-3.8852656147	 1.439238883	 0.103455
H	-1.5639027403	-3.7934576903	 0.639067272	 0.099661
H	 1.256243324	-0.8496045596	 1.8809804752	 0.073161
H	 2.1150241649	-0.2083067177	-0.3550915988	 0.080444
H	 1.0764616425	-1.3709350378	-2.2046366959	 0.284098
