8
gdb 23859	3.39755	2.48443	1.43506	0.8374	46.19	-0.2891	-0.1306	0.1584	720.7683	0.033974	-490.580575	-490.574503	-490.573559	-490.611321	21.297	
F	 0.0335072353	 0.0477233147	 0.0035874575	-0.009046
C	-0.0134875258	 1.3570360341	 0.0107196212	 0.276484
N	-1.1749231064	 1.8953134062	 0.0280976028	-0.080292
O	-1.2302698822	 3.2520983794	 0.0356045986	-0.220686
N	-0.0305266561	 4.0629456256	 0.0246324525	 0.100819
N	 1.0666902319	 3.5189910166	 0.0080318745	-0.133721
C	 1.2499319573	 2.087301904	-0.0016343707	 0.336203
O	 2.3495686659	 1.6105585395	-0.0180803363	-0.269761
