13
gdb 132176	3.23956	1.32334	0.93954	6.707	64.82	-0.2131	-0.0151	0.198	1106.7957	0.089166	-497.893987	-497.886474	-497.88553	-497.925883	28.62	
O	-0.0512968268	 1.3550560485	 0.0108092404	-0.40902
C	 0.0349134862	 0.0034159078	 0.0029941056	 0.211736
C	 1.2036750333	-0.6815718822	-0.0079866914	-0.124891
N	 1.2142050072	-2.0677016751	-0.015553434	-0.390679
C	 0.0476451122	-2.7531293678	-0.0119726262	 0.41963
F	 0.21269644	-4.0701007127	-0.0201147073	-0.059814
C	-1.1610367129	-2.1499815511	-0.0011827572	-0.44302
C	-1.2759578189	-0.6977485008	 0.0074105844	 0.35731
O	-2.3360706566	-0.088960782	 0.0172302671	-0.385404
H	 0.8320671869	 1.7398667707	 0.0073352213	 0.296869
H	 2.1778847773	-0.2084711961	-0.0115158961	 0.123221
H	 2.0798971359	-2.5807012691	-0.023620134	 0.275992
H	-2.0636059737	-2.7452412401	 0.0012047274	 0.128071
