19
gdb 90487	2.7646	1.47453	1.24186	2.724	75.38	-0.2274	0.0835	0.3109	1084.551	0.158309	-422.949792	-422.941467	-422.940523	-422.983199	31.407	
C	-0.2727059825	 1.7532105676	 0.5948753691	-0.419803
C	-0.0298197315	 0.2593473687	 0.5582848484	 0.156412
O	 0.8497533713	-0.1897653018	-0.5184644165	-0.291456
C	 1.5756446495	-1.0057497302	 0.3931116342	 0.068019
C	 2.3114213453	-0.2287440644	 1.4402335287	-0.054166
C	 3.0429610609	 1.072588613	 1.3023000065	 0.045279
C	 4.1442071839	 1.2481852532	 0.3417157355	-0.174264
O	 2.8788463693	 1.8739921206	 0.1365076417	-0.215582
C	 0.8191944061	-0.4773890892	 1.601360749	-0.203094
H	 0.6568993678	 2.3170263917	 0.6681672686	 0.155082
H	-0.7894367013	 2.0663476082	-0.3183817443	 0.124807
H	-0.91665954	 2.0004856901	 1.4464085618	 0.1102
H	-0.9871179287	-0.269828369	 0.4512443242	 0.082452
H	 1.830570028	-2.0109089706	 0.0736289269	 0.101157
H	 2.8556103932	-0.9025249358	 2.1046723025	 0.098763
H	 3.0932642817	 1.6543394368	 2.2260705894	 0.091026
H	 4.9691260864	 1.9196080316	 0.5767117126	 0.111941
H	 4.3763538424	 0.4415601753	-0.351745087	 0.118653
H	 0.4174674081	-1.0013117559	 2.4588999687	 0.094574
