15
gdb 17052	5.30587	1.29981	1.24096	1.5954	62.47	-0.2548	-0.004	0.2508	973.6521	0.119275	-399.728159	-399.720947	-399.720003	-399.759921	26.647	
O	 0.0541421379	 1.4198475983	-0.124451318	-0.417032
C	 0.0517811748	 0.0270747495	 0.1601488405	-0.117309
C	-1.358586539	-0.5465923848	 0.1118408757	 0.028375
C	-2.0057382414	-0.8286588827	-1.2843456703	-0.177123
N	-1.0357732097	-2.002692073	-1.4014799222	-0.316205
C	-1.5321453238	-2.0965104842	 0.0433710028	-0.180361
C	-2.9345427136	-1.8280117085	-0.55407878	 0.444974
O	-4.0389155127	-2.2710392355	-0.5833313084	-0.320968
H	-0.0975863046	 1.5260615861	-1.0686336381	 0.285095
H	 0.7180298168	-0.5299734714	-0.5063299618	 0.120349
H	 0.4379852586	-0.0669067774	 1.1808419018	 0.113261
H	-2.0119572702	-0.0319165096	 0.8204427515	 0.097888
H	-2.1918622588	-0.1466837544	-2.112610159	 0.099721
H	-1.4330127838	-2.7512099963	-1.9758010239	 0.234411
H	-1.1697959007	-2.8598802959	 0.7293467695	 0.104923
