17
gdb 37401	2.89909	2.22532	1.79453	1.8747	69.07	-0.2252	0.0592	0.2844	811.5429	0.140778	-417.921466	-417.915789	-417.914845	-417.951141	25.039	
N	-0.0285134501	 1.4695636723	 0.0398437017	-0.359307
C	 1.2872812007	 0.7828484593	-0.0382780823	-0.025324
C	 0.0280914602	 0.0001684062	-0.0312953912	-0.020608
C	-0.1427142565	-0.7169335568	-1.358663224	 0.042571
O	 1.0338450703	-1.5985021964	-1.4039720026	-0.300245
C	 1.7016366721	-0.5984083355	-2.1679900676	 0.120751
C	 1.9300351951	 0.813054317	-1.4291399678	-0.07338
N	 0.9955937082	 1.4014074022	-2.4260024512	-0.307199
C	 0.411684089	 0.0767590184	-2.6268909116	-0.05178
H	-0.2110537047	 1.7470981667	 1.0003692588	 0.237335
H	 1.9294882171	 0.7918263015	 0.8358462236	 0.090134
H	-0.2507452251	-0.5726845865	 0.8489561001	 0.09672
H	-1.0697732957	-1.2824257677	-1.4720937703	 0.074913
H	 2.511888435	-0.9732032386	-2.7920749961	 0.091258
H	 2.9355382487	 1.239577935	-1.4307416073	 0.067775
H	 0.3685177203	 2.0852878228	-2.0093327407	 0.234251
H	-0.1156395646	-0.1167607597	-3.5625780715	 0.082136
