20
gdb 47103	2.55903	1.68756	1.16995	3.6871	77.98	-0.2351	0.0377	0.2728	1085.4334	0.175252	-403.218932	-403.211287	-403.210343	-403.251494	29.997	
O	-0.1132359799	-0.050002038	 0.0466757597	-0.388919
C	-0.0725317188	 1.1620338875	 0.0541420372	 0.399151
N	-1.1542526485	 2.0003746442	 0.0359689391	-0.303177
C	-0.8494779916	 3.4192759993	 0.0126367391	-0.196157
C	 0.6366322442	 3.4549952781	 0.4321605136	-0.001961
C	 0.8802554896	 3.5881574378	 1.9481003575	-0.214956
C	 2.2260674082	 2.8795317837	 2.1668996268	-0.200627
C	 2.1700518121	 1.6485951595	 1.2321889046	-0.223476
C	 1.1832088561	 2.0433224603	 0.1018335275	-0.122769
H	-2.0845233645	 1.6265176326	-0.0642137516	 0.248966
H	-0.9988313718	 3.8492435803	-0.987661718	 0.103614
H	-1.48657073	 3.9752375962	 0.7104533063	 0.109834
H	 1.1725605805	 4.2431187852	-0.1031387556	 0.074427
H	 0.8733403988	 4.6272678865	 2.2901409038	 0.094976
H	 0.0873848282	 3.0575910927	 2.491356625	 0.1053
H	 3.043910909	 3.5445452882	 1.8637517666	 0.097243
H	 2.4023708416	 2.6105689523	 3.2120866488	 0.098852
H	 3.1558191886	 1.385542289	 0.8418043141	 0.10105
H	 1.7922879386	 0.7636530359	 1.7528193238	 0.123533
H	 1.6511306696	 1.9900356389	-0.8860737781	 0.095096
