15
gdb 132775	2.38594	1.82348	1.03718	4.0406	72.32	-0.2101	0.001	0.2111	1060.5474	0.115057	-458.159277	-458.151686	-458.150741	-458.190994	29.811	
N	-0.0738170187	 1.3922712984	 0.1466512444	-0.597942
C	-0.0049940937	 0.009710785	 0.0415874675	 0.293375
C	-1.2033854392	-0.7168173829	-0.047001606	 0.07212
N	-2.4415138547	-0.0436397457	-0.0969919446	-0.619476
C	-1.0825862204	-2.1009103074	-0.1374467083	 0.294956
F	-2.2271027727	-2.7961295757	-0.249115764	-0.093102
N	 0.0288104253	-2.7937022404	-0.1347704325	-0.342965
C	 1.1629893522	-2.0884428627	-0.0211466026	-0.011106
C	 1.198964597	-0.7064134743	 0.0665151363	-0.20843
H	 0.7888828302	 1.8767016123	-0.0549195586	 0.252016
H	-0.8611203538	 1.7926245958	-0.3491169767	 0.258894
H	-2.5727343633	 0.5720028627	 0.6998084874	 0.251101
H	-3.2115738042	-0.6990855255	-0.1419375776	 0.25485
H	 2.0842676261	-2.6634084951	-0.0065737515	 0.10917
H	 2.1464522499	-0.1831770644	 0.1409347267	 0.086538
