18
gdb 127722	2.15129	1.65564	0.99917	3.2824	75.55	-0.2438	-0.0047	0.2391	1188.6258	0.147409	-435.271013	-435.261483	-435.260539	-435.306181	33.122	
C	-0.1255676886	 1.4167299908	 0.0998310606	-0.340748
N	-0.0612190695	-0.0320060115	 0.1367950681	 0.013697
N	-0.0856493675	-0.7407925177	-1.0038556661	-0.154804
N	-0.0062008037	-2.0032976832	-0.6872919632	-0.255111
C	 0.0656221379	-2.1241102259	 0.6688722652	 0.216566
C	 0.1768586389	-3.4590602259	 1.3314174208	-0.491924
C	 0.0311549252	-0.855666772	 1.2179969684	 0.202131
C	 0.0335532903	-0.3624213436	 2.6274161938	-0.190568
O	-1.1350940617	 0.3855207028	 2.9613211683	-0.407027
H	 0.8571588187	 1.8547322272	 0.3031148987	 0.14316
H	-0.4456444502	 1.7042756914	-0.9013474977	 0.164502
H	-0.8364252961	 1.7676298631	 0.8492569438	 0.163734
H	 1.2186722444	-3.7934289353	 1.395818958	 0.138904
H	-0.227643109	-3.443657749	 2.3477266075	 0.118855
H	-0.3710278153	-4.2069709729	 0.7529830328	 0.148285
H	 0.1707576383	-1.2185847663	 3.301655421	 0.113992
H	 0.8692271027	 0.3230875387	 2.8070564588	 0.127725
H	-1.8972784947	-0.1801240506	 2.7952006511	 0.288632
