13
gdb 24542	3.97556	1.79533	1.2368	4.2927	74.91	-0.2515	-0.0846	0.1669	907.8688	0.09379	-415.663051	-415.657366	-415.656422	-415.693031	22.708	
O	-0.0588005674	 1.3184823078	 0.0098008282	-0.174744
C	 1.0950457477	 2.0130435831	 0.0026468205	 0.038242
C	 2.3211285398	 1.4232201052	-0.0125332174	-0.15057
C	 2.4510483906	 0.0058123523	-0.0218731476	-0.206499
C	 1.2923922037	-0.7194677907	-0.01485137	 0.245406
N	 1.0010016531	-2.0596610749	-0.0196955	-0.342427
C	-0.324442508	-2.0598080485	-0.0069185719	 0.026263
N	-0.9900191702	-0.8422551437	 0.0064127716	-0.357712
C	 0.022280525	-0.0175841864	 0.0013958956	 0.37604
H	 0.9162619764	 3.0790476605	 0.0104511128	 0.155294
H	 3.1943866783	 2.0628745659	-0.0173012523	 0.129124
H	 3.4274835714	-0.4657582586	-0.0339674543	 0.137475
H	-0.8957354604	-2.9803086021	-0.0066962452	 0.124109
