15
gdb 41042	3.6733	1.99042	1.62929	0.7973	67.75	-0.2169	0.0599	0.2768	817.5742	0.113031	-420.463357	-420.457351	-420.456406	-420.493484	25.02	
C	 0.0830146746	 1.3665025585	-0.1378944275	-0.007077
O	 1.4401867023	 1.8201434432	 0.0250264271	-0.298447
C	 2.0111713897	 0.8603318307	 0.8417127926	 0.374779
C	 3.2303331286	-0.0141019878	 0.9976427524	-0.188084
C	 2.4768551423	 0.5554709452	 2.2505379463	-0.200127
C	 1.5327664616	-0.7016562735	 2.2524595517	-0.200127
C	 2.2879770323	-1.2689221431	 0.9995608123	-0.188084
C	 1.1080983685	-0.3421798203	 0.8435509512	 0.374779
O	 0.0259597072	-0.0630093939	 0.0279050801	-0.298447
H	-0.5548967748	 1.8467204478	 0.6166181881	 0.113983
H	-0.2445275343	 1.6109359376	-1.1500206153	 0.132676
H	 4.2701339163	 0.1316935766	 0.733746222	 0.096743
H	 2.8954759676	 1.1698827772	 3.0374271198	 0.095343
H	 1.060575798	-1.2734292644	 3.0411619609	 0.095343
H	 2.4374567948	-2.3086581809	 0.7374765083	 0.096743
