20
gdb 116561	4.04434	0.90136	0.7734	3.0851	88.03	-0.2311	-0.026	0.2051	1539.9426	0.170196	-403.181469	-403.172173	-403.171229	-403.216886	33.969	
C	 0.2425050896	 1.4911079948	-0.3141959221	-0.374013
C	-0.452154643	 0.3431700034	 0.4123519943	-0.116111
N	 0.3215188414	-0.0654540073	 1.5796803528	-0.349964
C	-0.1627284064	-0.9509391678	 2.3397974111	 0.431391
O	-1.3797137375	-1.5708278189	 2.1534442209	-0.267249
C	-1.6152849347	-2.5155674255	 3.2127721098	 0.065443
C	-1.861322076	-3.9035917965	 2.6250669343	-0.391832
C	-0.3899210931	-2.4030040055	 4.0807030758	-0.101446
C	 0.4403971556	-1.5010478784	 3.5583798884	-0.169696
H	 1.2433052283	 1.191702713	-0.6397242398	 0.117563
H	-0.3306733434	 1.8001313937	-1.1944199234	 0.101048
H	 0.3521982169	 2.3556028018	 0.347653575	 0.116944
H	-1.4684203943	 0.6415693085	 0.7092295435	 0.101412
H	-0.5815659837	-0.510415877	-0.2697914731	 0.100932
H	-2.514002143	-2.1866429328	 3.7554087264	 0.102947
H	-0.9793388542	-4.2486108955	 2.0785829234	 0.131115
H	-2.0818312622	-4.6192581172	 3.4234636879	 0.120306
H	-2.712499691	-3.8774207976	 1.9397778899	 0.134413
H	-0.2510728253	-2.9911550594	 4.9782067531	 0.119496
H	 1.4063686162	-1.1796503756	 3.9184035518	 0.127299
