20
gdb 31954	2.92436	1.09036	0.85209	1.2458	85.53	-0.1723	0.0409	0.2132	1421.7392	0.17099	-403.180686	-403.171128	-403.170184	-403.215831	34.649	
C	-0.2510346171	 1.5583536266	-0.2299865171	-0.368307
C	 0.0650891088	 0.0611062949	-0.0642429911	-0.293692
C	 0.8750414399	-0.5075974956	-1.1749372289	 0.355128
C	 2.1075393035	-1.0655010487	-1.2670086959	-0.260123
C	 2.3073580709	-1.4444154011	-2.6395357938	-0.291427
C	 1.1705324997	-1.0677244669	-3.2923482104	 0.403225
N	 0.7931676434	-1.0749145599	-4.624684086	-0.387042
C	-0.5983929897	-1.3785287421	-4.9510874684	-0.329635
O	 0.2901517422	-0.5010681509	-2.4290979847	-0.216576
H	 0.669507264	 2.1488761418	-0.2650401917	 0.119535
H	-0.7989368106	 1.7369344053	-1.1594297991	 0.12754
H	-0.8623648125	 1.922238147	 0.6018361508	 0.107591
H	 0.6183702727	-0.1043590826	 0.8661750012	 0.110235
H	-0.8779140014	-0.4948738193	 0.032612041	 0.107898
H	 2.7979737652	-1.2070875346	-0.4493724172	 0.099311
H	 3.1675386737	-1.9299145183	-3.0719608332	 0.090273
H	 1.4520177605	-1.5996772686	-5.1822134334	 0.240616
H	-0.9155223364	-2.3850013178	-4.6374256602	 0.112239
H	-1.249643038	-0.6498371746	-4.4652494661	 0.150169
H	-0.7317157789	-1.2879270347	-6.0316648458	 0.12304
