14
gdb 130142	3.41872	1.29242	0.94094	3.297	74.34	-0.2095	-0.0285	0.181	1149.1454	0.103412	-429.078436	-429.069899	-429.068954	-429.11144	31.033	
N	-0.0280325959	 1.3796624235	 0.1131350677	-0.604596
C	 0.0298621896	-0.0144211304	 0.0259580162	 0.335246
N	-1.048248313	-0.7917747318	 0.0655015865	-0.27272
N	-0.5805966032	-2.0477314557	 0.0416611732	-0.311202
C	 0.7911448189	-2.0950361639	-0.0308992511	 0.252361
C	 1.5330732359	-3.290603612	-0.0594880719	 0.206107
N	 2.1632390705	-4.2646447663	-0.0792275088	-0.353155
C	 1.2257576972	-0.7745142768	-0.0344453373	 0.06056
N	 2.5115328437	-0.2548361968	-0.1342979368	-0.628049
H	 0.4690153393	 1.8320299885	-0.6467830451	 0.253497
H	-0.9882890808	 1.7023566665	 0.1282775169	 0.256133
H	-1.2201452709	-2.8223881128	 0.039118616	 0.285594
H	 3.2423932355	-0.9344837823	 0.0317159507	 0.261526
H	 2.6450142031	 0.5598677203	 0.4533262038	 0.258698
