22
gdb 111060	2.40047	1.33027	1.01811	1.7555	82.92	-0.2389	0.081	0.32	1282.5891	0.193823	-404.265604	-404.256224	-404.255279	-404.300205	34.989	
C	 0.1647464082	 1.6363600817	 0.012676805	-0.37271
C	-0.244400302	 0.1625583496	-0.1138984347	-0.244086
C	 0.4942848937	-0.532859962	-1.2462119343	 0.020261
N	 2.0354656156	-0.6494657479	-1.1500831681	-0.153844
C	 1.8098098333	-1.8555122001	-0.2254768658	-0.252944
C	 0.7630220787	-2.070946921	-1.3535447257	 0.366832
C	 1.9017138617	-1.6675490487	-2.2954502727	-0.221522
O	-0.0987696702	-3.1221859211	-1.5856614873	-0.281172
C	-1.0211597369	-3.3705747704	-0.5401087234	-0.264653
H	 1.2334722007	 1.7231471531	 0.226741416	 0.138943
H	-0.0310116571	 2.180682237	-0.9175230361	 0.115409
H	-0.3910128003	 2.132081351	 0.8142427157	 0.109159
H	-0.0954547357	-0.3436481999	 0.8448174834	 0.098122
H	-1.318953747	 0.0961077931	-0.3282312541	 0.102135
H	 0.2152680042	-0.0641852197	-2.1978715528	 0.070349
H	 2.664182529	-2.536277297	-0.1945459378	 0.10278
H	 1.4845285162	-1.5926308393	 0.7806201658	 0.10243
H	 1.6425327611	-1.2155963464	-3.2560282873	 0.102868
H	 2.7594401791	-2.3389042583	-2.3781999375	 0.102129
H	-0.5098122204	-3.581371102	 0.4098018688	 0.1124
H	-1.7049843213	-2.524297231	-0.3887830572	 0.116247
H	-1.6038368308	-4.2474795808	-0.8296545601	 0.130869
