21
gdb 103066	2.03805	1.38262	1.13049	2.2826	74.86	-0.231	0.0457	0.2767	1215.0242	0.179121	-461.34032	-461.329576	-461.328632	-461.375388	39.945	
C	-0.0074665638	 1.4658796156	 0.3827290208	-0.439022
C	 0.0192377115	-0.0288946498	 0.1352558202	 0.19097
C	-1.3024037453	-0.6058343888	-0.33966418	-0.464534
C	 1.2929311962	-0.6431984575	-0.4436577875	 0.030575
O	 2.4092038403	 0.1378081269	-0.7329329546	-0.438241
C	 0.9557026198	-0.8897974443	 0.9989902305	 0.284457
O	 1.831979153	-0.2082608062	 1.8641895492	-0.477219
C	 0.5832001812	-2.2388297867	 1.5625285552	-0.155768
O	 0.052105705	-2.0874875998	 2.8828871049	-0.422196
H	 0.9599443273	 1.8396490866	 0.7160756429	 0.129496
H	-0.2782959047	 1.997159426	-0.5363675265	 0.116843
H	-0.751935079	 1.7222449051	 1.1460238529	 0.101981
H	-1.6563009399	-0.0600881211	-1.222135146	 0.124986
H	-1.2252615447	-1.6595135925	-0.6241735776	 0.115737
H	-2.083153017	-0.5233036367	 0.4277200658	 0.104744
H	 1.1661557568	-1.460863536	-1.1518948652	 0.087541
H	 2.8747355435	 0.278447381	 0.101797952	 0.303389
H	 1.5052216898	-0.3783099594	 2.7574147498	 0.292939
H	-0.1080559167	-2.7815864263	 0.9081380972	 0.100295
H	 1.4853351568	-2.8475424152	 1.683613937	 0.122937
H	-0.8129988602	-1.6711202108	 2.8008822589	 0.290092
