18
gdb 6565	3.08967	1.98908	1.52458	1.3698	68.21	-0.2568	0.0739	0.3307	890.4348	0.15256	-384.896263	-384.88814	-384.887196	-384.927979	31.575	
C	-0.0019470351	 1.4726213944	 0.0333458201	-0.512522
C	 0.0427465455	-0.0297290378	 0.0246458717	 0.309487
C	 0.6168156786	-0.9614228321	-1.0887922953	-0.333573
C	 0.0762689523	-1.9079784016	 0.0234949526	 0.347968
O	-0.0087817807	-3.2890699325	 0.0302259598	-0.477408
C	 0.7386609346	-0.9627373297	 1.0708030997	-0.332648
C	-1.1734361227	-0.9979445459	 0.0699107576	 0.085341
O	-1.9534927914	-0.9424666352	 1.2368342957	-0.450902
H	 1.0068725352	 1.898667326	 0.0196475013	 0.117126
H	-0.5412633126	 1.8559622018	-0.8396766229	 0.118144
H	-0.5114697379	 1.8379736217	 0.9308498691	 0.132178
H	 0.0918045742	-0.9692584698	-2.0487329044	 0.090069
H	 1.7015887559	-0.9327052294	-1.2195670414	 0.087617
H	 0.8816954384	-3.6529083214	 0.077135918	 0.283455
H	 1.8325440017	-0.9365449997	 1.0808872951	 0.077676
H	 0.3127098567	-0.9686468947	 2.0734235273	 0.108429
H	-1.7987812371	-1.0122902329	-0.8343190589	 0.059292
H	-2.4038841556	-1.7881997311	 1.3311414748	 0.29027
