17
gdb 46292	3.23655	1.3007	1.22554	3.9937	72.48	-0.2556	0.0092	0.2648	1069.8393	0.137332	-421.864118	-421.856613	-421.855669	-421.896652	28.386	
O	-0.5154252528	 0.1868325299	-0.1302065282	-0.335702
C	-0.217140799	 1.31974571	 0.0749984714	 0.426306
O	-1.0088830481	 2.3235445918	 0.5714514911	-0.246863
C	 0.0902480522	 3.2903055401	 0.4949187047	-0.123011
C	 1.0287069229	 2.198879123	-0.0680036128	 0.126157
C	 2.2582006775	 1.7998829417	 0.7897994615	-0.334356
C	 3.4330010532	 2.2008722281	-0.0685814187	-0.062178
C	 3.0643361989	 2.5220513409	-1.3059086478	-0.062178
C	 1.5738760343	 2.3960635333	-1.5069576795	-0.334356
H	-0.164406992	 4.1076944687	-0.1835237173	 0.122518
H	 0.333734421	 3.6737038585	 1.4883865267	 0.122518
H	 2.2480608267	 2.2889261401	 1.7707706073	 0.112891
H	 2.2621133245	 0.7182879808	 0.9813525405	 0.136094
H	 4.4520357695	 2.1785684813	 0.30018762	 0.101588
H	 3.7338220536	 2.8042722345	-2.1103091443	 0.101588
H	 1.333749728	 1.5270735377	-2.1344537414	 0.136094
H	 1.1251104794	 3.2672362396	-1.9981176632	 0.112891
