21
gdb 82182	2.78304	1.56543	1.27146	1.8345	81.12	-0.2484	0.0828	0.3312	1093.2614	0.182857	-387.076504	-387.068191	-387.067247	-387.108768	33.286	
C	 0.0292870904	 1.5927485885	-0.044791105	-0.391806
C	 0.0292613693	 0.0610682441	 0.0195670323	-0.026972
C	 0.6742801989	-0.607241534	-1.1930732081	 0.031689
O	 2.0802511444	-0.3557462165	-1.3413565001	-0.259585
C	 1.6659471662	-1.594664535	-0.7439659364	-0.030767
C	 1.7137495052	-1.6295186256	 0.7753009721	 0.327936
C	 1.8452537314	-2.9770467171	 1.4431049684	-0.495434
C	 2.2434885161	-0.3658986253	 1.4126372856	-0.328688
C	 0.7532564628	-0.5449192129	 1.2330485878	-0.102038
H	 1.0499710304	 1.9745702985	-0.1327782313	 0.132225
H	-0.5410970736	 1.9527656724	-0.9077441909	 0.110364
H	-0.4190858288	 2.0222916441	 0.8563797088	 0.113091
H	-1.012179856	-0.2886736203	 0.0501241086	 0.07446
H	 0.1238420197	-0.6823003977	-2.1294673918	 0.089557
H	 1.9232646972	-2.4880937439	-1.3081769869	 0.08876
H	 2.8231239812	-3.4304609971	 1.2415806531	 0.120369
H	 1.7408910652	-2.8862280536	 2.5285003583	 0.117912
H	 1.0764259946	-3.6775393613	 1.0952194411	 0.115631
H	 2.6215735029	-0.4491054999	 2.4268992335	 0.101271
H	 2.7750492993	 0.3336865404	 0.7807323367	 0.132814
H	 0.1649200831	-0.6874162278	 2.134472204	 0.07921
