21
gdb 122910	4.8216	0.55193	0.51166	0.5198	83.	-0.2511	0.0308	0.2819	2157.5275	0.178522	-424.180454	-424.169221	-424.168276	-424.217974	39.174	
C	 0.0288390141	 1.5303881843	-0.0478676594	-0.384726
C	-0.0260657472	 0.0120540468	-0.0438027286	-0.028925
O	 0.6970366383	-0.4685173029	-1.1583577727	-0.247144
C	 0.7066542982	-1.8757318812	-1.2503541192	-0.05747
C	 1.4782389266	-2.2644340981	-2.5053043222	-0.209452
C	 1.5559952297	-3.7898900663	-2.6915103834	-0.064227
O	 0.2623402551	-4.3914503925	-2.7448408079	-0.417121
C	 2.3597753686	-4.138865141	-3.8666292357	 0.294655
C	 2.984981678	-4.4037297171	-4.8586661978	-0.43394
H	 1.0643533369	 1.8770110838	 0.0141244044	 0.125961
H	-0.410014573	 1.9275006314	-0.9676431054	 0.125675
H	-0.5249583509	 1.9348822098	 0.804632025	 0.113847
H	 0.4041476986	-0.3880943033	 0.8904496356	 0.084161
H	-1.0713908874	-0.3384872858	-0.0891372569	 0.084905
H	 1.1836716412	-2.31819998	-0.3572570859	 0.081435
H	-0.3180592441	-2.274375992	-1.2969207887	 0.100506
H	 0.999562789	-1.8152776022	-3.3833624441	 0.107473
H	 2.493157106	-1.8563599529	-2.4526148995	 0.118961
H	 2.0231573216	-4.2298656677	-1.8008781307	 0.119507
H	-0.117365076	-4.1809397189	-3.6055037045	 0.285852
H	 3.5480058066	-4.6523700741	-5.7243330525	 0.200066
