15
gdb 54238	2.41355	1.51701	1.28299	1.7223	61.37	-0.2492	-0.0158	0.2333	1017.401	0.112806	-491.127401	-491.118619	-491.117675	-491.161475	31.497	
N	 0.1609458926	 0.9417388771	 0.8142144191	-0.530772
C	-0.0045650195	 0.0801277136	-0.219565531	 0.33863
O	 0.711263286	 0.0307257876	-1.2020382846	-0.374571
C	-1.2495621867	-0.8168062948	-0.1218189075	 0.003851
N	-2.3277262678	-0.3551997005	-0.9895405378	-0.558528
C	-0.9762944814	-2.3319262874	-0.2030018281	-0.087285
O	-1.4763820908	-2.4938311997	 1.1765506686	-0.237832
C	-1.7271669069	-1.1663214573	 1.2933096176	 0.464432
O	-2.1337947857	-0.559959496	 2.2385685043	-0.354912
H	 0.9215070822	 1.6014949863	 0.7781365374	 0.268019
H	-0.4646581026	 0.942233413	 1.6054038885	 0.284567
H	-2.7275133194	 0.4986884053	-0.6083566157	 0.247357
H	-1.9303873022	-0.1147672123	-1.8955471732	 0.252488
H	-1.6110657659	-2.8692852325	-0.906697997	 0.139487
H	 0.0677118481	-2.6363867821	-0.2712678206	 0.145071
