12
gdb 132115	3.15985	1.46176	0.9998	4.2222	66.37	-0.2162	-0.0733	0.1429	1046.3998	0.076484	-513.952659	-513.945234	-513.94429	-513.984522	27.939	
N	 0.0721369087	 1.3596391679	 0.1310272458	-0.558282
C	-0.0191095741	 0.0106507459	 0.0463106611	 0.326397
C	-1.1893500687	-0.7098644677	 0.0171506384	 0.199764
F	-2.351349938	-0.0345245306	 0.02290446	-0.090217
N	-1.2151386559	-2.02925557	-0.0190381712	-0.235508
C	-0.092453245	-2.7023297707	-0.0280660548	-0.170969
C	 1.210696369	-2.0811376383	-0.0069640419	 0.384482
O	 2.3033781318	-2.5690891628	-0.0188724944	-0.325089
O	 1.1397932718	-0.6415745123	 0.0286324068	-0.241563
H	 0.9564601058	 1.7837464004	-0.099697252	 0.282649
H	-0.7633967402	 1.8890592292	-0.0570287312	 0.28553
H	-0.1208417051	-3.7851332011	-0.0574778366	 0.142808
