18
gdb 39982	3.63424	1.56953	1.39752	3.0574	73.85	-0.2371	0.0735	0.3106	961.4282	0.149854	-401.892921	-401.886223	-401.885279	-401.923878	27.558	
C	 0.035040134	 1.501728383	 0.0028832183	-0.266932
O	 1.194459403	 0.6609439199	 0.0051154404	-0.279237
C	-0.0932208862	 0.0432182562	 0.0116547438	 0.484036
C	-0.4737718638	-0.8078212529	 1.2256584693	-0.345066
C	-0.7098162398	-2.1754921561	 0.6003543252	-0.023311
C	-1.6985537843	-2.3495076287	-0.4953784646	-0.035004
C	-2.0166510153	-1.0452685819	-1.211654736	-0.259248
C	-0.4859872976	-0.7827471648	-1.1887830399	-0.08993
N	-0.2173634601	-2.2403504345	-0.80064514	-0.148354
H	-0.1379974857	 2.0640260385	 0.9200015574	 0.114155
H	-0.1363620858	 2.0599778526	-0.9173947052	 0.113098
H	 0.357667228	-0.8313222682	 1.9350015511	 0.129517
H	-1.3552540223	-0.4225785222	 1.7481246194	 0.113072
H	-0.4766498613	-3.0605238489	 1.1834259576	 0.097147
H	-2.2342285604	-3.2846992812	-0.6294879791	 0.091889
H	-2.3753850303	-1.2266398746	-2.2266466112	 0.117155
H	-2.6773854794	-0.3205602333	-0.7235101368	 0.098354
H	-0.0029873025	-0.4811135229	-2.1166115697	 0.088659
