18
gdb 96689	2.1954	1.50527	0.9904	3.039	77.57	-0.2314	-0.0293	0.2022	1216.3968	0.146616	-435.26616	-435.256525	-435.255581	-435.301216	34.462	
C	-0.0433196285	 1.2034539725	 0.2367866899	-0.318429
N	-0.1413649453	-0.1948207911	-0.1394533377	-0.263406
C	 0.3364733056	-0.6658569095	-1.211331582	 0.241135
N	 0.1029971048	-2.019829476	-1.5691075689	-0.123956
C	 1.1247740065	-3.0208898539	-1.2221291738	-0.232291
C	-0.1893917341	-2.9790206524	-0.5195852098	-0.21154
C	 1.131065481	 0.0935968486	-2.2742133966	 0.343448
N	 1.033103259	-0.4469062662	-3.5165729863	-0.520461
O	 1.7837952955	 1.088979429	-2.0189665526	-0.364467
H	 0.762557076	 1.3156887202	 0.9721637857	 0.132939
H	 0.1645894337	 1.8888006189	-0.5878122456	 0.141243
H	-0.9750057926	 1.4859849063	 0.7381506623	 0.116041
H	 1.3260124848	-3.7714222644	-1.9806809495	 0.12154
H	 1.9950483638	-2.6713652426	-0.6725555963	 0.135001
H	-0.2152407042	-2.5883825576	 0.4924392138	 0.14542
H	-0.9533574877	-3.7107154018	-0.7639288645	 0.123334
H	 0.4639761826	-1.2622233893	-3.6696427458	 0.272649
H	 1.5068582591	 0.0065452593	-4.2801106323	 0.2618
