17
gdb 48023	5.06852	0.67655	0.64125	3.9755	81.17	-0.2646	-0.0605	0.2041	1716.494	0.135522	-421.805923	-421.796976	-421.796032	-421.841868	30.651	
O	-0.0711301161	-0.0895389043	 0.5087174023	-0.230956
C	-0.0041664183	 1.112974964	 0.3916938659	 0.019972
C	 1.2173046467	 1.8479881178	 0.1960968933	-0.007401
C	 2.222644855	 2.498895987	 0.0331537712	 0.156436
C	 3.4541553403	 3.2602083945	-0.1597088051	-0.060382
C	 4.1199477346	 2.977161185	-1.5422516322	-0.251212
C	 4.5023136538	 4.3838184758	-2.029835573	-0.215252
C	 3.411611005	 5.2378847823	-1.3839322405	-0.074868
O	 3.2217897327	 4.6706468327	-0.0902649464	-0.249238
H	-0.9114942387	 1.7498879104	 0.4286370361	 0.101037
H	 4.1404587846	 3.0096437004	 0.6595389264	 0.120941
H	 4.9689245088	 2.2988433911	-1.4448527687	 0.123181
H	 3.3965036293	 2.5156650291	-2.2187194775	 0.126253
H	 5.4835322476	 4.6766030673	-1.6435274132	 0.115204
H	 4.5230444712	 4.4624424853	-3.1193447028	 0.110953
H	 3.686557746	 6.2865421441	-1.2450694788	 0.116641
H	 2.4793972276	 5.1972332775	-1.968993577	 0.098692
