17
gdb 48128	3.05143	1.31475	0.92943	3.3235	81.51	-0.206	-0.0626	0.1434	1212.923	0.136943	-418.027338	-418.019009	-418.018065	-418.061007	30.169	
N	 0.0447007281	 1.4663001118	 0.3972867801	-0.527349
C	 0.0471106094	 0.1927794093	 0.1916412653	 0.288012
C	-1.3478126813	-0.385299875	 0.1599236612	 0.150257
O	-1.6591710869	-1.5370795865	-0.0122526365	-0.270326
N	 1.1354540755	-0.6133239109	 0.0135210446	-0.125256
C	 2.5048058404	-0.0666346526	 0.0414703079	-0.185382
C	 3.4270820276	-1.2922208629	-0.1972282976	-0.286155
C	 2.4489623358	-2.4348929571	-0.3385944922	-0.156486
C	 1.1950990857	-2.0011651281	-0.2132244303	-0.004619
H	 0.9840764482	 1.8616716995	 0.419597378	 0.218895
H	-2.0895713568	 0.4192053221	 0.322574461	 0.122004
H	 2.6148594669	 0.6972104473	-0.7367609846	 0.126234
H	 2.6917448541	 0.4153297655	 1.0078983106	 0.126238
H	 4.0439451567	-1.1605615594	-1.093423207	 0.120622
H	 4.1205272827	-1.4402803357	 0.6383669144	 0.120623
H	 2.7344803171	-3.4609274629	-0.5168301843	 0.108599
H	 0.2689965066	-2.5487171746	-0.2608171507	 0.174088
