21
gdb 52717	3.21799	0.61791	0.53596	0.87	94.82	-0.2426	0.0475	0.2901	2074.1037	0.178665	-349.906597	-349.895123	-349.894178	-349.945517	39.713	
C	 0.0126513059	 1.483583008	-0.034168909	-0.498646
C	 0.0167340053	 0.0272788282	-0.0199291892	 0.100327
C	 0.0255446258	-1.1770434345	-0.0001417724	 0.032093
C	 0.0209666924	-2.6406299783	-0.0034906238	-0.159769
C	-1.407262864	-3.1792656529	 0.2215982218	-0.3869
C	 0.6655554847	-3.1690312649	-1.3076043803	-0.166179
C	 0.8885554786	-4.6957380416	-1.3132674981	-0.369363
C	 1.5834232715	-5.1519874412	-2.5107857542	 0.286197
C	 2.1560428221	-5.5024647109	-3.5078811846	-0.429969
H	 0.6317839842	 1.8923309606	 0.7722337549	 0.1463
H	 0.4034188934	 1.8741176862	-0.9804218159	 0.146951
H	-1.0003804039	 1.8811940018	 0.0935480147	 0.146114
H	 0.6449246005	-2.9840953271	 0.8354885966	 0.098752
H	-2.0576319857	-2.9033788595	-0.6144819143	 0.12436
H	-1.4119513279	-4.2687307544	 0.3187186914	 0.115201
H	-1.8353117552	-2.7577418223	 1.1345861651	 0.125395
H	 0.0394454076	-2.8875587153	-2.1612933028	 0.115594
H	 1.629611206	-2.6723496364	-1.4506756428	 0.119195
H	 1.46715799	-4.9829384438	-0.4245983198	 0.128247
H	-0.070675945	-5.2208655673	-1.234387297	 0.13367
H	 2.6621928733	-5.8228847544	-4.3842863706	 0.192431
