18
gdb 18642	2.71743	2.32347	1.77238	1.8676	67.13	-0.2337	0.0656	0.2993	831.562	0.1542	-384.918346	-384.910621	-384.909677	-384.950273	29.227	
C	-0.0170892298	 1.5902135422	-0.2044365178	-0.392808
C	 0.0570945358	 0.0947866565	 0.0071310467	-0.029081
C	 1.3266287502	-0.688606131	-0.1804449948	 0.068385
O	 2.514713777	 0.0667275731	-0.1884891422	-0.255856
C	 2.9569135933	 0.2293969003	 1.157224894	-0.094582
C	 1.7141329885	 0.1186352275	 2.0755746821	 0.067552
O	 1.1926363722	 1.3705780367	 2.5056585546	-0.423443
C	 0.7119383313	-0.6120147249	 1.1935093538	-0.099896
H	 0.9464737556	 2.0676581307	-0.0290501536	 0.12966
H	-0.3195920522	 1.8004984848	-1.2364803521	 0.104778
H	-0.7471923482	 2.0494289514	 0.4673182066	 0.120826
H	-0.8325166448	-0.4376944711	-0.3246686477	 0.083419
H	 1.3699863569	-1.5954356047	-0.7770958289	 0.089594
H	 3.6856500859	-0.5569383764	 1.4093409014	 0.090614
H	 3.4484969419	 1.2043646559	 1.2445555885	 0.099879
H	 1.9536257476	-0.5015721129	 2.9515901423	 0.071027
H	 1.8362861932	 1.7738195657	 3.0968199264	 0.28189
H	 0.1844735457	-1.4535930637	 1.6256006606	 0.088041
