25
gdb 83866	1.8621	1.74673	1.20993	0.1161	91.75	-0.2539	0.0738	0.3277	1209.1833	0.231523	-352.367525	-352.358475	-352.35753	-352.40056	36.475	
C	-0.3308491285	 1.5418028673	-0.2104324009	-0.417776
C	-0.0253094203	 0.0669001163	-0.0597590233	-0.006833
C	 1.3301840046	-0.5498899139	-0.358361481	-0.068528
C	 2.554906686	 0.3128591089	-0.6642472792	-0.217523
C	 3.4165677357	 0.5858047011	 0.5789716654	-0.196835
C	 2.5747294656	 1.1496734469	 1.727663429	-0.202846
C	 1.4955712065	 0.1510976271	 2.1944162337	 0.026154
C	 0.5202014058	 0.7859315245	 3.1951866438	-0.398716
C	 0.7758106213	-0.5702003911	 1.0562081824	-0.039068
H	 0.4948808986	 2.1885613833	 0.0908767711	 0.120929
H	-0.5666152188	 1.779763223	-1.2547201452	 0.112263
H	-1.20146496	 1.8221062306	 0.3925570228	 0.115918
H	-0.8613806998	-0.5502410269	-0.3831761855	 0.07603
H	 1.3041396843	-1.4937078948	-0.8949006142	 0.075366
H	 3.1599703372	-0.1870464069	-1.4275470245	 0.092933
H	 2.253428756	 1.271461129	-1.1053295501	 0.096307
H	 3.8914614533	-0.3491247228	 0.9064611825	 0.090913
H	 4.2281467234	 1.2778062733	 0.3260686833	 0.085964
H	 3.2143817402	 1.394910074	 2.5840054716	 0.088243
H	 2.1165355417	 2.0972282249	 1.4165869216	 0.094797
H	 2.0402918215	-0.640673462	 2.7306754618	 0.070237
H	-0.0400878014	 1.6071530054	 2.7365474514	 0.116123
H	-0.2059203082	 0.0523094802	 3.5612672657	 0.107086
H	 1.0549695756	 1.1898076379	 4.0623844018	 0.104765
H	 0.3727813396	-1.5269766652	 1.3815938859	 0.074097
