21
gdb 57414	3.17107	1.07485	1.01195	4.1207	78.35	-0.2729	0.0121	0.285	1289.6031	0.180347	-424.270104	-424.260411	-424.259467	-424.304364	36.554	
C	 0.0216415205	 1.557291544	-0.120237563	-0.427969
C	-0.0213673763	 0.0217864199	-0.025241212	 0.227728
C	 0.8227000242	-0.4372059824	 1.1800586816	-0.411208
C	-1.4747424298	-0.459263347	 0.1407970572	-0.411383
C	 0.5508662254	-0.6464730929	-1.2801465557	 0.145107
C	 0.100989876	-0.2174815237	-2.6915855182	-0.453645
C	 1.566918765	 0.1776489828	-2.8639136016	 0.448895
O	 2.2670788341	 0.6343451751	-3.7082852601	-0.317509
O	 1.9237276451	-0.2011756604	-1.5942980647	-0.257598
H	 1.0408292563	 1.9146868748	-0.2890915167	 0.137467
H	-0.6148250264	 1.9414719982	-0.9237948493	 0.111881
H	-0.3387393024	 1.9977534506	 0.8145619183	 0.117548
H	 0.4461788881	 0.0089856466	 2.1060290759	 0.113203
H	 0.7894259791	-1.526225447	 1.2957401427	 0.110343
H	 1.8687535741	-0.1421759444	 1.0589264953	 0.136976
H	-2.1024525953	-0.1464140131	-0.7004676327	 0.115117
H	-1.529710496	-1.5510630532	 0.2157896414	 0.114412
H	-1.9113506583	-0.0421982583	 1.0537383007	 0.120808
H	 0.56472659	-1.7328084679	-1.1455866565	 0.09337
H	-0.2285756486	-1.0161071807	-3.3579031817	 0.142715
H	-0.5964726847	 0.618437739	-2.7533194209	 0.143745
