13
gdb 22035	2.53784	1.55714	0.96503	1.885	68.73	-0.2044	-0.0275	0.1769	1094.8847	0.089022	-497.816951	-497.809641	-497.808697	-497.848832	27.68	
O	-0.0813567347	 1.3289290189	 0.1156954594	-0.398303
N	 0.057174243	-0.069574673	 0.117996766	-0.258838
C	-1.0927723467	-0.64038577	-0.0176694301	 0.254238
C	-2.3955158558	-0.005069903	-0.1590927837	-0.240194
C	-3.507367099	-0.7417794577	-0.2920493069	 0.067168
O	-3.5291352496	-2.0971719528	-0.3075042951	-0.202051
C	-2.3320675846	-2.7402190849	-0.1781021155	-0.061293
C	-1.1674253503	-2.0902752215	-0.0399981568	 0.149939
F	-0.0415372655	-2.7854332926	 0.0808453185	-0.054796
H	 0.8300563198	 1.6201549576	 0.221680186	 0.309233
H	-2.4598177881	 1.0729064474	-0.156041844	 0.141024
H	-4.5049050397	-0.3364792378	-0.4011189283	 0.143632
H	-2.4236097289	-3.8163374206	-0.1987668694	 0.150242
