15
gdb 3082	3.6091	2.38157	1.9837	3.1103	61.92	-0.247	0.0144	0.2614	721.2184	0.124357	-304.683134	-304.675564	-304.674619	-304.714533	26.813	
C	 2.0112606373	-0.7983639761	 2.6286059336	-0.425866
C	 1.1381141951	-1.1186891386	 1.4364916231	 0.012551
C	 0.187451033	-0.1076240164	 0.8397094652	-0.175029
C	 0.1594925371	 1.228779234	 1.3805547647	 0.293163
N	 0.1348048015	 2.3089921303	 1.7953873358	-0.344372
N	 1.3613859545	-0.5923879399	 0.0997921805	-0.093902
C	 2.4699128663	 0.318195443	-0.1686992812	-0.324837
H	 2.9563734443	-1.3478294298	 2.5657599925	 0.131434
H	 2.2343638581	 0.2660428809	 2.7190880975	 0.148076
H	 1.5058226229	-1.1108876851	 3.5475088883	 0.136298
H	 0.7782554262	-2.147039795	 1.419864508	 0.107676
H	-0.7707860545	-0.4338163553	 0.443342871	 0.134233
H	 2.2650917438	 0.8419950355	-1.1065535529	 0.138843
H	 2.6541429326	 1.07121404	 0.6078534856	 0.130113
H	 3.3767969817	-0.2783004974	-0.3027887415	 0.131618
