15
gdb 8627	2.48589	1.76624	1.40795	4.5551	65.56	-0.2721	-0.0077	0.2644	944.5071	0.118279	-358.858987	-358.850089	-358.849145	-358.89214	31.253	
C	-0.0200411316	 1.5711314375	-0.028859332	-0.404142
C	-0.0156193504	 0.0222117265	-0.0067585572	-0.068609
C	 0.7099961114	-0.5263514369	 1.2722303966	-0.172947
N	 0.023073928	-0.0745135364	 2.4696844567	-0.513673
C	-1.4013168025	-0.4820053322	-0.0029591994	 0.303281
N	-2.4868926422	-0.8719656224	 0.0564896028	-0.330153
C	 0.6829299123	-0.4978270305	-1.1940629134	 0.291094
N	 1.2765122914	-0.8896418287	-2.1038124381	-0.321842
H	 1.0084342784	 1.9324730864	-0.1044848413	 0.140805
H	-0.5897675874	 1.9462684448	-0.8805378436	 0.151227
H	-0.4612581835	 1.9284411879	 0.9017398813	 0.166509
H	 0.797823632	-1.6172028172	 1.1687904496	 0.125555
H	 1.7223097456	-0.1121255977	 1.2614527361	 0.133592
H	-0.7863512366	-0.6547106443	 2.6642962079	 0.253109
H	 0.636831415	-0.1288567266	 3.273561544	 0.246195
