21
gdb 89283	2.12381	1.71831	1.13775	2.9259	82.65	-0.2343	-0.0189	0.2154	1158.0872	0.181043	-387.09624	-387.087203	-387.086259	-387.129943	34.816	
C	 0.34403855	 1.6714036761	-0.1256077173	-0.407058
C	 0.0432500019	 0.1835492714	-0.011344084	 0.041796
C	 0.7301964928	-0.8087107665	-0.9992535238	-0.308727
C	 1.2010314353	-1.703018246	 0.1876788427	 0.369147
C	 0.780935696	-3.1560197821	 0.1873374624	-0.495243
C	 2.6485219809	-1.3672217685	 0.6536770012	-0.412587
C	 2.0659713611	-0.2670918368	 1.5593925114	 0.427077
O	 2.5573335318	 0.5453166497	 2.2908219979	-0.311685
C	 0.6217497228	-0.6245449438	 1.1968952083	-0.228256
H	 1.4203912446	 1.8697297814	-0.1076785638	 0.124905
H	-0.0563872776	 2.0740383883	-1.0626010598	 0.113483
H	-0.1059321204	 2.231527706	 0.7007943116	 0.124281
H	-1.0404542731	 0.0318693698	-0.0325792504	 0.082231
H	 0.0428830768	-1.3020235166	-1.6913443216	 0.101257
H	 1.5469520766	-0.3760096636	-1.5858328754	 0.096877
H	 1.2968795834	-3.7135109046	-0.6038718017	 0.120812
H	 1.0154066892	-3.6412932229	 1.1415760102	 0.11574
H	-0.2959261725	-3.2605352095	 0.0145206094	 0.116715
H	 3.0959725816	-2.1637366632	 1.2609143261	 0.126823
H	 3.3793579977	-1.0566540125	-0.0992433015	 0.120515
H	-0.0505513388	-0.8350600661	 2.0316129481	 0.081897
