17
gdb 107316	2.76054	1.62151	1.15907	3.0817	73.21	-0.2417	-0.0718	0.1699	1068.1976	0.135314	-421.834109	-421.825966	-421.825022	-421.866865	30.647	
C	 0.008526156	 1.4865061613	 0.377955212	-0.386464
C	 0.0238209827	 0.046870783	-0.1558878208	-0.28945
C	-1.3519751952	-0.5596451833	-0.2058048666	 0.291116
O	-1.9914561924	-0.8717841079	 1.0542817435	-0.289732
C	-1.7319684878	-1.9395208602	 0.1188687382	-0.08914
C	-2.9429875016	-2.2884548004	-0.6991494702	-0.07064
C	-3.3359071085	-1.2375342321	-1.430309918	-0.183703
C	-2.393517396	-0.0954909478	-1.2385973677	 0.360208
O	-2.4091847496	 0.9700168959	-1.8067664981	-0.318047
H	 1.0238152416	 1.8909136169	 0.4208447876	 0.111106
H	-0.5950382127	 2.1294136693	-0.2663809515	 0.149287
H	-0.4129981019	 1.5151560141	 1.3870361377	 0.130218
H	 0.4486035954	 0.0257160191	-1.1665810413	 0.111923
H	 0.6599029285	-0.5840341631	 0.474696843	 0.106226
H	-1.0222957807	-2.6921623612	 0.4474949324	 0.10997
H	-3.4335974973	-3.2531583243	-0.6485690424	 0.128557
H	-4.2049784904	-1.1682118991	-2.0714664177	 0.128563
