17
gdb 132350	1.90617	1.71246	0.91221	0.065	79.25	-0.2516	-0.0147	0.2369	1239.6683	0.134896	-426.054036	-426.045301	-426.044357	-426.089085	31.326	
C	 0.0601386668	 1.4894630277	 0.0414721603	-0.465596
C	 0.0437461183	-0.0160447768	-0.0182211172	 0.337297
C	 0.0886182107	-0.6898870768	-1.2407100065	-0.331495
C	 0.0692549594	-2.0739814486	-1.2082620969	 0.350548
F	 0.1105913936	-2.7591902085	-2.3507874148	-0.072738
C	 0.0076806973	-2.7557156684	-0.004690462	-0.331496
C	-0.0337940585	-1.9945550645	 1.1655578307	 0.337295
C	-0.1023438931	-2.652219807	 2.5195031139	-0.465596
N	-0.0159656041	-0.6559511481	 1.1561855074	-0.37865
H	 0.1168744838	 1.9362352239	-0.953858454	 0.118212
H	-0.8413936134	 1.8577256331	 0.5412188121	 0.141706
H	 0.9146371543	 1.8348899201	 0.631744678	 0.141747
H	 0.1370194844	-0.1633130514	-2.1856136213	 0.10855
H	-0.0069593063	-3.8382737382	 0.0131825698	 0.10855
H	 0.7497820091	-2.3434997162	 3.1330666148	 0.14175
H	-1.0066702341	-2.3350265276	 3.0483967677	 0.141703
H	-0.104401228	-3.7420563426	 2.4436104079	 0.118212
