19
gdb 52676	2.88234	0.98153	0.8355	1.7622	80.02	-0.2511	0.0405	0.2916	1454.082	0.155874	-422.981606	-422.971244	-422.9703	-423.018359	36.682	
C	-0.2168499315	 1.4687591948	-0.0581617488	-0.500467
C	-0.0623191257	 0.021541988	-0.0311691874	 0.06087
C	 0.0608104299	-1.1760726934	 0.0027892939	 0.07788
C	 0.174591884	-2.6412325364	 0.0345325895	-0.127413
O	-1.0811940502	-3.2602349181	 0.253283056	-0.416021
C	 0.828249277	-3.1817296524	-1.2527404379	 0.391105
C	 2.1189658944	-2.5326503137	-1.6874756751	-0.470256
C	 0.5070754819	-4.5559474186	-1.6560971613	-0.229219
O	-0.1343586507	-3.4316037979	-2.2876305691	-0.283709
H	 0.6811415685	 1.9701334763	 0.319275908	 0.149983
H	-0.3986287332	 1.8325480052	-1.0752655618	 0.150777
H	-1.0599888441	 1.7864842292	 0.5649027638	 0.153584
H	 0.8045841441	-2.9347759302	 0.8842227437	 0.117453
H	-1.5587334804	-3.1671567322	-0.5833308531	 0.291068
H	 2.885745256	-2.6479430268	-0.9133263481	 0.123145
H	 2.484260918	-2.9918791824	-2.6089878509	 0.126542
H	 1.9722708284	-1.463471153	-1.859679162	 0.142296
H	 1.2058224204	-5.0987837767	-2.2903335541	 0.113308
H	-0.1432883068	-5.1614158115	-1.0313489952	 0.129073
