19
gdb 3128	5.20207	1.95335	1.72272	0.298	71.28	-0.2428	0.0885	0.3313	821.1972	0.172289	-273.763117	-273.755893	-273.754949	-273.794168	27.7	
C	-0.2345855549	 1.5175073182	-0.0198216269	-0.371655
C	 0.0965316781	 0.0207584735	 0.0640825067	-0.293492
C	 0.7941432288	-0.4959072206	-1.1646725371	 0.405015
C	 0.05843016	-0.9429739023	-2.4004680597	-0.317307
C	 0.9570537932	-1.9251565054	-1.6958544574	-0.110604
C	 2.4175902679	-1.6499189718	-2.0675051917	-0.217171
C	 2.2555086978	-0.1866864338	-1.5385474481	-0.283739
H	 0.672740898	 2.1151771088	-0.1587258257	 0.117133
H	-0.9002436913	 1.7256328578	-0.8639259842	 0.117344
H	-0.7262592952	 1.8666471441	 0.8936089515	 0.108554
H	 0.7255879351	-0.1629227716	 0.9460036149	 0.091923
H	-0.8268291226	-0.5511187637	 0.2224300307	 0.093102
H	-1.0062981593	-1.1114690237	-2.2676384767	 0.103927
H	 0.3278475168	-0.5605519384	-3.3836862736	 0.097304
H	 0.5719724668	-2.8527920073	-1.287274223	 0.078718
H	 3.1318382328	-2.2256489525	-1.4744792589	 0.100005
H	 2.6725800852	-1.7675641177	-3.1264039116	 0.092464
H	 2.4102827072	 0.6230142318	-2.2597206442	 0.090767
H	 2.8830927555	 0.0057516645	-0.6638245049	 0.097711
