20
gdb 120350	3.88285	0.97786	0.85932	0.5103	80.02	-0.2197	0.0115	0.2312	1369.4533	0.171641	-403.117226	-403.108643	-403.107699	-403.150906	32.586	
O	 0.0572616551	 1.491838569	 0.0682225668	-0.424927
C	 0.0734169443	 0.08697694	-0.1455152855	-0.071781
C	-1.3494345265	-0.4235793396	 0.0483565943	-0.18329
C	-1.4552993917	-1.9473667045	-0.069637171	-0.014735
C	-2.8454878932	-2.5207707161	 0.1327957786	-0.100727
C	-3.1654984601	-3.3505318806	-0.8595144908	-0.089715
C	-2.0726822258	-3.3793502854	-1.8736673637	-0.066178
C	-1.8178704305	-2.0739775631	-2.5487282864	-0.242677
N	-1.0063292991	-2.4728681902	-1.389953978	-0.105126
H	 0.9383153411	 1.8314162416	-0.112783409	 0.284717
H	 0.4246323005	-0.1632352473	-1.1565890109	 0.104529
H	 0.7465963377	-0.4175311719	 0.5672995164	 0.083512
H	-1.6946210667	-0.1198648017	 1.0437066208	 0.106392
H	-2.008446343	 0.0687533447	-0.6748282602	 0.105185
H	-0.7729907933	-2.3792733468	 0.6796099373	 0.088053
H	-3.4713462565	-2.2622092162	 0.9793559055	 0.100028
H	-4.0834619644	-3.9171637308	-0.9559946046	 0.103141
H	-1.7716210286	-4.315762664	-2.3361585482	 0.093481
H	-1.2614844011	-2.0353309682	-3.4816050111	 0.113461
H	-2.5816426982	-1.309460919	-2.4336678202	 0.116657
