16
gdb 19738	4.07712	2.49276	2.27807	2.5224	62.4	-0.243	0.0934	0.3364	676.6252	0.134322	-383.723484	-383.718238	-383.717293	-383.752535	22.342	
C	-0.0481895502	 1.5700991054	 0.0438016706	-0.242797
C	 1.4829639646	 1.3770195499	 0.0080319114	 0.084848
O	 1.7404751287	 0.762734905	 1.2880952134	-0.285297
C	 0.893649398	-0.3959078828	 1.1788458425	 0.214868
O	 1.655612788	-1.4814945015	 0.7205156129	-0.253915
C	 2.1267387281	-1.0787671301	-0.5817780797	-0.108713
C	 1.2585665363	 0.1325886396	-0.9188509237	-0.068732
C	-0.0095193858	 0.0239970682	-0.0070980841	-0.100963
H	-0.4588823504	 2.0594209193	 0.9295981784	 0.104492
H	-0.4583580665	 2.0038174444	-0.871221363	 0.102497
H	 2.2072186404	 2.1674003524	-0.1832488767	 0.081834
H	 0.4569697366	-0.6510250478	 2.1431571805	 0.091479
H	 3.1944907279	-0.8330001433	-0.5343069399	 0.109928
H	 1.9877774706	-1.91163394	-1.2794083315	 0.106804
H	 1.0919268164	 0.3506991477	-1.9723567757	 0.084083
H	-0.8630381527	-0.6128926965	-0.2316878154	 0.079584
