21
gdb 63921	2.8941	1.51909	1.50301	1.1386	80.51	-0.2501	0.0809	0.3309	1018.4081	0.183663	-387.073333	-387.065469	-387.064525	-387.104988	32.78	
C	-0.2410994934	 1.5793867007	 0.0184104357	-0.442171
C	 0.0042362921	 0.0689497087	-0.0353209911	 0.383954
O	-1.2440996453	-0.6166921927	 0.1347322148	-0.482524
C	 0.740669313	-0.416470391	-1.3269532347	-0.275217
C	 2.1182372415	-0.8987628501	-0.8515000494	-0.039164
C	 2.9377538359	 0.276187795	-0.2296419583	-0.238804
C	 2.3817824111	-0.1167348249	 1.1384786626	-0.079178
C	 1.8952602455	-1.4512493927	 0.5900809838	-0.091444
C	 0.8984406576	-0.4519118065	 1.0875121089	-0.031589
H	 0.6909324136	 2.1442844326	-0.0660075776	 0.122536
H	-0.8960477886	 1.8960968914	-0.8033138028	 0.099857
H	-0.7251158285	 1.8488976399	 0.961974203	 0.119991
H	-1.8540228154	-0.2792417584	-0.529997333	 0.270014
H	 0.1658616921	-1.2504739001	-1.742104875	 0.098803
H	 0.8168297934	 0.3636650277	-2.0927024878	 0.086919
H	 2.6488956626	-1.5227781954	-1.5702751586	 0.065634
H	 4.0121121246	 0.0778015905	-0.2779459712	 0.098733
H	 2.7516817262	 1.2860013432	-0.6147298984	 0.084113
H	 2.8535369726	 0.0884853115	 2.0927915251	 0.079285
H	 2.0301795056	-2.4603443601	 0.9546624996	 0.083455
H	 0.4240593138	-0.6105348395	 2.0495638144	 0.086795
