19
gdb 39967	3.38101	1.45162	1.20886	1.3919	82.87	-0.226	0.0077	0.2338	1075.6096	0.160207	-385.841467	-385.833934	-385.83299	-385.873402	29.955	
C	-0.11633306	 1.4291383736	-0.0320536046	-0.303153
C	 1.2661184572	 0.8105722928	 0.0466721957	-0.343669
C	 0.0456963141	-0.0551321432	 0.0109086114	 0.3212
C	-0.5474117516	-1.0062387478	 1.093784875	-0.396849
C	-1.3760394748	-1.5485243019	-0.0560357621	 0.22506
C	-2.6157028608	-1.58903394	-0.526983608	-0.229248
C	-2.5611264988	-1.1965107938	-1.9969565087	-0.10605
O	-1.2529116513	-0.621293963	-2.1963920716	-0.280687
C	-0.4481500003	-1.0203960772	-1.1053921299	 0.025159
H	-0.4987007488	 1.9337747468	 0.849751241	 0.109509
H	-0.4318988031	 1.8636750277	-0.9747651371	 0.128077
H	 1.8948597079	 0.8419325205	-0.8378305859	 0.116968
H	 1.8088690283	 0.895211983	 0.9830410647	 0.111169
H	 0.1988399236	-1.7068520018	 1.4830161373	 0.114119
H	-1.0916797906	-0.5580969449	 1.9282153418	 0.116186
H	-3.5447720003	-1.7060666698	 0.0164951529	 0.102324
H	-2.7059033876	-2.0401070593	-2.6911118995	 0.102691
H	-3.3194356025	-0.4398962639	-2.2373756221	 0.111625
H	 0.3591773895	-1.6860663178	-1.4461065302	 0.075569
