12
gdb 25427	4.80798	1.00008	0.82788	4.28	75.52	-0.2596	-0.0607	0.1989	1265.9653	0.076594	-435.486722	-435.47922	-435.478275	-435.519156	26.899	
O	-0.1279001477	 0.0019573617	 0.000982221	-0.247514
C	-0.0158649449	 1.2021265774	 0.0098389653	 0.068466
C	 1.2579217499	 1.9335195023	 0.0009308364	 0.135024
C	 1.4194136752	 3.2899080101	 0.0104052221	-0.06864
O	 2.73845368	 3.5660309889	-0.0028357651	-0.161838
C	 3.3461340125	 2.3294488662	-0.0203872807	 0.229193
N	 2.510891058	 1.3381292777	-0.0189474583	-0.327083
C	 4.7551029334	 2.3016677282	-0.0372940143	 0.262595
C	 5.9568984767	 2.2847299808	-0.051648421	-0.35014
H	-0.9048499094	 1.8720158442	 0.0260166529	 0.074528
H	 0.7449667598	 4.1300990641	 0.0254268861	 0.172215
H	 7.0192238762	 2.2604486982	-0.0644240444	 0.213196
