17
gdb 79696	2.73067	1.7768	1.40052	2.4337	71.52	-0.2316	-0.0032	0.2285	946.1051	0.137288	-421.790459	-421.783322	-421.782377	-421.821669	29.014	
O	 0.1013968716	 1.5164979747	 0.0573768895	-0.429126
C	-0.0050084213	 0.1176010022	 0.0095720121	 0.117289
C	 0.3154641211	-0.6849397817	 1.3002592522	-0.18677
C	-0.7927527247	-0.3594692757	 2.3097601878	-0.046358
C	-1.6337021705	 0.884136759	 2.1867145798	-0.305383
C	-2.0320531463	-0.3248630788	 1.3778041249	-0.049148
C	-1.3798448851	-0.6398478776	 0.0276058147	-0.219913
C	-0.4752001085	-1.8099921431	 0.5455110826	 0.428627
O	-0.4168154753	-2.9927147395	 0.4253019738	-0.313674
H	-0.1606768673	 1.8641212628	-0.8011840424	 0.289912
H	 0.6035203049	-0.2788289814	-0.815728489	 0.092518
H	 1.3344786214	-0.8146507336	 1.6560181343	 0.086403
H	-0.8018180224	-0.927306072	 3.232084643	 0.102405
H	-2.2753241636	 1.0634519099	 3.0445430452	 0.109499
H	-1.2428294097	 1.76980024	 1.7118662885	 0.144104
H	-2.9362738262	-0.8651927706	 1.6304578979	 0.101905
H	-2.005515498	-0.7278688147	-0.8580977048	 0.077711
