18
gdb 56862	2.64658	1.20232	1.00708	3.9633	77.77	-0.2478	0.0366	0.2844	1235.7586	0.145825	-401.941049	-401.931725	-401.930781	-401.975585	34.386	
C	-0.1078061579	 1.5856263422	-0.0600850613	-0.394674
C	-0.0432409474	 0.0476045674	 0.0341473036	-0.169775
C	-1.3762914805	-0.5264218703	 0.2046885413	 0.330292
C	-2.4773854783	-0.9893674753	 0.3393702628	-0.472377
C	 0.7036528347	-0.5500658544	-1.1765023459	 0.061481
C	 0.6814183447	-2.0955762579	-1.3670437839	-0.423733
C	-0.009815427	-1.8064339842	-2.7222209515	 0.446298
O	-0.4091561358	-2.4529732964	-3.6508686152	-0.359153
N	 0.0236595623	-0.4530675558	-2.4717950464	-0.32053
H	 0.8990013064	 2.0058625428	-0.1502574211	 0.11726
H	-0.694512366	 1.8952578931	-0.9302332911	 0.125585
H	-0.5814021911	 2.0091616393	 0.8285736874	 0.134904
H	 0.5573154635	-0.2120378218	 0.9178839129	 0.113924
H	-3.4486929567	-1.4021934759	 0.4585201017	 0.202772
H	 1.7144445749	-0.1239592229	-1.1946981205	 0.085827
H	 1.6580763357	-2.5739218033	-1.4549993117	 0.128613
H	 0.0558702927	-2.6377221511	-0.6569061415	 0.143375
H	-0.2507391643	 0.3359713245	-3.0379768296	 0.24991
