16
gdb 2157	3.40428	3.10914	1.93664	3.015	61.24	-0.254	0.0303	0.2843	703.3651	0.13862	-325.805781	-325.799054	-325.79811	-325.836428	24.931	
C	 0.3204962759	 1.5390450118	-0.0364227473	-0.396437
C	-0.0661932489	 0.0521226539	 0.016910325	-0.066902
C	 0.4905977124	-0.7808100603	-1.1529915245	-0.24175
C	 1.8204065049	-1.2968996	-0.5867236013	-0.083171
O	 1.6140827714	-1.4055996046	 0.8310986365	-0.2379
C	 0.5618952773	-0.6253913504	 1.2235797952	 0.411485
N	 0.182049527	-0.4835413069	 2.4194049841	-0.544105
H	 1.4043131869	 1.6694103233	-0.1288992539	 0.117684
H	-0.1525298086	 2.0281214958	-0.8936503363	 0.115681
H	-0.0017146109	 2.0439924927	 0.8773389434	 0.145002
H	-1.1524374876	-0.0266034903	 0.0958337406	 0.105526
H	-0.1724662314	-1.6223266303	-1.3744570086	 0.115195
H	 0.6243195208	-0.2037228677	-2.0709881378	 0.108219
H	 2.1085624524	-2.282200312	-0.9602679683	 0.119696
H	 2.647143047	-0.5997088544	-0.77228502	 0.112425
H	 0.7795859815	-1.0183123306	 3.0524710633	 0.219352
