20
gdb 77386	2.23081	1.98077	1.27232	1.3819	79.74	-0.2258	0.0659	0.2917	1056.46	0.169331	-403.0616	-403.052761	-403.051817	-403.094305	34.298	
C	-0.0233678778	 1.4179721443	-0.010580505	-0.531159
C	 0.0908378695	-0.075906517	-0.0183487396	 0.35985
C	 0.5897132839	-0.9853187552	-1.13559453	 0.011272
O	 1.9746938999	-0.9026085762	-1.3711460286	-0.446655
C	 0.0796699014	-1.9473062874	-0.0519564306	 0.335818
C	-0.0592033788	-3.4391511552	-0.0962098274	-0.532721
C	 0.585395531	-1.0357462076	 1.116450587	-0.143369
C	-0.8221472995	-1.0379457683	 1.6962819351	-0.205975
N	-1.1443631413	-1.009607375	 0.2037066464	-0.230426
H	 0.9639281285	 1.8702906288	-0.1497558065	 0.134936
H	-0.6732102597	 1.7564652564	-0.8241652467	 0.129374
H	-0.4376587417	 1.7881941572	 0.9326233167	 0.122981
H	-0.0037510974	-0.9626824651	-2.0615582806	 0.069426
H	 2.2148095683	-1.5734435157	-2.0173322721	 0.286843
H	 0.9204199766	-3.9092278395	-0.2383418335	 0.121371
H	-0.4875939595	-3.8353717426	 0.830137234	 0.127687
H	-0.708473146	-3.7406777118	-0.9250463716	 0.129275
H	 1.562484543	-1.0488316459	 1.607639165	 0.067955
H	-1.1779313792	-1.9405397386	 2.2035068912	 0.095967
H	-1.1671401011	-0.1492577756	 2.2344968968	 0.097551
