18
gdb 11516	5.10045	1.05365	0.93289	1.2164	74.08	-0.2591	0.0341	0.2932	1246.2571	0.15165	-347.749166	-347.740205	-347.739261	-347.783155	32.792	
O	 0.3348507315	 1.5258366218	-0.1489222023	-0.410398
C	 0.1058516438	 0.1244867497	-0.033159117	-0.054929
C	 0.5791257374	-0.6605122485	-1.2764931746	-0.216841
C	-0.12204974	-0.2399573591	-2.548596472	 0.038495
C	 0.3845070534	 0.9185176844	-3.3658208464	-0.236048
C	 0.5224765954	-0.4883815845	-3.890708257	-0.289567
C	 0.7084049768	-0.4173466645	 1.1896030057	 0.295591
C	 1.2522624638	-0.8482361218	 2.1716548207	-0.445266
H	 1.2794217078	 1.6741773928	-0.0288896149	 0.2833
H	-0.9853818043	 0.0304642697	 0.0386503896	 0.117224
H	 1.6642690416	-0.5281037296	-1.3794574863	 0.093358
H	 0.4146021132	-1.7284207325	-1.0853132301	 0.11013
H	-1.203010253	-0.3578950049	-2.5162683875	 0.081142
H	-0.3398864947	 1.5770816257	-3.831525422	 0.111854
H	 1.2794196956	 1.4239352553	-3.0205842682	 0.104228
H	 1.5126147256	-0.9331580735	-3.9018334428	 0.108515
H	-0.1091493614	-0.7984559117	-4.7158353197	 0.110689
H	 1.7115947173	-1.227621169	 3.0509398547	 0.198524
