15
gdb 12768	3.04303	1.99951	1.55348	1.7763	61.01	-0.2298	-0.0292	0.2006	840.8882	0.11745	-399.743861	-399.736313	-399.735369	-399.776029	27.845	
O	 0.2760804916	 1.3202837993	 0.3932554335	-0.45773
C	 0.0480420239	-0.0133510788	 0.1422697946	 0.370999
C	-0.2582951259	-0.5749484063	-1.2259443016	-0.328845
C	-1.2427014839	-0.7624479502	-0.1020734309	-0.069129
N	-0.7971023665	-1.9248634686	 0.7132288548	-0.346723
C	 0.4310010735	-1.1462970737	 1.1055421972	-0.141524
C	 1.7471128436	-1.8577626427	 0.8859006207	 0.154828
O	 2.7420511228	-1.2955254032	 0.5015410105	-0.249965
H	 1.1329124981	 1.5497416147	 0.013457586	 0.295528
H	-0.5383721964	 0.1916411154	-1.9416167554	 0.120371
H	 0.2727104002	-1.4301818761	-1.6352451502	 0.118669
H	-2.2765578465	-0.4438682034	-0.1358689623	 0.108042
H	-1.4036861483	-2.0425889622	 1.5191953928	 0.227357
H	 0.3911172717	-0.7937165843	 2.1447420712	 0.112895
H	 1.7365828721	-2.9494926998	 1.1022973489	 0.085228
