16
gdb 61506	3.93077	0.80784	0.70642	4.6828	67.05	-0.2883	-0.0653	0.2231	1499.8663	0.121905	-475.033761	-475.024468	-475.023524	-475.068557	33.038	
O	-0.0820307569	 1.443240634	-0.0331003746	-0.433888
C	 0.000889329	 0.0355735269	-0.0130472921	 0.026528
C	 0.6760781949	-0.5223329837	-1.2799477287	-0.251563
C	-0.0158921046	-0.0058506781	-2.562583753	-0.009402
O	 0.2016759894	 1.3666899031	-2.7793290221	-0.425914
C	 0.4960629915	-0.7424126882	-3.7325412317	 0.289761
N	 0.889251076	-1.3609755239	-4.6247967157	-0.312616
C	 0.7576248123	-0.408465004	 1.2251666066	 0.139188
O	 1.2254782869	 0.3981180297	 1.9906037119	-0.250072
H	 0.4408810979	 1.7524543142	 0.7265433982	 0.305777
H	-1.0165826479	-0.3868996563	 0.054971621	 0.113404
H	 1.7275026822	-0.2178344815	-1.3142829035	 0.140284
H	 0.6374697708	-1.6169421078	-1.2559821377	 0.129842
H	-1.0939775975	-0.2362880559	-2.4916860615	 0.115116
H	 0.0843547328	 1.7953121918	-1.917003285	 0.306907
H	 0.8646545033	-1.4997178103	 1.3797707279	 0.116648
