19
gdb 69134	2.54966	1.64733	1.28519	3.4237	79.11	-0.2303	-0.0164	0.2138	1052.5932	0.160048	-385.894319	-385.886571	-385.885627	-385.926202	31.247	
C	-0.0810237755	 1.4954267559	-0.0164499383	-0.4886
C	-0.0239518556	-0.0127516563	 0.0311769001	 0.348623
C	-0.5278634413	-0.754243862	 1.2333578684	-0.347242
C	 0.9611736231	-0.7681389678	 0.9065629077	-0.189333
C	 1.5504417685	-1.8866328291	 0.0799845694	 0.402207
O	 2.5018319715	-2.5583650479	 0.3985834424	-0.333234
C	 0.89986066	-1.9002567907	-1.2858710226	-0.142915
C	-0.5964126832	-2.1394434317	-1.413042754	-0.310441
C	-0.071365716	-0.7382103853	-1.3242102475	-0.098136
H	 0.6998725439	 1.9010307229	-0.6696484025	 0.123411
H	-1.0488670284	 1.8414135939	-0.3979342695	 0.123387
H	 0.0579008344	 1.9265383597	 0.9795537509	 0.119699
H	-0.796537949	-0.1577726498	 2.0996879875	 0.118617
H	-1.1143067224	-1.6589059693	 1.1380430997	 0.12154
H	 1.6364634804	-0.286124942	 1.6043537983	 0.104727
H	 1.5369650639	-2.1889324683	-2.113148294	 0.107987
H	-0.9250539301	-2.4810229617	-2.3889963388	 0.122399
H	-1.1478764362	-2.5833249496	-0.5943728217	 0.125232
H	-0.145555248	-0.1037903609	-2.2001883154	 0.092072
