18
gdb 33726	3.19038	1.57259	1.31944	1.7781	82.15	-0.2344	0.0422	0.2766	1004.8168	0.148997	-364.718918	-364.711869	-364.710925	-364.749997	29.742	
C	 0.006710571	-1.1898106793	-0.0383891458	-0.339836
C	 0.0198209439	 0.0120466479	-0.0162440757	 0.108691
C	 0.0686594037	 1.4511516986	 0.0262874738	 0.229952
C	-0.2872314177	 2.2983551548	 1.3009530373	-0.240411
C	 0.4925563347	 3.3952639138	 0.492177942	-0.084156
C	 1.4188500183	 2.238187714	 0.046004764	-0.281578
C	-0.4854179936	 3.5489008947	-0.6801378483	-0.017762
C	-0.1842152642	 2.94298204	-2.0026124976	-0.260074
N	-0.8485738308	 2.1315898476	-0.9664798228	-0.142895
H	-0.0142313552	-2.2511387691	-0.061363084	 0.181618
H	-1.352450308	 2.4542224551	 1.4825561864	 0.111517
H	 0.2274326893	 1.9601525633	 2.2017619202	 0.10688
H	 0.8781163655	 4.3002410442	 0.9588410949	 0.074103
H	 2.0519067299	 1.8874778989	 0.8612603642	 0.112988
H	 2.0155636625	 2.3215500054	-0.8616993218	 0.103645
H	-1.3059767589	 4.2538678117	-0.5742118194	 0.096941
H	-0.8452473189	 3.1799226866	-2.8318884033	 0.119772
H	 0.8338585188	 2.7298858218	-2.3055784241	 0.120605
