18
gdb 26192	4.16934	0.92593	0.89486	1.9386	75.85	-0.1955	0.0213	0.2168	1367.4116	0.14735	-439.106905	-439.097674	-439.09673	-439.141109	34.389	
C	-0.0035720493	 1.5687125709	 0.2886412359	-0.397993
C	-0.0273929509	 0.0630662939	-0.0020791551	 0.014263
O	 0.711236453	-0.6610346368	 0.9840197121	-0.429679
C	-1.4189383688	-0.468727764	-0.1376923836	 0.403561
C	-2.0948153437	-1.0968106481	-1.1359419783	-0.369105
C	-3.4096253769	-1.3843356028	-0.6288399968	 0.23602
N	-4.4562150969	-1.9575489088	-1.3634616418	-0.605253
C	-3.4255295603	-0.9100891608	 0.6490936847	-0.102569
O	-2.2157021869	-0.3382070245	 0.9564814147	-0.208999
H	 1.0298915055	 1.903687485	 0.4094020419	 0.12121
H	-0.4686590105	 2.1326350078	-0.5260053152	 0.119274
H	-0.5540566365	 1.7889217783	 1.2088248779	 0.122565
H	 0.4906056992	-0.1333827229	-0.9463865811	 0.098586
H	 0.1942791261	-0.6350291294	 1.7971166912	 0.284509
H	-1.7141479439	-1.3304902099	-2.1186611067	 0.105069
H	-4.1389629609	-2.6878426364	-1.9878550628	 0.246104
H	-5.1984597285	-2.3192196929	-0.7788783656	 0.243421
H	-4.1717147699	-0.8874543088	 1.4249889888	 0.119016
