22
gdb 120295	2.68635	1.1573	0.98434	2.8982	83.27	-0.2425	0.0827	0.3253	1316.3183	0.193811	-404.304293	-404.294965	-404.294021	-404.338718	35.556	
C	 0.5244588742	 1.2514775728	 0.0970476933	-0.486561
C	 0.1385498416	-0.1967300307	 0.166317184	 0.332908
C	-1.2552966794	-0.7640196528	-0.1822575371	-0.288802
C	-1.0848584192	-1.8318337589	 0.9426957615	-0.24076
C	 0.2984496695	-1.2350810329	 1.2600530726	-0.096252
N	 1.1699403303	-1.2206201026	 0.1050785723	-0.127346
C	 1.2262817913	-2.2916885612	-0.887123934	-0.164429
C	 2.2235792712	-1.8785538062	-1.9705270983	-0.043436
O	 3.4853337859	-1.5741135334	-1.4158020442	-0.422912
H	 1.4927159791	 1.413290868	 0.578115112	 0.128085
H	 0.6049723313	 1.5882636151	-0.9436528449	 0.123866
H	-0.2223392047	 1.881354675	 0.5923129252	 0.117718
H	-2.0499834462	-0.050262	 0.0469526261	 0.107253
H	-1.4009067584	-1.1200956251	-1.2067890359	 0.100176
H	-1.7971955013	-1.6925756987	 1.758508313	 0.106673
H	-1.0996328696	-2.8842911265	 0.6446001643	 0.103188
H	 0.7482624242	-1.1524502765	 2.244788346	 0.089856
H	 1.5980120382	-3.1895631511	-0.3803291462	 0.109847
H	 0.2577960757	-2.5385943104	-1.345309025	 0.089766
H	 2.3639557708	-2.6980619723	-2.6840599966	 0.100619
H	 1.8127246344	-1.0208924151	-2.5316034077	 0.078785
H	 3.2847018111	-1.0708138767	-0.6146509603	 0.281758
