14
gdb 45777	3.55195	1.13071	0.89405	1.4495	67.83	-0.2718	-0.0366	0.2352	1215.8114	0.100171	-436.694572	-436.686645	-436.685701	-436.727787	28.649	
O	-0.0209989834	 0.026861725	 0.1169267943	-0.314113
C	-0.0200794605	 1.214629651	 0.0549484329	 0.436702
O	-1.1893409953	 1.970857091	-0.0235449674	-0.201955
C	-0.775089079	 3.283651213	-0.0291057347	 0.120579
N	 0.4641594554	 3.5356486448	 0.016912743	-0.234769
C	 1.1240299275	 2.229683357	 0.0581708856	-0.148248
C	 2.0475321863	 2.0391788352	 1.2817247619	-0.359832
C	 3.2431599005	 2.8661913757	 1.2236457218	 0.308404
C	 4.2343331588	 3.5413948402	 1.1616482595	-0.428118
H	-1.5806091127	 4.0065358644	-0.0713983518	 0.162807
H	 1.7204026257	 2.0943846224	-0.8515377362	 0.151165
H	 1.4783351313	 2.2592578972	 2.192599034	 0.144709
H	 2.317549242	 0.977306979	 1.3243607792	 0.160543
H	 5.1089600135	 4.1417346139	 1.1149452077	 0.202125
