22
gdb 13726	5.50244	0.7883	0.73967	0.9562	80.	-0.2492	0.0916	0.3407	1614.2538	0.198787	-350.184973	-350.175127	-350.174183	-350.220366	34.822	
C	-0.0516908673	 1.3924832203	-0.2165950355	-0.226817
O	-0.0285060326	 0.0288144236	 0.1236078346	-0.231155
C	-1.2827111501	-0.5986776655	-0.0366898536	-0.039691
C	-1.148453636	-2.0662545711	 0.3552598177	-0.229534
C	-2.4608480356	-2.8099930513	 0.2227236604	 0.009281
C	-2.8962071579	-3.3974656801	-1.1027051669	-0.291143
C	-2.5488845812	-4.3104426678	 0.0488262726	-0.00636
C	-1.3332712979	-5.2107547451	-0.0009058338	-0.403183
H	 0.9556292106	 1.7877905089	-0.0626265844	 0.124234
H	-0.3366991929	 1.5484230433	-1.2698103531	 0.100654
H	-0.7555290479	 1.9609168559	 0.412982818	 0.100548
H	-2.04289667	-0.1014029301	 0.5919237092	 0.079383
H	-1.6271414175	-0.5127505931	-1.0816768597	 0.086337
H	-0.3762213055	-2.5187920898	-0.2750314551	 0.103931
H	-0.7798154064	-2.1169845724	 1.3874070761	 0.104369
H	-3.2612332896	-2.3792214918	 0.8213849213	 0.077631
H	-3.9315822785	-3.3019092512	-1.4115705395	 0.105824
H	-2.1845194203	-3.3453409901	-1.9221181583	 0.106486
H	-3.4015001633	-4.7664628707	 0.5465529774	 0.080487
H	-0.5046026503	-4.7529716812	-0.5482632741	 0.117577
H	-0.9721122506	-5.4535898485	 1.0049592447	 0.115961
H	-1.5728606893	-6.1544129321	-0.5035624881	 0.11518
