15
gdb 34353	2.9911	1.61738	1.31044	3.6722	69.18	-0.2561	0.004	0.2601	958.6863	0.113865	-416.732477	-416.725597	-416.724653	-416.763748	26.95	
N	-0.0254926913	-1.1678455399	-0.0132679938	-0.337381
C	-0.0173347085	-0.0110249754	 0.0025850305	 0.199324
C	-0.0128065719	 1.4265324682	 0.0338657716	 0.127289
C	-0.374048198	 2.2233653852	-1.2555860763	-0.115471
O	 0.8766184894	 2.9514487255	-1.2091838241	-0.274809
C	 1.2935120556	 2.2794827688	-0.0208232638	 0.080375
C	 0.9067870258	 2.9257530937	 1.3355564822	-0.066342
N	-0.4265630104	 3.5425062934	 1.1604580591	-0.325597
C	-0.3331231194	 2.097099695	 1.4047784469	-0.12423
H	-0.4360285638	 1.5971056785	-2.1506842579	 0.123043
H	-1.2403066099	 2.8818458799	-1.1688800239	 0.134527
H	 2.2903647424	 1.8377001909	-0.0764910817	 0.106909
H	 1.5768574939	 3.2574936497	 2.1183268416	 0.109235
H	-0.67442342	 3.9901211245	 2.0414742675	 0.245114
H	-0.8221888137	 1.6146868919	 2.2407643721	 0.118014
