17
gdb 46421	3.80629	0.82976	0.72438	5.9587	73.85	-0.263	0.0159	0.279	1500.8726	0.136554	-418.048191	-418.039301	-418.038357	-418.082839	31.375	
O	 0.1200485208	 0.0303937041	 0.0535238577	-0.363623
C	 0.0354470423	 1.2304598776	 0.0132975022	 0.436552
N	-1.0234597727	 2.1000571725	-0.0135546026	-0.318948
C	-0.2195017211	 3.3251287662	 0.0455715023	-0.19184
C	 1.044558705	 2.4114436021	 0.0190365806	-0.153353
C	 1.9903946252	 2.4548272577	 1.2146002668	-0.211859
C	 2.9904609461	 1.2784198582	 1.1692109499	-0.342799
C	 3.8868151424	 1.2713872755	 2.3218719357	 0.256299
N	 4.5879660626	 1.2863801953	 3.2403398039	-0.306113
H	-2.0190460321	 1.9421916314	 0.0374162863	 0.256698
H	-0.3429637303	 3.9869931503	-0.8165443488	 0.12036
H	-0.3462056019	 3.8976508822	 0.9703990424	 0.120099
H	 1.597942313	 2.4794188388	-0.9226384294	 0.107712
H	 2.537376107	 3.4035335073	 1.2331271605	 0.124979
H	 1.4160527301	 2.4003635816	 2.1461864646	 0.127936
H	 2.4422660742	 0.3313884747	 1.1264225999	 0.188018
H	 3.5970137694	 1.3323807943	 0.2574145581	 0.149882
