17
gdb 92799	3.33509	1.0813	0.89646	2.2493	73.06	-0.252	-0.0222	0.2298	1277.3744	0.136953	-455.187913	-455.179467	-455.178523	-455.221621	30.981	
O	 0.5121784335	 1.404602203	 0.7771662487	-0.433185
C	-0.1588543796	 0.3022036309	 0.1855010223	 0.11516
C	 0.5536356738	-1.0444249759	 0.4684240546	-0.191185
N	-0.1440471394	-1.666617339	 1.6008673648	-0.289644
C	-1.263669169	-1.0695783453	 1.7477694814	 0.412264
C	-1.5586829696	 0.068973478	 0.7976892635	-0.330233
N	-2.1408049661	-1.4988048778	 2.7399259284	-0.381024
C	-3.3955941029	-1.0175761868	 3.0282092076	 0.150869
O	-3.9587807847	-0.1121391478	 2.4606188368	-0.294643
H	 0.6295057553	 1.2149822792	 1.714973256	 0.282353
H	-0.2050310097	 0.5388860699	-0.879360389	 0.092623
H	 0.5103688396	-1.7215926333	-0.3949504231	 0.111498
H	 1.6118385504	-0.8856638066	 0.7004737912	 0.114672
H	-1.9608314545	 0.9590910927	 1.2820410615	 0.148053
H	-2.2987474306	-0.2475931896	 0.0541318229	 0.134871
H	-1.7980871296	-2.2793156365	 3.2841801366	 0.263523
H	-3.845470967	-1.5772588052	 3.870436626	 0.09403
