18
gdb 95706	3.46527	1.26491	0.99354	3.3165	70.46	-0.257	0.0329	0.2899	1188.9037	0.148345	-476.233164	-476.224862	-476.223918	-476.266379	31.128	
C	 0.6726360207	 1.6461528293	-0.0463030998	-0.407246
C	 0.0075923776	 0.2847736808	 0.0959388237	 0.107434
C	 0.1736961297	-0.5663181123	-1.1606091095	-0.087611
O	-0.6011062106	-1.7738672709	-1.1082544966	-0.230573
C	-0.0386871451	-2.8579637815	-0.5295028364	 0.421723
N	-0.1043002181	-3.983013423	-1.0931396886	-0.534907
O	 0.5794740034	-2.6426638441	 0.6691348893	-0.25009
C	 0.0831951222	-1.605491692	 1.5224447694	 0.011339
O	 0.5972063209	-0.3520520796	 1.2283379134	-0.231952
H	 1.7394174603	 1.5341487216	-0.2625460442	 0.133055
H	 0.2096258491	 2.22088652	-0.8532676137	 0.124508
H	 0.5713320463	 2.2086540292	 0.884589921	 0.136214
H	-1.0724114256	 0.4052421039	 0.2784066519	 0.087031
H	-0.2075600072	-0.023374832	-2.0292143296	 0.126704
H	 1.2317132347	-0.7994203612	-1.3242197784	 0.12888
H	 0.2693252613	-4.6960522012	-0.4685550327	 0.228679
H	-1.0155101806	-1.6096297991	 1.4930173629	 0.10846
H	 0.446617391	-1.8712312579	 2.515709268	 0.128353
