19
gdb 47540	2.69727	1.58747	1.09613	3.7862	77.55	-0.2345	0.0139	0.2484	1109.2881	0.161801	-419.181081	-419.173361	-419.172417	-419.213352	30.282	
N	-0.0338154273	 1.3862264957	-0.2560109435	-0.474193
C	-0.0385591203	 0.1541286965	 0.0350987147	 0.37243
C	-1.3471592775	-0.6102814527	 0.0694206042	-0.223937
N	-1.7107914897	-1.0799430048	 1.4087219307	-0.086749
C	-2.2980595025	-2.4192951159	 1.488237901	-0.26433
C	-0.9125262706	-2.1733366667	 1.9678544409	 0.017506
C	 0.3161875687	-2.6634208827	 1.2308697178	-0.256967
C	 1.3734724249	-1.5615208109	 1.1318050483	-0.061234
O	 1.1366310934	-0.5433256961	 0.1508846045	-0.259964
H	 0.9299308054	 1.7286605687	-0.2814368698	 0.218289
H	-2.1226217584	 0.0788114461	-0.2686524475	 0.139071
H	-1.2780737149	-1.4274450074	-0.6672547213	 0.098545
H	-3.1175314624	-2.5365031709	 2.1919097647	 0.120695
H	-2.4138547543	-2.9764740422	 0.5592340677	 0.110707
H	-0.7591197002	-2.0682292047	 3.0420174079	 0.095153
H	 0.7560219718	-3.5020372064	 1.7840699709	 0.111254
H	 0.079775148	-3.0399532029	 0.231219926	 0.114473
H	 1.5047846866	-1.0860105657	 2.1141889039	 0.111237
H	 2.3360692091	-1.986206507	 0.8353442689	 0.118014
