16
gdb 98754	2.97876	1.17563	1.0362	4.8339	67.53	-0.2638	-0.0573	0.2065	1179.2572	0.121797	-475.018445	-475.00936	-475.008416	-475.053096	31.618	
O	-0.0625063334	 1.3384222069	 0.1569319538	-0.418449
C	-0.063488827	-0.0491801362	 0.0038434215	-0.131894
C	-1.4821868805	-0.558408154	-0.2174518875	 0.391636
O	-2.4326962137	 0.1907097906	-0.1528635568	-0.363919
N	-1.5972892263	-1.8874425819	-0.5988154865	-0.086274
C	-1.0556849339	-3.0578745901	 0.0245937976	-0.246328
C	-2.5558935954	-2.8357152228	-0.0762319624	-0.106167
C	-3.2512476579	-2.507731285	 1.2157827134	 0.156394
O	-2.7263787801	-1.886444788	 2.1043165537	-0.251032
H	-0.9994416198	 1.5905551401	 0.1827261714	 0.297073
H	 0.565057665	-0.3536862183	-0.8456805433	 0.120508
H	 0.3404599988	-0.5550329783	 0.8974631711	 0.117447
H	-0.583850785	-3.7816335647	-0.6338746083	 0.140558
H	-0.6362674985	-2.9605114395	 1.0229691253	 0.157251
H	-3.1344132117	-3.3844836311	-0.8143483415	 0.119688
H	-4.2856050907	-2.8980361477	 1.3063242584	 0.103508
