21
gdb 79350	2.32148	1.87622	1.74918	1.4011	79.36	-0.2181	0.0779	0.296	958.5153	0.186371	-387.099872	-387.092625	-387.091681	-387.131108	30.18	
C	-0.0204302768	 1.5884355096	-0.0786064682	-0.414465
C	 0.0775143107	 0.0617800288	-0.0447618891	 0.022824
C	 0.7820914265	-0.6014809135	-1.2226085842	-0.123442
C	 2.2969771702	-0.7375504113	-1.0864566439	-0.075044
C	 3.0475988626	 0.0613191684	-0.0299918886	-0.226785
C	 2.2552353906	 0.1187802779	 1.3060887457	-0.210623
C	 0.884654834	-0.5452387243	 1.1313286092	 0.048721
O	 1.1050622183	-1.9109925514	 0.738673828	-0.26843
C	 1.3854343386	-1.8524757386	-0.6434550459	 0.088046
H	 0.955915	 2.0635351138	-0.2093660983	 0.120317
H	-0.6536773812	 1.9109910541	-0.9113257171	 0.115399
H	-0.4667584536	 1.9796266099	 0.8425637947	 0.113137
H	-0.9396589816	-0.3487656458	 0.0075736562	 0.077184
H	 0.3260035563	-0.577343436	-2.2056919703	 0.079559
H	 2.832968895	-0.9029609449	-2.0167321181	 0.079324
H	 4.0291423649	-0.3959174174	 0.1346405984	 0.103563
H	 3.2439856343	 1.0710271537	-0.4083692791	 0.099824
H	 2.7871070647	-0.4251058125	 2.0917719261	 0.105634
H	 2.1392252206	 1.14928987	 1.6556316753	 0.096431
H	 0.3269050484	-0.5629480768	 2.0709336176	 0.074247
H	 1.3728808875	-2.8286208438	-1.1122255583	 0.094581
