20
gdb 38170	2.52666	1.8916	1.29643	1.8892	83.69	-0.2232	0.0118	0.235	1026.9634	0.174186	-365.991166	-365.983829	-365.982885	-366.022975	29.973	
C	 0.3377453675	 1.5571578637	 0.4861563041	-0.231326
C	 1.5733061934	 1.5900300681	-0.4624361157	-0.305202
C	 1.4847988425	 0.0662209798	-0.4942368122	 0.361267
N	 2.1113032511	-0.861080524	-1.4197119788	-0.410608
C	 2.4455437681	-0.917539255	 0.040387072	-0.127937
C	 1.9025908823	-1.9907416164	 0.9089870784	-0.07125
C	 0.6397772567	-2.0082280605	 1.3426146516	-0.056412
C	-0.4156616921	-0.9829240468	 1.0073123418	-0.302788
C	 0.0351159686	 0.1002799791	 0.0109396882	-0.057429
H	 0.6367357553	 1.5760427061	 1.5382053551	 0.10434
H	-0.4425182784	 2.3037381933	 0.325569242	 0.097829
H	 1.3340401909	 2.0295613662	-1.4357520853	 0.10686
H	 2.495608268	 2.0395719998	-0.087469189	 0.101421
H	 1.4643816687	-1.6168575203	-1.6421148208	 0.221982
H	 3.4707502744	-0.6124812619	 0.2385281408	 0.090363
H	 2.5850942693	-2.7828984012	 1.2065193275	 0.088946
H	 0.3130994839	-2.8226917663	 1.9857757147	 0.089487
H	-1.2935236896	-1.5145860889	 0.6174278064	 0.11105
H	-0.7662113562	-0.5182182164	 1.9402890237	 0.114132
H	-0.6518979645	 0.1405778114	-0.8422361646	 0.075274
