24
gdb 59937	2.17985	1.12125	0.92039	3.871	89.31	-0.3026	0.0431	0.3457	1444.88	0.214864	-368.447403	-368.436157	-368.435213	-368.483432	41.604	
C	-0.5231494713	 1.0344179198	-0.4511112783	-0.387957
C	-0.0476698637	-0.3886105905	-0.125560536	 0.017029
C	 0.7961203159	-0.9437382962	-1.2842976528	-0.386864
C	 0.7654540749	-0.4933181597	 1.1801763122	-0.188813
C	 0.060140606	-0.2224078465	 2.5420670028	 0.070905
C	-1.2574941678	-1.0160939205	 2.6800613974	-0.405792
C	 1.0285420917	-0.6277446144	 3.6808789373	-0.40114
C	-0.2276297927	 1.2123781133	 2.7144596429	 0.281473
N	-0.4441249024	 2.3345389897	 2.8911477794	-0.354711
H	 0.3274685774	 1.7212689374	-0.5310255645	 0.117843
H	-1.0513152931	 1.0469441716	-1.4102464669	 0.107718
H	-1.1975247838	 1.4388492261	 0.306412752	 0.136263
H	-0.9323105949	-1.0321616439	-0.0313485654	 0.075787
H	 1.7036169737	-0.3457062085	-1.4299638378	 0.115735
H	 1.1044848911	-1.9784467392	-1.1003012728	 0.108404
H	 0.2326984722	-0.9225379178	-2.2224637746	 0.113667
H	 1.159162814	-1.5155105286	 1.2509113365	 0.096799
H	 1.6404730798	 0.1657271365	 1.110921124	 0.106941
H	-1.0612969718	-2.0806827453	 2.517567032	 0.121067
H	-1.6776110995	-0.8926554918	 3.6818548652	 0.130813
H	-2.007825316	-0.6888937972	 1.9575322861	 0.1384
H	 1.9822531798	-0.1006082379	 3.5916506105	 0.133072
H	 0.6004719229	-0.3973552438	 4.6600088126	 0.132632
H	 1.2216881875	-1.7036828328	 3.6312732683	 0.120727
