13
gdb 2664	5.70895	1.41907	1.15293	1.9433	57.8	-0.2696	0.0013	0.2708	965.7566	0.100458	-340.636306	-340.628407	-340.627463	-340.669428	25.49	
C	-0.3430926535	 1.154301757	 0.2532957936	-0.255848
O	 0.6329199871	 0.1271269143	 0.0853052178	-0.19286
C	 0.5864671472	-0.8670208832	 0.9821292671	 0.147735
N	 1.4141315528	-1.816923738	 0.90549438	-0.23849
C	 1.3662075708	-2.8936349471	 1.8732190362	-0.239591
C	 0.324425569	-2.8081930157	 2.9146229214	 0.230825
N	-0.5079111877	-2.695600871	 3.7088863502	-0.314317
H	-0.2311123171	 1.6553122753	 1.2214744949	 0.136526
H	-0.1671780692	 1.8737203115	-0.5465657296	 0.151616
H	-1.359955756	 0.7556309133	 0.1640129575	 0.136528
H	-0.2006265488	-0.7712996347	 1.7420321621	 0.110384
H	 1.2350739138	-3.8436200243	 1.3402200509	 0.163749
H	 2.3401184817	-2.9640486275	 2.3735094577	 0.163742
