14
gdb 558	9.64201	2.2122	1.97612	2.8867	54.48	-0.2459	-0.023	0.2229	636.1846	0.119748	-270.431243	-270.425177	-270.424232	-270.46122	21.345	
O	 0.5447217081	-0.2645541674	-0.2221759514	-0.250699
C	 0.2399745337	 0.8829226442	-0.0196776663	 0.155344
C	 1.1914853075	 2.0413443321	 0.0576094541	-0.042544
C	 0.8610468102	 3.2902202716	-0.821718251	-0.232055
C	 1.2416864513	 4.2006466098	 0.3744867318	-0.204861
C	 1.0751858211	 2.9728249847	 1.3069046266	-0.232078
H	-0.8293043739	 1.1736698134	 0.1316558575	 0.061769
H	 2.2108517402	 1.681924247	-0.098566877	 0.091688
H	 1.417536308	 3.3954918384	-1.7549252547	 0.11225
H	-0.2095773317	 3.3420633485	-1.0464243398	 0.107801
H	 2.2831777616	 4.5285603369	 0.3185969159	 0.110284
H	 0.6133769151	 5.072849498	 0.5677545316	 0.103072
H	 0.0708629438	 2.9264337869	 1.7411925333	 0.107795
H	 1.805709675	 2.8201738061	 2.1035687795	 0.112236
