12
gdb 132696	3.1607	1.34332	0.94268	0.9985	60.4	-0.2416	-0.0322	0.2094	1085.3243	0.077366	-521.932607	-521.925793	-521.924849	-521.96397	26.06	
O	 0.0847234264	 1.3397181118	 0.0954448843	-0.416602
C	 0.0690545627	-0.0074940301	 0.0542515373	 0.460934
N	 0.0838777766	-0.5875620542	-1.1390747013	-0.361532
C	 0.0684265636	-1.9255386564	-1.1862469723	-0.106772
C	 0.0380293406	-2.7143685585	-0.0538811238	 0.104267
F	 0.0232040495	-4.0448761429	-0.1303391821	-0.061346
C	 0.0228292663	-2.0837721741	 1.1937130954	 0.221448
F	-0.0063578142	-2.8217981051	 2.294112183	-0.049397
C	 0.0382760434	-0.7071259084	 1.2667570268	-0.364865
H	 0.1052251768	 1.6347766958	-0.8254308666	 0.302431
H	 0.0806460962	-2.3963171742	-2.1649441211	 0.135337
H	 0.0270667421	-0.1938530338	 2.2188641305	 0.136098
