23
gdb 104114	2.85954	1.08382	0.97543	2.9283	85.1	-0.2341	-0.012	0.2222	1349.423	0.204814	-388.3388	-388.329129	-388.328185	-388.37314	37.202	
C	 0.1270680264	 1.5745834598	-0.0660045892	-0.397245
C	-0.0073917272	 0.0478209232	-0.0403188778	-0.216543
C	-1.4443273585	-0.5017803249	 0.0449552431	 0.295689
C	-2.2820438956	-0.0549667155	-1.1680145031	-0.429279
C	-1.4258063379	-2.0592890401	 0.1241574491	-0.248249
C	-2.7477615744	-2.4637132713	 0.7923932304	-0.331414
C	-3.141716197	-1.2568188001	 1.6532753095	 0.401795
O	-4.0609614358	-1.2159381632	 2.4292712821	-0.314357
C	-2.1644913717	-0.115646002	 1.3570956843	-0.348475
H	 1.1820287336	 1.8656005614	-0.0722012652	 0.115023
H	-0.3368376534	 2.0128330997	-0.954589618	 0.119779
H	-0.3357579147	 2.0347600521	 0.8133537797	 0.119256
H	 0.4724797814	-0.3714120987	-0.9353228784	 0.092014
H	 0.5579254813	-0.3432566718	 0.8160991425	 0.090354
H	-1.8028524738	-0.3586292373	-2.1052398009	 0.113166
H	-3.2844797591	-0.4956881209	-1.1504961135	 0.115436
H	-2.4103763523	 1.0310876089	-1.1912980445	 0.12
H	-1.2840830027	-2.5135605388	-0.8608027876	 0.099511
H	-0.5824310142	-2.3774454916	 0.7483975791	 0.097773
H	-3.5505092589	-2.6313103382	 0.0646022311	 0.133221
H	-2.6916152012	-3.3674890419	 1.4047681942	 0.127908
H	-1.4521068133	-0.0818874024	 2.193951117	 0.12177
H	-2.683268211	 0.8458483334	 1.340330616	 0.122867
