19
gdb 114807	2.67515	1.32891	1.18653	2.6514	70.92	-0.2503	0.0495	0.2998	1135.8954	0.15819	-460.118744	-460.110019	-460.109075	-460.152192	32.728	
C	 0.0146523827	 1.6498691016	 0.1217377216	-0.484982
C	 0.0598931745	 0.1493814293	 0.0467296699	 0.365242
O	-1.2305163157	-0.4709651449	 0.2766135037	-0.326467
C	-0.6766054728	-1.3876227295	 1.2564741194	-0.104691
C	 0.7397829062	-0.8619094617	 1.00116788	 0.02542
O	 1.4039082637	-1.5191551073	-0.092893776	-0.332209
C	 0.8707760221	-0.5634464473	-1.0644647203	 0.070946
C	 0.1556577849	-1.2805581066	-2.1940912702	-0.079892
O	 1.029175842	-2.2104594859	-2.8116315028	-0.424546
H	 1.0164827527	 2.0773118827	 0.0179992843	 0.127166
H	-0.6123660182	 2.0471666308	-0.6843550072	 0.137282
H	-0.4134025472	 1.9783054251	 1.0728215758	 0.129941
H	-1.0760717067	-1.1816556724	 2.257554475	 0.107177
H	-0.8377609133	-2.4389730251	 0.9966153861	 0.113092
H	 1.4054578376	-0.6445164072	 1.8381908785	 0.091488
H	 1.6925893521	 0.0486301461	-1.4596367707	 0.080665
H	-0.7519918712	-1.7616196367	-1.8070120397	 0.103711
H	-0.1445907729	-0.5625034644	-2.9652134672	 0.108582
H	 1.3697195795	-2.7671857664	-2.1009805203	 0.292075
