18
gdb 56749	2.93554	1.29632	1.07382	2.6168	76.07	-0.2408	0.0184	0.2592	1147.9462	0.149409	-398.050155	-398.04187	-398.040925	-398.083566	31.165	
N	 0.0072665723	 1.4954356348	 0.0468344167	-0.501504
C	 0.0342327799	 0.0317353169	 0.0098153131	-0.286585
C	 0.6373450174	-0.5225896473	-1.2231474448	 0.253295
N	 1.1339824413	-0.9208698898	-2.1887103433	-0.32552
C	 0.7667662857	-0.5050520836	 1.2350541223	 0.356935
C	 0.4291998479	-0.2686909632	 2.7219874783	-0.213835
N	 1.6792543551	-1.1655406778	 2.8086925295	-0.141194
C	 1.0195729737	-1.9644332587	 1.6679878307	-0.219057
C	 2.2314555651	-0.2746880041	 1.6809907124	-0.215381
H	 0.9518153177	 1.8575280064	-0.0518373473	 0.244632
H	-0.5225878765	 1.8561775511	-0.7409014134	 0.247818
H	-1.0031845754	-0.3225732319	 0.0543393211	 0.133595
H	 0.5780102092	 0.7335219899	 3.1284260485	 0.113688
H	-0.4723179608	-0.7382448158	 3.1247011045	 0.104338
H	 0.161866988	-2.5594600192	 1.993203645	 0.105771
H	 1.7254384897	-2.5604365588	 1.0848199815	 0.118818
H	 3.0266148111	-0.7473517946	 1.0994224116	 0.117265
H	 2.5176449788	 0.7240360956	 2.0213849133	 0.106924
