16
gdb 57841	2.4844	1.20341	1.051	3.5131	69.45	-0.2461	-0.0989	0.1472	1214.6884	0.120499	-475.051696	-475.041422	-475.040478	-475.088104	33.712	
C	 0.5548042911	 1.1524744209	 0.0797394428	-0.351143
N	 0.1052913108	-0.2116855093	-0.1560438116	-0.11434
C	 0.3425691384	-1.1708093377	 0.9080332122	-0.344524
C	-0.4878783491	-0.5116028612	-1.3318096885	 0.404727
O	-0.6995867116	 0.2692042142	-2.2488039138	-0.380407
C	-1.0364468626	-1.9117201431	-1.6008569271	 0.196839
O	-1.9380290947	-2.4303699549	-0.9863109537	-0.279857
C	-0.4624555454	-2.614529834	-2.8375580206	 0.086588
O	 0.6390216312	-2.3932073397	-3.2610428382	-0.206679
H	 1.629178784	 1.165116441	 0.295348384	 0.133218
H	 0.3524341977	 1.7413370902	-0.8138127367	 0.175954
H	 0.0228035443	 1.5881776867	 0.9336670193	 0.133749
H	-0.1549516677	-0.8470688554	 1.8299016143	 0.138958
H	-0.0474320369	-2.1507123099	 0.6399391368	 0.161481
H	 1.4169161067	-1.2580883834	 1.1103931967	 0.134935
H	-1.1293204962	-3.4110580544	-3.229890446	 0.110502
