24
gdb 60560	2.37733	1.20734	0.89268	1.1608	89.7	-0.2194	0.0864	0.3058	1406.5824	0.216514	-368.367449	-368.35742	-368.356476	-368.4025	37.96	
C	-0.2488780229	 1.7632416849	-0.3354375457	-0.387588
C	-0.0496241331	 0.26611064	-0.0378039283	-0.031377
C	-1.3932684637	-0.4323223882	 0.1094922557	 0.049268
C	-1.5896809837	-1.6105671022	 1.0285192929	-0.27312
C	-2.210902143	-0.2769621115	 1.3665814842	-0.282524
C	 0.7773452788	-0.3605739923	-1.15435572	 0.03729
C	 2.2539036227	-0.1638566943	-1.2384089972	-0.266913
N	 1.6959393036	-1.4920822433	-1.0160024756	-0.089333
C	 1.9409744426	-2.1136210575	 0.2746109038	-0.312788
H	 0.7098923377	 2.2871684419	-0.3930725825	 0.112623
H	-0.7627377047	 1.9035665105	-1.2936580089	 0.113124
H	-0.857787402	 2.2379824138	 0.4396204309	 0.114287
H	 0.4919947342	 0.1778824093	 0.9120300116	 0.066175
H	-1.9652685736	-0.4618643753	-0.8162925333	 0.079522
H	-2.2377754749	-2.4176494894	 0.7049117931	 0.110773
H	-0.746560972	-1.9346740779	 1.6283539913	 0.109422
H	-1.7757562306	 0.2849486105	 2.1873599323	 0.108146
H	-3.2861681109	-0.1670291196	 1.2787040173	 0.109883
H	 0.231241312	-0.3968606665	-2.0989243388	 0.082731
H	 2.7523204275	 0.0013948607	-2.1907256762	 0.109197
H	 2.7277672354	 0.3324228834	-0.3900297005	 0.098633
H	 1.9736639588	-1.4164139868	 1.1276084967	 0.095697
H	 1.169174876	-2.86366295	 0.4716123788	 0.126753
H	 2.9078620658	-2.6262367001	 0.2318862782	 0.120118
