19
gdb 88577	3.42244	1.09634	1.07459	2.1288	77.01	-0.2116	0.0223	0.234	1232.3459	0.160074	-419.203312	-419.194611	-419.193667	-419.237354	31.928	
C	 1.0118261474	 1.0268624237	-0.5358324322	-0.425663
C	 0.0296449296	 0.0638527347	 0.0755931588	 0.095181
O	 0.5390147648	-1.1555960351	 0.6290669499	-0.265659
C	-0.0639499643	-0.2129264384	 1.5232817599	-0.042572
C	 0.8422569612	 0.42500005	 2.5176263654	 0.349731
N	 0.4691287395	 1.3519647223	 3.317891706	-0.32814
C	 1.6507413242	 1.66601657	 4.1448174066	-0.157893
C	 2.8540622366	 0.9552015847	 3.4595483301	-0.1852
N	 2.1434589325	-0.0242873585	 2.63474238	-0.326088
H	 1.8908834992	 1.1610014747	 0.097997285	 0.123507
H	 1.3417320365	 0.6638466595	-1.5146511846	 0.131165
H	 0.5382311634	 2.0033745902	-0.6798577915	 0.135823
H	-0.8899106222	-0.0772576498	-0.4950642203	 0.099585
H	-1.033372779	-0.5040332812	 1.9237935598	 0.117717
H	 1.7915467323	 2.7472377329	 4.2278975204	 0.108354
H	 1.4905884964	 1.2806008102	 5.1606079944	 0.109816
H	 3.4426768357	 1.6519964605	 2.8451982789	 0.099713
H	 3.5299739541	 0.4706299769	 4.1691535182	 0.111567
H	 2.5760504021	-0.4859969171	 1.8503725352	 0.249056
