18
gdb 82188	2.8333	1.60587	1.29771	2.7958	69.84	-0.2357	0.0632	0.2989	1003.915	0.148674	-439.03868	-439.030984	-439.030039	-439.070377	31.426	
O	 0.038246712	 1.4312627467	 0.0911793796	-0.436934
C	 0.0174984837	 0.0220591387	-0.030103337	 0.116445
C	 0.7763518793	-0.6712240287	 1.1103445886	-0.066239
N	 0.2070371396	-0.304808769	 2.4273832545	-0.35813
C	-0.1365885423	-1.6052013896	 1.8040989239	-0.122924
C	-1.4766181646	-1.6319217906	 1.0741046732	 0.396488
O	-2.0365790919	-2.8887355801	 0.8460649351	-0.469822
C	-2.3222679063	-0.3911762827	 1.1453876714	-0.359455
C	-1.3844371178	-0.6175935054	-0.0315511968	-0.109703
H	-0.166711539	 1.6149303654	 1.0169711885	 0.288584
H	 0.5073063001	-0.20118539	-0.9834624836	 0.088116
H	 1.8466771861	-0.8286687577	 1.0281922108	 0.09176
H	 0.9054934423	-0.4434651447	 3.1532376383	 0.235766
H	 0.2024364833	-2.5257684063	 2.267145395	 0.090298
H	-2.5792368492	-3.1159151354	 1.6090163957	 0.284094
H	-3.3765972816	-0.5171079349	 0.921741618	 0.108488
H	-2.0882409759	 0.357402551	 1.8918663684	 0.12836
H	-1.8513657479	-0.8159995768	-0.9890448736	 0.094805
