19
gdb 82798	3.79787	1.6146	1.49548	1.3463	78.77	-0.2379	0.0079	0.2458	949.9619	0.161794	-385.871933	-385.865193	-385.864249	-385.902604	28.542	
C	-0.121883261	 1.6025414227	-0.0217711962	-0.431803
C	 0.0380948374	 0.0922177613	 0.0171282062	 0.023929
C	 1.1913225258	-0.5900395262	-0.7628726466	 0.06447
O	 2.3387561595	 0.0980635968	-0.299463446	-0.276988
C	 2.2237258808	-0.1615078445	 1.1546693723	 0.040937
C	 3.0135305313	-1.4329044952	 1.3607314911	-0.086301
C	 2.3243057548	-2.4136009576	 0.7598135224	-0.084227
C	 1.0443606031	-1.833958223	 0.2646057501	-0.088102
C	 0.7388803424	-0.6201017727	 1.2014984739	-0.081506
H	 0.8434722654	 2.1028953417	 0.0852380223	 0.13154
H	-0.5624296316	 1.9263067904	-0.9712381412	 0.11282
H	-0.7820513802	 1.9476596706	 0.7816280595	 0.111106
H	-0.9112612592	-0.4134386407	-0.1896108256	 0.070476
H	 1.226008568	-0.7146306568	-1.8442783844	 0.077768
H	 2.5216598793	 0.73175063	 1.7014167339	 0.074172
H	 4.0197433156	-1.4767257705	 1.7567960497	 0.099795
H	 2.6576621381	-3.4284523404	 0.5803894381	 0.100396
H	 0.2149049192	-2.4976119212	 0.0271075567	 0.070635
H	 0.2916609514	-0.7571752346	 2.1863024039	 0.070884
