16
gdb 34666	3.43971	1.17717	0.9084	3.7415	74.04	-0.2722	-0.0511	0.2211	1215.3936	0.125541	-437.889342	-437.8814	-437.880456	-437.922477	28.933	
N	 0.0663385581	-1.0034103707	-0.6847336921	-0.327631
C	 0.0206090662	 0.1018239298	-0.3403746049	 0.228799
C	 0.02322676	 1.4683331352	 0.0897285513	 0.110881
C	-1.1249350652	 2.160015994	 0.0314327519	-0.12381
C	-1.3792044168	 3.6117769109	 0.3290576651	-0.146381
O	-0.5507829782	 4.2512741883	 1.2723634814	-0.215309
C	 0.8216912853	 4.2315842909	 1.0043481114	 0.008154
O	 1.4352458825	 3.0393712836	 1.407341853	-0.215149
C	 1.4033631005	 1.9825904446	 0.4812783722	-0.178769
H	-2.0017578473	 1.6343918106	-0.3401072709	 0.126738
H	-1.3555088557	 4.1549359909	-0.6355356851	 0.120134
H	-2.3976967986	 3.71879294	 0.7156214709	 0.137747
H	 1.0167811416	 4.4269316824	-0.0662804484	 0.079654
H	 1.2588069415	 5.022040377	 1.6177461992	 0.126823
H	 1.9719436238	 1.1673449458	 0.9361825347	 0.145348
H	 1.9325231323	 2.2644260967	-0.4462902898	 0.122771
