21
gdb 108530	2.7093	1.63042	1.2389	1.6407	81.4	-0.2339	0.0801	0.3141	1087.65	0.184131	-387.051223	-387.043481	-387.042537	-387.083419	31.264	
C	-0.1703610272	 1.5313073843	-0.0005119844	-0.382869
C	 0.1400208046	 0.0279956459	 0.0405143479	-0.299792
C	 0.780571959	-0.5024332252	-1.2270408872	 0.331773
C	 2.1638529462	 0.0297605812	-1.614105383	-0.145133
O	 2.4322983842	-0.6980530096	-2.8196520933	-0.282435
C	 1.2693348315	-1.4861576803	-2.9500077466	 0.14767
C	 0.8163756902	-2.0435051262	-1.5709615696	-0.140368
C	-0.647210893	-1.9705229634	-2.0605037881	-0.266476
C	-0.0049278676	-0.6683048077	-2.5885634135	-0.128021
H	 0.7373354016	 2.1319115494	-0.1157855487	 0.120152
H	-0.837095019	 1.7736885324	-0.8346871835	 0.120443
H	-0.6618701922	 1.8517664781	 0.9230234419	 0.114511
H	 0.8087819921	-0.1831066939	 0.8859585708	 0.098503
H	-0.7850283968	-0.521834072	 0.2463269701	 0.102115
H	 2.1767639925	 1.1071581965	-1.8191854206	 0.100532
H	 2.9296324077	-0.1912226562	-0.8582355474	 0.097184
H	 1.3164763645	-2.1147355608	-3.8384838034	 0.084347
H	 1.2981947813	-2.8288146332	-0.9856045854	 0.068205
H	-0.9466474514	-2.7067981199	-2.8121481175	 0.091919
H	-1.4213520355	-1.8687826975	-1.2981877863	 0.099044
H	-0.4671312027	 0.124625158	-3.1789784021	 0.068696
