21
gdb 78763	2.48614	1.55015	1.25557	1.132	82.37	-0.2322	0.074	0.3062	1119.3807	0.181037	-387.049601	-387.040594	-387.03965	-387.082539	35.365	
C	-0.0312327382	 1.6248402042	 0.0451709922	-0.431227
C	 0.09538927	 0.1071022743	-0.0086816878	-0.027155
C	 0.8282564638	-0.5976608778	-1.1522002474	-0.1244
C	 1.3009300382	-1.7121368512	-0.2468846504	-0.181679
C	 2.3198389679	-0.730101937	-0.7788988764	 0.353134
C	 3.385338924	-0.9484028396	-1.811226883	-0.502655
C	 2.4931853226	-0.0899265036	 0.6015992918	-0.360472
C	 1.086853219	-0.6719675579	 0.9191858022	 0.367554
O	 0.7282815905	-1.0596423186	 2.2026759789	-0.483004
H	 0.9234696717	 2.1267206397	-0.135865322	 0.117455
H	-0.7364554876	 1.9814083231	-0.7137512656	 0.11646
H	-0.4101185334	 1.956915029	 1.0195987675	 0.105153
H	-0.8892927915	-0.3588860904	 0.1163706038	 0.074127
H	 0.5143358069	-0.6863386383	-2.1854838999	 0.0777
H	 1.211861447	-2.7869894399	-0.3049574792	 0.090352
H	 3.0106222561	-1.5559923021	-2.6422966179	 0.117383
H	 3.7369640413	 0.0024315721	-2.2293619657	 0.117542
H	 4.252934169	-1.4658332276	-1.3860637504	 0.117389
H	 3.2572965972	-0.6200086045	 1.178747688	 0.097401
H	 2.6507306111	 0.992169836	 0.6831736122	 0.079127
H	 0.7387642743	-0.2803157097	 2.7696232295	 0.279816
