15
gdb 19379	4.2039	1.74035	1.5065	2.7553	60.57	-0.2191	0.0492	0.2683	850.9864	0.11765	-399.680111	-399.672992	-399.672048	-399.711553	27.	
O	 0.0950669933	 1.4080065391	 0.1406982087	-0.42076
C	-0.0094667592	 0.0209525371	-0.1517557898	-0.211969
C	-1.4501036465	-0.3537506957	-0.0493903243	 0.458004
O	-1.8915713268	-1.5702312349	-0.6460758059	-0.265656
C	-2.5641326833	-0.3574884892	-0.999372704	-0.054921
C	-3.55950864	 0.0291619847	 0.1528832679	-0.087633
N	-3.4791268614	-1.0189422809	 1.1993650275	-0.317449
C	-2.4390082877	 0.0333895332	 1.1164969482	-0.143976
H	 1.0269778064	 1.621594153	 0.2420504893	 0.293495
H	 0.3479515267	-0.2222370353	-1.1634404678	 0.105236
H	 0.5739017045	-0.5827173155	 0.5621169821	 0.101125
H	-2.6253444364	-0.0924629819	-2.0479592383	 0.108969
H	-4.4042214772	 0.698288034	 0.0624045903	 0.099423
H	-4.1192909149	-0.7314730023	 1.940974776	 0.23126
H	-2.2196295276	 0.7137044645	 1.9273526002	 0.104852
