14
gdb 47374	2.64894	1.46484	1.17335	3.9846	61.86	-0.2907	-0.0235	0.2672	1036.0231	0.101433	-473.857987	-473.850338	-473.849394	-473.890892	27.577	
O	-0.0507096298	 0.0096445485	 0.5449716765	-0.293554
C	-0.0853687404	 1.1153035122	 0.0961560846	 0.414519
C	-1.3486002395	 1.9496091177	-0.0292518345	-0.334831
C	-1.2143512655	 3.1015776851	-1.0202409427	-0.12537
O	 0.0281442519	 3.7696682461	-0.7771752428	-0.213855
C	 1.1089397584	 2.9411133639	-1.0019990555	 0.061802
O	 1.0967675213	 1.7243788189	-0.2520425116	-0.230025
C	 1.2522737567	 2.5939431163	-2.44518415	 0.282965
N	 1.3658857173	 2.3531344691	-3.5687278556	-0.314014
H	-2.1724216527	 1.2788449146	-0.2821284146	 0.153554
H	-1.5470853148	 2.3471379847	 0.9730145199	 0.159647
H	-1.2497021761	 2.747690646	-2.0590831651	 0.139705
H	-1.9944201916	 3.8515071331	-0.8843403998	 0.139086
H	 2.0023769447	 3.4808292537	-0.6790962189	 0.160374
