17
gdb 42839	3.08665	1.83926	1.66692	4.1074	70.52	-0.2361	0.003	0.2391	868.8127	0.138511	-421.784207	-421.778002	-421.777058	-421.814464	26.443	
O	-0.0001976655	 0.0581888943	-0.0064813754	-0.3198
C	-0.0165989995	 1.2462105573	-0.0749953923	 0.472908
C	-1.0982596493	 2.3554430631	 0.0686484854	-0.173262
C	-0.0246174562	 2.9956219781	 1.0070302637	-0.25738
C	 1.0393366081	 2.3832732386	 0.0394934592	-0.173262
C	 0.9382570474	 3.0979458197	-1.3589183568	 0.085725
C	-0.0731787989	 4.264237984	-1.3423482671	-0.23871
C	-1.0539881986	 3.0720069695	-1.3317458057	 0.085725
O	-0.0588542343	 2.3394681347	-2.1295228747	-0.297047
H	-2.0968541033	 2.1248702752	 0.4371719554	 0.085043
H	-0.0367881504	 4.0755623138	 1.1455546851	 0.112267
H	-0.0049472394	 2.5104253754	 1.9860548344	 0.121028
H	 2.0532722816	 2.1789024322	 0.3805670311	 0.085043
H	 1.8922358163	 3.1859605708	-1.8793904182	 0.092835
H	-0.0720720681	 5.010531126	-0.5488040265	 0.105305
H	-0.0928359426	 4.7531898726	-2.3167954837	 0.120745
H	-2.0237722123	 3.1349745143	-1.8259798134	 0.092835
