15
gdb 1922	4.72346	2.93915	2.51958	1.2762	60.66	-0.2275	0.0119	0.2394	597.6453	0.126188	-308.480308	-308.474602	-308.473658	-308.50924	23.618	
O	-0.0825057539	 1.4245779856	-0.0083043619	-0.48547
C	-0.0159617231	 0.0354223135	 0.0128235523	 0.380011
C	 0.3226713217	-0.809135288	 1.2982549745	-0.267519
C	-0.3698608325	-1.9202866606	 0.4359143483	-0.077294
C	-1.3385468876	-0.7846750684	-0.0519442535	-0.233377
C	 0.5970351285	-1.9959616115	-0.755887755	-0.073766
C	 0.8311635211	-0.7134189729	-1.038615327	-0.164122
H	 0.8144671438	 1.7734929953	 0.027295079	 0.278849
H	 1.3756761481	-0.9531938208	 1.5523925661	 0.086776
H	-0.2624883832	-0.5040438818	 2.1711214862	 0.096457
H	-0.7399487038	-2.8436405086	 0.8757433457	 0.066638
H	-2.0662643873	-0.4777674655	 0.7052619673	 0.098357
H	-1.8077056332	-0.9043990166	-1.0305578751	 0.095518
H	 0.9691654055	-2.8952411959	-1.2262252049	 0.101305
H	 1.4373008457	-0.2522657738	-1.806439522	 0.097638
