21
gdb 107842	3.50091	1.35578	1.31834	1.4217	81.25	-0.2358	0.0866	0.3224	1091.6578	0.184165	-387.060388	-387.05277	-387.051826	-387.092379	31.145	
C	 0.1441178112	 1.53555616	 0.1010091855	-0.384728
C	-0.0081068228	 0.0164247941	-0.0442442501	-0.304773
C	 0.6257065694	-0.5263102214	-1.2969629409	 0.442144
C	 0.2038603685	-0.0484829681	-2.7072596951	-0.243199
C	 0.9828174738	-1.1625843816	-3.4340990307	-0.091152
C	 0.2342571134	-2.4327850709	-2.9489852743	-0.254891
C	 0.8358762212	-2.0759716752	-1.5804649382	-0.127076
C	 2.0541321538	-1.4320537266	-2.2671585438	 0.118362
O	 2.0811237177	-0.3133070402	-1.3824804117	-0.332767
H	 1.199760405	 1.8192125639	 0.0688968984	 0.139735
H	-0.3723092528	 2.069569736	-0.702915327	 0.117525
H	-0.2736234678	 1.8789396697	 1.0518322806	 0.111186
H	 0.4451263444	-0.4848292041	 0.819010829	 0.105208
H	-1.0695545188	-0.2632350653	-0.0492520543	 0.099649
H	-0.8719432643	-0.0927174426	-2.9008450422	 0.09144
H	 0.572884022	 0.9608614389	-2.8980111521	 0.104689
H	 1.2625533035	-1.0165633082	-4.4758369417	 0.06567
H	-0.8525151034	-2.460270752	-3.073204622	 0.09307
H	 0.6712205532	-3.3585609024	-3.3350705092	 0.099638
H	 0.898445599	-2.7442298244	-0.7226839783	 0.069693
H	 3.0156372938	-1.8946171195	-2.4846198418	 0.080576
