17
gdb 43220	2.922	1.82745	1.61472	3.3635	71.13	-0.2396	-0.0151	0.2245	887.2623	0.138505	-421.810114	-421.80374	-421.802795	-421.840667	26.506	
O	 0.0364108883	 0.0159677219	 0.1144681342	-0.327113
C	 0.0266197359	 1.21214628	 0.0748602017	 0.462604
C	-1.082651641	 2.2798434265	-0.0305210772	-0.200174
C	-1.289388623	 2.8548019205	 1.3786776838	-0.094773
O	-0.018111565	 3.0723484223	 1.9914844202	-0.266062
C	 0.969586313	 3.3992032473	 1.0344470706	 0.11694
C	 0.4392378731	 4.4047514827	-0.0206021413	-0.266649
C	-0.0356291559	 3.17335734	-0.8119577745	-0.039609
C	 1.0710753728	 2.2898840618	-0.1117886303	-0.198103
H	-2.0238855246	 2.0174355356	-0.5152534518	 0.094602
H	-1.8612024603	 3.7922103866	 1.3254606748	 0.105456
H	-1.8351675561	 2.1572778147	 2.0202288469	 0.128689
H	 1.883423699	 3.623770747	 1.584475995	 0.095577
H	-0.2808017264	 5.1560560996	 0.3157961639	 0.106656
H	 1.2612523658	 4.9052166288	-0.5396257172	 0.110985
H	-0.1682892389	 3.2016554753	-1.8926527784	 0.083835
H	 2.0659576833	 2.0869066695	-0.5064891103	 0.087139
