16
gdb 77227	3.55074	1.08607	0.90418	1.3594	72.85	-0.2442	-0.0367	0.2075	1244.2585	0.122011	-437.825591	-437.816584	-437.81564	-437.860074	32.475	
O	-0.1287167016	 1.5410143767	-0.0570980787	-0.419283
C	-0.1544271229	 0.1549329605	 0.0079370229	 0.115645
C	-1.5523983055	-0.5537516103	 0.1870976658	-0.093019
N	-1.4476049247	-1.1570645424	-1.1497491511	-0.314584
C	-0.0570025893	-0.657294093	-1.3412727953	-0.241189
C	 0.1289301137	 0.1610473976	-2.5285751025	 0.334615
C	 0.2723279645	 0.9037979867	-3.4641644746	-0.415712
C	-1.5828166074	-1.5263844946	 1.333841603	 0.135969
O	-1.4650687617	-2.7203089861	 1.1980069249	-0.252991
H	-0.4417089495	 1.8108484202	-0.9312614556	 0.291755
H	 0.5882626979	-0.1467963572	 0.7501166487	 0.109451
H	-2.3749887814	 0.1656510985	 0.2992664376	 0.101779
H	-1.5030213415	-2.1708422433	-1.1034469128	 0.237676
H	 0.7124905429	-1.4368811096	-1.2967545363	 0.111803
H	 0.4060290133	 1.526380307	-4.3146554159	 0.207275
H	-1.7005784968	-1.0652214006	 2.3392617799	 0.09081
