18
gdb 57935	3.25845	0.97801	0.77157	4.283	71.1	-0.2444	0.0038	0.2481	1446.2076	0.147316	-472.455368	-472.445474	-472.44453	-472.490699	36.068	
C	 0.0212382378	 1.5469973378	 0.6512747431	-0.398177
C	-0.1333090541	 0.1941632829	-0.027442634	 0.057627
O	 0.6661259016	-0.821934228	 0.5933337937	-0.437188
C	-1.6008427747	-0.2457544368	-0.134968432	 0.332187
N	-2.5320293832	 0.6128280613	-0.19213398	-0.515792
N	-1.7085178823	-1.641882522	-0.2065692771	-0.396834
C	-2.8826585192	-2.3636343309	-0.3457241083	 0.475239
N	-2.6855857509	-3.7328285834	-0.3420644672	-0.563925
O	-3.9881259029	-1.860785735	-0.4238730083	-0.37823
H	 1.0694959274	 1.8563058136	 0.6362605307	 0.117604
H	-0.5931984855	 2.2921587398	 0.1451199213	 0.159574
H	-0.3218715536	 1.4968734866	 1.6913028663	 0.114699
H	 0.2574661309	 0.2513877896	-1.0515999863	 0.118263
H	 0.5477938632	-0.7389848607	 1.5468137204	 0.287367
H	-3.4346526515	 0.1473338	-0.302374782	 0.25104
H	-0.8418341316	-2.1237852584	-0.0088950779	 0.254532
H	-1.807663194	-4.1017717463	-0.6732282418	 0.254842
H	-3.5008362075	-4.25192537	-0.6297368105	 0.267171
