15
gdb 127564	3.26819	1.4076	0.98998	5.4078	73.37	-0.2222	-0.0338	0.1884	1120.3147	0.113341	-453.973948	-453.965972	-453.965028	-454.006586	29.573	
C	-0.0301532587	 1.4805790023	 0.0382205333	-0.321427
N	-0.006375849	 0.0214996205	 0.051502581	-0.05102
N	-0.0396208723	-0.5860591934	-1.1563020564	-0.202678
C	-0.020136484	-1.8794448801	-1.1909927664	-0.084258
C	 0.035900497	-2.7852501132	-0.024373829	 0.356846
O	 0.0511953863	-4.0051094376	-0.1441615475	-0.399123
C	 0.0684879915	-2.0539706857	 1.2218883168	-0.423612
C	 0.0462970862	-0.690826764	 1.2117658651	 0.521097
O	 0.0724724056	 0.1016130445	 2.3052121546	-0.416426
H	 0.8689171529	 1.8884180756	 0.507401122	 0.149197
H	-0.0721949035	 1.77721986	-1.0078608021	 0.162503
H	-0.9060762011	 1.860066428	 0.5706999705	 0.149203
H	-0.0481069191	-2.3272113156	-2.1799723371	 0.137409
H	 0.1105012814	-2.5964090843	 2.1597944884	 0.104972
H	 0.1096420268	-0.457284107	 3.0897400466	 0.31732
