14
gdb 130037	3.3346	1.66402	1.11852	1.477	70.19	-0.2366	-0.0401	0.1965	998.632	0.104059	-432.86451	-432.857795	-432.85685	-432.895456	26.296	
N	 0.0157935823	 1.3521756324	 0.1172347606	-0.579567
C	-0.0013708621	-0.0121167214	 0.0308131961	 0.289363
N	-1.0700660974	-0.7426842699	 0.0154918333	-0.318324
C	-0.6775296503	-2.1655141565	-0.0031475307	-0.289069
C	 0.8253978644	-2.1562550668	-0.0147116211	 0.139504
C	 1.1969760755	-0.852748559	 0.0098872758	 0.326804
O	 2.5196250779	-0.6924071371	 0.0031999154	-0.241406
N	 3.0831807662	-1.9859165756	-0.0277762324	-0.137103
C	 2.0691336642	-2.8309136163	-0.0359146438	-0.134514
H	 0.830701583	 1.826987975	-0.2365028389	 0.266953
H	-0.8642952665	 1.8059934572	-0.0761143331	 0.26567
H	-1.0968285031	-2.6733824549	 0.874116172	 0.136792
H	-1.1135751862	-2.6508113541	-0.8847440117	 0.135401
H	 2.2966011021	-3.887579093	-0.0583382214	 0.139497
