19
gdb 36803	8.45258	0.50817	0.49682	3.3594	78.26	-0.2555	0.0304	0.2859	2135.3514	0.158711	-419.180531	-419.170791	-419.169847	-419.216988	33.423	
N	-0.0761968639	-1.0590069459	-0.1471508785	-0.300694
C	-0.0025117407	 0.0933298359	-0.1851375564	 0.247148
C	 0.1161129884	 1.5470284267	-0.227372035	-0.33897
C	 1.54201597	 2.0178069429	 0.085425132	-0.048745
O	 1.5302790471	 3.4212556904	 0.011120886	-0.246277
C	 2.7893608076	 4.0091265148	 0.2909952364	-0.087108
C	 2.6460251783	 5.5043921107	 0.2490698958	 0.015891
C	 3.7872046889	 6.3320940227	-0.2154006145	-0.245819
N	 2.5748270721	 6.2083834608	-1.0384045284	-0.302698
H	-0.1750320348	 1.908090511	-1.2191433987	 0.164435
H	-0.5779757057	 1.9910754588	 0.4935805321	 0.16467
H	 1.8433820614	 1.6727413395	 1.0871348104	 0.111437
H	 2.250147734	 1.5841611401	-0.6385862801	 0.109669
H	 3.145133814	 3.6864144655	 1.2839709913	 0.099897
H	 3.5385809379	 3.6781957718	-0.4493624011	 0.08473
H	 1.9761061686	 5.9108764093	 1.0034435569	 0.102438
H	 3.9530826934	 7.315126921	 0.2150014992	 0.125378
H	 4.6931037445	 5.8202781978	-0.5318464122	 0.112622
H	 2.7317129891	 5.5520846561	-1.8001725652	 0.231996
