18
gdb 26965	3.02123	1.2616	0.95699	0.9321	79.43	-0.1752	0.0578	0.233	1230.4175	0.148328	-401.966212	-401.957567	-401.956622	-402.000324	32.566	
O	 0.2784861519	 1.3182270873	 0.1632197194	-0.439536
C	 0.117625928	-0.0235465384	-0.0018137528	 0.270806
C	-0.0390838861	-0.8210376201	-1.1147542603	 0.192033
C	-0.1470411518	-2.1620199515	-0.6126795771	-0.259343
C	-0.0444845947	-2.1237308701	 0.7525372796	-0.090687
N	 0.1181055949	-0.8017987623	 1.1196210384	-0.292381
C	-0.084916722	-0.3506183581	-2.5169691225	-0.123434
C	 0.2931234718	-1.2548243709	-3.6694004429	-0.26771
C	-1.1428843935	-0.8405302658	-3.4885176003	-0.263205
H	 0.0320795388	 1.7541688745	-0.6580127949	 0.305949
H	-0.2790113224	-3.0550257282	-1.2050325468	 0.089978
H	-0.0657799943	-2.9053778318	 1.4930994152	 0.11534
H	 0.2122416512	-0.4429852255	 2.0532383254	 0.263657
H	 0.2087602312	 0.6895074175	-2.6480874605	 0.051893
H	 0.8540913827	-0.8278681534	-4.4936498964	 0.10783
H	 0.5660664162	-2.2769190104	-3.430581836	 0.116854
H	-1.8433376998	-1.5803415684	-3.1164473489	 0.115798
H	-1.5693086021	-0.1329053846	-4.1917898786	 0.10616
