16
gdb 67910	2.45959	1.98876	1.38401	3.7111	67.88	-0.2571	-0.0127	0.2444	944.068	0.124031	-437.850715	-437.843417	-437.842473	-437.882227	28.58	
C	-0.1280550293	 1.4644153236	-0.026777375	-0.48926
C	 0.0347208151	-0.0244053608	 0.0522913465	 0.438357
O	-1.2501549969	-0.7491421721	 0.0151346165	-0.293049
C	-0.9200236874	-1.4902724606	 1.1363594904	 0.433564
O	-1.5886668097	-2.3055203015	 1.6831154043	-0.318885
C	 0.4667105973	-0.8483825517	 1.2674028423	-0.228848
N	 1.6232564777	-1.4847371649	 0.4974130016	-0.143371
C	 1.0860130335	-2.1837708639	-0.6874943035	-0.261295
C	 1.160650639	-0.7144473446	-0.7405048234	-0.074628
H	 0.8370024081	 1.9592070031	 0.11783459	 0.138103
H	-0.5163503513	 1.7539067141	-1.0089325376	 0.14304
H	-0.8243117191	 1.8199405858	 0.7372518856	 0.13966
H	 0.7829190928	-0.4548153862	 2.2306010889	 0.11952
H	 1.8630852428	-2.728229162	-1.214932123	 0.135821
H	 0.1276890622	-2.6914270124	-0.6469209856	 0.154814
H	 1.8705411053	-0.1781106357	-1.3617615781	 0.106456
