14
gdb 37499	3.46419	2.35823	2.0479	2.0524	64.9	-0.2179	-0.1151	0.1028	704.4813	0.101131	-436.514728	-436.509336	-436.508391	-436.544057	23.524	
O	-0.0303354518	 1.4304933888	 0.0205572632	-0.26833
C	 1.4092244896	 1.358988266	 0.0343827206	 0.088745
C	 1.3512986602	-0.0233669453	 0.8080296803	-0.130295
C	 0.0002745767	 0.0083516233	-0.025170393	 0.120216
C	 0.7221538663	-0.4023385608	-1.4026632808	-0.084293
N	 1.3721025311	-1.6019235443	-0.8059075317	-0.191136
C	 2.2493158039	-0.9145666442	-0.1346536284	 0.154368
O	 2.9876589334	 0.0184605605	-0.9554593457	-0.247309
C	 1.8379401268	 0.7494550425	-1.3213421515	 0.016431
H	 1.916537902	 2.2474242451	 0.4036360545	 0.108521
H	 1.3445907941	-0.0340701623	 1.8908021582	 0.121911
H	-0.929725472	-0.4848661985	 0.2468744452	 0.110072
H	 0.121995451	-0.5413254786	-2.2981676943	 0.09951
H	 1.9887974187	 1.3937006875	-2.1830786766	 0.101589
