20
gdb 78986	2.68686	1.95615	1.49724	1.4046	81.43	-0.2132	0.0842	0.2974	968.6592	0.171359	-365.928594	-365.920993	-365.920049	-365.960052	31.138	
C	-0.3539367566	 1.4905358096	-0.069311922	-0.418921
C	-0.073569493	-0.0021101008	-0.1112816884	 0.062884
C	 0.665589428	-0.5703697015	-1.3442208967	-0.136589
C	 0.8892425184	-2.0604885076	-0.9992849753	-0.088748
C	 1.2087867329	-1.8901645496	 0.4954401124	-0.021102
C	 2.3123151371	-1.8579983677	-0.5134958387	-0.178699
C	 2.0218711084	-0.337065989	-0.5732836642	 0.384698
C	 3.0458141517	 0.7415244025	-0.7416435384	-0.533704
N	 1.138239263	-0.4142269396	 0.7066229779	-0.200825
H	 0.5013940159	 2.0879447435	-0.3940698733	 0.1188
H	-1.1982632003	 1.7352756201	-0.7229459911	 0.112191
H	-0.6092954065	 1.7988187764	 0.9492028449	 0.125199
H	-0.9721282849	-0.5550438853	 0.1867112071	 0.067402
H	 0.4693132335	-0.279036375	-2.3768100896	 0.06093
H	 0.4260087237	-2.9430718798	-1.4183458751	 0.087133
H	 0.9688188581	-2.6130540987	 1.2642419448	 0.088283
H	 3.2137040751	-2.4458469613	-0.6217062079	 0.089735
H	 3.5618709962	 0.6268664735	-1.7018689941	 0.121344
H	 2.606817969	 1.7419097779	-0.7098424875	 0.128905
H	 3.7938403701	 0.6762866025	 0.0562243653	 0.131085
