20
gdb 96380	2.30342	1.64646	1.25	1.3131	74.45	-0.2407	0.055	0.2957	1078.4643	0.172392	-440.256795	-440.248427	-440.247483	-440.289438	32.666	
O	 0.0820428296	 1.4336290767	-0.1436733979	-0.437632
C	 0.0104478144	 0.0156961754	-0.0155155235	 0.038008
C	 0.7268572494	-0.4890793593	 1.2479887408	-0.229229
C	-0.1089164319	-0.1954920181	 2.4975973073	-0.081296
O	-1.3999054744	-0.7693760748	 2.407154506	-0.239471
C	-2.1379226134	-0.2576452196	 1.3103444674	-0.142114
C	-1.4293678928	-0.4881148428	-0.0108513984	 0.313699
C	-2.1864876202	-0.5062784236	-1.2807261737	-0.294078
N	-1.7418557044	-1.7716858687	-0.6635690498	-0.350967
H	-0.3425912446	 1.8334032039	 0.6222851148	 0.28063
H	 0.5182714905	-0.3631372543	-0.9106451144	 0.074208
H	 0.8691633719	-1.573178909	 1.1723452525	 0.111428
H	 1.7124035953	-0.0183187795	 1.3238041804	 0.104692
H	 0.3574063466	-0.6203429433	 3.3904158525	 0.114762
H	-0.1891639619	 0.8960591542	 2.661882711	 0.075261
H	-3.1015726398	-0.771522747	 1.3116895429	 0.1215
H	-2.3227497182	 0.8238977396	 1.4531404514	 0.076233
H	-3.2628004826	-0.3539560842	-1.279507039	 0.116986
H	-1.6799264576	-0.1448356465	-2.1720169646	 0.118631
H	-0.9234882159	-2.1255197691	-1.1556474459	 0.228751
