14
gdb 132431	3.23719	1.36683	0.96674	0.5535	67.28	-0.2442	-0.0431	0.2011	1115.9614	0.101686	-478.054472	-478.04693	-478.045986	-478.086701	27.883	
C	-0.0249134478	 1.5156351152	 0.0040687601	-0.477219
C	-0.0061749831	 0.0170456592	-0.0236368388	 0.123055
C	-0.0506826429	-0.7261324196	-1.1626403924	-0.070293
N	-0.0349939922	-2.1034267782	-1.225295204	-0.360025
C	 0.0270540971	-2.6906436617	-0.0925011379	 0.424974
F	 0.0481749182	-4.0082787846	-0.023139511	-0.052515
N	 0.0764491689	-2.0831838208	 1.1114474802	-0.418097
C	 0.0644335121	-0.6723743025	 1.2579533995	 0.382759
O	 0.1105804372	-0.1735356821	 2.3641069372	-0.36973
H	 0.8706335274	 1.9068404475	 0.4983255792	 0.145924
H	-0.0781191324	 1.9288128081	-1.0060732334	 0.122066
H	-0.8801207572	 1.8834235378	 0.5808720886	 0.145906
H	-0.1033195307	-0.2348777363	-2.1302063138	 0.123941
H	 0.1244629253	-2.6311051321	 1.9609747864	 0.279255
