21
gdb 74493	2.74111	1.32607	0.99043	2.0693	86.98	-0.2317	0.0147	0.2464	1260.8589	0.183199	-387.101399	-387.092893	-387.091949	-387.134292	33.426	
C	-0.0299948694	 1.5237732948	 0.0457805667	-0.473174
C	 0.0063330032	 0.0219588801	-0.0144946262	 0.290374
C	-0.0366168254	-0.646331464	-1.1728030479	-0.190687
C	-0.0437960325	-2.1255410739	-1.2640044863	 0.415162
C	-0.4170128911	-2.7844439152	-2.5261165563	-0.243634
O	 0.9557962154	-2.6794784342	-2.163235374	-0.284142
C	-0.2242085449	-2.8603145567	 0.0503755607	-0.284905
C	 0.5532013827	-2.1561323616	 1.167414782	-0.22168
C	 0.0884560013	-0.7014685638	 1.3119418506	-0.288198
H	 0.876329341	 1.921198145	 0.5204226909	 0.125485
H	-0.1200393749	 1.9691403095	-0.9483949243	 0.12189
H	-0.8753666745	 1.871843746	 0.65385397	 0.123483
H	-0.0616422003	-0.1050976927	-2.1157025024	 0.079072
H	-0.8375736625	-3.7904472265	-2.4978628383	 0.105252
H	-0.7264861925	-2.1829171595	-3.3813234134	 0.106651
H	-1.2929586144	-2.8796028242	 0.3041728205	 0.099046
H	 0.1038388337	-3.8963451146	-0.0747702196	 0.106455
H	 0.4330827017	-2.6892140514	 2.1160508289	 0.092569
H	 1.6219766279	-2.1723114613	 0.9224869836	 0.112582
H	 0.7634263108	-0.1531160296	 1.9814473894	 0.101832
H	-0.8972641352	-0.6660341061	 1.8018253754	 0.106567
