21
gdb 116939	4.014	0.45393	0.42417	0.3176	97.	-0.2376	0.0498	0.2874	2656.0401	0.179261	-349.913105	-349.901398	-349.900453	-349.954268	39.039	
C	 0.4145036146	 1.5175217241	-0.0487783689	-0.381624
C	 0.5604327452	-0.0017915304	 0.0543633858	-0.153197
C	-0.1194466964	-0.5727544271	 1.3155782431	-0.334024
C	 0.009015864	-2.0207925983	 1.4360719498	 0.028973
C	 0.1330242323	-3.2154017555	 1.5134738138	 0.128655
C	 0.271701656	-4.6708331703	 1.6136494289	-0.498396
C	 1.3576431152	-5.1025945673	 2.4977637193	 0.08857
C	 2.2474669103	-5.4628909445	 3.2224356907	 0.06012
C	 3.3254666316	-5.8942034895	 4.1007884359	-0.495733
H	 0.8653766412	 2.0197422377	 0.8145304268	 0.115529
H	 0.9031918755	 1.9015627116	-0.9492341684	 0.114132
H	-0.6396497355	 1.8140893647	-0.0899615951	 0.115001
H	 0.1274302901	-0.4834645095	-0.829522104	 0.107216
H	 1.6202137988	-0.2795809204	 0.0682625547	 0.109639
H	 0.3089501107	-0.0925168708	 2.2059492845	 0.125396
H	-1.1827933414	-0.2965155512	 1.3096512821	 0.12299
H	-0.6765920179	-5.1036808378	 1.9629853418	 0.15265
H	 0.429994337	-5.0912249269	 0.6102229712	 0.152401
H	 2.9495553313	-6.5234508627	 4.915146836	 0.146425
H	 4.0780170451	-6.4738368761	 3.5547703768	 0.14631
H	 3.8338789023	-5.0359401396	 4.5538682952	 0.148969
