18
gdb 55924	4.12593	0.92545	0.85594	2.0741	74.05	-0.2427	0.0316	0.2743	1381.1226	0.146627	-439.080312	-439.071378	-439.070434	-439.116192	31.915	
C	 0.0541955478	 1.50932319	-0.091869892	-0.48489
C	 0.1346266256	-0.0036201717	 0.0390415648	 0.409418
O	 0.4229645376	-0.5491202387	 1.0892156201	-0.376032
N	-0.1483728485	-0.7003920991	-1.1037662518	-0.316539
C	-0.125225532	-2.1344030597	-1.1753287433	 0.022171
C	-1.448349716	-2.8922104666	-1.5967182961	-0.278905
C	-0.6918541036	-3.4146005798	-2.820042986	 0.034106
O	-0.2323435344	-2.2640901114	-3.5473576307	-0.258524
C	 0.545082703	-2.7200835484	-2.4293649475	 0.003111
H	 0.9897704344	 1.9424308568	 0.2701444143	 0.152814
H	-0.1303040079	 1.8538208181	-1.1126319901	 0.112905
H	-0.746990284	 1.8761061682	 0.5560249918	 0.152475
H	-0.3730037527	-0.2093199524	-1.9544203519	 0.25138
H	 0.2818516171	-2.5047666312	-0.2348920677	 0.127258
H	-1.7231525161	-3.6681436685	-0.8787721792	 0.118713
H	-2.3160203441	-2.2663026696	-1.8172334466	 0.109954
H	-0.8303751838	-4.3297591221	-3.381975145	 0.112258
H	 1.5892644376	-2.9466687439	-2.6117744531	 0.108327
