23
gdb 58316	3.26059	0.71657	0.61749	2.0037	88.62	-0.2548	0.0586	0.3134	1842.4614	0.202098	-388.264361	-388.252985	-388.252041	-388.301365	41.535	
C	 0.0895745128	 1.5446184867	 0.0649226806	-0.416309
C	-0.0201247624	 0.0184201991	 0.0531358522	 0.129504
O	 0.6312526941	-0.5295711551	 1.1994247865	-0.428381
C	-1.4691865236	-0.5084050138	-0.0697236947	 0.018276
C	-2.1913156692	 0.0776717401	-1.2926615288	-0.40939
C	-1.4695724756	-2.0486608495	-0.08837774	-0.178286
C	-2.8483164458	-2.6781135749	 0.201457691	-0.370015
C	-2.8133977314	-4.1357870097	 0.1938867161	 0.297892
C	-2.758758026	-5.3366087102	 0.1800978307	-0.43957
H	 1.1265945833	 1.8325191407	 0.2568677435	 0.125493
H	-0.2190587657	 1.9881340615	-0.8850407232	 0.12225
H	-0.537491218	 1.9762540927	 0.8561982923	 0.104902
H	 0.5584951703	-0.3719089596	-0.7950154985	 0.088299
H	 0.2109652425	-0.1515655487	 1.9802495667	 0.274565
H	-2.0021428061	-0.1765787724	 0.8372749034	 0.054877
H	-2.3217088226	 1.159951485	-1.2143689018	 0.117768
H	-1.6286089124	-0.1284285599	-2.2112643507	 0.117854
H	-3.1870550574	-0.3580128368	-1.4151462601	 0.11755
H	-1.1142495353	-2.4025034608	-1.0644627623	 0.101494
H	-0.7556472547	-2.4097106694	 0.6554888195	 0.126978
H	-3.2080771793	-2.3289550595	 1.1789415214	 0.124741
H	-3.5893784463	-2.3363973791	-0.5317205107	 0.128098
H	-2.7201693014	-6.3974027865	 0.1710393967	 0.191411
