18
gdb 22637	3.76581	1.08442	0.97792	1.9995	76.34	-0.2283	0.0146	0.2429	1227.2581	0.147381	-439.04388	-439.035523	-439.034579	-439.076483	32.835	
O	-0.1008149518	 1.313880714	-0.0517093107	-0.397208
N	 0.0235022237	-0.0910911652	-0.0552567482	-0.254488
C	-1.1144944359	-0.6540728476	 0.0518965123	 0.443988
C	-2.4783886701	-0.0061279309	 0.2054130141	-0.32742
C	-3.3478825155	-1.0882988355	 0.8903523896	-0.289085
C	-2.6514702903	-2.4187139314	 0.6126869203	 0.405579
O	-2.8376779224	-3.4555653549	 1.5256141901	-0.468677
C	-2.3078490138	-2.7402580255	-0.8105709323	-0.357674
C	-1.2520554216	-2.1262372162	 0.1171818841	-0.16545
H	 0.8193320774	 1.5946762845	-0.0886342701	 0.304891
H	-2.4075246502	 0.920616457	 0.777303861	 0.137366
H	-2.8719619372	 0.2682273775	-0.7804855116	 0.12528
H	-3.3541548816	-0.9435380673	 1.9756221325	 0.11863
H	-4.3885318425	-1.0715981284	 0.5485061633	 0.094841
H	-3.6785022571	-3.8818968506	 1.3265738647	 0.283894
H	-2.1536521459	-3.7892798368	-1.0377313667	 0.120734
H	-2.7128806581	-2.1486906931	-1.6255593547	 0.11535
H	-0.403496117	-2.7358415195	 0.3974316723	 0.109449
