16
gdb 42697	4.31462	1.65514	1.53289	3.3315	71.32	-0.2426	-0.0198	0.2228	868.7266	0.127286	-400.6922	-400.686415	-400.68547	-400.722216	24.457	
O	-0.0411358536	 0.0047088872	 0.1058649519	-0.320383
C	-0.0188314319	 1.1920933282	-0.0267892958	 0.456126
C	-1.0590049155	 2.3209301163	 0.0045118687	-0.193848
C	 0.0288666712	 3.1511155243	 0.829520433	-0.070049
C	 0.3051272952	 4.3208183907	-0.1457637636	-0.000396
C	-0.9380702167	 4.5742196225	-0.9924908682	-0.246807
C	-0.7796868411	 3.0750694256	-1.3028904104	-0.00205
N	 0.7625089076	 3.2376548015	-1.1317413894	-0.161287
C	 1.0500246006	 2.2782277425	 0.0127986437	-0.144021
H	-2.0855729	 2.1659446247	 0.3275277234	 0.093209
H	-0.0447174992	 3.1947346062	 1.9138056924	 0.08856
H	 1.0173636435	 5.0941079446	 0.141363195	 0.085877
H	-1.8573610213	 4.9143512307	-0.5101559918	 0.104585
H	-0.7050339833	 5.1900039404	-1.8646448156	 0.122459
H	-1.1290794048	 2.6306825415	-2.2342993574	 0.092119
H	 2.1023042091	 2.115053263	 0.2301642442	 0.095908
