17
gdb 26132	2.54696	1.31939	1.05149	2.8362	71.55	-0.2059	0.0142	0.2201	1182.2815	0.134604	-458.982852	-458.973659	-458.972715	-459.017218	33.442	
C	-0.050185342	 1.6220701886	 0.2810375388	-0.397943
C	-0.0217915279	 0.1104836008	 0.0227202836	 0.011453
O	 0.7635096235	-0.5600431158	 1.0150830765	-0.428812
C	-1.3859665364	-0.4779141545	-0.099651688	 0.271668
C	-2.0125817472	-1.2169509185	-1.0590227151	 0.196809
O	-1.4520681796	-1.5625574277	-2.2500908484	-0.441588
C	-3.3256695761	-1.5250387561	-0.5712624939	-0.305883
C	-3.3994308469	-0.9528323818	 0.6590347888	-0.002665
O	-2.2468361257	-0.3136988438	 0.9622670169	-0.200182
H	 0.9709395354	 1.99673322	 0.3890656958	 0.120915
H	-0.5390352809	 2.1510229637	-0.5430182891	 0.118165
H	-0.603138155	 1.8448215684	 1.1996271047	 0.118015
H	 0.4918452429	-0.0884936635	-0.9231137751	 0.111704
H	 0.2715154742	-0.5148649705	 1.8423907297	 0.280721
H	-2.0668242558	-2.1199667566	-2.7348785944	 0.301553
H	-4.097312785	-2.0925738354	-1.0692070073	 0.109755
H	-4.1742827774	-0.9123929973	 1.4068507865	 0.136316
