17
gdb 126764	2.67189	1.34643	0.95565	3.0335	71.95	-0.2325	0.0064	0.2389	1243.8803	0.135605	-455.204154	-455.195266	-455.194321	-455.238501	31.49	
C	-0.0983555715	 1.5701714319	 0.2238835514	-0.378987
C	-0.092119186	 0.070299619	-0.0691501686	-0.148867
N	-1.4207795682	-0.5107100847	-0.0544039372	-0.091099
N	-2.1557154344	-0.6190111205	 1.1129043733	-0.290635
C	-3.2620005115	-1.1557572125	 0.7355633127	 0.416933
C	-4.4249766058	-1.5075151947	 1.582968787	-0.487783
O	-3.3235652547	-1.4131466858	-0.5997034518	-0.232592
C	-2.1037087947	-0.9855036287	-1.137791405	 0.47349
O	-1.8025911986	-1.0567869329	-2.2968595003	-0.405577
H	 0.9258195642	 1.9547330384	 0.2247850427	 0.123788
H	-0.6698907567	 2.1132337497	-0.5342542249	 0.132424
H	-0.5422088182	 1.7691666809	 1.2028723174	 0.140912
H	 0.3048989916	-0.1376865619	-1.0659142498	 0.150903
H	 0.5237960191	-0.4638932721	 0.6620053072	 0.127194
H	-5.3221779098	-0.9776016618	 1.2474492635	 0.155073
H	-4.6343665673	-2.5805349527	 1.5264404617	 0.155296
H	-4.2105379175	-1.2356000115	 2.6170044407	 0.159525
