20
gdb 63833	2.68975	1.49521	1.21334	3.6129	78.98	-0.2418	0.0279	0.2697	1102.6333	0.170767	-403.165572	-403.156939	-403.155995	-403.198479	33.694	
C	-0.1320387905	 1.5690465263	 0.0367103602	-0.442158
C	-0.0005343227	 0.0481511125	 0.0123880466	 0.331139
C	-1.3589364537	-0.6088189077	-0.2439740428	-0.440135
C	 1.1151774323	-0.5393755637	-0.921997873	-0.29498
C	 1.7758463516	-1.2456363738	 0.2928611091	 0.027389
N	 2.7849699514	-0.4576128811	 1.0043049701	-0.326449
C	 1.8842551114	 0.1962533265	 1.8283156036	 0.420691
O	 2.0175441955	 1.0813038996	 2.6304362485	-0.367214
C	 0.7102329022	-0.6205883555	 1.2497559895	-0.233964
H	 0.8253905065	 2.0611136671	 0.227117197	 0.128412
H	-0.5148749303	 1.9326251968	-0.9239537828	 0.109091
H	-0.8276466809	 1.8915612047	 0.8189636152	 0.122951
H	-1.7630310673	-0.2968622896	-1.2138157753	 0.115114
H	-1.284598233	-1.7017245728	-0.248348697	 0.111694
H	-2.0813968314	-0.3252205271	 0.5295618825	 0.118717
H	 0.7291379434	-1.2266488306	-1.6793165268	 0.103493
H	 1.7573114096	 0.1960001005	-1.4136064234	 0.097578
H	 1.9889773086	-2.3130193846	 0.2307454102	 0.08665
H	 3.6995125499	-0.1505016666	 0.69955698	 0.243261
H	 0.0945854972	-1.1863832309	 1.9475890387	 0.08872
