22
gdb 88664	3.10058	1.07057	1.01691	3.1419	83.46	-0.2329	0.0814	0.3143	1312.0269	0.194093	-404.304932	-404.295872	-404.294928	-404.338777	35.136	
C	-0.1726064539	 1.2362912848	-0.4153941254	-0.418019
C	-0.1360881549	-0.0772137498	 0.3353900731	 0.0298
C	 1.0744296569	-0.9502198063	 0.3194623661	-0.257936
N	 0.6538152133	-0.2908781065	 1.5534100826	-0.08889
C	 1.4970986699	 0.7714217704	 2.0961269621	 0.031782
C	 0.7308792531	 1.5276409785	 3.2175761816	-0.256014
C	 1.3010606945	 0.4945058404	 4.236982647	 0.156934
O	 0.4389219245	-0.5892331471	 4.4916410499	-0.44104
C	 2.4195708123	 0.1790104157	 3.1982293036	-0.254436
H	 0.8193040415	 1.6756527576	-0.5421047625	 0.124853
H	-0.5912792823	 1.0747932864	-1.4142949168	 0.125555
H	-0.8077721763	 1.9682540325	 0.0948930118	 0.128787
H	-1.1035161702	-0.5750405336	 0.3846916317	 0.094372
H	 0.9898716694	-2.0333755948	 0.2980322966	 0.116778
H	 1.9559037277	-0.5542368909	-0.1838945018	 0.10956
H	 1.9848506121	 1.3783687777	 1.3224651285	 0.050419
H	 1.1359261901	 2.5314906053	 3.3741270351	 0.096363
H	-0.3573698851	 1.5784943157	 3.1342711728	 0.100111
H	 1.6175214541	 0.877806708	 5.2100712598	 0.075386
H	 0.1758442682	-0.9227276563	 3.6200684332	 0.278222
H	 2.7087818538	-0.8697091566	 3.0967405858	 0.101698
H	 3.3112451013	 0.794297969	 3.3491321653	 0.095712
