19
gdb 82386	2.29544	2.02827	1.33616	2.6215	73.85	-0.2308	0.0619	0.2927	991.5179	0.163062	-419.16158	-419.154182	-419.153238	-419.19318	30.086	
O	 0.5247056214	 0.6428189297	-0.8652922826	-0.444185
C	 0.0243392771	-0.3706461588	-0.0076133423	 0.134313
C	 0.7217740088	-0.3138329747	 1.3444859851	-0.067415
N	 0.5805202944	 0.9591359023	 2.0752412582	-0.326614
C	-0.0224486565	-0.2630685846	 2.6310165721	-0.024762
C	-1.5356974939	-0.3552911346	 2.6885752411	-0.22615
C	-2.2393147969	-0.2541221881	 1.3482668	-0.02476
N	-2.0505530012	 0.9697519983	 0.5528131833	-0.326615
C	-1.4950958814	-0.3048923189	 0.0617349191	-0.067417
H	 0.2749783833	 1.4688442073	-0.4279918469	 0.296675
H	 0.295714463	-1.3206156157	-0.48322837	 0.079475
H	 1.7047991282	-0.7796169957	 1.3506356766	 0.082667
H	 1.4447043487	 1.1763785154	 2.5636891174	 0.229373
H	 0.4759378953	-0.7011319857	 3.4945175323	 0.080423
H	-1.7935189384	-1.3279721089	 3.1273607724	 0.099544
H	-1.9264066023	 0.4112139212	 3.3691500106	 0.112984
H	-3.238952375	-0.6861367058	 1.3449663824	 0.080423
H	-2.9033512425	 1.1939198458	 0.047764772	 0.229373
H	-1.9931021822	-0.7647024286	-0.7890852609	 0.082668
