20
gdb 113174	3.11079	1.02147	0.88457	15.248	78.28	-0.1642	-0.0169	0.1473	1371.8354	0.170085	-440.232667	-440.22269	-440.221746	-440.268079	35.792	
C	 0.0177330429	 1.4396503042	-0.2953788543	-0.344321
N	-0.0684809105	 0.0557879164	 0.2646734692	-0.242406
H	 0.5676763197	-0.5707937518	-0.237013694	 0.304954
H	 0.2526095358	 0.0564923055	 1.2359019186	 0.317212
C	-1.4352936083	-0.5536328778	 0.2218955817	-0.065015
C	-1.8791811352	-1.1567659295	-1.0738883508	-0.318635
C	-1.5517530015	-2.0435710213	 0.1124214404	 0.148912
C	-0.3338290405	-2.9368002704	 0.0772884089	-0.491162
C	-2.8114942863	-2.5874492625	 0.9115166572	 0.337224
O	-2.7364126621	-3.7820232171	 1.2183678893	-0.464733
O	-3.681266798	-1.7121145499	 1.0971199996	-0.489663
H	 1.0436854994	 1.8051168441	-0.2227051222	 0.164872
H	-0.3076594538	 1.400205733	-1.3340234795	 0.193224
H	-0.6560591018	 2.0780304247	 0.2757832521	 0.191548
H	-2.1478196904	-0.045927546	 0.8635533275	 0.158074
H	-2.9249685335	-1.0192103577	-1.3223307737	 0.158701
H	-1.1854696426	-1.139288203	-1.9138091036	 0.088299
H	 0.4308953889	-2.6391618772	-0.6606833739	 0.060354
H	 0.1378321522	-3.0124967905	 1.063849564	 0.116529
H	-0.6719816743	-3.9442428731	-0.1737753067	 0.176031
