19
gdb 69942	3.83796	1.35865	1.17991	1.6038	81.5	-0.2211	0.0155	0.2366	1083.2282	0.16027	-385.851884	-385.844341	-385.843396	-385.883388	30.999	
O	 0.080172087	 1.4121731252	 0.0957298589	-0.469726
C	 0.0494476022	 0.0178839006	 0.059303271	 0.392377
C	-0.4328761933	-0.6948041143	-1.18697573	-0.347565
C	-1.288504241	-0.7347252999	 0.0645265058	-0.124056
C	-1.136882808	-1.8564419273	 1.0691474937	-0.040515
C	-0.8713241451	-3.3883095964	 0.8026551558	-0.247623
C	 0.4074451626	-3.2986327923	 1.7167016185	-0.307158
C	 0.3222958136	-1.8103504789	 1.4592832988	 0.274416
C	 0.9940218467	-0.8084875011	 0.8900281919	-0.318999
H	 0.7247379586	 1.7149222127	-0.5524904366	 0.280953
H	-0.8214478119	-0.0635481519	-1.9804763346	 0.109381
H	 0.0918249966	-1.5833949354	-1.5231677879	 0.107291
H	-2.202348147	-0.1539029653	 0.0373759584	 0.091789
H	-1.8306655611	-1.7460413743	 1.9104312017	 0.078037
H	-1.6548100305	-4.0808937905	 1.117887696	 0.102382
H	-0.6054241912	-3.5832474829	-0.2385244297	 0.111539
H	 0.1752789659	-3.5774699623	 2.7499295385	 0.111593
H	 1.3093610839	-3.8257446304	 1.398361143	 0.108357
H	 2.0702744518	-0.6801999151	 0.8477020967	 0.087527
