18
gdb 75191	3.6496	0.92744	0.78074	1.5974	74.11	-0.2483	-0.0281	0.2202	1438.7745	0.146327	-439.121581	-439.112393	-439.111449	-439.157187	31.91	
C	 0.1274050862	 1.3560776488	 0.290245407	-0.472245
C	-0.0207700477	-0.0995708867	 0.0108742407	 0.404308
N	 0.2768003253	-0.7002316573	-1.0669708052	-0.298823
C	-0.0618989257	-2.1141014859	-0.8715388089	-0.204992
C	-0.5530975473	-2.2116013156	 0.6002406878	 0.073215
C	 0.3490685489	-3.048240844	 1.5135404143	-0.291957
C	-0.1003620391	-3.0297027077	 2.9608647694	 0.154096
O	-0.3468255284	-4.0167145205	 3.6056758671	-0.236964
O	-0.54028905	-0.8319493656	 1.0435123193	-0.265055
H	 0.7799241951	 1.5134427915	 1.1546840193	 0.145158
H	 0.5464638334	 1.8554648533	-0.5823895163	 0.155316
H	-0.8454940666	 1.7945528912	 0.5335440387	 0.148334
H	-0.8334631219	-2.4159780364	-1.5878094547	 0.12025
H	 0.8156754001	-2.7441881239	-1.0549984766	 0.116546
H	-1.5870843803	-2.5629443861	 0.6707552835	 0.10415
H	 0.375190923	-4.0863718942	 1.1688876988	 0.127458
H	 1.3664566662	-2.6362505086	 1.4601728344	 0.12736
H	-0.1951539412	-2.0137959823	 3.4008842914	 0.093846
