22
gdb 110532	3.50641	1.17803	1.11811	0.699	86.82	-0.2019	0.0863	0.2883	1240.7493	0.194254	-367.150624	-367.141894	-367.14095	-367.183852	34.089	
C	-0.1565594166	 1.5112788887	-0.0174958675	-0.380144
C	 0.079896586	 0.0075063284	 0.1041960887	-0.126275
N	 0.6355526295	-0.5375548332	-1.1316649285	-0.077673
C	 0.8358068315	-1.9750932955	-1.2455294207	-0.073937
C	-0.4680392313	-2.6399754787	-1.7818423215	-0.138565
C	-1.4603605163	-1.5028772269	-2.0015165261	-0.251042
C	-0.2108110747	-0.6392277728	-2.3582185106	-0.077005
C	 0.5478069243	-1.9886160453	-2.709498562	 0.331308
C	 1.3107430795	-2.4517668523	-3.9047070531	-0.531504
H	 0.7659078451	 2.0223513418	-0.3082190141	 0.12331
H	-0.9176856478	 1.7330328608	-0.7734584506	 0.115688
H	-0.5031452533	 1.9282056967	 0.9328302108	 0.110693
H	 0.8182374312	-0.188296227	 0.8922195974	 0.096673
H	-0.8495098078	-0.4944901488	 0.4217587393	 0.082449
H	 1.5819451195	-2.5193397369	-0.6774393364	 0.086944
H	-0.6657996449	-3.6976676755	-1.6553175258	 0.078737
H	-2.0638013044	-1.6767459654	-2.8967120976	 0.09823
H	-2.1114937462	-1.1749995515	-1.1842249459	 0.089212
H	-0.2940028107	 0.2538043814	-2.9763481316	 0.072825
H	 2.1474801357	-1.7806481168	-4.1291713576	 0.127852
H	 1.7229275593	-3.4522560875	-3.7332823388	 0.12251
H	 0.6754111623	-2.5058793236	-4.7964635778	 0.119714
