16
gdb 28066	4.89619	0.81077	0.75571	4.2637	73.97	-0.193	-0.0171	0.1759	1465.7108	0.123439	-437.919072	-437.910268	-437.909324	-437.954041	31.398	
N	 0.0332331643	 1.3969934946	-0.1883462956	-0.592054
C	-0.0686653399	 0.020965649	-0.0653537969	 0.40438
C	-1.1129361105	-0.8555810156	-0.1043550497	-0.386533
C	-0.5275732173	-2.1701353695	-0.0060057079	 0.252092
C	-1.2484050391	-3.4849647632	-0.0432101084	-0.396282
C	-1.5871797573	-3.9025097393	-1.4684234289	 0.167282
O	-1.4266176407	-5.0098369716	-1.9093929251	-0.23717
C	 0.8129919183	-1.9815633996	 0.0814649233	-0.124946
O	 1.1068314567	-0.6381298195	 0.0484070176	-0.173854
H	 0.8293610416	 1.7779444069	 0.3066888651	 0.258322
H	-0.816650572	 1.8813271443	 0.0637216282	 0.257932
H	-2.160439941	-0.6097905663	-0.1788316024	 0.097024
H	-0.6678854693	-4.2890761187	 0.4160543944	 0.12816
H	-2.1986810497	-3.406400328	 0.5044992375	 0.127934
H	-2.0056294232	-3.0832825257	-2.0962399864	 0.080595
H	 1.6573969993	-2.6417636279	 0.1797541353	 0.137117
