16
gdb 44351	3.88303	1.55733	1.26971	4.2121	76.	-0.2228	-0.0482	0.1746	965.9303	0.12637	-400.695821	-400.689231	-400.688287	-400.726574	27.13	
O	 0.0747406553	-0.0909565743	-0.1369768402	-0.363192
C	 0.0327499401	 1.1170026739	-0.0530919664	 0.380153
N	-1.1603205629	 1.8196771661	 0.1312611734	-0.33981
C	-1.2858037338	 3.2156389833	-0.2503187003	 0.049748
C	-0.6038885748	 4.5291869207	 0.2864827188	-0.08154
C	 0.8649886975	 4.4945668728	 0.8229982565	-0.280876
C	 1.0044115405	 3.3487998192	-0.1660708815	 0.171852
C	 1.1761306566	 2.0658588968	 0.1640281506	-0.256836
C	-0.1844320922	 3.8255767145	-1.0023802062	-0.179671
H	-1.991500857	 1.2529421256	 0.0368431481	 0.245309
H	-2.2988090314	 3.4379172434	-0.5767380946	 0.107079
H	-1.2393422384	 5.4055596195	 0.3763091951	 0.098032
H	 1.3534376408	 5.4333728447	 0.5391599291	 0.115956
H	 1.0559528867	 4.2702680902	 1.875938667	 0.111493
H	 1.8497129994	 1.7781134126	 0.968035769	 0.120218
H	-0.1580404764	 4.1648760612	-2.0307521985	 0.102085
