13
gdb 129306	2.59242	1.91488	1.22923	2.8493	70.41	-0.2731	-0.104	0.1691	948.7691	0.089388	-448.862913	-448.855644	-448.8547	-448.895175	26.781	
N	-0.0013167333	 1.244075377	-0.5213695182	-0.455468
C	-0.0438891711	 0.1678568388	 0.1305247006	 0.375385
O	 0.8896339544	-0.1371395383	 1.0998695429	-0.262587
N	 1.4204750952	-1.4677055032	 1.1308681624	-0.128594
C	 0.5896180244	-2.3746429597	 1.4941681038	 0.12953
N	-0.7341955975	-2.2877198301	 1.9007628146	-0.188909
C	-1.545122401	-1.5297339567	 1.2738032982	-0.04208
C	-1.2290702317	-0.7508790687	 0.0396245171	 0.208279
N	-1.9303582454	-0.799501251	-1.0202749768	-0.424254
H	 0.8590264627	 1.7541447269	-0.3085689102	 0.246072
H	 1.0295632309	-3.367201936	 1.5624761104	 0.156095
H	-2.5775059613	-1.4831926826	 1.6288643951	 0.148591
H	-2.7426711664	-1.4121033563	-0.8926290699	 0.237941
