14
gdb 3352	5.05043	3.20186	2.36738	1.6316	56.24	-0.2434	0.0202	0.2636	582.7238	0.116148	-324.579188	-324.573788	-324.572844	-324.60855	20.542	
C	-0.0336483677	 1.5122940136	-0.275059677	-0.242764
C	 1.463118768	 1.5818331097	 0.1701455802	-0.222341
C	 1.3982868923	 0.0895826394	 0.6001485788	-0.004685
N	 1.263482397	-0.1198394697	 2.0495404225	-0.264551
C	 0.0303910876	-0.3335591824	 2.2562373608	 0.11479
O	-0.8515374858	-0.3383169778	 1.2221910323	-0.229612
C	-0.0624309197	 0.0021447384	 0.0594301575	 0.089958
H	-0.7278808011	 2.0929779612	 0.336092479	 0.116352
H	-0.216787939	 1.7474947272	-1.3259853947	 0.108677
H	 2.1589796976	 1.7723230944	-0.6503791634	 0.105705
H	 1.6876406851	 2.268014465	 0.9887229097	 0.115094
H	 2.1673977842	-0.5696354211	 0.1911002504	 0.082721
H	-0.4191299752	-0.5312455629	 3.2232654328	 0.140618
H	-0.3253297833	-0.688888475	-0.7419919588	 0.090039
