18
gdb 46203	3.05929	1.52856	1.2198	2.5654	77.13	-0.2551	0.0255	0.2806	1049.4817	0.149108	-401.913256	-401.905754	-401.90481	-401.945277	29.257	
N	-0.1006112052	 1.2194428445	-0.3330217085	-0.568694
C	-0.0902195336	-0.0020325281	-0.0409979235	 0.396739
O	 0.9379806516	-0.8017579749	 0.4328009117	-0.2673
C	 0.0710798309	-1.9796240713	 0.471781842	-0.170858
C	-1.0787508143	-1.121691532	-0.0495086429	 0.221907
C	-2.5168565942	-1.1866373021	 0.3807090737	-0.134145
C	-3.2691891199	 0.0612705183	-0.1023985147	-0.229293
C	-2.8617798007	-0.2870191782	-1.5740047289	-0.229303
C	-2.1195906979	-1.526411486	-1.054647966	-0.134133
H	 0.8157040323	 1.6443819082	-0.1800717926	 0.227049
H	 0.4447517573	-2.7613435774	-0.1957801411	 0.121067
H	-0.0223950528	-2.3616572246	 1.4924038131	 0.121067
H	-2.8103440102	-1.8440749013	 1.1918007989	 0.090214
H	-4.3466147651	-0.0137002251	 0.0577795514	 0.103901
H	-2.9092694128	 1.0149296399	 0.2887777199	 0.12883
H	-3.7237616585	-0.5460926751	-2.1920538926	 0.103895
H	-2.2489290266	 0.4504412024	-2.0961149196	 0.128843
H	-2.0530600003	-2.4917770972	-1.5444129204	 0.090215
