17
gdb 126489	1.95723	1.67238	1.00074	2.5414	70.06	-0.2907	-0.0418	0.2488	1181.9746	0.135607	-455.110079	-455.101294	-455.100349	-455.144178	31.453	
C	 0.1103167475	 1.5682169615	 0.1233474203	-0.394434
C	-0.1146743094	 0.0611737692	-0.0950707402	-0.298361
C	 0.6998651045	-0.4894464491	-1.2238727403	 0.2704
N	 0.1783509849	-0.7811372199	-2.3850634542	-0.142757
O	 1.2093401913	-1.2380138196	-3.1647425973	-0.156129
N	 2.3849399659	-1.2323236966	-2.4761706618	-0.137022
C	 2.1043090025	-0.7804225521	-1.2834578051	 0.232944
C	 3.1701852519	-0.6114087497	-0.2417665716	-0.181729
O	 3.4439109318	 0.7554044801	 0.0407731822	-0.396571
H	 1.1643163483	 1.7744518467	 0.3246457423	 0.148405
H	-0.1908965541	 2.1348840767	-0.7627277821	 0.129111
H	-0.4840011252	 1.9198665764	 0.9713649264	 0.120152
H	 0.1384806464	-0.4833602974	 0.8224496752	 0.117159
H	-1.1682701762	-0.1400221159	-0.3073085332	 0.134086
H	 2.842416566	-1.0473339666	 0.7068901541	 0.130312
H	 4.068313112	-1.1499125796	-0.5685017846	 0.130094
H	 3.7804443018	 1.1587934159	-0.7670039701	 0.294341
