17
gdb 73072	3.35508	0.95989	0.84817	2.4979	69.65	-0.2457	-0.0221	0.2237	1345.3536	0.133456	-458.912099	-458.903317	-458.902373	-458.946713	31.699	
O	 0.0086291265	 1.4722731603	-0.0777917958	-0.447673
C	 0.013278112	 0.0963793591	-0.0160365448	 0.288092
C	-0.9726515797	-0.8056370228	-0.756370069	-0.151397
O	-1.046869792	-1.699795357	 0.3902886131	-0.281059
C	-0.2244609083	-0.8178022987	 1.1588991358	 0.028873
C	 1.1604728049	-0.7205777732	 0.5569782069	-0.135691
C	 1.8537104445	-1.8770593498	-0.1418389881	-0.311711
C	 2.6714064059	-2.6987247808	 0.8321722054	 0.164304
O	 3.8320863439	-2.9831139547	 0.6869839317	-0.240635
H	 0.7227325776	 1.7580942955	-0.6583242271	 0.293982
H	-1.9360812817	-0.3122282511	-0.9226832238	 0.123999
H	-0.6450135742	-1.3163249317	-1.6692821957	 0.106991
H	-0.4786982664	-0.653093493	 2.1989246109	 0.11853
H	 1.8063538118	-0.0786748703	 1.1548731379	 0.106695
H	 1.0864585645	-2.5420775751	-0.5596519576	 0.13997
H	 2.5086024688	-1.5430566277	-0.9521858927	 0.116257
H	 2.104721882	-3.0326082591	 1.7318598831	 0.080472
