23
gdb 121113	4.59465	0.75615	0.69359	1.1112	83.29	-0.2493	0.0909	0.3402	1741.8594	0.204915	-425.446089	-425.435939	-425.434995	-425.48214	36.485	
C	 0.1907829477	 1.5771165465	-0.0449930736	-0.381293
C	 0.03088459	 0.0552051191	-0.0788038185	-0.166113
C	-1.4086007174	-0.3948146823	 0.1901853433	-0.200162
C	-1.5709912704	-1.9019675981	 0.1485321554	 0.218649
O	-0.7906585859	-2.5248972606	 1.1644732125	-0.27388
C	-1.5440777069	-3.6106306182	 1.6898258135	-0.095007
C	-2.8521349382	-3.6065932198	 0.8714170431	 0.119143
C	-4.1131650098	-3.933477993	 1.6475584061	-0.414187
O	-2.9064836197	-2.264714025	 0.3978085924	-0.267116
H	 1.2266675651	 1.8725903867	-0.2383583152	 0.111206
H	-0.4403777969	 2.0600732433	-0.7994838108	 0.112271
H	-0.0944872918	 1.9833088389	 0.9317931806	 0.115093
H	 0.3540774293	-0.3255346336	-1.0569020427	 0.093002
H	 0.6900626765	-0.4077215705	 0.66347445	 0.117639
H	-1.7428294305	-0.0504431364	 1.1756282161	 0.103954
H	-2.0888077339	 0.0364006253	-0.5544374282	 0.102438
H	-1.2536285801	-2.3041817547	-0.8341055652	 0.054946
H	-0.9889298911	-4.5503191019	 1.5828648193	 0.100895
H	-1.7372884799	-3.4373175891	 2.7568897763	 0.098861
H	-2.7487039094	-4.2908356657	 0.0128262683	 0.07087
H	-4.2304338455	-3.2449638538	 2.4896326979	 0.128254
H	-4.9936354642	-3.8491193044	 1.0050297765	 0.130679
H	-4.068957587	-4.9565486827	 2.0342286129	 0.119857
