19
gdb 110954	2.73175	1.20688	1.04253	1.9203	76.28	-0.2399	0.0064	0.2463	1235.104	0.157686	-422.994278	-422.985064	-422.984119	-423.028685	33.873	
C	-0.0351560157	 1.5579179009	 0.0731387816	-0.377962
C	 0.0335335956	 0.0304621661	 0.1920935258	-0.233089
C	-1.3391170269	-0.6217660629	 0.0672889499	-0.009365
C	-2.046433762	-0.7932829529	-1.3338298399	-0.203409
C	-1.0656369475	-1.979375024	-1.6263093222	-0.298397
C	-1.4726466233	-2.1882693124	-0.1187668317	 0.257296
O	-1.0429011047	-3.1671016235	 0.7402412132	-0.471239
C	-2.8826702038	-1.8588878098	-0.612170006	 0.386571
O	-4.0035668901	-2.2497026328	-0.4819990882	-0.340032
H	 0.9512581543	 2.007857819	 0.2209096397	 0.116668
H	-0.3982130783	 1.8638111568	-0.913673829	 0.118454
H	-0.7116422413	 1.9846843797	 0.8216241092	 0.118376
H	 0.7405518018	-0.3600816865	-0.5452884783	 0.104723
H	 0.4409300169	-0.2428251783	 1.173442988	 0.113911
H	-2.0018410078	-0.2157602482	 0.8401422394	 0.082457
H	-2.3658925403	-0.0147021857	-2.0180094234	 0.101108
H	-1.3987089064	-2.7345089638	-2.3406424959	 0.113605
H	-0.0276445038	-1.7019435599	-1.7967534945	 0.117693
H	-1.8107243966	-3.6794036119	 1.0200859024	 0.302632
