17
gdb 5624	3.15138	1.92369	1.21266	2.2277	71.61	-0.1867	0.0561	0.2428	989.7543	0.142317	-363.889676	-363.881315	-363.880371	-363.922436	30.359	
C	-0.0922409172	 1.3641037061	 0.006456893	-0.241465
O	-0.0358983749	-0.0455012755	 0.0135228542	-0.262048
C	 0.633943699	-0.5956731964	 1.0625251185	 0.275977
C	 1.2666568362	 0.0230808732	 2.1204276177	-0.21875
N	 1.7902179876	-0.9834423765	 2.9069680416	-0.257193
C	 1.4962214333	-2.2031781689	 2.3600010111	-0.149781
C	 0.7732103175	-2.0089836581	 1.2042984479	 0.151863
C	 0.2320777929	-3.0450026482	 0.2693106479	-0.501466
H	 0.914149823	 1.8046325762	-0.038473793	 0.113583
H	-0.6537290356	 1.6562853403	-0.8829594325	 0.127827
H	-0.6029650912	 1.7487478995	 0.9009482039	 0.113578
H	 1.388498423	 1.060135838	 2.3793663601	 0.113588
H	 2.3097329581	-0.8371529748	 3.7525970934	 0.25786
H	 1.8200289384	-3.1188520121	 2.8293647743	 0.113398
H	-0.8587127816	-2.9813219876	 0.1811502714	 0.125412
H	 0.6358813531	-2.9277843191	-0.7430443755	 0.125407
H	 0.4817031983	-4.0524931861	 0.6146653061	 0.112209
