18
gdb 17520	4.55126	1.73465	1.61993	1.5391	70.46	-0.2263	0.0763	0.3026	873.4773	0.153835	-347.743569	-347.736491	-347.735546	-347.774717	27.932	
C	-0.0876786151	 1.5413963967	 0.0621656598	-0.382612
C	-0.0106137334	 0.0116551117	-0.0232613704	-0.310483
C	 0.7770145166	-0.5835744633	 1.1057372024	 0.451569
C	 2.2974077323	-0.3405931356	 1.3490417266	-0.264504
C	 2.2305302534	-1.5938252311	 2.2174836284	-0.122299
C	 0.8250103974	-1.5455076139	 2.8425983453	 0.105585
O	 0.2009728184	-0.3328648288	 2.4329657098	-0.333159
C	 0.9972354039	-2.1070628003	 1.4774480449	-0.21552
H	 0.906615807	 1.9938168102	-0.009416379	 0.119148
H	-0.6995990628	 1.9459098415	-0.7490211865	 0.1122
H	-0.5300512442	 1.850408681	 1.0130300867	 0.141642
H	-1.0198799903	-0.4161340684	-0.0071597126	 0.109759
H	 0.4516284365	-0.2969114825	-0.9691287132	 0.10092
H	 2.8817898035	-0.5130710397	 0.4410842916	 0.099743
H	 2.5707731148	 0.6138603006	 1.8100431407	 0.098129
H	 3.0405094889	-2.1713660125	 2.6441635733	 0.089383
H	 0.5474770608	-1.9906110629	 3.7887897036	 0.105153
H	 0.7479890621	-3.048065503	 1.0069601285	 0.095346
