21
gdb 110064	2.36861	1.37881	1.1718	3.3146	73.28	-0.2451	0.0476	0.2927	1160.3027	0.183829	-461.367083	-461.357944	-461.357	-461.401015	35.247	
O	 0.0066842802	 1.3994941785	-0.1724740676	-0.430067
C	-0.0246691114	 0.0580779079	 0.297094615	-0.094838
C	-1.3812559032	-0.623894882	 0.0597134094	-0.035281
C	-2.0395146628	-0.2928427559	-1.2900824674	 0.084258
O	-1.0052776531	-0.4050935368	-2.2941363215	-0.44889
C	-3.1352484658	-1.3685573563	-1.462008863	-0.239964
C	-2.7389302013	-2.5434647422	-0.5223967394	-0.230329
C	-1.3531218401	-2.1720640359	 0.0518016105	 0.118672
O	-0.2883681271	-2.6913190469	-0.7342499571	-0.443612
H	 0.0165842129	 1.3370142566	-1.1342906865	 0.285585
H	 0.7671332749	-0.5440658073	-0.1623600551	 0.108166
H	 0.1831413752	 0.1030906228	 1.3709278911	 0.10517
H	-2.0926423466	-0.303238068	 0.8318928633	 0.079333
H	-2.4432378735	 0.724862104	-1.3124668211	 0.080194
H	-1.413404384	-0.2994306385	-3.1596569695	 0.29069
H	-4.1109106298	-0.955454361	-1.1895755237	 0.107591
H	-3.2081015741	-1.6736557649	-2.511290819	 0.093921
H	-3.4677892049	-2.6423597228	 0.2882879334	 0.099942
H	-2.6849540996	-3.5072173959	-1.033154944	 0.109635
H	-1.2052045391	-2.5887384163	 1.0525059695	 0.076991
H	-0.2892710767	-2.198256929	-1.5664037671	 0.282832
