18
gdb 16624	2.94966	2.26543	1.51124	2.7443	70.63	-0.2381	-0.0157	0.2224	875.5479	0.154467	-347.831664	-347.824312	-347.823367	-347.863145	28.563	
C	 0.119742876	 1.6311136065	 0.0086817523	-0.393041
C	 0.1031821061	 0.1025209616	-0.0171325152	-0.094817
C	 0.766437837	-0.5840536394	-1.1996344434	-0.040392
C	 2.2742837363	-0.5621077851	-1.2634182508	-0.292242
C	 1.5725400794	-1.7739277413	-0.7026562732	-0.041663
C	 1.4518327577	-1.8471008763	 0.8067561921	-0.326558
C	 0.7888958653	-0.5233207979	 1.2137765466	 0.371339
O	 0.8041009075	-0.040170831	 2.3163081216	-0.313717
H	 1.1357439251	 2.0136490087	-0.1297200179	 0.119667
H	-0.5082930047	 2.0458165299	-0.7850498923	 0.111156
H	-0.2474183022	 1.9915828699	 0.9731580891	 0.136288
H	-0.9437590194	-0.2371809411	 0.0353902913	 0.101642
H	 0.2179805985	-0.6464116851	-2.1326744712	 0.086014
H	 2.7346288147	-0.6539634952	-2.2406997472	 0.115479
H	 2.8214000535	 0.0826122814	-0.5799613946	 0.117008
H	 1.5987800524	-2.6964844059	-1.2702754022	 0.088018
H	 0.7907876033	-2.6677648034	 1.1159022742	 0.127318
H	 2.3964180335	-1.9763149162	 1.3434618106	 0.128501
