18
gdb 86715	3.29411	1.23365	1.04612	4.016	72.42	-0.2389	-0.0228	0.2161	1171.9512	0.14708	-439.071354	-439.062972	-439.062028	-439.104895	31.054	
C	 0.2495636954	 1.6141463056	 0.173592943	-0.402997
C	 0.0437123425	 0.1084073642	 0.1418163109	 0.143665
O	 0.5676950602	-0.394832549	-1.0976928584	-0.291552
C	 1.1040733833	-1.697276629	-0.9334115527	 0.040577
C	 2.3395283816	-1.8269935494	-1.8151454269	 0.151954
O	 2.7476146854	-2.8793443877	-2.2309995271	-0.251828
C	 1.437189413	-1.818525626	 0.548213939	-0.082598
N	 2.2342549239	-0.6686035576	 1.028824714	-0.334499
C	 0.7708189146	-0.6818898816	 1.2162540043	-0.067681
H	 1.3180451224	 1.8411817003	 0.1851292564	 0.141413
H	-0.2020466855	 2.0761539155	-0.7081697719	 0.128248
H	-0.2181034601	 2.045311455	 1.0645625918	 0.111048
H	-1.0304256031	-0.1298719499	 0.2097127058	 0.073572
H	 0.386886651	-2.4835730443	-1.2130192342	 0.093591
H	 2.8435293532	-0.8592180015	-2.0174706367	 0.099948
H	 1.5545780895	-2.798084117	 0.9962439423	 0.109247
H	 2.6905317706	-0.9224354633	 1.9014696819	 0.238753
H	 0.347446032	-0.7611372444	 2.2118187685	 0.099137
