22
gdb 113819	3.7769	0.8739	0.77483	3.1142	84.06	-0.2226	0.0813	0.3039	1547.305	0.192977	-404.298219	-404.288551	-404.287606	-404.333347	36.335	
C	-0.2445635001	-2.6293184462	 0.0556722295	-0.382094
C	-0.6431683885	-1.3549017478	-0.6982483439	-0.195786
C	 0.1040973606	-1.2214472448	-2.0087889616	 0.029135
C	-0.4607402581	-1.7566198502	-3.2824115284	-0.255675
N	-0.3294254994	-0.3159771325	-3.0779992434	-0.115425
C	-1.5237756175	 0.4749586735	-2.9413850751	-0.008855
C	-1.3541790454	 1.8827989482	-2.3998970257	-0.340959
C	-1.5637392946	 1.6599310146	-3.878794805	 0.129352
O	-0.506235754	 1.827865012	-4.7646243757	-0.432793
H	-0.479680158	-3.5242136719	-0.5297554835	 0.120275
H	 0.830267851	-2.6442217081	 0.2664865731	 0.119291
H	-0.7717213285	-2.7024388139	 1.0114388807	 0.116556
H	-1.7230573762	-1.3554223648	-0.8795105222	 0.099304
H	-0.4344568313	-0.476908482	-0.0741750478	 0.109387
H	 1.1884548418	-1.2450756253	-1.8982133469	 0.090335
H	 0.1782531322	-2.1938531613	-4.0448497024	 0.117304
H	-1.4651259347	-2.1763341507	-3.2381794196	 0.111803
H	-2.4541112782	-0.0474660657	-2.7211430055	 0.080549
H	-2.1586703916	 2.2990627856	-1.8029928317	 0.109185
H	-0.3541480445	 2.1710863549	-2.0944036107	 0.118829
H	-2.5154309409	 1.945615796	-4.3165667556	 0.096974
H	 0.1239348258	 1.1256142006	-4.5349069687	 0.283307
