16
gdb 79731	2.53044	1.82924	1.47906	2.2549	67.77	-0.2328	-0.0468	0.186	922.7415	0.123838	-437.810415	-437.80285	-437.801906	-437.842462	28.947	
O	 0.1396596754	 1.4658894493	 0.2291098134	-0.42214
C	 0.0228441149	 0.0818316476	 0.0411380675	 0.006009
C	-1.3976533479	-0.541963372	 0.0368594731	-0.083579
C	-2.5316036769	 0.176681208	-0.7081291846	-0.013692
C	-2.1161871525	 0.8612425253	-1.9422945503	-0.247787
N	-2.2934678738	-0.6094509131	-1.9983149177	-0.144839
C	-1.1044541263	-1.2730952325	-1.307395744	-0.10585
C	 0.2413677321	-0.5148504833	-1.3782563664	 0.344627
O	 1.1007791449	-0.3689397365	-2.1984268659	-0.297552
H	 1.0193714908	 1.7283289811	-0.0665636729	 0.299039
H	 0.6528270466	-0.4897825495	 0.7466925051	 0.100882
H	-1.700218717	-1.0798273586	 0.9319468295	 0.087679
H	-3.5326581956	 0.2775700145	-0.3021209338	 0.104408
H	-2.8972198142	 1.370829639	-2.4987385841	 0.127758
H	-1.1363994603	 1.3164009671	-2.0342326293	 0.139718
H	-1.1163109503	-2.3528895863	-1.4495704596	 0.10532
