15
gdb 125937	2.85761	1.61474	1.08917	6.4566	67.45	-0.2501	-0.0038	0.2463	1061.4306	0.112979	-453.934929	-453.927383	-453.926439	-453.967534	27.813	
C	-0.6019122	 1.5788913764	-0.3122234828	-0.401596
C	 0.0039599682	 0.210007701	-0.087641358	 0.04743
C	 0.9635591279	-0.3819921135	-1.2049848969	-0.386782
C	 2.0004796627	-0.4224609357	-0.1008002501	 0.429942
N	 3.1287823211	-0.8485348633	 0.3450992579	-0.245952
O	 3.0447313702	-0.4682897574	 1.7375940957	-0.252881
C	 1.8150228598	 0.0999296362	 2.0532998253	 0.503301
O	 1.4706299596	 0.4308301219	 3.1490658191	-0.390504
N	 1.1996255874	 0.179169411	 0.8118844274	-0.161353
H	 0.1577254322	 2.2957865368	-0.6367299364	 0.136455
H	-1.3792335035	 1.5196728707	-1.0805404816	 0.135559
H	-1.0593467643	 1.9524963917	 0.6081890098	 0.153191
H	-0.74667274	-0.5143094809	 0.2393931261	 0.125742
H	 0.6764094287	-1.3514829863	-1.6127660851	 0.155829
H	 1.18220397	 0.3138297815	-2.0169298603	 0.15162
