19
gdb 115188	4.42701	0.94903	0.81576	5.1619	79.04	-0.2613	-0.0453	0.216	1409.3729	0.159967	-423.076904	-423.068292	-423.067348	-423.110526	32.046	
C	-0.0212900638	 1.6135019774	-0.1888594602	-0.392957
C	-0.0136124263	 0.0883801749	-0.0521412878	-0.18722
C	-1.4131249226	-0.531946293	 0.1271243535	-0.062491
C	-1.3507027325	-2.0506974471	-0.0294417249	-0.091807
O	-2.5958544965	-2.7025619143	 0.2533630906	-0.242065
C	-3.2497045111	-2.3728196173	 1.4002913516	 0.417247
O	-4.1584931304	-3.0605440011	 1.7872489091	-0.338675
C	-2.8305344567	-1.1185741978	 2.0679766668	-0.212193
C	-2.0315938059	-0.2335718076	 1.467405243	-0.044227
H	 0.9944456114	 1.9956859537	-0.325761202	 0.123127
H	-0.6161807173	 1.9287543836	-1.0527484452	 0.123077
H	-0.4377380274	 2.1043367898	 0.6966408127	 0.123178
H	 0.4447035178	-0.3481987892	-0.9485130718	 0.105115
H	 0.6211914678	-0.2093789491	 0.7920376942	 0.106822
H	-2.0692316032	-0.1229923579	-0.6573992918	 0.104482
H	-1.1020971488	-2.3373579253	-1.0538756294	 0.123301
H	-0.577591739	-2.456125926	 0.6382541526	 0.111314
H	-3.2965019205	-0.9368179708	 3.0291055847	 0.122368
H	-1.820423895	 0.7228819071	 1.9386148844	 0.111603
