20
gdb 47441	2.70401	1.34192	0.9988	3.5801	79.13	-0.2311	0.0355	0.2666	1226.7754	0.173093	-403.18459	-403.176078	-403.175133	-403.218537	32.01	
O	 0.3020367367	 0.1324457498	-0.7216650903	-0.386428
C	 0.1853534433	 1.2753241286	-0.3356257975	 0.405896
N	-0.9838760872	 1.8839300017	 0.0355396051	-0.298728
C	-0.8406584447	 3.2304767584	 0.5588709721	-0.165006
C	 0.5556944618	 3.6413690576	 0.0353708408	-0.235029
C	 1.3121967242	 2.3073304046	-0.1364059451	-0.134046
C	 2.162657828	 1.9220485736	 1.0619270396	 0.036674
C	 3.1932442909	 0.8344605227	 0.933315017	-0.255977
C	 3.6316904172	 2.2699018195	 1.0936250325	-0.287569
H	-1.8315666982	 1.3443485396	 0.1115918247	 0.24873
H	-1.6318456152	 3.8900606247	 0.188185159	 0.112265
H	-0.8842690981	 3.2468912513	 1.6574437617	 0.10645
H	 0.4456368416	 4.137548503	-0.9330737973	 0.111243
H	 1.062563071	 4.3334778527	 0.7111604023	 0.110111
H	 1.9437711729	 2.3041837164	-1.0294244643	 0.091093
H	 1.6396765623	 1.9743412004	 2.0145312265	 0.079557
H	 3.3316297568	 0.1565928033	 1.767916487	 0.111758
H	 3.3028575551	 0.3667831132	-0.0383403701	 0.129488
H	 4.0503692675	 2.774500782	 0.2286451265	 0.109856
H	 4.069357344	 2.5744741568	 2.0379518397	 0.109662
