20
gdb 80175	2.1931	1.69849	1.40537	1.8546	77.97	-0.2201	-0.0205	0.1997	1049.3949	0.170625	-403.155009	-403.14634	-403.145396	-403.187936	33.394	
C	 0.2240103121	 2.4448225543	-0.6292336005	-0.438663
C	 0.0749399967	 0.937565084	-0.6778645358	 0.009519
C	 0.7638657416	 0.0700183976	-1.673151497	-0.053093
C	 1.9577980001	 0.640996213	-2.4122371757	-0.34505
C	 2.9300888144	 1.0539670922	-1.2974947782	 0.36962
O	 3.8944279942	 1.7647863677	-1.4129549701	-0.320603
C	 2.4492404934	 0.3799620697	-0.0008327998	-0.051094
C	 2.6988543517	 1.1844734812	 1.2698964283	-0.400467
N	 1.0637952435	-0.0613844135	-0.2167028324	-0.131921
H	 1.2167715277	 2.8058141342	-0.9049098941	 0.142441
H	-0.4929881653	 2.8985656915	-1.3228646044	 0.125975
H	-0.0038159887	 2.8255533009	 0.3713177061	 0.13201
H	-0.9283769418	 0.6181950893	-0.3991545686	 0.095601
H	 0.2328204251	-0.763571929	-2.124338268	 0.092141
H	 2.443877385	-0.1193987967	-3.035079315	 0.135958
H	 1.7376187954	 1.4934267008	-3.0605594575	 0.136206
H	 3.0425785336	-0.5468048746	 0.0676727556	 0.112321
H	 2.1163060937	 2.1077717369	 1.2882821112	 0.12443
H	 2.4367581802	 0.5946231962	 2.1516294299	 0.126252
H	 3.7572519975	 1.4525951641	 1.3226312459	 0.138416
