17
gdb 15370	3.59319	1.32335	1.0652	3.0808	67.76	-0.2514	0.0199	0.2712	1122.2078	0.140301	-400.956618	-400.947935	-400.946991	-400.990626	30.212	
C	 0.2217271324	 0.9267568392	-0.3657652376	-0.23902
O	-0.3709567798	-0.1559141776	 0.3371414093	-0.230406
C	 0.444996899	-0.670904968	 1.327801118	 0.106632
C	 0.2545150673	-2.1278165419	 1.6365179563	-0.357794
C	 1.5241797949	-1.6591972369	 0.9566876481	 0.056834
O	 1.7011537844	-1.8937375597	-0.4148206027	-0.180346
C	 1.9559289516	-3.1708571553	-0.7806941863	 0.129924
N	 2.2462445203	-3.4308206294	-1.9798062004	-0.437105
H	 1.13198062	 0.6115180272	-0.8882119456	 0.136941
H	-0.5157574636	 1.2683386031	-1.0950675079	 0.130495
H	 0.4632779323	 1.7589216921	 0.3124191314	 0.102441
H	 0.6697232544	 0.0148707565	 2.1470431947	 0.089226
H	 0.3024324063	-2.4723488288	 2.6630529268	 0.122049
H	-0.4671884494	-2.6337731061	 1.0048406265	 0.142662
H	 2.4516087944	-1.6542095982	 1.5252078933	 0.104887
H	 1.8719326634	-3.8831186036	 0.0500821021	 0.092502
H	 2.394373692	-4.4318342326	-2.0905687758	 0.230078
