16
gdb 47637	2.42656	1.65781	1.12395	6.4111	73.41	-0.235	-0.0707	0.1643	1070.8806	0.125686	-437.932864	-437.924945	-437.924001	-437.965716	29.547	
O	-0.0178781447	-0.0364046348	 0.176869954	-0.342864
C	-0.0247621627	 1.1738742856	 0.0978786658	 0.313898
N	-1.1655347572	 1.9168551904	 0.0879393325	-0.308923
C	-1.2411986862	 3.3664747952	 0.0409142204	-0.190664
C	-0.8250385237	 3.9531249988	-1.3092750674	-0.247453
C	 0.6202810132	 3.7571291217	-1.6644819671	-0.04041
C	 1.5187932612	 2.9452817444	-1.0922981637	-0.142131
C	 1.3219304699	 1.9364611105	-0.022264597	 0.257168
O	 2.2443373578	 1.5839098082	 0.6781218177	-0.298117
H	-2.0174296737	 1.3796370939	 0.156748369	 0.253382
H	-2.2747961721	 3.6453937064	 0.2585252223	 0.123373
H	-0.6224943148	 3.8049116969	 0.8345506334	 0.134122
H	-1.4588196941	 3.5398353885	-2.1073648506	 0.130478
H	-1.0286708927	 5.0323581079	-1.3003788243	 0.122207
H	 0.9784103883	 4.4031208313	-2.4642174403	 0.113184
H	 2.5571702216	 3.0031534052	-1.4088924947	 0.12275
