21
gdb 88670	4.13126	0.80861	0.74135	2.8001	79.54	-0.2488	0.0771	0.3259	1558.131	0.181717	-424.191062	-424.181727	-424.180783	-424.225711	35.535	
O	-0.021736062	 1.4787146474	 0.2569512356	-0.417708
C	 0.0026476477	 0.0902734264	 0.0828718253	 0.097174
C	-0.5440592202	-0.8038667622	 1.1671894582	-0.342872
C	-1.322172095	-0.5897411119	-0.1207782794	-0.030469
C	-2.6038738311	 0.1969818952	-0.1180184281	 0.046783
C	-3.1989732197	 0.6617142834	-1.4796113669	-0.28668
C	-4.6076003004	 0.3690943154	-0.900902729	 0.17097
O	-5.629319572	-0.1254951888	-1.7292404958	-0.434129
C	-3.9425465084	-0.5488109038	 0.1586413412	-0.290455
H	 0.6352101804	 1.7050464505	 0.9231879079	 0.288066
H	 0.8496392355	-0.2775630794	-0.4965386489	 0.083938
H	-0.07201744	-1.7632122343	 1.3498650075	 0.108937
H	-0.9273314351	-0.3086673941	 2.0539829075	 0.112762
H	-1.3122180917	-1.422353154	-0.8212399056	 0.076164
H	-2.5011865641	 1.0554669473	 0.5498546653	 0.081808
H	-2.972978163	 1.6695940854	-1.8338323835	 0.106175
H	-2.9564569322	-0.054499055	-2.2752227283	 0.08307
H	-5.0249679256	 1.2639106743	-0.4288254473	 0.091682
H	-5.2936548698	-0.9105642913	-2.1747163422	 0.273324
H	-3.8953294536	-1.5822550352	-0.2071377154	 0.084115
H	-4.3449247196	-0.5551628454	 1.1744768218	 0.097345
