21
gdb 69846	2.21267	2.04805	1.50141	1.2385	81.24	-0.2392	0.074	0.3132	991.2154	0.183698	-387.057218	-387.049362	-387.048418	-387.088702	33.119	
C	 0.0102501091	 1.4598549115	-0.0407637814	-0.477485
C	-0.0073920495	-0.0479499625	-0.023266031	 0.340775
C	-0.884781182	-0.8112902315	 0.9411730753	-0.370442
C	 0.6191774217	-0.927061694	 1.0436452421	-0.070281
C	 1.3768551244	-1.9417467886	 0.1610318752	-0.045721
C	 0.370174657	-2.2953227566	-0.9684335801	-0.303132
C	 0.5196713902	-0.7814458661	-1.280047166	 0.354963
O	 0.0934226649	-0.192527856	-2.4679572335	-0.490606
C	 2.0349741836	-0.9726150016	-0.8771426032	-0.281098
H	 0.9723476957	 1.8471842325	-0.3941057226	 0.114098
H	-0.7638823213	 1.852514176	-0.7083978293	 0.128305
H	-0.1685229196	 1.8656958139	 0.9600409349	 0.106957
H	-1.3508221382	-0.2008524957	 1.7095269597	 0.103909
H	-1.5039579819	-1.6448223389	 0.6330891866	 0.109933
H	 1.1295899278	-0.5070862581	 1.9040039409	 0.082372
H	 1.9523307265	-2.7199452809	 0.6600316675	 0.064631
H	 0.8458736639	-2.9063999131	-1.7405276209	 0.084861
H	-0.6069350656	-2.7139336107	-0.7282525805	 0.096666
H	 0.4973872948	-0.6641224574	-3.2031178604	 0.278758
H	 2.576143476	-0.1045481745	-0.4920690666	 0.092942
H	 2.6251816726	-1.4864281177	-1.6432604767	 0.079595
