16
gdb 80942	2.59937	1.35512	1.22903	2.8501	69.62	-0.2758	0.009	0.2848	1073.2883	0.123024	-437.835288	-437.827131	-437.826187	-437.867888	30.94	
C	 0.0721690141	 1.4251083771	-0.0467602448	-0.521711
C	 0.0138245361	-0.0586444997	 0.0973691666	 0.349137
O	 0.6238791756	-0.9120094136	-0.9728941041	-0.366707
C	 0.0772295852	-1.8770927571	 0.0090706922	-0.011925
C	 0.7024933505	-1.0086806979	 1.1357814794	 0.135248
O	 2.0803533235	-0.9559167228	 1.2317521554	-0.439936
C	-1.2181213929	-1.0210504667	 0.055034363	-0.19021
C	-2.1262129161	-1.098865766	 1.1851174465	 0.271951
N	-2.8487431107	-1.1512226954	 2.0863197094	-0.33315
H	 1.1088689441	 1.7664539339	 0.0301008062	 0.145808
H	-0.3338947371	 1.741381241	-1.0116607522	 0.1436
H	-0.5068662422	 1.8991752534	 0.7514691238	 0.149683
H	 0.1754261839	-2.9377195721	-0.2176817901	 0.116916
H	 0.2742448299	-1.0722981023	 2.137063112	 0.12158
H	 2.4038772604	-0.919839869	 0.3194618426	 0.290913
H	-1.7439697241	-0.9971615928	-0.8997305559	 0.138803
