17
gdb 96791	2.93518	1.38793	1.01294	1.3009	77.38	-0.2477	-0.0168	0.2309	1165.3414	0.13716	-418.050157	-418.042042	-418.041098	-418.083432	30.211	
C	-0.0512068741	 1.4049731774	 0.063505126	-0.342515
N	-0.0525489932	-0.0491808705	 0.0271146027	-0.318595
C	 0.5624896658	-0.6283511003	-0.9158300412	 0.424769
N	 1.266828795	-0.0630733373	-1.9888421708	-0.3886
C	 1.643710853	-0.9737613673	-2.9775825054	 0.42115
O	 2.1194491935	-0.6796446855	-4.045794175	-0.359523
C	 1.3240195549	-2.3383958951	-2.4333956758	-0.167473
C	 2.0355847968	-2.6871037147	-1.1437277096	-0.286892
C	 0.6419995957	-2.110575178	-1.098298255	-0.122631
H	 0.9393716678	 1.8051183388	 0.3249414325	 0.119656
H	-0.3532837367	 1.8580299392	-0.8937238338	 0.110633
H	-0.7536068193	 1.7473445057	 0.8269520067	 0.132209
H	 1.4173058038	 0.9253262058	-2.113433041	 0.26546
H	 1.0509013272	-3.1148220335	-3.1343958027	 0.122377
H	 2.132066818	-3.7431522331	-0.9192745768	 0.133401
H	 2.8715383666	-2.0753504573	-0.8226775207	 0.134971
H	-0.1816547446	-2.7097210342	-0.7363923301	 0.121604
