20
gdb 72727	2.62981	1.967	1.56346	1.5181	78.95	-0.2366	0.0458	0.2824	944.8117	0.171945	-403.017368	-403.009967	-403.009022	-403.048496	31.173	
C	-0.0932524171	 1.5353419666	-0.0071419963	-0.435852
C	 0.0251256975	 0.0216533701	-0.0194012899	 0.450478
O	 1.1276294079	-0.3241593403	-0.9761786243	-0.370319
C	 2.0176952416	-0.3888176294	 0.2139091736	-0.219921
C	 0.7406150744	-0.7643670678	 1.0172328313	 0.234048
C	 0.4027361907	-2.2619545078	 0.7286865578	-0.231812
C	-1.1224455001	-2.1475903211	 0.476324036	-0.223916
C	-1.2346209643	-0.6452593155	 0.6938292422	-0.096363
N	-0.3679605081	-0.3532985518	 1.9685746625	-0.410069
H	 0.8735795065	 2.0345413957	 0.0980331827	 0.115533
H	-0.5129238124	 1.8407258872	-0.973354774	 0.121413
H	-0.7541076025	 1.8853408901	 0.7866227282	 0.135571
H	 2.7880492919	-1.1550254277	 0.0984784735	 0.113663
H	 2.466338217	 0.5862982449	 0.4193664743	 0.116963
H	 0.94187204	-2.6684663498	-0.1269431512	 0.116244
H	 0.6486053789	-2.8642599256	 1.6099110833	 0.090459
H	-1.4151881668	-2.4448561398	-0.5346805916	 0.111227
H	-1.7327280865	-2.715166979	 1.1849428177	 0.096422
H	-2.2157673078	-0.1660579513	 0.6776483171	 0.075672
H	-0.5436198508	-1.0515627579	 2.6951682473	 0.210558
