16
gdb 101294	2.45476	1.17657	0.92288	1.7713	65.15	-0.2763	-0.0103	0.2659	1249.2478	0.122341	-474.991681	-474.98242	-474.981475	-475.02655	32.831	
O	-0.5604543419	 1.3493266437	 0.0374000684	-0.434183
C	-0.9075805852	 0.0314859327	 0.4546324196	-0.114255
C	-1.4184271479	-0.657815222	-0.8115922727	 0.091396
O	-0.4402054719	-0.5775401703	-1.8331864863	-0.450573
C	-1.7053682529	-2.1379065374	-0.6254273025	 0.053423
O	-1.4101438651	-2.7588659194	 0.6275344963	-0.222944
C	-2.7805272089	-2.6855928139	 0.2278544389	-0.110784
C	-3.6477865405	-1.8267255015	 1.0060856925	 0.314456
N	-4.3631129397	-1.1534855641	 1.615521864	-0.329997
H	-0.0628196523	 1.7735903645	 0.7415458215	 0.299293
H	-0.0340681136	-0.5139381168	 0.8336750696	 0.113094
H	-1.67980807	 0.0463616121	 1.2331331721	 0.122777
H	-2.3443266888	-0.1505955328	-1.1308707266	 0.097091
H	-0.093480399	 0.3230897224	-1.7827196775	 0.296446
H	-1.4295161394	-2.7319138566	-1.496103551	 0.129827
H	-3.2345981428	-3.6367303403	-0.0445614064	 0.144934
