19
gdb 73042	3.45205	1.05987	0.95616	5.0724	79.84	-0.2412	0.0342	0.2755	1284.6578	0.159377	-382.043864	-382.035099	-382.034155	-382.077757	32.731	
C	-0.1162123678	 1.4454563516	 0.1117380078	-0.488496
C	-0.04474065	-0.047729348	-0.0187939214	 0.321348
C	-0.8720054824	-0.8682565384	-1.0146596304	-0.314117
C	-1.1364023879	-1.854224666	 0.1479166822	-0.156847
N	-0.3745454085	-1.0070660868	 1.1333079421	-0.172803
C	 1.004927772	-0.8696974513	 0.6237132053	-0.028679
C	 1.7973072571	-1.9760859325	-0.061467717	-0.393849
C	 2.1949072419	-3.040099249	 0.8623378104	 0.277005
N	 2.509799903	-3.8773390679	 1.5935300131	-0.30444
H	 0.4091571766	 1.9337894511	-0.7178188691	 0.124111
H	-1.1552554061	 1.7914949918	 0.1004954708	 0.126882
H	 0.3421624653	 1.7783767511	 1.0471291425	 0.133819
H	-1.7745142642	-0.3424785853	-1.3326157153	 0.116465
H	-0.3589259833	-1.2336534968	-1.910224031	 0.102054
H	-2.1828221338	-1.898971124	 0.4529850425	 0.120209
H	-0.7636391146	-2.8784845995	 0.05055657	 0.114141
H	 1.607878658	-0.3339305144	 1.3537513057	 0.111732
H	 1.247105707	-2.426489791	-0.8914120191	 0.154129
H	 2.7052826077	-1.5394844147	-0.4940412591	 0.157336
