17
gdb 27150	3.05582	1.31581	0.98388	2.4001	76.41	-0.2131	0.0211	0.2342	1188.0016	0.137014	-418.029156	-418.020899	-418.019955	-418.062676	30.059	
C	-0.2775384507	 1.559153271	 0.301545141	-0.49301
C	-0.0472075747	 0.099078387	 0.079823319	 0.191033
C	 0.1407177811	-0.5770319173	-1.1045582078	 0.25957
N	 0.3329439773	-1.896974775	-0.7482868569	-0.305977
C	 0.2372783705	-1.9642948648	 0.606687913	 0.005787
N	 0.0204590572	-0.7837949106	 1.1386646641	-0.310758
C	 0.1894431	-0.1622467635	-2.5148170127	-0.052964
C	 1.3003842846	-0.5244433997	-3.4168800381	-0.180593
O	 0.0543065603	-1.2235190803	-3.476529428	-0.248422
H	 0.5922855722	 2.0345931658	 0.7693237221	 0.134051
H	-0.4783086983	 2.0832266496	-0.6373681587	 0.113015
H	-1.1284747448	 1.7153581548	 0.9717556042	 0.138491
H	 0.3902359605	-2.6549192294	-1.4092909234	 0.272256
H	 0.3284119091	-2.8954383847	 1.1459517062	 0.129453
H	-0.3729005394	 0.7390940863	-2.7547900727	 0.108188
H	 1.524049844	 0.1029933538	-4.2785768922	 0.123207
H	 2.1395720907	-1.0942821429	-3.021265299	 0.116672
