19
gdb 38278	3.62963	1.68024	1.60402	1.506	79.21	-0.2417	0.0824	0.3241	911.8117	0.162922	-385.753181	-385.747245	-385.746301	-385.783043	26.667	
C	-0.0846390416	 1.6516649217	 0.056958132	-0.227434
C	 1.4521556412	 1.4384078229	 0.1032329151	-0.01328
O	 1.1402595478	 0.194399875	 0.8668811048	-0.2954
C	-0.0229510148	 0.0980505519	-0.0242888904	-0.065824
C	 0.6284163289	-0.0836214294	-1.4175040674	 0.310658
C	 1.4289059507	-0.9826936093	-2.4179556726	-0.311098
C	 1.8422421786	 0.5182073893	-2.7236324387	-0.107041
C	 0.3473999144	 0.857803293	-2.6487342775	-0.248212
C	 1.9577207888	 0.6654300592	-1.1564411943	 0.040804
H	-0.4335125707	 1.9524635554	 1.0455637749	 0.113215
H	-0.5651349682	 2.2482064801	-0.7147694088	 0.099291
H	 2.1211464783	 2.1095246414	 0.6405996156	 0.085189
H	-0.8102363893	-0.554684884	 0.3496033087	 0.083511
H	 2.1968062535	-1.6312376062	-1.9916542153	 0.105004
H	 0.8617271469	-1.4853994021	-3.2068288154	 0.092246
H	 2.5570157868	 0.843129564	-3.4820217899	 0.072927
H	-0.2871569569	 0.4370386942	-3.4337426259	 0.086461
H	 0.1013583855	 1.9031730092	-2.4747584363	 0.093948
H	 2.76068025	 0.0323415338	-0.7684150584	 0.085039
