16
gdb 49414	3.17403	1.7024	1.45003	1.5886	71.35	-0.2195	-0.0283	0.1913	914.7534	0.125208	-400.706631	-400.699767	-400.698823	-400.738161	26.741	
O	-0.6349681414	 0.7457406899	 0.635787101	-0.252158
C	 0.0791970986	 1.0409691559	-0.2886816472	 0.142008
C	 1.2487518528	 1.9863151833	-0.2079975698	-0.08707
C	 1.4436538618	 3.0910991348	-1.2428862291	-0.097629
C	 0.72373956	 4.3765329125	-0.9116275917	-0.063463
C	-0.4076289109	 4.3661043964	 0.0569658362	-0.083938
C	-0.0316122175	 3.679885391	 1.1366625966	-0.068884
C	 1.3425131577	 3.1173513053	 0.8739116625	-0.08249
N	 1.9686749028	 4.0338415348	-0.190783152	-0.128438
H	-0.0812043179	 0.6008102731	-1.3019464875	 0.075996
H	 2.1666232878	 1.3849312864	-0.1909558365	 0.122953
H	 1.9503153408	 2.9621476695	-2.19473288	 0.101403
H	 0.8218249071	 5.1737274172	-1.6425507625	 0.098298
H	-1.3672798471	 4.8278846475	-0.132204112	 0.110567
H	-0.6344701481	 3.4210743114	 1.9956158649	 0.123405
H	 1.9823209835	 2.9316228611	 1.7341632174	 0.08944
