14
gdb 1493	6.18346	1.41985	1.17311	3.3126	61.88	-0.2508	-0.0393	0.2115	971.1904	0.113279	-320.776082	-320.768059	-320.767115	-320.808925	27.173	
C	-0.0625216479	 1.5284280448	-0.0313721787	-0.410813
C	 0.0092122087	 0.0096985785	 0.0792832658	-0.104061
N	-1.3255803826	-0.5695198175	 0.0316501206	-0.315477
C	-1.5115471656	-1.9178086963	-0.0139567146	 0.300694
N	-0.5400888097	-2.7473967344	-0.1178292119	-0.524159
C	-2.9097826381	-2.3234778739	 0.043011553	 0.224439
N	-4.0069753456	-2.6850772592	 0.0941966915	-0.321835
H	 0.9428439307	 1.9553462926	 0.003476376	 0.134449
H	-0.5317386944	 1.83460961	-0.9713471182	 0.132584
H	-0.6352951612	 1.96169573	 0.7964327735	 0.122861
H	 0.5910726485	-0.4179470204	-0.7430780245	 0.140112
H	 0.519363922	-0.2909217867	 1.0048401373	 0.121252
H	-2.1073116234	 0.005935245	 0.2981272891	 0.260676
H	-0.8802493016	-3.7032773024	-0.1808087888	 0.239279
