17
gdb 97473	6.83777	0.45233	0.42763	4.1662	103.09	-0.2475	-0.0674	0.1802	2519.6542	0.132594	-384.671603	-384.661019	-384.660075	-384.710442	35.292	
C	 0.0422911018	 1.5483531825	 0.0274072917	-0.369381
C	-0.026596072	 0.0156169699	-0.1154064346	-0.347535
C	-1.3815898331	-0.5078291276	-0.0532821989	 0.2994
C	-2.517535741	-0.9269721208	 0.0007375102	-0.213403
C	-3.7882517059	-1.3948232894	 0.0612696224	-0.276361
C	-4.9266640006	-1.8148638827	 0.1154039797	 0.343195
C	-6.2882606612	-2.3046597187	 0.1814239315	 0.185573
C	-6.4480300239	-3.8052227203	 0.044335021	-0.478319
O	-7.2262848894	-1.5502386091	 0.336504424	-0.269152
H	 1.0818818763	 1.8832056298	-0.0267002876	 0.12318
H	-0.5217751	 2.0384656725	-0.770042791	 0.137174
H	-0.3756396037	 1.8683581246	 0.9851324429	 0.137183
H	 0.429142261	-0.2907097789	-1.0661632897	 0.144506
H	 0.573815714	-0.4591234735	 0.6717427176	 0.144526
H	-5.8868971654	-4.317439667	 0.8333397239	 0.147869
H	-7.5056167946	-4.0657095982	 0.1076791	 0.143678
H	-6.0346263523	-4.1422120831	-0.912378443	 0.147869
