20
gdb 119877	3.05298	1.05753	0.81905	1.3965	77.42	-0.2478	0.0286	0.2763	1440.2058	0.170894	-440.305519	-440.296027	-440.295083	-440.340548	34.241	
C	 0.0275151927	 1.4969192201	-0.1120991469	-0.393134
C	-0.0006462585	-0.0163659447	-0.0249040928	-0.040651
O	 0.6971748372	-0.5358744682	-1.1725867639	-0.283796
C	 0.7514191665	-1.8674798214	-1.2815521135	 0.396309
N	 0.2724250542	-2.7071745878	-0.4572645259	-0.315099
C	 0.5681376129	-4.0510172395	-0.9809636296	-0.16532
C	 1.0343617742	-3.8737043851	-2.4519357646	-0.238964
C	 1.4680431907	-2.4036430438	-2.50884866	 0.036577
O	 1.0666412029	-1.7838868773	-3.7165930877	-0.437967
H	 1.0558122808	 1.8697058371	-0.1131342133	 0.128468
H	-0.4667452273	 1.8454478975	-1.0235284159	 0.127941
H	-0.4938414737	 1.9276060761	 0.7477856179	 0.124757
H	 0.4902732393	-0.3874280587	 0.8808843739	 0.122438
H	-1.0215573721	-0.4122732318	-0.0266828232	 0.124123
H	 1.3473949585	-4.5127776378	-0.3609710819	 0.106583
H	-0.3183440569	-4.6870465415	-0.8944984062	 0.109701
H	 1.8207992538	-4.571637006	-2.7448238248	 0.104633
H	 0.1940447911	-3.9948509767	-3.1417494831	 0.123388
H	 2.5563474451	-2.2929869309	-2.3649373338	 0.080849
H	 1.1132365986	-0.8316251296	-3.5739043947	 0.289164
