25
gdb 102374	1.62819	1.45441	1.02981	0.559	94.34	-0.257	0.0597	0.3167	1382.169	0.226069	-352.335771	-352.324278	-352.323334	-352.371676	43.067	
C	-0.0913697914	 1.5196148183	 0.1978468184	-0.403888
C	 0.0606628512	 0.0052133651	 0.0371654388	-0.191247
C	 0.7317977109	-0.4749960582	-1.2848130664	 0.057661
C	 0.8019180795	-2.0310843908	-1.2365861721	-0.191247
C	 1.4479008613	-2.7089158634	-2.4472024088	-0.403888
C	-0.0278186353	 0.0372614084	-2.5458044377	-0.189013
C	-1.4864742306	-0.4131180403	-2.6746899555	-0.40928
C	 2.0993870824	 0.0568524643	-1.3392018947	 0.363624
C	 3.2201584609	 0.4927037617	-1.3837571564	-0.500946
H	 0.8719411931	 2.0253687716	 0.0831421767	 0.130508
H	-0.7847415149	 1.9442206478	-0.53476326	 0.116003
H	-0.4813144684	 1.7584706592	 1.1921675174	 0.111086
H	 0.6587859066	-0.385646419	 0.8682222188	 0.101505
H	-0.9211017125	-0.476080897	 0.1156524319	 0.09481
H	 1.3576443048	-2.3054642283	-0.3326713792	 0.101505
H	-0.2155922663	-2.4141809252	-1.0966715194	 0.094809
H	 0.859030193	-2.5714241441	-3.3593972682	 0.116003
H	 2.4510237897	-2.3125356789	-2.6303393588	 0.130508
H	 1.5370780806	-3.7862163949	-2.2761641533	 0.111086
H	 0.0169991588	 1.1307784892	-2.5487983817	 0.106994
H	 0.5307882848	-0.2805994776	-3.4316483134	 0.106994
H	-1.5790327692	-1.5019311048	-2.7320937604	 0.120352
H	-2.1003240374	-0.0699369909	-1.8363637469	 0.120352
H	-1.9246088846	-0.0006816167	-3.5890313414	 0.115188
H	 4.2092955729	 0.8770735946	-1.4225899578	 0.19052
