21
gdb 96108	2.16944	1.74048	1.21169	0.335	77.89	-0.2421	0.068	0.3101	1107.715	0.183349	-424.215544	-424.206855	-424.205911	-424.248302	34.19	
C	-0.0107163516	 1.516793504	-0.0221632625	-0.477775
C	-0.0239559076	 0.0018397524	 0.0087818338	 0.379173
C	-0.8724285722	-0.6851374575	 1.0482599483	-0.322649
C	 0.6337405007	-0.7192526471	 1.1707786997	-0.10468
C	 1.4009924682	-2.0148553536	 0.9161701771	-0.098817
O	 1.6907602593	-2.2561274973	-0.453531694	-0.236927
C	 0.5419457746	-2.12034372	-1.2612931732	-0.133935
C	 0.1072766192	-0.6503325123	-1.3536566101	 0.026216
O	-1.1435303961	-0.5272476889	-2.0276171396	-0.433837
H	 0.9353472179	 1.8969211832	-0.4257865834	 0.112635
H	-0.8225700897	 1.8916856736	-0.6537092337	 0.132104
H	-0.1392294722	 1.9358978453	 0.980663433	 0.108745
H	-1.4320244284	-0.0578069271	 1.7339486398	 0.107311
H	-1.3811229622	-1.6055023296	 0.7801138444	 0.11549
H	 1.0680424198	-0.0815763097	 1.9351250421	 0.085593
H	 2.3723343953	-1.9792423176	 1.4169910185	 0.109957
H	 0.8449455394	-2.873888742	 1.3275809695	 0.09062
H	 0.808317497	-2.494404122	-2.2560318863	 0.096001
H	-0.2939665289	-2.7349984131	-0.8879433844	 0.093912
H	 0.8923123702	-0.1086947245	-1.9049902626	 0.067596
H	-1.0066355129	-0.7518092461	-2.9537543963	 0.283267
