21
gdb 40804	3.66809	1.088	0.92321	1.6405	83.6	-0.2368	0.031	0.2678	1310.0866	0.184463	-387.085905	-387.077713	-387.076769	-387.118913	31.891	
C	 0.2892745531	 1.4440641043	-0.0560455475	-0.191692
O	 1.1433752246	 0.3303124428	-0.33140272	-0.236636
C	-0.218836923	 0.0688452708	 0.0260145141	 0.080368
C	-0.4778667463	-0.6915550542	 1.312384843	-0.009844
C	-0.2142639917	-2.1945644338	 1.0997320113	-0.196024
C	-0.6053794049	-3.0169548954	 2.3342221111	-0.268655
C	-0.1095251372	-2.3840264957	 3.607599398	-0.038655
C	 0.3236864072	-1.126381133	 3.6762643706	-0.064246
C	 0.3375070263	-0.1738215573	 2.5090212275	-0.264903
H	 0.5254407711	 1.9971671669	 0.8504418935	 0.114554
H	 0.0339973235	 2.0598359916	-0.9176763894	 0.111997
H	-0.821384682	-0.2797901371	-0.8165646364	 0.086409
H	-1.547061326	-0.5682534943	 1.5416003506	 0.075871
H	-0.7584799865	-2.552237865	 0.217815903	 0.088533
H	 0.8534063544	-2.3319574931	 0.8889001658	 0.115079
H	-1.6988125041	-3.1347792019	 2.3813557767	 0.104335
H	-0.2081081094	-4.0360448708	 2.2457779399	 0.102539
H	-0.1098748492	-3.0034312489	 4.501472532	 0.081668
H	 0.6903367808	-0.7340684228	 4.6221861634	 0.081883
H	 1.3721947567	 0.0098857115	 2.1868266213	 0.127805
H	-0.0520481874	 0.7986382255	 2.8366178614	 0.099616
