21
gdb 71794	3.62217	1.65391	1.50659	0.1313	84.91	-0.2506	0.0995	0.3501	975.7128	0.186203	-349.952909	-349.946216	-349.945272	-349.983391	29.262	
C	 0.0294596934	 1.4867168539	 0.0243786845	-0.500729
C	-0.053741686	-0.016520219	-0.0114810732	 0.334056
C	-1.3095373189	-0.7438488507	-0.4688792842	-0.296875
C	-0.8030591216	-2.1659522859	-0.2909470989	-0.029446
C	 0.6575547987	-2.2703563865	-0.8576342339	-0.052578
C	 0.9814888746	-3.1960810354	 0.351164862	-0.227649
C	-0.0434549963	-2.277763581	 1.0786934384	-0.052578
C	 0.6169260407	-0.8888894463	 1.0376354301	-0.098664
C	 1.1352373031	-0.8834421649	-0.3939187731	-0.098671
H	 1.00917246	 1.8226177083	 0.3798876456	 0.113913
H	-0.1266289895	 1.9183704416	-0.9712513193	 0.114966
H	-0.7283087368	 1.911979663	 0.6928895245	 0.114966
H	-2.1773982119	-0.5195804614	 0.1636258922	 0.090389
H	-1.5719143947	-0.5131897914	-1.5088282649	 0.090387
H	-1.4659855	-2.9951833881	-0.5341142587	 0.063409
H	 0.8619580474	-2.5634557228	-1.8878303463	 0.054974
H	 0.6091361142	-4.2157735718	 0.2124477531	 0.089009
H	 2.0099715883	-3.2187892181	 0.7234184084	 0.086026
H	-0.5451826026	-2.5783308147	 1.9989760055	 0.054973
H	 1.1728723466	-0.4745591476	 1.8690051997	 0.075061
H	 2.0935522315	-0.4648855111	-0.6738568314	 0.075062
