20
gdb 67738	3.31566	1.53971	1.34729	1.463	83.61	-0.2213	0.0072	0.2285	1046.5648	0.170902	-365.978087	-365.970105	-365.969161	-366.009769	32.564	
C	-0.0364252582	 1.5094874775	 0.0454813416	-0.48612
C	-0.0461408397	 0.0129175604	-0.1107752354	 0.325218
C	 0.8633864623	-0.6794177347	-1.0638010646	-0.157862
C	 0.4355932716	-1.9294957831	-1.2753003619	-0.1417
C	-0.7390729849	-2.2163393627	-0.368121507	 0.249556
C	-1.6747570996	-3.3471090296	-0.7364017248	-0.500506
C	-0.1288597838	-2.1612017595	 1.0849791792	-0.171234
N	-0.3971024329	-0.7046232164	 1.2149728912	-0.197028
C	-1.2773386512	-0.7975903124	 0.0064751515	-0.132064
H	 0.9369893438	 1.8590047664	 0.4058600067	 0.123134
H	-0.2400855606	 2.0008072666	-0.9122240902	 0.1172
H	-0.7922946341	 1.8240635446	 0.7689642125	 0.130679
H	 1.761203947	-0.2223138548	-1.461709833	 0.097134
H	 0.9434545665	-2.7007231615	-1.8435130459	 0.097063
H	-1.1318356952	-4.2956579276	-0.8163579176	 0.118919
H	-2.4590203787	-3.4749792407	 0.0172237308	 0.117043
H	-2.1607064731	-3.1610832729	-1.7004205275	 0.12218
H	-0.7716645982	-2.6741029825	 1.8064949046	 0.108196
H	 0.9117026807	-2.4769195963	 1.2160618778	 0.095709
H	-2.3021615818	-0.4348233405	-0.015447398	 0.084483
