21
gdb 115750	3.73401	0.85517	0.74249	1.3181	84.96	-0.2439	0.0499	0.2938	1569.2982	0.180669	-387.042504	-387.032514	-387.031569	-387.07823	36.125	
C	-0.0624970761	 1.6343644841	-0.206269441	-0.393729
C	-0.0510454648	 0.2123196157	 0.3655647656	-0.183006
C	-1.3224914923	-0.5420651746	 0.0172232674	 0.139568
O	-1.4836513192	-0.7372046985	-1.4095575749	-0.293746
C	-1.8321561963	-2.1248435821	-1.2250904817	-0.074756
C	-1.4640279066	-2.0696819482	 0.2716992293	-0.061911
C	-0.1987647244	-2.8470674492	 0.6647923501	-0.384931
C	-0.422418139	-4.2885301446	 0.6514293392	 0.28805
C	-0.6383784444	-5.4708360089	 0.6277372159	-0.424607
H	 0.8696422209	 2.1595071903	 0.0213804475	 0.111445
H	-0.1841004295	 1.6060051541	-1.2925964331	 0.140718
H	-0.8892545609	 2.2209112754	 0.2092668315	 0.113976
H	 0.8176482078	-0.3308825146	-0.0222597331	 0.099516
H	 0.0490300588	 0.2440938085	 1.4587361752	 0.095263
H	-2.1873132653	 0.0093641967	 0.4199744574	 0.067447
H	-2.893352071	-2.3121530881	-1.4331839761	 0.099812
H	-1.2249729885	-2.7910051096	-1.849226286	 0.108342
H	-2.2748042702	-2.3362211269	 0.9525505096	 0.087031
H	 0.6190675069	-2.6024232765	-0.0239907045	 0.137949
H	 0.13544068	-2.5362424954	 1.6627961701	 0.132046
H	-0.8143812758	-6.5177594376	 0.6120095115	 0.195525
