16
gdb 70181	3.69813	1.35916	1.13618	4.6168	74.02	-0.2362	-0.0395	0.1967	1060.1874	0.124661	-437.876969	-437.869363	-437.868419	-437.908939	29.928	
O	-0.1375366356	 1.3574295082	 0.3834299553	-0.464044
C	 0.0184238412	 0.0190553177	 0.0136419545	 0.305509
C	-0.4513348734	-0.4256348468	-1.3722166955	-0.376113
C	-1.2367705616	-0.792641015	-0.1435997668	 0.082565
O	-1.3156596821	-2.1072357924	 0.32555068	-0.236812
C	-0.1960445635	-2.7918157118	 0.7021002382	 0.374052
N	-0.3458888031	-4.0417877194	 0.8873423904	-0.502957
C	 1.0373586954	-2.0192173159	 0.9124462862	-0.158862
C	 1.1401902514	-0.7167221865	 0.6295251451	-0.143232
H	 0.4359721716	 1.8933438146	-0.1760366932	 0.288344
H	-0.8845148186	 0.3374108246	-2.0105398998	 0.126572
H	 0.1254990319	-1.1946281318	-1.8736498165	 0.134612
H	-2.1783565052	-0.2832937725	 0.0207028892	 0.131521
H	 0.5315864794	-4.4498445946	 1.2051814008	 0.22036
H	 1.8678717459	-2.5683970906	 1.3425442033	 0.109226
H	 2.0463745164	-0.1591285476	 0.8506717389	 0.109258
