17
gdb 54554	3.00126	1.61551	1.21942	3.4413	73.25	-0.2342	-0.0231	0.2111	1021.1169	0.135687	-417.903188	-417.895403	-417.894458	-417.935892	29.505	
C	 0.7284563091	 0.2885608729	 0.8506132172	-0.496011
C	-0.3005579269	 0.311637218	-0.2577643996	 0.236483
O	-0.3321669806	 1.1549787433	-1.1256326631	-0.301884
C	-1.3399649188	-0.7699125668	-0.2380133096	 0.310405
N	-2.169831118	-1.1400126885	-1.4211349587	-0.373326
C	-2.7261947468	-1.9861284238	-0.3191696742	-0.044712
C	-1.3084138452	-2.2425341201	 0.2869298223	-0.070888
N	-1.6558388509	-1.834632149	 1.6879722826	-0.34916
C	-2.4988891544	-0.9451425647	 0.8293928617	-0.07898
H	 1.4861610112	-0.4683794338	 0.6119335659	 0.146845
H	 1.2153747331	 1.2620664888	 0.9251992123	 0.138241
H	 0.2746138204	-0.0097296042	 1.799838194	 0.161051
H	-2.8039151791	-0.3746344465	-1.6598882695	 0.220937
H	-3.5465957232	-2.6931742664	-0.4557868644	 0.089361
H	-0.5872322359	-3.0205478021	 0.0375398952	 0.100483
H	-2.2354407181	-2.5517598284	 2.1316734632	 0.215566
H	-3.169805136	-0.1783751287	 1.2221800248	 0.095589
