22
gdb 6538	3.04358	1.63666	1.31628	1.0051	79.15	-0.2422	0.083	0.3252	1065.9239	0.196959	-350.192494	-350.182459	-350.181515	-350.226407	37.163	
C	 0.2394026389	 1.2367687726	 0.273907437	-0.244917
O	-0.2292101962	 0.0143140833	-0.2571953666	-0.278036
C	 0.5510909259	-0.5242108536	-1.2966743336	 0.403565
C	 0.4029929584	 0.2279394337	-2.6032927196	-0.454682
C	 1.8756418537	-1.1458700169	-0.9010959382	-0.392776
C	 0.6874420895	-2.0327712515	-1.2454424713	 0.273343
C	 0.0109861476	-2.7734437472	-0.1050016016	-0.438591
C	 0.7342342349	-2.8395347489	-2.5314213545	-0.456961
H	 1.2872569166	 1.1655808564	 0.5986292744	 0.105753
H	 0.1553412337	 2.066558237	-0.4419522739	 0.107049
H	-0.38637143	 1.4646797848	 1.1405441859	 0.123873
H	 0.7410060263	 1.2645706226	-2.4995919238	 0.116031
H	 0.9930622767	-0.2228459187	-3.4029407446	 0.117795
H	-0.6463615759	 0.2460559147	-2.9162910923	 0.122868
H	 2.7040191949	-1.089989765	-1.6011542102	 0.102037
H	 2.1656550514	-1.0822329815	 0.1428292488	 0.108788
H	-0.0540123704	-2.1565359833	 0.791241474	 0.125505
H	-1.0086218054	-3.0667685242	-0.3813216922	 0.111258
H	 0.5653560047	-3.6881559885	 0.1353936969	 0.105501
H	 1.2085518419	-3.8104226423	-2.3461691682	 0.115177
H	-0.2739977374	-3.0351118664	-2.9154197236	 0.115815
H	 1.3046961201	-2.3469128272	-3.3222611029	 0.111607
