17
gdb 55843	4.89011	0.79072	0.76155	2.1558	70.3	-0.2421	-0.0353	0.2068	1463.6828	0.134588	-455.16391	-455.15494	-455.153996	-455.198606	32.456	
N	 0.4210430383	 0.0531601375	 0.7783706679	-0.506077
C	-0.1557035001	 0.3480066821	-0.4163085643	 0.378103
O	 0.1496867469	 1.2951675732	-1.1122621451	-0.35908
C	-1.277509572	-0.6177001359	-0.8232498236	-0.263611
N	-1.2093306687	-1.9075327455	-0.1613049437	-0.109191
C	-0.2500044921	-2.9098521736	-0.6982919191	-0.290881
C	-1.3689458839	-3.9557260548	-0.5924625065	 0.392748
O	-1.4332584565	-5.1430049238	-0.6774009749	-0.271695
C	-2.3692242129	-2.8250841031	-0.3054068283	-0.285196
H	 1.1022001507	 0.6871456546	 1.1611403992	 0.261758
H	 0.0566267687	-0.7079850155	 1.3276328516	 0.264214
H	-2.2222191834	-0.1344477088	-0.5467735312	 0.13783
H	-1.2601345316	-0.6855125275	-1.9236711971	 0.116237
H	 0.0445203054	-2.7333724717	-1.7452556531	 0.132279
H	 0.6518982075	-3.0695054526	-0.0998387595	 0.137512
H	-3.0023927109	-2.9232371551	 0.5821651527	 0.137715
H	-3.0052292254	-2.6198286395	-1.1805804451	 0.127336
