19
gdb 84695	2.97757	1.6554	1.42728	1.8429	74.63	-0.2425	0.0059	0.2484	987.5439	0.16177	-423.038553	-423.031239	-423.030295	-423.070039	29.399	
C	-0.0397313221	 1.5774237003	 0.0127313558	-0.406195
C	 0.0087447476	 0.040427013	 0.0005801027	-0.025068
C	 0.6774955637	-0.4850664822	-1.2536524683	-0.084935
C	 1.8345322049	-1.1423033971	-1.1968515829	-0.063218
C	 2.4755096991	-1.3865939462	 0.1578758375	 0.135147
O	 1.9102968027	-2.5379750328	 0.7738833798	-0.259653
C	 0.6725642111	-2.0777650291	 1.3242050912	-0.108252
C	 0.7591198008	-0.5273473024	 1.2211722394	 0.034384
O	 2.164188828	-0.3245293005	 1.0346583846	-0.247817
H	 0.9734131636	 1.9858984224	 0.0608108653	 0.137693
H	-0.5205323675	 1.9626205211	-0.8920596389	 0.113594
H	-0.602994217	 1.9466095704	 0.8764093773	 0.11176
H	-1.0233025091	-0.3377377078	 0.032699832	 0.081073
H	 0.1874471573	-0.2883135066	-2.2041729394	 0.094211
H	 2.3182514526	-1.5500759154	-2.0784062417	 0.09665
H	 3.559320505	-1.5108188107	 0.1151222358	 0.092786
H	-0.1790036103	-2.478187818	 0.7615651286	 0.102821
H	 0.6102023569	-2.4223764602	 2.3606563847	 0.111685
H	 0.4654151428	-0.0227535681	 2.1444001166	 0.083333
