18
gdb 7291	4.29755	1.10008	1.00079	2.4348	74.17	-0.244	-0.0159	0.2281	1210.3639	0.149884	-347.799022	-347.789286	-347.788342	-347.834056	34.247	
C	-0.0109560494	 1.5175408539	-0.1347139488	-0.400081
C	-0.0148226964	-0.0178161254	 0.0085511009	-0.080792
C	 0.7543751118	-0.4767792087	 1.2680412642	-0.358802
C	 2.1661485454	-0.1182636851	 1.2339204547	 0.292447
C	 3.3297014529	 0.1807144285	 1.1814018697	-0.439359
C	-1.4610270986	-0.5163469466	 0.0648249001	 0.384853
C	-2.1676842104	-0.7076376087	-1.264810113	-0.482083
O	-2.0112058066	-0.7432054737	 1.1186718477	-0.304997
H	 1.0179655017	 1.8848105798	-0.1592010784	 0.142909
H	-0.5106803026	 1.8411044218	-1.0522357769	 0.118147
H	-0.5224381898	 1.9825883527	 0.7144412994	 0.132576
H	 0.4663315701	-0.4450117191	-0.8799121105	 0.091415
H	 0.2702807968	-0.046444838	 2.151422304	 0.148605
H	 0.6538579493	-1.5630652451	 1.3770147154	 0.134343
H	 4.3593840192	 0.438034375	 1.1540546182	 0.193453
H	-2.0203114624	 0.1519391844	-1.9260463682	 0.138087
H	-1.7390633302	-1.5778087013	-1.7770146862	 0.145159
H	-3.2322495309	-0.8782640844	-1.1006020421	 0.14412
