19
gdb 74619	2.56749	1.97272	1.41151	1.321	79.95	-0.2161	0.0124	0.2285	983.1786	0.158583	-385.860015	-385.852157	-385.851213	-385.891728	31.767	
C	-0.0274167364	 1.5098023014	 0.0223346082	-0.505282
C	-0.1161610303	 0.0188250549	-0.0342915458	 0.281559
C	-0.0113114676	-0.7841606767	-1.1056177208	-0.17007
C	-0.0082231203	-2.2039593006	-0.6856345384	-0.135545
C	 0.8901786173	-2.539735492	 0.5667340554	 0.095693
O	 1.321722034	-1.3828993682	 1.2374064397	-0.326015
C	-0.0945464553	-0.8697661498	 1.1996097768	 0.327545
C	-0.5084271239	-0.3295755742	 2.5397651126	-0.502193
C	-0.5624534758	-2.2789264703	 0.7171801654	-0.207369
H	 0.868067976	 1.8365374627	 0.5666944516	 0.134394
H	 0.0191414913	 1.9385933467	-0.9824598198	 0.123655
H	-0.888551355	 1.952768074	 0.5382277854	 0.121083
H	 0.1621646057	-0.4565647689	-2.1241663836	 0.094455
H	-0.1817120795	-3.0190579118	-1.3780060277	 0.084657
H	 1.5131808789	-3.4244673362	 0.6205389389	 0.106989
H	 0.1069198835	 0.5324146956	 2.8156060457	 0.1313
H	-1.5557584843	-0.0097653749	 2.5134374537	 0.122519
H	-0.3944699603	-1.0928207649	 3.3137868382	 0.129138
H	-1.4020619478	-2.8677003169	 1.0656755546	 0.093487
