25
gdb 116147	2.86901	0.97889	0.77473	1.2162	89.22	-0.2615	0.0796	0.3411	1555.0454	0.230361	-389.519739	-389.509957	-389.509012	-389.554003	37.895	
C	-0.0251681349	 1.5582657969	 0.0163634743	-0.402428
C	 0.0222765846	 0.02753342	 0.001268115	 0.037618
C	 0.6867371341	-0.5084968318	-1.2779358509	-0.174676
C	 0.7625153417	-2.0411839339	-1.2888117601	-0.219527
C	 1.4696326757	-2.5768134592	-0.037455225	-0.178201
C	 0.8049782664	-2.0637369906	 1.2496819837	 0.035118
C	 1.5113832102	-2.5779869951	 2.5005654047	-0.096818
O	 1.434350788	-3.997463152	 2.5130856173	-0.425029
C	 0.7331516079	-0.5282282618	 1.247583199	-0.194913
H	 0.9862634751	 1.9819565989	-0.0015398413	 0.109861
H	-0.5625066922	 1.9480332129	-0.8549658745	 0.108045
H	-0.5262046843	 1.9343130605	 0.9150641429	 0.106774
H	-1.013392909	-0.3452220371	 0.0181975664	 0.066918
H	 0.1428208971	-0.1463166967	-2.1588710641	 0.084581
H	 1.7031977533	-0.0937787093	-1.3496976599	 0.085931
H	-0.2549954151	-2.4538298789	-1.3345864645	 0.091422
H	 1.2769408769	-2.3885491751	-2.1921618824	 0.087127
H	 1.4821425156	-3.6701275634	-0.0328109787	 0.108058
H	 2.5204439867	-2.2497773174	-0.0467631016	 0.081114
H	-0.2222232843	-2.4565731713	 1.2817721272	 0.075556
H	 2.5610424171	-2.2381459631	 2.4960668785	 0.079784
H	 1.0330664255	-2.149790645	 3.3967684448	 0.079235
H	 1.9295118159	-4.3193185768	 3.27151338	 0.285332
H	 1.7541326855	-0.117818159	 1.2860628453	 0.085136
H	 0.2242128728	-0.1727495215	 2.1530554239	 0.083983
