16
gdb 16302	3.63025	1.6998	1.41486	3.8559	66.38	-0.2562	-0.0415	0.2146	914.8716	0.128582	-383.711134	-383.703447	-383.702503	-383.743204	28.1	
C	-0.0824705453	 1.5898648311	-0.1545672805	-0.408528
C	 0.0164294488	 0.0752133001	-0.0482033234	-0.058872
C	 1.1413675903	-0.6641041931	-0.8651418148	-0.266262
C	 1.69659166	-1.2014170225	 0.4563329118	-0.013293
O	 2.0089428624	-0.0994868566	 1.2884755614	-0.260633
C	 0.638262199	-0.5001734179	 1.2445801756	 0.31468
C	-0.0290978872	-0.9552685349	 2.4847941355	 0.050354
O	 0.5352923633	-1.2366596863	 3.51147093	-0.252399
H	 0.875875018	 2.0520404455	 0.0977236214	 0.138449
H	-0.3519652989	 1.892799627	-1.1715200796	 0.119478
H	-0.8434480795	 1.9871080803	 0.5257287642	 0.119858
H	-0.9524210026	-0.3985673053	-0.2382096111	 0.085301
H	 0.7483715676	-1.4415104629	-1.5235053177	 0.114208
H	 1.8354972627	-0.0288130334	-1.4210051715	 0.118985
H	 2.1873220207	-2.1432282434	 0.6755584221	 0.124435
H	-1.1350390693	-1.0418446578	 2.3807311568	 0.074241
