20
gdb 97445	3.05767	1.05581	0.90531	2.2997	78.99	-0.2312	0.0137	0.2449	1368.6057	0.169518	-440.269614	-440.260168	-440.259223	-440.304098	35.141	
C	-0.0093236008	 0.0303079054	 0.5070271037	-0.323396
N	 0.5266786871	-0.8920027431	-0.4775428836	-0.244142
C	 0.2717496627	-0.6679846562	-1.6976216012	 0.156784
O	 0.6961590263	-1.3936117502	-2.7295668665	-0.222382
C	 1.6654590952	-2.453184795	-2.509339506	-0.165322
C	 1.1627282695	-3.6367467378	-1.7112815373	 0.42407
O	 1.3646147599	-3.5568595803	-0.3363182181	-0.477793
C	-0.0527378378	-4.3807743495	-2.2235660585	-0.312994
C	 1.3207062508	-5.0144133072	-2.2890896309	-0.30846
H	 0.8103618902	 0.4705370331	 1.0851984018	 0.134444
H	-0.5972791817	 0.8475696052	 0.0636614546	 0.107139
H	-0.6479092791	-0.5119119429	 1.2128843324	 0.135048
H	-0.3425242965	 0.1666014568	-2.0541524445	 0.108568
H	 1.9312193596	-2.7480738192	-3.5256893189	 0.117387
H	 2.5413788377	-2.0252615497	-2.0107251617	 0.126651
H	 1.0779586274	-2.6557560307	-0.0874560521	 0.282538
H	-0.7346917349	-4.7484651091	-1.4660958915	 0.11802
H	-0.5204470759	-4.0534123143	-3.1461393962	 0.110947
H	 1.7949578266	-5.1313048824	-3.2577488629	 0.107362
H	 1.5458352235	-5.7966116829	-1.5735692525	 0.125531
