22
gdb 62034	3.79841	0.66254	0.58963	4.1454	87.38	-0.2844	0.0394	0.3237	1897.5723	0.193629	-367.224468	-367.214315	-367.21337	-367.26064	36.765	
C	 0.1075942598	 1.620088988	 0.214723294	-0.390091
C	 0.0205069857	 0.0980596149	-0.0159972211	-0.144412
C	 0.6811427146	-0.3726295956	-1.3348358136	-0.171991
C	-0.0133961257	 0.1500526658	-2.5995086902	-0.226046
C	 0.610181777	-0.3997593462	-3.8658145091	 0.032419
C	 0.1926757074	-1.7473032149	-4.4007101856	-0.25492
C	-0.1890873919	-0.4873086483	-5.1399408836	-0.27781
C	 0.6201261383	-0.6141779007	 1.1184473489	 0.264468
N	 1.1047156284	-1.1723640466	 2.007234227	-0.324953
H	 1.1504591723	 1.9505140409	 0.2165805658	 0.135862
H	-0.4246551278	 2.1564173207	-0.5739373685	 0.129524
H	-0.3380419864	 1.8942227657	 1.173995843	 0.13789
H	-1.0393534352	-0.1896191048	-0.0421222705	 0.124204
H	 1.7338799891	-0.0638923923	-1.3308392538	 0.112906
H	 0.6811791769	-1.4676850921	-1.3552263316	 0.121953
H	-1.076858646	-0.1255647673	-2.5721920442	 0.093767
H	 0.0201384305	 1.2461768188	-2.6262253971	 0.104048
H	 1.6622813794	-0.1513130221	-3.9855823206	 0.084391
H	 0.9483843554	-2.3923708025	-4.8347181024	 0.114684
H	-0.5929520127	-2.279591295	-3.8735382489	 0.110106
H	-1.2287996787	-0.1777993447	-5.1080331855	 0.110384
H	 0.3083405394	-0.2690497718	-6.0783690724	 0.113617
