16
gdb 16527	3.61305	2.41489	1.84283	1.9544	62.91	-0.2383	0.0626	0.3009	743.7568	0.131892	-383.69951	-383.693239	-383.692295	-383.729447	25.64	
O	-0.0721569291	 1.3128715725	-0.0006124918	-0.472917
C	 0.0129647312	-0.0754709339	-0.0114717675	 0.374465
C	 1.0101427119	-0.745403664	-0.9588037261	-0.153492
O	 0.4233582733	-2.0051750506	-1.2953690318	-0.261639
C	-0.6280723635	-2.232980009	-0.364160345	 0.081002
C	-0.0947075951	-2.3155733975	 1.1064858689	-0.25661
C	-0.4177829808	-0.8274710334	 1.24232986	-0.142234
C	-1.2584663618	-0.8597320849	-0.036241359	-0.129903
H	 0.6158033219	 1.6523752693	 0.5815880182	 0.287914
H	 1.1283618781	-0.142624554	-1.8665652528	 0.111407
H	 2.0018718375	-0.8945739868	-0.5077237882	 0.090061
H	-1.243535372	-3.0520042837	-0.7321221992	 0.086986
H	-0.7496564448	-2.9240116901	 1.7366241894	 0.104918
H	 0.9406672472	-2.6519392781	 1.2262476272	 0.096581
H	-0.6210718406	-0.2790507401	 2.1552439612	 0.085368
H	-2.2338706034	-0.4572216058	-0.2705408334	 0.098094
