20
gdb 120998	3.75813	0.90263	0.85669	3.4501	75.08	-0.2288	0.0712	0.3001	1417.4718	0.171409	-440.225466	-440.216684	-440.21574	-440.259651	32.699	
O	 0.0130192249	 1.3374654564	 0.1742365882	-0.421634
C	-0.046550295	-0.0815704767	 0.1516726171	-0.060136
C	-1.4493254741	-0.6043015423	-0.1677767491	-0.22588
C	-1.5100250032	-2.1156868412	-0.2205165426	 0.148123
O	-1.113846844	-2.7604399796	 1.0323878885	-0.322076
C	-2.2824703145	-3.5985567453	 1.0345293146	 0.117394
C	-3.4527010127	-3.0389821561	 1.8687239789	-0.18445
N	-3.8524921737	-2.169341401	 0.7212175211	-0.313582
C	-2.8760770869	-2.8378370982	-0.1747911186	-0.09508
H	-0.5545398697	 1.6391468601	 0.8906634735	 0.279424
H	 0.6610436957	-0.3921536911	-0.6256168354	 0.104421
H	 0.3003209939	-0.5165829529	 1.0998325828	 0.107737
H	-2.1659190238	-0.2563679591	 0.5847987311	 0.108069
H	-1.771079565	-0.2004054961	-1.1363169022	 0.099486
H	-0.8800889037	-2.5039653791	-1.035546811	 0.071701
H	-2.0432046369	-4.6625129886	 1.0953193062	 0.081199
H	-4.1910499254	-3.8088003149	 2.1271879224	 0.096446
H	-3.170884027	-2.4890209987	 2.7721968353	 0.112052
H	-4.8150638087	-2.2918822839	 0.4336652325	 0.223406
H	-3.26576909	-3.2791093517	-1.0931192633	 0.07338
