15
gdb 20946	7.57383	1.13128	0.99933	1.8845	63.66	-0.2293	-0.0082	0.2211	1138.0301	0.120008	-395.984109	-395.976556	-395.975611	-396.016781	26.624	
C	-0.0447211928	 1.524563333	-0.0723781116	-0.403161
C	-0.0196119023	 0.0143752805	 0.1330295622	-0.112794
N	-1.3570099379	-0.5446462102	-0.0125066342	-0.386046
C	-1.5547369379	-1.8884897128	-0.003509249	 0.471766
N	-0.5874725548	-2.776272432	-0.1203439268	-0.231763
O	-1.2970527496	-4.0039453871	-0.1171296625	-0.163333
C	-2.5787890305	-3.6889390982	 0.0168530321	 0.119744
N	-2.8294974581	-2.4229133761	 0.095714831	-0.3377
H	 0.9625189995	 1.9373157674	 0.027915196	 0.128766
H	-0.4264905076	 1.7786293383	-1.0654518928	 0.132583
H	-0.6795377054	 2.015993058	 0.674057679	 0.118462
H	 0.6219305322	-0.4641969818	-0.6136288958	 0.13933
H	 0.4085764378	-0.2330957226	 1.1161823684	 0.110041
H	-2.1256780539	-0.0144725057	 0.3688128653	 0.252745
H	-3.2864191086	-4.5052857007	 0.0471348987	 0.161359
