18
gdb 90628	3.31322	1.186	1.09564	5.4365	77.06	-0.2727	0.0315	0.3041	1155.1164	0.147265	-401.931491	-401.922817	-401.921873	-401.964457	32.95	
C	-0.0365177477	 1.5552321198	-0.0605744169	-0.469931
C	 0.074983544	 0.038830083	 0.0447654511	 0.153206
C	-1.1017256451	-0.6422661158	-0.4555647286	 0.234912
N	-2.05031961	-1.1644098488	-0.8630487645	-0.346326
C	 1.3414660719	-0.7662395376	-0.1979064012	-0.077489
C	 2.5729743387	-0.0014477645	 0.2931922274	-0.31343
C	 1.9627200593	-0.0408185333	 1.7423644645	 0.094309
O	 1.7341052083	 1.1565167327	 2.4483997618	-0.423337
C	 0.7147324766	-0.7264939226	 1.1985095938	-0.091732
H	 0.8021289577	 2.0497754896	 0.4253865914	 0.146431
H	-0.0843682171	 1.8615166838	-1.1102087121	 0.127655
H	-0.9498981113	 1.8965386448	 0.434588585	 0.139104
H	 1.3471766659	-1.5864259586	-0.9038135466	 0.113804
H	 3.4975055067	-0.5766013839	 0.2111686107	 0.112476
H	 2.7328476765	 0.9898852723	-0.1377496946	 0.111308
H	 2.5252414477	-0.7547913158	 2.3577719443	 0.088937
H	 2.5664585743	 1.4456230157	 2.8359058332	 0.289297
H	 0.1497687236	-1.4884012008	 1.7207122614	 0.110809
