20
gdb 100597	3.56545	0.86799	0.74925	3.1003	81.85	-0.2399	0.0089	0.2488	1560.9405	0.1704	-436.511818	-436.501202	-436.500258	-436.548734	36.586	
C	-0.2486071944	 1.7282006807	-0.4664650918	-0.376759
C	-0.0102939158	 0.266227053	-0.0803392957	-0.156025
N	-1.2460173561	-0.4904605777	 0.1221239493	-0.141558
C	-1.9728374988	-0.9732235517	-1.0406147777	-0.363346
C	-1.7350524725	-0.5796123306	 1.4015269389	 0.545313
O	-1.1713200912	-0.1023971053	 2.3733058513	-0.424759
N	-2.9411076212	-1.2707307001	 1.5256130642	-0.371957
C	-3.5706138432	-1.4511645515	 2.7424640752	 0.105284
N	-4.6661078426	-2.09445726	 2.8049754897	-0.480937
H	 0.7066744107	 2.2401484853	-0.6204287529	 0.119716
H	-0.8275759238	 1.8133036567	-1.3923386743	 0.112148
H	-0.7909861109	 2.2460226841	 0.3292741739	 0.140187
H	 0.5747663379	-0.2450980078	-0.8533794604	 0.100513
H	 0.5485347298	 0.2147302065	 0.8544305308	 0.149338
H	-2.1366508511	-2.0578445535	-1.0006200057	 0.137991
H	-2.9431726797	-0.4763628517	-1.1706721771	 0.13761
H	-1.3787345813	-0.7699465663	-1.9327238814	 0.143098
H	-3.4083870698	-1.6787389568	 0.7314846777	 0.256215
H	-3.0173211983	-0.9892967262	 3.561657766	 0.139892
H	-4.9937648677	-2.1334620473	 3.76797557	 0.228037
