18
gdb 30730	2.99428	1.18751	0.90715	2.5187	75.9	-0.1824	0.0456	0.228	1290.5873	0.146832	-439.114419	-439.104749	-439.103805	-439.149135	35.358	
C	-0.3185835755	 1.5908375998	-0.0867958899	-0.364341
C	 0.1347197542	 0.1264303588	 0.0555486461	-0.3016
C	 0.8157051485	-0.4196592538	-1.1568272569	 0.241604
C	 2.1243833546	-0.8187891087	-1.3414823214	 0.055943
O	 3.1687891229	-0.7775290509	-0.4349518177	-0.459899
C	 2.2873412026	-1.2294595109	-2.6933700778	 0.264396
O	 3.4495368109	-1.6797240189	-3.2426843695	-0.456586
C	 1.072416567	-1.0863722726	-3.3167756503	-0.190299
N	 0.1917038387	-0.5973567287	-2.3673551919	-0.318093
H	 0.5349067846	 2.2414095829	-0.2979902426	 0.130026
H	-1.0363168775	 1.7105129307	-0.9053725042	 0.10732
H	-0.8009656512	 1.9410044259	 0.8313566168	 0.111911
H	 0.8404950899	 0.0460625647	 0.8887514921	 0.112062
H	-0.7313685473	-0.4951992147	 0.323980839	 0.101344
H	 3.1241371432	-1.5573168561	 0.1288651608	 0.29744
H	 4.1299363129	-1.5530204871	-2.5699317343	 0.293762
H	 0.7669841201	-1.2868187129	-4.3290374191	 0.117925
H	-0.7782302786	-0.4055312175	-2.5406538693	 0.257084
