23
gdb 62999	2.29265	1.70475	1.4668	0.3115	87.4	-0.2404	0.083	0.3235	1070.5775	0.206923	-351.141789	-351.133457	-351.132512	-351.173749	34.941	
C	 0.014900744	 1.5618444414	 0.0117409431	-0.408985
C	 0.0123281104	 0.0252514509	 0.0020069985	 0.266573
C	-1.4411900619	-0.4874332857	 0.0007082973	-0.426836
C	 0.7245880227	-0.5757444377	-1.2299743105	-0.043327
C	 2.1847721242	-0.3181155142	-1.5075401816	-0.32586
C	 1.7713839866	-1.5685939603	-0.7699185453	-0.039063
C	 1.7734288551	-1.5781958492	 0.7489770991	-0.039062
C	 2.1888067496	-0.3371373772	 1.5012486311	-0.325859
C	 0.7278818202	-0.5912780164	 1.2243764594	-0.043329
H	 1.0320755612	 1.9631591263	 0.0129748987	 0.108038
H	-0.499181727	 1.9596656887	-0.8702006754	 0.107364
H	-0.4969041626	 1.9484360098	 0.8999778784	 0.107364
H	-1.9835741379	-0.1292629937	-0.8810707296	 0.107492
H	-1.4697020314	-1.5819982959	-0.0061964069	 0.114963
H	-1.9811990201	-0.1404908344	 0.8884147563	 0.107491
H	 0.0947606759	-0.7882212818	-2.0887475221	 0.073848
H	 2.5080844527	-0.4377692682	-2.5366996156	 0.105098
H	 2.712376446	 0.4691337589	-0.9834122373	 0.109086
H	 1.9025846159	-2.5228565913	-1.267433741	 0.078487
H	 1.9059768442	-2.5386665208	 1.234034008	 0.078487
H	 2.5148846885	-0.4698090763	 2.527936913	 0.105098
H	 2.7150008278	 0.4567083922	 0.985722682	 0.109086
H	 0.1003467558	-0.8146069349	 2.0820734405	 0.073847
