18
gdb 125249	6.71416	0.72859	0.66539	1.7898	75.68	-0.2485	-0.0005	0.2481	1658.4674	0.146555	-439.08848	-439.079083	-439.078139	-439.123846	32.891	
C	 0.143122916	 1.486765465	 0.3559481204	-0.489896
C	-0.0795446685	 0.0482648445	 0.0488164619	 0.443692
C	-1.0996290317	-0.8159460827	 0.2914459336	-0.421028
C	-0.6574168422	-2.048097717	-0.276039855	 0.380278
C	-1.3826371774	-3.3590509248	-0.3039746888	-0.295228
C	-0.6175878155	-4.4821077008	-0.9954996534	-0.07771
O	-1.443353083	-5.6365738194	-0.9300598936	-0.425014
N	 0.533231753	-1.921852779	-0.8132082866	-0.202323
O	 0.9048590542	-0.591713131	-0.6094609637	-0.222286
H	 1.034608935	 1.6210838729	 0.9772922221	 0.150845
H	 0.2923309567	 2.0648100599	-0.5618936364	 0.150831
H	-0.7169216792	 1.8962860322	 0.888841124	 0.140932
H	-2.0292815396	-0.613418167	 0.797401059	 0.113051
H	-1.6153989962	-3.6694338415	 0.7220988613	 0.12782
H	-2.3503999496	-3.2303406726	-0.8041940642	 0.127825
H	-0.3967148202	-4.1979915142	-2.03398007	 0.105623
H	 0.3459891241	-4.6418104018	-0.4915524585	 0.105616
H	-0.978750126	-6.3590211327	-1.3616510722	 0.286972
