15
gdb 2414	4.91313	2.40084	2.00986	2.1728	57.06	-0.2502	0.0761	0.3263	670.7171	0.125628	-345.591597	-345.585249	-345.584305	-345.621344	24.863	
O	-0.0264659692	 1.4634995902	-0.0347589195	-0.444847
C	 0.0367237533	 0.0595141752	 0.0219339238	 0.16144
C	-0.0215057153	-0.6578566349	 1.4147790566	-0.155187
C	-1.4925411251	-0.1616857559	 1.5179692994	-0.233768
C	-1.3381115926	-0.657579597	 0.0461779936	-0.094944
C	-0.605360208	-1.8822939559	 0.641353518	 0.148261
O	 0.2011488088	-2.6111291082	-0.2519497808	-0.441974
H	 0.8720072492	 1.8034782423	 0.0051275322	 0.283527
H	 0.7674180084	-0.3421822366	-0.6836573679	 0.083523
H	 0.7359754055	-0.6660588432	 2.2013445957	 0.061172
H	-2.1625713738	-0.7396247176	 2.1607705162	 0.085141
H	-1.6252063769	 0.9099583061	 1.643990294	 0.120261
H	-2.0932953099	-0.6622513093	-0.7401381294	 0.075085
H	-1.2386313515	-2.5442374726	 1.245480262	 0.068076
H	 0.7170886471	-3.2424079325	 0.258603786	 0.284232
