14
gdb 124104	3.72101	1.65824	1.18415	1.5513	62.4	-0.2394	-0.0099	0.2295	952.0952	0.105224	-469.997637	-469.991261	-469.990316	-470.028482	24.53	
C	 0.0326984712	 1.3821303164	 0.016906525	-0.000255
O	 1.3156262983	 1.9233655718	-0.0186333436	-0.233404
C	 2.0635995106	 1.6877325539	 1.1833972012	-0.198635
C	 1.8860366089	 0.2462601433	 1.5325908684	 0.192814
N	 2.5603342283	-0.5421525392	 2.3652548265	-0.286129
N	 1.9649816545	-1.7183081115	 2.2030055044	-0.092635
N	 0.9495576084	-1.7766598345	 1.3330493997	-0.309771
C	 0.8938137958	-0.5237737625	 0.9041439941	 0.380051
O	 0.0227473709	-0.0557545515	-0.0074310134	-0.254891
H	-0.5119253829	 1.7093228417	 0.9171980879	 0.102956
H	-0.4827360731	 1.6973619522	-0.8894797793	 0.137335
H	 3.1010175067	 1.9398409643	 0.9511244252	 0.145494
H	 1.7192835838	 2.3585469624	 1.9849360807	 0.120504
H	 2.2652921188	-2.5352373769	 2.7074250631	 0.296565
