14
gdb 49965	2.7528	1.23064	0.97482	0.8631	71.12	-0.2665	-0.0523	0.2142	1173.6465	0.097104	-436.642339	-436.633436	-436.632492	-436.676461	31.176	
O	 0.4211727502	 0.0377496115	 0.8083865719	-0.267592
C	 0.1896738217	 1.1229882965	 0.3469969534	 0.153153
N	 1.053127105	 1.8026979651	-0.518584081	-0.109944
C	 2.4659784514	 1.8789937966	-0.3208939698	-0.254446
C	 1.6030989218	 3.1390998266	-0.2307029238	-0.025439
C	 1.616104607	 4.0395350862	-1.4432570785	 0.13157
O	 1.6116849393	 5.2374586791	-1.4044692915	-0.230129
C	 1.3897665068	 3.7451668613	 1.0540186899	 0.285159
C	 1.1894224115	 4.259927117	 2.1204835528	-0.405281
H	-0.7561084138	 1.6723708434	 0.4942406291	 0.109288
H	 2.8678296488	 1.5076225	 0.6172903422	 0.162806
H	 3.0876335495	 1.7313489968	-1.2002228158	 0.142496
H	 1.6355557857	 3.4631331633	-2.3938114858	 0.095766
H	 1.019868495	 4.7182880764	 3.0639918871	 0.212592
