23
gdb 106399	2.43606	1.28625	1.21187	1.435	86.28	-0.2626	0.075	0.3376	1214.1036	0.204806	-388.235373	-388.225642	-388.224698	-388.269668	37.359	
C	-0.1358240772	 1.5325363822	 0.0377021794	-0.470107
C	-0.020103903	 0.0021478654	 0.0132210974	 0.31418
C	-1.433730169	-0.5446099637	-0.2293384139	-0.470112
C	 1.1841334692	-0.6500476548	-0.7676508177	-0.089617
C	 2.1409070222	-0.1322023078	 0.3464638188	-0.271016
C	 0.8965430756	-0.7090405592	 1.090960362	 0.341888
C	 0.6731588189	-0.7600846077	 2.5761643049	-0.229001
O	 1.739167203	-1.4988261625	 3.1592810817	-0.420177
C	 1.0228551765	-1.9215700788	 0.1167062853	-0.271069
H	 0.8029227921	 2.0592362317	 0.2081674362	 0.115369
H	-0.5431532227	 1.8901174945	-0.9152071398	 0.113603
H	-0.8364711625	 1.8486504388	 0.8195415693	 0.110682
H	-1.8234929215	-0.1597766592	-1.1789733606	 0.113612
H	-1.5033637948	-1.6315922484	-0.2658400719	 0.115357
H	-2.1157351035	-0.1979693428	 0.556035432	 0.110675
H	 1.3552942407	-0.6185546207	-1.8457889741	 0.06142
H	 3.0633417539	-0.700723545	 0.4786919018	 0.097106
H	 2.3379579216	 0.9364616323	 0.4131098147	 0.0865
H	 0.6322651236	 0.2661743698	 2.9778993273	 0.084947
H	-0.3011445515	-1.2322833183	 2.7859801622	 0.084955
H	 1.5951961238	-1.5315170319	 4.1095177993	 0.287223
H	 0.1537472431	-2.5593157069	-0.0357738365	 0.08649
H	 1.9232706117	-2.5253658071	 0.2443325422	 0.09709
