16
gdb 66813	3.69578	1.81543	1.80698	1.1534	68.6	-0.2197	0.0677	0.2874	814.5115	0.126509	-400.66591	-400.66005	-400.659106	-400.695696	25.535	
O	-0.109865522	 1.407865497	-0.0420700517	-0.465985
C	 0.0186257772	 0.0379449342	-0.0406105904	 0.406773
C	-0.0827763392	-0.8736801552	 1.163265636	-0.169346
C	 0.9736893637	-1.9507275683	 1.0492304799	-0.062206
C	 0.7147309861	-2.7942524791	-0.1371421918	-0.050834
C	-0.2728672545	-1.9258157919	-0.9535905757	-0.074954
C	-1.07329994	-1.0089919016	 0.0056357498	-0.146746
C	 0.8574223871	-0.857053923	-0.985164303	-0.103355
N	 1.8010921198	-1.748604748	-0.1861035247	-0.163456
H	 0.6397089531	 1.7853607275	 0.4328496481	 0.289225
H	-0.4179746738	-0.4739062585	 2.1110350926	 0.093941
H	 1.5157610354	-2.3166186005	 1.9124190482	 0.094482
H	 0.9242237743	-3.8537959116	-0.2336238809	 0.093277
H	-0.7385584754	-2.3084677186	-1.8573780845	 0.078437
H	-2.1457743648	-0.90408774	 0.1138015907	 0.096866
H	 1.280092263	-0.4492883924	-1.9000285227	 0.08388
