15
gdb 26735	3.44724	1.28254	0.94022	3.868	71.	-0.2175	-0.0433	0.1741	1177.7054	0.112023	-454.00039	-453.991698	-453.990753	-454.034064	30.511	
C	 0.0611928062	 1.5214666696	 0.0432144714	-0.495865
C	 0.0698820293	 0.0309710524	-0.0272861843	 0.152085
C	 0.0041474091	-0.7815130341	-1.1180359989	 0.305978
O	-0.0869432479	-0.5856992588	-2.4537827744	-0.437622
N	 0.0467475461	-2.0950956049	-0.6557416856	-0.111486
C	 0.0063267964	-3.2650085125	-1.4162551655	 0.176313
O	 0.0482867612	-4.366063284	-0.9353487523	-0.287472
C	 0.1386263178	-1.9967908863	 0.730608234	 0.01496
N	 0.1538763219	-0.7614902807	 1.1225098493	-0.309618
H	 0.9738651082	 1.9013258664	 0.5147121533	 0.145848
H	-0.0100937831	 1.975195448	-0.9519288161	 0.096968
H	-0.7865330216	 1.8856215414	 0.6334231743	 0.145874
H	-0.1061080562	 0.3613288236	-2.6260880326	 0.314951
H	-0.0676469527	-3.0545180372	-2.494684178	 0.126033
H	 0.1874039152	-2.882993923	 1.3420578354	 0.163053
