18
gdb 17531	5.10153	1.43278	1.30363	2.2798	72.87	-0.2217	0.071	0.2928	994.7145	0.154459	-343.909325	-343.901952	-343.901008	-343.940645	28.677	
C	-0.0687869927	 1.4400382961	-0.0136283685	-0.418548
C	 0.0243698409	-0.0641052381	-0.0849386586	 0.024284
C	 0.7661908114	-0.7127805281	-1.1911074413	-0.143148
N	 1.3595170942	-0.6184347748	 0.2095262163	-0.141119
C	 1.1761431626	-2.112600586	 0.3440975781	-0.240463
C	 0.6612662727	-2.2156187694	-1.0943538725	 0.360842
C	-0.2643123917	-3.1395878929	-1.7842842283	-0.312346
N	 1.1924763248	-3.1804222535	-2.0470865386	-0.367644
H	 0.8315997699	 1.901226082	-0.4287165183	 0.128706
H	-0.9365639886	 1.8037334398	-0.5739444833	 0.11667
H	-0.1680583049	 1.7720237826	 1.0247390976	 0.125978
H	-0.8341074022	-0.6004205011	 0.3218386858	 0.083
H	 1.1805075407	-0.1570101709	-2.0290959477	 0.091365
H	 2.1416111333	-2.6047732916	 0.4778142335	 0.125408
H	 0.496682764	-2.3997308315	 1.1538948901	 0.103439
H	-0.6550319474	-4.0127750408	-1.2683773056	 0.1205
H	-0.9250739499	-2.7281882524	-2.5438575169	 0.111749
H	 1.4013854329	-2.7256292995	-2.9334352416	 0.231324
