15
gdb 4433	3.52735	1.81309	1.21187	4.9204	64.81	-0.1762	0.0529	0.2291	950.1321	0.119893	-396.041859	-396.033672	-396.032728	-396.074053	29.861	
C	 0.0447542969	 1.5136248311	-0.1307977053	-0.508571
C	-0.0446306696	 0.0327012983	-0.0268590339	 0.275353
C	-1.1058831877	-0.8055609166	-0.0765041536	 0.202565
N	-2.472556902	-0.6050833669	-0.3281130389	-0.608347
N	-0.6331335266	-2.1039793117	 0.1314324837	-0.366195
C	 0.7533110407	-2.1208289099	 0.2593131191	 0.435332
O	 1.4869010794	-3.0799679491	 0.3997402324	-0.435446
N	 1.0865137074	-0.7785104348	 0.184654852	-0.401623
H	 0.6012668896	 1.8399912192	-1.0192555544	 0.132205
H	-0.9551813526	 1.9523142102	-0.1900226601	 0.122205
H	 0.5426053376	 1.9521344838	 0.7435149578	 0.132869
H	-3.0448135374	-0.7124405773	 0.5051616173	 0.247238
H	-2.648035269	 0.3109149627	-0.7204678689	 0.247287
H	-1.1667847425	-2.9414839006	-0.0235018794	 0.264741
H	 2.0434184459	-0.4729642383	 0.190812132	 0.260387
