19
gdb 41285	2.85122	2.052	1.83627	1.7605	78.01	-0.2375	0.0722	0.3096	859.4298	0.16236	-385.806973	-385.800835	-385.799891	-385.836918	27.194	
C	 0.0865013916	 1.5300809898	-0.1086098106	-0.201612
O	 1.5511424763	 1.5100960132	 0.0080833515	-0.3526
C	 1.5105669647	 0.1993758499	 0.5837129653	 0.428641
C	 1.7478063985	-0.2879384464	 1.9988052246	-0.30507
C	 0.9890719674	-1.5340401856	 1.4274331893	-0.044792
C	-0.4571350894	-0.9574364535	 1.2264798137	-0.300646
C	 0.0297755638	 0.0181841975	 0.1513385047	 0.210734
C	 0.5174297112	-0.9277898312	-0.992981106	-0.281443
C	 1.6526454547	-1.2338628205	-0.0131149467	-0.096436
H	-0.3562787926	 2.1569255628	 0.6758179387	 0.105048
H	-0.2308893343	 1.8872175951	-1.0932933326	 0.108665
H	 2.8016262568	-0.5043141693	 2.1981546118	 0.101161
H	 1.3010895241	 0.2410143692	 2.8464090008	 0.093646
H	 1.1121989888	-2.51371197	 1.8863839088	 0.072177
H	-1.1938407015	-1.6847368272	 0.8747646085	 0.095774
H	-0.8323872834	-0.4909122658	 2.1412525462	 0.100482
H	-0.1550140449	-1.7291852843	-1.3130068464	 0.088861
H	 0.8779781947	-0.3724138961	-1.8618981472	 0.111124
H	 2.5780723034	-1.7641438377	-0.2445216744	 0.066288
