20
gdb 121006	3.39149	0.95172	0.82605	2.0795	77.45	-0.249	0.0299	0.2789	1477.438	0.170034	-440.316977	-440.307451	-440.306507	-440.352223	33.946	
C	 0.1664167097	 1.5436464061	-0.0669929541	-0.385628
C	-0.0095495236	 0.0365391022	-0.0175624083	-0.046379
O	 0.640820758	-0.4500408962	 1.154123511	-0.24028
C	 0.6304227005	-1.8291387988	 1.2902023622	 0.187544
C	 1.4061290337	-2.2303636653	 2.5602589567	-0.209346
N	 0.3830489834	-2.6628353427	 3.5173192484	-0.303987
C	-0.7160958803	-2.6743557635	 2.8817350691	 0.402748
C	-2.0517686897	-3.0579291079	 3.4175034769	-0.476168
O	-0.7047349713	-2.3153687721	 1.5588951801	-0.263313
H	 1.2271304208	 1.808224662	-0.0983031869	 0.127128
H	-0.3210539923	 1.9524739774	-0.9570039232	 0.117553
H	-0.2772290174	 2.0108635467	 0.8166312058	 0.130806
H	-1.0725764923	-0.2351702502	 0.0075268369	 0.110645
H	 0.4331506154	-0.4396699029	-0.9072751936	 0.090339
H	 0.9551370485	-2.315996277	 0.3610376684	 0.075967
H	 2.1128581196	-3.0458909058	 2.3727264503	 0.114316
H	 1.9671934394	-1.3726308769	 2.9411266879	 0.127981
H	-1.9566275371	-3.3538686064	 4.4616869278	 0.152136
H	-2.7486800447	-2.217913509	 3.3346795449	 0.144398
H	-2.4699101801	-3.8859952197	 2.8364164699	 0.14354
