10
gdb 21393	5.94156	2.37038	1.6944	4.4321	52.61	-0.2675	-0.0446	0.2229	657.6001	0.064126	-405.777157	-405.772088	-405.771144	-405.806252	18.991	
N	 0.021378832	 1.341026721	 0.0096564151	-0.342759
N	 1.3127053945	 1.8017062739	-0.0004245989	-0.181449
C	 2.0742677503	 0.7410158293	-0.0139713853	 0.039492
N	 1.2959254971	-0.3950766737	-0.0125681234	 0.022249
N	 1.3319220692	-1.7618008477	-0.0203924225	-0.161989
N	 0.0821560884	-2.115188742	-0.0111161818	-0.084004
N	-0.794518092	-1.0701791282	 0.0040949473	-0.348834
C	-0.0042919369	-0.0123457914	 0.0023945364	 0.563163
H	-0.7431181105	 1.9925835162	 0.0223437953	 0.305444
H	 3.1501899379	 0.7529367725	-0.0244640723	 0.188687
