19
gdb 85287	2.50967	1.602	1.18685	3.9711	77.67	-0.2435	0.0206	0.2641	1102.8359	0.159793	-419.212639	-419.204144	-419.2032	-419.245373	32.747	
C	 0.1752115708	 1.5159685356	-0.1076433737	-0.406542
C	-0.0479591413	 0.0242150022	 0.0719921026	 0.092204
O	 0.4377266765	-0.6730095241	-1.1012474866	-0.267798
C	 1.1505728804	-1.7917742545	-0.769066394	 0.465478
N	 1.4881848895	-2.7083927057	-1.5691597565	-0.556407
C	 1.4388046033	-1.7566333592	 0.6892127635	-0.201824
N	 2.1388799629	-0.4950457298	 1.0727313352	-0.366841
C	 0.6830531002	-0.6131007125	 1.2544694384	 0.306193
C	 0.0556015502	-0.5823367364	 2.6215393183	-0.501079
H	 1.2457023267	 1.7278358407	-0.1460528208	 0.148956
H	-0.2929180339	 1.8618670418	-1.0327096322	 0.129018
H	-0.2689662664	 2.0688746197	 0.7266730042	 0.114013
H	-1.1212456759	-0.1951501617	 0.158323943	 0.084407
H	 1.1309470041	-2.5116759844	-2.5061685595	 0.221407
H	 1.6468494546	-2.6779237686	 1.2173311433	 0.11318
H	 2.5986649573	-0.6534923396	 1.9679703789	 0.233841
H	 0.00290826	 0.4413196667	 3.0093169635	 0.134089
H	-0.9628027503	-0.9841737044	 2.5981409373	 0.133312
H	 0.6367959813	-1.1792837159	 3.3314227751	 0.124393
