16
gdb 128188	4.4423	0.95959	0.79397	4.2472	82.68	-0.2045	0.0036	0.2081	1391.0633	0.124873	-396.909774	-396.901059	-396.900115	-396.94322	32.228	
C	 0.0863725214	 1.4148146743	 0.0339515388	-0.327672
N	 0.0264050002	-0.0379264623	 0.109933317	-0.407992
C	-1.228652525	-0.6213240095	 0.0379122753	 0.454822
C	-2.5029221145	-0.0881778081	 0.05145201	-0.402881
C	-3.3653432802	-1.2195493112	 0.0213909945	 0.216943
N	-2.6833566305	-2.3670561486	-0.0137924012	-0.301113
N	-1.3881397002	-1.9731421881	 0.0002067659	-0.282552
C	-4.7837950153	-1.2024528492	 0.0159502191	 0.272012
C	-5.9860325901	-1.148121726	 0.0127144019	-0.421009
H	 1.129491662	 1.7296291033	 0.1072719105	 0.129529
H	-0.3439324058	 1.8242165409	-0.8924113969	 0.121895
H	-0.4569670814	 1.8439828051	 0.8808658684	 0.145896
H	 0.7112519889	-0.4895753215	-0.4814238202	 0.238766
H	-2.7865256564	 0.9495437343	 0.0657225307	 0.107838
H	-0.6686660093	-2.6749054634	 0.0397965317	 0.268855
H	-7.0469547639	-1.11352612	 0.0098593346	 0.186661
