15
gdb 133006	3.72456	1.16232	0.89074	2.6	76.17	-0.2066	-0.0454	0.1611	1225.0229	0.113019	-458.127749	-458.119788	-458.118843	-458.160849	28.987	
C	-0.0094240812	 1.4046155735	 0.1338364552	-0.325738
N	 0.1253262455	-0.036404491	 0.0527561913	-0.350749
C	 0.6211035409	-0.5538240787	-0.9972721946	 0.459341
N	 0.7198358936	-1.9775203586	-0.9989314785	-0.407741
C	 1.2200006429	-2.66789479	-2.0317635335	 0.428547
F	 1.2365066955	-3.975438656	-1.8640196805	-0.046517
C	 1.6687301698	-2.0467414904	-3.1532686395	-0.36041
C	 1.5565139778	-0.6238992386	-3.120741565	 0.037093
N	 1.0787848878	 0.0868320331	-2.1422900878	-0.31809
H	 0.5446043843	 1.7718775213	 1.0067601036	 0.115027
H	 0.3443222354	 1.9345515516	-0.7569023419	 0.130211
H	-1.0627672188	 1.661175079	 0.3025640066	 0.115026
H	 0.3898950203	-2.4540841254	-0.1711825123	 0.276999
H	 2.0729819811	-2.5940829212	-3.9897157407	 0.124095
H	 1.900631785	-0.0679342587	-3.9933122723	 0.122907
