21
gdb 103817	2.45591	1.20684	1.03781	2.8319	80.63	-0.2369	-0.0058	0.2311	1299.1179	0.178453	-424.229608	-424.218969	-424.218025	-424.265751	37.882	
C	-0.0623283588	 1.259460283	 0.1774251581	-0.244103
O	-0.3937464228	 0.0026902012	-0.3817721294	-0.271406
C	 0.551650587	-0.5196649002	-1.2658787688	 0.432439
C	 0.4411536471	 0.0210473917	-2.6762551759	-0.446234
C	 1.8784657371	-0.9605336592	-0.7303089903	-0.356088
C	 0.8424167045	-2.0099030201	-1.0892905563	-0.20051
C	 0.1744481157	-2.7463926216	 0.0341991222	 0.406128
C	-0.7352447479	-3.8878854692	-0.3811890391	-0.48401
O	 0.3385918954	-2.4455187713	 1.1953260398	-0.3166
H	 0.8856920533	 1.2210959752	 0.7297102272	 0.115445
H	 0.0073195538	 2.0483510932	-0.5850414611	 0.104603
H	-0.8668396146	 1.5131959833	 0.8709650537	 0.1315
H	 0.6446337873	 1.0971324891	-2.6996898963	 0.123535
H	 1.1573223566	-0.4661327602	-3.3436467433	 0.11792
H	-0.5680071469	-0.1408561176	-3.0676706359	 0.127796
H	 2.7592721713	-0.8642085367	-1.3553179607	 0.112119
H	 2.0380637768	-0.8615716065	 0.3380197328	 0.144287
H	 0.9575814646	-2.569238653	-2.0124961815	 0.088035
H	-0.1680478773	-4.6458910011	-0.9339325434	 0.134251
H	-1.1906606416	-4.3409796116	 0.4999635698	 0.139374
H	-1.5165958007	-3.5195224687	-1.0557271518	 0.141518
