16
gdb 24071	6.7249	0.74953	0.70414	3.2412	76.95	-0.213	0.0163	0.2293	1528.5362	0.126355	-396.961736	-396.953419	-396.952474	-396.996176	30.019	
N	 0.1044952017	-1.1798404509	 0.0007213988	-0.29552
C	 0.165389906	-0.0396570823	-0.1732979394	 0.248242
C	 0.2264708819	 1.4119554456	-0.3720646611	-0.273075
N	 1.233553378	 2.0184584428	 0.508762585	-0.406662
C	 1.4305475105	 3.4025652219	 0.3047084599	 0.276196
C	 0.7035115299	 4.5254564337	 0.6428121325	-0.20497
C	 1.4209928977	 5.6559864286	 0.1637930092	-0.135102
C	 2.5580079794	 5.1916905483	-0.4579806491	-0.091279
N	 2.5536141621	 3.8251586966	-0.3679690057	-0.245701
H	 0.51052089	 1.6110201054	-1.4106645779	 0.162781
H	-0.7869256379	 1.82244853	-0.2376534946	 0.145673
H	 1.0155755743	 1.8125013268	 1.4767276796	 0.24677
H	-0.2354007887	 4.5310317278	 1.175826694	 0.090608
H	 1.1338308794	 6.6915139694	 0.2617156259	 0.097532
H	 3.3620248705	 5.7155187346	-0.9489291222	 0.120151
H	 3.2760959652	 3.1999520816	-0.6824444152	 0.264356
