19
gdb 111026	2.54605	1.3517	1.04171	1.5456	84.21	-0.2509	0.0464	0.2972	1214.1812	0.158183	-385.796687	-385.78803	-385.787086	-385.830124	33.067	
C	-0.2099228056	 1.3724504101	 0.1295792034	-0.242901
O	 0.3965469555	 0.1257416173	-0.1380582162	-0.255059
C	 0.882640935	-0.5078077679	 1.0035890206	 0.154607
C	-0.0674100048	-1.3880642509	 1.8813551838	-0.128554
C	-0.1262279608	-2.3868229008	 0.6889422772	-0.258191
C	 1.383763547	-1.9700085442	 0.7990703585	 0.218905
C	 1.2179593507	-2.1231464304	 2.3478335695	-0.26223
C	 2.4822383515	-2.4087076666	-0.0115552308	 0.053627
C	 3.4047347727	-2.7786519676	-0.6893029875	-0.364861
H	 0.4870430391	 2.060581704	 0.6321233497	 0.10841
H	-0.500334631	 1.8032648585	-0.8311691854	 0.131099
H	-1.1059747479	 1.2674208899	 0.7586177786	 0.109343
H	 1.5651372086	 0.1526029356	 1.5594137116	 0.065899
H	-0.8937837792	-1.0571301111	 2.5088627891	 0.076826
H	-0.3467333359	-3.4278365879	 0.9364923352	 0.095067
H	-0.6453366663	-2.0558092554	-0.2090416752	 0.117732
H	 1.9225933433	-1.5646520325	 2.9702928083	 0.098201
H	 1.0866515016	-3.1462468282	 2.704082329	 0.105357
H	 4.2173860766	-3.102916752	-1.2906388094	 0.176723
