10
gdb 504	20.75251	1.47057	1.44259	1.8826	41.52	-0.2773	-0.0513	0.226	751.1914	0.070248	-342.324182	-342.31767	-342.316725	-342.355599	20.074	
O	-0.0959663439	 0.0985276705	 0.2510620599	-0.217878
C	 0.1798540892	 1.1170038451	-0.3205527502	 0.136303
C	 1.3225816431	 2.0261156391	 0.1175822991	-0.165823
O	 1.2579695981	 3.2611602211	-0.5825977716	-0.175355
C	 2.3062471379	 3.6143698704	-1.3622288368	 0.179117
O	 2.3264394742	 4.6259575399	-1.9894671804	-0.257221
H	-0.3691553243	 1.4789527824	-1.217190613	 0.108993
H	 1.2450948759	 2.2165820609	 1.1924944743	 0.161185
H	 2.2750171284	 1.5089015571	-0.066583518	 0.144286
H	 3.1223655616	 2.8652733535	-1.3418446134	 0.086395
