20
gdb 51576	4.06267	0.84555	0.76129	3.7981	81.55	-0.2442	0.0302	0.2744	1520.1998	0.170873	-403.14308	-403.133864	-403.13292	-403.178588	33.695	
O	 0.1549158546	 0.6982692439	-1.5142264959	-0.315771
C	 0.0798863951	 1.4195932312	-0.5449035092	 0.150206
N	 1.1055651883	 1.7000441181	 0.3077811109	-0.28333
C	 2.3951014853	 1.0847656095	 0.2074621651	 0.034126
C	 3.3516584084	 1.551609302	-0.8606460675	-0.294083
C	 3.607925923	 1.9074698377	 0.5832664241	-0.044952
C	 3.4676741637	 3.3181246336	 1.0640389469	 0.007638
C	 3.5554648265	 3.6344251997	 2.5421047089	-0.276465
C	 4.6651671137	 4.0536956312	 1.6107944981	-0.272528
H	-0.8504895492	 1.9474506724	-0.2490123333	 0.067964
H	 0.8970495008	 2.235130709	 1.137160114	 0.249767
H	 2.412003578	 0.0252275628	 0.4510372965	 0.104278
H	 3.974629161	 0.8079534299	-1.3436262555	 0.119231
H	 3.0006841127	 2.342026853	-1.5143485974	 0.12509
H	 4.3947590006	 1.3489077447	 1.0845459156	 0.086217
H	 2.7676676244	 3.919079621	 0.4911784819	 0.08676
H	 2.9056868963	 4.4019618046	 2.9484283023	 0.111704
H	 3.7510179306	 2.8123983009	 3.2230712385	 0.113567
H	 5.6047712912	 3.5141803613	 1.6676393048	 0.115334
H	 4.7725322451	 5.1068988534	 1.3769033412	 0.11525
