18
gdb 13590	4.21834	1.20181	1.11356	3.339	69.98	-0.2632	-0.0243	0.2389	1129.6363	0.152353	-384.950577	-384.941941	-384.940996	-384.983973	31.504	
C	-0.2343323138	 1.5233078629	 0.06880571	-0.419028
C	 0.0083423146	 0.0314483317	 0.0853408086	 0.015314
C	 1.3383873944	-0.557605058	-0.2334281444	-0.284051
C	 0.819883686	-0.6644742675	 1.1943024629	-0.128993
C	 1.4834540064	 0.1201633411	 2.2563823636	 0.362114
O	 2.1207372524	 1.1414131731	 2.0595606714	-0.355763
C	 1.3555200765	-0.3928363003	 3.6862636605	-0.135183
O	 2.0140818018	 0.4432815921	 4.5866547498	-0.422098
H	 0.638247722	 2.0730081903	 0.4252510854	 0.155822
H	-0.4563426238	 1.8519695623	-0.9522622507	 0.120371
H	-1.0895617032	 1.7921425785	 0.6979125728	 0.118398
H	-0.8485319583	-0.5627674787	-0.2223014303	 0.098275
H	 1.3962534348	-1.4739753416	-0.8096778687	 0.120528
H	 2.1672316258	 0.1299943985	-0.3650536886	 0.140786
H	 0.4373453593	-1.6276998288	 1.5166756509	 0.092015
H	 0.2816002587	-0.4793597413	 3.9247612749	 0.11481
H	 1.7592606317	-1.4196738186	 3.7171921881	 0.113711
H	 2.3956418346	 1.1457678944	 4.0340722039	 0.292973
