16
gdb 126492	2.6524	1.49556	0.96758	2.0424	76.61	-0.2627	-0.0746	0.1881	1175.2885	0.123566	-434.004998	-433.996823	-433.995879	-434.038268	30.142	
C	-0.0974514381	 1.5326149065	-0.0024243479	-0.384817
C	-0.0271094458	 0.0099381636	 0.0941148166	-0.254081
C	 0.7760211666	-0.5268728807	 1.2465494286	 0.353414
N	 1.3296938894	 0.3167406304	 2.0472611838	-0.13418
O	 2.0779112769	-0.1502503811	 3.1214355594	-0.229996
N	 2.2595842298	-1.4867221853	 3.3761379729	-0.058183
C	 1.7092292016	-2.3303338505	 2.5801245337	 0.012787
C	 0.9023441001	-1.9796886066	 1.4210536143	 0.176661
N	 0.3365530372	-2.7893651967	 0.60320061	-0.505877
H	 0.8971692299	 1.9720124195	-0.113627373	 0.133207
H	-0.7001701666	 1.8208609238	-0.8678512627	 0.11462
H	-0.548675098	 1.9690529808	 0.8923437144	 0.133254
H	-1.0293223922	-0.4309193135	 0.167890169	 0.139453
H	 0.3913567829	-0.4281135993	-0.8208526493	 0.139487
H	 1.8847309401	-3.3755993412	 2.8274317963	 0.140526
H	 0.5235908663	-3.7603284097	 0.8674899637	 0.223725
