19
gdb 40129	2.80056	1.6446	1.27602	1.868	80.14	-0.2277	0.0185	0.2462	1036.7495	0.160985	-385.871538	-385.86419	-385.863246	-385.903104	30.047	
C	-0.058786371	 1.483377228	 0.0089118592	-0.242443
O	 1.1662080606	 0.753711309	-0.0951556793	-0.281142
C	-0.0679422938	 0.0149868069	 0.0203937847	 0.433973
C	-0.2417204476	-0.7229013975	 1.3411124725	-0.357599
C	 0.1627190765	-2.1745926402	 1.2515694528	-0.078424
C	 0.1632995001	-2.8529848852	 0.103227094	-0.047435
C	-0.2447450008	-2.2493393945	-1.1892095954	-0.07235
C	-1.6296997558	-1.6329648028	-1.3055404112	-0.310324
C	-0.4192634547	-0.7417508831	-1.2224701032	-0.085066
H	-0.2000598365	 2.0329013486	 0.9400379666	 0.106284
H	-0.3644368044	 2.020101181	-0.8891879818	 0.107133
H	 0.3524654951	-0.2016457041	 2.0984929491	 0.119636
H	-1.2890378304	-0.6452523499	 1.6689165232	 0.114597
H	 0.4439840376	-2.6681078845	 2.1771458722	 0.089388
H	 0.4587588899	-3.8984236415	 0.0888699504	 0.087591
H	 0.1491914409	-2.7216316923	-2.0827669667	 0.089305
H	-2.1403843247	-1.6943178479	-2.2603230698	 0.114947
H	-2.2803277042	-1.7171743714	-0.4422246857	 0.119801
H	-0.1210330568	-0.2336873486	-2.1334271817	 0.09213
