18
gdb 106856	2.0627	1.69218	1.12548	3.9149	78.73	-0.2385	0.0201	0.2586	1126.4998	0.147326	-401.926433	-401.917788	-401.916844	-401.959869	32.173	
C	 0.4897836795	 0.5582652835	 0.4779120448	-0.272582
O	-0.5002248991	 0.4683259577	-0.5356297953	-0.266907
C	-1.5538092396	-0.3695199552	-0.3152068761	 0.411827
C	-2.057768835	-0.8702147332	 0.9940939209	-0.392008
C	-1.6524633407	-1.9197592974	-0.0438696829	 0.125031
C	-2.7469047481	-2.0199387163	-1.1159211479	-0.284348
C	-2.6154672935	-0.4896419457	-1.4006142282	-0.286792
C	-0.652268176	-2.8919973192	 0.2231441941	 0.189469
N	 0.17699608	-3.6773020054	 0.4234978636	-0.368167
H	 1.2666296158	 1.2168526413	 0.0865385377	 0.141355
H	 0.0843445894	 0.9912070693	 1.4012216808	 0.12237
H	 0.9300550305	-0.4219245273	 0.6987971468	 0.145031
H	-1.3706383499	-0.7955699039	 1.8293331354	 0.138663
H	-3.1071862459	-0.7798624977	 1.2714880199	 0.119369
H	-2.451572602	-2.6331685601	-1.9678597144	 0.129786
H	-3.7181775784	-2.3635699426	-0.7476391538	 0.110814
H	-3.5070181923	 0.1280597617	-1.2593373438	 0.109329
H	-2.1941202345	-0.2917309493	-2.3873829215	 0.127759
