18
gdb 120598	4.05678	0.77308	0.71878	5.0167	74.92	-0.2732	0.0044	0.2776	1599.7869	0.144313	-439.063009	-439.052934	-439.05199	-439.098844	34.698	
C	-0.2568482394	 1.3343570136	 0.0049255885	-0.228689
O	-0.1334288721	-0.068071299	-0.0684498428	-0.233036
C	 0.7918060132	-0.4860019293	-1.0430365094	-0.093
C	 0.8338324722	-1.992652847	-1.0014931403	 0.012085
O	-0.0012719055	-2.7247751181	-1.8998368629	-0.262094
C	 1.4153062508	-2.821964385	-2.0823895921	 0.222485
C	 1.995300729	-2.2666313394	-3.3668774873	-0.469338
C	 1.9798198043	-4.1073183029	-1.6880601482	 0.256867
N	 2.4562385746	-5.1181439991	-1.3936057795	-0.328223
H	 0.7010620311	 1.8140393259	 0.2606497506	 0.1081
H	-0.6144044811	 1.7621189383	-0.9444590798	 0.110533
H	-0.9844732032	 1.554327917	 0.7888866432	 0.136983
H	 0.4970424714	-0.1363172586	-2.0434700653	 0.103093
H	 1.7973019116	-0.0827578318	-0.8261998834	 0.099846
H	 0.8592631494	-2.3969367232	 0.0103407188	 0.124987
H	 1.5286493011	-1.3147433345	-3.6214640441	 0.140038
H	 3.074993879	-2.1218014446	-3.2668538351	 0.146087
H	 1.8210671536	-2.9683968022	-4.1871999506	 0.153277
