18
gdb 16963	3.37572	2.17666	2.01773	2.401	66.02	-0.2451	0.0867	0.3318	782.3624	0.156408	-384.95302	-384.946489	-384.945545	-384.983471	26.329	
C	-0.1672216485	 1.5410705728	-0.0593841981	-0.416159
C	 0.035853492	 0.0375502094	 0.0363704351	 0.162478
O	 0.692227833	-0.4526766944	-1.1642120413	-0.287439
C	 1.7903786262	-1.2243694983	-0.7097628341	 0.217562
C	 1.2606790226	-1.9006093312	 0.5569462961	-0.258568
C	 0.9449947887	-0.5145696805	 1.1616212527	-0.101012
C	 2.3390460462	 0.1250878642	 1.0369633834	-0.076831
O	 2.8209044628	-0.3731014756	-0.2304409291	-0.270324
H	 0.7777238707	 2.0683785017	-0.2093305652	 0.133189
H	-0.8134715027	 1.7711486766	-0.9111634388	 0.129419
H	-0.6496317331	 1.9246997695	 0.8461649	 0.110487
H	-0.9499386574	-0.4462257339	 0.1088595977	 0.073057
H	 2.1784041886	-1.8179612184	-1.5355629991	 0.089877
H	 0.3793844694	-2.5201045596	 0.3796771692	 0.107492
H	 2.0235453831	-2.4624935198	 1.0994637177	 0.106492
H	 0.507067598	-0.4814526094	 2.1591563513	 0.076077
H	 2.328289033	 1.218693818	 1.02071305	 0.106107
H	 3.0101429475	-0.2014074712	 1.8422243626	 0.098097
