19
gdb 30680	3.78203	0.94969	0.81439	1.3894	76.98	-0.2206	0.0219	0.2425	1402.9051	0.159189	-423.049558	-423.040497	-423.039553	-423.083986	33.327	
C	-0.3847033501	 1.6545766901	-0.2175487355	-0.404109
C	-0.0251321606	 0.1716257675	-0.0649885905	-0.089462
C	-1.2784440565	-0.6713437977	 0.2162756448	-0.070505
O	-1.8437812277	-0.2288990415	 1.4411981058	-0.421327
C	 0.7132381177	-0.3832569933	-1.2534502667	 0.235438
C	 0.8669415479	 0.1750768332	-2.4859546722	-0.103082
O	 1.5899381032	-0.635771812	-3.306291707	-0.148191
C	 1.9069158783	-1.7405910684	-2.5831291873	 0.004032
C	 1.4025098722	-1.6470553045	-1.3275813968	-0.290038
H	 0.5122047461	 2.266321674	-0.3511977696	 0.114192
H	-1.0359240443	 1.8120040839	-1.0853843093	 0.109855
H	-0.9191078355	 2.0026376531	 0.6681947805	 0.134245
H	 0.6170483288	 0.0640494986	 0.820033088	 0.090796
H	-1.9854342709	-0.5544826585	-0.6210765609	 0.087643
H	-1.0037613653	-1.7358895585	 0.268270701	 0.087052
H	-2.6631580299	-0.7099379535	 1.5864926617	 0.287412
H	 0.5485508574	 1.107274515	-2.9207870222	 0.133748
H	 2.4894109209	-2.4864420888	-3.0984835679	 0.134403
H	 1.5086622384	-2.3751631487	-0.5378075561	 0.107898
