19
gdb 56543	2.80612	1.0299	0.96169	2.7762	78.14	-0.2568	-0.0341	0.2227	1323.3433	0.154743	-423.014522	-423.003978	-423.003034	-423.050277	37.923	
C	-0.1829725887	 1.4478372789	-0.1110161143	-0.396025
C	 0.0775919188	-0.0669578609	-0.0070274794	-0.199013
C	 0.752546794	-0.5736656873	-1.1990743102	 0.338359
C	 1.3032642108	-0.9879319418	-2.1834960281	-0.4531
C	 0.9094560778	-0.4161522271	 1.2679019911	 0.038063
O	 2.1268076574	 0.2687506523	 1.275402153	-0.428842
C	 0.1340784027	-0.1092525877	 2.5555948043	 0.362648
C	-1.1890224922	-0.7980457678	 2.7952635724	-0.485759
O	 0.6141496773	 0.6694144629	 3.3525482817	-0.318606
H	 0.7674750442	 1.9836968469	-0.1348247818	 0.150621
H	-0.7395375416	 1.6787260466	-1.0218147758	 0.128092
H	-0.7610305617	 1.8060541302	 0.7473271922	 0.115039
H	-0.8838797031	-0.591379155	 0.077818165	 0.103553
H	 1.7948760238	-1.3531234568	-3.0508829349	 0.196039
H	 1.0861573083	-1.5046298537	 1.2539277463	 0.099541
H	 2.1224828453	 0.7829828389	 2.1001473475	 0.294245
H	-1.9726732168	-0.3031716366	 2.2094430985	 0.15799
H	-1.160037071	-1.8447559327	 2.4788175785	 0.144785
H	-1.4516318452	-0.7284189692	 3.8516331941	 0.152371
