21
gdb 79138	2.29963	1.91118	1.43404	1.3672	80.57	-0.2474	0.0723	0.3197	1010.2828	0.184472	-387.068589	-387.060682	-387.059738	-387.100406	32.352	
C	-0.3330893316	 1.5779606904	-0.0037434615	-0.408423
C	 0.0406390367	 0.0985070001	-0.025335528	 0.041845
C	 0.6406163438	-0.5616263557	-1.2725961163	-0.082124
C	 2.1540498773	-0.4162463328	-1.3432927496	-0.031121
C	 2.8583700119	 0.6860583287	-0.5606385196	-0.290032
C	 2.4593058728	 0.3918703599	 0.9159792751	 0.143748
O	 2.1690570952	 1.5311978797	 1.7089505207	-0.438592
C	 1.2304537011	-0.5157116107	 0.8035678442	-0.084495
C	 1.5429678288	-1.430391769	-0.4113464201	-0.095563
H	 0.4929532729	 2.2315468096	-0.2859358218	 0.117766
H	-1.1613642046	 1.7590555901	-0.6995246533	 0.098824
H	-0.6598060502	 1.8828971579	 0.9953432613	 0.118055
H	-0.8492842502	-0.4814321935	 0.2470922567	 0.071553
H	 0.0834588205	-0.8512997133	-2.1575525408	 0.074408
H	 2.5970236	-0.7736259415	-2.2668673399	 0.078701
H	 3.9436203544	 0.6324326234	-0.7007226883	 0.089706
H	 2.5426866632	 1.6926399124	-0.8524213428	 0.103546
H	 3.2650823183	-0.1958316804	 1.3865433405	 0.063406
H	 2.9665341473	 2.0657237455	 1.7684482238	 0.282079
H	 0.9513876179	-0.9753119593	 1.7516530982	 0.065476
H	 1.7110928346	-2.4987947916	-0.4215658785	 0.081236
