18
gdb 109403	2.51748	1.40607	1.07501	3.84	71.83	-0.2497	-0.0202	0.2296	1159.3974	0.14666	-439.065222	-439.056403	-439.055459	-439.098731	32.77	
C	-0.0168578122	 1.5614427187	 0.1022634621	-0.490657
C	-0.0563143975	 0.068152931	-0.0149925657	 0.311881
C	-0.7997872722	-0.8084500199	 0.9041053369	-0.29067
N	 0.6989243843	-0.8352456117	 0.9895177344	-0.208747
C	 1.0977647389	-1.6487668878	-0.1402511435	 0.406936
O	 1.7040014456	-2.6792122787	-0.1664813479	-0.318658
C	 0.5037414878	-0.7269503116	-1.2078647124	-0.214345
C	-0.3618445737	-1.3936992993	-2.2780308892	-0.087639
O	 0.4217284086	-2.2800291171	-3.0519182102	-0.417231
H	 0.9524337402	 1.9562649115	-0.2184029525	 0.134145
H	-0.7914020083	 2.0173603601	-0.5247066699	 0.132979
H	-0.189497465	 1.8756233559	 1.1352881842	 0.1382
H	-1.2454369714	-0.3575279685	 1.7851805404	 0.140593
H	-1.3132613646	-1.6988465722	 0.551808236	 0.1357
H	 1.3150541749	-0.1763387561	-1.697455948	 0.121959
H	-1.2171305094	-1.9086794145	-1.812970802	 0.090394
H	-0.7697360167	-0.6475896348	-2.9681960343	 0.115025
H	 0.8833079307	-2.8681659551	-2.4400885282	 0.300132
