21
gdb 59553	2.51857	1.3608	1.04026	2.9371	78.5	-0.2427	0.0682	0.3109	1232.2606	0.180212	-424.197063	-424.187466	-424.186521	-424.231135	36.358	
C	 0.1266266912	 1.4849043499	-0.1068184928	-0.410016
C	-0.0023783587	-0.021437033	 0.1130654095	 0.124242
O	 0.5485599592	-0.4115364589	 1.3745130154	-0.435759
C	-1.437561145	-0.5228123771	-0.0113193351	-0.068301
C	-2.1464419251	-0.5124269486	-1.4168272605	-0.282282
C	-2.2917647357	-2.0340154588	-1.2951492306	-0.043431
O	-0.9651197677	-2.5643083221	-1.1522717266	-0.289645
C	-1.6259089113	-2.0579223715	 0.0201577723	 0.427218
C	-1.729889434	-2.9466095068	 1.2150277547	-0.510685
H	 1.1688191983	 1.796346129	 0.0052925283	 0.124985
H	-0.2165785381	 1.77375563	-1.1052577447	 0.121039
H	-0.4769415735	 2.0388610917	 0.6243140906	 0.101415
H	 0.6046549522	-0.5542807246	-0.6264199221	 0.105225
H	 0.102596367	 0.1018701585	 2.0576426558	 0.27316
H	-2.0701017587	-0.0338524674	 0.7410458516	 0.059637
H	-3.0958474188	 0.0278431697	-1.408745839	 0.103658
H	-1.5451410038	-0.1796712894	-2.2673720149	 0.108341
H	-3.0394186761	-2.6893798668	-1.7284041283	 0.099246
H	-0.7785062896	-2.9551206965	 1.7560442038	 0.146967
H	-2.5046746333	-2.5862731343	 1.9002670373	 0.115918
H	-1.9746057285	-3.9689287332	 0.9145626053	 0.129069
