17
gdb 40486	3.82809	1.34963	1.21965	1.6578	72.47	-0.2298	0.0591	0.2889	1041.1353	0.13724	-417.85743	-417.850427	-417.849482	-417.889198	27.472	
C	-0.4168351078	 1.0602813765	-0.475934177	-0.179218
O	 0.5417062466	 1.5447724193	 0.4698763708	-0.242397
C	 0.4183352378	 0.1272561421	 0.2901603584	-0.108688
C	-0.1341952794	-0.609948956	 1.4513313743	 0.413262
N	-1.3464829061	-0.1689675589	 2.214191449	-0.388784
C	-0.9129210296	-1.4230560928	 2.9141487316	-0.045732
C	-0.5253235214	-2.1162546466	 1.5689998125	-0.061648
N	 0.8610586983	-2.509369075	 1.9815512382	-0.35366
C	 0.6241753383	-1.2098022499	 2.6905482173	-0.091601
H	-1.4579365954	 1.1880989869	-0.1883370222	 0.132333
H	-0.1807624414	 1.2547827036	-1.5209382047	 0.116306
H	 1.269228229	-0.3501310387	-0.1948672777	 0.110809
H	-1.114933941	 0.6529271677	 2.7777671951	 0.218952
H	-1.4363032537	-1.8426864776	 3.7750519701	 0.085161
H	-1.1528403724	-2.7002992211	 0.895890451	 0.093483
H	 0.82272063	-3.2864890103	 2.6463551451	 0.211456
H	 1.3604053381	-0.7269929592	 3.3359962784	 0.089967
