15
gdb 128493	2.34562	1.54763	0.93804	3.7081	77.92	-0.2079	0.0205	0.2284	1189.0375	0.112543	-416.782488	-416.773988	-416.773043	-416.815912	30.949	
C	 0.0043225744	 1.4255342314	-0.0197680167	-0.271082
O	-0.0028913854	 0.0050777788	-0.0031958593	-0.251248
C	 0.5852915464	-0.6236051593	-1.0269477314	 0.399558
C	 0.7066669733	-1.9970566388	-1.2207974872	-0.052025
C	 1.4088673213	-2.0917489526	-2.4546165616	-0.086833
N	 1.6971777159	-0.912931063	-2.9773286704	-0.240911
N	 1.1812188697	-0.020401981	-2.0832212001	-0.293332
C	 0.2385144887	-3.0291302226	-0.3828563617	 0.238947
C	-0.1552045842	-3.9229901647	 0.3223411559	-0.44661
H	 1.0289900941	 1.819066176	-0.0074845133	 0.13242
H	-0.5315667988	 1.8167374275	-0.8943214982	 0.132266
H	-0.5113256254	 1.7428816045	 0.8863779202	 0.157464
H	 1.7049516018	-2.9974895819	-2.9626123722	 0.122454
H	 1.2785175448	 0.9621503866	-2.2674305065	 0.27748
H	-0.5040600464	-4.7067104207	 0.9470236627	 0.181453
