15
gdb 19117	3.45519	3.44518	3.44502	1.8198	64.99	-0.2075	0.0492	0.2566	568.513	0.122191	-325.38813	-325.383723	-325.382778	-325.416265	19.808	
C	-0.0393818584	 1.5468963593	 0.0380557961	-0.063233
C	-0.0661563698	 1.567955522	-1.5353759156	-0.068043
C	-0.00846226	 0.0100465471	-1.538980233	-0.006383
C	-0.021195885	-0.0267533093	 0.0197211152	-0.068389
C	 1.5361573803	 0.010509266	-0.0427436079	-0.006125
C	 1.5342913552	 1.5682749047	 0.0145693918	-0.068155
C	 1.4927957139	 1.5501512286	-1.5438801999	-0.006535
N	 1.5236731208	 0.0180722051	-1.5751415541	-0.183903
H	-0.6652396323	 2.1592063769	 0.6839145648	 0.065805
H	-0.7108100617	 2.1941500899	-2.1500812447	 0.065604
H	-0.5464259616	-0.6597377493	-2.2104710761	 0.06938
H	-0.6296128807	-0.6753210516	 0.6479578299	 0.065636
H	 2.2244686341	-0.6589153693	 0.4739915702	 0.069327
H	 2.1690450169	 2.1947728177	 0.6391908025	 0.065618
H	 2.1465726083	 2.1030899022	-2.2189241391	 0.069395
