23
gdb 40834	3.55036	0.98738	0.83017	1.7938	85.53	-0.2595	0.0873	0.3468	1445.0437	0.208027	-388.296034	-388.287467	-388.286523	-388.329458	33.537	
C	 0.3316673044	 1.5093094557	 0.01189497	-0.185766
O	 1.1706811721	 0.38825907	-0.2748102841	-0.246471
C	-0.2096327485	 0.1448582444	 0.0135079744	 0.080149
C	-0.5193608611	-0.611009184	 1.2849143211	 0.014566
C	-1.9953301669	-0.4402734726	 1.6890486358	-0.196252
C	-2.3333379866	-1.2361133976	 2.9586515628	-0.197509
C	-1.9702384233	-2.7200589122	 2.8083000926	-0.177225
C	-0.4981143257	-2.8953086	 2.4095442433	-0.202188
C	-0.163140469	-2.1018632613	 1.1390083931	-0.189984
H	 0.5282396846	 2.0078466928	 0.9606716036	 0.109269
H	 0.1359047999	 2.1748092855	-0.8280000052	 0.111655
H	-0.7885231881	-0.1664347013	-0.8601384002	 0.085241
H	 0.1114851676	-0.1855529588	 2.0785726288	 0.070117
H	-2.2249397403	 0.622246427	 1.8322660477	 0.090576
H	-2.6344645642	-0.7878447899	 0.8642843609	 0.091232
H	-1.7778947132	-0.8126261849	 3.8070334113	 0.092789
H	-3.3969705474	-1.1251975619	 3.1980962418	 0.089957
H	-2.1795378302	-3.2573692907	 3.7401584573	 0.089277
H	-2.6100185915	-3.1724442667	 2.0375226807	 0.091072
H	 0.1430573313	-2.5478952371	 3.2316558874	 0.093112
H	-0.2661063557	-3.9561535194	 2.2628137271	 0.090488
H	-0.7258294312	-2.5203120257	 0.2914960161	 0.087795
H	 0.898451043	-2.1991598213	 0.8886098236	 0.108103
