19
gdb 86821	4.66931	0.81957	0.77322	2.8092	73.48	-0.2158	0.0533	0.2691	1515.188	0.158735	-456.361351	-456.351921	-456.350977	-456.396477	34.091	
C	 0.0953150778	 1.4734964604	 0.1936590164	-0.315631
N	-0.0491253893	 0.0362671408	 0.1691404453	-0.072627
C	-1.3453409369	-0.5502484359	 0.5633850221	-0.207898
C	-0.569790099	-1.703146173	 1.2218787082	 0.142909
C	 0.6564648191	-0.7667156893	 1.1899392469	-0.18651
O	-1.093297886	-2.0758350065	 2.4910067953	-0.267034
C	-0.4079378344	-3.0647722423	 3.123273923	 0.492392
N	-0.9820837452	-3.3250144886	 4.3348516093	-0.565014
O	 0.5804571311	-3.6040987757	 2.6842796387	-0.39825
H	 1.1304881882	 1.7455628439	-0.038288233	 0.122627
H	-0.5483889986	 1.9252574488	-0.5688719772	 0.120193
H	-0.1659093288	 1.9213905706	 1.1721295691	 0.088768
H	-1.8810775453	 0.035896532	 1.3283444174	 0.090999
H	-2.0270897548	-0.7789361543	-0.2620471693	 0.104286
H	-0.4484566956	-2.5873697762	 0.5960764134	 0.110602
H	 1.6185224718	-1.1826903908	 0.8804506626	 0.117304
H	 0.771683892	-0.2478487524	 2.1560889439	 0.08839
H	-1.9134938233	-2.9910443264	 4.5144576389	 0.265018
H	-0.6812325029	-4.1649299951	 4.7979899689	 0.269476
