19
gdb 102058	2.19115	1.21477	0.82392	3.0087	77.88	-0.2489	-0.0226	0.2263	1378.8512	0.154734	-422.992605	-422.98176	-422.980816	-423.02942	37.828	
C	-0.0830644745	 1.5991938584	 0.0926579928	-0.402335
C	-0.0351041165	 0.0597493053	-0.0058487645	-0.18136
C	-1.3861703124	-0.4992146781	 0.0447411232	 0.31878
C	-2.4996228924	-0.951358445	 0.0664398516	-0.446227
C	 0.7093003019	-0.4467436497	-1.2734710472	-0.1122
C	 2.1717122515	 0.042487709	-1.3290186307	-0.082844
O	 2.9336022446	-0.6322926552	-2.3123930203	-0.412289
C	 0.7152658922	-1.9683179059	-1.3136865145	 0.181113
O	 0.3736622026	-2.6262516591	-2.2594955975	-0.253344
H	 0.9195934244	 2.0232264817	 0.1871914239	 0.124531
H	-0.5617173546	 2.0279671812	-0.7928361653	 0.13149
H	-0.6635195009	 1.9001255536	 0.9681214059	 0.134463
H	 0.5167125004	-0.3171149108	 0.8681604262	 0.112324
H	-3.4789267177	-1.3617527122	 0.0895152894	 0.202111
H	 0.1739596419	-0.1067514366	-2.1682005127	 0.097461
H	 2.193913212	 1.1307810426	-1.4796582265	 0.105948
H	 2.6713971542	-0.1653326357	-0.375178937	 0.115561
H	 2.4668062975	-0.575619476	-3.1532000902	 0.291951
H	 1.0913798556	-2.4478493173	-0.3794207967	 0.074865
