17
gdb 47570	2.65045	1.64319	1.10249	3.6054	68.8	-0.2557	0.002	0.2577	1070.6624	0.136704	-458.960848	-458.953167	-458.952223	-458.993565	29.089	
O	 0.0361016881	 0.3525879778	 1.0215083632	-0.297557
C	 0.0499178052	 1.2278902573	 0.2018820701	 0.351279
C	-1.2927512927	 1.8974190168	-0.159444002	-0.200298
O	-1.4271504069	 2.8032784388	-1.2219388377	-0.235381
C	-0.4799760204	 3.8603038998	-1.2201216964	-0.125098
C	 0.7292374866	 3.4306037427	-2.0143379873	-0.03932
C	 2.1426537002	 3.6220540963	-1.5078620359	-0.32037
C	 1.5099037674	 2.2621080855	-1.4972700838	 0.111953
O	 1.2530813736	 1.7001774084	-0.2275105935	-0.228178
H	-1.9952552473	 1.0820819962	-0.3461462787	 0.152295
H	-1.5958214246	 2.3681961351	 0.7916431396	 0.133702
H	-0.9665544279	 4.7235910145	-1.6836359994	 0.119072
H	-0.2075249961	 4.1410467099	-0.1927109747	 0.101222
H	 0.5818599377	 3.4427097264	-3.0902326881	 0.104437
H	 2.9355447881	 3.8255161249	-2.2180810841	 0.125496
H	 2.2635953542	 4.0962772575	-0.5396751445	 0.132327
H	 1.8592174849	 1.5105384421	-2.1982987469	 0.11442
