20
gdb 68112	4.13382	1.09672	1.09022	2.6338	79.97	-0.2398	0.0843	0.3242	1217.4057	0.17072	-403.064212	-403.055834	-403.05489	-403.097106	32.688	
C	-0.2346508903	 1.3348854295	 0.0358503504	-0.508272
C	 0.0674896962	-0.1297616987	 0.0252093374	 0.40238
C	 0.5536096423	-1.037795265	-1.1330653363	-0.296258
C	 0.1304969322	-1.9329174956	 0.0627658227	 0.421508
C	 0.8956400588	-0.9829961923	 1.0217267791	-0.29661
O	-1.0739584143	-1.0758508396	 0.230544351	-0.380177
C	-0.0852070717	-3.4021388279	 0.11852282	-0.1486
C	-1.1440055153	-3.9442385891	 1.0049201348	-0.239596
N	-1.323498986	-3.9504963424	-0.4589965026	-0.327539
H	 0.6822669246	 1.9106062066	-0.1247023229	 0.128134
H	-0.9448095085	 1.5864252641	-0.7576291263	 0.13442
H	-0.6664521952	 1.6318072705	 0.996333805	 0.134062
H	-0.1066002724	-1.0789490755	-2.0007990846	 0.105506
H	 1.6126643646	-1.0051389464	-1.4018588636	 0.092938
H	 1.9854337092	-0.944225447	 0.9476952514	 0.093442
H	 0.5348465126	-0.9766674538	 2.0514327588	 0.104507
H	 0.8055435514	-3.9960177945	-0.0760994534	 0.09276
H	-1.01980209	-4.9241222115	 1.4566910126	 0.115828
H	-1.7157609532	-3.2290716473	 1.5881530585	 0.12787
H	-1.923629955	-3.1662810841	-0.7107809722	 0.243699
