16
gdb 89624	4.06713	1.12638	0.96448	2.5488	65.39	-0.2567	0.002	0.2587	1182.607	0.123489	-475.015155	-475.006737	-475.005793	-475.048354	31.678	
N	 0.3640455364	 0.3419259049	-1.0533910365	-0.539457
C	-0.0403386048	 0.1807094487	 0.2346319642	 0.286464
O	 0.5912109643	 0.5346010115	 1.2118251859	-0.360858
C	-1.3512084141	-0.5256906451	 0.3793333046	 0.347471
C	-2.2742281261	-0.5634715092	 1.5937382913	-0.347009
C	-2.7151997763	-2.014347971	 1.1500125824	 0.136573
O	-4.054570017	-2.2425266601	 0.8241249974	-0.430161
C	-1.7319598711	-1.898879197	-0.0307378936	-0.084091
O	-2.1667920658	-0.7605637119	-0.789840363	-0.311124
H	 1.2139101284	 0.8513578803	-1.2294129437	 0.265554
H	-0.2747696954	 0.1498178807	-1.8065046635	 0.272967
H	-1.7264796674	-0.5515684807	 2.5365455776	 0.140782
H	-3.0623433236	 0.1925734863	 1.6052034818	 0.111444
H	-2.4209483429	-2.775105827	 1.8760309657	 0.106685
H	-4.2671984183	-1.6366137122	 0.1029417522	 0.289639
H	-1.1683392461	-2.6586339381	-0.5608719528	 0.11512
