12
gdb 3412	5.00955	3.2583	2.21992	4.3637	55.87	-0.2529	-0.055	0.1979	574.2908	0.091937	-323.381747	-323.37655	-323.375606	-323.410567	19.947	
O	 0.0386146294	-0.0150515338	 0.0879514778	-0.319437
C	-0.0320022945	 1.1816690631	 0.0058725741	 0.36265
C	-1.2432002382	 2.0457172995	 0.0068937724	-0.183991
C	-0.870209192	 3.3313735035	 0.0338997245	-0.074738
C	 0.6137138136	 3.4234672182	 0.0022681525	-0.073632
C	 1.3720052661	 2.8222406235	 1.1449585769	-0.235892
N	 1.127709983	 2.0553564515	-0.09105185	-0.122313
H	-2.2436345588	 1.6394484513	 0.0611013337	 0.129147
H	-1.5198066019	 4.1975527736	 0.0572333091	 0.127493
H	 1.093818787	 4.1743402697	-0.6186920749	 0.116826
H	 2.4069564589	 3.1060945528	 1.3131124215	 0.137198
H	 0.8097708074	 2.545308807	 2.0332227824	 0.13669
