16
gdb 113632	3.3022	0.96744	0.9265	5.2178	72.98	-0.2763	-0.0816	0.1947	1317.7882	0.12196	-437.87509	-437.865831	-437.864887	-437.910218	31.98	
C	-0.0003709959	 1.2797967369	-0.0395579532	-0.235899
O	-0.5002853791	 0.0999508913	-0.6474959688	-0.226444
C	 0.4495565862	-0.5843274147	-1.3775349725	 0.142097
C	 1.4379424644	-1.4727443603	-0.698582724	-0.330823
C	 0.286164773	-2.1007792731	-1.4706627939	-0.192016
C	-0.8040020607	-2.7310267278	-0.6863199176	 0.326751
O	-0.960258599	-2.639596282	 0.5066501128	-0.285854
C	-1.7566526745	-3.5218606673	-1.4979692173	 0.216173
N	-2.4903255853	-4.1483525824	-2.1354668383	-0.304783
H	 0.8151245706	 1.0568209402	 0.6612042886	 0.119093
H	 0.3652733004	 1.994641792	-0.7908880903	 0.112735
H	-0.8325484254	 1.7284678233	 0.5054597829	 0.141902
H	 0.7553435898	-0.0952058433	-2.3042588158	 0.10594
H	 2.4351385319	-1.5779999476	-1.1094145074	 0.130302
H	 1.3475378591	-1.5624168291	 0.3784875667	 0.156087
H	 0.4695635645	-2.5391823563	-2.4447220421	 0.124738
