20
gdb 61551	2.83186	1.01268	0.83647	3.0937	76.98	-0.2464	-0.0202	0.2262	1416.8446	0.168693	-440.270265	-440.260488	-440.259543	-440.305678	35.43	
C	 0.2465293863	 1.1302524905	-1.0983993967	-0.484582
C	 0.0087101641	-0.054598255	-0.2020949121	 0.369904
O	 0.0721426164	 0.0090461077	 1.0095841965	-0.325639
C	-0.3171909	-1.4156262347	-0.836347515	 0.031431
O	-0.2797694052	-2.4085197217	 0.1532402208	-0.435422
C	-1.7139416021	-1.4303737768	-1.5028635329	-0.177767
N	-1.7491342421	-0.6839334194	-2.7523796393	-0.065816
C	-1.4332283133	-1.4366605761	-3.965480673	-0.22412
C	-2.8309330128	-1.0176483745	-3.6723203657	-0.218052
H	 1.1852415614	 0.9801384413	-1.6458992564	 0.143062
H	-0.5453243825	 1.1958238443	-1.8504739994	 0.172718
H	 0.3191276287	 2.0416765208	-0.5036553384	 0.137899
H	 0.4347289135	-1.6248454485	-1.6142877334	 0.086771
H	-0.1673587684	-1.9197892789	 0.986710943	 0.291938
H	-1.9766100331	-2.4927145488	-1.6362188897	 0.10552
H	-2.4497898917	-0.9988699899	-0.8139127722	 0.112882
H	-0.8444869872	-0.9101743474	-4.7107306095	 0.120721
H	-1.1986902998	-2.4945768213	-3.8592264333	 0.119651
H	-3.5297167655	-1.7959840653	-3.3709385573	 0.116969
H	-3.2789913068	-0.1803290263	-4.199052746	 0.121931
