17
gdb 51680	3.41957	1.06403	0.84224	4.9915	75.2	-0.2404	-0.057	0.1834	1311.8796	0.135209	-421.871076	-421.862557	-421.861613	-421.905627	30.353	
O	-0.6799810875	 0.9147341527	 1.0014531988	-0.245344
C	-0.063959902	 1.0271616742	-0.0287244592	 0.142634
C	 1.3048884301	 1.6833014035	-0.1109670012	-0.292369
C	 1.404047408	 2.7667198079	-1.2027039877	-0.116643
C	 2.6633401708	 3.6598194598	-1.1208698747	-0.295452
C	 3.1766234023	 3.7120907241	-2.5371694017	-0.049235
C	 2.5010003063	 2.9123639625	-3.3706667973	-0.162259
C	 1.4340108157	 2.1980073563	-2.637865557	 0.375386
O	 0.718098691	 1.318186194	-3.0628150659	-0.336353
H	-0.4615726426	 0.6539998894	-0.9928194104	 0.116207
H	 1.5304631619	 2.1019178721	 0.8744982275	 0.120743
H	 2.0422894152	 0.894806627	-0.3186487826	 0.125513
H	 0.513568785	 3.4065210755	-1.1465988136	 0.118398
H	 2.4517091571	 4.6603435499	-0.727371436	 0.126472
H	 3.4246108269	 3.2284040709	-0.4573441412	 0.128876
H	 4.0232510211	 4.3316483283	-2.8143080777	 0.121754
H	 2.6914640003	 2.7494113419	-4.4234169302	 0.121672
