23
gdb 58776	2.41684	1.25383	1.17685	1.0538	85.81	-0.2385	0.08	0.3185	1245.4	0.204284	-388.270051	-388.26016	-388.259216	-388.304411	38.076	
C	-0.2630763027	 1.425454608	 0.0439097638	-0.390317
C	 0.0787147696	-0.0691590577	-0.0674187029	-0.074211
C	 0.8248766855	-0.3762087743	-1.3756533973	-0.399496
C	 0.8427637125	-0.548132889	 1.144941683	 0.344203
C	 0.1449426054	-0.9793342579	 2.4239162739	-0.411694
C	 1.0334292784	-1.9543128123	 1.6994514788	 0.344808
O	 0.5535087494	-3.1369758299	 1.1584654892	-0.469254
C	 2.5056786115	-1.6818308978	 2.0138230554	-0.284689
C	 2.30513637	-0.2148772768	 1.5003711862	-0.29084
H	 0.6477852589	 2.0346515252	 0.0744969115	 0.113229
H	-0.8544790167	 1.7583258668	-0.815630786	 0.107237
H	-0.8354439252	 1.6349882638	 0.9530081064	 0.112653
H	-0.8645390268	-0.6318579265	-0.0887513181	 0.07576
H	 1.7716843425	 0.1722534997	-1.4358405155	 0.110795
H	 1.0451523853	-1.444618628	-1.4591245229	 0.126836
H	 0.2231210805	-0.0831957926	-2.2423592388	 0.106889
H	 0.4267645786	-0.5628202009	 3.3898536316	 0.095828
H	-0.9167710772	-1.1764845236	 2.3065673288	 0.106807
H	 0.2541923363	-3.7035166886	 1.8779861891	 0.283579
H	 2.8249938242	-1.8129322133	 3.0538411598	 0.086673
H	 3.1711812024	-2.2528474598	 1.3622305836	 0.107496
H	 2.9294790992	 0.010586901	 0.6334776623	 0.104365
H	 2.4395765483	 0.5771406544	 2.2440632883	 0.093344
