19
gdb 60290	3.34966	0.7237	0.66226	2.3874	80.68	-0.2637	0.0072	0.2709	1745.9324	0.156533	-419.224685	-419.214267	-419.213323	-419.261556	35.992	
C	 0.2607588643	 0.9661517598	-0.8879496184	-0.384196
C	-0.114894981	-0.2218809428	-0.0074037887	 0.118274
C	 0.4605253859	-0.1337500417	 1.3986820506	-0.388374
O	-1.5519031125	-0.2820901024	 0.1413728691	-0.211335
C	-2.2336375131	-0.93581867	-0.8039678317	 0.138862
N	-3.4972866294	-0.9275464013	-0.7906957297	-0.247848
C	-4.2305992374	-1.6689436491	-1.795863787	-0.239203
C	-3.4349270534	-2.3837959955	-2.8127928734	 0.230137
N	-2.768342687	-2.9253630484	-3.5866568371	-0.316336
H	 1.347489614	 1.0276606446	-1.0003856609	 0.124416
H	-0.1787887936	 0.8723648958	-1.885480856	 0.126435
H	-0.0967235807	 1.8984049821	-0.4403608849	 0.134262
H	 0.2195814715	-1.1545409252	-0.4824651068	 0.094465
H	 0.1094699106	 0.7741417448	 1.8981540625	 0.134018
H	 0.1545494311	-0.9960530766	 1.9962516864	 0.130493
H	 1.5530992184	-0.1063558145	 1.3578824227	 0.122565
H	-1.6149054437	-1.4644162662	-1.541801702	 0.110241
H	-4.8772572134	-2.4022213368	-1.2974710982	 0.161691
H	-4.9077636906	-0.9826088768	-2.3197005865	 0.161432
