20
gdb 32908	4.19589	0.82835	0.72733	1.8531	83.41	-0.2232	0.0131	0.2363	1622.6834	0.170711	-403.206002	-403.196528	-403.195584	-403.24118	33.803	
C	-0.2432860952	 1.4860819056	 0.118805259	-0.382352
C	-0.1350579473	-0.0399365833	 0.1195073752	-0.159977
C	 0.8989411383	-0.5586601124	 1.1380667701	-0.311224
C	 1.0160108374	-2.0398647435	 1.1722541792	 0.335113
C	 1.9895812515	-2.9372555498	 0.8870543121	-0.209656
N	 1.5180685666	-4.2291355456	 1.0977954581	-0.299296
C	 0.2965408368	-4.0666418571	 1.4951266062	 0.37857
C	-0.7026406084	-5.1005171471	 1.8698387051	-0.488926
O	-0.0867293641	-2.7623336362	 1.5672853942	-0.212699
H	 0.7150519228	 1.9527332836	-0.1354984506	 0.115389
H	-0.9840941079	 1.8302440464	-0.6091465611	 0.115639
H	-0.543086499	 1.8632198589	 1.102968761	 0.116265
H	-1.1101058161	-0.4844840467	 0.3486655695	 0.111932
H	 0.1404144306	-0.3982989987	-0.8794790787	 0.103924
H	 1.888573671	-0.1497859998	 0.90497059	 0.115128
H	 0.6352304666	-0.1849599013	 2.1371568888	 0.114933
H	 2.9961173563	-2.7489634871	 0.5478031124	 0.115711
H	-1.0327404909	-4.9749896818	 2.9064755467	 0.142889
H	-1.5913413207	-5.0418452135	 1.23260742	 0.142574
H	-0.2490351383	-6.0855245207	 1.7578940829	 0.156064
