21
gdb 70524	2.65636	1.54731	1.14962	1.6575	83.6	-0.2371	0.0295	0.2666	1143.8188	0.183434	-387.09201	-387.083537	-387.082593	-387.124893	33.249	
C	-0.3066663941	 1.5632272482	 0.2853327602	-0.461863
C	-0.0978855606	 0.0727342712	 0.1128889243	 0.38091
C	-1.2542309648	-0.6483309323	-0.5652852534	-0.285608
C	-0.875969929	-1.9185518222	-1.3359665284	-0.244506
C	-0.4623660659	-3.107003402	-0.511097133	-0.053309
C	 0.220631397	-3.1464477697	 0.631628973	-0.040652
C	 0.8190047247	-2.0526497613	 1.4736756283	-0.303004
C	 0.840360647	-0.6124142559	 1.0145501761	 0.030228
O	 1.2252583194	-0.2933404959	-0.3293100409	-0.289838
H	 0.5422566769	 2.0242078407	 0.7961245685	 0.123891
H	-0.4231563233	 2.0465529294	-0.6909369535	 0.12396
H	-1.2142243379	 1.7627117326	 0.8662097461	 0.119244
H	-2.0220439428	-0.8769217754	 0.1849073823	 0.105514
H	-1.717487651	 0.0525274755	-1.2715340283	 0.096551
H	-1.7389355613	-2.2091755678	-1.9459847836	 0.092828
H	-0.0735341627	-1.6715546779	-2.042978959	 0.129202
H	-0.7561828142	-4.0683321546	-0.9291903318	 0.080746
H	 0.4090098859	-4.1333470858	 1.0528554064	 0.083012
H	 0.337252706	-2.0627715457	 2.4646790516	 0.114441
H	 1.8624306159	-2.3346845529	 1.6826279685	 0.120465
H	 1.3286621549	 0.0272229818	 1.7556218568	 0.077787
