19
gdb 10186	2.13594	1.49021	0.92823	4.6825	73.13	-0.2341	0.0338	0.2678	1270.2382	0.165657	-361.241279	-361.231654	-361.23071	-361.276021	33.774	
C	-0.0277994853	 1.5664845509	-0.0083974019	-0.389421
C	-0.0008190943	 0.0455581346	-0.1191494122	-0.115337
N	-1.3379875398	-0.5083400813	 0.0778147785	-0.287793
C	-1.4023030039	-1.9597236329	 0.0531874153	-0.091624
C	-2.7620034716	-2.4271689754	 0.6184448047	-0.180856
N	-2.8913708329	-1.9634412536	 2.0002217716	-0.515494
C	-1.2336590398	-2.4673743831	-1.3198680278	 0.302207
N	-1.100778732	-2.8877083833	-2.3878786371	-0.332132
H	 0.9682329482	 1.9842423543	-0.1807981322	 0.117796
H	-0.7179628651	 1.9932529603	-0.7413773334	 0.131482
H	-0.3541669639	 1.8836378927	 0.9888187285	 0.113643
H	 0.3442210502	-0.2465420005	-1.1184235508	 0.122717
H	 0.7329024636	-0.3696233123	 0.5980666338	 0.07651
H	-1.7108602499	-0.2280519273	 0.9819327179	 0.232238
H	-0.6018237738	-2.4336875827	 0.6580281181	 0.093115
H	-3.550167948	-1.9601717014	 0.0211281985	 0.136004
H	-2.8444368937	-3.515844508	 0.4918441134	 0.109219
H	-3.8635924951	-1.9730567881	 2.2865204225	 0.242195
H	-2.3936298429	-2.5818079827	 2.6332385427	 0.235532
