20
gdb 73722	2.66479	1.88031	1.40696	1.5643	77.92	-0.2281	0.0834	0.3115	989.3613	0.173061	-403.106997	-403.099515	-403.098571	-403.138384	30.501	
C	-0.006965213	 1.4564674322	 0.006780013	-0.453726
C	-0.0334487749	-0.0576580835	-0.0280808482	 0.295567
C	 1.0178237211	-0.6411284569	-0.9650952802	-0.143985
O	 0.9956110667	-2.0450999812	-1.1522235096	-0.248506
C	-0.30309935	-2.6075665606	-1.2436586838	-0.091815
C	-1.1221593083	-2.2412281347	-0.0100868247	-0.071559
C	-0.2755433412	-2.1168043505	 1.2846573854	-0.16077
N	-0.3986154059	-0.6151771516	 1.3044345764	-0.190784
C	-1.3401881936	-0.726017473	 0.1143940686	-0.092406
H	 0.9636557088	 1.8204365492	 0.3614761025	 0.122569
H	-0.1872574577	 1.8780669593	-0.9879509406	 0.114607
H	-0.7727670512	 1.8308139772	 0.6897595484	 0.133087
H	 0.8933111996	-0.1302780873	-1.9362669466	 0.092911
H	 2.0245849038	-0.4063664386	-0.6005120843	 0.113937
H	-0.8190621421	-2.273960378	-2.1603417995	 0.087932
H	-0.1451893551	-3.6882673919	-1.3155417639	 0.108333
H	-2.0228668236	-2.8508221433	 0.0768155217	 0.077355
H	-0.7872927283	-2.5076551578	 2.1667900876	 0.106631
H	 0.7477899005	-2.4961344099	 1.2540714211	 0.116915
H	-2.2930338956	-0.2056661192	 0.0795923767	 0.083706
