18
gdb 22745	4.3103	0.99564	0.89806	1.8526	75.51	-0.2419	0.0051	0.2469	1297.5272	0.146994	-439.039843	-439.031517	-439.030572	-439.073134	31.827	
O	-0.1572604295	 1.3508260147	 0.0504803794	-0.396314
N	 0.0194721261	-0.0458665916	 0.020419158	-0.225651
C	-1.0996598713	-0.6467087579	-0.0302077091	 0.403216
C	-2.485590358	-0.0315106266	-0.074007844	-0.297502
C	-3.4448215254	-1.2329036548	 0.0675063655	-0.304028
C	-2.6363931696	-2.4100526952	-0.4609973176	 0.429782
C	-3.1924112978	-3.7243774506	-0.776996805	-0.259491
O	-2.8792076102	-2.7955486452	-1.8214211716	-0.269858
C	-1.1842742445	-2.1602938669	-0.0739409669	-0.370698
H	 0.7513033224	 1.6682409726	 0.0829729218	 0.306052
H	-2.608208223	 0.7320597519	 0.6981450048	 0.130031
H	-2.6183207691	 0.4767771373	-1.0365800355	 0.13934
H	-3.6893371875	-1.4012020241	 1.1230009762	 0.109872
H	-4.3808886364	-1.1151200861	-0.4818668231	 0.117375
H	-2.5567491204	-4.608393721	-0.7313152393	 0.112993
H	-4.2543921698	-3.9147808916	-0.6227268902	 0.111852
H	-0.4853629346	-2.6095410312	-0.7820199175	 0.13803
H	-0.9771367214	-2.5813470937	 0.9185549142	 0.124998
