17
gdb 51261	4.76909	0.91103	0.83554	1.9317	74.86	-0.2442	-0.0376	0.2066	1345.7427	0.134981	-421.822097	-421.813976	-421.813032	-421.85643	29.631	
O	 0.2458502137	-0.1697724873	-0.3283292886	-0.231217
C	 0.1141831017	 1.0120689665	-0.1515514406	 0.158837
C	 1.261921892	 2.0071012708	-0.0243565804	-0.372795
C	 1.2357871044	 2.9864021892	-1.1637048298	 0.292496
C	 0.9200690736	 4.2866120237	-1.1049395884	-0.204945
C	 1.0850934061	 4.9288180113	-2.4416504438	 0.014668
O	 2.443762621	 4.8642197044	-2.9372716892	-0.256381
C	 1.516868547	 3.8671186904	-3.3678886315	 0.039806
C	 1.5915234022	 2.5633560818	-2.5833650732	-0.330333
H	-0.8946198504	 1.4804798205	-0.0862514053	 0.081708
H	 1.1420475737	 2.540120612	 0.9269070306	 0.1237
H	 2.1984869583	 1.4406496974	 0.000713529	 0.129736
H	 0.6345224203	 4.8259816881	-0.2097176529	 0.10201
H	 0.5276099955	 5.8113992432	-2.7390123724	 0.09973
H	 1.2883649541	 3.8665102827	-4.4300559094	 0.099615
H	 2.5904046151	 2.1135696971	-2.6360400432	 0.131624
H	 0.8883146117	 1.8173061983	-2.9756698107	 0.121742
