18
gdb 14993	4.48603	1.37216	1.11712	2.0926	69.93	-0.2414	0.0236	0.265	1060.1551	0.154747	-384.934525	-384.926697	-384.925753	-384.966766	29.206	
O	-0.0526274007	 1.4444286272	-0.0308660183	-0.420011
C	 0.0208112113	 0.0262816987	-0.0198248666	-0.091061
C	-1.4075948062	-0.5178760591	 0.0433856903	-0.037702
C	-1.4229842822	-2.0450017108	-0.1004868203	-0.100369
O	-2.7087005399	-2.5770757919	 0.1602198498	-0.249477
C	-3.1199707244	-2.3832426966	 1.4999442938	-0.113973
C	-2.846097902	-0.9948867283	 2.0080383324	-0.093642
C	-2.0902772387	-0.1331952119	 1.3326032173	-0.048318
H	 0.841161632	 1.7938717268	 0.0265089947	 0.288565
H	 0.5201750192	-0.3514457767	-0.9272550554	 0.086098
H	 0.5924417703	-0.3365176388	 0.8494787471	 0.088451
H	-1.9507107306	-0.0746961106	-0.8034406064	 0.098921
H	-1.167867428	-2.3511331686	-1.1194797333	 0.106575
H	-0.6779481623	-2.4892413642	 0.5830729979	 0.0832
H	-4.1959410714	-2.5949539125	 1.5189445483	 0.116308
H	-2.6401795136	-3.1277909086	 2.1634239975	 0.093788
H	-3.3006855866	-0.7260519165	 2.9582437733	 0.08999
H	-1.9186622162	 0.8753983823	 1.6952897279	 0.102656
