16
gdb 38415	4.12989	1.36127	1.24786	2.1907	67.7	-0.2473	0.019	0.2662	1000.4975	0.1252	-437.853593	-437.846637	-437.845693	-437.885356	26.857	
C	 0.0914197581	 1.6717833309	 0.0631694118	-0.32726
C	 1.5990339649	 1.4488259687	-0.1113403838	 0.039674
O	 2.026199428	 0.6243292299	 0.9844542442	-0.245692
C	 1.4334706293	-0.010653899	-0.1522264689	-0.055014
C	-0.0896607225	 0.1159364086	 0.0607545803	 0.398332
C	-0.7575752774	-0.6362548395	 1.2318566164	-0.253547
N	-1.7503300053	-1.5265424178	 0.6048755624	-0.258696
C	-1.7018539369	-1.2674440372	-0.631971318	 0.103243
O	-0.8315656879	-0.3304827078	-1.0957669187	-0.266425
H	-0.2118354467	 2.207066214	 0.966274177	 0.114841
H	-0.3871760843	 2.1074422144	-0.8166942177	 0.127834
H	 2.3428753301	 2.0886804393	-0.5693557637	 0.113066
H	 1.9867038448	-0.79486729	-0.6561876427	 0.112609
H	-0.0323069005	-1.2137892743	 1.8127063554	 0.133361
H	-1.2613781855	 0.0432418009	 1.9279848341	 0.122877
H	-2.3103335881	-1.7281169911	-1.4021055781	 0.140795
