16
gdb 18656	3.19085	2.30292	1.54734	3.0885	69.87	-0.2276	-0.0117	0.2158	826.2545	0.132165	-346.627366	-346.620765	-346.619821	-346.658153	25.944	
O	 0.0674158533	-0.0105111345	 0.2432960272	-0.333599
C	-0.0084800809	 1.1808925002	 0.0327369033	 0.407981
C	-1.3621485057	 1.8560867081	-0.1923226142	-0.381732
C	-1.3237288667	 3.0450570177	-1.1182039864	-0.076932
C	-0.1998320758	 3.6904207058	-1.4284914695	-0.055043
C	 1.1212494339	 3.3334852103	-0.8547835348	-0.075682
C	 1.2894603331	 3.3808168688	 0.640010349	-0.292079
C	 1.2084779301	 2.0328116882	-0.0570483729	-0.125244
H	-2.0502682428	 1.0837808568	-0.5493336286	 0.13692
H	-1.751573137	 2.1579078614	 0.7931449614	 0.137447
H	-2.2735995619	 3.3755900969	-1.528906272	 0.097767
H	-0.2280036013	 4.5423183633	-2.1019455298	 0.095102
H	 1.9913380837	 3.5858790579	-1.4517551843	 0.100225
H	 2.2570017463	 3.6490337429	 1.0489642418	 0.127919
H	 0.4405236353	 3.7119930104	 1.2275942827	 0.128366
H	 2.1266430164	 1.4597220359	-0.110476323	 0.108585
