17
gdb 108955	3.42386	1.25535	1.18669	1.4936	69.28	-0.2165	0.0484	0.265	1108.6031	0.136545	-455.133144	-455.124689	-455.123745	-455.166332	31.218	
C	-0.2055982167	 1.3267712001	 0.0610967392	-0.320751
N	 0.1087556702	-0.0891932503	 0.0235567299	-0.376155
C	 0.7115473685	-0.6859937959	 1.0789358768	 0.508413
N	 1.2519693464	-0.1067789562	 2.0953819108	-0.38783
C	 1.7565393791	-1.175288982	 2.9264467035	-0.107322
C	 0.6868741775	-2.0876451894	 3.4954318666	 0.080228
O	-0.6455679855	-1.6944027544	 3.4936025748	-0.428649
C	 1.3851877552	-2.4671042217	 2.2060807634	 0.004434
O	 0.7565755168	-2.0453397382	 1.0058283272	-0.248781
H	 0.6749604789	 1.8772368117	 0.3967001223	 0.163793
H	-0.4701878022	 1.6586967143	-0.9450487715	 0.128439
H	-1.0335615429	 1.5605856712	 0.7441815504	 0.123901
H	-0.4671154431	-0.6934025941	-0.5393037155	 0.259641
H	 2.6837799652	-0.9944604269	 3.4584060888	 0.095643
H	 0.9698638237	-2.6830920901	 4.3608945046	 0.100839
H	-0.6512345635	-0.7346630436	 3.3770660401	 0.293883
H	 1.9800600225	-3.3623153744	 2.0800634186	 0.110274
