17
gdb 63025	2.31363	1.83614	1.40919	3.1391	67.18	-0.2634	-0.0004	0.2629	975.818	0.135232	-458.989831	-458.981762	-458.980818	-459.022107	31.356	
C	 0.0498940294	 1.5932677369	-0.0107108536	-0.432268
C	 0.0386319804	 0.0677438019	-0.0351405252	 0.231879
O	-1.2977228852	-0.433218075	-0.0549106922	-0.471248
C	 0.7700743829	-0.605578107	-1.1769619022	-0.074908
C	 2.2744308691	-0.4348181925	-1.270808063	-0.335605
C	 1.6912152067	-1.6081643931	-0.545304164	 0.083362
O	 1.6252819354	-1.4846101958	 0.8676429642	-0.21535
C	 0.7271785017	-0.5278988604	 1.2197653908	 0.390343
O	 0.4933296185	-0.2371848872	 2.3578466696	-0.352371
H	 1.0642431227	 1.9936671678	-0.0928713838	 0.122168
H	-0.5491824625	 1.9748331487	-0.841568238	 0.128553
H	-0.3764945824	 1.9489909643	 0.9323936214	 0.134452
H	-1.7040786233	-0.1889430871	 0.7859415249	 0.29268
H	 0.1960008184	-0.8357882145	-2.0650814336	 0.11607
H	 2.7262549263	-0.6123134822	-2.2403558857	 0.129559
H	 2.7656788015	 0.3283392607	-0.6755050841	 0.131027
H	 1.8189178102	-2.6341194954	-0.8626609654	 0.121658
