20
gdb 66586	2.83467	1.91976	1.62033	1.5925	80.71	-0.2251	0.0908	0.3159	935.1301	0.17356	-365.97105	-365.964011	-365.963067	-366.002081	29.247	
C	-0.0011348696	 1.4912771267	-0.0469153055	-0.509334
C	 0.0738630961	-0.0007745246	 0.0136688895	 0.354711
C	 0.3761171352	-1.008166181	-1.0306803559	-0.116876
C	 0.4994337296	-2.0586189717	 0.1176115907	-0.108553
C	-1.0447413047	-2.0839389937	 0.1517230102	 0.047445
C	-1.537004425	-1.9132577936	 1.5883573595	-0.225001
C	-0.3742984553	-1.1432762033	 2.2890854768	-0.236607
C	 0.6170452219	-0.8887501833	 1.1472883846	-0.072287
N	-1.0489770064	-0.7879696574	-0.6290819687	-0.198461
H	 0.9896395522	 1.9415148101	 0.0792067903	 0.11559
H	-0.4085557409	 1.8129792957	-1.0094427583	 0.133052
H	-0.6544301416	 1.8856611158	 0.7401220786	 0.121537
H	 0.7321180121	-0.9377410104	-2.050161893	 0.091857
H	 1.1304954417	-2.9438138654	 0.1680567139	 0.065046
H	-1.5432394863	-2.8584082062	-0.4338767812	 0.069492
H	-2.4802828948	-1.3584628839	 1.6029577374	 0.10967
H	-1.7215780023	-2.8836727239	 2.0602431745	 0.097149
H	-0.7081561244	-0.2114964367	 2.7561928626	 0.101093
H	 0.0843090769	-1.7488809303	 3.0779557464	 0.095657
H	 1.6349626958	-0.625450843	 1.4417699477	 0.064819
