17
gdb 116879	3.33639	0.59806	0.5293	2.6266	79.52	-0.2577	0.0106	0.2683	2016.4491	0.132101	-421.742363	-421.731601	-421.730657	-421.780653	36.855	
O	-0.0617462314	 1.4005974848	-0.0053747558	-0.414443
C	-0.1337773661	 0.0283126781	-0.3493709287	-0.062942
C	-1.188901377	-0.6025145395	 0.566701076	-0.328114
C	-1.3708775444	-2.0256208928	 0.3175956806	 0.023567
C	-1.5016683693	-3.2023902586	 0.0986630631	 0.119268
C	-1.69794904	-4.6317741363	-0.1786252371	-0.237543
O	-2.9704882599	-4.9045140007	-0.7599383856	-0.389624
C	-0.5963594726	-5.1628829189	-0.9979386155	 0.331823
C	 0.2822621454	-5.6051204078	-1.6875127797	-0.456879
H	 0.6035936881	 1.8174819379	-0.5601785421	 0.290445
H	-0.4288252758	-0.1154962988	-1.3994944277	 0.098735
H	 0.8294798428	-0.4820922647	-0.2023470215	 0.102047
H	-0.8912887403	-0.4335479648	 1.6086288613	 0.142303
H	-2.1363575122	-0.06825403	 0.4257176366	 0.142326
H	-1.7156131169	-5.1785488463	 0.7731095626	 0.148085
H	-3.0115725746	-4.4207997372	-1.5931486997	 0.288403
H	 1.0626169041	-5.9990266445	-2.2908332567	 0.202543
