17
gdb 130392	2.22342	1.33073	0.90085	5.2615	71.86	-0.2496	-0.0096	0.24	1279.2248	0.1362	-455.118592	-455.109445	-455.108501	-455.154086	32.	
N	 0.162503306	 1.3805951139	 0.316812969	-0.497314
C	 0.0168880811	-0.0311474377	-0.0625779744	-0.27943
C	-1.4220469405	-0.4270369613	-0.1267787837	 0.363255
C	-2.2862507879	-0.6445980895	-1.1602997739	 0.089054
C	-2.0579493398	-0.5555454314	-2.6319655101	-0.216147
O	-2.4308648795	-1.7970304655	-3.2198304399	-0.412999
C	-3.4987225448	-0.9927679533	-0.4979271087	-0.021062
N	-3.3771639234	-0.9811129349	 0.803692508	-0.138545
O	-2.0561258425	-0.6157097348	 1.0448012798	-0.206773
H	 1.1483799256	 1.6037673945	 0.4143652694	 0.232604
H	-0.1978363702	 1.974937114	-0.4238667859	 0.227945
H	 0.4829245025	-0.2992641597	-1.0245202343	 0.10219
H	 0.5054049395	-0.6358710723	 0.7093803709	 0.136476
H	-2.6584261661	 0.2662933416	-3.0541742235	 0.102083
H	-1.0019825492	-0.3149790497	-2.8316863067	 0.0927
H	-2.414177234	-1.6887134204	-4.1760316735	 0.289919
H	-4.4476106768	-1.2618150336	-0.9399096926	 0.136044
