14
gdb 87107	2.996	1.199	1.0016	4.96	66.48	-0.2694	-0.0842	0.1852	1151.7473	0.098079	-473.81431	-473.805487	-473.804542	-473.848127	31.91	
O	-0.2272107869	 1.3645179047	 0.1071845661	-0.410375
C	-0.0524872261	-0.0159858357	 0.0912269665	 0.049308
C	-0.3963789796	-0.7536193849	 1.3300156677	-0.341354
C	-1.3741351986	-0.8255337422	 0.1622639907	 0.260729
O	-2.5517735863	-0.1020316609	 0.2124357647	-0.459944
C	-1.4097468837	-2.0626832141	-0.6411250314	 0.232021
O	-0.5123115423	-2.8769377542	-0.6678123265	-0.307236
C	-2.6119430388	-2.2499073555	-1.4788211348	 0.25525
N	-3.5206046359	-2.4423520959	-2.1669673709	-0.31369
H	-0.109290275	 1.6974579207	-0.7896902552	 0.308653
H	 0.734951207	-0.4044999239	-0.5489650288	 0.132082
H	 0.1699319102	-1.6510251498	 1.5505304697	 0.155435
H	-0.7503126236	-0.1730872239	 2.174423457	 0.14633
H	-2.3142273605	 0.8305291056	 0.1011377051	 0.292791
