20
gdb 16488	2.70844	2.52014	1.71176	0.2886	78.22	-0.2377	0.0977	0.3353	867.6539	0.177605	-311.828648	-311.821148	-311.820204	-311.859755	30.07	
C	-0.0185854433	 1.600937184	-0.0635103902	-0.426769
C	 0.0918655221	 0.0822665959	 0.0069138282	-0.011527
C	 1.1262413726	-0.6999767761	-0.8604007967	-0.079976
C	 2.5147713459	-0.130400716	-0.4611451858	-0.23743
C	 2.2437716847	-0.7329668774	 0.9147424651	-0.107022
C	 1.2600731607	-1.728202109	 0.3363112454	-0.131981
C	 0.7345768739	-0.6163005306	 1.2122413655	 0.352828
C	 0.1933189153	-0.6984487373	 2.6092331306	-0.511474
H	 0.9339708939	 2.0953439364	 0.1468304377	 0.11699
H	-0.3561096544	 1.9265272576	-1.0543791572	 0.110834
H	-0.7470138882	 1.9700569593	 0.6674020551	 0.112205
H	-0.8971031544	-0.3653636349	-0.1561381414	 0.062655
H	 0.9022054985	-0.9436083956	-1.8975882678	 0.061534
H	 3.3194305192	-0.6693532739	-0.9702485847	 0.095296
H	 2.6851797635	 0.9475142544	-0.5599545466	 0.084967
H	 2.9464235978	-0.8965104168	 1.7229612884	 0.076572
H	 1.1888538719	-2.8041376563	 0.4085596998	 0.082635
H	 0.7745226042	-1.3988160208	 3.2192135168	 0.116451
H	 0.2237359962	 0.2762290227	 3.1109255622	 0.118423
H	-0.8478659602	-1.0418639356	 2.6132466054	 0.11479
