17
gdb 46473	2.84889	1.5132	1.09579	4.826	73.9	-0.2288	-0.0841	0.1448	1094.0254	0.135858	-421.857401	-421.849421	-421.848477	-421.890284	30.178	
O	 0.0094263583	 0.0100331984	 0.121875365	-0.277607
C	-0.0401555022	 1.19924869	-0.0348751511	 0.320575
C	-1.2714241405	 2.0937993386	-0.0818588475	-0.337522
C	-0.815873175	 3.3852772115	-0.8021520391	-0.330936
C	 0.6850886499	 3.4822292584	-0.5342381581	 0.225651
C	 1.6071742635	 4.4772257849	-1.2025079275	-0.298824
C	 1.3171891761	 4.6345575075	 0.2508583102	-0.285573
C	 1.2007349368	 2.1213898374	-0.2267646168	 0.249731
O	 2.3482846675	 1.7689519455	-0.1125402611	-0.311244
H	-2.1186450782	 1.5864092077	-0.5471567326	 0.137781
H	-1.5521977359	 2.3100230174	 0.9576925757	 0.14269
H	-1.0002950183	 3.2925813828	-1.8784442505	 0.120662
H	-1.3610209713	 4.267372442	-0.4572818915	 0.112859
H	 2.583695919	 4.0984614431	-1.4854397284	 0.143178
H	 1.1523010031	 5.1719116227	-1.9006130251	 0.123177
H	 0.6469337307	 5.4264854375	 0.5680275636	 0.123942
H	 2.0938387464	 4.3667079846	 0.9587656449	 0.141461
