18
gdb 94412	2.59777	1.37283	1.21426	2.848	72.64	-0.2461	-0.0356	0.2105	1110.937	0.146405	-439.057985	-439.049298	-439.048354	-439.09187	31.737	
C	-0.2747446509	 1.4378199454	-0.122019133	-0.388939
C	 0.1736891226	-0.0065286801	-0.1366514788	 0.108002
O	 1.4751763032	-0.1929360426	-0.7516054683	-0.291201
C	 2.0165521942	-0.7784863708	 0.4393104571	-0.125646
C	 0.6786359859	-0.6156303761	 1.199404662	 0.13678
N	 0.5613663344	 0.1050094099	 2.4821878743	-0.369804
C	 0.0797048101	-1.0963035052	 3.2195694521	-0.286271
C	 0.0076158806	-1.8208520052	 1.8651359698	 0.331674
O	-0.3945716586	-2.8755844733	 1.4762205748	-0.288887
H	 0.4355480386	 2.0675034193	 0.4201799582	 0.118655
H	-0.3590875301	 1.8069050747	-1.1487640398	 0.127948
H	-1.2512418161	 1.5285926999	 0.3632839049	 0.124609
H	-0.5702752612	-0.6478383362	-0.6280310094	 0.092391
H	 2.3470705261	-1.8136631506	 0.2870907216	 0.117959
H	 2.8456133385	-0.1908859364	 0.8590245239	 0.100771
H	 1.4323427677	 0.4903015434	 2.8284015024	 0.226597
H	 0.7986624958	-1.5595259366	 3.9084014093	 0.128195
H	-0.8704857908	-0.9549568996	 3.7454459791	 0.137167
