23
gdb 103877	3.43176	0.80419	0.73773	0.8749	92.78	-0.2522	0.0587	0.3109	1651.263	0.20301	-351.118233	-351.10752	-351.106576	-351.154179	39.906	
C	 0.421729783	 1.4758547265	 0.3195178446	-0.386844
C	-0.1484459988	 0.1226952244	-0.1275463629	-0.240095
C	 0.5578951303	-0.4767441953	-1.3377578317	 0.344576
C	 0.4433890166	 0.3472239401	-2.6102079708	-0.459803
C	 1.8538721071	-1.2301211664	-1.1167504245	-0.318853
C	 0.6108881856	-1.9806627619	-1.5294864716	-0.038713
C	-0.0552943729	-2.983811624	-0.5946140152	-0.393318
C	 0.5201325535	-4.3209534427	-0.7152362985	 0.30848
C	 1.0010067835	-5.4161714896	-0.8338744515	-0.446611
H	 1.4910226443	 1.3961917214	 0.542287294	 0.118353
H	 0.2982331406	 2.2445834775	-0.4489595501	 0.118587
H	-0.0848673562	 1.8301283291	 1.2225770492	 0.110856
H	-0.0909032439	-0.5706307902	 0.7177913835	 0.092706
H	-1.2174589715	 0.2376063769	-0.3547229683	 0.0931
H	 0.905398267	 1.3338096825	-2.4978188065	 0.118261
H	 0.939301828	-0.1515320061	-3.4485693141	 0.113318
H	-0.606517269	 0.5012559994	-2.887862758	 0.112247
H	 2.658389805	-1.115449433	-1.8356436878	 0.106973
H	 2.1940258769	-1.3599791574	-0.0931859986	 0.107267
H	 0.5838113312	-2.3056829028	-2.5663303124	 0.089503
H	 0.0292166091	-2.6548555305	 0.4469820815	 0.128684
H	-1.1315282512	-3.0356609896	-0.8089384303	 0.129259
H	 1.4237535218	-6.3852429185	-0.92934913	 0.192065
