16
gdb 74657	4.69996	1.40614	1.23565	1.6426	68.56	-0.2349	0.0059	0.2408	1000.9292	0.125321	-437.836117	-437.829318	-437.828373	-437.867254	26.907	
C	 0.0020807114	 1.4789674988	 0.0682208871	-0.466153
C	-0.0094308563	-0.0100455502	-0.0624375139	 0.405723
N	-0.0296290371	-0.6235556748	-1.1756922951	-0.329889
C	-0.0373929811	-2.0656802393	-1.076271905	 0.016273
C	-0.9277449082	-2.7213066315	 0.0217051233	-0.005911
O	-0.0325592334	-3.8864385078	 0.0506261017	-0.299995
C	 0.8762161611	-2.732836456	-0.004662128	-0.005914
C	-0.0058808975	-2.0468968861	 1.0714817107	 0.104466
O	 0.0043316335	-0.6332166709	 1.1524582345	-0.267863
H	 0.8936631135	 1.8052526145	 0.6131647388	 0.143749
H	-0.0101387944	 1.9309588371	-0.9225938822	 0.15158
H	-0.8681565768	 1.8165321889	 0.6401173473	 0.143737
H	-0.054740747	-2.5579398897	-2.04788677	 0.09428
H	-2.0030921204	-2.8893073893	 0.0402368053	 0.103219
H	 1.9494107222	-2.9145703709	-0.0175336107	 0.103219
H	 0.0061838507	-2.4605592526	 2.0777836763	 0.10948
