21
gdb 88822	2.94792	1.13672	0.90036	2.1112	79.82	-0.243	0.0637	0.3067	1348.3364	0.181366	-424.187568	-424.177938	-424.176994	-424.22302	35.105	
C	 0.0166472828	 1.5599589696	-0.153749913	-0.404562
C	-0.0316952809	 0.0628659551	 0.0652712496	-0.002276
C	 1.1901504261	-0.7993095979	-0.115690248	-0.306296
C	 0.5952587702	-0.6182518806	 1.2648667417	 0.010971
C	 1.3354143137	 0.1598437218	 2.3065064152	 0.106509
O	 0.4607421058	 0.7945691445	 3.2808769467	-0.296616
C	 1.1478735379	 0.1772228522	 4.3840107455	-0.096337
C	 2.0613213326	-0.6249937406	 3.4315980586	 0.042532
O	 1.8246414308	-2.0116602662	 3.3581107762	-0.419895
H	 0.9919821315	 1.9817208255	 0.1053808039	 0.113504
H	-0.1717066718	 1.8009370795	-1.2058456946	 0.111678
H	-0.73704863	 2.0742798456	 0.4515920359	 0.128472
H	-0.967889323	-0.3903384763	-0.25104563	 0.084003
H	 1.0972523762	-1.7689111651	-0.5917466358	 0.110913
H	 2.1285882198	-0.2931949694	-0.3244078372	 0.104658
H	 0.051676585	-1.4653174166	 1.667659926	 0.094826
H	 1.9885758913	 0.9110247284	 1.8433414993	 0.066531
H	 1.655934632	 0.9129561307	 5.0219059657	 0.092362
H	 0.4808910572	-0.441682242	 4.9973938439	 0.09891
H	 3.1331758215	-0.4081011323	 3.5207308847	 0.072162
H	 2.2287833315	-2.4284822559	 4.1254299758	 0.287952
