20
gdb 102143	2.22407	1.04772	0.84203	3.6596	79.99	-0.2602	-0.0327	0.2275	1440.7893	0.168205	-403.194415	-403.183776	-403.182832	-403.231103	36.971	
C	 0.3623458932	-0.1257338466	-1.2912491549	-0.401274
C	-0.1862380782	-0.0114194215	 0.1338901509	-0.177187
C	 0.7534753981	-0.5760094227	 1.2210854691	-0.091321
C	 0.1842560689	-0.3298704016	 2.6412256654	-0.348086
C	 0.0199577293	 1.0877949087	 2.9489687998	 0.261623
N	-0.0959128081	 2.2143998313	 3.1800540834	-0.314728
C	 0.9164967483	-2.0940220799	 1.0435518769	 0.3987
C	 2.2670473535	-2.5992620056	 0.5849742645	-0.489244
O	-0.0115006731	-2.8357289937	 1.2734172826	-0.316897
H	 0.4889326278	-1.1692422084	-1.5983570188	 0.12441
H	-0.3230842888	 0.3414246105	-2.0039957036	 0.127404
H	 1.3317090151	 0.3758617306	-1.3881349339	 0.119414
H	-0.3818212917	 1.0408176407	 0.3660952861	 0.128456
H	-1.1439277265	-0.5397963683	 0.20784346	 0.122236
H	 1.7316519612	-0.0888812978	 1.1397059545	 0.092399
H	-0.7801440649	-0.8403370269	 2.7277824938	 0.173902
H	 0.841758876	-0.7710387349	 3.3989116693	 0.150435
H	 3.0284949688	-2.348478029	 1.333693951	 0.145157
H	 2.2375044373	-3.6796400607	 0.4392409913	 0.147047
H	 2.5673417639	-2.1002384641	-0.3428822974	 0.147554
