16
gdb 33587	3.99647	1.50224	1.36681	1.3282	79.44	-0.2215	0.0304	0.2519	955.472	0.125166	-363.487586	-363.481	-363.480055	-363.518338	27.292	
C	 0.060832884	-1.1275231532	-0.0274913088	-0.368391
C	 0.0007101916	 0.0752897949	-0.0192318229	 0.039054
C	-0.0851748463	 1.4883129238	 0.0260955095	 0.30172
C	 0.0933835837	 2.4235990453	-1.209084524	-0.144517
C	 0.9899872261	 2.5526943118	-0.0229837129	-0.092796
N	 0.0281455819	 3.549600464	 0.5989671666	-0.188539
C	-0.755974641	 3.6099407348	-0.7327643776	-0.011847
C	-2.0133417038	 3.080658655	-0.0223061861	-0.25104
C	-0.972655895	 2.4128064905	 0.8886504046	-0.080285
H	 0.1170827438	-2.1875078306	-0.0378332082	 0.178977
H	 0.2869726544	 2.0271723395	-2.1966367522	 0.106139
H	 2.061308564	 2.508316322	 0.1244633333	 0.110167
H	-0.7387387876	 4.5393499484	-1.3017587099	 0.085385
H	-2.5422365731	 3.8829776854	 0.4989612159	 0.118047
H	-2.7120868885	 2.4508792231	-0.5770323863	 0.109627
H	-1.1644649244	 2.1343664954	 1.923998319	 0.088299
