22
gdb 81070	2.76039	1.35401	1.10908	1.9494	86.06	-0.2223	0.084	0.3063	1203.7664	0.195235	-367.122101	-367.113614	-367.112669	-367.155375	33.448	
C	-0.239755159	 1.4921754061	-0.2545477236	-0.440779
C	 0.072585795	 0.0215614223	-0.0551022985	 0.051512
N	 1.3379564125	-0.565964481	-0.726332706	-0.16353
C	 2.1125795135	 0.0347495695	 0.4607785646	-0.228395
C	 0.8608323669	-0.5483795005	 1.166192788	 0.323349
C	 1.1097034399	-1.7532218965	 0.2225416854	-0.209364
C	 0.4892338365	-0.5428482504	 2.612545598	-0.146712
C	 1.5524892422	-0.6446717212	 3.6807466138	-0.268303
C	 0.8087164847	 0.650272704	 3.4834721748	-0.266685
H	-0.435139771	 1.6887705183	-1.3140793395	 0.130267
H	-1.1440202805	 1.7538689781	 0.3051973206	 0.120667
H	 0.5561492873	 2.1652323151	 0.0706405014	 0.117667
H	-0.807964291	-0.5706528865	-0.3334390854	 0.064754
H	 3.0713140623	-0.4610304988	 0.6379283386	 0.097517
H	 2.2476261576	 1.1157443934	 0.4090465217	 0.09933
H	 0.2550359407	-2.3776637002	-0.0549833366	 0.094009
H	 2.0075513555	-2.3554697211	 0.3862577137	 0.095086
H	-0.4486313106	-1.0496598185	 2.8279537299	 0.080796
H	 1.3371819105	-1.2360417721	 4.5636090341	 0.112496
H	 2.5881368387	-0.6861733183	 3.3599709486	 0.112214
H	 1.3459575534	 1.476261764	 3.029580819	 0.111723
H	 0.0824133051	 0.9497267743	 4.2307025972	 0.112379
