16
gdb 48562	3.04846	1.81373	1.30973	2.9008	73.41	-0.2295	-0.0419	0.1877	944.9688	0.124716	-400.66452	-400.657677	-400.656732	-400.695913	27.197	
O	 0.0595457208	-0.085774732	 0.2311750169	-0.249183
C	 0.0803907126	 1.1199721872	 0.1802634771	 0.052054
C	 1.3471780071	 1.9029432692	 0.025436696	 0.250815
C	 2.664111574	 1.2040194483	 0.2891172049	-0.152872
C	 3.5597900142	 2.1812945812	 0.1587958423	-0.106285
C	 2.7070839825	 3.3818622301	-0.1850915567	-0.032619
C	 1.5658708431	 2.937874729	-1.1484930637	-0.098012
C	 0.6651687551	 3.9180987895	-0.3953529221	-0.201803
N	 1.4611834062	 3.3008063884	 0.7600480216	-0.18016
H	-0.8592446147	 1.7074734876	 0.2412109362	 0.08571
H	 2.7695172598	 0.1628506211	 0.5516303126	 0.136216
H	 4.6319857653	 2.1686816996	 0.2885284513	 0.120675
H	 3.1482778502	 4.3754218608	-0.2725016279	 0.082349
H	 1.6287247798	 2.7070865345	-2.2191252492	 0.078579
H	 0.8646912911	 4.9852233244	-0.5254933535	 0.107026
H	-0.4099955272	 3.7372754011	-0.354838516	 0.107509
