16
gdb 34560	3.76116	1.28894	1.22568	3.7073	75.94	-0.2604	-0.055	0.2055	1036.6611	0.127423	-400.764292	-400.757561	-400.756617	-400.795503	26.747	
N	 0.0675983377	-1.1272225417	 0.0888316657	-0.340311
C	-0.0091242518	 0.0278353053	 0.0337865719	 0.179524
C	-0.0579249117	 1.4403410986	-0.0514948578	 0.234903
C	-1.1438672047	 2.2360768267	-0.0400560154	-0.169972
C	-0.6133682246	 3.6597009538	 0.0017265819	 0.063998
C	 0.645158079	 3.5380062772	-0.8694672903	-0.231234
C	 1.1697902172	 2.350879973	-0.0207059498	-0.164992
C	 1.1273968663	 3.0291713513	 1.380357924	-0.075775
O	-0.0500139792	 3.8471941447	 1.3305128623	-0.273318
H	-2.1773489411	 1.9317642051	 0.0537748099	 0.132585
H	-1.3171284181	 4.4674642065	-0.1853407605	 0.090295
H	 0.4422684272	 3.2641187118	-1.9054853416	 0.11689
H	 1.2765944066	 4.4286389178	-0.8215066047	 0.113888
H	 2.1208261622	 1.8958382032	-0.2889365017	 0.09604
H	 1.0508415815	 2.3066883568	 2.1996595171	 0.11682
H	 2.0074328335	 3.66290521	 1.5423655691	 0.110659
