20
gdb 105173	1.73758	1.28493	0.81929	1.8957	85.55	-0.2394	0.041	0.2803	1475.6123	0.1683	-403.099052	-403.088239	-403.087295	-403.136504	37.736	
C	 0.0904813947	 1.5312299055	 0.0498464425	-0.503348
C	 0.0539579189	 0.0762038212	 0.0096299665	 0.10535
C	-0.0016036232	-1.1281257282	-0.0077278903	 0.049413
C	 0.0111672069	-2.5707170402	-0.0815034768	 0.046899
C	 1.2113237319	-3.1193706008	-0.8415057866	-0.127705
O	 2.4376508092	-2.8372589931	-0.1947981249	-0.416478
N	-0.4400547976	-3.2902363581	 1.1360188384	-0.352465
C	-1.2555152171	-3.3734022513	-0.0800019637	-0.024972
C	-2.6252525218	-2.745224209	-0.0323843816	-0.406933
H	 0.7422604185	 1.9346383275	-0.7328268539	 0.149316
H	-0.9080960607	 1.9560067784	-0.100338858	 0.15268
H	 0.4641076489	 1.8936342517	 1.0138351872	 0.153188
H	 1.1401440959	-4.2112380123	-0.8993355758	 0.098214
H	 1.1981949571	-2.7261940283	-1.870195896	 0.095636
H	 2.4661467809	-1.8836725866	-0.0513933096	 0.287867
H	 0.1323831792	-4.1233556271	 1.2566882517	 0.235706
H	-1.1996671726	-4.3011865306	-0.6504166644	 0.082239
H	-2.5967381783	-1.8052487839	 0.5225234682	 0.137563
H	-2.9950157476	-2.5434011108	-1.0432732167	 0.11677
H	-3.3354422034	-3.4159872142	 0.4624060238	 0.121059
