20
gdb 111329	2.47656	1.41463	1.06938	1.9164	78.7	-0.2415	0.075	0.3165	1200.6153	0.170469	-403.078527	-403.06994	-403.068996	-403.111857	32.829	
C	-0.1181532398	 1.6072471583	 0.0745459505	-0.384964
C	 0.0325804019	 0.087187861	-0.0461215905	-0.190608
C	 0.7406339395	-0.54024537	 1.1487054282	-0.118301
C	-0.0388942863	-0.6301969492	 2.4830834563	 0.022503
O	-1.1619216464	-1.4920498709	 2.2680506226	-0.245546
C	 0.1155062559	-2.0929376454	 2.5414219404	-0.061325
C	 0.8776699571	-2.0902286901	 1.2297886294	 0.338877
C	 0.9284239093	-3.1005621824	 0.1562711404	-0.302057
N	 2.1000829181	-2.8575182576	 1.0305419666	-0.377224
H	 0.8570605185	 2.1007415896	 0.1559463868	 0.111601
H	-0.6300888366	 2.0241502684	-0.7979409917	 0.115917
H	-0.702059908	 1.8783552531	 0.960632	 0.121656
H	-0.9515895323	-0.3825343456	-0.1472203888	 0.117763
H	 0.5899062498	-0.1538550214	-0.9609717542	 0.09026
H	 1.7212766984	-0.075466996	 1.3171355423	 0.076337
H	-0.1149281872	 0.0997014916	 3.2803050013	 0.104996
H	 0.1910892987	-2.7750270684	 3.3796043342	 0.111864
H	 0.4512220026	-4.0678174095	 0.2869212218	 0.122932
H	 0.9653108229	-2.7480978023	-0.8715748332	 0.114351
H	 2.7927665337	-2.2966918433	 0.5391488776	 0.230968
