18
gdb 37529	3.61828	1.95031	1.68217	1.5434	72.49	-0.2283	0.0683	0.2967	844.5336	0.152192	-401.902304	-401.896601	-401.895657	-401.932124	24.886	
C	-0.0177490245	 1.5391251749	-0.0705547303	-0.253216
C	 1.4630752103	 1.9885135404	 0.1199324706	-0.168631
N	 2.2358548217	 0.7529856381	 0.345578887	-0.097686
C	 2.2999442092	-0.1316696355	-0.832780812	-0.064443
C	 2.0366137119	-1.3762720036	 0.0272538872	 0.086929
O	 1.0888324401	-1.9326520819	-0.8887429678	-0.295212
C	 0.8149918708	-0.5543567069	-1.2558895407	 0.0574
C	 0.0860692621	 0.0083387582	-0.0209312346	-0.017096
C	 1.3064480047	-0.2821145783	 0.9064179144	-0.072167
H	-0.6546368822	 1.9155798934	 0.7354457287	 0.103901
H	-0.450685612	 1.8873507411	-1.0137318145	 0.101678
H	 1.8691457029	 2.5168781769	-0.7479105982	 0.10632
H	 1.5738467665	 2.6465233843	 0.9871492721	 0.106965
H	 3.0779896672	 0.0065011148	-1.5821637411	 0.081163
H	 2.7597843767	-2.0675367956	 0.4522223398	 0.093965
H	 0.3852524297	-0.4327184685	-2.2492614538	 0.079476
H	-0.8396365131	-0.5229103368	 0.2004865628	 0.078246
H	 1.1762740682	-0.330105165	 1.9866711804	 0.072407
