16
gdb 54399	3.45026	1.45626	1.25504	2.5425	68.64	-0.2423	-0.0076	0.2347	1004.5851	0.124754	-437.86921	-437.861644	-437.8607	-437.901444	29.643	
N	 0.0702201487	 1.0561701524	 0.7492025823	-0.532064
C	 0.0129864877	 0.0515515545	-0.1609171973	 0.256932
O	 0.8920138352	-0.2262853216	-0.9547396659	-0.37118
C	-1.2631341554	-0.7507068287	-0.0897641126	 0.318105
C	-1.4307994843	-2.0327177035	 0.7965446836	-0.243457
C	-2.8947116562	-1.5346996693	 0.6167972247	 0.000234
O	-2.3719030763	-0.1602979372	 0.6814819077	-0.334777
C	-3.0984638298	-1.7157005982	-0.9002573264	-0.093976
C	-1.9734092901	-1.1859919799	-1.3825124022	-0.105425
H	 0.8610920185	 1.6784900782	 0.7409427699	 0.2634
H	-0.7363186856	 1.2642245321	 1.3146345945	 0.277662
H	-1.1423399949	-2.9935554392	 0.3695919806	 0.115929
H	-1.0516201754	-1.893528561	 1.8117270841	 0.110988
H	-3.7024288986	-1.7436519957	 1.3161263682	 0.087509
H	-3.9426858635	-2.1680457333	-1.3984663538	 0.116953
H	-1.5913945199	-1.0654203097	-2.3839047474	 0.133166
