10
gdb 21880	3.43521	2.53815	1.45966	4.0927	52.13	-0.277	-0.0927	0.1843	744.7442	0.061119	-450.598444	-450.592449	-450.591505	-450.628822	21.834	
O	-0.0536944156	 1.2721450525	 0.1559132453	-0.353442
C	 0.0265883185	-0.0419845846	 0.0334454682	 0.312619
N	 1.1589059441	-0.6469407761	-0.0570258056	-0.337751
C	 1.0909191648	-2.0156168575	-0.1798429644	 0.10618
N	 0.0476048463	-2.768753563	-0.2160881197	-0.070796
O	-1.1807642173	-2.0990809975	-0.1167167388	-0.246665
C	-1.2890279356	-0.7420604893	 0.0104863633	 0.412237
O	-2.3613443807	-0.2188547459	 0.0916886833	-0.30056
H	 0.8530552914	 1.6182785919	 0.1592883635	 0.319485
H	 2.0330320341	-2.5477819305	-0.2577278852	 0.158693
