18
gdb 77486	1.9842	1.921	1.19576	1.4188	73.55	-0.2359	-0.0054	0.2304	1081.3137	0.14594	-439.045891	-439.036837	-439.035893	-439.07919	33.863	
C	 0.0221443065	 1.4941104026	 0.0268557271	-0.523552
C	-0.0476358452	 0.0018228832	 0.0853638866	 0.13472
N	 0.6029844071	-0.9114670473	-0.9776128285	-0.414368
C	 0.0026219703	-1.9280339561	 0.0191231827	 0.13472
C	 0.1497903778	-3.4071542195	-0.1413739223	-0.523552
C	 0.6064740926	-0.9832702578	 1.116951057	 0.147121
O	 1.9904030246	-0.9516159784	 1.244720995	-0.456062
C	-1.2195736875	-0.9928224194	 0.0097781006	 0.387636
O	-2.4002945785	-1.0172667305	-0.1738813723	-0.333072
H	 1.0604232218	 1.8339558328	 0.0916574632	 0.13792
H	-0.4138234275	 1.8784461573	-0.9006182283	 0.133147
H	-0.5332779148	 1.9276070149	 0.8642154724	 0.140421
H	 0.0772691577	-0.8950122726	-1.855879684	 0.230091
H	 1.2044468373	-3.6961998481	-0.0981332588	 0.13792
H	-0.3808672205	-3.9252984501	 0.6633083604	 0.140421
H	-0.2672372761	-3.749179558	-1.0937899608	 0.133147
H	 0.1648577083	-1.0289659901	 2.1131880307	 0.100059
H	 2.3319652361	-0.911629353	 0.3388707592	 0.293282
