16
gdb 83192	3.20728	1.45363	1.25259	3.273	65.65	-0.2569	0.0427	0.2996	1011.1697	0.125534	-475.006701	-474.999243	-474.998299	-475.038847	28.775	
O	 0.304190638	 1.0285367578	 0.6006996853	-0.420045
C	 0.0561807937	-0.2589408937	 0.1453222153	 0.091587
C	-1.3829276001	-0.726904466	-0.045802565	-0.133086
C	-2.4897575552	 0.2880710091	 0.0714649542	-0.118899
O	-2.9764109701	 0.6801688828	-1.2355651995	-0.253638
C	-2.0718225463	 1.0926999617	-2.1486582427	 0.459057
N	-2.3411388827	 1.7596337719	-3.1823506901	-0.545705
O	-0.7654913934	 0.7669195006	-1.9034972203	-0.24743
C	-0.4983408898	-0.444213988	-1.2346241019	 0.023466
H	 0.3346121711	 1.60694592	-0.172794212	 0.306387
H	 0.7683254955	-0.9940879302	 0.5090538949	 0.112183
H	-1.6202193521	-1.760856379	 0.1754609373	 0.108467
H	-3.3649815054	-0.1180293401	 0.5777393557	 0.130358
H	-2.1485162254	 1.179394185	 0.6075649764	 0.137847
H	-3.329558318	 2.0053999986	-3.1800856397	 0.229717
H	-0.1509283498	-1.2302892404	-1.8971577179	 0.119733
