20
gdb 113105	4.04014	0.7546	0.71884	4.3422	78.78	-0.248	0.0309	0.2789	1628.1596	0.170054	-440.288419	-440.278805	-440.277861	-440.324188	34.297	
C	-0.0158501185	 1.311602739	-0.3284237697	-0.23721
O	-0.1292255987	 0.0846096807	 0.3564102609	-0.243815
C	-1.3787913188	-0.5431532061	 0.1820042538	 0.137663
C	-1.514047667	-1.3144224268	-1.1669001636	-0.280966
C	-1.0130933678	-2.5880104325	-0.4288410837	 0.079208
C	-1.3643940554	-1.901054522	 0.9199920705	-0.272388
N	-1.6163199282	-3.8592108567	-0.7400135118	-0.29041
C	-0.9153316906	-4.9517554149	-1.1539406651	 0.150125
O	 0.2855316068	-4.9997814895	-1.3104549283	-0.319067
H	 0.9750848277	 1.7148855093	-0.107326858	 0.130649
H	-0.1126378746	 1.1929398136	-1.4178317178	 0.107162
H	-0.7777110336	 2.0329686948	 0.006994655	 0.104175
H	-2.1920294061	 0.154002536	 0.4282073488	 0.0635
H	-2.5616442132	-1.4080625114	-1.4719819588	 0.092923
H	-0.9273648294	-0.9581220893	-2.0164341193	 0.114368
H	 0.0620226074	-2.7197458283	-0.5441813361	 0.136625
H	-0.6513452642	-1.9919301647	 1.7412210246	 0.121849
H	-2.3632629312	-2.1791191087	 1.2704972333	 0.093779
H	-2.6174069264	-3.9502559578	-0.6566523314	 0.241009
H	-1.5830710881	-5.8178649449	-1.3363637231	 0.07082
