18
gdb 75322	2.399	1.7072	1.19456	2.817	78.76	-0.2268	-0.0272	0.1997	1071.5749	0.147047	-401.945717	-401.937434	-401.93649	-401.978467	31.375	
C	 0.1904534081	 1.5027378378	 0.1756737849	-0.502665
C	 0.0650080196	 0.0163630092	 0.0736142257	 0.255697
C	-0.072292152	-0.7329253974	-1.0236594317	-0.192926
C	-0.1740365933	-2.2023279351	-0.6908351617	-0.214468
N	-0.0045876932	-2.3020976101	 0.7802742701	-0.139823
C	 1.2779437861	-1.8506976781	 1.2809626076	-0.268346
C	 0.1129437668	-0.8913754648	 1.2682625802	 0.149633
C	-0.5744018859	-0.5937997351	 2.5521468613	 0.097649
O	-1.0361933336	 0.4766622426	 2.8639711419	-0.267794
H	 1.1515151807	 1.7863528805	 0.6228834129	 0.127029
H	 0.1190207719	 1.9720551992	-0.8088386239	 0.119639
H	-0.5854866344	 1.9113853806	 0.8285977679	 0.162376
H	-0.0929610444	-0.3565408157	-2.0400307661	 0.099723
H	-1.1521252015	-2.6229025735	-0.9588387342	 0.121799
H	 0.5846427007	-2.8149343788	-1.1940368041	 0.118095
H	 1.5917239672	-2.3197448456	 2.2107569601	 0.12371
H	 2.0785583053	-1.6182264841	 0.5816769153	 0.124382
H	-0.6271459281	-1.4730489014	 3.2315812138	 0.086292
