19
gdb 65609	3.23007	1.29055	1.20721	5.1341	79.23	-0.2302	0.026	0.2562	1111.0482	0.159903	-382.039448	-382.031155	-382.03021	-382.072446	31.877	
C	 0.2206976221	 1.4420893022	-0.1506437226	-0.453122
C	 0.0341542063	-0.0735785592	-0.070766669	 0.156731
C	 0.9179946408	-0.9383942789	-1.0383127948	-0.309001
C	 1.5045471687	-1.6086311315	 0.2194515288	 0.05263
C	 2.7628007443	-0.9727151518	 0.8565102078	-0.250241
C	 1.7917868019	-0.192918858	 1.7860382871	-0.173483
N	 0.5930101919	-0.8088573028	 1.130237174	-0.15651
C	-1.3984542025	-0.3848703841	-0.1880807237	 0.286952
N	-2.5221100675	-0.6272639572	-0.309525692	-0.348422
H	 1.2792586498	 1.7087020999	-0.1932773415	 0.12599
H	-0.2589199402	 1.8208988066	-1.0575548876	 0.144078
H	-0.2375421117	 1.9400653826	 0.7088530243	 0.146091
H	 0.3528009058	-1.5990263462	-1.6966112498	 0.131087
H	 1.6229799275	-0.3559701356	-1.6370165982	 0.112574
H	 1.4234567155	-2.6969674153	 0.2738989181	 0.088158
H	 3.4299041408	-1.6713213906	 1.3651969684	 0.114032
H	 3.3580380499	-0.3588054108	 0.1746785134	 0.104686
H	 1.8373709548	-0.4950479179	 2.8360425544	 0.118234
H	 1.8416120717	 0.8974456684	 1.7494129728	 0.109537
