16
gdb 125081	2.62118	1.53178	0.99209	2.613	73.89	-0.2449	-0.0322	0.2127	1141.9995	0.126198	-434.128192	-434.119694	-434.118749	-434.161873	30.955	
C	 0.1895416318	 1.5406845455	 0.0661966897	-0.52344
C	 0.0595388286	 0.0505566145	-0.0028597216	 0.120827
C	-0.0289066267	-0.7509648528	-1.1334456948	 0.214684
N	-0.0979383046	-2.0420404366	-0.6830995261	-0.280541
N	-0.0914706185	-2.1325003881	 0.6525749675	-0.216805
C	 0.0250446368	-0.8720873577	 1.0670479191	-0.065778
C	-0.0326300231	-0.3986612258	-2.5672922721	 0.311932
N	 0.2915398708	-1.442323804	-3.4187372068	-0.548905
O	-0.3376110918	 0.7041296257	-2.9806881805	-0.347472
H	 1.1914492845	 1.8396904292	 0.3959155329	 0.128811
H	-0.0013210737	 1.9856337425	-0.9104827128	 0.166673
H	-0.5228610277	 1.9600117741	 0.7843833727	 0.130122
H	-0.3209554308	-2.8597324936	-1.2265973179	 0.274253
H	 0.0742450411	-0.6611384837	 2.1258601887	 0.116493
H	 0.9569983105	-2.1300103811	-3.0991168951	 0.256095
H	 0.3987728628	-1.1630046681	-4.383714863	 0.263052
