18
gdb 6111	2.82695	1.86805	1.49543	1.8086	69.28	-0.2448	0.0237	0.2685	935.032	0.153011	-381.127943	-381.119173	-381.118229	-381.16077	32.55	
C	 0.233223912	 1.3688493012	-0.2678065767	-0.426168
C	-0.071955823	-0.0898308693	 0.0212234032	 0.415804
C	-1.5529452493	-0.4138763377	-0.0332927633	-0.440619
O	 0.6810794061	-0.963841031	-0.9161486457	-0.294753
C	 1.4929290087	-1.4341313738	 0.0876882703	 0.398247
N	 2.5234236915	-2.1511186102	 0.0467033678	-0.554848
C	 0.7332694171	-0.7258149298	 1.2018418175	-0.156083
N	 1.4028019921	 0.1424121952	 2.1440404297	-0.516955
H	 1.3106064723	 1.5487717379	-0.3164085459	 0.118292
H	-0.2024896465	 1.6656115833	-1.226492877	 0.125299
H	-0.1825342548	 2.0034329528	 0.519655596	 0.136364
H	-1.9730754324	-0.150387845	-1.0089677401	 0.128168
H	-1.7255111604	-1.4802586967	 0.1379444939	 0.124399
H	-2.0904037095	 0.1526541921	 0.7342135962	 0.128882
H	 2.757628127	-2.4107850013	-0.9135792114	 0.224424
H	 0.1065139212	-1.4283633635	 1.7585710137	 0.106235
H	 1.7219338924	-0.3965010572	 2.9418260706	 0.244517
H	 2.2358062855	 0.5462008231	 1.7271752412	 0.238798
