19
gdb 93137	2.56182	1.70239	1.2007	3.4171	76.79	-0.2329	0.0324	0.2652	1072.9551	0.161027	-419.18422	-419.17613	-419.175186	-419.216909	31.033	
C	 0.2016349977	 1.5834905699	-0.0016884273	-0.401595
C	 0.0629862129	 0.064803473	-0.0273971135	 0.115632
O	 0.8431976461	-0.365828385	-1.1488182606	-0.227462
C	 0.9345905382	-1.664624898	-1.5312112107	 0.148156
N	 0.7029324485	-2.771115045	-0.9796420416	-0.266431
C	 0.2861675636	-3.0327872598	 0.3806163428	-0.171967
C	 0.5845968901	-2.0258336834	 1.4756706906	-0.039627
N	 1.7986617315	-1.201297288	 1.3612664616	-0.327101
C	 0.4775223494	-0.5625164129	 1.2916830305	-0.037619
H	 1.2394303817	 1.8628980863	 0.2024485635	 0.135552
H	-0.0893743762	 2.0082072731	-0.965275457	 0.127625
H	-0.437645447	 2.0124243876	 0.7757164717	 0.114623
H	-0.9866767909	-0.2024344052	-0.2219871459	 0.088373
H	 1.3073867218	-1.6687852841	-2.5568248164	 0.114947
H	-0.7955344326	-3.2355020138	 0.3855810935	 0.112214
H	 0.7549991943	-3.983943329	 0.6666156045	 0.115405
H	 0.3304750304	-2.4030625379	 2.466930511	 0.081563
H	 2.224573121	-1.0535152009	 2.2712525362	 0.234455
H	 0.1421537695	 0.0139427431	 2.1531073171	 0.083256
