15
gdb 130347	3.07541	1.63161	1.16016	2.0963	67.3	-0.2228	-0.0191	0.2038	1008.197	0.11513	-453.905942	-453.898759	-453.897814	-453.937965	27.096	
N	-0.1828824888	 1.5345391635	-0.1283950498	-0.501877
C	 0.0483981213	 0.092506786	-0.0000757609	-0.166434
C	-1.3058875125	-0.7151449374	-0.000417455	-0.096204
O	-1.4364555565	-1.4627556936	-1.2517996636	-0.287555
C	-0.2032038046	-1.3927223701	-1.8117212214	 0.243009
C	 0.6830488981	-0.6077498002	-1.1662086318	 0.288007
O	 1.8534480899	-0.57424011	-1.8166387295	-0.222959
N	 1.7282064057	-1.3933858541	-2.9494855641	-0.136996
C	 0.4975725315	-1.8760197105	-2.9397919965	-0.11293
H	 0.6982690011	 2.032666147	-0.0384467221	 0.240563
H	-0.5316382865	 1.7438341522	-1.0610131515	 0.234551
H	 0.5734972506	-0.065821367	 0.9465450535	 0.110829
H	-1.326862782	-1.4414959879	 0.816640283	 0.129098
H	-2.1593001843	-0.040301202	 0.0852574419	 0.136625
H	 0.1909463569	-2.5375274259	-3.736011612	 0.142274
