19
gdb 116818	2.07759	1.16069	0.80171	2.5193	76.27	-0.2397	0.0196	0.2594	1435.5459	0.158199	-456.356935	-456.346691	-456.345747	-456.39322	34.895	
C	-0.8749173645	 0.6240835229	-1.2593198931	-0.257054
O	-1.2637103917	-0.0265998286	-0.0528351082	-0.197798
C	-1.5439187046	-1.3409599818	-0.1731696828	 0.109628
N	-1.8463431816	-2.0053061816	 0.8540164637	-0.239717
C	-2.1541300726	-3.4167431441	 0.7649094688	-0.130571
C	-2.3860938762	-4.0740687837	-0.6101951319	-0.19862
N	-3.5912287591	-3.6183337556	-1.289829668	-0.25179
C	-3.595702981	-2.8850663693	-2.4290072895	 0.15797
O	-2.6062044553	-2.4983954247	-3.02403596	-0.333267
H	-0.9846980813	 1.6955762455	-1.085090349	 0.138114
H	 0.1715807077	 0.406301083	-1.505353379	 0.125773
H	-1.509748939	 0.3231326092	-2.1002666402	 0.144467
H	-1.4981018342	-1.7103638967	-1.2038188216	 0.12002
H	-1.3462826912	-3.9747897923	 1.2598710255	 0.11452
H	-3.0445908208	-3.5974153923	 1.3846127372	 0.100824
H	-1.5536777635	-3.8980487465	-1.2945249715	 0.150304
H	-2.4560943473	-5.1576929663	-0.4547944499	 0.110873
H	-4.4834170084	-3.8408832855	-0.8762148201	 0.251418
H	-4.6241385253	-2.6647281216	-2.7742451705	 0.084906
