19
gdb 53982	2.74365	1.12217	0.96433	1.7474	74.25	-0.2511	0.014	0.2651	1284.1922	0.156589	-456.384806	-456.374372	-456.373427	-456.420518	37.585	
C	 0.5698857276	 1.5909900346	 0.657468569	-0.417673
C	 0.3256509812	 0.1283604673	 0.2686013019	 0.253166
C	 0.6498515643	-0.8437707937	 1.4087569071	-0.417759
O	-1.0266519998	-0.0650601485	-0.2147619481	-0.247304
C	-2.0750372394	 0.1515088408	 0.6013982327	 0.120268
N	-3.2457027433	-0.0226485907	 0.1606945682	-0.446587
C	 1.2580266926	-0.2083555146	-0.9222336627	 0.384486
N	 0.6438174756	-0.5813946082	-2.0668228572	-0.524599
O	 2.4650395722	-0.1263728075	-0.78460291	-0.388259
H	 1.6399009718	 1.736769681	 0.8162051072	 0.156898
H	 0.240353474	 2.25824443	-0.1438571958	 0.134224
H	 0.0394228336	 1.8566917945	 1.5762479499	 0.113063
H	 0.1196473598	-0.5772653682	 2.327446998	 0.113079
H	 0.3755747507	-1.8646229192	 1.128438206	 0.13424
H	 1.7236112604	-0.8106040895	 1.601944815	 0.156916
H	-1.8043030715	 0.4715365244	 1.6126492874	 0.09699
H	-3.9250610203	 0.179693385	 0.891194849	 0.230531
H	-0.3592549482	-0.6293674921	-2.1181105678	 0.284667
H	 1.2141298888	-0.8077836454	-2.8642388398	 0.263654
