15
gdb 3619	4.48256	3.66885	2.89715	1.6932	58.64	-0.2228	0.0893	0.3122	549.1318	0.127803	-308.483617	-308.478576	-308.477632	-308.512097	20.765	
C	-0.0248011065	 1.5563986976	 0.0234141213	-0.22486
C	 1.466118426	 2.0055272998	 0.0320145469	-0.204425
C	 2.198257383	 0.7405876335	 0.4643330418	 0.098124
O	 1.6753698899	 0.3519130655	 1.7827381933	-0.311128
C	 0.844328638	-0.6152664875	 1.1389779952	 0.103982
C	 0.0457603931	 0.0279666469	 0.0207340252	-0.078969
C	 1.4705309978	-0.4460705464	-0.2072058962	-0.154167
H	-0.5549202511	 1.9289618124	 0.9047259909	 0.11131
H	-0.5548457513	 1.9261676548	-0.8588372423	 0.0984
H	 1.799840292	 2.3076811577	-0.9678656523	 0.096981
H	 1.6553168184	 2.8346720773	 0.7193620264	 0.107904
H	 3.2890523185	 0.7721363379	 0.4628858484	 0.078147
H	 0.5406018549	-1.4861413768	 1.7081686062	 0.099511
H	-0.7680447578	-0.5587940397	-0.3914116795	 0.085605
H	 1.8337219851	-1.1416591631	-0.9501214553	 0.093586
