16
gdb 36176	3.71776	1.23925	1.13462	3.8216	72.72	-0.2405	0.0277	0.2682	1082.5009	0.125758	-396.824009	-396.81676	-396.815816	-396.856255	27.754	
N	-0.0133394214	-1.1431706519	 0.0622853863	-0.307336
C	 0.0019478278	 0.0101479323	-0.0062434202	 0.254501
C	 0.063477556	 1.4689257256	-0.0929641282	-0.478138
C	 1.4850836303	 1.9765741653	-0.0724097068	 0.381457
N	 2.4979797301	 1.7216525457	-1.1429041685	-0.380504
C	 3.226471221	 2.5694685924	-0.1400901819	-0.04247
C	 1.9618906286	 3.4457009039	 0.1266708104	-0.067714
N	 1.9699169472	 3.2993330873	 1.6174466795	-0.352264
C	 2.4980466565	 1.9868909954	 1.1222789342	-0.077509
H	-0.4360771657	 1.7938516519	-1.0123875888	 0.16475
H	-0.4740779999	 1.9067797748	 0.7557890576	 0.176315
H	 2.8254698324	 0.7528196032	-1.0957185441	 0.222672
H	 4.2643250677	 2.8830861194	-0.258534074	 0.09263
H	 1.6252262268	 4.3377595298	-0.4012492823	 0.097596
H	 2.7230091795	 3.8575292737	 2.0266611815	 0.216491
H	 2.7899227731	 1.1621377012	 1.7748378152	 0.099523
