18
gdb 64983	2.90281	1.03035	0.86343	4.1515	74.23	-0.2432	-0.0352	0.208	1362.5048	0.144719	-439.08586	-439.076239	-439.075295	-439.121637	34.005	
C	-0.1752337696	 1.4934056346	-0.7310923977	-0.465245
C	-0.0838793459	 0.191934952	 0.0350038637	 0.198858
C	 1.0439591351	-0.7503548969	-0.2677900527	-0.266914
N	 1.0202465793	-0.0248425371	 0.998363019	-0.334079
C	-1.4110228278	-0.3933127082	 0.4453601668	 0.348013
O	-2.4459679096	 0.0452329963	-0.0101751822	-0.320983
C	-1.4313626926	-1.5433007035	 1.4459425214	-0.399072
C	-2.473436255	-1.3015881385	 2.5327168951	 0.163128
O	-2.3293382963	-1.6350131711	 3.6779918543	-0.236351
H	 0.817073479	 1.8196299892	-1.0571297614	 0.109226
H	-0.8130641634	 1.3788110219	-1.6104773939	 0.148041
H	-0.6155450141	 2.2799785943	-0.1106542634	 0.136737
H	 0.9050920695	-1.8249762306	-0.1867625393	 0.129085
H	 1.7316246188	-0.4398160215	-1.0499830052	 0.126827
H	 1.6509362443	 0.7724867323	 0.9685925943	 0.241788
H	-1.7657485243	-2.4351721654	 0.8966420133	 0.153496
H	-0.4627223671	-1.7436777052	 1.9019144255	 0.158743
H	-3.3924933602	-0.7957048724	 2.1722506824	 0.108704
