17
gdb 73384	2.9614	1.65328	1.32584	4.1816	72.05	-0.2262	-0.0071	0.2191	987.3028	0.13637	-421.817947	-421.810568	-421.809624	-421.849577	28.936	
C	 0.0073983103	 1.441157158	 0.012655785	-0.493542
C	-0.0195806357	-0.0693227743	 0.0295985375	 0.295611
C	-1.3280314891	-0.7856734253	-0.3182700656	-0.14493
O	-1.2831988855	-2.0437707704	 0.3573255036	-0.25616
C	 0.0668849647	-2.2536010659	 0.7370155343	-0.058972
C	 0.6697634108	-0.8671353927	 1.0723432752	-0.125116
C	 1.2784417481	-0.795953507	-0.3664973941	-0.253067
C	 1.0367264803	-2.2652155678	-0.4884604089	 0.428817
O	 1.5535749677	-3.1396002879	-1.1263129338	-0.331899
H	 0.9839608097	 1.8248713478	 0.3206894823	 0.128591
H	-0.2018950334	 1.8272809741	-0.9905493565	 0.1333
H	-0.7468922648	 1.8488648886	 0.6938601128	 0.131311
H	-2.1969911521	-0.2274078845	 0.049638265	 0.109225
H	-1.4398635468	-0.931578879	-1.4011815816	 0.11092
H	 0.1294329084	-3.0824577315	 1.4400880495	 0.10456
H	 1.1078157024	-0.520986647	 1.9974984186	 0.112557
H	 2.1379015851	-0.2407934151	-0.7236287135	 0.108795
