17
gdb 26484	3.65251	1.30746	1.03733	2.0098	75.63	-0.2198	0.0054	0.2251	1143.4748	0.135801	-421.83656	-421.828627	-421.827683	-421.869374	30.087	
C	 0.2706878996	 1.3857930846	 0.315602311	-0.480746
C	-0.0365623823	-0.0431242492	-0.0711776643	 0.289121
C	 0.4102738335	-0.5686202006	-1.3750893765	-0.222354
O	 1.1184291604	-0.9041488423	-0.1839251235	-0.272304
C	-1.2065448155	-0.6457454314	 0.5990611189	 0.369083
C	-2.0475006064	-0.1989829068	 1.5744683779	-0.2967
C	-2.9969345788	-1.2465746799	 1.8051233264	-0.173636
C	-2.659615259	-2.2487714688	 0.9540318849	-0.017478
O	-1.5770656088	-1.8995572591	 0.2114927959	-0.180466
H	 1.1737525122	 1.7212949956	-0.1984221899	 0.131114
H	-0.555707117	 2.0518802216	 0.0489335595	 0.128056
H	 0.4425195466	 1.4662523317	 1.3935402347	 0.133362
H	-0.1368795315	-1.3868675085	-1.8381838522	 0.124081
H	 0.9305850661	 0.0987284493	-2.0623463702	 0.108971
H	-2.0008306886	 0.7568065193	 2.0712159419	 0.110859
H	-3.8130576987	-1.2486589497	 2.5101911686	 0.11365
H	-3.0614888416	-3.2294350158	 0.759913607	 0.135388
