15
gdb 61490	2.95355	1.00408	0.91907	2.577	65.75	-0.3129	-0.0181	0.2948	1267.5018	0.111578	-453.952893	-453.943661	-453.942717	-453.987491	32.62	
O	-1.0812288908	 0.6891989988	 0.0772760924	-0.41234
C	-0.1091537683	-0.3309522646	 0.0857046472	 0.002527
C	 0.1400356149	-0.9501594562	-1.3133043252	-0.272405
C	 0.1887142587	 0.1404146891	-2.4071604648	-0.021083
O	 0.8488786064	 1.3269327591	-1.9938797397	-0.419398
C	 0.763059883	-0.4007269908	-3.652205301	 0.268825
N	 1.2323643505	-0.8357265886	-4.6139830402	-0.299709
C	 1.1680605312	 0.1372172276	 0.6692697877	 0.249641
N	 2.178567723	 0.5036931469	 1.0943785719	-0.322196
H	-0.6853933411	 1.4504376061	-0.3696389186	 0.311525
H	-0.4956183241	-1.114863631	 0.7453487747	 0.151398
H	 1.0689816089	-1.5283932061	-1.2978280855	 0.146271
H	-0.6732394658	-1.6410461554	-1.552706056	 0.144228
H	-0.835227623	 0.4596610407	-2.6230647063	 0.159272
H	 1.7669588065	 1.1285971643	-1.7684124466	 0.313443
