16
gdb 66733	2.97804	1.71446	1.32684	2.3245	74.38	-0.2265	-0.0322	0.1943	962.3565	0.122684	-400.640653	-400.633043	-400.632099	-400.672646	28.841	
C	-0.3047579177	 1.4036155071	 0.1669492437	-0.532717
C	-0.0234743382	-0.053843274	 0.0471676897	 0.291912
C	 0.9129796587	-0.923159043	-0.8369914006	-0.113917
C	-0.0827637968	-2.0233945358	-0.9031775352	-0.151165
N	 0.9415718713	-2.0131542955	 0.2011186574	-0.169283
C	-0.0089932607	-1.1602828769	 1.0343253939	-0.09757
C	-1.0875491621	-1.2205480274	-0.0529029481	 0.221297
C	-2.5231980427	-1.0660310157	 0.0888973772	 0.00288
O	-3.0423635152	-0.3408262084	 0.9160505153	-0.293163
H	 0.5519324402	 1.9358672476	 0.5953366574	 0.132196
H	-0.5282957793	 1.847390921	-0.8088978636	 0.130059
H	-1.1716046337	 1.556172236	 0.816482707	 0.164717
H	 1.7693731442	-0.6850684802	-1.4563290398	 0.108843
H	-0.1884626242	-2.8539433739	-1.5909705242	 0.106934
H	-0.1331682786	-1.2054683479	 2.1089876054	 0.123892
H	-3.1385573454	-1.6580892729	-0.6244032356	 0.075085
