25
gdb 113380	1.93983	1.11272	0.81076	1.4481	90.17	-0.247	0.0758	0.3228	1572.4296	0.226999	-389.482585	-389.471262	-389.470318	-389.519395	41.239	
C	 0.9222156099	 1.4840673515	 0.0218122989	-0.370879
C	 0.2370149916	 0.1139432426	-0.0606583911	-0.212205
C	 0.7800807993	-0.7246451736	-1.2006058472	-0.016855
C	 1.995896742	-1.6106115669	-1.0304384114	-0.330042
C	 0.6432397165	-2.2297901594	-1.3043643406	 0.31028
C	-0.041651018	-3.0263781144	-0.2008693709	-0.257226
C	 0.509018349	-4.4469424197	-0.0043892698	-0.380759
C	 0.3951781443	-2.8017718561	-2.6921981601	-0.144015
O	 1.0488595808	-2.0071618645	-3.672235428	-0.418879
H	 2.0001400461	 1.3734484992	 0.1797953303	 0.117498
H	 0.7817090509	 2.0511962288	-0.9048851195	 0.113456
H	 0.518718172	 2.0826983225	 0.8448059613	 0.105011
H	 0.3663938974	-0.40520901	 0.8954514684	 0.09245
H	-0.844868094	 0.25640377	-0.1872147672	 0.091882
H	 0.735125062	-0.2229111048	-2.1634176382	 0.097158
H	 2.7353209848	-1.6213078195	-1.8226655124	 0.117534
H	 2.4007030663	-1.7236329152	-0.0280727572	 0.095499
H	 0.0530266588	-2.4864472674	 0.7455745961	 0.098456
H	-1.1198149931	-3.0805035688	-0.408450313	 0.090761
H	 0.0241927481	-4.9352328135	 0.8469362766	 0.10902
H	 0.3424391509	-5.0808500902	-0.8807869692	 0.114629
H	 1.5866645427	-4.4250173586	 0.1888811612	 0.119292
H	 0.7636912919	-3.8384500349	-2.735377671	 0.086666
H	-0.692692286	-2.8339142124	-2.8766982908	 0.082063
H	 0.9156143159	-2.4211275847	-4.5288517552	 0.289205
