20
gdb 104769	2.2357	1.20941	1.0495	2.3561	76.66	-0.2546	-0.0047	0.2498	1261.8835	0.169022	-440.277823	-440.267827	-440.266882	-440.31304	35.907	
C	-0.0076647952	 0.7240815372	 0.8191027767	-0.387586
C	 0.0626757614	-0.6086669936	 0.0608876336	-0.257816
C	 0.6433830908	-0.5383493936	-1.3440454913	 0.274652
C	 2.0535452567	 0.0176922348	-1.4963959942	-0.122925
O	 2.0910813554	 1.4292206574	-1.3897224268	-0.410563
C	 0.1761811413	-1.5500414706	-2.3566857661	-0.290049
N	-0.2242267178	-0.1642023347	-2.4705933823	-0.10718
C	-1.546743742	 0.2468803174	-2.4094198557	 0.134515
O	-2.480382622	-0.3602020901	-2.8732714282	-0.284897
H	 0.9720890125	 1.1991080167	 0.8944387801	 0.145714
H	-0.6749630671	 1.4333887383	 0.3191548516	 0.116254
H	-0.3956792785	 0.5598478908	 1.8288904385	 0.115302
H	 0.6788146011	-1.3163833334	 0.6308217045	 0.110218
H	-0.9379191833	-1.0538601835	 0.003699179	 0.112519
H	 2.6964498859	-0.3697529608	-0.6991523588	 0.115717
H	 2.4724683099	-0.3157334056	-2.4569113383	 0.096376
H	 1.5159784774	 1.7698077476	-2.085004276	 0.288839
H	 0.8635336883	-1.9120422411	-3.1166502259	 0.125326
H	-0.5963567176	-2.254629152	-2.0598035333	 0.138061
H	-1.6455464173	 1.2485433589	-1.950001047	 0.087521
