20
gdb 11138	6.2179	0.8813	0.83276	1.8134	71.99	-0.2604	0.0731	0.3335	1386.5465	0.176362	-386.117347	-386.108194	-386.10725	-386.151591	33.045	
O	-0.0270751601	 1.3827346542	-0.1734799545	-0.423023
C	 0.0208096788	-0.009939582	 0.1065481629	-0.097266
C	-1.3912774497	-0.5501921089	 0.0432782263	 0.058077
C	-2.105433187	-0.6088536383	-1.3356268106	-0.252784
C	-2.683464683	-1.9938269055	-0.9350152225	 0.058077
C	-2.7364738565	-3.0812391971	-1.9860102656	-0.097266
O	-3.1678854496	-4.2809530317	-1.3576622984	-0.423023
C	-1.6006162042	-2.0835999278	 0.1759383628	-0.252785
H	 0.8713646146	 1.7248944106	-0.1562717164	 0.285347
H	 0.6506350907	-0.5416604481	-0.6269272963	 0.075472
H	 0.4487730109	-0.2035395606	 1.1047081909	 0.082789
H	-2.0083450661	-0.0081313024	 0.7675455078	 0.078293
H	-2.8085065146	 0.1891290438	-1.5818749082	 0.101416
H	-1.3795458413	-0.6956483468	-2.1527528443	 0.09168
H	-3.6775867998	-1.8872282999	-0.4883346292	 0.078294
H	-3.4241733115	-2.7830619374	-2.7954036149	 0.082789
H	-1.7370201272	-3.2054669124	-2.4366233193	 0.075472
H	-3.1809577188	-4.9795444393	-2.0182397463	 0.285347
H	-0.7235766236	-2.6421390012	-0.1718783212	 0.091679
H	-1.8978306119	-2.4788692191	 1.1491559469	 0.101416
