15
gdb 159	6.46711	6.46539	3.72933	0.001	52.	-0.3078	0.0844	0.3922	414.0869	0.140316	-196.432825	-196.427608	-196.426663	-196.462198	18.624	
C	-0.020041479	 1.5448408219	 0.0135384348	-0.188019
C	 1.4623812684	 1.9874082336	-0.0062924985	-0.184786
C	 2.2219481313	 0.7931144527	 0.5926593558	-0.185551
C	 1.4952739389	-0.4168584143	-0.015777431	-0.184804
C	 0.0009792426	-0.0141956023	-0.0003020409	-0.188155
H	-0.5115711747	 1.9079637444	 0.9218080702	 0.096422
H	-0.5793906741	 1.9598986791	-0.8295293176	 0.093923
H	 1.7942144517	 2.146865564	-1.0396304332	 0.094313
H	 1.6323032747	 2.9239824519	 0.5327279978	 0.089655
H	 3.2939786064	 0.8084334434	 0.374299383	 0.089472
H	 2.1108811551	 0.7875827274	 1.6848969469	 0.092883
H	 1.8355057348	-0.5622821554	-1.0484154844	 0.094399
H	 1.6876826306	-1.3516019846	 0.5187912689	 0.089712
H	-0.4893660064	-0.4073405887	 0.8959753627	 0.096434
H	-0.5388599803	-0.428200053	-0.8564725544	 0.094101
