19
gdb 51863	4.01524	0.91863	0.78636	1.608	78.77	-0.2489	-0.0265	0.2223	1425.1751	0.159059	-423.036446	-423.027785	-423.026841	-423.07091	31.576	
O	-0.1948252192	-0.0434957013	-0.141761435	-0.240292
C	-0.0464091855	 1.1417652834	 0.0096867078	 0.160676
C	 1.2759560729	 1.8692058968	-0.0618783793	-0.286236
C	 1.3098902048	 2.8517504003	-1.2559795418	-0.062712
C	 2.5213009326	 3.7894910041	-1.1569815466	-0.096928
O	 2.6561992981	 4.577524847	-2.3226161242	-0.248938
C	 2.9549853443	 3.8082379894	-3.4726656358	-0.116122
C	 2.1339025979	 2.5538551381	-3.5771245718	-0.090614
C	 1.3620906273	 2.1267946156	-2.5807463394	-0.053608
H	-0.9214973304	 1.8077357716	 0.2001367636	 0.074353
H	 1.3955550465	 2.4400659132	 0.8701079325	 0.114809
H	 2.0839132159	 1.1353659141	-0.1321872507	 0.123807
H	 0.3995631555	 3.4691939473	-1.2130586312	 0.095542
H	 2.4101456078	 4.4895630779	-0.3232811493	 0.10799
H	 3.4323574457	 3.1921454075	-0.9818459908	 0.090778
H	 2.7669101819	 4.4627256713	-4.3321804517	 0.12099
H	 4.0308533756	 3.5529896034	-3.4990828478	 0.100466
H	 2.2021332135	 2.0045024753	-4.5124170535	 0.098129
H	 0.7685967149	 1.222551095	-2.687826155	 0.10791
