16
gdb 111378	2.08128	1.81454	1.15844	5.3192	69.36	-0.2669	0.0173	0.2842	1066.0462	0.123122	-437.837715	-437.829378	-437.828434	-437.87105	29.957	
C	 0.0329821312	 1.3208738664	 0.1431973715	-0.250593
O	-0.047888467	-0.0100741237	-0.341805005	-0.228346
C	-1.2636652183	-0.6218353098	-0.1144237288	 0.134514
C	-1.3985368715	-2.0229807262	-0.7057102425	-0.017677
O	-0.4928189166	-2.8876357134	-0.0166017166	-0.214472
C	-1.7382728227	-2.610547452	 0.6022172777	 0.028295
C	-1.5921417015	-1.2578444308	 1.3292393921	-0.28215
C	-0.5699823762	-1.1785490454	 2.3558523056	 0.321997
N	 0.2355759416	-1.0947115019	 3.1808269131	-0.336198
H	 1.0174759493	 1.6989675521	-0.1370392218	 0.143004
H	-0.7412821677	 1.9570182636	-0.3111395059	 0.108603
H	-0.0649881259	 1.3599732306	 1.2352336041	 0.133541
H	-2.1104516992	 0.0182336233	-0.4060491591	 0.083715
H	-1.6912647316	-2.3038848219	-1.7096513407	 0.122045
H	-2.3847837229	-3.4384810027	 0.8640920672	 0.125824
H	-2.540651871	-0.8768026181	 1.7157941792	 0.127898
