17
gdb 64897	2.02163	1.72831	1.08912	3.0482	80.39	-0.2579	0.0058	0.2637	1135.2674	0.133021	-380.831373	-380.821627	-380.820683	-380.865528	35.582	
C	-0.0439559463	 1.5320496616	-0.0871439318	-0.461965
C	-0.023774737	 0.0175964259	 0.0272512457	 0.092578
N	 1.2935506255	-0.6299771755	-0.1543571117	-0.385378
C	 0.6787995361	-0.6760150573	 1.1866331715	 0.132851
C	 1.3913360951	 0.07808289	 2.2948059785	-0.457501
C	 0.1218531183	-1.9409270895	 1.6219253459	 0.250288
N	-0.2818088603	-2.9549118561	 2.0047499726	-0.341878
C	-1.1790906016	-0.6340695108	-0.5384630698	 0.298612
C	-2.1430337613	-1.1464781024	-1.0416578726	-0.436904
H	 0.8903395385	 1.9685813333	 0.2660938525	 0.135889
H	-0.1742418199	 1.8128088773	-1.1360122291	 0.142936
H	-0.8781947817	 1.9498269821	 0.4832661949	 0.137175
H	 1.1838264271	-1.5229350408	-0.6303078443	 0.255692
H	 1.8618528547	 0.9802959676	 1.9051803249	 0.141105
H	 0.6922937676	 0.3496510175	 3.0907829238	 0.141452
H	 2.173552537	-0.5530070425	 2.7263238193	 0.147282
H	-2.9934609619	-1.6185741504	-1.4687932403	 0.207766
