19
gdb 108946	3.2192	1.17603	1.12104	3.7943	75.72	-0.2173	0.0211	0.2384	1182.2898	0.159867	-419.202648	-419.193812	-419.192868	-419.236354	32.993	
C	 0.0449179626	 1.6385560069	-0.000714172	-0.418792
C	 0.1389602222	 0.131961702	-0.0275723407	-0.033584
C	 0.7249052023	-0.6626936476	-1.1772464795	-0.06153
N	 1.6992098637	-0.0189686	-2.0243351736	-0.333188
C	 2.7299242891	 0.4213516977	-1.224432754	 0.327071
C	 3.8806850493	 1.234686709	-1.7525177018	-0.13077
O	 4.7940912577	 1.5340894259	-0.733064226	-0.419823
N	 2.6837835875	 0.0468333718	 0.0053648386	-0.318767
C	 1.428696326	-0.6443514883	 0.1856006768	-0.027175
H	 0.9575659035	 2.11416507	-0.3663451529	 0.127054
H	-0.7906458343	 1.9918061879	-0.6152046175	 0.113681
H	-0.1169185764	 1.9949313436	 1.0217101068	 0.126328
H	-0.7140882518	-0.3754252958	 0.416671839	 0.091088
H	 0.2040787948	-1.512954168	-1.6033255318	 0.100267
H	 1.4376671852	 0.4606563878	-2.8709064189	 0.249773
H	 4.3665045771	 0.6684909138	-2.564259255	 0.112694
H	 3.4943037704	 2.161477243	-2.2084473758	 0.102521
H	 4.4488539029	 1.089277886	 0.0578901754	 0.296147
H	 1.4365931882	-1.4824442257	 0.8724596528	 0.097004
