15
gdb 128563	6.95403	0.88207	0.78673	3.782	78.83	-0.2196	0.0004	0.22	1387.8209	0.112366	-416.780407	-416.771946	-416.771002	-416.81373	30.916	
C	 0.0103588972	 1.4313578409	-0.0362956101	-0.269059
O	-0.006137242	 0.0122467613	 0.0127014664	-0.262494
C	 0.5751642783	-0.643823101	-1.0050972046	 0.526036
C	 0.6882595421	-2.003613025	-1.1867395367	-0.476897
C	 1.3855724869	-2.1337434283	-2.4163082291	 0.237951
N	 1.6825894396	-0.9460238901	-2.956690658	-0.313517
N	 1.1758181432	-0.0520088886	-2.0737194095	-0.300735
C	 1.7565658842	-3.3450310405	-3.0553301024	 0.274388
C	 2.0545595551	-4.3921464779	-3.5676309848	-0.418396
H	 1.0373397796	 1.8195514658	-0.0340817146	 0.130913
H	-0.5239848712	 1.8071547214	-0.918699664	 0.13093
H	-0.5018181108	 1.7738410436	 0.8628763213	 0.154139
H	 0.3261280476	-2.780737016	-0.5370292411	 0.120259
H	 1.2797170408	 0.9278286181	-2.2694646078	 0.277224
H	 2.3225177995	-5.3100839335	-4.0286265349	 0.189259
