15
gdb 5725	4.86451	2.15156	1.52888	2.9176	67.1	-0.1811	0.0515	0.2326	793.3102	0.122294	-362.689234	-362.683111	-362.682167	-362.719442	23.795	
C	 0.0355792697	 1.4006630524	-0.0825900171	-0.099273
C	 1.5350065376	 1.7917157854	 0.0023700634	-0.20304
N	 2.0425169261	 0.6212875348	 0.6855210703	-0.03106
C	 3.2399219473	 0.1520296312	 1.1946377806	-0.153366
C	 3.05636426	-1.184490931	 1.4596085191	-0.125543
C	 1.7224709587	-1.5613443773	 1.0797927702	-0.340306
C	 1.1564229759	-0.4116190881	 0.6004083122	 0.423431
O	-0.0082326263	-0.037245875	 0.0042447107	-0.278485
H	-0.5208508901	 1.8241459938	 0.762219816	 0.121639
H	-0.4404348305	 1.7020761756	-1.0168195031	 0.127596
H	 1.9930976021	 1.9121046493	-0.9878795371	 0.124735
H	 1.6851737856	 2.712654653	 0.5721633502	 0.127628
H	 4.079872216	 0.8062070253	 1.3574182778	 0.113412
H	 3.7910102183	-1.8381664266	 1.9054779686	 0.092983
H	 1.2638822495	-2.5325291528	 1.1576746782	 0.099648
