17
gdb 123741	4.91747	1.03405	0.9295	0.9907	73.43	-0.2834	-0.0218	0.2616	1254.8989	0.138105	-418.000654	-417.99321	-417.992266	-418.033874	27.444	
C	 0.0202574781	 1.5957367087	-0.045292732	-0.215605
C	 1.5598926731	 1.4668122112	 0.1005748912	-0.21868
C	 1.3418835089	-0.0077756439	 0.5775018171	-0.079529
C	-0.0751897877	 0.0459551613	-0.0542140234	-0.232092
C	 2.3126036069	-1.0386315031	 0.1281399189	 0.363355
N	 2.0948297531	-1.8367589269	-0.8855414431	-0.183585
O	 3.2685482634	-2.6020429365	-0.9651965552	-0.153938
C	 4.0548609333	-2.1678723924	 0.0189421964	 0.104097
N	 3.5473974833	-1.2174239887	 0.7331690473	-0.312074
H	-0.4363913945	 2.0269482928	 0.8501328834	 0.105277
H	-0.3583915499	 2.1292279516	-0.9192551919	 0.103256
H	 2.0634253269	 1.4934217605	-0.8695261104	 0.112526
H	 2.076527354	 2.1403593746	 0.7867393945	 0.108458
H	 1.2924163898	-0.0362210542	 1.6698409939	 0.09974
H	-0.8861147254	-0.4239911518	 0.5058881575	 0.10334
H	-0.0676309352	-0.3590697601	-1.0683510767	 0.13069
H	 5.018946242	-2.6442335133	 0.1239817526	 0.164766
