19
gdb 87418	3.58967	1.32989	1.29457	1.7632	78.82	-0.2416	0.0987	0.3403	1074.8437	0.1592	-385.818666	-385.811109	-385.810165	-385.850502	30.333	
C	-0.0845658967	 1.5196597012	-0.0643688651	-0.415234
C	-0.0719823027	 0.0231802982	 0.1093490535	-0.053187
O	 1.2163077526	-0.630778743	-0.0146059622	-0.324953
C	 0.5628874458	-0.6461539227	 1.2433433923	 0.514425
C	 1.2672409128	-0.1724858504	 2.4915311388	-0.173377
C	 0.4753301081	-0.7560220045	 3.6759530076	-0.07383
C	-0.71031125	-1.5347578118	 3.1011259504	-0.233373
C	 0.2639752821	-1.9657797808	 1.9688323197	-0.173696
C	 1.4718110213	-1.6089058246	 2.9388243376	-0.073671
H	 0.7133926303	 1.9875460415	 0.5178436981	 0.123702
H	 0.0557391047	 1.788706966	-1.1166342458	 0.127883
H	-1.0442165907	 1.9343265565	 0.2633826619	 0.120048
H	-0.87264748	-0.5108996271	-0.407407	 0.083254
H	 1.9416062366	 0.6645884868	 2.6118208047	 0.09389
H	 0.5747910223	-0.3228696969	 4.6635131452	 0.08874
H	-0.9823525038	-2.3732024666	 3.748148954	 0.101141
H	-1.6130395024	-0.9880890361	 2.8038558694	 0.089787
H	 0.1276936139	-2.8839717472	 1.4024302723	 0.081686
H	 2.3605715059	-2.1382425084	 3.2471979977	 0.096764
