23
gdb 119840	3.84126	0.86847	0.7845	0.269	92.55	-0.2163	0.0301	0.2464	1583.3261	0.206797	-351.165878	-351.156795	-351.155851	-351.200221	34.906	
C	 0.0779867627	 1.5706266445	 0.062329475	-0.379207
C	 0.1145194552	 0.040541057	 0.0574688901	-0.157493
C	 0.6050913647	-0.5397326514	-1.2834620292	-0.303629
C	 0.6546364901	-2.0392325727	-1.3072488427	 0.351386
C	-0.0967009913	-2.8591670272	-2.052469401	-0.200047
C	 0.1975601122	-4.3226639469	-1.8002840666	-0.26423
C	 1.3791742421	-4.2833838558	-0.8312034787	-0.031506
C	 2.64906809	-3.6129318626	-1.2860690252	-0.278949
C	 1.6302571498	-2.8257131419	-0.4831918491	-0.129653
H	 1.0733779253	 1.9919023571	-0.1178381331	 0.113558
H	-0.5878860102	 1.9533010336	-0.7193125094	 0.113811
H	-0.2787001948	 1.9577502753	 1.0219688422	 0.110926
H	 0.7627563868	-0.3121111893	 0.8691560387	 0.098566
H	-0.8850754545	-0.3574018001	 0.2706155463	 0.100328
H	-0.0507829777	-0.1838778084	-2.0872530388	 0.096012
H	 1.6062376812	-0.1353940106	-1.4931669416	 0.099191
H	-0.8271155063	-2.5302379887	-2.7844885302	 0.080032
H	-0.6673761682	-4.8343031772	-1.3552815601	 0.102221
H	 0.4318234053	-4.8674469558	-2.724657879	 0.103996
H	 1.4611896019	-5.0551590457	-0.0750061303	 0.081167
H	 3.5658377402	-3.9075839708	-0.7851999807	 0.104631
H	 2.7661115957	-3.3626609215	-2.3361334904	 0.108296
H	 1.8914761797	-2.5016811909	 0.5184873436	 0.080592
