21
gdb 93823	2.39434	1.40659	1.06393	2.249	81.4	-0.2386	0.0129	0.2515	1223.1403	0.182215	-424.239634	-424.230375	-424.22943	-424.273314	35.521	
C	 0.1003895036	 1.5399534209	-0.0732892283	-0.404123
C	 0.0867072932	 0.0152970297	 0.031011513	 0.048409
O	 0.7008524672	-0.4635908432	-1.1586604366	-0.271084
C	 0.9290608019	-1.8639067474	-1.1360937372	-0.115849
C	 2.0028820124	-2.1833687256	-0.0997655331	 0.095807
O	 3.2965617049	-1.7810224645	-0.5511485583	-0.436901
C	 1.6363178999	-1.5229479668	 1.2055823037	-0.209978
C	 0.758553351	-0.5188809562	 1.2856543446	 0.307184
C	 0.3572326207	 0.1001061739	 2.5975624846	-0.483307
H	 1.1251129596	 1.9197652459	-0.0178869079	 0.121261
H	-0.3263767353	 1.8368432359	-1.0344646173	 0.129582
H	-0.4885014991	 1.9990386083	 0.7241144764	 0.119397
H	-0.9690633197	-0.3216890592	 0.0455786653	 0.073751
H	-0.0028188876	-2.4093238821	-0.9135108122	 0.085762
H	 1.2724500284	-2.1410867909	-2.1362612144	 0.11129
H	 2.0745535015	-3.2692929367	 0.0323952041	 0.083528
H	 3.2341928686	-0.8310451311	-0.7079539652	 0.277225
H	 2.1340107891	-1.8850406486	 2.1020508688	 0.085533
H	 0.8020579986	-0.440058604	 3.436989973	 0.125636
H	 0.6668260366	 1.1493294108	 2.6669256348	 0.131657
H	-0.7329313458	 0.0861524107	 2.7249987723	 0.125218
