17
gdb 71418	4.44387	1.2039	1.08393	4.9961	77.04	-0.2592	0.0185	0.2777	1125.128	0.136512	-380.820391	-380.812782	-380.811838	-380.852329	29.447	
C	 0.018292178	 1.4885678685	 0.0401824718	-0.497224
C	-0.0526352278	-0.0046626593	 0.0588489352	 0.342365
C	-1.271360414	-0.9027704787	-0.1720567826	-0.303517
C	-0.3637669783	-2.0709350814	 0.2882485596	-0.075769
C	 0.5692760182	-0.9990998472	 0.9676391191	-0.097429
N	 1.1944901555	-0.7537367751	-0.3712127943	-0.174243
C	 0.6936499321	-2.0937269434	-0.8413359066	-0.110669
C	 1.725168482	-3.1137564914	-0.6838011737	 0.294137
N	 2.5152398079	-3.9476773855	-0.5590609489	-0.322189
H	 1.009202201	 1.8298509623	 0.3501427697	 0.141694
H	-0.1716091997	 1.8748401468	-0.967146266	 0.130481
H	-0.7272985968	 1.9203554895	 0.7159030286	 0.124072
H	-2.0504232007	-0.6840462475	 0.5627576731	 0.116128
H	-1.7130792049	-0.9621366965	-1.1732956671	 0.101529
H	-0.7673431312	-2.984151758	 0.7180563431	 0.1
H	 1.1019563061	-0.9354477401	 1.9068155327	 0.112923
H	 0.3248966925	-2.1106335529	-1.8736475337	 0.117712
