16
gdb 133727	3.92325	0.64817	0.63568	2.1727	66.71	-0.2599	0.0436	0.3035	1767.8935	0.118992	-532.243359	-532.233649	-532.232705	-532.281286	33.228	
C	 0.0409322034	 1.3231646717	-0.5252415454	-0.366286
C	-0.072984567	 0.2114152972	 0.5336401057	-0.315344
C	-1.3808497965	-0.4345965584	 0.5483314557	 0.116309
C	-2.4655222865	-0.9552093427	 0.5425810508	 0.028405
C	-3.7731032794	-1.5927861293	 0.5399759437	-0.48135
C	-3.8699001857	-2.7573045939	-0.4407605876	 0.284708
F	-2.990820826	-3.7240089951	-0.1546557669	-0.072448
F	-5.0993566199	-3.2965541482	-0.3889944321	-0.077489
F	-3.6516204901	-2.3661864522	-1.7012976095	-0.072959
H	 1.0375283616	 1.7733347126	-0.4977930707	 0.116763
H	-0.1298150292	 0.9229174118	-1.5280820574	 0.13249
H	-0.6975544436	 2.1090013392	-0.345146069	 0.128595
H	 0.6999909214	-0.5470330951	 0.3561608451	 0.135089
H	 0.1358071615	 0.6263040528	 1.528008033	 0.131877
H	-4.0245859222	-1.989743978	 1.5299445105	 0.155993
H	-4.5622107917	-0.8827137224	 0.2680465941	 0.155646
