17
gdb 28338	3.17187	1.37285	0.96958	4.1273	81.7	-0.2226	-0.0466	0.176	1202.5813	0.135392	-421.908836	-421.900334	-421.89939	-421.941904	31.499	
C	 0.0782479857	 1.4955419692	-0.0149080297	-0.470316
C	-0.0752117198	 0.0107152214	 0.005627762	 0.38841
C	-1.2231720404	-0.6806860849	 0.1847664255	-0.24161
C	-1.1757102446	-2.10775444	 0.1737683826	-0.128772
C	-0.0105159558	-2.7807608298	-0.0114245911	 0.083347
C	 0.1160206573	-4.2754735786	-0.0350212666	-0.47238
C	 1.2215836921	-2.0276974625	-0.203661207	 0.379242
O	 2.322273622	-2.4830222324	-0.3781680103	-0.34329
O	 1.0983315639	-0.6305929209	-0.1807999363	-0.253163
H	 0.7713754885	 1.8206155393	 0.7685044402	 0.150918
H	 0.4971960284	 1.8248676767	-0.9719154911	 0.150919
H	-0.8848285979	 1.985515101	 0.1380111993	 0.134728
H	-2.1548181368	-0.1516145457	 0.3328158218	 0.107725
H	-2.0975254633	-2.6649956406	 0.3176290223	 0.109211
H	 0.5341722671	-4.616586016	-0.9881278644	 0.144695
H	 0.8067079353	-4.6208328723	 0.7416997617	 0.144696
H	-0.8544497117	-4.754434504	 0.1166977411	 0.11564
