22
gdb 85420	2.31323	1.40335	1.09982	4.0111	82.18	-0.2334	0.0394	0.2727	1219.4969	0.193849	-404.415833	-404.40629	-404.405346	-404.44947	37.174	
C	-0.8159170783	 1.1251527262	 0.0107851771	-0.416453
C	 0.1208331633	-0.0745103178	-0.1141029845	 0.014961
C	 1.3187105639	 0.1313618776	-1.0563852141	-0.358663
C	 2.3780860817	-0.8489323154	-0.5488376302	 0.400789
O	 3.3967358971	-1.1942741652	-1.1066542926	-0.38385
N	 1.9554141907	-1.2637042316	 0.6867902964	-0.31871
C	 0.77180656	-0.5822960652	 1.2174666352	 0.260764
C	 1.1931472351	 0.5570817325	 2.1643189353	-0.41242
C	-0.1340402249	-1.5737073048	 1.95577076	-0.427052
H	-0.2853316237	 2.0240830897	 0.3397419463	 0.120921
H	-1.2735564904	 1.3501598609	-0.9577630854	 0.120489
H	-1.628631592	 0.9338830272	 0.7197072182	 0.116215
H	-0.4591021223	-0.9208412904	-0.5031256469	 0.082388
H	 1.094641221	-0.0500636757	-2.109424997	 0.12685
H	 1.7291083879	 1.1464894237	-0.9835224599	 0.122473
H	 2.5776165283	-1.801475695	 1.2718221651	 0.241214
H	 1.8089914937	 1.2993040988	 1.6477567737	 0.12088
H	 0.325307427	 1.0673066531	 2.592676535	 0.119766
H	 1.7843497829	 0.1545085807	 2.9936519393	 0.112234
H	 0.3493879224	-1.9502053884	 2.8642569189	 0.112437
H	-1.0696629169	-1.0927654728	 2.258472073	 0.121497
H	-0.3732277165	-2.4283904781	 1.316901077	 0.12327
