20
gdb 15940	3.44972	1.78362	1.46335	1.5729	74.29	-0.2363	0.0727	0.309	956.4982	0.177231	-348.98082	-348.972847	-348.971902	-349.013186	30.303	
C	-0.055793223	 1.524775129	 0.0366863755	-0.382132
C	-0.1398022623	-0.0043428996	-0.0494086408	-0.268387
C	 0.679765262	-0.5564018977	-1.1909390241	 0.482275
C	 0.2364056397	-0.3229907255	-2.6615718675	-0.269957
C	 0.5179068117	-1.8267921539	-2.9742978286	-0.226573
C	 0.9555019258	-2.0618019439	-1.5043746235	-0.14763
C	 2.4197247267	-1.7056682887	-1.2125147062	-0.081155
O	 2.1029898249	-0.3071813339	-1.025678362	-0.333206
H	 0.9844270703	 1.8420439596	 0.1507750346	 0.138419
H	-0.4543324219	 1.9965869898	-0.8678123077	 0.116156
H	-0.6261356323	 1.9030241025	 0.8900186937	 0.110006
H	 0.2172922082	-0.4496190372	 0.8872608674	 0.098105
H	-1.1825506501	-0.3222831017	-0.1769717689	 0.092598
H	-0.8152288179	-0.0423824173	-2.7701570614	 0.097122
H	 0.8541180785	 0.4049261145	-3.1912682703	 0.108648
H	-0.3796322651	-2.3844550292	-3.2511502326	 0.10236
H	 1.2873385515	-2.0264008223	-3.7253834616	 0.099906
H	 0.5135920973	-2.8959220683	-0.9592859763	 0.07096
H	 2.8281626987	-2.1470546353	-0.2938680093	 0.097291
H	 3.1343672074	-1.866034551	-2.0305200405	 0.095195
