14
gdb 85484	2.59381	1.49064	1.10825	5.0511	62.04	-0.3118	-0.0186	0.2932	1064.8781	0.100886	-473.882242	-473.874329	-473.873384	-473.915322	28.153	
C	-0.2182650778	 1.5594150581	-0.0806910055	-0.420865
C	 0.0734592857	 0.0744673951	-0.0520394788	 0.092144
O	 1.0482459597	-0.2673858351	-1.0482832735	-0.247136
C	 1.857085344	-1.2555581815	-0.5993059295	 0.507724
O	 2.6553184383	-1.8464216424	-1.2446379062	-0.350174
O	 1.6183996597	-1.4891238514	 0.7324125614	-0.235696
C	 0.7224355774	-0.5028452125	 1.2374029476	-0.062689
C	 1.4561187026	 0.4872143277	 2.0419030653	 0.29259
N	 2.0074140078	 1.274915122	 2.6814183794	-0.306185
H	 0.688274204	 2.1407334979	 0.1013104449	 0.162422
H	-0.6268831173	 1.834508017	-1.0555923322	 0.149845
H	-0.9567882484	 1.8127038296	 0.6858161984	 0.140784
H	-0.8345416112	-0.502744472	-0.2627227238	 0.11966
H	-0.0144754345	-0.9954648425	 1.8761625925	 0.157576
