14
gdb 45640	5.86584	0.90698	0.79316	1.7676	68.36	-0.2757	-0.0256	0.2502	1341.4636	0.099572	-436.702082	-436.69403	-436.693086	-436.735447	29.081	
O	 0.1751986859	-0.0042959513	 0.0000806159	-0.304727
C	 0.0008851991	 1.1713211353	 0.0092820633	 0.406798
C	-1.2625003661	 2.0240786205	 0.0328111217	-0.315925
N	-0.7997665187	 3.4065056686	 0.0342347787	-0.284688
C	 0.4652827411	 3.3435485042	 0.015529781	 0.44973
C	 1.4659384302	 4.4606814169	 0.0078812133	-0.495458
C	 0.8832482825	 5.7929446241	 0.0221760896	 0.336816
C	 0.4370961776	 6.9064206429	 0.0336007522	-0.429613
O	 1.0519613339	 2.0896285143	-0.0003637979	-0.235283
H	-1.8880662902	 1.8101849338	-0.8404167796	 0.164027
H	-1.8623161412	 1.7997686516	 0.9213603012	 0.164046
H	 2.1306073823	 4.3174412197	 0.8707330141	 0.169444
H	 2.1077171731	 4.3260644536	-0.8734645272	 0.169422
H	 0.0282525806	 7.8864464358	 0.0439861136	 0.205411
