18
gdb 12809	3.50136	2.00705	1.56487	1.2552	72.5	-0.2236	0.0213	0.2449	864.6115	0.155162	-347.80439	-347.797274	-347.79633	-347.835113	28.913	
O	-0.0799139732	 1.3862651665	 0.2072866835	-0.475341
C	 0.0125977933	-0.0005252119	 0.0127541448	 0.37559
C	-0.4961840317	-0.5654462773	-1.3065191751	-0.350577
C	-1.2947168006	-0.7434067791	-0.0338166143	-0.05682
C	-1.3886639114	-2.0661903721	 0.7032559891	-0.220649
C	-0.063894138	-2.8565488393	 0.7186434479	-0.27361
C	 1.1227280604	-1.9755358478	 1.0161427922	-0.072264
C	 1.1442520417	-0.6806979482	 0.6950550623	-0.1105
H	 0.6040953161	 1.8051312842	-0.3267668766	 0.279311
H	-0.8760231506	 0.1537010394	-2.0246128454	 0.109774
H	 0.0276855836	-1.4121037273	-1.7371088645	 0.113612
H	-2.1682354002	-0.1039506832	 0.0478525306	 0.096668
H	-1.6808557698	-1.8523706754	 1.7390249861	 0.106729
H	-2.1830313423	-2.6875660358	 0.2743774767	 0.097964
H	-0.1303758315	-3.6644403438	 1.455766598	 0.102005
H	 0.0804752215	-3.3582020241	-0.248905018	 0.111699
H	 1.9863537765	-2.430253983	 1.4931489276	 0.086372
H	 2.008614416	-0.0617482718	 0.923091675	 0.080036
