15
gdb 36114	3.86154	1.14401	1.04666	5.6685	68.63	-0.2396	0.0155	0.2551	1128.9405	0.111772	-416.708295	-416.700792	-416.699848	-416.740922	28.396	
N	-0.1309984132	-1.109475054	 0.3917379035	-0.295323
C	-0.0865856337	 0.0219064609	 0.163768663	 0.269965
C	-0.0267110234	 1.4571341885	-0.135327037	-0.476705
C	 1.3759155103	 1.9981292202	-0.1538681097	 0.318043
N	 2.1618668583	 2.3223948784	 1.0511805098	-0.334721
C	 1.8747317047	 3.3768854183	 0.0452716022	-0.184632
C	 2.8781190837	 3.1827502358	-1.1503308394	 0.02665
O	 3.7165396494	 2.064221086	-0.8741266589	-0.201063
C	 2.3993551305	 1.8146878327	-1.3465854393	-0.020608
H	-0.5081281339	 1.6231610787	-1.1075426818	 0.161793
H	-0.6289565172	 1.9953194145	 0.6065284813	 0.154949
H	 1.5024085823	 2.4577430238	 1.8189255226	 0.234717
H	 1.337434325	 4.282590238	 0.2939185466	 0.107586
H	 3.2295203146	 3.9358735476	-1.8440773025	 0.11829
H	 2.2692023326	 1.2024176206	-2.2308632605	 0.12106
