19
gdb 71390	3.23139	1.37725	1.31573	1.6214	74.8	-0.243	0.074	0.317	1054.0835	0.158043	-422.974341	-422.966095	-422.965151	-423.006246	33.644	
C	-0.1091210006	 1.4632407393	 0.0193844349	-0.460346
C	 0.0282896924	-0.0558586671	 0.0255682353	 0.443982
O	-1.2333629591	-0.6772061004	 0.2035807391	-0.483188
C	 0.8156512388	-0.6144326068	-1.146267301	-0.184098
C	 2.1246435823	-0.5285688477	-0.3734198001	-0.133415
C	 1.2185907065	-0.5607335918	 0.9189824798	-0.142824
C	 1.1567232189	-2.1081506255	 0.8039484009	-0.303875
C	 1.5448104797	-1.8815427862	-0.6565251199	 0.387365
O	 2.0547309305	-2.803165573	-1.5460713191	-0.467707
H	 0.8558726543	 1.9516961037	-0.1385359022	 0.126669
H	-0.79563477	 1.7834188416	-0.7707487353	 0.121753
H	-0.5071924126	 1.8155029167	 0.9801047803	 0.102309
H	-1.7079816665	-0.2082551841	 0.8982782575	 0.272684
H	 0.6638038838	-0.4450303223	-2.2056251007	 0.080778
H	 3.0676829201	-0.0643769294	-0.6176132123	 0.095615
H	 1.4447564229	-0.0756322245	 1.8672180645	 0.063308
H	 1.9752001099	-2.5838784044	 1.351271982	 0.096469
H	 0.2000948052	-2.585397029	 1.0342780736	 0.098
H	 1.3159650937	-3.2780211092	-1.9432727372	 0.286521
