18
gdb 94485	3.90848	0.76625	0.68513	4.8793	76.68	-0.2416	-0.0175	0.2241	1634.4746	0.145226	-439.08951	-439.079949	-439.079005	-439.125897	32.74	
C	-0.0973500991	 1.560652263	-0.0148886807	-0.404361
C	 0.0131079323	 0.042170726	-0.0678691473	-0.148476
C	 0.8631836084	-0.6068248757	-1.1868825391	-0.090324
O	 1.7444581951	-1.2053457213	-0.1842216945	-0.265026
C	 1.0399184512	-0.6054928861	 0.8410275647	 0.47822
N	 1.2490146336	-0.6124318469	 2.0751161428	-0.355354
C	 2.4022202136	-1.3302235386	 2.5910414508	-0.25182
C	 2.9232078267	-0.6475548414	 3.8465949638	 0.156536
O	 4.0258765175	-0.8170429456	 4.2958938723	-0.242402
H	 0.8824172722	 2.0326929763	-0.1381495618	 0.127234
H	-0.7594151968	 1.9326366512	-0.8029302369	 0.123425
H	-0.5029497746	 1.8764247852	 0.9501064641	 0.144447
H	-0.9720408281	-0.4219884558	 0.0353656064	 0.111924
H	 0.3823985068	-1.3781648964	-1.792411915	 0.124262
H	 1.4169691181	 0.0891121711	-1.8229014469	 0.123452
H	 2.1002572602	-2.3454329558	 2.8944981716	 0.140793
H	 3.224327623	-1.4486604613	 1.8742379539	 0.139785
H	 2.17857149	 0.0220078221	 4.3317746519	 0.087684
