17
gdb 51339	4.75188	1.01271	0.97124	4.3235	73.5	-0.2655	0.0114	0.2769	1225.7717	0.136553	-421.796924	-421.789572	-421.788627	-421.82969	27.915	
O	-0.0964490044	 0.0042628142	 0.0621186757	-0.278871
C	-0.0287546152	 1.1958943419	 0.1084207406	 0.163841
O	 1.0743528586	 1.8815706972	-0.2385278327	-0.202276
C	 1.0466267155	 3.3096144084	-0.1637581066	 0.170265
C	 2.1913213066	 4.0051474689	 0.5402744925	-0.112015
C	 3.3139461222	 4.1956529588	-0.4857341533	-0.061373
C	 2.8606795421	 3.5407937616	-1.79021766	-0.227536
C	 1.447427499	 4.0814478517	-1.4418982877	-0.118216
C	 2.1334285111	 5.132394588	-0.4772284481	-0.085442
H	-0.8568676292	 1.8537591813	 0.4403820512	 0.074182
H	 0.0768363222	 3.6428094813	 0.2223970223	 0.088318
H	 2.3710398653	 4.0783831246	 1.6043392377	 0.095877
H	 4.3224839403	 4.399590129	-0.1508452151	 0.093802
H	 3.2758773119	 4.0612045299	-2.6569168428	 0.10345
H	 2.9685887263	 2.4589056929	-1.9078595542	 0.116734
H	 0.7099700215	 4.2860962297	-2.2142996052	 0.079063
H	 2.0300817561	 6.1981505404	-0.3455558143	 0.100198
