20
gdb 13880	3.88415	1.41853	1.30836	1.5297	76.44	-0.243	0.0162	0.2592	1041.7139	0.177476	-349.020635	-349.012235	-349.011291	-349.053594	31.763	
C	 0.1015946744	 1.5674783172	-0.0530434846	-0.402857
C	 0.0160836118	 0.0426629371	 0.0551120511	 0.127365
O	 0.7418197916	-0.4338634818	 1.1847534085	-0.435413
C	-1.4343434218	-0.4886335674	 0.0544863598	-0.026635
C	-1.5015691883	-2.0433333375	 0.0570384966	-0.236535
C	-2.6236222249	-2.4333726835	 1.0538727054	-0.254968
C	-2.8463171458	-1.1638128749	 1.8374769077	-0.064488
C	-2.2259051701	-0.1172569675	 1.293727896	-0.095745
H	 1.1485739405	 1.8819629078	-0.0606312345	 0.122726
H	-0.375991898	 1.9266008433	-0.971109992	 0.110323
H	-0.3884546772	 2.0568014598	 0.7960319603	 0.109426
H	 0.53336354	-0.3949537956	-0.808276037	 0.08393
H	 0.2012117623	-0.260055303	 1.9649761453	 0.276164
H	-1.9290799758	-0.0743032362	-0.8367511299	 0.072666
H	-1.6673227156	-2.4522452711	-0.9425564751	 0.093847
H	-0.5428620198	-2.4243666199	 0.418781547	 0.122426
H	-3.5491807928	-2.7273134461	 0.5390836436	 0.106212
H	-2.3478414726	-3.2831728592	 1.6889703964	 0.104881
H	-3.4888615281	-1.12173116	 2.7110612272	 0.092854
H	-2.3019456897	 0.9018633686	 1.6584458982	 0.093822
