26
gdb 8946	3.53569	1.03922	0.86478	0.0249	88.94	-0.2931	0.0849	0.378	1473.941	0.244833	-315.487648	-315.47668	-315.475736	-315.52357	40.332	
C	-0.008657159	 1.6415895457	 0.0367253708	-0.391495
C	 0.1605752664	 0.1182322289	-0.0178564496	-0.180341
C	 0.7005567297	-0.5184454546	 1.2798591147	 0.045677
C	-0.2163167748	-0.1758037422	 2.4671596908	-0.399592
C	 0.9053810431	-2.0587253718	 1.1695337351	 0.060024
C	 1.4756037395	-2.5066666438	-0.1864841162	-0.41088
C	 1.8065424558	-2.5809697405	 2.3120554513	-0.171771
C	 1.7066917027	-4.0889349307	 2.5682419415	-0.388317
H	 0.9246888232	 2.1319730788	 0.3374223175	 0.111097
H	-0.2851150422	 2.0343645686	-0.9469943614	 0.10898
H	-0.7865921334	 1.9495802407	 0.7409842298	 0.117535
H	-0.8033232615	-0.3458609359	-0.2720795992	 0.088856
H	 0.8383041767	-0.1166881915	-0.8439959489	 0.096794
H	 1.6899892321	-0.0730669841	 1.4713951977	 0.061758
H	-1.2449706712	-0.4974662956	 2.2616445861	 0.109214
H	 0.1009918481	-0.6637839378	 3.3921337234	 0.112199
H	-0.2388487535	 0.8991641987	 2.664264309	 0.113953
H	-0.0859914012	-2.5244446624	 1.2836567567	 0.060748
H	 1.6885490455	-3.5795729688	-0.1849715294	 0.108902
H	 0.7847744715	-2.31837137	-1.0117095479	 0.114482
H	 2.415584368	-1.9867239711	-0.4092029868	 0.110111
H	 2.8477953677	-2.3154685117	 2.0817370289	 0.089821
H	 1.5667420187	-2.0605498974	 3.2448610321	 0.092822
H	 2.360392884	-4.3893250435	 3.3934748746	 0.109935
H	 0.6831134097	-4.3746926888	 2.835910522	 0.112857
H	 1.9957005044	-4.6794736691	 1.6933513675	 0.116633
