12
gdb 4410	3.90647	2.08377	1.3591	3.7414	61.07	-0.2321	-0.0429	0.1892	820.2504	0.08525	-414.735888	-414.72918	-414.728235	-414.766747	24.728	
N	 0.0425703391	 1.3186714986	-0.0587347865	-0.551936
C	-0.0556238805	-0.0247197398	-0.0231138159	 0.524337
N	-1.2188189879	-0.6144697461	-0.007256191	-0.367849
C	-1.1690940715	-1.976104567	-0.0027846164	 0.020422
C	-0.0278766753	-2.7182573825	-0.0097126319	-0.272681
C	 1.2481342448	-2.0666337726	-0.0196621119	 0.418504
O	 2.3595853617	-2.5075767516	-0.0221224548	-0.331419
O	 1.136642599	-0.6266466326	-0.0256412592	-0.249215
H	 0.9394638484	 1.7555442541	 0.0596603159	 0.281724
H	-0.799849115	 1.8552566454	 0.0512276898	 0.283284
H	-2.1380566408	-2.4686566349	 0.0083145592	 0.122961
H	-0.035229922	-3.7989961911	-0.0047291073	 0.121869
