20
gdb 23021	2.71941	0.9775	0.7697	1.7721	79.3	-0.2371	0.0104	0.2475	1492.9396	0.168307	-440.224813	-440.214351	-440.213407	-440.261488	37.225	
C	 0.5440346097	 1.4360318474	-0.0709667678	-0.46896
C	 0.0358268413	 0.0345176316	 0.1552491727	 0.344007
N	-0.1991548701	-0.4501574996	 1.3154099175	-0.171129
O	 0.107456632	 0.4732187767	 2.330221978	-0.402291
C	-0.2183909609	-0.8148644551	-1.039834155	-0.095884
C	 0.8921743101	-1.6430895019	-1.6695733432	-0.281411
C	-0.3066006962	-2.3227870365	-1.0623391511	-0.037403
C	-0.1524344114	-3.222841155	 0.1468550583	-0.075781
O	 0.2661985912	-4.5316717672	-0.2258410256	-0.423149
H	 1.5407022671	 1.5542873288	 0.3672731898	 0.147771
H	 0.5989238046	 1.6689074465	-1.135756326	 0.119502
H	-0.1026773853	 2.1628677068	 0.4297371365	 0.147394
H	-0.1282094591	-0.0164057083	 3.1250397249	 0.305286
H	-0.8569405965	-0.3108839321	-1.7636505601	 0.095666
H	 1.0106224208	-1.6173704688	-2.7471677775	 0.111026
H	 1.8221690169	-1.7209732365	-1.1155016174	 0.123406
H	-1.0390910989	-2.7012445802	-1.7750003174	 0.075061
H	 0.6172563915	-2.8398225757	 0.8172564385	 0.118538
H	-1.0901999865	-3.2519680768	 0.7202788587	 0.092134
H	-0.4242850402	-4.9167636539	-0.7746206337	 0.276217
