19
gdb 36118	3.8863	1.11286	0.9903	0.5004	85.35	-0.2277	0.0203	0.248	1232.1092	0.15916	-348.719548	-348.711313	-348.710369	-348.752439	32.5	
C	-0.0818925955	-1.1697058601	 0.3777132609	-0.462172
C	-0.0501646716	 0.005638941	 0.1279396464	 0.325935
C	 0.0140575637	 1.4327547879	-0.1820684256	-0.464921
C	 1.4302603782	 1.9853654414	-0.1595049049	 0.366777
C	 2.0113958768	 2.4600186238	 1.1455245902	-0.310053
C	 1.7057911874	 3.468670903	 0.0499489417	-0.14092
C	 2.8511598354	 3.7900676674	-0.8498365965	-0.068919
C	 3.2688461094	 2.7127313967	-1.5189685725	-0.085591
C	 2.4205203586	 1.4939649068	-1.2231423567	-0.323646
H	-0.1179490798	-2.2068286933	 0.6015997744	 0.194136
H	-0.4322489183	 1.6059566919	-1.1710591212	 0.128749
H	-0.6070765136	 1.9869626645	 0.5330753614	 0.125748
H	 1.3520262188	 2.4415603954	 2.008036277	 0.109582
H	 3.0541633153	 2.2568647898	 1.3674385071	 0.110976
H	 0.9087679951	 4.1879253625	 0.2091970538	 0.083427
H	 3.2955688902	 4.7774301292	-0.9038665114	 0.094674
H	 4.1207492646	 2.6796499388	-2.1886027101	 0.092869
H	 3.0164271488	 0.642666775	-0.8723441327	 0.117404
H	 1.8935445363	 1.1451058883	-2.1228815212	 0.105943
