18
gdb 102921	2.59207	0.81587	0.64794	4.6792	74.46	-0.2605	-0.0477	0.2127	1662.9557	0.144435	-439.096766	-439.08643	-439.085485	-439.133678	34.681	
C	-0.1531874966	 1.3745427035	-0.3280185386	-0.246887
O	-0.2945855894	-0.0070745463	-0.050140023	-0.245108
C	 0.578434932	-0.478625826	 0.9527728152	 0.027196
C	 0.0747291005	-1.852489256	 1.4124973768	-0.211871
C	-1.3571338903	-1.7633908735	 1.9753046431	-0.346011
C	-1.8772866446	-3.0676776587	 2.3755045369	 0.257189
N	-2.2751859903	-4.106849941	 2.6869885866	-0.301842
C	 2.0014687383	-0.6320942065	 0.4119465121	 0.132427
O	 2.9864130664	-0.6438263147	 1.1000818383	-0.236281
H	 0.857061898	 1.6247525917	-0.6829021218	 0.120095
H	-0.8717737188	 1.6181371936	-1.1129144603	 0.141319
H	-0.3682272789	 1.9857980583	 0.5606468045	 0.118518
H	 0.6107533404	 0.2111396085	 1.8117352358	 0.093893
H	 0.0889421944	-2.5447174371	 0.5639611778	 0.134827
H	 0.7611593204	-2.2419812807	 2.1691279388	 0.144329
H	-1.3819721239	-1.0954664388	 2.8443831715	 0.151338
H	-2.0177585235	-1.3299513236	 1.2189200635	 0.172251
H	 2.0394424859	-0.7700086726	-0.6934732675	 0.094619
