12
gdb 5285	5.28473	1.64009	1.25165	3.9271	58.02	-0.2596	-0.0424	0.2172	875.0307	0.085248	-414.723191	-414.716218	-414.715274	-414.754885	24.407	
N	-0.1309034447	 1.3272519045	 0.0191233342	-0.543041
C	 0.0448216904	-0.0236871066	 0.0115022256	 0.314768
O	 1.1321973393	-0.5709058842	 0.0021610241	-0.358038
C	-1.2003706724	-0.8163951092	 0.0153745661	 0.257927
C	-1.4298692204	-2.15513997	 0.0111735136	-0.15658
N	-2.7953084357	-2.3896630366	 0.0185481627	-0.254079
C	-3.3187896263	-1.2059471664	 0.0257660724	 0.073068
O	-2.4266500341	-0.1917499794	 0.0258874463	-0.19096
H	 0.6869706897	 1.9128287829	 0.013442752	 0.268579
H	-1.0446001022	 1.7452234772	 0.0224727918	 0.270971
H	-0.7042970321	-2.9514068393	 0.003330009	 0.157629
H	-4.3630869415	-0.9352155929	 0.0331772821	 0.159755
