16
gdb 44822	3.5285	1.18485	0.97972	3.294	75.06	-0.2391	-0.0188	0.2203	1181.0912	0.122648	-400.684734	-400.676356	-400.675412	-400.718144	31.239	
O	-1.2664743574	 0.6631572544	-0.9854583208	-0.31295
C	-0.6208329278	 1.463524452	-0.373748054	 0.395322
C	-0.8830365863	 2.9203425384	 0.1095870811	-0.343761
C	 0.632264926	 3.0077028381	 0.3426402929	-0.103361
N	 0.9263232893	 2.0093297339	 1.3790793291	-0.362076
C	 0.8554967783	 1.5698957466	-0.0540125748	 0.206041
C	 1.9871115041	 0.84332964	-0.7392657725	-0.470695
C	 3.2899807123	 1.4239380978	-0.4362394158	 0.27507
C	 4.3412287536	 1.9316785451	-0.1487986139	-0.432383
H	-1.262261134	 3.5326267837	-0.7131451839	 0.131291
H	-1.5050543598	 3.0467399507	 0.9977206943	 0.135834
H	 1.288346809	 3.8459494667	 0.1507373496	 0.120672
H	 1.9274309314	 2.0686831566	 1.581291857	 0.243112
H	 1.9714754452	-0.2121480865	-0.4364759403	 0.157733
H	 1.8107214964	 0.8490221583	-1.8221780057	 0.153683
H	 5.2854811397	 2.3605019643	 0.0810886275	 0.206471
