21
gdb 73593	2.17998	1.59184	1.27145	0.9316	88.74	-0.2356	0.0498	0.2854	1128.858	0.182739	-349.934157	-349.925312	-349.924368	-349.967123	34.841	
C	 0.1282008659	 1.5508968284	-0.0752486598	-0.479884
C	-0.0231842387	 0.0556769792	 0.0777154066	 0.326165
C	-1.4135436935	-0.5441308353	-0.1140214108	-0.266494
C	-1.4183183256	-1.8988051093	 0.6366384851	-0.228638
C	-0.2720909511	-1.8129667466	 1.67690811	-0.22593
C	 0.6681778111	-0.7379717663	 1.1584605428	-0.083052
C	 1.1730612367	-0.8293510244	-0.2820840091	-0.274394
C	 1.1038073287	-2.0081830075	-1.0937174855	 0.342806
C	 1.0896547864	-2.9839211944	-1.7993079374	-0.460835
H	 1.147869274	 1.8775659606	 0.1523044366	 0.114577
H	-0.1023085978	 1.8719617639	-1.097771703	 0.121961
H	-0.5523034025	 2.0832829795	 0.5999203046	 0.115721
H	-2.1427866439	 0.1475907	 0.32554139	 0.09449
H	-1.6802268106	-0.6592368711	-1.1702246115	 0.103878
H	-2.3835286269	-2.0985901023	 1.1098834583	 0.092265
H	-1.2270810033	-2.7137993641	-0.062058445	 0.124807
H	-0.6531998024	-1.4978784373	 2.6553654426	 0.098132
H	 0.2222537205	-2.7793518504	 1.8210448756	 0.10591
H	 1.3374450027	-0.2525519964	 1.8621068893	 0.081167
H	 2.0839522124	-0.258719975	-0.4499876618	 0.106752
H	 1.0705800179	-3.8458686911	-2.4186911975	 0.190596
