16
gdb 97168	2.24205	1.54902	0.92665	2.5814	85.37	-0.2335	-0.0454	0.1881	1226.1141	0.122947	-400.736315	-400.727515	-400.72657	-400.770925	31.453	
C	-0.0327071235	 1.4272997455	 0.0751629935	-0.339512
N	-0.0126230254	-0.0243153466	 0.0769065175	-0.332605
C	-1.09202463	-0.6690036855	 0.0147122356	 0.375473
O	-2.357358887	-0.125811846	-0.0586875019	-0.258908
C	-3.3319178252	-1.1664337789	-0.1148710698	-0.130017
C	-2.5442691424	-2.4379348855	-0.0688136821	-0.238528
C	-1.2363813367	-2.1463525486	 0.0068740155	 0.09047
C	-0.139266933	-3.0343085167	 0.0707130303	 0.271838
C	 0.7943591738	-3.7910919164	 0.1250433623	-0.402272
H	 0.5644084349	 1.7900677691	-0.7696000685	 0.127182
H	-1.0334043372	 1.8694513053	 0.0150155161	 0.123237
H	 0.4591473406	 1.7907842043	 0.9849855893	 0.127203
H	-4.0232053871	-1.0618548871	 0.7332055175	 0.131887
H	-3.9205800204	-1.0624295415	-1.0372125158	 0.131885
H	-2.9892467568	-3.4225548496	-0.0943053235	 0.126532
H	 1.6267590754	-4.4486114019	 0.173473534	 0.196134
