18
gdb 91837	3.6347	1.18443	1.08912	4.3995	76.42	-0.2854	0.0049	0.2903	1159.9591	0.14826	-401.963813	-401.955714	-401.95477	-401.996297	31.114	
C	 0.7159287514	 1.4528924692	 0.0860679587	-0.397106
C	-0.0937905585	 0.1609195552	-0.0810174365	 0.004455
C	 0.4048253025	-0.7081170749	-1.2741368567	-0.259451
C	 1.2934530673	-1.7650959389	-0.6581150655	-0.0023
O	 2.2604982523	-1.255628309	 0.2676872023	-0.276267
C	 1.0459206594	-1.8087388213	 0.7983160558	 0.293367
C	 0.0020929229	-0.7674312741	 1.1667369927	-0.306651
C	 1.1865066457	-3.0099296329	 1.5863514437	 0.220124
N	 1.2650844538	-3.9636336989	 2.234710207	-0.332338
H	 1.7726208069	 1.2324078849	 0.2557213858	 0.142795
H	 0.6348237181	 2.0802667158	-0.8079030999	 0.11321
H	 0.3460017987	 2.036694683	 0.9355595474	 0.114292
H	-1.1405719345	 0.4334042537	-0.243444157	 0.083794
H	-0.4263814009	-1.2091299349	-1.7837072108	 0.114005
H	 0.9358512499	-0.1131104987	-2.0239005556	 0.120198
H	 1.6077714149	-2.6433962267	-1.2157338346	 0.118314
H	 0.2771435572	-0.221026683	 2.0735107711	 0.126737
H	-0.9455630471	-1.2796669585	 1.3650521021	 0.122821
