20
gdb 15621	2.79121	1.69879	1.15268	1.9544	78.79	-0.2192	0.0273	0.2465	1099.4387	0.176343	-349.021623	-349.012626	-349.011682	-349.055662	32.045	
C	-0.2904657421	 1.6024884454	-0.1219296624	-0.371881
C	 0.0611630257	 0.1092485346	 0.0156881126	-0.296437
C	 0.7789459786	-0.4513660539	-1.1755316044	 0.203048
C	 2.0333788387	-0.8994158039	-1.2792962587	 0.180325
C	 3.1119572958	-0.9823409587	-0.2476459734	-0.500173
C	 2.2756801587	-1.3759564689	-2.6886171449	-0.14016
O	 1.0636726177	-1.1485812496	-3.395091981	-0.263908
C	 0.0933392783	-0.5998080811	-2.5122672957	-0.148702
H	 0.6129440898	 2.2052130342	-0.2569327072	 0.121165
H	-0.9434687334	 1.7846279917	-0.9809547576	 0.122144
H	-0.809274072	 1.9617139597	 0.7721019753	 0.114282
H	 0.6654592476	-0.0369127935	 0.916982429	 0.103377
H	-0.8671142847	-0.457527044	 0.1750052476	 0.1052
H	 3.4629102322	-2.0151356497	-0.1255657572	 0.128122
H	 3.9873062209	-0.3894555076	-0.5425820404	 0.12876
H	 2.7795372415	-0.6233043983	 0.7292174521	 0.127
H	 3.1014177949	-0.8320629957	-3.177599962	 0.096697
H	 2.5394017442	-2.4472377561	-2.7212655424	 0.095391
H	-0.7830723336	-1.2680065891	-2.4498473811	 0.095512
H	-0.2686428688	 0.3597095746	-2.9151470383	 0.100237
