15
gdb 98007	8.34423	0.49053	0.466	2.7647	95.31	-0.2487	-0.0587	0.19	2295.1327	0.109571	-420.611863	-420.601571	-420.600627	-420.65067	33.294	
C	-0.0332102063	 1.3590944255	 0.0739866306	-0.240734
O	 0.0267766955	-0.0724819563	 0.0040162298	-0.214047
C	 0.6117046782	-0.560802992	-1.1062596747	 0.1506
O	 1.0630658762	 0.1186033736	-1.9965805726	-0.352753
C	 0.6278514235	-2.0011851635	-1.0915440937	 0.102537
C	 0.6854795797	-3.2096406299	-1.1640066673	 0.137559
C	 0.7409380858	-4.5628968523	-1.2276465658	-0.244933
C	 0.7909241728	-5.7713518468	-1.2851756425	 0.261343
C	 0.8499486445	-7.2186145942	-1.3535999394	-0.519971
H	 0.9717894289	 1.7880137113	 0.0532791617	 0.144726
H	-0.6048138338	 1.7619876621	-0.7658772429	 0.144725
H	-0.5275951206	 1.585258984	 1.0183276239	 0.136959
H	 1.4354354804	-7.5513295466	-2.2176584773	 0.164298
H	 1.3119259566	-7.6354733736	-0.4517671533	 0.164632
H	-0.1547217611	-7.6468240913	-1.4424542764	 0.165058
