20
gdb 114797	3.5349	1.23664	1.08749	1.0498	80.47	-0.2145	0.0227	0.2373	1187.5383	0.172078	-403.116338	-403.108185	-403.107241	-403.149401	31.024	
C	-0.5765810463	 1.7964195498	 0.0525328881	-0.237927
O	-0.4063343718	 0.5319804805	 0.6537785029	-0.237587
C	-1.2744303896	-0.4416240789	 0.1475098072	 0.136926
C	-0.9512056658	-1.0874501201	-1.2281102136	-0.216213
N	-1.1197825401	-2.4406601904	-0.6295470308	-0.098118
C	 0.0360395323	-3.3422162463	-0.779453502	-0.222122
C	 0.9120934923	-3.0387514078	 0.4181316745	-0.077776
C	 0.3065345483	-2.1987626995	 1.2556993447	-0.058674
C	-1.0679796388	-1.8507339973	 0.7491546369	-0.087344
H	 0.1180513452	 2.4845058626	 0.5399524101	 0.128258
H	-0.3538310183	 1.7740559854	-1.0249166218	 0.109675
H	-1.6033316644	 2.1727089303	 0.1840491489	 0.105942
H	-2.3181595746	-0.1009948829	 0.2162097641	 0.068921
H	-1.6294291718	-0.8833024675	-2.0625760384	 0.098112
H	 0.0808482083	-0.8665089759	-1.5341347895	 0.098999
H	-0.2790402541	-4.3962641518	-0.7913121476	 0.105508
H	 0.5373152413	-3.1558231712	-1.738829598	 0.104682
H	 1.8894108222	-3.4847278161	 0.5644213583	 0.095938
H	 0.6998363961	-1.8360213813	 2.1966992767	 0.104094
H	-1.8590467204	-2.1883177016	 1.4315957395	 0.078707
