18
gdb 98514	2.28915	1.4725	0.96809	1.5789	75.67	-0.2473	-0.0344	0.2129	1225.5586	0.146576	-439.126225	-439.116854	-439.11591	-439.161016	33.444	
C	-0.061752979	 1.4908008837	-0.1728675296	-0.33802
N	-0.149648014	 0.0501791315	-0.3047541927	-0.343064
C	-1.1432953169	-0.6672333565	 0.2644948024	 0.370318
O	-2.0489294969	-0.1866445095	 0.9333815541	-0.407998
C	-1.0900462993	-2.1662907468	 0.0306077837	 0.111131
C	-1.653146778	-3.0169891341	 1.1863250906	-0.281456
C	-2.467335406	-2.8558797494	-0.0316581322	-0.281463
C	-0.0356748155	-2.8297430571	-0.7619019846	 0.116611
O	 0.9023161153	-2.2986922804	-1.3185863618	-0.303611
H	 0.8728430178	 1.7856492238	 0.3172085174	 0.126941
H	-0.1086994994	 1.9800240694	-1.1521721823	 0.12694
H	-0.9039500899	 1.8240738981	 0.4337891868	 0.16715
H	 0.5441032852	-0.4624430389	-0.8362332088	 0.271563
H	-1.1670046351	-3.9670858009	 1.3788372153	 0.126437
H	-1.9263781559	-2.4328733445	 2.0561271199	 0.161681
H	-3.2973797741	-2.1615604927	 0.0051999616	 0.161681
H	-2.5685066095	-3.6897793068	-0.7175552344	 0.126436
H	-0.1613855588	-3.9336448889	-0.8239157656	 0.088723
