20
gdb 106849	2.56048	1.27605	1.00121	1.7252	87.58	-0.237	0.0332	0.2702	1271.6762	0.169698	-365.949101	-365.939855	-365.938911	-365.983204	35.173	
C	 0.2348217932	 1.467012919	 0.2510689757	-0.38085
C	-0.2099232539	 0.0441310454	-0.1154701785	-0.268852
C	 0.4770738312	-0.4716164625	-1.3460998223	 0.279282
C	 0.1760382296	-0.0786921515	-2.8040134668	-0.291886
C	 0.5176057375	-1.5367323416	-3.2491454525	-0.293775
C	 0.8149536785	-1.8926405433	-1.778865641	 0.090458
N	 1.8346931577	-0.9871190386	-1.2284810506	-0.386852
C	 0.5708438386	-3.1517123847	-1.1573826777	 0.249957
C	 0.3302208911	-4.2226871824	-0.6642438747	-0.411031
H	 1.3128223195	 1.496801927	 0.4369492938	 0.129528
H	 0.0109902379	 2.1765409394	-0.553045808	 0.11378
H	-0.2753382475	 1.8161011146	 1.1536788258	 0.11439
H	 0.0098724502	-0.6393970737	 0.7111974891	 0.118929
H	-1.2954304846	 0.0199605992	-0.2732494897	 0.097319
H	-0.8742063793	 0.1700922719	-2.9753493404	 0.11035
H	 0.7961463638	 0.726865927	-3.2112350111	 0.099069
H	-0.3499210565	-2.0667624016	-3.6464481538	 0.119156
H	 1.3589319207	-1.6712774084	-3.9369216758	 0.100213
H	 2.4639041163	-0.6427801019	-1.9531056331	 0.223698
H	 0.1313881559	-5.1657161834	-0.2189698685	 0.187118
