21
gdb 108305	3.07718	1.20693	1.02625	2.4887	78.46	-0.239	0.06	0.299	1243.8033	0.181878	-424.188601	-424.179389	-424.178445	-424.222801	34.417	
C	 0.328822485	 1.6550511419	 0.0801481379	-0.406134
C	 0.0335899251	 0.164279638	 0.039336461	 0.025386
C	 0.8057188167	-0.7315373845	-0.9858331917	-0.308241
C	 1.2289375391	-1.6954614196	 0.1624316583	 0.345127
C	 0.8968664876	-3.1570582603	 0.0352263982	-0.20574
O	 1.7413359704	-3.6964920735	-0.9746895104	-0.424152
C	 2.5554639744	-1.2905386817	 0.8260646625	-0.114786
O	 1.8922336415	-0.3047447838	 1.6556579147	-0.29484
C	 0.5892928995	-0.7143730394	 1.189422778	 0.034454
H	 1.3909293314	 1.8274101527	 0.2745732045	 0.130126
H	 0.0675707353	 2.1319165761	-0.8706120511	 0.110222
H	-0.2407683152	 2.1526009758	 0.8728639955	 0.112763
H	-1.0454487066	-0.0077022942	-0.0511411374	 0.068212
H	 0.1783399701	-1.1948948928	-1.7506570023	 0.1032
H	 1.6448116996	-0.2394850507	-1.4855272786	 0.100318
H	 1.0573980659	-3.6622495286	 1.0019984004	 0.086733
H	-0.1671168956	-3.2789073782	-0.2271521916	 0.084642
H	 1.5375366192	-4.6313363452	-1.072553294	 0.289591
H	 3.014550838	-2.0790274378	 1.4376940859	 0.096453
H	 3.3205374088	-0.8465879079	 0.1786451271	 0.103151
H	-0.0741201703	-0.9919713261	 2.0154388032	 0.063517
