19
gdb 106608	2.52841	1.59411	1.32459	2.4524	74.89	-0.219	-0.0063	0.2128	1052.8829	0.159702	-423.020258	-423.011981	-423.011037	-423.053138	31.501	
C	 0.0906596727	 1.3769518876	 0.1463782813	-0.272976
O	-0.1048207643	-0.0119927887	-0.0883406212	-0.302487
C	 0.6072940745	-0.5196902551	-1.1552803993	 0.338972
C	 0.7052741834	-2.069341272	-1.3242424173	-0.297943
C	 1.9509452415	-1.7437161485	-2.214011006	-0.14674
C	 1.2953262577	-0.9783046945	-3.3891813236	-0.223659
C	 0.2915674694	-0.0630472693	-2.6043781765	-0.288672
C	 2.1586586025	-0.6005015608	-1.2061919101	 0.376592
O	 3.0700199944	-0.1266321964	-0.5924499395	-0.335329
H	 1.1530819874	 1.6130942288	 0.2734053519	 0.14287
H	-0.3208109091	 1.9896387027	-0.6677025652	 0.110148
H	-0.4449590876	 1.6143374238	 1.0676785042	 0.130741
H	 0.951768458	-2.5746983919	-0.3894964475	 0.124549
H	-0.1367696315	-2.5517713365	-1.8259944698	 0.108689
H	 2.7232259207	-2.4762468379	-2.4326642863	 0.088849
H	 2.0230345305	-0.4048480971	-3.968750434	 0.114117
H	 0.7830298396	-1.6614783354	-4.071605002	 0.110636
H	-0.7534754074	-0.2616052417	-2.8571499241	 0.110983
H	 0.4842704976	 1.0009124327	-2.762043155	 0.110661
