16
gdb 4820	7.03696	1.29134	1.10631	2.8399	68.74	-0.1917	0.0328	0.2245	1065.7767	0.131312	-379.948782	-379.940768	-379.939824	-379.981531	28.141	
C	 0.002834624	 1.4088007025	 0.0435945086	-0.231184
O	 0.0469269172	-0.0114654777	-0.0223346802	-0.274449
C	 0.6364591751	-0.6283259929	 1.0209386277	 0.380425
C	 0.78518526	-1.9890841872	 1.1578387508	-0.259825
N	 1.4384727506	-2.1490316508	 2.3689083295	 0.024499
C	 1.8296041052	-3.4048348674	 2.9714160802	-0.335003
C	 1.6392783025	-0.9085059577	 2.8760740096	 0.00049
N	 1.166304563	 0.0388639898	 2.0864592581	-0.363556
H	 1.0094762973	 1.837341506	 0.0901418111	 0.128086
H	-0.4994875902	 1.7330887088	-0.8695467461	 0.120444
H	-0.5569373748	 1.7501332728	 0.9207288111	 0.127972
H	 0.5011090097	-2.8205123265	 0.5374235439	 0.124296
H	 2.5243155933	-3.9494637278	 2.3240834349	 0.144157
H	 2.3250844542	-3.202109962	 3.9228780869	 0.143864
H	 0.9560577758	-4.0371722684	 3.1594697005	 0.144144
H	 2.134430057	-0.7516406516	 3.8229850132	 0.125639
