15
gdb 92868	2.21041	1.79851	1.24943	4.3911	69.	-0.2352	-0.0895	0.1457	1007.8014	0.112372	-457.793429	-457.785418	-457.784474	-457.826394	29.505	
O	-0.0292374698	 1.4218229039	-0.0290019335	-0.428602
C	-0.0008262522	-0.0054873202	 0.0179668015	 0.004991
C	-1.4555087107	-0.4759539087	 0.0079950807	-0.28617
C	-2.1121697033	-0.3391189742	-1.336931369	-0.042554
C	-1.4514319292	-0.2180416659	-2.496639655	-0.142385
C	 0.0183719263	-0.2301540915	-2.5702697075	 0.306665
O	 0.6446744834	-0.111594142	-3.5994852686	-0.304763
C	 0.755424756	-0.4703847918	-1.2265584604	 0.270471
O	 1.8659949473	-0.9350033412	-1.1929856997	-0.28538
H	 0.8791292478	 1.7406477588	 0.0200792352	 0.301274
H	 0.5247299143	-0.367872919	 0.910387385	 0.094463
H	-1.5064387091	-1.52457361	 0.3319923305	 0.138065
H	-2.0086851579	 0.1022646173	 0.7566929967	 0.136327
H	-3.19976805	-0.3500885002	-1.3443852804	 0.11924
H	-1.9719181728	-0.1213211954	-3.4444152656	 0.118357
