22
gdb 120882	4.79744	0.80022	0.75874	1.5762	84.19	-0.221	0.0808	0.3017	1604.184	0.19335	-404.296881	-404.287212	-404.286268	-404.331706	35.705	
C	-0.0498111727	 1.3880570941	 0.1008047661	-0.222101
O	-0.0393405467	-0.0172573699	 0.112168661	-0.23611
C	-1.317972514	-0.5779940242	-0.1170172183	-0.067605
C	-1.1963300429	-2.0857146897	-0.0269524046	 0.006418
C	-0.8980739414	-2.727027438	 1.3764659174	-0.277144
C	-2.1971199756	-3.5399368354	 1.2439702433	 0.353345
C	-2.4553641057	-4.9195569782	 1.7637250347	-0.506666
N	-3.2779962473	-2.5267917751	 1.1374213869	-0.368306
C	-2.4933673539	-2.9046511057	-0.0721194744	-0.139354
H	 0.9712659168	 1.7273453408	 0.2941091287	 0.122003
H	-0.3772827889	 1.7887111182	-0.8726384764	 0.098662
H	-0.7141528733	 1.8004006184	 0.8772501066	 0.102328
H	-2.0425317746	-0.2165803108	 0.6278030539	 0.106607
H	-1.6920369148	-0.2825860531	-1.1140611251	 0.074358
H	-0.4774250666	-2.4405405873	-0.7706956889	 0.078117
H	 0.0026493787	-3.3446540604	 1.3690834664	 0.099616
H	-0.8620863661	-2.0382851489	 2.223767713	 0.104871
H	-2.5698577466	-4.9173933435	 2.8544588581	 0.128038
H	-3.3708446058	-5.3401609976	 1.3323670405	 0.114465
H	-1.6279267447	-5.5941784734	 1.518480885	 0.124176
H	-4.1587144016	-3.0394039973	 1.0815498517	 0.220129
H	-2.9952713623	-3.3054781728	-0.9457884157	 0.08415
