17
gdb 2207	4.3537	2.20686	1.74074	1.1573	59.9	-0.2467	0.0564	0.3031	765.9355	0.14793	-346.841762	-346.834126	-346.833182	-346.873175	28.492	
C	 0.1072075934	 1.5742586515	-0.063905758	-0.402964
C	 0.0830647534	 0.0554899102	 0.0180089941	 0.029698
C	 0.9834976937	-0.772829729	-0.9452915209	-0.28466
C	 1.2909421494	-1.7395080085	 0.2326962078	 0.148987
O	 2.6034380809	-2.1901035208	 0.4303843544	-0.441735
C	 0.7763784672	-0.6419967712	 1.219423757	 0.050931
O	 1.8643693479	 0.1477819801	 1.6884361253	-0.435775
H	 1.1249801934	 1.9550313012	 0.0529804547	 0.12943
H	-0.2780658556	 1.9133616823	-1.0315202737	 0.111194
H	-0.5100351069	 2.0268838357	 0.7196027667	 0.11287
H	-0.9496168039	-0.306167102	-0.037549929	 0.074036
H	 0.5279004837	-1.1926922893	-1.8449586085	 0.097317
H	 1.8806332949	-0.2150048642	-1.2326845686	 0.100255
H	 0.6459769414	-2.6225521105	 0.2233306755	 0.086212
H	 3.1263583043	-1.3928719396	 0.5862053713	 0.274272
H	 0.1393720653	-0.9567654717	 2.0550576511	 0.058683
H	 2.2425045775	-0.308035254	 2.4472373607	 0.291249
