14
gdb 37542	4.24503	1.74759	1.49843	2.3259	64.51	-0.2473	-0.0073	0.24	836.2242	0.102026	-436.553919	-436.548223	-436.547279	-436.583806	23.583	
O	-0.0881398843	 1.5261206603	-0.0604704489	-0.303731
C	 1.3362968251	 1.2286249116	-0.0332362043	 0.048676
C	 1.2315878266	 0.0966968065	 1.0113686476	-0.156685
C	-0.044723815	 0.0892954351	 0.0258439147	-0.029651
C	 1.2108872089	-0.0997788326	-0.9002168547	 0.346688
N	 1.8520186838	-0.2764207824	-2.179950677	-0.368087
C	 3.0185595978	-0.6417556517	-1.7904516397	 0.0919
O	 3.280197811	-0.8654941865	-0.4545084886	-0.254435
C	 1.9408518417	-0.9298726168	 0.1147232093	 0.055687
H	 2.0479524279	 2.0467513617	-0.1172565148	 0.113291
H	 1.1903704237	 0.1981658137	 2.0942823952	 0.100638
H	-0.973175465	-0.4742758467	 0.1018268134	 0.112899
H	 3.8769042222	-0.7852475297	-2.4370467297	 0.146803
H	 1.6816099355	-1.9823598725	 0.2582480675	 0.096008
