14
gdb 112408	2.35607	1.49567	0.96244	1.4284	59.85	-0.2925	-0.0232	0.2693	1140.2724	0.101033	-511.013085	-511.005196	-511.004252	-511.04631	28.295	
O	 0.068266616	 1.4117209992	-0.0539630004	-0.410531
C	 0.0636792495	 0.0099922295	 0.0602977272	-0.069858
C	-1.3610945638	-0.5451731041	 0.0781141043	-0.012222
O	-2.0103698246	-0.2544645655	-1.1759323139	-0.259411
C	-2.4035404548	-1.3950548543	-1.7797134415	 0.502708
O	-2.9529563383	-1.4786151672	-2.8247661951	-0.345157
O	-2.06796502	-2.4796164566	-0.991743666	-0.231275
C	-1.4330411799	-2.0497446951	 0.155533102	 0.390236
N	-0.9824922535	-2.7726913387	 1.073960317	-0.517437
H	-0.3226297688	 1.6387850324	-0.9052249519	 0.300006
H	 0.6291180845	-0.4788356732	-0.7478850283	 0.106038
H	 0.5406869365	-0.2475732865	 1.0096875777	 0.150212
H	-1.9350852104	-0.0669085714	 0.8769674381	 0.14766
H	-1.1392129424	-3.7648849484	 0.8944749507	 0.249032
