24
gdb 80392	2.13979	1.5558	1.30118	1.6585	89.02	-0.2176	0.0764	0.294	1178.4798	0.215811	-368.381197	-368.371112	-368.370168	-368.415053	39.239	
C	-0.1657473875	 1.5392913048	-0.1558428712	-0.433276
C	 0.0339030478	 0.0628208603	 0.1106953365	-0.018781
N	 1.2342725993	-0.7195169598	-0.2652178301	-0.193635
C	 2.4281525083	 0.108398345	 0.1317133681	-0.219465
C	 2.0732302842	 0.0384955251	 1.6463323561	 0.268021
C	 3.0116149072	-0.9443563114	 2.3589764981	-0.437715
C	 1.9744819685	 1.3234173396	 2.4723015618	-0.463443
C	 0.7605118998	-0.6470849899	 1.1949411447	 0.285612
C	 0.1303158242	-1.8179961138	 1.9013838356	-0.494655
H	 0.7072576253	 2.1583702704	 0.0469587205	 0.12454
H	-0.4350187277	 1.6850279575	-1.2080683234	 0.122984
H	-0.992961184	 1.9214644094	 0.4521829798	 0.121615
H	-0.8482263511	-0.5002243445	-0.1962091919	 0.087145
H	 3.3464920915	-0.4244284806	-0.1257392277	 0.10205
H	 2.4669323186	 1.0993056295	-0.3305142788	 0.095521
H	 4.0087192732	-0.501061212	 2.4591431861	 0.111166
H	 2.6539333192	-1.185752561	 3.3661012173	 0.111185
H	 3.1157788873	-1.8798859611	 1.8015041932	 0.124654
H	 1.3084798923	 2.0664354529	 2.0318321393	 0.116283
H	 1.6014491899	 1.1029219285	 3.4794632092	 0.11308
H	 2.962758994	 1.7843712443	 2.5863870723	 0.111935
H	-0.4046607544	-1.4864511497	 2.7999239175	 0.117322
H	-0.5917975599	-2.3159206759	 1.2479986076	 0.12604
H	 0.8710493138	-2.5616134575	 2.2085874992	 0.121815
