14
gdb 132445	3.2454	1.3485	0.95351	2.3725	70.6	-0.1899	-0.0218	0.1681	1114.064	0.102368	-478.043099	-478.035709	-478.034765	-478.074755	28.983	
N	 0.0049475136	 1.3965394815	 0.1463555462	-0.581077
C	-0.0664805179	 0.0179598	 0.0497682393	 0.171751
C	-1.212922059	-0.7298588098	 0.0243220387	-0.160712
C	-1.1846389363	-2.1568596818	-0.0148311161	-0.329654
C	 0.0234295158	-2.7577770994	-0.0266033506	 0.388746
F	 0.2136274845	-4.0716667558	-0.0577176542	-0.062087
N	 1.1775722697	-2.0315288834	-0.0095948785	-0.438768
C	 1.241289369	-0.6391335748	 0.0162276437	 0.418842
O	 2.3141336839	-0.0480729091	 0.0012595128	-0.410831
H	 0.9242293647	 1.7463563174	-0.0920140683	 0.265069
H	-0.7559138312	 1.9184959082	-0.2596752665	 0.248209
H	-2.1773110521	-0.2319804583	 0.0400210588	 0.100413
H	-2.087927466	-2.7488650484	-0.0300181986	 0.119059
H	 2.0651280414	-2.5151328363	-0.0383399566	 0.27104
