19
gdb 111517	2.88866	1.42673	1.19784	3.0575	69.64	-0.2551	0.0758	0.3309	1078.1847	0.160933	-460.151618	-460.143718	-460.142774	-460.183878	31.386	
O	 0.1125324455	 1.3379125405	 0.2258844641	-0.428022
C	 0.0171670937	-0.0315598833	-0.1120149711	-0.074332
C	-1.4256733259	-0.5581955342	-0.0323607255	-0.064855
C	-1.5286509289	-2.0724912598	-0.0089423553	 0.02626
O	-1.1926884457	-2.626751124	 1.2854201624	-0.278448
C	-2.5831699793	-2.4807614345	 0.9265677086	 0.044392
C	-3.2167482644	-1.2426377319	 1.5246351459	-0.269723
C	-2.1632740674	-0.1353010567	 1.27725165	 0.091979
O	-1.2636291554	-0.0068304378	 2.3762135084	-0.445656
H	-0.0855616984	 1.3768873409	 1.1709959943	 0.293479
H	 0.3936486166	-0.1323654562	-1.1355962107	 0.104691
H	 0.6621480665	-0.6477823309	 0.5312984982	 0.092465
H	-1.9973767547	-0.1816149922	-0.8908508562	 0.084298
H	-1.2220761226	-2.6806925389	-0.856035594	 0.102159
H	-3.1305183231	-3.4144671163	 0.8300478851	 0.101823
H	-4.1542116694	-1.0252385362	 0.9985471675	 0.110236
H	-3.4412562082	-1.3348938503	 2.59100569	 0.120698
H	-2.6250847618	 0.8469629042	 1.1687002637	 0.097061
H	-0.868845327	-0.8828163224	 2.4908342845	 0.291496
