16
gdb 26764	3.50008	1.12911	0.86286	6.0417	82.98	-0.2323	-0.0346	0.1976	1296.7003	0.124735	-397.000414	-396.991469	-396.990524	-397.034853	31.399	
C	 0.2023829099	 1.5089089243	 0.1333360958	-0.514343
C	 0.0748502383	 0.0313638318	-0.0233609027	 0.24378
C	-0.0677516894	-0.7881514351	-1.1310112959	 0.201315
C	-0.1394876961	-0.4069059226	-2.5748337103	-0.497578
N	-0.1442086481	-2.1015305408	-0.7467027327	-0.336583
C	-0.0511512601	-2.0962421967	 0.5688392283	 0.234187
N	 0.0833579125	-0.8219314011	 1.052591158	-0.341037
C	-0.0795554585	-3.2239354682	 1.427800465	 0.231976
N	-0.0979788899	-4.1166877274	 2.1654923667	-0.340399
H	 1.1478570459	 1.7886639585	 0.6129367655	 0.141323
H	 0.1715504417	 1.9953731184	-0.8431042835	 0.150253
H	-0.6112968201	 1.927279485	 0.7375548053	 0.141311
H	-0.0630306575	 0.6745772635	-2.7112947356	 0.119505
H	 0.6687153816	-0.879314127	-3.1423695405	 0.143627
H	-1.0832929863	-0.7398176975	-3.0185436601	 0.143607
H	 0.1719685862	-0.5640202751	 2.0224092567	 0.279054
