20
gdb 95863	3.00715	1.17393	0.8891	1.5134	82.87	-0.22	0.0372	0.2572	1323.2798	0.170763	-403.102339	-403.093509	-403.092565	-403.135545	33.971	
C	-0.0170474836	 1.4630471348	-0.0105824672	-0.315787
N	-0.0132350495	 0.0110743319	 0.0214161118	-0.077335
C	-1.3552943532	-0.5509607225	-0.0805612203	-0.146255
C	-1.2703776119	-2.0735068571	-0.1123136706	-0.077648
O	-0.6008290733	-2.577846537	 1.0327745482	-0.258317
C	 0.7167538719	-2.0457175829	 1.1293984104	-0.076013
C	 0.6734322762	-0.5090551487	 1.1965244002	-0.155629
C	 1.3694422973	-2.6150707102	 2.3030769798	 0.303515
C	 1.9342864242	-3.0507617524	 3.2691301089	-0.415095
H	 1.0116675676	 1.8366674111	 0.0134521719	 0.11883
H	-0.4845653945	 1.8101584604	-0.9376622549	 0.118167
H	-0.5644269588	 1.9163460763	 0.8378456128	 0.094881
H	-1.9976908301	-0.2400670015	 0.7669298349	 0.083466
H	-1.8245465512	-0.1894386642	-1.0029264794	 0.099745
H	-2.268229633	-2.5200057012	-0.1047953126	 0.109604
H	-0.7473363298	-2.3914374609	-1.0287081017	 0.094525
H	 1.2845682447	-2.3246577577	 0.2248843798	 0.099879
H	 1.6964962707	-0.1196634019	 1.2191373654	 0.110803
H	 0.1779865942	-0.2157230355	 2.1416875715	 0.092043
H	 2.4280590421	-3.4483820009	 4.1211638611	 0.196623
