20
gdb 68293	2.75021	1.47922	1.3491	2.7038	78.63	-0.2351	0.0697	0.3048	1062.833	0.171055	-403.049452	-403.041366	-403.040422	-403.081956	31.509	
C	-0.0392068516	 1.5269909012	 0.0364790032	-0.521119
C	 0.0204498659	 0.0205155517	 0.0237974312	 0.226144
C	 0.5815051631	-0.9405735413	-1.0549025931	-0.213377
N	 0.0775887223	-1.9337268145	 0.008604541	-0.181115
C	 0.7088007721	-0.9529394185	 1.0140647686	-0.213376
C	-1.1341481249	-1.004903869	 0.0887104513	 0.324754
C	-2.184991396	-1.1592346269	 1.1956071647	-0.177449
O	-3.2435997828	-1.213341211	 0.2172792808	-0.277789
C	-2.3128885765	-1.1468605984	-0.8827508717	-0.177448
H	 0.9650362075	 1.9600658931	-0.021457843	 0.124642
H	-0.6173818012	 1.9054139059	-0.8135401724	 0.125141
H	-0.5107825323	 1.8947444726	 0.9543040549	 0.125144
H	 0.057656676	-1.0149183489	-2.0120332191	 0.104021
H	 1.6655005023	-0.9737059142	-1.197008928	 0.099972
H	 1.8020177685	-0.9869399329	 1.0217966006	 0.099971
H	 0.3061976685	-1.0390818205	 2.0272437584	 0.104022
H	-2.1060920639	-2.0887502103	 1.7742929054	 0.112776
H	-2.3029365487	-0.3118101734	 1.883606066	 0.101156
H	-2.5136860351	-0.2914276832	-1.5410004864	 0.101157
H	-2.3062099333	-2.0693946615	-1.4777191622	 0.112775
