18
gdb 97889	5.71107	0.55133	0.52232	2.0348	78.97	-0.2574	0.0254	0.2827	2083.0023	0.145067	-439.051583	-439.040906	-439.039962	-439.089512	35.851	
C	 0.1371446473	 1.3111345473	 0.2420480476	-0.22563
O	-0.0794916213	-0.0488287989	-0.1381696537	-0.234058
C	-1.3354334259	-0.5120530997	 0.0152436369	 0.416936
N	-2.2736644694	 0.2087782419	 0.4611282432	-0.529068
C	-1.3732337929	-1.9727529997	-0.4251116539	-0.465193
C	-2.6910761424	-2.5820025547	-0.3477933874	 0.032498
C	-3.7865062295	-3.0752169689	-0.2752638281	 0.147804
C	-5.1098411607	-3.6836050999	-0.216742878	-0.216413
O	-5.3939960573	-4.0824514939	 1.1180098931	-0.407737
H	 1.1942324991	 1.5055635645	 0.0558189331	 0.125184
H	-0.4887087408	 1.9833940433	-0.3512413769	 0.137792
H	-0.1022252191	 1.4603833941	 1.2984378748	 0.13875
H	-3.1373469923	-0.3304704912	 0.5024952716	 0.23294
H	-0.9825335427	-2.0267428565	-1.4490654332	 0.156412
H	-0.6545049259	-2.5291662116	 0.1899146729	 0.159743
H	-5.8544223255	-2.9591786864	-0.5849804958	 0.119398
H	-5.1363747847	-4.5435227266	-0.9060353495	 0.119397
H	-6.2765131262	-4.4671275329	 1.1210068634	 0.291246
