17
gdb 40488	3.83888	1.36249	1.23172	2.5298	72.32	-0.2366	0.0694	0.3061	1040.2398	0.135573	-421.701881	-421.694788	-421.693844	-421.733863	27.73	
O	-0.3931713078	 1.2103517683	-0.1528717126	-0.228028
C	 0.9673786884	 1.2552050541	 0.2829371295	-0.171601
C	 0.2592793095	-0.0242280479	 0.1491805815	-0.123054
C	-0.2248405747	-0.7540953287	 1.3459469315	 0.514854
O	-0.2369875102	-0.0832458018	 2.6426245933	-0.356808
C	-0.7450027769	-1.4234900575	 2.9135980661	 0.07949
C	-1.5683439204	-1.5285647492	 1.5955663885	-0.130171
C	-0.9344798127	-2.8878009784	 1.2293469248	-0.283706
C	 0.2247018666	-2.1416290177	 1.9246734135	-0.141795
H	 1.6943586868	 1.5467238757	-0.4736289268	 0.115551
H	 1.1208440255	 1.6632703411	 1.2790345758	 0.139236
H	 0.4628561667	-0.6558210181	-0.7166941004	 0.100184
H	-1.019835862	-1.6801389537	 3.9356211117	 0.099013
H	-2.5725677377	-1.1450778141	 1.4201135347	 0.094171
H	-1.3287266294	-3.7640739842	 1.7507175697	 0.102972
H	-0.8139161742	-3.1039239315	 0.1644747674	 0.103993
H	 1.2479545223	-2.4575591562	 2.1281453717	 0.085699
