17
gdb 74086	3.04737	1.39495	1.03464	5.5684	79.22	-0.2261	-0.0178	0.2083	1134.9921	0.137765	-418.033374	-418.025309	-418.024365	-418.065831	31.193	
N	 0.0505262979	 1.3283747508	 0.0990864835	-0.576831
C	-0.0196702918	-0.0228494298	 0.0301160299	 0.387427
C	-1.1347916724	-0.8043446852	 0.0290640141	-0.339349
C	-0.7633244389	-2.2057601493	-0.0181230142	 0.359214
O	-1.466228299	-3.1978387051	-0.1075685248	-0.394532
C	 0.7536177322	-2.2630975243	 0.0222004629	 0.241142
C	 1.3918898295	-3.4006971785	 0.7338988553	-0.27662
N	 1.4192128732	-3.3321733794	-0.7307615901	-0.359409
C	 1.260302789	-0.8325757515	-0.0179886445	-0.413112
H	 0.9174983205	 1.7920778997	-0.1129992481	 0.265518
H	-0.7856619132	 1.8786249921	-0.0064906442	 0.266593
H	-2.1591306781	-0.4560384265	 0.0377114152	 0.096192
H	 2.3525461734	-3.2539129778	 1.2209106784	 0.112371
H	 0.724715257	-4.118005541	 1.204338916	 0.130549
H	 0.6820190814	-3.9407531386	-1.091086145	 0.243108
H	 1.8177102834	-0.6322521669	-0.9409925874	 0.134113
H	 1.9162301358	-0.5770615986	 0.8226422029	 0.123627
