20
gdb 89661	2.97018	1.26913	1.05568	1.5409	88.32	-0.2167	0.0327	0.2494	1220.082	0.169084	-365.951078	-365.941681	-365.940737	-365.984633	36.111	
C	-0.0850318118	 1.5777597963	 0.0704319097	-0.41272
C	 0.0368045908	 0.0636090358	-0.0256991304	-0.00426
C	 1.1328269658	-0.5472204969	-0.9726838236	-0.308967
C	 1.7111436104	-1.2978012301	 0.2359354284	 0.184231
N	 2.0825406086	-0.2264493201	 1.2172921453	-0.406836
C	 0.6835307807	-0.6898744573	 1.1567592417	 0.256792
C	-0.0148960286	-1.2627576382	 2.3499084362	-0.506027
C	 2.3208074837	-2.579178405	 0.2708177479	 0.151708
C	 2.8276900029	-3.6718631669	 0.2868035245	-0.406194
H	 0.8766268545	 2.0203010926	 0.3430872522	 0.138292
H	-0.4031906334	 2.005961678	-0.8862271706	 0.112199
H	-0.8240276508	 1.8698927533	 0.8250654248	 0.10914
H	-0.9347640139	-0.3868897987	-0.2539806671	 0.073081
H	 0.7200880628	-1.2091605596	-1.7356400541	 0.110825
H	 1.8251479481	 0.1632069164	-1.4308048211	 0.108073
H	 2.5233759697	-0.6961522528	 2.0089325835	 0.229889
H	-0.2649160717	-0.4797164677	 3.075604247	 0.130262
H	-0.9467615106	-1.7578521061	 2.0576076125	 0.127459
H	 0.6162820484	-2.0030702379	 2.8530285341	 0.127753
H	 3.2783408546	-4.6330878851	 0.3006372891	 0.185301
