20
gdb 60076	2.31771	1.30981	0.93329	3.6954	80.5	-0.272	0.0201	0.2921	1311.5418	0.168179	-403.147608	-403.137608	-403.136664	-403.183573	36.49	
C	-0.0801555011	 1.3508955954	 0.4998765834	-0.396048
C	-0.0454999682	-0.075561476	-0.0460755326	 0.11821
C	-1.4165557035	-0.5562480909	-0.5076595351	-0.385103
O	 0.8222664381	-0.1583189259	-1.2011354596	-0.293487
C	 2.1330669875	-0.5424080153	-0.9696389739	 0.287231
C	 2.4293997206	-2.0091315666	-0.6882171202	-0.311411
C	 2.7464449193	-1.4201164312	-2.0350737386	-0.30328
C	 2.9958172248	 0.4424730302	-0.342508194	 0.25109
N	 3.68368468	 1.2241161231	 0.1620695212	-0.362218
H	 0.9080014398	 1.680690272	 0.8272688969	 0.147894
H	-0.4362969367	 2.0405589436	-0.2717350873	 0.125638
H	-0.7605084425	 1.4096609195	 1.3556246074	 0.114915
H	 0.3413796731	-0.757505037	 0.7235107103	 0.082005
H	-1.7865962532	 0.0797128079	-1.3179707136	 0.129681
H	-1.3668362998	-1.5846641213	-0.8757665582	 0.11581
H	-2.1344790456	-0.5154278615	 0.3168168205	 0.118826
H	 3.2448490018	-2.2491037699	-0.0164020772	 0.141041
H	 1.5586132806	-2.6494738925	-0.610770334	 0.135428
H	 2.0829755079	-1.6535108132	-2.8590921892	 0.142182
H	 3.7822319971	-1.2484299103	-2.3010411563	 0.141595
