25
gdb 58582	2.68311	1.17294	1.05639	1.5041	87.43	-0.2445	0.0728	0.3174	1317.9499	0.228808	-389.505806	-389.495645	-389.494701	-389.540725	38.803	
C	 0.8414790868	-0.6121934212	-1.1823223618	-0.401849
C	-0.0107036971	-0.0174566192	-0.050666616	-0.013171
C	 0.0918800668	 1.5167664548	-0.0613430316	-0.407089
C	-1.4736544603	-0.5328985945	-0.0551339127	 0.339405
C	-2.2365060656	-0.1920573061	-1.3485362464	-0.448941
C	-1.5545463985	-2.0675429337	 0.2146800738	-0.291924
C	-2.7246601515	-2.2282505707	 1.2171949136	-0.079151
O	-3.3150678851	-0.942279735	 1.3659515883	-0.25025
C	-2.2799325268	 0.0000628274	 1.1531416041	-0.127428
H	 1.890403208	-0.3207513092	-1.064067387	 0.110471
H	 0.8004387262	-1.7056246089	-1.1947138678	 0.113591
H	 0.5132186402	-0.2538476352	-2.1637363865	 0.116769
H	 0.4237673077	-0.3616310992	 0.899619968	 0.066838
H	-0.2985283699	 1.9426369144	-0.9916459765	 0.11747
H	-0.4538570441	 1.9719284479	 0.7708709508	 0.116532
H	 1.138326182	 1.8282123897	 0.0229703641	 0.111347
H	-1.8083948463	-0.6991944824	-2.2184045855	 0.111384
H	-3.2794320899	-0.5098033794	-1.256109382	 0.126985
H	-2.2361564864	 0.8836378088	-1.5510382874	 0.111262
H	-1.7270873201	-2.6277502471	-0.7075300334	 0.103474
H	-0.6221180284	-2.4382893844	 0.6502421008	 0.098188
H	-3.5047300142	-2.9142804011	 0.875330103	 0.105946
H	-2.356981863	-2.5915446092	 2.1894390358	 0.088654
H	-1.6321210009	 0.0801446074	 2.0445278412	 0.076238
H	-2.7489489695	 0.9719277759	 0.978185521	 0.105251
