23
gdb 92596	2.07188	1.60749	1.44472	1.5166	84.03	-0.2387	0.0768	0.3155	1111.9212	0.206819	-388.297978	-388.289227	-388.288283	-388.330876	34.871	
C	-0.6231123299	 1.3764648268	-0.0160603661	-0.41482
C	 0.0626996739	 0.017550644	-0.0704947327	-0.008476
C	 1.4238624132	-0.082236773	-0.8198592529	-0.280979
C	 2.0509502683	-0.8039731485	 0.4064125686	 0.088132
O	 3.1101971771	-0.1336012792	 1.0604433069	-0.25653
C	 2.5408168439	 0.9395932411	 1.8022862926	-0.094906
C	 1.1807911874	 0.4243986688	 2.3037321694	-0.289891
C	 0.7327335607	-0.5817276479	 1.2226307711	 0.318968
C	 0.0374223254	-1.8083668953	 1.7992134692	-0.482741
H	 0.0569166657	 2.1675521884	 0.3182925558	 0.114107
H	-0.9879688892	 1.6615592147	-1.0091811674	 0.115067
H	-1.4846798398	 1.3684671717	 0.6613750786	 0.11351
H	-0.6478089273	-0.7144158826	-0.4691960788	 0.066483
H	 1.4172761384	-0.6522502408	-1.7519441604	 0.096846
H	 1.8955557595	 0.8853403594	-1.0150848099	 0.102986
H	 2.3682359976	-1.835223845	 0.232561452	 0.071714
H	 3.2371334959	 1.1959944178	 2.6053014928	 0.107075
H	 2.4162723118	 1.831296173	 1.167587415	 0.089841
H	 1.3133521391	-0.104060044	 3.2532352738	 0.101396
H	 0.4642639528	 1.2322095674	 2.4735328266	 0.101116
H	-0.9085512344	-1.5389974608	 2.2844210441	 0.114194
H	-0.1915427093	-2.5412832723	 1.0176050245	 0.110831
H	 0.6658691092	-2.3026981338	 2.548767957	 0.116078
