18
gdb 92969	2.62417	1.48328	1.08091	1.3831	71.87	-0.2384	-0.0188	0.2196	1129.7184	0.146528	-439.122956	-439.113986	-439.113042	-439.157703	32.254	
C	 0.5704193298	 1.8063549389	-0.3479362933	-0.403917
C	 0.232673431	 0.3247693904	-0.292828837	 0.098224
O	 1.2813616721	-0.4164333172	-0.9944774788	-0.226388
C	 1.8768371099	-1.1897348939	-0.0665050916	 0.114132
N	 1.4164718753	-1.2391153719	 1.1141898343	-0.280466
C	 0.2281354916	-0.3701388124	 1.1122435711	-0.103598
C	 0.1344475583	 0.5674456156	 2.3250850647	 0.364756
C	 1.1006857714	 0.3367066804	 3.4623487832	-0.468232
O	-0.7212835335	 1.4231393018	 2.3530212214	-0.306425
H	 1.5033370588	 2.0184091123	 0.1843494845	 0.120947
H	 0.6922681465	 2.1147493368	-1.3895214275	 0.125611
H	-0.227893377	 2.3915362829	 0.1106915381	 0.155606
H	-0.6960430881	 0.1297213277	-0.8328617044	 0.106374
H	 2.7435873632	-1.7360402509	-0.4228949384	 0.144269
H	-0.6619341473	-1.0096430462	 1.2014144859	 0.123361
H	 1.0355350009	-0.6988994382	 3.8107920186	 0.154704
H	 2.129263194	 0.4654371905	 3.1095957754	 0.147778
H	 0.8833278831	 1.0322157132	 4.2735918739	 0.133265
