15
gdb 81261	2.86699	1.50607	1.22883	4.3335	66.12	-0.2321	-0.0796	0.1524	1004.5303	0.112829	-457.763088	-457.755712	-457.754768	-457.794857	28.419	
O	-0.0212731223	 1.390949244	-0.0741285497	-0.431966
C	 0.0381431226	-0.0112310643	-0.0199198618	 0.120535
C	 0.1177450892	-0.6150612681	 1.4353552207	-0.190094
C	-1.4119552125	-0.2824906976	 1.5239381588	-0.257943
C	-1.4006920471	-0.6105376875	-0.0113865217	-0.154305
C	-1.0949425683	-2.0987617059	 0.0477339261	 0.33142
O	-1.5659051517	-3.0257922904	-0.5454207079	-0.298885
C	 0.0522167621	-2.0983255736	 1.1247505408	 0.331994
O	 0.6928232728	-3.0231216049	 1.5363602854	-0.301768
H	 0.865260753	 1.7363163316	 0.0760278449	 0.293755
H	 0.7446713365	-0.4074753027	-0.7605506008	 0.091759
H	 0.850375401	-0.283938111	 2.1685833698	 0.093122
H	-2.0359760876	-0.8942245587	 2.179052338	 0.122092
H	-1.5802009441	 0.7778556213	 1.6992963153	 0.145717
H	-2.1666534836	-0.2736165421	-0.705106178	 0.104569
