19
gdb 40253	2.7696	1.60526	1.23144	0.7287	74.59	-0.2609	0.0763	0.3372	1054.3628	0.160777	-423.004984	-422.997489	-422.996545	-423.036854	29.918	
C	 0.1220167798	 1.4637158799	-0.0335607146	-0.248361
O	 1.2326349362	 0.5615681525	-0.0606480158	-0.282794
C	-0.0964052735	 0.0129974463	 0.0121531389	 0.425372
C	-0.4541199375	-0.7000831448	 1.2997111209	-0.290122
C	 0.0356870296	-2.1546308756	 1.2424978816	-0.211969
C	-0.6333460474	-2.9490361357	 0.105797132	-0.228132
C	-0.7575360128	-2.162052315	-1.1887349915	 0.042035
O	-1.835749497	-1.2149908685	-1.2540068563	-0.261084
C	-0.4982876184	-0.7110101184	-1.2380157589	-0.014623
H	 0.0169633762	 2.0476085619	 0.8801605304	 0.114097
H	-0.0575958029	 2.0127543188	-0.9573472418	 0.114524
H	 0.0065794102	-0.1677818821	 2.1368791648	 0.105489
H	-1.5412475868	-0.6693403682	 1.4359891859	 0.116068
H	 1.1216031143	-2.1446008162	 1.0898646261	 0.115063
H	-0.1437453721	-2.6549938391	 2.1992965358	 0.097188
H	-0.0681653787	-3.8671034133	-0.0875074196	 0.103165
H	-1.6429826689	-3.2603748653	 0.4007406576	 0.116966
H	-0.6303131221	-2.7279433705	-2.1116449893	 0.095391
H	-0.1565605883	-0.2536632065	-2.1666809461	 0.091726
