16
gdb 50242	3.6241	1.36818	1.26343	5.267	69.63	-0.2417	0.0225	0.2642	1009.1909	0.124787	-437.833955	-437.826852	-437.825908	-437.866135	27.047	
O	 0.0168098032	 0.0625149757	-0.2571386596	-0.323444
C	 0.0657842412	 1.2623589786	-0.0920715551	 0.140355
N	 1.1989078443	 1.9577325788	 0.173193687	-0.017289
C	 2.5991950637	 1.5169478945	 0.0529497529	-0.190317
C	 3.0158915461	 3.0165611348	 0.000134516	-0.090977
C	 3.0326711887	 3.6846813456	-1.3985158036	 0.014708
O	 2.0610464308	 3.0286209283	-2.2142804949	-0.220942
C	 1.5999554145	 4.0322966566	-1.312748803	 0.014639
C	 1.5039635822	 3.3863922572	 0.1075022626	-0.073517
H	-0.8262848196	 1.9233760933	-0.1151079991	 0.064595
H	 2.9537060872	 0.9734322341	 0.9334686296	 0.120734
H	 2.7932026263	 0.9323832781	-0.8492344976	 0.139711
H	 3.7386159013	 3.3866462729	 0.7232546151	 0.095266
H	 3.8569187055	 4.1721434777	-1.9060271272	 0.11475
H	 1.0272074054	 4.8527431852	-1.7303367032	 0.116145
H	 1.0976317891	 4.0198241786	 0.8980206099	 0.095584
