22
gdb 10730	2.78	1.47431	1.34946	1.6884	77.41	-0.2571	0.0846	0.3417	1101.27	0.198166	-350.198522	-350.188821	-350.187877	-350.232806	35.897	
C	-0.1402045604	 1.6177869872	 0.0053960946	-0.397127
C	-0.264818249	 0.1081549048	-0.2195044816	-0.258163
C	 0.6203429011	-0.4663155708	-1.318551184	 0.427118
C	 1.0961864196	 0.3743795171	-2.4294406873	-0.237556
O	 1.9664030587	 0.0424315975	-1.3421520479	-0.285098
C	 0.5491461015	-1.9761742128	-1.5575895648	-0.017407
C	 0.986411527	-2.7767084918	-0.3213681396	-0.402307
C	-0.8304212915	-2.4215531698	-2.0649133329	-0.399149
H	 0.9092144817	 1.9041106464	 0.1132792184	 0.139153
H	-0.5695549975	 2.1920869418	-0.8213615551	 0.114138
H	-0.6711886566	 1.9109658826	 0.9155454149	 0.111181
H	-0.0147403421	-0.4099722559	 0.714165763	 0.109624
H	-1.3075826695	-0.1510483823	-0.4383780346	 0.104085
H	 1.344261991	-0.0915412649	-3.3830546374	 0.104988
H	 0.8154854178	 1.4231657561	-2.494101033	 0.110316
H	 1.2814569958	-2.1780203397	-2.3491072216	 0.077992
H	 1.0791091114	-3.8393042911	-0.5678139654	 0.110303
H	 1.9567358379	-2.427124503	 0.0434069952	 0.130043
H	 0.2622685099	-2.6939698662	 0.496092742	 0.113594
H	-1.14035612	-1.8452109415	-2.9429715227	 0.112407
H	-0.8106592669	-3.4789902691	-2.3473166829	 0.114429
H	-1.60166621	-2.3040121947	-1.2963021074	 0.117433
