22
gdb 113248	4.35617	0.79941	0.75895	1.1534	89.51	-0.226	0.0543	0.2803	1599.3388	0.190862	-367.157679	-367.147098	-367.146154	-367.193393	39.092	
C	-0.3455359192	 1.5841691764	-0.4218741269	-0.372231
C	-0.0154974961	 0.2017887405	 0.1372455878	-0.11581
N	-1.2255923993	-0.6119392244	 0.2040198332	-0.115009
C	-1.546758609	-1.4653185889	-0.9396649234	-0.287435
C	-1.1501846393	-2.0650751431	 0.3672507524	 0.323906
C	 0.175667281	-2.7889407356	 0.498010555	-0.467871
C	-2.2525565538	-2.6026426524	 1.28639824	-0.407046
C	-2.631208736	-3.9822715226	 0.9988640212	 0.318835
C	-2.9317861688	-5.1188386876	 0.7468962163	-0.464059
H	 0.5472607995	 2.216930187	-0.4414235528	 0.10981
H	-0.72961341	 1.5084867258	-1.4445059304	 0.118327
H	-1.1090972471	 2.0734151987	 0.1890697136	 0.125725
H	 0.7781915627	-0.2580833761	-0.4740824691	 0.082647
H	 0.380679083	 0.2970039012	 1.1555187175	 0.101599
H	-2.5842836178	-1.4675417366	-1.2654705992	 0.112363
H	-0.8192018371	-1.5223014082	-1.7493760957	 0.102722
H	 0.9121921875	-2.4470976894	-0.2313087113	 0.119431
H	 0.5984992781	-2.6535359359	 1.5008468752	 0.117801
H	 0.0245831381	-3.8616551906	 0.3456802062	 0.139108
H	-1.9159746705	-2.5248802162	 2.3294748631	 0.125421
H	-3.1233689242	-1.9449358081	 1.195966027	 0.137519
H	-3.2062534816	-6.1211960739	 0.5298223003	 0.194247
