19
gdb 79854	2.82915	1.68136	1.22881	1.452	74.68	-0.2385	0.063	0.3015	1046.1523	0.159796	-422.978926	-422.971246	-422.970302	-423.010547	31.092	
C	-0.1622914536	 1.5785845735	 0.0040668279	-0.436097
C	 0.0140695779	 0.0669119604	 0.0035825028	 0.014922
C	 1.2351519284	-0.5890475033	-0.6962053546	-0.178784
C	 2.1350293807	-0.2102787451	 0.5123998169	 0.134443
O	 3.134400896	-1.1976459174	 0.7277472773	-0.28167
C	 2.4081282747	-2.4135302873	 0.5376163915	-0.150371
C	 1.0182355126	-1.8630316994	 0.2108804088	 0.371681
O	-0.0297353369	-2.7558321523	 0.0187014168	-0.480923
C	 0.7821787553	-0.6430340731	 1.1532247975	-0.139845
H	 0.7581790595	 2.1170284445	 0.2472158401	 0.115195
H	-0.4994354845	 1.9277480446	-0.9783365046	 0.116501
H	-0.9226985546	 1.8775461284	 0.7340806028	 0.118336
H	-0.9281024214	-0.4314352316	-0.2384909526	 0.083309
H	 1.5078449688	-0.5737737589	-1.7535940846	 0.064547
H	 2.5516654491	 0.7838041572	 0.6440237368	 0.091996
H	 2.8448182411	-2.9992356466	-0.2833997889	 0.090718
H	 2.4164411178	-3.0220781058	 1.4502702579	 0.107226
H	 0.1581773804	-3.285980483	-0.7633893183	 0.286653
H	 0.5345425788	-0.6877714648	 2.2149361565	 0.072162
