18
gdb 61226	3.50826	0.98728	0.84868	5.2535	72.36	-0.2829	0.0331	0.3161	1348.93	0.145864	-439.080152	-439.070803	-439.069859	-439.114603	34.277	
C	 0.1111931808	 1.5317990477	-0.1936804055	-0.481237
C	 0.0070644621	 0.0287095846	-0.0727900406	 0.384137
C	 1.1581293955	-0.8139891355	-0.4228052952	-0.228654
O	 0.8177936175	-0.5694012136	 0.9555492685	-0.288903
C	-1.3883906302	-0.6055572699	-0.1435911533	 0.057526
O	-1.3234582113	-1.9880207274	 0.1063559688	-0.420442
C	-2.3638436435	 0.0806643976	 0.8489870649	-0.378442
C	-3.6904504717	-0.5282352208	 0.8238805865	 0.274761
N	-4.7491783297	-0.9893846797	 0.7974204767	-0.302786
H	 1.1587717461	 1.8394662964	-0.2184143643	 0.136717
H	-0.372164211	 1.8795608655	-1.1131584478	 0.132545
H	-0.3639944182	 2.0370767969	 0.65239096	 0.136663
H	 0.9965126309	-1.833187465	-0.7614424601	 0.136544
H	 2.07856002	-0.338558859	-0.7557838987	 0.1217
H	-1.7839830365	-0.4883919068	-1.1590821761	 0.115756
H	-0.7356209134	-2.0926725236	 0.8690414861	 0.294369
H	-1.9550926955	 0.0081606429	 1.8639900304	 0.157581
H	-2.4702232718	 1.1453396596	 0.6174279798	 0.152166
