21
gdb 119162	3.1228	0.96987	0.81885	2.5412	78.65	-0.2564	0.0853	0.3418	1480.3336	0.180627	-424.184834	-424.175186	-424.174242	-424.220009	35.136	
C	 0.3779811451	 1.5486906922	 0.0539757391	-0.385113
C	 0.0549145545	 0.0522155771	 0.0311131953	-0.185117
C	 0.6413598257	-0.6877552631	 1.2370019948	-0.250282
C	 0.5283996047	-2.203117072	 1.2078098041	 0.365273
C	-0.5178908564	-2.9224216101	 0.4630483792	-0.22322
O	 0.8185942722	-2.8387500985	-0.0427496212	-0.263788
C	 1.1198202655	-2.8796625489	 2.4152058192	-0.000876
C	 1.9334876901	-4.0936516969	 2.3046763294	-0.169084
O	 2.5434160022	-2.8193109715	 2.5348849312	-0.239296
H	 1.4598683626	 1.7199994658	 0.0399311298	 0.119564
H	-0.0519123541	 2.0597817693	-0.8128514598	 0.112756
H	-0.0202095548	 2.0289220182	 0.9549111502	 0.112939
H	-1.0339775147	-0.079255342	 0.0070235687	 0.09337
H	 0.4460637068	-0.4021816038	-0.8854358517	 0.12083
H	 1.7102103797	-0.4543130883	 1.3272620146	 0.126156
H	 0.1751116547	-0.3265734373	 2.1640638395	 0.098933
H	-0.8258699221	-3.9129015008	 0.7963280029	 0.110354
H	-1.26453742	-2.3713126802	-0.1037212092	 0.118253
H	 0.5880712827	-2.6860666956	 3.3491859811	 0.094089
H	 1.9768525583	-4.7893695333	 3.1415027524	 0.110824
H	 2.1054079273	-4.5150066902	 1.3178583906	 0.133435
