18
gdb 77754	2.07629	1.6311	1.44153	3.3285	73.16	-0.2318	0.0145	0.2462	1045.2428	0.14584	-439.078808	-439.069565	-439.06862	-439.112388	33.871	
C	 0.372077611	 1.2795614605	 0.0569008314	-0.3541
N	-0.1897483082	-0.0577548051	 0.0563356763	-0.129056
C	-0.0341375934	-1.0115738465	-0.9470051524	 0.428799
O	 0.0591248426	-0.9063690276	-2.1399454928	-0.370391
C	 0.0236512505	-2.152126663	 0.0637590824	-0.377092
C	 1.1733816724	-1.8308056164	 1.019518556	 0.05592
O	 2.3437982222	-1.203641295	 0.598483228	-0.41543
C	-0.1011163035	-1.0544368639	 1.1334527426	 0.328945
C	-0.9789275742	-0.9581043975	 2.3433550803	-0.488924
H	 1.4103320478	 1.2819407357	 0.4088177164	 0.138471
H	 0.3438015818	 1.6487962191	-0.9711146785	 0.153436
H	-0.2260604738	 1.949498602	 0.6822459304	 0.122764
H	-0.4434153237	-3.1253311954	 0.0000361336	 0.113597
H	 1.3168529318	-2.5882835514	 1.7942197439	 0.098242
H	 2.7585890529	-1.7496781133	-0.0783502358	 0.298241
H	-0.6956679959	-0.102281748	 2.966657259	 0.132699
H	-2.0268332306	-0.8353152592	 2.053268935	 0.135365
H	-0.8902496596	-1.858249625	 2.9582059143	 0.128514
