22
gdb 118876	3.0392	1.01232	0.91465	0.6749	82.24	-0.2274	0.0699	0.2973	1406.8915	0.193212	-404.304826	-404.295275	-404.294331	-404.339206	36.476	
C	 0.0015098045	 1.61475012	 0.0263373986	-0.379116
C	 0.0817003028	 0.0859576681	-0.0200651524	-0.186579
C	 0.6299136435	-0.5197722728	 1.2783640224	-0.219921
C	 0.7544758837	-2.0396615181	 1.255401236	 0.423212
O	-0.5039316689	-2.6858230022	 1.1383003998	-0.495891
C	 1.8397761547	-2.687072478	 0.2973650296	-0.286638
C	 2.4783534601	-3.3297239482	 1.5316466085	-0.040808
N	 2.8771884767	-2.2046912138	 2.4148137011	-0.341076
C	 1.4816771292	-2.704144011	 2.4362605905	-0.095396
H	 0.9910678841	 2.0547660927	 0.1908080799	 0.118174
H	-0.3960629397	 2.0240694539	-0.9077370263	 0.109318
H	-0.6480950259	 1.9506326072	 0.8419953615	 0.116001
H	-0.9219051774	-0.3131660213	-0.2241013489	 0.08293
H	 0.7132951991	-0.220364005	-0.8644540179	 0.099604
H	 1.6205315657	-0.1053002592	 1.4925672869	 0.118006
H	-0.0257616519	-0.2435671915	 2.114927984	 0.091733
H	-0.8941757144	-2.4256896873	 0.2974656107	 0.27725
H	 1.3682710019	-3.4114614216	-0.3698109967	 0.100827
H	 2.4883020954	-2.0114418675	-0.2664632125	 0.096976
H	 2.9748221098	-4.289488847	 1.6017965463	 0.090747
H	 3.3457081083	-2.6078405985	 3.2258279296	 0.229081
H	 1.0166031188	-3.0686151689	 3.3440173994	 0.091569
