20
gdb 82961	3.12418	1.39074	1.28923	1.3659	77.55	-0.2167	0.07	0.2867	1066.6917	0.173666	-403.103511	-403.096002	-403.095058	-403.135128	30.961	
O	 0.0546398401	 1.3689420558	 0.1538076669	-0.409481
C	 0.0207053701	-0.0230546951	 0.0283789856	 0.067262
C	-1.3276848595	-0.6791277048	 0.0200943793	-0.050444
C	-2.5981603809	 0.1634831739	-0.0736125941	-0.277854
C	-3.2981307213	-0.1069529266	-1.402019086	 0.018575
C	-3.4289955538	 0.9453329831	-2.4443163121	-0.254351
N	-2.4620049719	-0.1401224317	-2.6117178102	-0.084212
C	-1.0388433934	 0.1761552663	-2.3717876875	-0.198563
C	-0.4778606941	-0.6758774945	-1.2456799127	-0.077049
H	 0.810245322	 1.6965895032	-0.3455045729	 0.290395
H	 0.8169905408	-0.539178095	 0.5642437605	 0.08576
H	-1.4138022585	-1.6163500222	 0.5600409997	 0.085887
H	-3.2707808259	-0.0708900544	 0.7556289163	 0.101099
H	-2.3385857302	 1.2207721553	 0.019335073	 0.126387
H	-4.0403607357	-0.9033681143	-1.3765442917	 0.083052
H	-4.2640149442	 0.9464310799	-3.1406283327	 0.10862
H	-3.0445361592	 1.9355948504	-2.199412678	 0.105221
H	-0.4960448516	-0.019042117	-3.3014497827	 0.103283
H	-0.8972560836	 1.2393753209	-2.130402243	 0.091228
H	-0.0034152892	-1.6070281931	-1.5378501577	 0.085186
