18
gdb 38820	3.11405	1.78905	1.27689	1.9256	76.08	-0.2376	0.0235	0.2611	982.8922	0.150429	-401.927462	-401.920546	-401.919602	-401.958825	27.884	
C	 0.0056671834	 1.4506597499	 0.0811365738	-0.353826
C	 1.3506668323	 0.7563829057	-0.047782416	-0.130413
C	 1.7272923036	 0.1403595033	 1.3095435994	-0.249508
C	 0.4322317797	-0.7430286276	 1.2582432451	-0.107235
C	 0.6865330468	-2.2277695242	 0.946244546	-0.177409
N	-0.2093325339	-2.7980897044	-0.057808564	-0.26534
C	-0.7509525958	-2.0368118868	-0.9053048332	 0.110589
O	-0.6723738381	-0.6800108732	-1.0336510421	-0.258607
C	 0.0397043313	-0.0290923548	-0.0272363886	 0.466439
H	-0.2844655276	 1.9463109829	 1.0060802604	 0.107516
H	-0.3282943882	 1.9480798175	-0.8243563218	 0.124298
H	 2.0272229699	 0.9832342693	-0.8619535482	 0.09823
H	 2.6400027853	-0.4597191902	 1.2917270281	 0.108385
H	 1.7919608063	 0.8518387368	 2.1388268765	 0.101687
H	-0.2723857612	-0.6366779414	 2.0896107054	 0.075435
H	 1.7129820385	-2.3674096917	 0.5818123104	 0.113098
H	 0.6029957141	-2.8314621747	 1.855654078	 0.112944
H	-1.3999503165	-2.4330905665	-1.6830554492	 0.123717
