13
gdb 129519	5.29398	1.04533	0.87809	5.2742	62.65	-0.2575	-0.0179	0.2395	1214.668	0.090856	-486.100992	-486.093285	-486.092341	-486.134263	27.54	
N	-0.1567052289	 1.3787814701	-0.0822357902	-0.571556
C	 0.1317129253	 0.0291959112	-0.1074445375	 0.472716
O	 1.238121093	-0.4304079697	-0.2349837508	-0.33993
N	-1.0346297184	-0.7533016485	-0.0173229469	-0.472082
C	-1.1058268195	-2.1182924792	-0.0025614878	 0.578394
N	-2.2211431681	-2.7910623751	-0.1163576624	-0.378949
C	-1.7585324562	-4.0747148632	-0.0005634422	 0.050992
N	-0.4736529088	-4.2081083428	 0.1695630626	-0.120193
O	-0.0195342455	-2.8631391678	 0.1704868694	-0.17977
H	 0.6644161136	 1.958067557	 0.001864982	 0.275507
H	-0.9598692019	 1.7037742109	 0.4334865185	 0.259902
H	-1.9341168883	-0.3165179348	-0.1523911397	 0.276777
H	-2.4031616861	-4.9407842982	-0.0468606551	 0.14819
