14
gdb 129721	2.42075	1.87923	1.05879	3.6518	68.85	-0.2164	-0.0167	0.1997	1033.5117	0.102348	-470.035376	-470.027699	-470.026755	-470.067081	29.983	
N	-0.0104843946	 1.4545908142	-0.1568367562	-0.601551
C	 0.0253446279	 0.0789507339	-0.0862590096	 0.162927
C	-1.1428834952	-0.7050889016	-0.0602658858	 0.406672
O	-2.3245732234	-0.0428936802	-0.0442214808	-0.431799
N	-1.1779316846	-2.0243236197	-0.0427803559	-0.310569
N	-0.0405635845	-2.7212364653	-0.0487281072	-0.231798
C	 1.1063464535	-2.0549438006	-0.0662361297	-0.094585
C	 1.2008934444	-0.6596100151	-0.0821002566	 0.310316
O	 2.3758947708	 0.0290999513	-0.0882338379	-0.452343
H	 0.8271823453	 1.9253604019	 0.1495378587	 0.265562
H	-0.8700919052	 1.8764015442	 0.1594033916	 0.268765
H	-3.0087631355	-0.7272479026	-0.0133611978	 0.302899
H	 2.0085180033	-2.6640782587	-0.0661511676	 0.098936
H	 3.111918028	-0.5916151216	-0.0661504851	 0.306566
