20
gdb 91067	3.33338	1.38746	1.3311	2.2095	77.84	-0.2261	0.0762	0.3023	1065.912	0.172919	-403.107805	-403.100254	-403.09931	-403.139947	30.405	
C	 0.2010515356	 1.5482866425	 0.0780039946	-0.400489
C	 0.1088559613	 0.035794587	-0.0254467324	 0.161125
C	 0.8399709145	-0.5822318747	-1.2436694131	-0.261242
C	 1.2935652795	-1.9514486795	-0.72332643	-0.055105
C	 2.8012685909	-2.2371781695	-0.5463217744	-0.063943
N	 3.3784250385	-1.0375340436	 0.0959887921	-0.327587
C	 2.7128983316	-2.0625040686	 0.9329365284	-0.085612
C	 1.1947904178	-1.8185643288	 0.8313330653	 0.12167
O	 0.7145638578	-0.5378107081	 1.1432637068	-0.272349
H	 1.2499951096	 1.8559671583	 0.1184246409	 0.132558
H	-0.2741140148	 2.0203656396	-0.7880621737	 0.108632
H	-0.3007573776	 1.9051648614	 0.9819189845	 0.120014
H	-0.9527876869	-0.2645000865	-0.0526440871	 0.059221
H	 0.1817087806	-0.6462207833	-2.1140132413	 0.091275
H	 1.7053425836	 0.0335422053	-1.4991259493	 0.11948
H	 0.7395160573	-2.7964237604	-1.1340764305	 0.072472
H	 3.4163422498	-2.9116988683	-1.1290092952	 0.091363
H	 4.3818009289	-1.1931422144	 0.183786954	 0.230497
H	 3.2502890624	-2.558049043	 1.7318580283	 0.089785
H	 0.6136310896	-2.6066587855	 1.3262737219	 0.068237
