17
gdb 13769	3.1261	1.50098	1.19043	5.5117	69.2	-0.2748	0.0308	0.3056	1041.5894	0.1411	-363.864994	-363.856352	-363.855408	-363.89834	31.309	
C	 0.0243857797	 1.4584526429	-0.2326330972	-0.405573
C	 0.0261744985	-0.0117865537	 0.1901862689	 0.118331
O	 0.6120374334	-0.187840416	 1.4734360986	-0.425732
C	-1.3686907857	-0.6085705393	 0.1393853891	-0.012881
C	-1.9359727529	-1.1579587358	-1.134205258	-0.293934
C	-1.5769995265	-2.1092732576	-0.0006653861	-0.177573
C	-0.4547548879	-2.9929415017	-0.1554181901	 0.294538
N	 0.4391128438	-3.7143681721	-0.2939252683	-0.34324
H	 1.0367785616	 1.8657866789	-0.1724596161	 0.132273
H	-0.3428784681	 1.5776060418	-1.2565134026	 0.123037
H	-0.6236952052	 2.051609903	 0.4252290899	 0.106896
H	 0.6740497819	-0.5810968818	-0.4862014565	 0.109905
H	 0.1406119318	 0.3769235806	 2.096037377	 0.276693
H	-2.0782148444	-0.1281747208	 0.8106087208	 0.092437
H	-2.9886912048	-1.0204570203	-1.3515613102	 0.130008
H	-1.2922080978	-1.1800778664	-2.0067352486	 0.141161
H	-2.3992542973	-2.5425017217	 0.5584240294	 0.133654
