14
gdb 12217	4.19999	1.5286	1.19115	3.8852	62.67	-0.2492	-0.0303	0.2189	963.5301	0.106808	-415.865315	-415.857391	-415.856447	-415.898132	27.307	
O	-0.0202239809	 1.4417427423	 0.1792779417	-0.426927
C	 0.0153986397	 0.0448170482	 0.0567041497	-0.011777
C	-1.3844278277	-0.6056856	-0.0869140339	-0.192669
N	-0.9518860237	-1.1301066057	-1.3968801522	-0.107501
C	-1.6439405007	-1.9083770795	-2.3107942279	 0.071136
N	-1.1418940993	-2.2721407196	-3.4170047899	-0.40783
C	 0.2986250848	-0.4981349428	-1.3672421174	 0.404464
O	 1.1920973594	-0.3886630751	-2.1538431319	-0.33034
H	 0.8030492922	 1.7861585335	-0.1861393204	 0.303684
H	 0.6407046565	-0.4296999909	 0.8254276453	 0.102082
H	-1.631342695	-1.3801559469	 0.6436650665	 0.124277
H	-2.1861759059	 0.1341745402	-0.1528243248	 0.136754
H	-2.6491591175	-2.1532377606	-1.9439006717	 0.10129
H	-1.8129623722	-2.8347626231	-3.9373915232	 0.233357
