20
gdb 36841	4.2968	0.98535	0.94347	3.0782	79.3	-0.2251	0.0811	0.3062	1310.4924	0.171814	-403.041978	-403.033977	-403.033033	-403.07554	30.625	
C	-0.0581900389	 1.5674959153	 0.2703876502	-0.384801
C	-0.1461394345	 0.0608912558	 0.3446265669	 0.101811
C	-1.2473292324	-0.6982969424	-0.2587107764	-0.180838
O	 0.035603857	-0.64672011	-0.8864045359	-0.233596
C	 1.365128528	 2.0502410273	 0.0792126676	 0.329823
C	 2.3472430189	 1.7461665152	-1.0779654243	-0.190005
N	 3.1929142266	 2.6714035808	-0.1834432368	-0.145547
C	 1.8995444919	 3.4952062952	-0.0558652777	-0.220544
C	 2.6134581535	 1.8446815312	 0.9766885212	-0.206886
H	-0.6777573873	 1.9227173636	-0.561939373	 0.10582
H	-0.4744027611	 1.9977559842	 1.1914531027	 0.103521
H	 0.3745214044	-0.3945406347	 1.1894365331	 0.094185
H	-1.5298076088	-1.6673869652	 0.1502866533	 0.115317
H	-2.0429240086	-0.1650067093	-0.777937972	 0.113548
H	 2.7452220796	 0.7322277479	-1.1628100725	 0.109582
H	 2.1288178371	 2.1712342426	-2.0617036898	 0.09781
H	 1.6478384397	 4.0548790115	-0.9616555177	 0.098081
H	 1.8782691802	 4.1398019159	 0.8282538222	 0.095701
H	 2.6473944612	 2.3624787339	 1.9402425769	 0.095468
H	 3.0407925333	 0.8404736213	 1.0489597219	 0.101548
