14
gdb 24760	3.47508	1.6559	1.1215	5.2025	77.37	-0.2004	-0.0747	0.1257	993.5187	0.104066	-399.599755	-399.593233	-399.592289	-399.630573	25.936	
O	-0.0387572009	-0.0288133747	 0.0056290771	-0.311265
C	 0.0075148106	 1.1785531913	 0.0104997483	 0.265114
C	-1.2060433939	 2.1139902945	 0.0309363892	-0.186786
C	-0.791106258	 3.3928555301	 0.0307534908	-0.20635
C	 0.6805236913	 3.3767527865	 0.0103088204	 0.29759
C	 1.1810523159	 2.0916699162	-0.0020810546	 0.178376
C	 2.5957063646	 2.1779002875	-0.0214906608	-0.334417
C	 2.9030245977	 3.5247515972	-0.0199238309	-0.070576
N	 1.7184116827	 4.2482262149	-0.0003521032	-0.379777
H	-2.2211709374	 1.7443121379	 0.0432697368	 0.120035
H	-1.4113835768	 4.280145611	 0.0430554602	 0.116265
H	 3.3103700106	 1.3699669772	-0.0349118607	 0.116662
H	 3.853374377	 4.0333127563	-0.0309497846	 0.127283
H	 1.6595531665	 5.2526450042	 0.0047496619	 0.267845
