14
gdb 128012	2.57369	1.63779	1.00712	3.2795	72.93	-0.2432	-0.0803	0.1629	1101.0567	0.098903	-469.953122	-469.944774	-469.94383	-469.986833	29.699	
C	-0.1473950238	 1.3974571917	 0.0530985325	-0.321879
N	-0.1675591504	-0.0568083042	 0.0818670219	-0.302298
C	 0.62542866	-0.6493942141	 0.8695801384	 0.418122
O	 1.4974518154	 0.0129304327	 1.6920892922	-0.317214
N	 2.4271013066	-0.694283996	 2.6164720732	 0.021589
N	 2.3895605195	-1.9173778935	 2.6208985377	-0.0884
C	 1.5482082793	-2.6820769972	 1.8312342579	-0.127313
C	 0.6760847385	-2.1115481344	 0.9673518236	 0.26642
O	-0.1655968044	-2.7732164052	 0.1739453045	-0.375185
H	 0.8397706625	 1.784549045	-0.2314544317	 0.130954
H	-0.8844835013	 1.7484372077	-0.6718882835	 0.122804
H	-0.3858188882	 1.8266555835	 1.0350575053	 0.13095
H	 1.6451547401	-3.7531346884	 1.9608069374	 0.126503
H	-0.0608318239	-3.7242973375	 0.3071236205	 0.314946
