17
gdb 67775	2.84261	2.11543	1.58599	1.3351	75.55	-0.2158	-0.0226	0.1932	869.7136	0.136959	-384.638177	-384.631472	-384.630528	-384.668586	28.712	
O	-0.0534348973	 1.4400770684	 0.075016616	-0.490398
C	-0.0023112358	 0.055901878	 0.0197408186	 0.400565
C	 0.8988954757	-0.7025883563	 1.0037500446	-0.185369
C	 0.6497362773	-1.98234994	 0.7299960697	-0.098612
C	-0.3795633958	-1.9085398667	-0.3964674179	-0.067234
C	-1.3623440336	-0.7456470415	 0.0433924193	-0.092982
C	-2.053600596	-0.3488176578	-1.2587783049	-0.09825
C	-1.0684243088	-0.3651385863	-2.1593279429	-0.099748
C	 0.1575439094	-0.7665254542	-1.3489107081	-0.134801
H	 0.8469820227	 1.7809959058	 0.0658065066	 0.281306
H	 1.5506183236	-0.2505042567	 1.7397420549	 0.099759
H	 1.0539131191	-2.8799114683	 1.1773203978	 0.105059
H	-0.7862685588	-2.8221636949	-0.8282988038	 0.066309
H	-1.9354532851	-0.823930978	 0.9683828955	 0.060868
H	-3.0988478166	-0.1019450675	-1.3787491954	 0.100681
H	-1.092631186	-0.1310402511	-3.2143227316	 0.09879
H	 1.1316917662	-0.864577733	-1.8315886083	 0.054056
