14
gdb 66720	2.97186	1.68938	1.29113	1.3612	73.31	-0.2116	0.022	0.2335	954.5861	0.098855	-399.379757	-399.372458	-399.371513	-399.411247	28.866	
O	-0.1662337557	 1.3562571796	-0.075206458	-0.434799
C	 0.0105571928	 0.0099182468	-0.0382816636	 0.3035
C	 0.9206420637	-0.9874661567	-0.8259002415	-0.145855
C	-0.1557803406	-2.0100385708	-0.7996723205	-0.121104
N	 0.8540285297	-1.9713113736	 0.3126734511	-0.170716
C	-0.0508816914	-1.0066443148	 1.0673050205	-0.167491
C	-1.1158628287	-1.051202905	-0.0406781511	 0.279937
C	-2.5127305995	-0.8829749452	 0.0045679339	 0.017227
C	-3.7098886337	-0.7516387351	 0.0329211758	-0.375778
H	 0.5120832309	 1.7776395121	 0.466514629	 0.300325
H	 1.7988062759	-0.8778830328	-1.4510920057	 0.108228
H	-0.3361185565	-2.8905710004	-1.4047233974	 0.106993
H	-0.1607253905	-0.9541930118	 2.1431274799	 0.119304
H	-4.7639513264	-0.6286779523	 0.0578725176	 0.18023
