19
gdb 92454	2.39281	1.8057	1.49274	0.6266	69.57	-0.2426	0.0795	0.3221	976.0712	0.160766	-460.161313	-460.153652	-460.152708	-460.192995	30.815	
C	-0.1646874413	 1.50031862	-0.0582273296	-0.408377
C	 0.0116611047	-0.0046251988	 0.0317472159	 0.117061
O	 0.7917727549	-0.5088319844	-1.1013379556	-0.3221
C	 1.9327438146	-1.1786233657	-0.534003836	 0.020516
C	 2.820595547	-0.1456911765	 0.1553981615	-0.092384
O	 2.0467896082	 0.2171140736	 1.3248349347	-0.279693
C	 0.8274427311	-0.5235137757	 1.2294017282	 0.027584
C	 1.3060025452	-1.8892377319	 0.6770612948	 0.153441
O	 0.3096504689	-2.8258725933	 0.3601184462	-0.455814
H	 0.7876802392	 2.0159719223	 0.0801031211	 0.135192
H	-0.5803563081	 1.7716584999	-1.032365927	 0.124914
H	-0.8577701423	 1.8440866883	 0.717153565	 0.116047
H	-0.9703469465	-0.4961170339	 0.0088875006	 0.07778
H	 2.4050042322	-1.7892363747	-1.3032310096	 0.089005
H	 3.7903732454	-0.5529907831	 0.4674125622	 0.106618
H	 2.9846005268	 0.7328844327	-0.4778045645	 0.111291
H	 0.3196959608	-0.5103180475	 2.1927820231	 0.08727
H	 2.0283222732	-2.3642595143	 1.3443604811	 0.096102
H	-0.075354614	-2.5519100072	-0.4816668621	 0.295549
