17
gdb 2267	3.65538	2.78002	2.10152	1.8257	63.91	-0.2434	0.0891	0.3325	711.1745	0.147348	-309.693471	-309.686309	-309.685365	-309.724089	27.144	
C	-0.0843467363	 1.5422359193	 0.0498597185	-0.407878
C	 0.0322838488	 0.0278172998	-0.0436709128	-0.030639
C	 1.1707949632	-0.5845319399	-0.9435277595	-0.263994
C	 1.7195511096	-1.2785021789	 0.306907716	-0.035806
O	 2.0181942203	-0.2459239515	 1.260187126	-0.290575
C	 0.6617836896	-0.7123793345	 1.1627527887	 0.415851
C	-0.0078419764	-1.1946261115	 2.4080999546	-0.5039
H	 0.8708911447	 1.9753976154	 0.3594743999	 0.132798
H	-0.3609360191	 1.977099799	-0.9165087104	 0.112393
H	-0.8477736351	 1.8400587014	 0.7775102843	 0.110634
H	-0.9318631533	-0.4228781018	-0.302764028	 0.071096
H	 0.7899875446	-1.274350517	-1.7006229301	 0.101311
H	 1.8571698326	 0.1275679955	-1.4096011933	 0.106596
H	 2.2823705675	-2.2019132571	 0.3920298513	 0.096801
H	-0.3159563244	-0.3517825662	 3.0376721218	 0.130044
H	-0.9029600959	-1.7776281097	 2.1675366951	 0.122045
H	 0.6732489597	-1.8202512623	 2.9912992382	 0.133221
