20
gdb 16172	4.14612	1.52132	1.32913	1.4673	73.88	-0.2238	0.0859	0.3097	1007.1539	0.178104	-348.999415	-348.991593	-348.990649	-349.031413	30.234	
C	-0.3724294475	 1.5561187771	-0.1708794306	-0.37323
C	 0.0040735864	 0.082803633	 0.033264565	-0.27836
C	 0.8485115154	-0.4861737086	-1.0855318478	 0.337272
C	 0.1854737035	-1.0088972375	-2.3561423734	-0.375532
C	 0.9065459285	-1.9496377989	-1.420782783	 0.070856
O	 2.2155850142	-2.3464897387	-1.734761299	-0.25921
C	 2.9708369245	-1.1676047382	-2.0129010123	-0.092596
C	 2.2902405857	-0.0105192758	-1.2490651746	-0.296461
H	 0.5174612705	 2.19304177	-0.2098971264	 0.116879
H	-0.9199981112	 1.6940778139	-1.1091146694	 0.11808
H	-1.0046133522	 1.9187033989	 0.6455989645	 0.11061
H	 0.5429070215	-0.0291550033	 0.9842158986	 0.095569
H	-0.9119385342	-0.5136354535	 0.1284700045	 0.093601
H	-0.8993011308	-1.0521329064	-2.3587242359	 0.108675
H	 0.6217756932	-0.7895710918	-3.3250147961	 0.111731
H	 0.3691038144	-2.7173220231	-0.8754626483	 0.097735
H	 4.0033896998	-1.3485548011	-1.7015578811	 0.109159
H	 2.9772046813	-0.9694708195	-3.0939085371	 0.097886
H	 2.3912523786	 0.938169787	-1.7849608469	 0.103695
H	 2.7349553388	 0.1182872365	-0.2551692505	 0.103641
