22
gdb 113172	2.83602	1.05348	0.88894	2.8511	84.21	-0.2273	-0.0105	0.2168	1418.6504	0.190608	-404.349398	-404.338601	-404.337657	-404.385937	38.723	
C	 0.4286470896	 1.5601675362	 0.0192232899	-0.374999
C	-0.1834964281	 0.17162069	-0.1518237684	-0.117961
N	 0.52275245	-0.5571033103	-1.2035415413	-0.104997
C	 1.6399235542	-1.397836808	-0.8340829264	-0.286525
C	 0.3583564185	-2.0142111172	-1.3396955169	 0.192518
C	-0.489015808	-2.8334062351	-0.3847908103	-0.46562
C	 0.3131391553	-2.507797141	-2.7726039433	 0.351994
C	 0.8268245917	-1.5912863288	-3.8652378604	-0.482615
O	-0.1339835954	-3.6073091208	-3.0200960352	-0.307143
H	 1.4743390967	 1.4894875604	 0.336066652	 0.119627
H	 0.3980893598	 2.1136139281	-0.9232745169	 0.12713
H	-0.1169293859	 2.1295434451	 0.777851024	 0.114754
H	-0.17011228	-0.357167684	 0.8140536203	 0.088778
H	-1.2328945928	 0.2602388869	-0.4555958499	 0.108537
H	 2.5274056226	-1.3383287301	-1.4590782303	 0.116301
H	 1.8439785527	-1.5521703854	 0.225935766	 0.11286
H	-0.3188822847	-2.5565958768	 0.6569019409	 0.112528
H	-1.5545370467	-2.7169808546	-0.607725474	 0.127188
H	-0.2495303275	-3.8910741626	-0.5094757943	 0.146544
H	 0.2753263855	-0.6476945436	-3.8526826799	 0.151343
H	 1.8791711271	-1.3332283899	-3.7080197021	 0.136177
H	 0.7146447554	-2.0929760984	-4.8267780935	 0.133581
