21
gdb 122173	3.38109	0.79353	0.72479	1.6874	76.84	-0.2385	0.0767	0.3152	1651.1936	0.179306	-461.331476	-461.320934	-461.31999	-461.367652	38.186	
C	-0.1381150511	 1.4748705438	-0.258031366	-0.385965
C	-0.0598842842	-0.0029220649	 0.0852184038	-0.024706
O	-1.3355741419	-0.5813170501	-0.1101625518	-0.26673
C	-1.3835121651	-1.9662548912	 0.1953806521	-0.12471
C	-2.8335012324	-2.3679340335	 0.1242673961	 0.393379
O	-3.6504224973	-1.6352728626	 0.9908554039	-0.47676
C	-3.4226997952	-2.8210392557	-1.2036589007	-0.383032
C	-3.2174725482	-3.7944983863	-0.0582389559	 0.044434
O	-2.184999192	-4.7374341386	-0.1128624005	-0.423711
H	 0.8370386554	 1.9505731992	-0.1177521722	 0.116984
H	-0.4452508831	 1.6120978298	-1.2986981333	 0.127448
H	-0.8653323672	 1.9810391383	 0.3835960706	 0.123857
H	 0.6846388547	-0.5090949992	-0.5515837652	 0.088456
H	 0.2634955179	-0.143206845	 1.130244498	 0.089853
H	-0.7723938583	-2.5530600682	-0.502762697	 0.099662
H	-1.0003790955	-2.1416012203	 1.2135540975	 0.096855
H	-3.4353498098	-0.7088128669	 0.8226135135	 0.286663
H	-4.4381521911	-2.5165214449	-1.4295809023	 0.115981
H	-2.7498776361	-2.8959975172	-2.051551417	 0.112359
H	-4.1097673494	-4.107141032	 0.4836825595	 0.100579
H	-2.4268143801	-5.4008702547	-0.7675257431	 0.289105
