21
gdb 88510	2.61325	1.1846	1.0594	2.9036	82.93	-0.2437	-0.0199	0.2238	1260.538	0.181176	-387.07655	-387.067197	-387.066253	-387.111219	35.258	
C	-0.9524924836	 0.8832661254	 0.2035182646	-0.410896
C	-0.0266442012	-0.3050479455	 0.0640444325	 0.014449
C	 1.3779221486	-0.1000614943	-0.4304740763	-0.302318
C	 1.1482562394	-0.573088817	 0.9939112141	-0.143015
C	 1.5204695313	 0.2720537855	 2.1858262718	 0.23648
C	 0.4676858901	 0.7708441907	 3.1788745462	-0.278967
C	 1.3586368947	-0.3417193509	 3.5865467682	-0.286751
C	 2.733312043	 1.1350007195	 2.0813828717	 0.093354
O	 3.0954545663	 1.9146963536	 2.9324001331	-0.2808
H	-0.4295050416	 1.7602875614	 0.5955187141	 0.124918
H	-1.3690218214	 1.154768908	-0.7727630052	 0.118729
H	-1.7941846156	 0.6704027951	 0.8714660916	 0.116323
H	-0.5215552919	-1.2062117502	-0.2891999525	 0.084838
H	 1.8089968703	-0.7946222737	-1.1429315086	 0.112871
H	 1.691875484	 0.929102255	-0.5756607396	 0.114147
H	 1.3528325249	-1.6313004508	 1.1366807604	 0.09055
H	 0.6565676273	 1.7493885606	 3.6056693389	 0.138417
H	-0.5637579186	 0.5447378424	 2.9423613664	 0.122938
H	 0.9548088242	-1.3480520063	 3.6188485897	 0.119319
H	 2.1511759759	-0.1284835188	 4.2944210347	 0.136254
H	 3.3190504639	 0.9997406304	 1.1473306742	 0.07916
