14
gdb 98066	3.04582	1.09457	0.96676	2.2587	60.18	-0.2525	-0.0835	0.1689	1237.4088	0.098131	-511.020856	-511.011046	-511.010102	-511.057119	32.424	
C	 0.6730804487	 1.2793903508	 0.036473185	-0.247853
O	 0.701710298	-0.1505332672	-0.1393225864	-0.225505
C	 0.1768874686	-0.5971378182	-1.2784087062	 0.391529
O	-0.3386118612	 0.0617294291	-2.140251399	-0.350696
C	 0.2708209173	-2.1253766958	-1.3656607883	 0.241619
O	-0.6253444693	-2.8555032651	-1.0262645791	-0.29125
C	 1.5809362422	-2.6364472715	-1.9882877647	 0.340434
N	 1.6040275922	-3.9781412018	-2.119171397	-0.530117
O	 2.4568905855	-1.8521500021	-2.295081733	-0.337209
H	 1.2339719315	 1.7666855367	-0.763827784	 0.155902
H	-0.3571670916	 1.6417768954	 0.0281646187	 0.149947
H	 1.139597791	 1.4642927958	 1.0029356087	 0.144005
H	 0.8011346585	-4.5125979955	-1.8279354916	 0.283197
H	 2.4071242187	-4.4342297808	-2.518055353	 0.275995
