17
gdb 32470	6.15171	0.83709	0.74889	2.4311	74.52	-0.189	0.0272	0.2161	1487.0519	0.134951	-455.152152	-455.142613	-455.141669	-455.187586	33.139	
C	-0.0084571902	 1.3831772138	-0.0799133675	-0.319148
N	-0.0020351948	-0.0650080623	 0.0336923643	-0.38646
C	-1.1104084836	-0.6636262111	 0.092945134	 0.514806
N	-1.3083953932	-2.0307465264	 0.1991302201	-0.438094
C	-2.6736365341	-2.3144284023	 0.1628571249	 0.258359
C	-3.2314356557	-3.7011912109	 0.2170710888	-0.167844
O	-4.600145614	-3.7347312386	-0.1286393298	-0.398532
C	-3.3022161551	-1.1339971638	 0.090650403	-0.133929
O	-2.3752065941	-0.1023519059	 0.0590853347	-0.223308
H	 0.9712626095	 1.716336364	-0.4336508258	 0.114772
H	-0.7717200099	 1.7603772044	-0.774664006	 0.11143
H	-0.187471812	 1.864741129	 0.892015508	 0.114212
H	-0.550876237	-2.6822203148	 0.0967173861	 0.26989
H	-2.6255519398	-4.3669825671	-0.421861578	 0.10163
H	-3.1675976274	-4.1043850242	 1.2351702822	 0.140048
H	-4.6804322338	-3.3841791559	-1.0227145616	 0.287996
H	-4.3413346748	-0.8606051778	 0.0922149627	 0.154174
