20
gdb 106449	2.23792	1.51667	1.09421	4.2237	81.29	-0.2319	0.0162	0.2481	1180.8617	0.170443	-403.10857	-403.099835	-403.098891	-403.142239	32.858	
C	-0.0215400832	 1.5267924119	 0.050839029	-0.391466
C	-0.0088673677	-0.0022989123	-0.0614111076	-0.317214
C	 0.688020896	-0.5434499339	-1.2809434412	 0.327678
C	 2.0816153216	-0.1680506352	-1.8923724764	-0.260631
C	 1.4308503664	-1.2044129273	-2.8542412414	-0.021856
C	 1.0220444379	-2.0317288619	-1.6071479951	-0.260629
N	 0.1209011599	-0.4852225981	-2.7034018123	-0.096305
C	-0.2526509758	 0.6023750891	-3.4481104434	 0.120511
O	 0.0781129116	 0.8012226838	-4.5983006917	-0.322317
H	 0.9951263658	 1.9321961254	 0.0370802619	 0.125638
H	-0.576702564	 1.9903229716	-0.7696624164	 0.129184
H	-0.493251808	 1.8385184087	 0.9870614544	 0.12178
H	 0.4993504651	-0.4273051161	 0.8135098827	 0.113373
H	-1.0320113827	-0.3971031051	-0.0438245993	 0.116676
H	 2.1872958012	 0.8457537887	-2.2818608544	 0.118275
H	 2.9655226799	-0.492329694	-1.3361510388	 0.100025
H	 1.7781720522	-1.5468226714	-3.8254175162	 0.113451
H	 1.8330198734	-2.4787949361	-1.0298781477	 0.101383
H	 0.1672804269	-2.6978647713	-1.7300175278	 0.11028
H	-0.9871047666	 1.2405849536	-2.9166997084	 0.072164
