25
gdb 101099	3.11826	1.05084	0.93194	0.1849	93.16	-0.2801	0.0845	0.3646	1420.7713	0.229199	-352.319408	-352.309831	-352.308887	-352.353967	37.176	
C	 0.0488203545	 1.5410071788	 0.0738069676	-0.39158
C	-0.0122236876	 0.0123808727	-0.0103865678	-0.169107
C	-1.4374112213	-0.574408103	-0.0400658713	-0.118002
C	-2.2166270236	-0.1625642973	-1.2985753696	-0.401161
C	-1.4050477313	-2.0839139833	 0.1031277045	 0.400974
C	-0.7931180789	-2.9129854473	 1.2808032818	-0.266341
C	-1.3783974953	-3.961516473	 0.2970491942	-0.047942
C	-2.6310200903	-3.0523180999	 0.1779678386	-0.269305
C	-0.7489671149	-3.1342578816	-0.8571379941	-0.252039
H	 1.0844687969	 1.8859705122	 0.1557172829	 0.110031
H	-0.3855612729	 2.0196827789	-0.8091221464	 0.11733
H	-0.4934738001	 1.9099148082	 0.9520010041	 0.112051
H	 0.5319295058	-0.3283426405	-0.9016032751	 0.094326
H	 0.5211969987	-0.409299245	 0.8500442777	 0.095979
H	-1.9772250028	-0.182853051	 0.8363418048	 0.066282
H	-3.2234953486	-0.5911801978	-1.2970289835	 0.114811
H	-2.3219340059	 0.9233958625	-1.3714692069	 0.112849
H	-1.7069790603	-0.5109692357	-2.2044723334	 0.113557
H	 0.2956464942	-2.894468293	 1.3853715458	 0.085839
H	-1.2882560245	-2.8185199501	 2.2523803934	 0.0835
H	-1.3629694704	-5.046125921	 0.4092508847	 0.067574
H	-3.2650785811	-2.9680745653	 1.0661699225	 0.083381
H	-3.2309297178	-3.1608619507	-0.7303732747	 0.085608
H	-1.2026230936	-3.2492431384	-1.8460031582	 0.085629
H	 0.3433752311	-3.1305847195	-0.9183760618	 0.085756
