15
gdb 33694	4.07602	1.48308	1.37131	5.0799	72.89	-0.2513	-0.001	0.2502	935.9737	0.115044	-379.626743	-379.620485	-379.619541	-379.657333	25.389	
N	-0.0178502489	-1.1275735321	-0.1992473672	-0.345108
C	 0.0043877325	 0.0217305977	-0.0668222881	 0.170011
C	 0.0158628008	 1.4323423278	 0.1407225841	 0.250787
C	-1.1158843378	 2.2812497209	 0.7512417729	-0.170087
C	-0.4259506156	 3.6025410758	 1.0591076071	-0.08455
C	 1.0739329919	 3.4171737624	 1.1629243428	-0.246257
C	 1.2236836982	 2.3163565002	 0.1385739867	-0.092257
N	 0.2360712236	 2.437974761	-0.9671923954	-0.179885
C	-0.8650731111	 3.2776048081	-0.3441030069	-0.014713
H	-2.0302724591	 1.9179971343	 1.19519051	 0.117501
H	-0.9633612365	 4.3511626922	 1.6266812568	 0.107817
H	 1.6283406977	 4.3169484943	 0.8776015861	 0.123694
H	 1.4039997866	 3.0978188865	 2.1562811116	 0.124402
H	 2.1866910776	 1.9164108651	-0.1562417467	 0.124492
H	-1.5239056498	 3.8520801158	-0.9789913738	 0.114154
