17
gdb 92729	3.30824	1.37787	1.08676	1.9872	70.	-0.2293	0.0075	0.2369	1096.4643	0.137344	-455.133081	-455.125098	-455.124154	-455.165226	31.203	
N	 0.047811444	 1.3427426236	 0.0125047825	-0.559768
C	-0.0417733667	-0.0372675583	 0.0110612926	 0.390313
N	-1.1789738397	-0.6157851967	 0.0043888206	-0.31507
C	-1.2003161825	-2.06929846	 0.0938286608	-0.200516
C	-0.097066788	-2.6941653621	 0.968679786	 0.082978
O	-0.0484062963	-4.1073172274	 0.835319029	-0.436946
C	 1.2495245299	-2.1421545165	 0.5775260854	 0.05326
O	 1.4523902283	-1.8495855029	-0.8047558987	-0.241403
C	 1.2774003691	-0.7517598527	 0.1016349638	-0.060254
H	 0.8509097809	 1.7452740144	-0.4465015109	 0.252461
H	-0.8247352741	 1.804005151	-0.2051142263	 0.255573
H	-2.178670556	-2.3727335324	 0.4868346717	 0.088605
H	-1.1074897554	-2.5089610869	-0.9069628625	 0.128124
H	-0.2619202187	-2.4096624917	 2.0226607202	 0.074998
H	-0.907129273	-4.4592337067	 1.0913194389	 0.287281
H	 2.1171066367	-2.5516282493	 1.0921859362	 0.10493
H	 2.1663131714	-0.1423024353	 0.2595993805	 0.095434
