21
gdb 5954	3.94447	1.21773	1.18097	3.6955	75.45	-0.245	0.0324	0.2775	1140.3731	0.187	-366.302619	-366.292818	-366.291874	-366.336528	36.169	
C	 0.1948747821	 1.5222748027	 0.0082962904	-0.398068
C	-0.0452649221	 0.0104257535	 0.0025284379	-0.213312
C	-1.5227238443	-0.446471112	 0.0142538761	 0.288727
C	-2.246651829	 0.0262764791	 1.2881854091	-0.410335
C	-2.2709103126	 0.0398266162	-1.2404135855	-0.41034
N	-1.4679140902	-1.9261921202	 0.0057902612	-0.298915
C	-2.5284450647	-2.7708859628	 0.0113002007	 0.159853
O	-3.7021567841	-2.4543662533	 0.0239124809	-0.336993
H	 1.2689587543	 1.7304976959	-0.0008952758	 0.117862
H	-0.2403702859	 2.0076912491	-0.8697218705	 0.125658
H	-0.2233969713	 1.9982424525	 0.8996354843	 0.125655
H	 0.4358624528	-0.423140225	-0.8849642824	 0.095875
H	 0.4527442555	-0.4325427627	 0.8759533295	 0.095875
H	-2.3361607227	 1.1159029168	 1.3006556661	 0.112664
H	-3.2487563254	-0.4032674384	 1.3263066134	 0.155371
H	-1.6986079427	-0.2853408389	 2.1834035007	 0.105053
H	-1.7401810429	-0.2621310713	-2.149270698	 0.105048
H	-3.2736106759	-0.3893801763	-1.2638968612	 0.155391
H	-2.3605243881	 1.1295152774	-1.2394919272	 0.112656
H	-0.5544504602	-2.3525819414	-0.005275984	 0.239731
H	-2.1986554128	-3.8309124111	 0.0022058344	 0.072543
