15
gdb 34705	4.25849	1.49289	1.42417	2.8702	71.04	-0.247	0.0195	0.2665	908.5344	0.115115	-379.589238	-379.583092	-379.582148	-379.619889	24.698	
N	-0.0312221355	-1.2319889006	-0.0776306089	-0.329078
C	-0.0317890066	-0.0761454329	-0.0471398444	 0.270911
C	-0.0091651374	 1.3724100612	 0.0180813925	-0.165776
C	-0.1890911344	 2.0929146067	 1.379518982	-0.023202
C	 0.9631097256	 1.7014817301	 2.3088490972	-0.088588
C	 2.1236138916	 1.7291122794	 1.2930383851	-0.088583
C	 1.680588481	 2.980340424	 1.9921338618	-0.02651
N	 0.6884202366	 3.2509551765	 0.8659390272	-0.186676
C	 1.3442573253	 2.1293263486	 0.0372978622	-0.023206
H	-0.6747277098	 1.8116668745	-0.7303078966	 0.138718
H	-1.175535045	 2.3172837961	 1.7820630817	 0.096899
H	 0.9750591123	 1.0890862914	 3.1993310422	 0.109674
H	 3.0209059266	 1.1377973524	 1.4085606605	 0.109673
H	 2.185425933	 3.727630754	 2.5892186338	 0.108849
H	 1.8672906467	 2.3895326086	-0.8814962563	 0.096894
