17
gdb 61971	2.90048	0.88196	0.73088	2.2521	70.65	-0.2798	-0.0029	0.2769	1527.7714	0.133681	-455.15315	-455.143087	-455.142143	-455.189333	34.631	
C	-1.2402942453	 0.8710062662	-0.1904716597	-0.445602
C	-0.1632428313	-0.1495070317	 0.0295041884	 0.420212
N	 0.4728378938	-0.2455336338	 1.1195177542	-0.511034
O	-0.0084391612	-0.9078334011	-1.102390701	-0.24058
C	 0.940912468	-1.9543061683	-1.0811382218	-0.113489
C	 0.8703957259	-2.6585925035	-2.4446137401	-0.029515
O	 1.8864084256	-3.6300626796	-2.5716098131	-0.404443
C	-0.4690193542	-3.2341987537	-2.6754740871	 0.258926
N	-1.4980558233	-3.7338401201	-2.8362180792	-0.309995
H	-0.9829137996	 1.5159723641	-1.0363033758	 0.142028
H	-2.184279363	 0.3751626395	-0.4361559394	 0.149071
H	-1.3607439425	 1.4727244355	 0.7088288747	 0.151961
H	 1.1751580187	-0.9834486092	 1.117225424	 0.219524
H	 1.9610547884	-1.5732520736	-0.9497035943	 0.133142
H	 0.7235559678	-2.6689200615	-0.2751778457	 0.11972
H	 1.0593104053	-1.9137438189	-3.2242796016	 0.157708
H	 1.6603994768	-4.3890354104	-2.0214185523	 0.302367
