16
gdb 18649	2.8238	2.45205	1.90425	2.1203	58.84	-0.2464	0.0704	0.3168	761.1473	0.131927	-420.849061	-420.842333	-420.841389	-420.879804	26.671	
O	-0.044209751	 1.4615026047	 0.1508880538	-0.431344
C	-0.0734453287	 0.0708254477	-0.0325105464	 0.082947
C	-0.4494773309	-0.7761129011	 1.1494702111	 0.022381
O	-0.9554896906	 0.0037744307	 2.2104765156	-0.278081
C	-2.3660773523	 0.1996497551	 1.9930852413	-0.115051
C	-2.6260480558	 0.0967248782	 0.4679661841	 0.101754
O	-2.8320906211	 1.3344850647	-0.1785898984	-0.443186
C	-1.3968563735	-0.681036603	-0.020350894	-0.163843
H	-0.0674999218	 1.5938363671	 1.1117343737	 0.300756
H	 0.6913096512	-0.2787956264	-0.7194305227	 0.109431
H	 0.0928945363	-1.6655896323	 1.4527822117	 0.104108
H	-2.920349735	-0.5772117965	 2.5369959656	 0.103722
H	-2.643927193	 1.1816856931	 2.3832131526	 0.12041
H	-3.5368412012	-0.4834674887	 0.29150103	 0.092543
H	-1.9637510017	 1.758385745	-0.2433680915	 0.293382
H	-1.527841031	-1.4967433081	-0.7206494064	 0.100072
