16
gdb 50199	3.86624	1.0841	0.99772	2.5252	69.47	-0.2371	-0.0489	0.1882	1175.3305	0.123177	-437.858985	-437.850998	-437.850054	-437.892459	29.375	
O	-0.6198106973	 0.6453581996	 0.4936629325	-0.244892
C	 0.4025010924	 0.6462007052	-0.1423603841	 0.151355
C	 1.4681860423	 1.7167057613	-0.0212527995	-0.057849
N	 2.792647632	 1.3505994172	-0.5590237199	-0.331679
C	 2.9425090043	 2.6557224128	-1.2557410674	-0.135093
C	 1.4101792384	 2.9082465076	-1.0263082796	-0.063949
C	 1.1261822689	 2.5700221896	-2.5216025474	-0.372965
C	 2.6526369449	 2.4496229526	-2.7599634569	 0.447541
O	 3.3300796844	 2.3067772604	-3.731862033	-0.289647
H	 0.6378352667	-0.1445544116	-0.8899229428	 0.088246
H	 1.4691051063	 2.0899078467	 1.0110685126	 0.096567
H	 3.5123452118	 1.1226830707	 0.1143776371	 0.237428
H	 3.7542257612	 3.311571007	-0.932652303	 0.091799
H	 1.0011746261	 3.8448728562	-0.6578461164	 0.100434
H	 0.5391774939	 1.6754855008	-2.7414613794	 0.14061
H	 0.6930533037	 3.4031911439	-3.083689663	 0.142095
