21
gdb 113495	3.22269	0.98589	0.8758	2.9711	85.64	-0.2334	-0.0151	0.2182	1427.4355	0.181242	-387.097821	-387.088395	-387.087451	-387.132581	34.895	
C	-0.0607250687	 1.5570570541	-0.3981375932	-0.372963
C	-0.0590281161	 0.1457955439	 0.2023676717	-0.198714
C	-1.420947093	-0.5125879778	 0.1407984961	-0.041872
C	-1.855256603	-1.2767553553	-1.0690692449	-0.340368
C	-1.5467792193	-2.0253037522	 0.2117292075	 0.218921
C	-0.4838974682	-3.0984547192	 0.5136986837	-0.331565
C	-1.5281469042	-3.8534678207	 1.401870522	-0.343525
C	-2.5539706296	-2.7546274328	 1.0498360422	 0.345526
O	-3.7032469279	-2.5539876167	 1.3317591834	-0.319134
H	 0.9325541179	 2.0122825797	-0.3377004288	 0.113428
H	-0.3608660452	 1.5364617445	-1.4507435796	 0.12049
H	-0.7607940492	 2.2104408951	 0.1333381769	 0.119376
H	 0.6712502584	-0.4788685803	-0.3266765454	 0.098035
H	 0.2772046456	 0.1928769073	 1.2462446528	 0.101744
H	-2.2112572735	 0.0141337464	 0.6723979455	 0.103212
H	-2.8966844118	-1.239405788	-1.3715465233	 0.131167
H	-1.1429685656	-1.393726285	-1.880884294	 0.116598
H	-0.1458830366	-3.6644643065	-0.357176017	 0.109082
H	 0.3913631596	-2.73789385	 1.0590235208	 0.109845
H	-1.8136911215	-4.8513154925	 1.0577041897	 0.130542
H	-1.2908923283	-3.910306024	 2.467898484	 0.130174
