18
gdb 30192	4.49753	1.10892	0.92476	2.0725	80.89	-0.1811	0.0448	0.2259	1259.2845	0.148296	-401.951205	-401.942925	-401.941981	-401.983946	31.759	
C	-0.6161354418	 1.5070584563	-0.2988430529	-0.400439
C	 0.0667920995	 0.1813897413	-0.0200099789	 0.064424
C	 0.846051858	-0.5360512121	-1.1905825477	-0.389897
C	 2.0398722845	-0.4659497116	-0.2584782938	 0.329891
C	 3.2067661232	-0.9537834404	 0.2852453132	-0.46239
C	 3.2054458801	-0.4647861	 1.6346797737	 0.335984
O	 4.201913622	-0.6110085251	 2.5576695879	-0.444818
C	 2.039618787	 0.2418534549	 1.8847501249	-0.249059
N	 1.3754800644	 0.2682696134	 0.6767825705	 0.008225
H	 0.0642333842	 2.1931949414	-0.811993461	 0.128561
H	-1.4975836482	 1.3520533358	-0.9299839413	 0.122281
H	-0.9469134881	 1.9819521074	 0.6305493417	 0.126754
H	-0.6122126461	-0.5100876155	 0.4915583958	 0.098027
H	 0.4793748687	-1.5385311011	-1.4264313891	 0.120145
H	 0.9125718426	 0.0451163262	-2.1155924215	 0.113866
H	 3.9699935305	-1.5597537461	-0.1795125406	 0.088808
H	 4.9079241178	-1.128312998	 2.1606036242	 0.295245
H	 1.7328523819	 0.7902676034	 2.7589037449	 0.11439
