13
gdb 125727	3.19027	1.50649	1.02984	3.1059	64.07	-0.2856	-0.0774	0.2082	1070.7608	0.088127	-489.884649	-489.8769	-489.875955	-489.917393	27.852	
C	-0.1511735356	 1.5203575412	 0.1000439629	-0.461544
C	-0.0415191488	 0.0397818341	-0.0476045501	 0.443476
N	 0.193964977	-0.4619294744	-1.1976382802	-0.173093
O	 0.2874226459	-1.8790136527	-1.2786546339	-0.241669
C	 0.1365900377	-2.6660376686	-0.1915487908	 0.389393
O	 0.2208938137	-3.8574123883	-0.2865401244	-0.306855
C	-0.1389390564	-1.9920379244	 1.1294391366	 0.254578
N	-0.3002733442	-2.5946630791	 2.2184916433	-0.456633
O	-0.2156405099	-0.6218998456	 1.1216384788	-0.207352
H	 0.5998711692	 1.8792748395	 0.8102093076	 0.161616
H	-0.0037685088	 1.9985167894	-0.8671736043	 0.168879
H	-1.1365660313	 1.781870374	 0.4973619412	 0.16163
H	-0.2129609785	-3.5987043551	 2.0501433533	 0.267573
