22
gdb 100535	2.5481	1.06894	0.84449	4.1475	80.89	-0.2467	0.0218	0.2685	1464.473	0.192059	-441.518582	-441.507531	-441.506586	-441.555012	39.101	
C	-0.2906854581	 1.4914049015	-0.1934116919	-0.383264
C	-0.1149757846	-0.025776511	-0.1059206149	-0.178103
C	 0.6460438122	-0.4458720404	 1.1705341872	 0.019505
O	-0.0213662605	 0.0081083625	 2.3212291119	-0.438509
C	 0.7387417427	-1.9836730363	 1.2607404132	 0.403789
O	-0.0289566397	-2.5500905758	 2.0339221437	-0.41123
N	 1.6205541116	-2.6651204661	 0.4798314114	-0.089876
C	 1.6247970776	-4.1205279095	 0.5190363785	-0.347902
C	 2.5817011986	-2.0671644539	-0.4274211292	-0.337434
H	 0.6776312467	 1.9987616331	-0.2746597345	 0.107052
H	-0.8877053865	 1.7688642472	-1.0673704171	 0.108799
H	-0.7909854096	 1.8642422148	 0.7031753407	 0.143313
H	-1.0949274167	-0.5178380219	-0.081454532	 0.108312
H	 0.4046574936	-0.3992081635	-0.9966403496	 0.089262
H	 1.6473014642	 0.0064588658	 1.1641510868	 0.079829
H	-0.4485088242	-0.7915527734	 2.6763667592	 0.290769
H	 0.8649388766	-4.449806824	 1.224739573	 0.173568
H	 1.4077243519	-4.5315744444	-0.4746621605	 0.12451
H	 2.6067951046	-4.4916343867	 0.8366768729	 0.125479
H	 3.5806936537	-2.47534577	-0.2311212561	 0.130385
H	 2.3289291412	-2.2864565491	-1.4733477472	 0.130827
H	 2.6287948848	-0.9876253089	-0.3042784254	 0.150919
