21
gdb 60484	4.94602	0.5603	0.55509	1.6616	82.2	-0.2617	0.0491	0.3108	2039.2824	0.179024	-424.185956	-424.174991	-424.174047	-424.223223	38.805	
C	-0.1629601963	 1.5524261824	-0.0401723226	-0.391992
C	 0.054459598	 0.0365654599	-0.0324905825	 0.131271
O	 0.8365665552	-0.3847064812	-1.1412239341	-0.438533
C	 0.6952521921	-0.4564239282	 1.265182616	-0.07926
O	 2.0047869047	 0.0850558922	 1.3173091505	-0.261614
C	 2.7671208137	-0.3671469669	 2.4142388012	-0.044983
C	 4.1505056457	 0.2857995795	 2.3217163843	-0.352951
C	 5.0186501077	-0.1107241522	 3.4216017208	 0.286026
C	 5.7119137523	-0.4550028343	 4.3407184935	-0.444698
H	 0.7824939292	 2.0747853558	 0.1325996843	 0.12302
H	-0.5628779115	 1.863431137	-1.0083574572	 0.123113
H	-0.8680158429	 1.854862794	 0.7418793458	 0.107171
H	-0.912509078	-0.4695507923	-0.1402026527	 0.085032
H	 1.7464004893	-0.1464437232	-0.9250489221	 0.283246
H	 0.1084880119	-0.1405943798	 2.1426257681	 0.089973
H	 0.7429805737	-1.5562026972	 1.2596807638	 0.09718
H	 2.2838162112	-0.0919119892	 3.364232758	 0.104364
H	 2.8635420943	-1.4637524133	 2.3984240385	 0.105383
H	 4.6045030351	 0.0134915869	 1.3613446691	 0.138479
H	 4.02392882	 1.3749182546	 2.3095809957	 0.141275
H	 6.3357025245	-0.7511612546	 5.1472901116	 0.198499
