15
gdb 18439	3.12217	2.07532	1.59013	4.7101	65.19	-0.2583	0.0259	0.2843	831.5146	0.118761	-362.632887	-362.625716	-362.624772	-362.664212	26.746	
C	-0.1781363694	 1.5392512934	-0.0817789521	-0.426404
C	 0.0600170977	 0.0560584373	 0.0870319752	 0.139761
O	 1.107459467	-0.5021906794	-0.7782331903	-0.289792
C	 1.6589988853	-1.2011759541	 0.3209548634	 0.092566
C	 2.2413672387	-0.2594526948	 1.3506936474	-0.207155
C	 2.8646401315	 0.9919092975	 1.015419052	 0.312184
N	 3.3963100356	 1.9887606373	 0.7668358245	-0.348464
C	 0.7399171649	-0.5508441212	 1.3192192442	-0.173681
H	 0.7165408881	 2.1276136969	 0.1235212841	 0.163707
H	-0.5008681024	 1.7447932773	-1.1072253142	 0.135218
H	-0.9778366966	 1.860405993	 0.594256646	 0.122934
H	-0.8633231888	-0.5032411094	-0.1107303515	 0.09869
H	 2.0069070178	-2.2168812156	 0.173395476	 0.123738
H	 2.7303846415	-0.7757628763	 2.1729685731	 0.140421
H	 0.2385747891	-0.9455397119	 2.1922862422	 0.116277
