19
gdb 63134	2.34275	1.85598	1.3608	3.8466	74.64	-0.2291	0.0018	0.2309	1006.9576	0.159212	-423.030726	-423.022541	-423.021597	-423.062777	32.693	
C	-0.154484856	 1.6175046948	-0.0225449623	-0.476817
C	 0.0086269284	 0.10675524	 0.0045659962	 0.423442
O	-1.2431092619	-0.5348631956	-0.2000753866	-0.478404
C	 1.1484621218	-0.5894366952	-0.8286320558	-0.204048
C	 2.4359443921	 0.044808887	-0.2590992897	-0.240423
C	 2.0842341039	 0.032023716	 1.2773472133	-0.241508
C	 0.6810141672	-0.6085680316	 1.2241735281	-0.16561
C	 0.9568396098	-1.7321695954	 0.197047022	 0.444137
O	 0.9892743358	-2.9235916835	 0.1910168859	-0.324519
H	 0.7717904736	 2.1563546107	 0.1857611706	 0.124002
H	-0.5083159774	 1.9410402837	-1.0088987833	 0.11243
H	-0.9036752021	 1.9186883224	 0.7154020651	 0.134007
H	-1.5382006871	-0.3435845407	-1.0970614375	 0.281311
H	 1.0681316409	-0.7379674584	-1.9051082617	 0.073293
H	 3.3207000438	-0.5533141402	-0.4904790267	 0.117625
H	 2.6078879004	 1.0536456547	-0.6418911976	 0.107311
H	 2.7829495938	-0.5719699512	 1.8609142333	 0.117802
H	 2.0677699113	 1.0341614295	 1.7123243301	 0.108597
H	 0.1360405317	-0.7755186069	 2.1508065166	 0.087372
