17
gdb 44177	4.96082	1.00606	0.91383	2.1924	79.32	-0.244	-0.0269	0.2171	1252.724	0.134672	-384.647303	-384.639183	-384.638239	-384.680607	30.971	
O	 0.2051954971	 0.151978054	-0.7683043799	-0.293738
C	 0.0701166782	 1.2158343909	-0.2385337521	 0.403948
C	-1.1464073187	 1.9850904899	 0.320345216	-0.364873
C	-0.175401199	 3.1019168369	 0.7849471447	-0.04041
C	 0.4465702081	 2.857279959	 2.2050317114	-0.17285
C	 1.6888207845	 2.1700166272	 1.5323507356	-0.247961
C	 1.0416941367	 2.3482817232	 0.1288033618	-0.148046
C	 0.7331710818	 4.0435887003	 2.9847342016	 0.292434
C	 0.9809174195	 5.0407169728	 3.6101391812	-0.434607
H	-1.8060656388	 2.3027384419	-0.4950740228	 0.135894
H	-1.7542950957	 1.4773141418	 1.0750963469	 0.127686
H	-0.437680104	 4.1296507214	 0.5452522843	 0.091715
H	-0.1544299612	 2.1635427697	 2.8027775043	 0.105553
H	 2.5939115457	 2.7671323578	 1.647516645	 0.128224
H	 1.9001202528	 1.1445053459	 1.842761283	 0.121775
H	 1.6703124224	 2.7389070717	-0.6719033354	 0.097928
H	 1.1946101205	 5.9154136256	 4.1730820644	 0.197326
