23
gdb 120392	2.79291	0.87135	0.76895	2.852	86.6	-0.2353	-0.0141	0.2212	1614.2468	0.203867	-388.313174	-388.30285	-388.301906	-388.349063	37.734	
C	-0.0626747382	 1.5759305451	 0.2387182765	-0.381495
C	-0.1045677408	 0.057846058	 0.044295377	-0.168335
C	 0.774122263	-0.4225930982	-1.1171750053	-0.17139
C	 0.7307980995	-1.9365310758	-1.3218755807	-0.029699
C	-0.5827807432	-2.4506432418	-2.0000255351	-0.352277
C	 0.2279526067	-2.6233217174	-3.2937977442	 0.390721
O	-0.0601055143	-2.704934106	-4.4533525912	-0.300639
C	 1.5614150549	-2.4842580824	-2.544037573	-0.10281
C	 2.6939345204	-1.6994712842	-3.1916284048	-0.414233
H	 0.9569959897	 1.9212172651	 0.442777376	 0.114492
H	-0.4145994482	 2.0997088377	-0.6569793763	 0.115968
H	-0.6937518678	 1.8887793718	 1.0762984091	 0.113024
H	 0.2185791005	-0.440761711	 0.967833278	 0.09575
H	-1.141374082	-0.2610812718	-0.1232471293	 0.099343
H	 0.4624328825	 0.0858359404	-2.0409458271	 0.096709
H	 1.8105695869	-0.1090167422	-0.9350964484	 0.097024
H	 0.969001043	-2.4389524486	-0.3802136949	 0.06959
H	-0.935272759	-3.411044406	-1.61049106	 0.1262
H	-1.4331063942	-1.765396679	-2.0549394095	 0.12437
H	 1.9057060546	-3.4997417061	-2.3038589744	 0.101306
H	 2.3888903326	-0.6799810773	-3.4431285829	 0.124921
H	 3.5674558147	-1.6409811136	-2.5345282664	 0.117764
H	 3.0014967889	-2.1894878269	-4.1202202829	 0.133695
