25
gdb 118287	4.06281	0.51899	0.48053	2.9279	91.7	-0.2469	-0.0176	0.2293	2332.1372	0.225867	-389.515891	-389.504144	-389.5032	-389.554579	40.907	
C	-0.0345054114	 1.6275252303	-0.0845638929	-0.378856
C	 0.0315145422	 0.1057773182	 0.0769829775	-0.178516
C	-1.3535216499	-0.5523128054	 0.0426857818	-0.163009
C	-1.3548048887	-2.0926901998	 0.0968179778	 0.028459
C	-0.7849074312	-2.6216251417	 1.4209439368	-0.393323
C	-2.7805586489	-2.618470629	-0.1660630221	-0.19557
C	-2.8779498302	-4.1408562314	-0.3767350893	-0.285027
C	-4.3070168566	-4.5770028698	-0.5983302007	 0.161784
O	-4.7105873427	-5.1737268378	-1.5630862403	-0.239377
H	 0.9636970442	 2.0755676271	-0.058914281	 0.11176
H	-0.5004043852	 1.9052855082	-1.0366072699	 0.114332
H	-0.6252039377	 2.0854387503	 0.7167401771	 0.114036
H	 0.6530742572	-0.3202581991	-0.7221291828	 0.094717
H	 0.5399579008	-0.1328375874	 1.0183937396	 0.099334
H	-1.9614682995	-0.1631676156	 0.8726988546	 0.089673
H	-1.8641751011	-0.235874268	-0.8770716237	 0.090127
H	-0.712584393	-2.4543083737	-0.7202553952	 0.073141
H	-0.7597283959	-3.7148940452	 1.4485090274	 0.114202
H	 0.239254551	-2.2758211377	 1.5837631544	 0.120214
H	-1.3907362122	-2.27933354	 2.2690740865	 0.111771
H	-3.431683263	-2.3234953867	 0.6692061122	 0.098031
H	-3.1812870477	-2.119411859	-1.0571203081	 0.106459
H	-2.2770169793	-4.4670937793	-1.231108931	 0.119463
H	-2.5151617921	-4.6654287403	 0.517752616	 0.118798
H	-5.0027323789	-4.289751907	 0.2265768454	 0.067378
