20
gdb 105910	2.16837	1.86593	1.23479	1.6841	79.48	-0.2393	0.0866	0.3259	1092.205	0.169995	-403.047482	-403.038892	-403.037948	-403.080699	32.533	
C	-0.0813099228	 1.3587092964	 0.0246765059	-0.265495
O	 0.057802695	-0.0519610968	 0.0068882781	-0.288804
C	 0.7054854684	-0.5365037992	-1.1086383236	 0.387014
C	 2.1410915405	-0.3330079589	-1.611581429	-0.012438
C	 3.338159591	-0.7918090544	-0.8041187616	-0.420381
N	 1.5812670457	-1.3364208839	-2.6247218438	-0.168743
C	 0.7397453187	-2.031004321	-1.5160743798	-0.06863
C	-0.5281303579	-1.948877335	-2.3724191973	-0.26994
C	 0.2088272748	-0.6260711724	-2.598503043	-0.069533
H	 0.8944332931	 1.8638505708	 0.0147594222	 0.114925
H	-0.6687629812	 1.7165573707	-0.8323977037	 0.113331
H	-0.6039795741	 1.6174434966	 0.9476420437	 0.13194
H	 2.3400099348	 0.6306027176	-2.0978357106	 0.068593
H	 3.1499563836	-1.7429330988	-0.2975741436	 0.120533
H	 4.2104681789	-0.919413517	-1.4532131578	 0.127502
H	 3.5922510454	-0.0505391212	-0.0391548588	 0.119812
H	 1.1434326145	-2.8721491372	-0.9530089328	 0.085949
H	-0.5745122819	-2.6270749594	-3.2280330026	 0.106879
H	-1.4777785119	-1.8995699797	-1.8363418685	 0.108289
H	 0.0058431955	 0.1877833329	-3.2965799235	 0.0792
