21
gdb 88676	3.03443	0.96596	0.88464	1.3786	80.12	-0.2406	0.0779	0.3185	1411.8182	0.180018	-424.189174	-424.179289	-424.178344	-424.224092	37.587	
C	-0.2326481455	 1.5830525252	 0.0347238185	-0.444175
C	-0.0151502772	 0.0869977288	 0.0195419793	 0.390632
O	-1.1582644828	-0.6447128294	-0.3568123018	-0.466222
C	 1.3264055009	-0.4938954987	-0.3670330397	-0.369065
C	 0.8121354672	-0.6132583201	 1.05981094	-0.02964
C	 1.4807362347	 0.1036971787	 2.1886101871	-0.037408
C	 0.8176250285	 0.1684554873	 3.5560684125	-0.338287
C	 2.0504705517	-0.6730726418	 3.3446611037	 0.090346
O	 1.933361017	-2.06553242	 3.2906909847	-0.41358
H	 0.6595481864	 2.1224155856	 0.3630942718	 0.114259
H	-0.4840532585	 1.9452041272	-0.970168305	 0.103219
H	-1.0594849594	 1.8432726302	 0.7032896633	 0.12537
H	-1.3282045848	-0.4624364274	-1.2881472889	 0.276097
H	 1.3295390876	-1.3919756799	-0.974671378	 0.109954
H	 2.1475637677	 0.1909793153	-0.5581428313	 0.101771
H	 0.4378822848	-1.5963433419	 1.3224552563	 0.106634
H	 2.0552054192	 0.9801425365	 1.9022977962	 0.082995
H	 0.8918051629	 1.0797482482	 4.1398619265	 0.107437
H	-0.1201054984	-0.3676982697	 3.6621585032	 0.11807
H	 2.9874034606	-0.3152340828	 3.7721590092	 0.083177
H	 1.7071409973	-2.3784847616	 4.1724009722	 0.288417
