20
gdb 23166	1.93825	1.34954	0.85824	1.5577	79.68	-0.2416	0.0057	0.2473	1366.3099	0.168557	-440.232533	-440.222516	-440.221572	-440.267784	36.661	
C	-0.0175291266	 1.6065144965	-0.0889826843	-0.390746
C	 0.1153481054	 0.0849841193	 0.0106184494	-0.169491
C	 0.7529952725	-0.5248405142	-1.246568889	-0.1099
C	 0.8240489071	-2.0895328794	-1.2797537512	 0.10375
O	 0.5985752321	-2.6847544835	-0.0255126353	-0.425602
C	-0.3362944204	-2.1245291426	-2.3276896474	-0.362416
C	-0.1668257834	-0.624961333	-2.4502157607	 0.422682
N	-0.5393511532	 0.26755873	-3.2682587853	-0.2428
O	-1.3727123382	-0.2795522445	-4.2651392761	-0.393292
H	 0.964702154	 2.0835498678	-0.1814197626	 0.110285
H	-0.6071282379	 1.8925542706	-0.9653565444	 0.136438
H	-0.5053336178	 2.0161668597	 0.8010079082	 0.108519
H	 0.7285744645	-0.1921142127	 0.8748079103	 0.109063
H	-0.8674423331	-0.3684373901	 0.1795971052	 0.101204
H	 1.7092561569	-0.0295217986	-1.4455158393	 0.085162
H	 1.76899918	-2.4341176766	-1.7205171667	 0.075346
H	 0.6149455769	-3.6404732539	-0.1360352684	 0.28753
H	-0.194971092	-2.7082965523	-3.2406143916	 0.121406
H	-1.2908924243	-2.4049411272	-1.8690496795	 0.127811
H	-1.5550466926	 0.4875646447	-4.8182676614	 0.305051
