23
gdb 121407	3.91507	0.83688	0.72632	2.2412	83.16	-0.2416	0.0855	0.3271	1623.6306	0.206801	-425.427	-425.417602	-425.416658	-425.461566	34.975	
C	-0.0566109223	 1.3821889032	 0.0104510049	-0.225975
O	-0.022134788	-0.0237766645	 0.0049796934	-0.236352
C	 0.6860669107	-0.5633655995	 1.1013684409	-0.07118
C	 0.6449469162	-2.0841626423	 1.0195335531	-0.005767
C	 1.4834063561	-2.734181247	 2.1318614129	-0.213277
C	 1.3274609491	-4.2605356589	 2.0978232705	-0.212266
C	-0.1555220261	-4.639786283	 2.0944171081	-0.062193
O	-0.8523377102	-4.0243668513	 1.0256661245	-0.246287
C	-0.795978084	-2.6101338365	 1.0896568325	-0.071431
H	 0.9551171357	 1.8162712061	-0.0360218614	 0.102739
H	-0.6175694786	 1.700429073	-0.8716729731	 0.127396
H	-0.5553745396	 1.7764784506	 0.9104435955	 0.102898
H	 1.732252285	-0.2102875052	 1.0944855781	 0.083471
H	 0.2385633912	-0.2191522875	 2.0517812526	 0.081323
H	 1.0573526308	-2.3796704741	 0.0458050701	 0.087149
H	 2.5376103211	-2.4493051074	 2.036900151	 0.093914
H	 1.1426122178	-2.3571700926	 3.107435073	 0.092444
H	 1.7962777097	-4.6613467048	 1.1908945582	 0.104171
H	 1.8271151055	-4.7240522621	 2.9562873963	 0.092063
H	-0.2902195472	-5.7181584302	 1.96743248	 0.102835
H	-0.6149056979	-4.3537600563	 3.0580384307	 0.079348
H	-1.268249672	-2.2537849537	 2.0244042144	 0.073487
H	-1.384332523	-2.2346341959	 0.2505622238	 0.12149
