17
gdb 19978	3.4792	1.82537	1.48269	1.2842	63.28	-0.2528	0.0645	0.3173	884.4283	0.14332	-400.94199	-400.934504	-400.933559	-400.974002	27.894	
O	 0.1077899531	 1.4003073738	-0.1591580991	-0.42984
C	 0.0442751027	 0.0182140528	 0.0487249308	 0.088228
C	-0.1217213011	-0.5119724081	 1.492006485	-0.117108
O	-1.365913184	-1.1730462194	 1.1521136696	-0.29755
C	-1.3128776231	-0.7050582809	-0.2161215394	 0.053103
C	-2.4641081402	 0.2058328509	-0.5595414209	-0.015972
C	-3.8225257385	-0.0372012804	-0.0322162925	-0.24583
N	-3.0134344312	 1.0869590866	 0.4932445873	-0.34317
H	-0.7155464253	 1.8005871979	 0.1486747996	 0.302535
H	 0.8935505968	-0.4104050145	-0.4866687101	 0.101872
H	 0.6326627627	-1.2257036012	 1.8412309322	 0.111944
H	-0.2573673108	 0.2721621839	 2.247829705	 0.103911
H	-1.2590545944	-1.5436249956	-0.9225240981	 0.085056
H	-2.362469034	 0.6901336372	-1.5285337864	 0.108487
H	-4.6896489877	 0.2519939874	-0.6179727321	 0.122984
H	-3.9629322734	-0.8940938064	 0.6197118177	 0.13164
H	-2.6360943315	 0.7635271159	 1.3841834314	 0.239711
