14
gdb 130314	3.24422	1.25973	0.9819	2.6818	67.35	-0.2442	-0.0144	0.2299	1132.4948	0.102203	-432.874874	-432.866988	-432.866044	-432.907863	28.793	
N	 0.1854740637	 1.3297875845	 0.2398698883	-0.599035
C	 0.082480993	-0.0389234598	 0.0870264288	 0.357493
N	-1.0804324502	-0.6383532637	-0.0497575023	-0.221387
O	-0.778809874	-1.9912596003	-0.2646552498	-0.170259
C	 0.545259128	-2.1497747143	-0.2271524527	 0.001567
C	 1.1734768964	-0.966495865	-0.0170358314	 0.103162
C	 2.6452620117	-0.6719209933	 0.0333273574	-0.463837
C	 3.0141194031	 0.1213115359	 1.2111460406	 0.267893
N	 3.2583319562	 0.7810510485	 2.1281590091	-0.311581
H	 0.8985574758	 1.6247788423	 0.8948425562	 0.273074
H	-0.7050753352	 1.7697877299	 0.4317053706	 0.265683
H	 0.9093401747	-3.1561847369	-0.3721564074	 0.15474
H	 3.2218463991	-1.6022764871	 0.0397360203	 0.166806
H	 2.9640878977	-0.1095938109	-0.8542000677	 0.175679
