18
gdb 57853	2.2261	1.17225	0.9758	4.0366	72.65	-0.2871	-0.055	0.2321	1300.1954	0.14454	-439.115572	-439.105297	-439.104353	-439.15242	35.829	
C	-0.0098110106	 1.4836852433	-0.136531974	-0.394012
C	-0.0305085836	-0.0408506076	 0.0332651684	-0.07537
C	 0.6899553	-0.4817909411	 1.3277407751	-0.396311
C	-1.4511023633	-0.5627959563	 0.0895702464	 0.377877
O	-2.3566177186	-0.014790075	 0.6721598648	-0.324347
C	-1.7756887224	-1.9204037571	-0.6001358357	-0.083057
O	-3.0705000812	-2.3255039197	-0.295278051	-0.406232
C	-1.566972092	-1.7630964993	-2.0562270359	 0.259711
N	-1.3896945449	-1.6219171576	-3.1894657275	-0.316981
H	 1.0213031947	 1.8475368764	-0.130497411	 0.122247
H	-0.4721098747	 1.7836399734	-1.0810211988	 0.135308
H	-0.5558280817	 1.9662002755	 0.6779703869	 0.142037
H	 0.47072035	-0.5142391459	-0.8189869611	 0.109407
H	 1.7329346538	-0.1550173998	 1.2974871548	 0.134243
H	 0.2115386114	-0.0325250633	 2.2029539146	 0.142755
H	 0.6829937247	-1.569109926	 1.454131731	 0.124992
H	-1.0470514119	-2.6652085171	-0.2443806856	 0.1428
H	-3.4787204497	-1.5531065226	 0.1352420685	 0.304934
