17
gdb 95608	2.32511	1.77547	1.04758	6.8069	71.24	-0.2421	-0.0317	0.2104	1110.4034	0.137693	-455.207877	-455.199358	-455.198414	-455.241402	30.828	
C	-0.0515158577	 1.4512053577	 0.0557082174	-0.351266
N	 0.0025292687	 0.0073569526	-0.1141076835	-0.115871
C	-1.2573516478	-0.7213953767	-0.0814321648	-0.153837
C	-1.1391517543	-2.0251971509	-0.8550531726	-0.17516
N	-0.0020131854	-2.7697109832	-0.3487675703	-0.334411
C	 1.1943472651	-2.1846384291	-0.0355015298	 0.326611
O	 2.1917864076	-2.813665792	 0.2307473373	-0.332547
C	 1.2154996716	-0.6310377928	-0.0164316362	 0.315541
O	 2.2758089308	-0.0516099412	 0.0765846834	-0.34967
H	 0.9683970043	 1.831983451	 0.0360103817	 0.17639
H	-0.6332737614	 1.9076249222	-0.7526976023	 0.125685
H	-0.5175128321	 1.7191025579	 1.0131000833	 0.127016
H	-1.5704357525	-0.9246414832	 0.9541681189	 0.120162
H	-2.0285742802	-0.0954247926	-0.5410810686	 0.121173
H	-2.0467604961	-2.6186677226	-0.7138259043	 0.12509
H	-1.0408587105	-1.8120135035	-1.9298360473	 0.12118
H	 0.0358668503	-3.7716744236	-0.4725253024	 0.253913
