17
gdb 81637	3.83518	0.90735	0.84431	2.2913	69.37	-0.2571	-0.0316	0.2255	1358.5818	0.134313	-458.890182	-458.882005	-458.881061	-458.924178	30.377	
O	-0.0272460986	 1.4450722782	-0.3467069093	-0.441674
C	-0.0645029784	 0.0633546299	-0.2791798701	 0.18996
C	 0.0342932392	-0.6067737163	 1.1266096833	-0.018261
O	-1.3075843907	-0.0257502254	 1.4206187553	-0.337495
C	-1.4263610949	-0.6184597961	 0.0583559089	-0.037179
C	-0.6892506141	-1.8710192178	 0.5937427385	 0.018809
C	-0.0212788187	-2.9022395608	-0.3155109654	-0.338645
C	 0.7957393759	-3.8914800511	 0.4919159206	 0.166112
O	 1.9581653353	-4.136008635	 0.303365939	-0.231423
H	-0.5691944686	 1.7496917599	 0.3962172614	 0.289617
H	 0.5357716013	-0.337319345	-1.0957103043	 0.095551
H	 0.7977544797	-0.5090437142	 1.8989458045	 0.106155
H	-2.3956561732	-0.5399083536	-0.4357310274	 0.100663
H	-1.2698769696	-2.3466262258	 1.3887209323	 0.098662
H	-0.8110682235	-3.4725888191	-0.8261290363	 0.129585
H	 0.6262077564	-2.4651494138	-1.0775765531	 0.131582
H	 0.2272925326	-4.3958057339	 1.3083949519	 0.077981
