21
gdb 107250	2.4572	1.56876	1.18952	1.8927	81.72	-0.2206	0.069	0.2896	1143.8912	0.180627	-387.026959	-387.017935	-387.016991	-387.060405	34.976	
C	-0.5631384812	 1.1185460442	 0.0483223825	-0.380789
C	-0.0512635548	 1.3729032582	 1.4737218918	-0.308485
C	 0.7506313517	 0.2271657215	 2.0069760006	 0.386346
O	 0.0486912623	-0.9839505466	 2.3512032639	-0.2919
C	 0.9074385539	-0.3717901491	 3.3289464977	-0.075225
C	 2.3856657079	-0.7598976929	 3.0329815929	-0.145254
C	 2.4883722735	-1.614204951	 1.7926779536	-0.334901
C	 2.2505005687	-0.134568115	 1.6486715139	 0.280439
C	 3.1749780963	 0.8127187472	 0.940163547	-0.500296
H	-1.1880609967	 0.2213736743	 0.0207237709	 0.136098
H	-1.159513796	 1.9632041519	-0.3087872536	 0.112905
H	 0.2650889579	 0.972041938	-0.6524308406	 0.121294
H	 0.5614672237	 2.2823319761	 1.4965548933	 0.103189
H	-0.8972800148	 1.5419818764	 2.1492728952	 0.110633
H	 0.471055709	-0.1260007376	 4.2905134798	 0.101693
H	 3.1928583987	-0.643520644	 3.7446537817	 0.088146
H	 3.4975889829	-1.9327680316	 1.5485578599	 0.105165
H	 1.7093726514	-2.3289008465	 1.5599821465	 0.132008
H	 2.9541018939	 0.8707447994	-0.1328456722	 0.121895
H	 3.1070519683	 1.8285486113	 1.3473329372	 0.116766
H	 4.2153816934	 0.4872753357	 1.0432536181	 0.120273
