16
gdb 126054	3.78751	1.08712	1.04465	4.2821	70.79	-0.2691	-0.0426	0.2265	1182.1355	0.124949	-434.003108	-433.995327	-433.994382	-434.036199	28.51	
C	 1.064110168	 1.17507364	-0.6121306669	-0.403338
C	 0.115317613	 0.1424461979	-0.0582705927	 0.017689
N	 0.6781305478	-1.1254970373	 0.4153259543	-0.337195
C	 0.0315984082	-0.2331521222	 1.391993729	-0.16207
C	 0.9155966668	 0.3318989604	 2.4304210284	 0.376004
N	 0.4598771183	 1.0323965564	 3.4370461277	-0.168913
O	 1.5536475909	 1.3679040823	 4.1859037719	-0.147095
N	 2.7023013865	 0.8663897724	 3.6428301125	-0.066149
C	 2.3309377736	 0.2275658944	 2.5696437611	-0.109038
H	 1.9945528392	 1.2138524127	-0.0417731123	 0.130919
H	 1.3159470027	 0.9409218102	-1.6515506708	 0.128436
H	 0.6051646329	 2.1687009129	-0.5893102278	 0.129942
H	-0.840151162	 0.0867376472	-0.5791489944	 0.097214
H	 0.0740176782	-1.9112169009	 0.1935004361	 0.242608
H	-0.9596404677	-0.4867520553	 1.7582089865	 0.109266
H	 3.0366667336	-0.2899449013	 1.9408588972	 0.161718
