19
gdb 64953	3.34078	1.10922	0.95194	3.5978	77.42	-0.2474	-0.0309	0.2165	1283.4894	0.157515	-423.006066	-422.996999	-422.996055	-423.040953	33.409	
C	 0.1635347474	 1.5308400364	-0.0320319294	-0.491538
C	 0.1689816489	 0.0141111436	-0.0829645272	 0.227945
C	 1.5035341622	-0.7070842176	 0.0913795925	-0.27507
C	 0.508081816	-0.747098492	 1.1986204519	-0.27263
C	-0.7985227439	-0.7068543406	-0.9757329553	 0.30967
O	-0.8000564723	-1.9165523573	-1.0760681702	-0.334562
C	-1.7774969315	 0.1110301477	-1.7896642913	-0.040822
C	-2.0102008798	-0.2846460298	-3.1970223362	-0.158455
O	-2.9622934938	-0.5727202631	-2.1926950715	-0.205513
H	 0.9580156903	 1.8862442402	 0.6305933305	 0.119643
H	 0.3401469587	 1.9760348925	-1.0174499068	 0.124003
H	-0.7813351906	 1.9275698152	 0.3552968926	 0.128172
H	 1.6352072773	-1.6104822697	-0.4919819924	 0.138897
H	 2.3818490892	-0.0798475613	 0.197529384	 0.114748
H	 0.6822561221	-0.1460747521	 2.0844881819	 0.116124
H	-0.0268178556	-1.6759129021	 1.3562102862	 0.140964
H	-1.9302248029	 1.151188188	-1.515824527	 0.103234
H	-2.2921015698	 0.478616391	-3.9212697015	 0.119799
H	-1.467857612	-1.1466148591	-3.580494591	 0.135391
