18
gdb 56339	7.00062	0.49295	0.46954	3.0388	70.79	-0.2556	-0.0254	0.2301	2196.0345	0.145206	-476.27743	-476.267035	-476.266091	-476.31526	34.894	
N	-0.1585176274	 1.3126232933	 0.1806980776	-0.563503
C	 0.070058676	-0.0321358718	 0.1052401648	 0.493451
O	 1.1534479418	-0.5644581655	 0.1567910326	-0.394615
O	-1.1105932007	-0.6949010659	-0.0014020064	-0.262822
C	-0.9990221715	-2.1238503946	-0.0416301974	-0.048883
C	-2.4094061535	-2.6863275693	-0.128625286	-0.218613
C	-2.4063709823	-4.2228309456	-0.1848917646	-0.276707
C	-3.8098283015	-4.7851058636	-0.1410505372	 0.160384
O	-4.2776611835	-5.5402333489	-0.9522560087	-0.232853
H	 0.6427479473	 1.9066905244	 0.055711347	 0.270004
H	-1.0593636141	 1.6691788444	-0.088944534	 0.26479
H	-0.3926596726	-2.4185787756	-0.9047587423	 0.124011
H	-0.4806320444	-2.4749436293	 0.8571478731	 0.122758
H	-2.9846456117	-2.3427974429	 0.7396985645	 0.115121
H	-2.905364937	-2.2809093438	-1.0176994759	 0.12252
H	-1.9078684725	-4.5977952932	-1.0833822448	 0.127912
H	-1.8691145685	-4.6158477863	 0.6912115997	 0.12457
H	-4.4122985439	-4.4356099658	 0.7311092181	 0.072475
