10
gdb 23762	3.36686	2.43679	1.41365	2.0479	51.48	-0.2742	-0.0633	0.2109	750.0746	0.060982	-462.756414	-462.750814	-462.74987	-462.786381	20.682	
F	 0.0031628627	 0.0362553476	 0.0039996368	-0.040032
C	-0.0320002028	 1.3580451242	 0.0109448906	 0.204469
N	-1.189660013	 1.9547630071	 0.0289591923	-0.274681
C	-1.1774127919	 3.2983331466	 0.0354097172	-0.023892
C	 0.0114126286	 4.0080719871	 0.0233954316	-0.023892
N	 1.1997438927	 3.3812568788	 0.0048477757	-0.274681
C	 1.1755624738	 2.0789699725	-0.001224732	 0.204469
F	 2.322224539	 1.4207548585	-0.0194539311	-0.040032
H	-2.1392896064	 3.7997664364	 0.0503966267	 0.134135
H	 0.0265473875	 5.0927892013	 0.0285398123	 0.134135
