13
gdb 21810	6.91835	1.15677	1.0789	3.6448	59.31	-0.2615	-0.0603	0.2012	1029.3682	0.095719	-394.791219	-394.784073	-394.783129	-394.824904	24.002	
O	-0.2818131484	 0.3017988087	 0.7591585952	-0.211085
C	-0.0037153138	 1.0573627054	-0.1291761929	 0.141633
C	 1.3132333512	 1.8409715302	-0.162963516	-0.271973
N	 1.3314291599	 2.8776907835	-1.1709086577	-0.010382
C	 1.7967669447	 2.8018176655	-2.4565659476	 0.017795
N	 1.5851357301	 3.9206630448	-3.0977000574	-0.214697
N	 0.9511796352	 4.7796676431	-2.220980441	-0.213732
C	 0.8082349875	 4.1409977084	-1.0896551451	 0.018335
H	-0.6738622273	 1.2396248114	-0.9984480753	 0.112698
H	 1.4952198203	 2.2676177596	 0.8274665585	 0.167826
H	 2.1255708807	 1.133142676	-0.3595889063	 0.167337
H	 2.2800243487	 1.9223179027	-2.8543452467	 0.147223
H	 0.3546782711	 4.5322867405	-0.1916246877	 0.149022
