17
gdb 16056	3.54757	1.68039	1.43367	3.1065	70.19	-0.2403	-0.0307	0.2095	925.8175	0.141702	-363.829868	-363.822179	-363.821235	-363.86177	28.626	
C	-0.051749392	 1.5879974604	-0.0736225693	-0.426818
C	 0.0402964916	 0.0877971032	 0.0905199849	-0.0201
N	 1.1969207751	-0.7395635641	-0.2543559271	-0.186383
C	 2.4464429495	 0.009069082	 0.1532210531	-0.149877
C	 2.0183977695	 0.1000218115	 1.637101441	-0.325182
C	 0.73010955	-0.6000678893	 1.2223138786	 0.241296
C	 0.1290667436	-1.7490319684	 1.9226209306	 0.073116
O	 0.3936339053	-2.0614741024	 3.059064275	-0.263592
H	 0.7906558129	 2.1258826435	 0.3642088784	 0.129733
H	-0.1072565254	 1.8483518337	-1.1359884403	 0.135011
H	-0.9645876372	 1.9526103977	 0.4073905286	 0.133253
H	-0.8661646701	-0.4251087174	-0.2305307142	 0.103584
H	 3.3104034727	-0.6347154138	-0.0161699875	 0.122185
H	 2.5927366098	 0.9466049337	-0.3903939524	 0.111027
H	 2.6194861525	-0.522054791	 2.3006860241	 0.135774
H	 1.9149062016	 1.0920691618	 2.0840664704	 0.109907
H	-0.5989928693	-2.3259903212	 1.308569306	 0.077067
