17
gdb 64725	3.98111	1.09523	1.03491	5.999	71.95	-0.2549	0.0347	0.2896	1170.2645	0.136117	-417.974764	-417.96661	-417.965665	-418.007698	31.176	
O	-0.1104527508	 1.4165628105	-0.1219895206	-0.478023
C	-0.0063400455	 0.0252521896	-0.0414842479	 0.438132
C	 0.9173368583	-0.4364334204	-1.1701513649	-0.397941
C	 2.3022401426	-0.0083797094	-0.9792681102	 0.278566
N	 3.4025536762	 0.3048620019	-0.8195131986	-0.309973
C	 0.3317601458	-0.5944294872	 1.377901086	-0.290208
C	-1.04022824	-1.2653664992	 1.3604987217	-0.039271
N	-2.0247917607	-0.1638669885	 1.1989848603	-0.358933
C	-1.3521145346	-0.7333237983	 0.0075160417	-0.120937
H	-0.8149795621	 1.6576038179	 0.4966079607	 0.293945
H	 0.8963797196	-1.5289530501	-1.2453664965	 0.148706
H	 0.545842625	-0.0294690265	-2.1168270979	 0.159276
H	 1.1672541312	-1.2970284398	 1.3394833043	 0.119152
H	 0.4990500363	 0.1340475613	 2.1737677519	 0.118212
H	-1.3338374721	-2.2036778403	 1.8127544646	 0.103703
H	-2.9609947502	-0.562326473	 1.2463680204	 0.238693
H	-1.9239301591	-1.1484984587	-0.8144190749	 0.0969
