19
gdb 33874	3.28555	1.52	1.3105	0.9526	85.82	-0.2278	0.052	0.2798	1026.8561	0.161048	-348.68449	-348.677315	-348.676371	-348.715677	30.419	
C	 0.0506602924	-1.1224446062	 0.0476404304	-0.418192
C	 0.0210927701	 0.0810496557	 0.0184058033	 0.232141
C	-0.0452721477	 1.5077276478	-0.0055728537	 0.166367
C	 0.3694368331	 2.2754216019	-1.2525474311	-0.365801
C	 1.1964916209	 2.4152367522	-0.0065055055	-0.071122
C	 0.7940410028	 3.4158256348	 1.0934162425	-0.043273
C	-0.6951383888	 3.7380731524	 0.7968867684	-0.245365
C	-0.8782197482	 2.2265619455	 1.0909188211	-0.0935
C	 0.2309167352	 2.4326208511	 2.1803785571	-0.212386
H	 0.0835536974	-2.1830079134	 0.0722749392	 0.182535
H	 0.8033581907	 1.6584515017	-2.0323214775	 0.123468
H	-0.2383121059	 3.0877018504	-1.6313845767	 0.117611
H	 2.1911486527	 1.9862137734	 0.0191215047	 0.101328
H	 1.5128009432	 4.1990491507	 1.3352940915	 0.065392
H	-1.1341102619	 4.3467985388	 1.5897834908	 0.100837
H	-0.9858017272	 4.1495818054	-0.16995213	 0.094745
H	-1.8507496708	 1.7927752107	 1.3200119589	 0.069765
H	 0.8398784811	 1.5649836313	 2.4459390794	 0.103
H	-0.1319988095	 2.9406892158	 3.0779489073	 0.092449
