17
gdb 52828	2.67632	0.99492	0.95678	3.2896	79.19	-0.2363	0.0197	0.2559	1358.6698	0.134882	-417.994767	-417.984821	-417.983877	-418.0315	34.423	
C	-0.0012576193	 1.5003767693	 0.000040684	-0.499176
C	 0.0391905312	 0.0457283493	 0.0216312214	 0.023868
C	 0.0618980698	-1.1593791187	 0.036273036	 0.075176
C	 0.1112102506	-2.6131008029	 0.0201905286	-0.01877
N	 1.0391465632	-3.2020613023	-0.9448373483	-0.561998
C	 0.1633424985	-3.2945165933	 1.4364900615	-0.175973
N	-1.1699801976	-3.8356258193	 1.1560944568	-0.321756
C	-1.2846249076	-3.3304831563	-0.106079583	 0.411518
O	-2.0997848148	-3.4327170472	-0.9804587977	-0.36233
H	 0.6179556867	 1.9026910756	-0.8092692074	 0.150354
H	-1.0231970311	 1.8644639521	-0.1524817196	 0.15533
H	 0.3660211107	 1.9241126655	 0.9412295856	 0.148976
H	 0.6159916044	-3.1389623663	-1.8677725788	 0.248352
H	 1.8904844341	-2.6481237744	-0.981412644	 0.233261
H	 0.9497523917	-4.0502276803	 1.5077415614	 0.121824
H	 0.1975392609	-2.6069141185	 2.2849836435	 0.116898
H	-1.7366553712	-4.5121866023	 1.6455133299	 0.254446
