19
gdb 39893	2.70806	1.80081	1.61089	1.9822	78.23	-0.2397	0.0189	0.2586	937.0855	0.161872	-385.874302	-385.867432	-385.866488	-385.905138	28.827	
C	 0.0183221975	 1.4767001465	 0.0100689928	-0.301289
O	 1.1834343405	 0.6274816924	-0.0062142164	-0.30902
C	-0.0888855761	 0.0215209316	 0.0029838929	 0.545125
C	-0.5525035475	-0.8956109153	 1.1389152652	-0.159575
C	-2.0802357832	-0.9524528711	 0.8002426236	-0.209016
C	-2.0957365847	-0.9436827412	-0.7655227618	-0.209014
C	-0.5750051607	-0.882919402	-1.1337166805	-0.159581
C	 0.035998804	-2.1999381351	-0.6796284026	-0.075057
C	 0.0492685112	-2.2073979179	 0.6581408079	-0.075056
H	-0.1366426844	 2.0333011402	 0.9340897223	 0.112337
H	-0.154829497	 2.0435969039	-0.9044143741	 0.112338
H	-0.3126841651	-0.5840593127	 2.1552987147	 0.068173
H	-2.553639791	-1.8409272233	 1.2228132294	 0.102549
H	-2.5947441941	-0.0751464821	 1.2033115442	 0.097876
H	-2.5775394001	-1.8274046679	-1.1885643641	 0.102549
H	-2.6179955717	-0.0619552614	-1.1484782952	 0.097876
H	-0.3553258842	-0.5600163534	-2.1511095608	 0.068173
H	 0.3162764213	-3.0061643727	-1.346022096	 0.095307
H	 0.3426170951	-3.0209755887	 1.3098114384	 0.095306
