18
gdb 31712	6.16333	0.86277	0.76767	2.4588	75.16	-0.2141	0.0314	0.2455	1498.418	0.147087	-439.118524	-439.109378	-439.108433	-439.15332	32.293	
C	-0.9360750655	 0.8227854134	-0.0460229236	-0.388719
C	 0.5270508667	 0.3745690524	-0.0747732009	-0.280697
C	 1.0299447012	-0.148758327	 1.2314772111	 0.264621
C	 0.39336344	-0.2845015498	 2.4169393241	-0.139598
O	 1.2953159564	-0.8201339977	 3.326321042	-0.200884
C	 2.4242930932	-0.9664133381	 2.6001384463	 0.489501
O	 3.498620373	-1.4669262859	 3.1944273585	-0.252056
C	 3.3815032157	-1.8187507056	 4.5746862786	-0.244021
N	 2.3494255255	-0.5960150536	 1.3655636618	-0.41275
H	-1.0908320407	 1.6268246819	 0.6810655638	 0.120108
H	-1.2463093586	 1.1946734717	-1.0262346191	 0.117223
H	-1.5999410232	-0.0055372566	 0.2228030462	 0.120083
H	 0.6696255009	-0.4019251067	-0.8371409617	 0.121461
H	 1.1713994134	 1.2067946281	-0.3856816996	 0.121482
H	-0.5932383911	-0.0838880298	 2.7927551754	 0.139748
H	 2.6193346605	-2.5900590525	 4.7206759815	 0.139695
H	 4.360248593	-2.2029400316	 4.8611279002	 0.145105
H	 3.1296534996	-0.9450765324	 5.1832857554	 0.1397
