23
gdb 104155	2.4981	1.19464	1.06662	1.1963	89.06	-0.2356	0.0209	0.2564	1319.4466	0.203928	-388.307341	-388.297159	-388.296215	-388.342237	38.064	
C	-0.3838846309	 1.1829221193	-0.1044509101	-0.242202
O	 0.0337156112	-0.1605315246	-0.1582290634	-0.287089
C	 0.9330895158	-0.5229794185	-1.2301736858	 0.376323
C	 2.3326236174	 0.0306270981	-0.9448444616	-0.443743
C	 0.8850252568	-2.0689111146	-1.2849275485	-0.245776
C	-0.1618585656	-2.4163686404	-2.3650399552	-0.305985
C	-0.23126424	-1.1560299657	-3.2032144235	 0.321865
C	-0.9344796852	-1.1301636885	-4.523082153	-0.491107
C	 0.3809266328	-0.1396158107	-2.5910139004	-0.218431
H	 0.4512017633	 1.8884489518	 0.0209546845	 0.098076
H	-0.9544506965	 1.479292999	-0.9963008925	 0.101997
H	-1.0367476539	 1.2726121885	 0.7682637405	 0.121316
H	 2.6894033903	-0.3249185359	 0.0269216045	 0.119066
H	 3.0371782703	-0.2929525736	-1.7167946223	 0.114038
H	 2.3403275772	 1.1250440602	-0.9302934044	 0.111497
H	 1.8652008162	-2.452317054	-1.5841498346	 0.095139
H	 0.6504526643	-2.4733099748	-0.2981927988	 0.107947
H	 0.1193617094	-3.2949513097	-2.9579975261	 0.096481
H	-1.1461285089	-2.6398121044	-1.9319312297	 0.112533
H	-1.9876599749	-1.4184185171	-4.411358733	 0.128186
H	-0.9001262983	-0.1395192433	-4.9843845919	 0.122366
H	-0.4900047467	-1.8504231482	-5.2217357555	 0.125423
H	 0.4561882958	 0.866300377	-2.9911789193	 0.082079
