16
gdb 6068	5.00017	1.03086	0.88895	1.835	62.79	-0.2486	-0.0237	0.2249	1263.5379	0.129052	-417.123299	-417.114154	-417.113209	-417.158407	31.654	
C	-0.1083811689	 1.4219715036	-0.1646672463	-0.476084
C	-0.0136615589	-0.0839541681	-0.0589282788	 0.374186
O	 0.9993038548	-0.6944794941	-0.3217320363	-0.301675
C	-1.2678287113	-0.8107617565	 0.4086955179	-0.237911
N	-1.0493401427	-2.235442962	 0.4310171938	-0.347633
C	-2.0600088107	-3.0742047335	 0.0063555105	 0.449789
N	-1.6536158735	-4.387296497	-0.1794101326	-0.561659
O	-3.1992202001	-2.6976835274	-0.2027194289	-0.390732
H	 0.871828168	 1.8407261597	-0.3940171748	 0.148658
H	-0.8148939859	 1.692924697	-0.9576560266	 0.152709
H	-0.4927985786	 1.8541897951	 0.7650929958	 0.143745
H	-1.5352777527	-0.4164888181	 1.4013836821	 0.127606
H	-2.1150161204	-0.5696291543	-0.2455051303	 0.156573
H	-0.0928463929	-2.4862987966	 0.2117379232	 0.251181
H	-0.8873625759	-4.7249308848	 0.3830874813	 0.250726
H	-2.4274589105	-5.0290883431	-0.25688701	 0.260522
