16
gdb 31932	2.98428	1.20779	0.86615	5.5193	82.7	-0.1981	-0.0353	0.1628	1284.1903	0.124244	-437.926236	-437.91766	-437.916716	-437.959959	30.638	
C	 0.0092424396	 1.4769338117	-0.1783765144	-0.333973
N	 0.1693639364	 0.0416275349	 0.0054555323	-0.392583
C	 0.6290153934	-0.7567338614	-0.9954031284	 0.451746
C	 0.6391378923	-2.1316073684	-1.1558291966	-0.289614
C	 1.3141125403	-2.3579189458	-2.3756075655	-0.209
C	 1.6722568366	-1.1359745817	-2.8911896665	 0.238675
O	 1.2358550088	-0.1454598399	-2.0224709124	-0.191279
C	 2.3655454143	-0.765641447	-4.0935944639	 0.05157
O	 2.6293859582	 0.3645885802	-4.4570236349	-0.311608
H	 0.9460608449	 1.9062828692	-0.5379535746	 0.167091
H	-0.7816555865	 1.7313500883	-0.8968288615	 0.133543
H	-0.2307432292	 1.9250765734	 0.7875845634	 0.132583
H	-0.4743655038	-0.4067957796	 0.6367376299	 0.256971
H	 0.2208290119	-2.8594002962	-0.4798781739	 0.107861
H	 1.5205116825	-3.3125638871	-2.8364264004	 0.126321
H	 2.6544019	-1.6578685407	-4.6945614027	 0.061695
