18
gdb 18343	3.19596	2.15541	1.4124	1.6541	75.95	-0.2193	0.015	0.2342	911.2521	0.154362	-347.782376	-347.77499	-347.774046	-347.813875	28.106	
C	-0.0825403584	 1.4348284824	-0.0619610473	-0.494635
C	-0.0192241881	-0.0463137915	 0.1175142505	 0.157589
C	-0.9839242754	-0.9347860213	 0.3400232451	 0.121249
C	-2.3993448743	-1.2794669585	-0.0782969585	-0.315314
C	-1.7368271995	-2.5061248495	-0.8169446417	-0.248699
C	-0.4838783905	-2.3219733606	 0.1190434677	 0.104503
O	 0.844881241	-2.2054941195	-0.3530021777	-0.279427
C	 1.2605795407	-0.8494524092	-0.1146255842	-0.147505
H	 0.5044459747	 1.9581386727	 0.7039622445	 0.130792
H	 0.3309795328	 1.7381365717	-1.0325250961	 0.125243
H	-1.1111239176	 1.7995717085	 0.0036917778	 0.127363
H	-3.0419513809	-1.6058323093	 0.7452229025	 0.113774
H	-2.9396195334	-0.5464247703	-0.6806576779	 0.111285
H	-2.2638292574	-3.4622318366	-0.7693174502	 0.099833
H	-1.4860125198	-2.2605812351	-1.8504668202	 0.116276
H	-0.5290982784	-3.0133749333	 0.9732077984	 0.074346
H	 1.8009858286	-0.4829341271	-0.9989414017	 0.10493
H	 1.963570896	-0.8144886337	 0.7344345889	 0.098397
