21
gdb 111570	3.12443	1.40557	1.19139	1.289	81.73	-0.2605	0.0795	0.34	1110.8387	0.18536	-387.047759	-387.040271	-387.039327	-387.079657	30.702	
O	 0.1770270949	 0.6293050978	 1.0194582466	-0.426968
C	-0.1359363355	 0.3355475838	-0.3384775652	-0.1288
C	-1.4820331064	-0.3731633698	-0.3384804689	 0.087042
C	-2.132563739	-0.6732437917	-1.7077732912	-0.082818
C	-1.1006436411	-1.6075668721	-2.3971531874	-0.244864
C	-1.5070803564	-2.5830105217	-1.2846352122	-0.020481
C	-2.9501377278	-1.9844776073	-1.3030558122	-0.022859
C	-3.0168209942	-2.1127761718	 0.2255816399	-0.247634
C	-1.4909334795	-1.8482990782	 0.1324340572	-0.04866
H	 1.0600462619	 1.0087373467	 1.0476018543	 0.28458
H	-0.2008243824	 1.2586752536	-0.9389077392	 0.080584
H	 0.6464983351	-0.2929719416	-0.7856341625	 0.086531
H	-2.1453967863	 0.2294284909	 0.2919261951	 0.07502
H	-2.5992965851	 0.1543819086	-2.2428804221	 0.056527
H	-1.4687923227	-1.9655567178	-3.3639207677	 0.093527
H	-0.0646323954	-1.2777567653	-2.5105327737	 0.087359
H	-1.3030331105	-3.6533054202	-1.3004795566	 0.06159
H	-3.7292877622	-2.3200667117	-1.9874019785	 0.06267
H	-3.623129262	-1.4176837401	 0.8155991602	 0.088453
H	-3.2521325879	-3.1422344124	 0.5127645628	 0.091733
H	-0.8030514176	-2.1268802398	 0.9292459713	 0.06747
