19
gdb 78918	4.53614	1.27714	1.27121	1.3691	78.49	-0.2287	0.0756	0.3043	1064.7168	0.159773	-385.815266	-385.807829	-385.806885	-385.846642	30.459	
C	 0.1220872157	 1.5483252088	 0.0555542623	-0.526244
C	-0.0249001313	 0.0639463987	-0.0088104968	 0.34629
C	 0.8630830947	-1.01490807	-0.59270394	-0.141746
C	 0.4704013675	-1.0410756612	 0.8998841612	-0.141668
C	-0.829956942	-1.8632345034	 0.8249816692	-0.060608
C	-0.586861352	-2.9907321909	-0.2006302369	 0.124344
O	-1.8091246051	-3.6591218584	-0.4509454107	-0.445891
C	-0.2997010801	-1.82955934	-1.1907748002	-0.100218
C	-1.2301474379	-0.8798041497	-0.3413156433	-0.107161
H	 1.1463389232	 1.8249837084	 0.3303456554	 0.119326
H	-0.0996568053	 2.0181610786	-0.9102038677	 0.118405
H	-0.5506676136	 1.9879286469	 0.8016987847	 0.119477
H	 1.8935108658	-0.9475279864	-0.9177500813	 0.080645
H	 1.206632238	-0.9933620869	 1.6920950932	 0.081016
H	-1.4238000032	-2.0300114252	 1.7219489321	 0.068598
H	 0.2302246979	-3.6990991677	 0.002740482	 0.056119
H	-1.7163863297	-4.1492524868	-1.2739624315	 0.281376
H	-0.3701660303	-1.9567965143	-2.2715672679	 0.056708
H	-2.2466300024	-0.6007059806	-0.6018236436	 0.071233
