15
gdb 98063	2.80119	1.21245	0.85073	3.7205	65.46	-0.2474	-0.0968	0.1506	1285.9065	0.11132	-491.152481	-491.142885	-491.141941	-491.188456	32.826	
C	-0.1579574738	 1.387766102	-0.7617525942	-0.340243
N	 0.2096421705	 0.0332131054	-1.1253224782	-0.327015
C	 0.9230987283	-0.7622015882	-0.2980100196	 0.341138
O	 1.3331856569	-0.4684514021	 0.8066806748	-0.358234
C	 1.2255378674	-2.1819498372	-0.8543621448	 0.195882
O	 1.856407148	-2.9597171302	-0.1849097862	-0.26751
C	 0.736801363	-2.6412534332	-2.2625604519	 0.341929
N	 1.1156043348	-3.9035223958	-2.5236940651	-0.498665
O	 0.091268012	-1.9345920745	-3.024671928	-0.373061
H	 0.2369103608	 1.5893947997	 0.2342857798	 0.170811
H	 0.2624142685	 2.1103385579	-1.4696993125	 0.133758
H	-1.2467813076	 1.5074132385	-0.7493369306	 0.133757
H	-0.060574601	-0.3601980486	-2.0223331087	 0.281694
H	 1.6478883541	-4.4048426507	-1.8300876472	 0.289246
H	 0.868121668	-4.3296152032	-3.4009761676	 0.276514
