23
gdb 93165	2.48873	1.37105	1.0213	0.1199	93.34	-0.2331	0.0231	0.2562	1277.2207	0.207913	-351.163973	-351.155125	-351.154181	-351.197194	35.102	
C	-0.5099443232	 1.52358678	 0.078187597	-0.391113
C	-0.0496598747	 0.052299528	 0.0269455164	-0.006009
C	 0.4440015861	-0.3134643316	-1.3915232162	-0.265634
C	 0.7470784945	-1.7806174471	-1.5887663683	-0.071803
C	 1.8477909004	-2.4692992798	-1.2815704386	-0.01424
C	 3.1401401038	-2.0268456207	-0.6475758817	-0.237453
C	 3.1779075179	-0.6324460272	 0.0111067599	-0.268076
C	 2.2171915115	-0.4872992657	 1.169789877	-0.066203
C	 0.9086824645	-0.2263606173	 1.1610837915	-0.024765
H	 0.3251519039	 2.1988145958	-0.1374555813	 0.116762
H	-1.3006657742	 1.7135300628	-0.6555382374	 0.10908
H	-0.898895709	 1.7831012135	 1.0679221584	 0.111891
H	-0.9385701658	-0.5668264658	 0.2225156846	 0.07923
H	-0.3525311601	-0.034241832	-2.0913549754	 0.091212
H	 1.2949868786	 0.3174501847	-1.6581171386	 0.105973
H	-0.0701415361	-2.3510943188	-2.0277267391	 0.080256
H	 1.8335943313	-3.5332333875	-1.5179467299	 0.078875
H	 3.4111777591	-2.776552244	 0.1093945706	 0.105089
H	 3.9413460315	-2.0842561733	-1.4000788892	 0.104256
H	 4.1951922284	-0.47320946	 0.3860173721	 0.093403
H	 3.0214262147	 0.1393305667	-0.7443706345	 0.110434
H	 2.6664867198	-0.6578152273	 2.147207881	 0.080884
H	 0.4222354872	-0.1807929733	 2.1361866317	 0.077951
