20
gdb 10757	3.40702	1.40092	1.29873	0.943	70.55	-0.2636	0.0701	0.3337	1045.1355	0.174732	-386.115697	-386.106306	-386.105362	-386.149222	34.613	
C	-0.1798707834	 1.6460838051	 0.0502726696	-0.417415
C	 0.0560144474	 0.1245056064	 0.0563206518	 0.23305
C	 0.8362536839	-0.2994080258	 1.3108105845	-0.439992
C	-1.2968683667	-0.6137046168	 0.0219631459	-0.085712
O	-2.061935588	-0.2318547161	 1.1563689968	-0.428336
C	 0.7820758188	-0.2531442337	-1.2301362629	 0.074737
C	 2.2284864775	-0.4730909489	-1.3485170188	-0.190604
O	 1.3177824881	-1.5759878574	-1.3409296005	-0.248037
H	 0.7704860717	 2.188763842	 0.0770857681	 0.109174
H	-0.7227707807	 1.9607592947	-0.8486290031	 0.105888
H	-0.7739751879	 1.9403167636	 0.9180029569	 0.137309
H	 0.1932524919	-0.2133170069	 2.1890478045	 0.133319
H	 1.1687389974	-1.3379871962	 1.2234975568	 0.126878
H	 1.7140788772	 0.3342846872	 1.4696920915	 0.105148
H	-1.8264648142	-0.357607056	-0.9105924246	 0.078889
H	-1.1100933272	-1.6975539188	 0.0122596235	 0.103304
H	-2.862806501	-0.7627856596	 1.1712166869	 0.288949
H	 0.2640880526	 0.0744740003	-2.1355262472	 0.084857
H	 2.7227862724	-0.2840784063	-2.3006513316	 0.112559
H	 2.86806379	-0.3946950069	-0.4726143782	 0.116035
