25
gdb 59526	3.82621	0.86125	0.77478	0.1557	94.15	-0.2593	0.085	0.3443	1611.3169	0.228065	-352.342929	-352.33297	-352.332026	-352.377764	38.535	
C	-0.219560389	 1.4621139625	 0.0332414348	-0.389237
C	 0.0167376068	-0.051987524	-0.0529905117	 0.019365
C	 0.7716587606	-0.4196784201	-1.3377760785	-0.389235
C	 0.7490248099	-0.5678930092	 1.1845357597	 0.082771
C	 0.0325773897	-0.4837309525	 2.5687804538	-0.329082
C	 0.5325779642	-1.9036694012	 2.8613442804	 0.385262
C	 1.3949976994	-2.2976058971	 4.0255453943	-0.315545
C	 0.0158973105	-2.8987568347	 3.8534982874	-0.331754
C	 0.8891175232	-2.1096652394	 1.3840957944	-0.329082
H	 0.7332957246	 2.0046687413	 0.0596829133	 0.109533
H	-0.7828332239	 1.825149814	-0.8329257925	 0.107552
H	-0.7805977263	 1.7312985515	 0.9339149987	 0.114632
H	-0.9657555289	-0.5473951875	-0.0833431662	 0.063889
H	 1.7594205618	 0.0566088895	-1.3596090562	 0.109532
H	 0.9219075568	-1.5008565992	-1.4209353053	 0.114632
H	 0.2250930979	-0.0883504292	-2.2270480848	 0.107552
H	 1.7356675838	-0.0923095375	 1.2451675736	 0.063583
H	 0.3478404702	 0.3099384792	 3.2520736581	 0.094385
H	-1.0578287342	-0.4378748803	 2.4606737525	 0.093356
H	 2.2553306261	-2.9324926613	 3.8363040594	 0.107646
H	 1.541051798	-1.5766053645	 4.8242272233	 0.107646
H	-0.7672064761	-2.5834613399	 4.5363642045	 0.107428
H	-0.0532840266	-3.9386717091	 3.5489335897	 0.107428
H	 0.1142032079	-2.6626929724	 0.8396284291	 0.093356
H	 1.8600814135	-2.5606851287	 1.1604853081	 0.094385
