20
gdb 17704	5.66426	1.43282	1.39128	0.001	79.57	-0.2786	0.0958	0.3744	998.6975	0.177337	-311.800687	-311.793321	-311.792377	-311.831765	29.453	
C	-0.1922649352	 1.6204721734	-0.0970955508	-0.419525
C	-0.0571320987	 0.1062773042	-0.0411344313	-0.000265
C	 1.189148428	-0.5757246957	-0.6480848708	-0.048936
C	 2.0897325968	-0.2477523385	 0.5952376754	-0.051923
C	 2.5523250312	-1.7166528175	 0.7286844596	-0.000264
C	 2.9897834987	-2.2489712563	 2.0849455451	-0.419525
C	 1.0678083384	-1.8084107634	 0.3109079827	-0.048945
C	 0.6539883369	-0.5554206823	 1.1613401922	-0.051932
H	 0.7423995697	 2.121493499	 0.1758949251	 0.112533
H	-0.4673665518	 1.9548418004	-1.1038383933	 0.112549
H	-0.9709559844	 1.9721574108	 0.5892021068	 0.112348
H	-1.0039061239	-0.3779890611	-0.3153533816	 0.057622
H	 1.5247939678	-0.6079318221	-1.6871614203	 0.061096
H	 2.6693997542	 0.6630326652	 0.7551293707	 0.064507
H	 3.2529027982	-2.0320016998	-0.0560682195	 0.057622
H	 2.3034921618	-1.9428063569	 2.8814445298	 0.112534
H	 3.03119819	-3.3440946477	 2.0840362079	 0.112547
H	 3.9889150141	-1.8834860535	 2.3480193124	 0.11235
H	 0.4500753409	-2.6923831348	 0.1366285139	 0.061098
H	 0.3555524872	-0.5528047333	 2.2111197257	 0.064509
