19
gdb 87435	4.45406	1.21533	1.12071	2.6526	81.17	-0.226	0.0782	0.3042	1146.7273	0.159814	-381.936348	-381.928827	-381.927883	-381.96819	30.039	
C	-0.0571191763	 1.5530604961	-0.1842974279	-0.391327
C	-0.0281642938	 0.0537013831	-0.0106727717	-0.114088
N	 1.3030921929	-0.6016341927	-0.1461530434	-0.404911
C	 0.6198995424	-0.6161348257	 1.1296202015	 0.461116
C	 1.1477464331	-0.2028909527	 2.4903228321	-0.123051
C	-0.100646851	-0.7771355975	 3.2330443843	-0.055296
C	 0.8253647586	-1.5933067033	 4.1255633736	-0.187558
N	 1.5786684773	-1.674888354	 2.8005266266	-0.159371
C	 0.2107819662	-1.7487415317	 2.0502287904	-0.145531
H	 0.8292758194	 2.007130441	 0.2662010619	 0.127048
H	-0.0706046986	 1.8217227179	-1.2459577444	 0.121778
H	-0.9474505563	 1.9849898904	 0.2857334212	 0.114674
H	-0.8749941183	-0.4753816967	-0.4485891075	 0.083236
H	 1.2263643773	-1.5014093244	-0.6145090952	 0.232005
H	 1.7835954468	 0.6312612949	 2.7877004302	 0.089183
H	-1.0458345442	-0.2670728055	 3.4478308061	 0.067596
H	 1.3815190193	-1.070734924	 4.9106309505	 0.102325
H	 0.473385776	-2.5647688868	 4.4881976556	 0.100382
H	-0.251731131	-2.7141097285	 1.8345953861	 0.081791
