17
gdb 87470	3.76784	1.21458	1.09911	2.5935	74.67	-0.2515	-0.0035	0.248	1133.6155	0.135926	-417.91543	-417.907538	-417.906594	-417.947859	30.212	
C	-0.0605270158	 1.5323472119	-0.0765723074	-0.39168
C	-0.0128152155	 0.030527278	 0.0483920234	-0.113643
N	 1.3249244614	-0.6150598837	-0.1381515537	-0.418046
C	 0.67132453	-0.6647628937	 1.1434039948	 0.508267
C	 1.2057085251	-0.2348908886	 2.5224371815	-0.262608
N	-0.1427411205	-0.7323946351	 3.0561272308	-0.30931
C	 0.250118366	-1.8265917436	 2.059321113	-0.289706
C	 1.6714999681	-1.7082405906	 2.6876381683	 0.440927
O	 2.5197966137	-2.3671292341	 3.1992698581	-0.319952
H	 0.8400852322	 1.9819680567	 0.3490987231	 0.126884
H	-0.1245433362	 1.8325637735	-1.1276540732	 0.123292
H	-0.9332899568	 1.9343698291	 0.4480714438	 0.127644
H	-0.8633269236	-0.496081761	-0.383008856	 0.093706
H	 1.2430335679	-1.4988549351	-0.6353216526	 0.237184
H	 1.6469616651	 0.706445245	 2.840019668	 0.10913
H	-0.0359057417	-1.0762148931	 4.0153717778	 0.234832
H	-0.3897256693	-2.6827346655	 1.8532940603	 0.103078
