16
gdb 29383	3.7993	0.99358	0.79225	1.5202	77.19	-0.1918	0.0258	0.2176	1378.9225	0.123629	-400.735873	-400.727152	-400.726208	-400.769843	32.454	
N	 0.1314136321	 1.4237642809	 0.1984899157	-0.605124
C	 0.0384479572	 0.0381539615	 0.0065537046	 0.228301
C	-0.7859568957	-0.652543003	-0.8300429539	-0.10517
O	-0.4912226218	-1.9944844877	-0.7823159446	-0.191056
C	 0.523650686	-2.1461888148	 0.1013722575	 0.397761
C	 0.9990610597	-3.5523555777	 0.3081384535	-0.480987
C	 2.079354027	-3.6562690173	 1.2816900084	 0.317918
C	 2.9694363248	-3.7504573955	 2.0824908516	-0.447339
C	 0.8946999026	-0.9447470581	 0.6154790654	-0.33713
H	 0.3527177799	 1.6688118622	 1.1549632515	 0.245254
H	-0.7037904288	 1.9187432263	-0.0861544621	 0.242528
H	-1.5798687657	-0.3666989292	-1.4986039168	 0.118312
H	 0.1546666586	-4.1797889074	 0.626893227	 0.150928
H	 1.328744523	-3.9713786838	-0.6531583183	 0.152267
H	 3.757102222	-3.8374541383	 2.7891465832	 0.198971
H	 1.6825877493	-0.7734682081	 1.3315893974	 0.114567
