15
gdb 75749	2.97918	1.55733	1.12286	2.3967	68.99	-0.2575	-0.0676	0.1899	1030.51	0.112012	-457.765174	-457.757552	-457.756607	-457.797393	28.964	
O	 0.1879572028	 1.3215683109	-0.353441546	-0.436376
C	-0.0011239443	-0.0344773859	-0.0598315525	-0.049569
C	 0.532925576	-0.4070154666	 1.3348643205	 0.335699
O	 1.50245601	 0.1209953659	 1.8317602328	-0.343077
C	-0.3945087101	-1.4016438364	 1.909826688	-0.20154
C	-1.5126525556	-1.4374747183	 1.1654133612	-0.11969
C	-1.4510173953	-0.500094834	 0.0138968653	 0.383318
C	-2.5891111508	 0.3103928727	-0.4454784284	-0.234059
O	-2.1605364622	-0.8396015875	-1.1775914006	-0.280839
H	 0.9454774236	 1.6017649746	 0.1814050433	 0.296625
H	 0.510317574	-0.6802551716	-0.7951076916	 0.113417
H	-0.1959315689	-1.9501027709	 2.8212796036	 0.133036
H	-2.3852368426	-2.0564890027	 1.3416615929	 0.135367
H	-3.5562165518	 0.2196181102	 0.0469031114	 0.119326
H	-2.3702624947	 1.2714603696	-0.9047579898	 0.148362
