21
gdb 122085	3.14638	0.73774	0.62502	2.7397	81.13	-0.2339	0.0138	0.2477	1839.7437	0.180716	-420.398165	-420.387163	-420.386219	-420.435403	37.621	
C	 0.6284242492	 0.9485145039	-0.9847623507	-0.391005
C	-0.1276978594	 0.1823397783	 0.095883855	-0.099488
N	 0.7979293117	-0.5466277943	 0.9608492779	-0.30939
C	 0.1363330614	-1.3348951143	 1.9843551229	-0.158214
C	 1.1623224957	-1.9274257017	 2.9618601634	-0.008668
O	 0.4548773693	-2.6227515863	 3.9571449214	-0.230538
C	 1.2546184795	-3.058571299	 5.0432841196	-0.248937
C	 2.1101858949	-2.8183456954	 2.247591238	 0.262514
N	 2.8379121185	-3.5156108337	 1.6814521287	-0.333869
H	 1.176675069	 0.2641621653	-1.6423371449	 0.118164
H	-0.0629774977	 1.523227586	-1.6077086737	 0.11789
H	 1.3506521929	 1.6362987823	-0.5359897313	 0.128611
H	-0.6891267293	 0.8849819561	 0.7253162553	 0.104368
H	-0.8782177634	-0.4805974467	-0.3736871021	 0.082553
H	 1.3788496812	-1.1530358053	 0.3877075396	 0.228502
H	-0.513957766	-0.6798390247	 2.5736986979	 0.120712
H	-0.4927982021	-2.1562079062	 1.5998980946	 0.106435
H	 1.7539290556	-1.1034775678	 3.3903318655	 0.121783
H	 0.5815812327	-3.5431264116	 5.7527988513	 0.139369
H	 2.0180994577	-3.7793174417	 4.7213000663	 0.134833
H	 1.7522929787	-2.2116802932	 5.5380345752	 0.114374
