11
gdb 343	8.69706	2.39967	1.90493	5.1006	50.92	-0.2622	-0.0399	0.2223	616.0271	0.084203	-281.480993	-281.474271	-281.473326	-281.51108	22.896	
C	 0.0383332522	 1.4329391693	 0.0100616867	-0.348169
N	 0.0412525895	-0.0184411377	 0.0195046983	-0.255221
C	-1.0891843365	-0.606168907	-0.004924399	 0.270988
N	-2.3476602241	-0.0433731778	-0.0797845181	-0.553756
C	-1.1007809031	-2.0588113525	-0.0037913514	 0.275546
N	-1.1499808449	-3.2133485938	 0.0061047715	-0.316741
H	 1.0674989866	 1.7958348028	 0.0323160413	 0.140331
H	-0.4477370924	 1.8377253173	-0.8905868319	 0.127657
H	-0.4821151747	 1.8548207089	 0.8855750558	 0.115971
H	-2.4384955652	 0.9260251518	 0.1786374898	 0.268456
H	-3.1383802572	-0.6248261513	 0.147378227	 0.274938
