14
gdb 16831	3.84574	1.89716	1.43178	2.8128	57.31	-0.2479	-0.0337	0.2142	832.1889	0.106904	-419.673806	-419.666967	-419.666022	-419.704869	25.752	
O	-0.124859623	 1.4585617211	 0.0802886413	-0.433077
C	 0.0065768747	 0.0544604098	 0.0114640126	 0.110215
C	 0.7235198437	-0.606310726	 1.2149303453	-0.384541
C	 0.0458098539	-1.9741410944	 1.3640794469	 0.413422
O	 0.5440704727	-2.9953642032	 1.7582958186	-0.310367
C	-1.3529999382	-1.8231802118	 0.8155776932	-0.086087
O	-1.9715799462	-0.6190824589	 1.3047945042	-0.237319
C	-1.374671739	-0.5817187564	 0.0157427548	 0.044019
H	 0.7528358035	 1.8487341109	 0.0206952465	 0.290352
H	 0.5076210146	-0.2475609824	-0.9227704694	 0.082558
H	 1.8018725975	-0.7193241217	 1.0933456897	 0.123938
H	 0.5269620242	-0.0113487021	 2.1125418206	 0.153534
H	-1.9974677757	-2.6804684459	 0.6514410891	 0.118668
H	-2.0535005228	-0.4374279191	-0.8200018833	 0.114683
