18
gdb 72630	2.56457	1.43134	1.24289	4.2353	78.01	-0.2306	0.0325	0.2631	1085.3779	0.148329	-398.106059	-398.097093	-398.096149	-398.139253	34.04	
N	-0.0800468387	 1.4924637757	 0.1203447684	-0.593769
C	-0.040939199	 0.0768846905	 0.0793044198	 0.301189
C	 0.7605745168	-0.8108003596	 1.0381664747	-0.269251
C	-0.4438231355	-1.8147221964	 1.0796989343	-0.292007
C	-1.2049132753	-0.892156297	 0.1080908854	 0.274845
N	-2.584627454	-0.565229287	 0.0626280205	-0.586354
C	-0.3735137806	-0.7878715899	-1.1698512531	-0.296966
C	-0.9330678328	-0.0969321835	-2.2913655258	 0.287119
N	-1.3474043337	 0.4669946164	-3.2139009124	-0.347496
H	 0.6264583599	 1.9111016584	-0.4779268577	 0.241055
H	-0.9840634875	 1.8257075569	-0.2026392687	 0.255457
H	 1.7116830899	-1.1986892298	 0.6629144484	 0.101875
H	 0.9270029576	-0.3159484574	 1.9965437321	 0.120079
H	-0.2614656712	-2.8398288409	 0.7410892978	 0.100269
H	-0.9130078356	-1.8478187931	 2.0664620187	 0.107447
H	-3.1292785558	-1.2578383762	-0.4408373323	 0.243286
H	-2.973703898	-0.4704615256	 0.9945844704	 0.238108
H	 0.2743130234	-1.6192601113	-1.4400722206	 0.115116
