22
gdb 101107	3.21017	1.11848	0.97951	2.7184	82.74	-0.2228	0.0746	0.2975	1314.6392	0.193608	-404.258152	-404.248824	-404.247879	-404.292899	34.749	
C	 0.0356086611	 1.3457466445	 0.1021818111	-0.228988
O	-0.0991002561	-0.0422082015	-0.0939007661	-0.253562
C	 0.6350969986	-0.5681769953	-1.1934810385	-0.033366
C	 2.1362984063	-0.6633795911	-0.904345921	-0.412995
C	 0.0224692778	-1.920306493	-1.4840330157	 0.355866
C	-0.0607708468	-3.1762388016	-0.5810707287	-0.20135
N	-0.793007966	-3.6478888517	-1.8517676663	-0.150357
C	-1.4486769795	-2.2544541032	-1.8175761662	-0.212984
C	 0.3477402031	-2.9369543867	-2.602775935	-0.224024
H	 1.0507950654	 1.6366692958	 0.4089583823	 0.106614
H	-0.2243373248	 1.9116253035	-0.8065598855	 0.102748
H	-0.6576781125	 1.6256533287	 0.899549797	 0.127545
H	 0.4787016455	 0.0795865889	-2.0749478916	 0.060744
H	 2.5745878734	 0.3215978014	-0.7227233302	 0.11783
H	 2.314243762	-1.2875527908	-0.0233342214	 0.126776
H	 2.6614507385	-1.1064268956	-1.7564261305	 0.120489
H	 0.8580704765	-3.7346485258	-0.3802802364	 0.095872
H	-0.7021524397	-3.1287482382	 0.3019510516	 0.107493
H	-2.1914119109	-2.1386388233	-1.025162896	 0.106678
H	-1.8429610664	-1.9363325745	-2.7874573945	 0.09357
H	 0.0914619992	-2.6707606522	-3.632725607	 0.0972
H	 1.2992577554	-3.4745347684	-2.5560294817	 0.098199
