22
gdb 77507	2.0564	1.56015	1.46545	1.9585	83.91	-0.1938	0.0697	0.2635	1114.5918	0.191236	-404.281474	-404.271343	-404.270399	-404.315514	38.4	
C	-0.0605795366	 1.4953505685	-0.0717613742	-0.344534
N	-0.060586553	 0.0327109881	 0.0054593598	-0.163962
C	-1.1667296826	-0.710655906	 0.7412695336	 0.284925
C	-2.6076871337	-0.6316840847	 0.3284194992	-0.527748
C	-0.1990332882	-1.9276536334	 0.6971711152	-0.289604
C	 0.645358011	-0.6963054505	 1.143226099	 0.30583
C	 2.1242928848	-0.594576567	 1.3765889564	-0.523598
C	-0.5123774892	-0.3915781744	 2.1339135357	 0.067735
O	-0.5527467452	 0.8919900141	 2.7065016472	-0.435124
H	-0.3004301933	 2.0337760017	 0.8487336641	 0.12384
H	 0.9304822896	 1.8135078492	-0.4154683916	 0.111438
H	-0.7737511072	 1.7887972704	-0.8511592337	 0.108156
H	-2.7200054434	-0.8810438611	-0.7315908607	 0.132082
H	-3.2180816785	-1.3294945461	 0.9115312483	 0.118644
H	-3.0064421422	 0.377257255	 0.4833115213	 0.120608
H	-0.3519212674	-2.7285149049	 1.4241561819	 0.084216
H	 0.0257462958	-2.2875362575	-0.3055495591	 0.103373
H	 2.6753016468	-0.8350876189	 0.4620046331	 0.127588
H	 2.4005988978	 0.4172252911	 1.6908383179	 0.131784
H	 2.4395030262	-1.2884379156	 2.1626977542	 0.120371
H	-0.6778031447	-1.158072258	 2.9074976033	 0.058872
H	-1.3563693667	 0.9614533701	 3.2309141388	 0.285112
