15
gdb 124140	3.70637	0.95656	0.76395	1.9048	81.12	-0.2056	0.0086	0.2142	1438.341	0.11311	-416.812816	-416.804039	-416.803095	-416.847957	31.133	
C	-0.0002472653	 1.5200262007	 0.0050226703	-0.510056
C	 0.0291714308	 0.0659218716	 0.0114312227	 0.213444
C	 0.0476851582	-1.1403666128	 0.0164179192	-0.118755
C	 0.0529086268	-2.5512227602	 0.021418552	 0.04818
C	 1.1390894481	-3.4155304991	 0.0786887207	-0.151851
N	 0.6495191294	-4.6704609454	 0.0584038243	-0.196657
N	-0.7074504391	-4.7125683831	-0.0093811656	-0.322199
C	-1.0613660564	-3.4393314927	-0.0313687528	 0.294713
O	-2.3482910414	-3.0552631552	-0.0970662112	-0.422466
H	 0.5408668004	 1.9300546378	-0.8556417392	 0.145678
H	-1.030149255	 1.8904048747	-0.046170305	 0.151568
H	 0.4552133839	 1.9360848245	 0.9111773622	 0.145677
H	 2.195837799	-3.2082098159	 0.1308922015	 0.140541
H	 1.1603190211	-5.5348272056	 0.0868159263	 0.278742
H	-2.8837506705	-3.8584654094	-0.1211834153	 0.303439
