19
gdb 70380	2.38787	1.52562	1.34704	4.2961	79.41	-0.2515	0.0282	0.2797	1065.8561	0.159209	-382.053734	-382.044814	-382.04387	-382.086687	34.397	
C	-0.1139785503	 1.5379406492	 0.0166483372	-0.506365
C	 0.0391098169	 0.0437450209	 0.0263230526	 0.360025
C	-0.8111224907	-0.8594706779	 0.8854863069	-0.347129
C	 0.6802849612	-0.9082515054	 1.0440946996	-0.078052
C	 1.2666939737	-1.7750701923	-0.0690093489	-0.290322
C	 0.6382047929	-0.7780481828	-1.142581904	 0.069504
N	-0.3098343472	-1.2058982712	-2.1575418381	-0.563623
C	 1.7187733712	-0.040955348	-1.8092529818	 0.290001
N	 2.5868483998	 0.5265638097	-2.3196283819	-0.350909
H	 0.8140950788	 2.0329591831	-0.285826967	 0.143498
H	-0.9005648105	 1.8446159811	-0.6818184457	 0.135139
H	-0.3872863339	 1.9050611766	 1.0107390476	 0.11852
H	-1.3577266376	-0.3333849937	 1.6617066166	 0.120786
H	-1.3474659899	-1.7180936787	 0.485777272	 0.099937
H	 1.1777892454	-0.662212991	 1.9734543313	 0.096184
H	 2.3566277633	-1.7952583876	-0.1042941071	 0.128953
H	 0.8853718148	-2.7999980038	-0.1307169638	 0.098932
H	 0.1331671299	-1.8186626623	-2.8353922801	 0.240126
H	-1.0683860477	-1.7221561859	-1.7255801554	 0.234796
