18
gdb 23124	2.52846	1.22913	0.86602	1.1158	76.72	-0.2364	0.0086	0.245	1304.7566	0.146816	-439.049915	-439.040919	-439.039974	-439.083931	33.268	
O	-0.0346207747	 1.4442839964	 0.0166942326	-0.425095
C	 0.048686757	 0.0280974584	 0.0775395787	-0.07909
C	-1.3825547428	-0.5168295983	 0.014791781	-0.125153
C	-2.091737754	-0.2356724199	-1.2907778537	-0.059211
C	-2.5152729122	-1.3443229292	-1.8966736298	-0.090594
C	-2.1812497645	-2.5939367032	-1.1198483375	-0.347375
C	-1.4388809369	-2.0371029204	 0.0787618551	 0.376134
N	-0.8976246028	-2.6791872695	 1.0334431884	-0.224177
O	-1.0670858315	-4.0669864927	 0.8719353305	-0.392341
H	 0.8587606126	 1.7991266267	 0.0331755006	 0.288493
H	 0.6312813191	-0.3781129406	-0.7639420033	 0.086612
H	 0.5182023189	-0.3143950137	 1.0102818874	 0.105979
H	-1.9255295211	-0.0704447689	 0.8596208205	 0.107664
H	-2.2134419117	 0.7758795719	-1.6566267985	 0.110638
H	-3.0470019651	-1.3760336418	-2.8408978036	 0.096757
H	-3.0668944703	-3.1634560361	-0.8062581865	 0.132626
H	-1.5584114547	-3.3069784558	-1.6761123947	 0.132595
H	-0.6232713353	-4.4179325732	 1.6512636026	 0.30554
