18
gdb 31342	3.29452	1.22994	0.95805	2.19	81.75	-0.1971	0.0518	0.2489	1233.453	0.149013	-401.940802	-401.932406	-401.931462	-401.975409	30.604	
O	 0.2230330312	 0.9219179506	 0.8727318476	-0.417364
C	-0.0304699648	 0.0716111298	-0.2488752105	-0.206147
C	-1.421171404	-0.4598076726	-0.1650449311	 0.091878
C	-1.8428334032	-1.743836821	 0.1078722863	 0.279771
C	-1.7213296924	-3.2223130638	 0.4452411471	-0.385019
C	-3.3000253359	-3.2116791189	 0.431798605	-0.168263
N	-3.200598149	-1.7827047331	 0.0989633034	 0.015684
C	-3.7312951357	-0.5491915408	-0.1641488213	-0.161008
C	-2.6390712306	 0.2847258139	-0.3351537493	-0.205018
H	 1.0864874551	 1.3262859547	 0.7386172154	 0.278657
H	 0.102552563	 0.6345375547	-1.1867677791	 0.085568
H	 0.6813969739	-0.7685771496	-0.2737080388	 0.078748
H	-1.2675858601	-3.8608341189	-0.3175949633	 0.121604
H	-1.280391853	-3.4615367459	 1.4164983311	 0.126264
H	-3.7708562718	-3.8190317843	-0.3467383748	 0.124369
H	-3.77878658	-3.4110445274	 1.3948324171	 0.12678
H	-4.790267265	-0.3568481129	-0.2157658153	 0.11813
H	-2.6936260477	 1.3407254852	-0.5572059595	 0.095367
