21
gdb 36768	5.92453	0.55517	0.52936	1.4528	84.92	-0.245	0.0526	0.2976	2048.7619	0.181014	-387.036109	-387.026139	-387.025195	-387.072614	35.358	
C	-0.058123177	-1.2176468529	-0.1575355594	-0.434632
C	-0.0569683656	-0.0192981221	-0.0633673124	 0.290679
C	-0.0205155183	 1.43360934	 0.0488703262	-0.355309
C	 1.4112273466	 2.0057056038	 0.0190737948	-0.176064
C	 1.4366937454	 3.5325506358	 0.1440301796	-0.209711
C	 2.8448346338	 4.1125862999	 0.0985275256	-0.028501
C	 3.5640123234	 4.1513066611	-1.2716328229	-0.074383
O	 3.6897738411	 5.5863785017	-1.2198776972	-0.271042
C	 2.9790531576	 5.6511648399	 0.0325027451	-0.090303
H	-0.0722310515	-2.2759590554	-0.2403533418	 0.194006
H	-0.607406649	 1.8778984096	-0.7659840152	 0.130543
H	-0.516229047	 1.74092856	 0.9793386714	 0.129586
H	 1.991960574	 1.5548157784	 0.8324640338	 0.110864
H	 1.8962114984	 1.6959757758	-0.9142551711	 0.114082
H	 0.8374311302	 3.979338885	-0.6618121765	 0.10023
H	 0.9541828276	 3.830503921	 1.0853852433	 0.09859
H	 3.4602834668	 3.6670472057	 0.8857137607	 0.07946
H	 4.5406310089	 3.6555083295	-1.327038816	 0.101751
H	 2.952900748	 3.8238055704	-2.1247491377	 0.095031
H	 2.0278696813	 6.1936425637	-0.062083603	 0.095241
H	 3.5778961055	 6.1229142691	 0.8211642929	 0.099882
