19
gdb 81693	2.30523	1.79421	1.54387	2.7043	69.6	-0.2432	0.0559	0.2992	961.8613	0.161821	-460.152066	-460.144699	-460.143755	-460.183442	30.435	
O	-0.1918571018	 1.6850134058	 0.2203792053	-0.444777
C	-0.1174944678	 0.3027081952	 0.1412800242	 0.129759
C	 0.1611766207	-0.6249020407	 1.3586556589	 0.023584
C	-0.6151652031	-0.2474030521	 2.6216709931	-0.216609
C	-2.0370718839	 0.2560661037	 2.28422294	 0.081489
O	-1.9671423629	 1.6977742389	 2.3118514554	-0.428006
C	-2.5283133628	-0.2571221533	 0.9054145188	-0.238754
C	-1.355279762	-0.6299139604	-0.0045775457	 0.029035
O	-0.5942037918	-1.6660845301	 0.6753566691	-0.296206
H	-0.7829498718	 1.9257889761	 0.9546838262	 0.292541
H	 0.5932148157	 0.0602062304	-0.6522309578	 0.099947
H	 1.1890773739	-0.9306132187	 1.5725076514	 0.076263
H	-0.6772541973	-1.1419550087	 3.2492129055	 0.114667
H	-0.1033736603	 0.5280820201	 3.2001679641	 0.119639
H	-2.7374539318	-0.0575205186	 3.0676135691	 0.084457
H	-2.8343482771	 2.0447352375	 2.0748322826	 0.290047
H	-3.1379259474	-1.1572785387	 1.0401640501	 0.116147
H	-3.1716649746	 0.5000572902	 0.4395586663	 0.091609
H	-1.6777620337	-0.9383501867	-1.0031532166	 0.07517
