16
gdb 102796	1.87836	1.43647	0.84323	13.1538	66.54	-0.1955	-0.0303	0.1653	1287.152	0.12302	-512.146376	-512.136824	-512.135879	-512.182235	32.577	
N	 0.083136037	 1.0906050543	 0.0483907436	-0.426084
H	 0.0887061786	 0.1151754863	-0.2522054511	 0.322528
H	 1.0348996357	 1.3287291015	 0.3906506666	 0.339311
H	-0.1817877376	 1.6800492244	-0.7406042095	 0.322301
C	-0.7949680062	 1.2966842979	 1.2925846316	-0.211559
C	-0.0057353426	 0.8049564788	 2.493169269	-0.04421
O	 1.3398170996	 1.2738918079	 2.2349292091	-0.260995
C	 2.3010945308	 1.1682383768	 3.2062479657	 0.164287
O	 3.4169164342	 1.5253228888	 2.9730925309	-0.289613
C	-0.7348363139	 1.3670479097	 3.7956750181	 0.380526
O	-1.9665397877	 1.3177165912	 3.643380633	-0.460125
O	 0.010460272	 1.7410310061	 4.7046707644	-0.450391
H	-0.9720866692	 2.3707662017	 1.3527949327	 0.180069
H	-1.7380252144	 0.7737426664	 1.1693878012	 0.184467
H	 0.0032660712	-0.2927897352	 2.5277048642	 0.101305
H	 1.9086539924	 0.7554226932	 4.1400328705	 0.148183
