18
gdb 85221	2.40381	1.15174	0.82838	3.1736	75.1	-0.2405	-0.0384	0.2021	1357.4665	0.144421	-439.080032	-439.070522	-439.069578	-439.116004	33.033	
C	-0.1700619591	 1.5221793046	 0.1119774298	-0.333279
N	-0.0375779684	 0.0783097997	 0.0783676292	-0.093138
C	-1.2552865142	-0.7191705359	 0.3583379202	-0.287249
C	-0.3965714006	-1.607582718	 1.2654636833	 0.387242
O	-0.5221336755	-2.668472562	 1.7953211424	-0.283891
C	 0.7433248997	-0.5766292124	 1.158265589	-0.09714
C	 2.137469473	-1.1092437372	 0.7980162086	-0.272435
C	 3.1187470997	 0.016691765	 0.552359311	 0.143119
O	 3.9965472221	 0.3330415703	 1.3139064956	-0.233416
H	 0.8067472146	 1.9924534238	-0.0364817971	 0.130933
H	-0.8244598175	 1.8507622961	-0.7012092245	 0.131572
H	-0.5898020946	 1.8975577543	 1.0640356628	 0.101546
H	-2.0272186746	-0.184211293	 0.9364764704	 0.120882
H	-1.7252344983	-1.1878442708	-0.5124463898	 0.137563
H	 0.7980522717	 0.0276834895	 2.0807211713	 0.10433
H	 2.504933116	-1.7275285884	 1.6220171761	 0.137711
H	 2.0526276511	-1.7178974746	-0.1094341945	 0.120117
H	 2.9631226047	 0.5678389391	-0.4024834738	 0.085532
