19
gdb 72243	2.4194	1.71561	1.47057	1.4253	74.65	-0.2349	0.0771	0.312	998.2635	0.15949	-422.999684	-422.991634	-422.99069	-423.031721	31.777	
C	-0.1178771929	 1.4989517413	-0.0169795223	-0.524845
C	-0.0154518913	 0.0054072792	 0.0210999897	 0.289088
C	 0.004010498	-0.9513898601	-1.1487198644	-0.207276
C	 1.2724011873	-1.7918886326	-1.0781242942	-0.103341
O	 1.831279099	-1.5203698474	 0.2130325163	-0.264814
C	 0.8075606554	-0.9009831618	 0.9777822875	 0.031676
C	-0.4444362505	-1.826204879	 1.1580844911	-0.322201
C	-1.0447824542	-1.103688579	-0.0468712	 0.33626
O	-2.3943772716	-0.9384267967	-0.2994071281	-0.464927
H	 0.8366276559	 1.9574097548	-0.2995980598	 0.124448
H	-0.8720550502	 1.8157201477	-0.7441266664	 0.129691
H	-0.4085809419	 1.9064045105	 0.9578045165	 0.121431
H	-0.3690402481	-0.6022298319	-2.104945831	 0.090884
H	 1.0792084663	-2.8686274177	-1.1868048857	 0.092804
H	 2.0004933174	-1.5000454729	-1.8444663496	 0.104625
H	 1.2538426802	-0.4749680288	 1.8756020675	 0.084892
H	-0.2649054452	-2.9058775466	 1.1083560461	 0.090653
H	-0.9983535435	-1.5853982968	 2.070027436	 0.105825
H	-2.7165429004	-1.7162895421	-0.768208779	 0.285129
