22
gdb 108529	2.74341	1.60243	1.22903	1.6308	85.29	-0.2256	0.0856	0.3112	1111.6005	0.19636	-367.161714	-367.153809	-367.152865	-367.194029	32.045	
C	 0.0651900004	 1.5305624882	 0.1750231328	-0.380083
C	-0.0282855937	 0.0350709223	-0.159553849	-0.296336
C	-1.4362274733	-0.5298976452	-0.0676125797	 0.385573
C	-2.4855061684	 0.0089533541	-1.0449624184	-0.306116
C	-3.689682788	-0.8494449292	-0.5900567384	-0.170223
N	-3.1402614926	-1.6793981981	 0.5058731801	-0.12754
C	-1.7251693579	-2.0691659491	 0.0844452094	-0.077763
C	-1.3295666027	-2.031669219	 1.5715934488	-0.245508
C	-2.1858479332	-0.7831284318	 1.2945365383	-0.064631
H	 1.1024121061	 1.8761018976	 0.1279149442	 0.113378
H	-0.5180362496	 2.1395380186	-0.5223235644	 0.119985
H	-0.3070881035	 1.7334010833	 1.1850017629	 0.117579
H	 0.348352616	-0.1331583926	-1.1774377634	 0.096968
H	 0.6452527315	-0.5185793118	 0.5040327397	 0.097339
H	-2.6575525701	 1.0829918037	-0.9256873562	 0.098928
H	-2.1984763792	-0.1648966852	-2.0879304437	 0.09496
H	-4.5246905317	-0.2546332308	-0.2077371766	 0.10137
H	-4.0769744676	-1.503098697	-1.3774561193	 0.101753
H	-1.5539023266	-2.8595899953	-0.6513816998	 0.069216
H	-1.7980796878	-2.790802889	 2.1987108504	 0.105521
H	-0.2779343892	-1.8839160479	 1.8161306424	 0.095557
H	-2.567804269	-0.0434822256	 2.0030371598	 0.070073
