20
gdb 123219	5.57288	0.47276	0.4487	4.0973	77.81	-0.2697	0.0313	0.301	2342.1681	0.169351	-440.28823	-440.277641	-440.276697	-440.325873	35.974	
O	-0.0654580087	 1.4480970269	-0.1329324305	-0.419025
C	 0.0034993188	 0.0398515889	-0.0419423458	-0.059727
C	-1.3825287062	-0.5822012239	 0.0179617298	-0.073815
O	-2.0479660578	-0.2145414379	-1.1791457384	-0.260633
C	-3.4010885333	-0.6033295734	-1.2244088821	-0.052865
C	-3.9846449829	-0.1427902159	-2.5545077675	-0.198479
C	-5.4684528373	-0.5345793018	-2.6847094611	-0.342473
C	-6.0502760768	-0.1046705911	-3.9538787345	 0.25949
N	-6.4979516444	 0.2409243481	-4.9613740937	-0.299561
H	-0.6688656607	 1.6353289139	-0.8613655082	 0.288659
H	 0.5539871636	-0.3946522802	-0.8916012396	 0.095873
H	 0.5540664044	-0.2001793729	 0.8733719714	 0.11122
H	-1.3179401023	-1.6787973844	 0.1089047663	 0.090221
H	-1.9309844705	-0.194537858	 0.8911022947	 0.09814
H	-3.4895892587	-1.6991493588	-1.1255145274	 0.092547
H	-3.9592267234	-0.1582490083	-0.3824641763	 0.094117
H	-3.8794365123	 0.9431404764	-2.6390618955	 0.131236
H	-3.409970875	-0.5858129123	-3.3733370324	 0.134511
H	-5.5860989218	-1.6216871505	-2.6019043728	 0.155124
H	-6.0541801946	-0.0931928249	-1.8694842165	 0.155442
