21
gdb 7271	3.77116	1.11741	0.91986	4.178	79.17	-0.3114	0.0366	0.3481	1293.3689	0.187148	-329.158683	-329.1488	-329.147855	-329.193562	35.664	
C	 0.0546544897	 1.5407625157	-0.0228072163	-0.403129
C	 0.0098542308	 0.0049043962	 0.0337845381	 0.041968
C	 0.786026426	-0.4778178287	 1.2709227313	-0.403097
C	-1.4455908495	-0.5288070977	-0.0056735793	 0.043563
C	-2.2411583938	-0.0028432136	-1.2096400673	-0.417866
C	-1.46261661	-2.080871982	-0.001550461	-0.355733
C	-2.8116368712	-2.6401725661	 0.05182316	 0.266244
N	-3.8832323453	-3.07067898	 0.1023991896	-0.316758
H	 1.0874995562	 1.8937336341	 0.0574364458	 0.114588
H	-0.3557848956	 1.9367941969	-0.9541834034	 0.120368
H	-0.5093644052	 1.9804491568	 0.808764118	 0.116025
H	 0.5233473838	-0.3783682871	-0.8612753191	 0.073059
H	 0.2718568304	-0.1858902391	 2.1945184521	 0.118381
H	 0.9263857305	-1.561850388	 1.2930641957	 0.114995
H	 1.7830145395	-0.0271852969	 1.2940260238	 0.117511
H	-1.9488763833	-0.1967510222	 0.9129148342	 0.09063
H	-2.3837399795	 1.0781722234	-1.1576533864	 0.124804
H	-1.7244659733	-0.2301795443	-2.1501205961	 0.114463
H	-3.2323679278	-0.4625643724	-1.2530823437	 0.143506
H	-0.9660826016	-2.4599702261	-0.903967995	 0.145917
H	-0.9092304209	-2.477345219	 0.8538584692	 0.15056
