12
gdb 25123	3.15284	1.5085	1.14517	2.9199	65.09	-0.2702	-0.106	0.1641	990.0381	0.077715	-472.659444	-472.652424	-472.65148	-472.69141	25.539	
O	-0.0352440954	 0.3479519407	-0.9274303643	-0.272018
C	 0.0045037244	 1.2553057445	-0.1622387464	 0.448879
O	-1.1992911286	 1.7090495562	 0.4162422923	-0.20314
C	-1.5677140528	 2.9963244739	 0.2956067341	 0.084783
C	-0.8473536676	 4.0656392544	-0.0965882046	-0.250464
C	 0.601417041	 4.1753193351	-0.2604814923	 0.326426
O	 1.1579289141	 5.1696602812	-0.6859505678	-0.322383
C	 1.4455603438	 3.0541456959	 0.2973778992	-0.050067
N	 1.1593516563	 1.8176845425	 0.352151605	-0.219719
H	-2.6218967425	 3.0972984249	 0.5341907971	 0.15817
H	-1.3877536594	 4.997531869	-0.2207686932	 0.137882
H	 2.4122701667	 3.3763044917	 0.6892605808	 0.161651
