19
gdb 76558	2.54753	1.22402	1.14726	2.0839	71.74	-0.2254	0.0492	0.2746	1174.7821	0.157753	-460.116695	-460.107445	-460.106501	-460.150691	34.915	
O	-0.0254636159	 1.295995883	-0.0031575524	-0.429686
C	-0.0008533813	-0.1100732864	 0.0414196568	-0.043706
C	-0.5043354522	-0.7483019512	 1.3156324005	 0.016755
O	-0.8769940528	 0.0946910189	 2.3648508356	-0.439775
C	-1.3457100042	-0.7848360324	 0.068886029	 0.234291
C	-2.6912375824	-0.0950124489	-0.1802058867	-0.306965
C	-2.9474569448	-1.1092694463	-1.3357517334	-0.255953
C	-1.7449835577	-1.9635854008	-0.837698783	 0.068659
O	-0.8141714767	-2.4532517283	-1.7717038713	-0.428647
H	 0.8252488966	 1.6148487295	 0.319461478	 0.296849
H	 0.799332537	-0.5865039349	-0.5240302274	 0.094606
H	-0.0425557889	-1.6641599962	 1.67457422	 0.103678
H	-0.8637429843	 0.9917087201	 2.0034758091	 0.283869
H	-3.3784302515	-0.2092528486	 0.6622802207	 0.115485
H	-2.6512621818	 0.9592063159	-0.4604536672	 0.116275
H	-3.9233579542	-1.5977110424	-1.3768617294	 0.104392
H	-2.7353425946	-0.673776527	-2.3176625802	 0.096911
H	-2.0623429699	-2.8356617136	-0.2570423437	 0.094531
H	-0.5540848206	-1.7180595904	-2.3378440548	 0.278432
