20
gdb 62564	2.42142	1.52264	1.20048	3.1626	81.97	-0.2505	0.0233	0.2739	1137.4064	0.168887	-403.138849	-403.129541	-403.128596	-403.172145	35.654	
C	 0.0199801687	 1.5387049328	 0.0290736166	-0.460429
C	 0.0402433114	 0.0225101207	 0.0206983942	 0.241508
C	-1.1931033082	-0.6029214365	-0.6108478457	-0.46011
C	 1.3306529906	-0.7825973684	-0.2753466491	-0.300479
C	 2.4800813174	-0.1273774676	 0.4021375866	 0.4335
N	 3.6455519891	 0.1996543658	 0.0742332523	-0.565329
O	 1.8352819485	-0.0275039218	 1.6358767597	-0.303178
C	 0.6932265781	-0.7753220102	 1.1080046926	 0.407226
C	 0.1399347867	-1.8226479176	 2.0162231232	-0.494407
H	 0.8823042066	 1.9568380275	 0.5493923892	 0.142185
H	 0.0108079001	 1.9279865525	-0.9944320637	 0.122395
H	-0.8846142983	 1.9004868235	 0.5311054457	 0.116076
H	-1.3173594213	-0.239237515	-1.6363944282	 0.128917
H	-1.1328420289	-1.6941641706	-0.6531275251	 0.119749
H	-2.0953953838	-0.3337466171	-0.0507999148	 0.124056
H	 1.3799506256	-1.5388844719	-1.0459320426	 0.112664
H	 4.1481986186	 0.6041216154	 0.8663383044	 0.226588
H	-0.2617913863	-1.3596639164	 2.9245017529	 0.138284
H	-0.6686885039	-2.3750538611	 1.5328112263	 0.132514
H	 0.9196546193	-2.530411344	 2.3127229455	 0.138271
