20
gdb 52725	3.87227	0.6401	0.62192	3.5436	86.15	-0.2436	0.0292	0.2728	1871.9461	0.168575	-403.157987	-403.146829	-403.145884	-403.197224	37.583	
C	-0.1290547885	 1.4721825297	 0.1902998999	-0.497404
C	-0.0802691552	 0.0208685488	 0.0808747464	 0.062015
C	-0.0473916175	-1.1804110992	-0.000388628	 0.075175
C	 0.0074911965	-2.6351150737	-0.1383896888	-0.16444
C	-1.2987792891	-3.2009342751	-0.7261291451	-0.375576
C	 1.2452341976	-3.0252459835	-0.9879212134	-0.158702
N	 1.481897895	-4.457506036	-1.0400356983	-0.27409
C	 1.2598744223	-5.2147507099	-2.1494853389	 0.152508
O	 0.8240468798	-4.8047694975	-3.2036812095	-0.321424
H	 0.6029006886	 1.9460581085	-0.4730852565	 0.148408
H	-1.1180441522	 1.8584254524	-0.0800325719	 0.1491
H	 0.0876340854	 1.8031995436	 1.2120648479	 0.146571
H	 0.1476528245	-3.0703877318	 0.86276934	 0.091138
H	-1.47353547	-2.8023430753	-1.7291016308	 0.137141
H	-1.2473528944	-4.2906371267	-0.7955304627	 0.119323
H	-2.1499738593	-2.9326595661	-0.0953561416	 0.119983
H	 1.1058227529	-2.6907991656	-2.0180150466	 0.155356
H	 2.1306101655	-2.5243471847	-0.5833558652	 0.115091
H	 1.8540782368	-4.9180954682	-0.2245377163	 0.246503
H	 1.5307760414	-6.2762323798	-1.9791619405	 0.073324
