16
gdb 98491	2.83764	1.19317	0.92443	4.9966	70.34	-0.2747	-0.05	0.2247	1261.2209	0.121185	-437.88759	-437.878221	-437.877277	-437.922647	32.62	
C	-0.1120676577	 1.544187196	-0.2969777299	-0.386927
C	-0.3179266946	 0.0509576788	-0.5396619318	-0.290311
C	-1.2560766825	-0.5812919499	 0.4677027575	 0.307841
O	-1.7149201411	-0.0056417868	 1.4220617949	-0.28101
C	-1.6139190091	-2.0489056091	 0.2443559186	 0.161484
C	-2.236157394	-2.469603807	-1.0393392294	-0.197032
O	-0.8807715601	-2.7654095944	-0.7534049799	-0.238346
C	-1.944453868	-2.7988837029	 1.4417580306	 0.272582
N	-2.1981716965	-3.410519558	 2.3877742173	-0.319144
H	 0.5948188837	 1.9534655914	-1.0231512242	 0.118919
H	-1.0545727539	 2.0908483989	-0.3853444688	 0.13326
H	 0.2765454123	 1.7246991983	 0.7078418617	 0.142119
H	-0.6877990277	-0.1462887868	-1.5535326656	 0.12949
H	 0.6287542091	-0.5033532665	-0.4838161811	 0.151153
H	-2.9208996513	-3.3144605997	-1.0256591211	 0.156834
H	-2.4107037186	-1.7199259423	-1.808591869	 0.139088
