15
gdb 27328	3.30509	1.3481	0.95854	4.8319	73.29	-0.1887	-0.0004	0.1883	1139.8558	0.114621	-454.008991	-454.001114	-454.000169	-454.040901	31.02	
N	-0.0030458386	 1.3942535038	 0.1544365197	-0.583204
C	-0.0618597096	 0.0150272349	 0.0600906417	 0.159031
C	-1.1962505681	-0.7281620044	 0.0383261787	-0.098276
N	-1.1324356437	-2.1145370667	-0.0041238506	-0.367895
C	 0.0497393075	-2.7665163914	-0.0170971816	 0.506855
O	-0.1007228758	-4.1121936529	-0.0508912153	-0.425338
C	 1.2348151493	-2.0867358424	-0.0020550364	-0.429832
C	 1.2678345756	-0.6477281222	 0.0245977923	 0.37448
O	 2.2933375409	 0.0400123925	 0.0079786755	-0.432787
H	 0.9394187155	 1.707878478	-0.0564520938	 0.260645
H	-0.7274391155	 1.9170085163	-0.3132628698	 0.240573
H	-2.1945381523	-0.311502406	 0.056915264	 0.117063
H	-1.9759115444	-2.6636923686	-0.0151549458	 0.269775
H	 0.7719763802	-4.5190443487	-0.0561790424	 0.314976
H	 2.1763601991	-2.6228741222	-0.0285276963	 0.093932
