20
gdb 65767	3.20682	1.16347	1.09634	3.6993	81.08	-0.2453	0.019	0.2642	1204.4053	0.171264	-403.191072	-403.182089	-403.181145	-403.224727	33.951	
C	 0.2276221708	 1.396239449	 0.0262292326	-0.420999
C	-0.0747992017	-0.1149878796	 0.0232514108	 0.294178
C	 0.5623185679	-0.8375028911	-1.1970272164	-0.280626
C	 1.8862627332	-1.4506504679	-0.679895538	-0.257519
C	 1.6654429678	-1.5125775483	 0.8124543193	-0.074893
C	 0.6041507149	-0.8083141024	 1.1950950885	-0.089875
N	-1.5350070935	-0.3264413587	 0.0178427875	-0.320585
C	-2.3741713993	 0.037267772	 1.0177932276	 0.158313
O	-2.0488730328	 0.582838501	 2.0544330519	-0.340262
H	 1.307663968	 1.5644884407	-0.0227332335	 0.114645
H	-0.2412171592	 1.8796253596	-0.8374768292	 0.106587
H	-0.1591047412	 1.8560281333	 0.9373578892	 0.153304
H	-0.0996842507	-1.6497394459	-1.5182658827	 0.097522
H	 0.7002637887	-0.1670775688	-2.0493764067	 0.103146
H	 2.0920694417	-2.4299249216	-1.1260102331	 0.106032
H	 2.7509502467	-0.8176212332	-0.9219333957	 0.112312
H	 2.334289981	-2.046221949	 1.4790759253	 0.096055
H	 0.2497664082	-0.6578630078	 2.2061111087	 0.12582
H	-1.9398852241	-0.788671872	-0.7808729898	 0.242081
H	-3.4262489563	-0.2269760493	 0.7845628838	 0.074765
