21
gdb 89453	2.25141	1.50149	1.3701	1.7	77.77	-0.2413	0.0582	0.2995	1100.2319	0.180315	-424.201675	-424.192174	-424.19123	-424.235619	36.129	
C	-0.5718468504	 1.4350277119	-0.0009437696	-0.471176
C	-0.0024197754	 0.0400135182	-0.0241724936	 0.407831
C	 1.1481031794	-0.3160864676	-0.9948273467	-0.316533
C	 1.8353512867	-1.159621554	 0.1193157279	 0.109522
O	 3.1745387511	-0.8417163179	 0.4219760438	-0.4316
C	 0.7331475754	-0.7099761524	 1.1458305985	 0.177063
C	 1.1715309287	-0.1192787032	 2.4643358611	-0.491193
C	-0.4841610833	-1.6481882242	 1.1057588482	-0.119644
O	-1.0378343178	-0.9775601201	-0.0473948864	-0.336287
H	 0.2208293711	 2.1851542364	 0.0878877239	 0.109337
H	-1.1206707239	 1.6310465288	-0.9292709909	 0.131015
H	-1.2678383956	 1.5608906065	 0.8338071809	 0.123018
H	 0.8475402887	-0.8356033444	-1.9072540915	 0.112203
H	 1.7589117142	 0.5530700596	-1.2670064071	 0.087915
H	 1.8319995718	-2.2388561055	-0.0595214991	 0.087747
H	 3.2707753368	 0.1161999296	 0.4192397476	 0.277479
H	 1.9366945443	 0.6531014741	 2.3354193169	 0.103792
H	 0.3272037144	 0.3314586887	 2.9963324144	 0.118698
H	 1.6039645542	-0.8914884396	 3.1107662697	 0.13013
H	-0.2837663846	-2.7113517335	 0.9167900062	 0.096652
H	-1.1504288858	-1.5619823315	 1.9752551758	 0.09403
