18
gdb 12815	3.41566	2.04919	1.63164	1.6153	66.93	-0.2358	0.0769	0.3128	853.7899	0.154789	-384.924399	-384.917197	-384.916253	-384.955457	28.279	
C	 0.0106178615	 1.479993432	-0.0584288307	-0.446005
C	-0.0173632812	-0.0221647295	 0.0471011686	 0.447263
C	-0.8745287025	-0.6976692728	 1.0836341802	-0.357036
C	 0.6456444516	-0.7306695442	 1.2034987766	-0.121075
C	 1.4022245956	-2.0146660321	 0.8830353939	-0.103436
O	 1.687983057	-2.1395716317	-0.5084410685	-0.226105
C	 0.5467827279	-1.9196445831	-1.2788648055	-0.001059
O	 0.1112209757	-0.5799704442	-1.2405316733	-0.28764
H	 0.9552981317	 1.8144629902	-0.4979973663	 0.127282
H	-0.8058146683	 1.8318345704	-0.6975755406	 0.126617
H	-0.1001117885	 1.9397295906	 0.9273429549	 0.113216
H	-1.4337899309	-0.0713609678	 1.770142015	 0.112705
H	-1.3717661053	-1.6274479898	 0.8252781251	 0.114168
H	 1.092571782	-0.1072129973	 1.9711353747	 0.092487
H	 2.3730423848	-2.0212228429	 1.3839143512	 0.117125
H	 0.8422998953	-2.9008710439	 1.2222611821	 0.095348
H	 0.807728198	-2.1213169	-2.3197041197	 0.119153
H	-0.2666189146	-2.5996136839	-0.9617989076	 0.076992
