25
gdb 60384	3.31675	0.70781	0.69385	1.3915	89.88	-0.2556	0.0731	0.3287	1814.2501	0.226812	-389.488491	-389.477508	-389.476564	-389.524884	41.128	
C	 0.140924048	 1.4638594215	 0.3105795369	-0.403227
C	-0.038674057	-0.0322075067	 0.0503428042	 0.13118
O	-1.4050773921	-0.3434538039	-0.2228484477	-0.43369
C	 0.7710440396	-0.5158893105	-1.1520520086	-0.165486
C	 0.6667584513	-2.029602589	-1.3837360233	-0.267444
C	 1.5081208879	-2.5449050821	-2.5432893358	 0.391677
C	 1.0971008601	-2.0587651089	-3.9214830441	-0.460183
C	 2.9797643887	-2.78023528	-2.2910347261	-0.295453
C	 2.0391676411	-3.9547279888	-2.4392449273	-0.315474
H	 1.1868028832	 1.7047633642	 0.5276744806	 0.113899
H	-0.1775878955	 2.0437749786	-0.5616064051	 0.123037
H	-0.4584251108	 1.7859889452	 1.1704377768	 0.100847
H	 0.2966842162	-0.5895332765	 0.9428293598	 0.058806
H	-1.9314345924	-0.0568643	 0.5298174967	 0.279496
H	 0.418986256	 0.0305428922	-2.0355790832	 0.101944
H	 1.8212482597	-0.2367813226	-1.0019266742	 0.091103
H	 0.9749465997	-2.5474720919	-0.4654769254	 0.081046
H	-0.3853287312	-2.2910384149	-1.5448143538	 0.113286
H	 1.1908886265	-0.9713221334	-4.0157060925	 0.115128
H	 1.7203732514	-2.5097265362	-4.7001780399	 0.108252
H	 0.0540713299	-2.3211207316	-4.1354276221	 0.114827
H	 3.6803428725	-2.5822643338	-3.095738989	 0.104239
H	 3.37291305	-2.5660149481	-1.3021752022	 0.102754
H	 1.7984880001	-4.5303715833	-1.5513352057	 0.1051
H	 2.1028892371	-4.5477217196	-3.3459482488	 0.104337
