21
gdb 59085	2.12864	1.22756	0.90867	2.8145	80.69	-0.2408	-0.019	0.2218	1359.3933	0.179779	-424.224026	-424.213734	-424.21279	-424.259502	37.536	
C	-0.0009537722	 1.4731577828	-0.28705438	-0.393512
C	 0.0830443557	-0.0049916877	 0.1243263953	 0.015411
C	 0.7390289202	-0.1695255525	 1.5019519771	-0.393918
C	-1.3102755134	-0.6174826756	 0.1074817066	-0.033671
C	-1.9238019525	-1.1610385793	-1.1281495843	 0.052719
O	-1.1405297816	-1.1220820073	-2.2816920397	-0.409983
C	-1.5656234621	-2.1359679724	 0.0064210226	-0.189272
C	-0.4554048721	-3.0958220899	-0.1638024064	 0.155146
O	-0.4311726685	-4.1900294992	 0.3524569102	-0.282315
H	 0.9924732503	 1.9331249878	-0.2868703131	 0.112063
H	-0.424724706	 1.5768323081	-1.2899023972	 0.128599
H	-0.6296047837	 2.0412517931	 0.4093799584	 0.109094
H	 0.7004338735	-0.5161577158	-0.6203240964	 0.094255
H	 0.8284186675	-1.2237418768	 1.7823197932	 0.124915
H	 1.7421814619	 0.2687439928	 1.5100181756	 0.11376
H	 0.1510700804	 0.3326038527	 2.2795267943	 0.112076
H	-2.003209116	-0.1226774577	 0.7852771079	 0.098624
H	-2.989169283	-1.00117698	-1.2917686825	 0.101268
H	-1.4056824051	-1.8479037106	-2.8564533236	 0.297666
H	-2.3863887847	-2.5329356542	 0.5947846943	 0.103921
H	 0.3728048316	-2.7602560885	-0.8216195722	 0.083153
