17
gdb 4082	4.05676	1.53573	1.19564	1.2591	68.17	-0.246	0.005	0.2509	995.5799	0.143373	-400.964306	-400.956888	-400.955944	-400.995967	28.335	
O	-0.0625685913	 1.3816709221	 0.0562574927	-0.396621
N	 0.0635198489	-0.0176336337	-0.0050169488	-0.193663
C	-1.065580435	-0.6115537002	-0.0233215847	 0.373429
C	-1.0681128206	-2.1185481976	-0.0405080969	-0.285824
C	-2.0955317603	-2.6443850947	-1.0589330415	-0.205138
C	-3.4297417418	-1.9233981759	-0.866527353	-0.064852
O	-3.2789461358	-0.5213301987	-1.0102638043	-0.242925
C	-2.4254566422	 0.0527744239	-0.031654102	-0.169251
H	 0.8554569753	 1.6667350486	 0.0037011656	 0.307135
H	-0.0586827879	-2.4863235469	-0.239412603	 0.119203
H	-1.3537443775	-2.4748262604	 0.9607699589	 0.110367
H	-1.7389664685	-2.4578867079	-2.0782086718	 0.115024
H	-2.2292258297	-3.7258653734	-0.9458890232	 0.09848
H	-4.1597428938	-2.2273414868	-1.6221151808	 0.109916
H	-3.8502447879	-2.1622727612	 0.1267801002	 0.083148
H	-2.8776807893	-0.0401328018	 0.9725296926	 0.098825
H	-2.3370070326	 1.1116638946	-0.2704283199	 0.142749
