15
gdb 34706	4.52009	1.39704	1.24782	1.4228	74.3	-0.2441	-0.0182	0.2259	978.2226	0.113696	-379.585349	-379.578661	-379.577717	-379.616322	26.847	
C	-0.0801387179	-1.1303386292	-0.1526859689	-0.43061
C	-0.041566133	 0.0680468987	-0.0619761326	 0.308041
C	 0.0138003445	 1.5099699519	 0.0569182945	-0.211664
C	-0.1209927179	 1.9613257521	 1.5283985635	-0.038176
C	 1.3431690218	 2.1277790026	 1.6672244733	-0.044707
C	 1.4924756289	 2.0892062468	 0.1143582033	-0.046146
N	 1.3812898488	 3.4844321925	-0.3399404678	-0.183371
C	 0.7524464653	 4.0703124586	 0.5973637542	 0.032047
N	 0.4857232975	 3.3178171777	 1.7923239692	-0.162838
H	-0.11992135	-2.1875940584	-0.2440479403	 0.199085
H	-0.6285542149	 1.9963716647	-0.6839864449	 0.114061
H	-0.8759665863	 1.6299002694	 2.2292488084	 0.120769
H	 2.0387582557	 1.8673421102	 2.4557005807	 0.109333
H	 2.2751702175	 1.5199871377	-0.377760159	 0.100287
H	 0.4154475199	 5.1005449346	 0.5544964764	 0.133889
