22
gdb 109862	2.23867	1.42087	1.02713	2.4944	82.03	-0.2208	0.0682	0.289	1255.358	0.1932	-404.306085	-404.296183	-404.295239	-404.340576	37.156	
C	-0.3297893603	 1.5670147875	 0.1678227926	-0.421632
C	-0.0807162499	 0.0637050223	 0.1404545002	 0.011873
C	 0.4137297906	-0.5468189029	-1.1765775779	-0.120458
N	 1.762904515	 0.0261966307	-1.4293815358	-0.375766
C	 1.6098679423	-1.1462959193	-0.5252605519	 0.333425
C	 2.3335006723	-2.4339384507	-0.7723160875	-0.511032
C	 1.2017647488	-0.560997328	 0.8411705995	-0.07271
C	 2.2139995492	 0.3301143591	 1.5498795917	-0.091887
O	 1.7237606521	 0.8459645353	 2.783238684	-0.426288
H	 0.5417695249	 2.1180010401	-0.1938054708	 0.140023
H	-1.1775782701	 1.8265660963	-0.476276025	 0.113808
H	-0.5803469017	 1.9177674556	 1.1761888542	 0.10222
H	-0.9704788938	-0.4679944234	 0.4909070701	 0.073903
H	-0.1848682315	-0.9178547978	-2.0013598663	 0.084941
H	 2.0726124681	-0.3354536325	-2.3315281123	 0.22161
H	 2.2764813365	-2.7210240482	-1.8284619894	 0.115841
H	 3.3941606025	-2.3563185994	-0.50513837	 0.129237
H	 1.9010268448	-3.247501604	-0.1797985916	 0.125843
H	 0.8937203209	-1.3547054981	 1.5290147206	 0.074201
H	 3.0965799881	-0.2664578587	 1.8105142983	 0.100643
H	 2.5511104114	 1.1303467133	 0.8798703756	 0.109787
H	 1.0777877297	 1.5270154926	 2.5753282418	 0.282419
