19
gdb 105977	4.16896	1.18997	1.16249	1.0193	79.5	-0.2016	0.0819	0.2834	1157.3052	0.157007	-385.766476	-385.758077	-385.757133	-385.79939	32.381	
C	-0.037119126	 1.3669761818	-0.0155039677	-0.260339
O	 0.0306092858	-0.044480037	 0.0400516775	-0.276525
C	 0.6882464498	-0.5357302239	 1.1335721953	 0.462134
C	 0.6636274028	-0.2032368506	 2.6216750771	-0.193372
C	 0.9072904765	-1.704299883	 2.9474052277	-0.134987
C	 0.9186573259	-2.0350688421	 1.4570874664	-0.241403
C	 2.2196189879	-1.6803297878	 2.1697989896	 0.369135
C	 3.469143772	-2.4821373338	 2.3334006533	-0.521962
C	 1.9925054044	-0.1699433966	 1.8335324044	-0.2671
H	 0.9651601146	 1.8165325835	-0.0545913392	 0.114796
H	-0.5792460108	 1.6232157877	-0.9276306229	 0.131983
H	-0.5757268526	 1.777936669	 0.8500874443	 0.115057
H	 0.1963637637	 0.5974241764	 3.1789193365	 0.086532
H	 0.6017627869	-2.3300710339	 3.7770092894	 0.081211
H	 0.6345836687	-2.9434215159	 0.9433237865	 0.087766
H	 4.0752628916	-2.4707947325	 1.4197968987	 0.121707
H	 4.0890233385	-2.0983139452	 3.1523303637	 0.11984
H	 3.2289703222	-3.5270748197	 2.5596112184	 0.120746
H	 2.6783957082	 0.6575865937	 1.7076438609	 0.084782
