21
gdb 70441	2.60266	1.39016	1.19134	1.6917	81.48	-0.2276	0.0719	0.2994	1159.6122	0.181883	-387.034324	-387.025616	-387.024672	-387.067786	33.69	
C	 0.6536064766	 1.4325673467	-0.4086134516	-0.496975
C	 0.2100504932	 0.013620843	-0.1999474751	 0.233792
C	-1.1349287057	-0.3757747721	 0.4018377751	-0.346118
C	 0.1290721281	-0.8494268081	 1.0405238235	 0.06498
O	 0.6187822321	-2.0120862992	 0.3721208676	-0.311227
C	 0.8675095377	-1.2234470619	-0.8332822099	 0.08641
C	 0.3811861872	-1.8726870426	-2.1016759527	-0.01476
C	-0.9169661171	-1.5227483511	-2.7822241753	-0.264292
C	 0.3933882302	-1.0977992574	-3.3966902251	-0.275305
H	 1.7467718446	 1.509864262	-0.4227874622	 0.120295
H	 0.2775534317	 1.8409159857	-1.3546282496	 0.12279
H	 0.2846659543	 2.0811184664	 0.392639146	 0.120609
H	-1.6387784208	 0.4437080794	 0.9067509928	 0.108831
H	-1.7891033689	-1.1003201912	-0.0718917953	 0.119987
H	 0.4288878506	-0.6859735219	 2.0696877342	 0.0996
H	 1.9532811086	-1.059946118	-0.9067528228	 0.077453
H	 0.6918446254	-2.912292519	-2.1705048328	 0.096534
H	-1.4740875168	-2.3229160901	-3.2571002903	 0.111899
H	-1.5345118363	-0.7485887005	-2.3430377215	 0.120329
H	 0.6475913671	-0.0433314175	-3.3529129707	 0.112592
H	 0.7397729283	-1.5979842527	-4.2942267043	 0.112577
