20
gdb 80550	2.65497	1.47826	1.26362	2.9746	75.08	-0.2113	0.067	0.2782	1081.192	0.171633	-440.239413	-440.231106	-440.230162	-440.271634	33.311	
C	 0.0423981692	 1.396153398	-0.1668239141	-0.335435
N	 0.0310768008	-0.0578605353	-0.0377269228	-0.126122
C	-1.1721168318	-0.6996634255	 0.6184554403	-0.060091
C	-0.8726822015	-2.1812675638	 0.3344235403	-0.263407
C	 0.6729567532	-2.1508980925	 0.6484350825	 0.16745
O	 1.480320299	-2.376425328	-0.4793129679	-0.444463
C	 0.7567353346	-0.6823728936	 1.1296400219	-0.057667
C	-0.4975736478	-0.5408103087	 2.0203411907	 0.147342
O	-0.572884511	 0.7131305676	 2.6561802321	-0.438278
H	 1.0471108518	 1.7095348756	-0.4705706035	 0.117561
H	-0.6440267791	 1.6766280696	-0.9739244367	 0.112399
H	-0.2337030988	 1.9438856481	 0.7406630499	 0.124306
H	-2.1590045549	-0.2969844291	 0.3829303668	 0.065493
H	-1.4347290742	-2.8630916016	 0.9785889401	 0.096878
H	-1.0423685897	-2.4562008267	-0.7079731562	 0.110303
H	 0.9746022238	-2.8740546751	 1.4094572573	 0.081362
H	 1.2630562573	-1.6390256672	-1.0705074035	 0.27352
H	 1.7329757653	-0.287964816	 1.41104282	 0.078262
H	-0.6879359571	-1.3547037646	 2.7382933049	 0.065632
H	-1.4610627992	 0.8134989588	 3.014273268	 0.284955
