19
gdb 81168	2.68835	1.62295	1.26279	2.8838	75.38	-0.2541	-0.0359	0.2182	1037.5441	0.160513	-423.025743	-423.017945	-423.017001	-423.057859	30.91	
O	-0.0377876263	 1.4419273488	 0.166295631	-0.460307
C	-0.0050948264	 0.0424690379	 0.0737940424	 0.130662
C	 0.1090273555	-0.6570867877	 1.4566372456	-0.041793
C	-1.4145866695	-0.389788945	 1.6262659713	-0.276122
C	-1.4085533037	-0.6413793092	 0.070568396	 0.226912
C	-1.0374955147	-2.1373618264	-0.0013086208	-0.286718
C	 0.1326813758	-2.140141087	 1.044935492	-0.222863
C	-2.5039823706	-0.1072898885	-0.7785534118	 0.041258
O	-2.3943421424	 0.8834515929	-1.4698823704	-0.274274
H	-0.6022770379	 1.7459610532	-0.5576881369	 0.295578
H	 0.6955425424	-0.2966941799	-0.7041196291	 0.059341
H	 0.8320553183	-0.3170955646	 2.1973565303	 0.074243
H	-1.9976661078	-1.0765702845	 2.2453099359	 0.093747
H	-1.6314434432	 0.6482903665	 1.869660348	 0.1287
H	-1.8678339954	-2.789366691	 0.2844509015	 0.106075
H	-0.7062186356	-2.4307461856	-1.0014835587	 0.110725
H	 1.0853063921	-2.4336010936	 0.5954416452	 0.105924
H	-0.0629402945	-2.8073909057	 1.887977437	 0.104958
H	-3.4712089761	-0.6579399708	-0.7375779384	 0.083952
