15
gdb 32060	2.88289	1.36521	0.9649	1.3983	74.11	-0.2354	-0.0757	0.1597	1163.0375	0.113433	-453.95363	-453.945731	-453.944787	-453.986693	28.981	
O	 0.129331322	 1.435528476	-0.0770519128	-0.406569
C	 0.0266940169	 0.0336169211	 0.0769982071	-0.156159
C	-1.3808925887	-0.4555854656	-0.0993871582	 0.366385
C	-1.8224079945	-1.3873228404	-0.9635254662	-0.156379
N	-3.1541212273	-1.7752351553	-1.0050779369	-0.216158
C	-3.9632037918	-1.1806122639	-0.2023426545	-0.063077
C	-3.5820333209	-0.1256540886	 0.7445188922	 0.350274
N	-4.3095171101	 0.5380442207	 1.5425172352	-0.503822
O	-2.2298710138	 0.1662890354	 0.758226892	-0.248165
H	-0.4607528028	 1.839153368	 0.5696223571	 0.30106
H	 0.6641425481	-0.4235455964	-0.6835842465	 0.132511
H	 0.3934331144	-0.2911552163	 1.0645864081	 0.11553
H	-1.1465075501	-1.8728760173	-1.6548569338	 0.125234
H	-5.0146711136	-1.4650860823	-0.2118248432	 0.127323
H	-5.2809293577	 0.2425072148	 1.4582022502	 0.23201
