18
gdb 26398	4.46778	0.91904	0.78911	3.3068	73.8	-0.2321	0.0094	0.2416	1426.2616	0.147737	-439.11924	-439.110512	-439.109568	-439.153379	31.924	
C	 0.1003305989	 1.5470303621	 0.0247354177	-0.400915
C	 0.067552358	 0.0339259089	 0.2386952435	 0.133404
O	 0.2743591157	-0.2985130544	 1.6088930191	-0.420323
C	-1.2263639657	-0.5910519813	-0.3088757224	-0.347013
C	-1.2683908608	-2.0771908146	-0.1971726294	 0.33758
C	-0.6924958024	-3.0182041182	 0.5931015905	-0.184542
N	-1.1296786415	-4.2830580157	 0.2082207159	-0.259274
C	-1.9349879009	-4.0499189186	-0.772714077	 0.063832
O	-2.0791304196	-2.7414201664	-1.0883847043	-0.182253
H	 1.0191759553	 1.9636421363	 0.4448709229	 0.129617
H	 0.0567008038	 1.8005767102	-1.0392000656	 0.120285
H	-0.752226392	 2.0298333755	 0.5189069969	 0.109036
H	 0.9178192807	-0.4241492251	-0.2792135402	 0.102313
H	-0.4421390489	 0.094576779	 2.1204182244	 0.279578
H	-2.0854870994	-0.1419338799	 0.2142839515	 0.109741
H	-1.3432061149	-0.3162438144	-1.3636991582	 0.124001
H	-0.002912984	-2.8683925983	 1.4059329685	 0.139507
H	-2.4970177123	-4.7550301449	-1.3648981637	 0.145424
