18
gdb 100622	2.15542	1.28159	0.85207	4.8327	77.81	-0.2591	-0.0243	0.2348	1345.6467	0.145691	-398.125465	-398.115368	-398.114424	-398.161117	35.176	
C	 0.0481591722	 1.539886278	 0.0459410529	-0.400776
C	-0.0176582469	 0.0159614738	-0.0285063872	-0.135193
N	-1.3975542119	-0.4967021386	-0.0074760516	-0.081466
C	-2.1359689987	-0.1577551032	-1.2242117485	-0.350583
C	-1.419495032	-1.9419745452	 0.2309577891	-0.217234
C	-0.7525864081	-2.2942505772	 1.5015004956	 0.313784
N	-0.2154733627	-2.5924900049	 2.4784478081	-0.309756
C	-2.8007421021	-2.4634316957	 0.2774257175	 0.309531
N	-3.8722034502	-2.8917792801	 0.2904466296	-0.308054
H	 1.0895884927	 1.8526402576	 0.1639845218	 0.12843
H	-0.3361732415	 2.0222375816	-0.8565385823	 0.125704
H	-0.522079283	 1.9049840791	 0.9044527007	 0.138937
H	 0.5209973823	-0.3442690049	-0.9258122764	 0.088041
H	 0.5025146246	-0.3953252107	 0.8408570634	 0.141288
H	-1.6736881813	-0.5802017917	-2.1352801696	 0.104716
H	-3.1636270817	-0.51965149	-1.1551317433	 0.159802
H	-2.1732287188	 0.9265997085	-1.329986919	 0.142336
H	-0.8976871629	-2.5106374962	-0.567567421	 0.150494
