18
gdb 74936	3.01011	1.77046	1.49868	1.6055	76.28	-0.2275	0.0012	0.2286	943.3511	0.149979	-401.901183	-401.894391	-401.893447	-401.932061	28.175	
C	 0.051233846	 1.4729736607	 0.0353035347	-0.501835
C	-0.0054006991	-0.0225857363	-0.0157155645	 0.355688
C	-0.1095314537	-0.7771499449	-1.1225824934	-0.186358
C	 0.0615425589	-2.2397060974	-0.8658888839	 0.022276
O	 1.3870093052	-2.3893418563	-0.2296372699	-0.288082
C	 0.7608706076	-2.246374898	 1.0261161737	 0.11946
C	-0.6188617619	-2.6832573758	 0.5324450741	-0.054208
N	-1.2706919917	-1.6426911782	 1.3091018018	-0.298577
C	 0.0001817747	-0.8391083023	 1.2547245473	-0.164057
H	 1.002918903	 1.8117347634	 0.4648090759	 0.13403
H	-0.0438107841	 1.9121934273	-0.9616136341	 0.125316
H	-0.7410687855	 1.8867024696	 0.671629279	 0.126166
H	-0.2087054317	-0.3747471336	-2.1250025209	 0.092902
H	-0.0394984156	-2.8988889929	-1.7281179902	 0.072292
H	 1.3327916114	-2.6415604093	 1.8656329889	 0.090163
H	-1.0397724158	-3.6895865662	 0.5606260672	 0.083169
H	-2.0598944493	-1.1834273594	 0.8549894232	 0.206866
H	 0.2122989716	-0.2717778305	 2.1633594911	 0.064788
