19
gdb 10950	5.16014	1.24262	1.12845	1.2412	71.89	-0.2462	0.074	0.3202	1101.5931	0.165394	-365.018846	-365.010539	-365.009594	-365.051419	31.203	
C	 0.014894334	 1.5589557547	 0.0554794722	-0.483439
C	-0.048105748	 0.0615515325	 0.0630814002	 0.352202
C	-1.3286521399	-0.7944640451	-0.0021774203	-0.307324
C	-0.6541605305	-1.8280917234	 0.9622076044	 0.02618
C	-0.5508825071	-3.2802543951	 0.5353847542	-0.095074
O	-1.8706011104	-3.7997281573	 0.4515090139	-0.419535
C	 0.61982107	-0.9659884263	 0.940398527	-0.122165
N	 1.0967692356	-0.7050796421	-0.4179901865	-0.35759
H	 1.0309087885	 1.8989076141	 0.2724174035	 0.130699
H	-0.2702638036	 1.9574093294	-0.9258259545	 0.119322
H	-0.6660789839	 1.9868784038	 0.7990788431	 0.114751
H	-2.2055868738	-0.319762956	 0.4436869557	 0.106615
H	-1.6010774726	-1.1574323531	-0.9991899919	 0.095648
H	-1.1336894336	-1.7877589646	 1.9449738351	 0.084712
H	-0.0357578033	-3.3585220666	-0.4364628057	 0.074909
H	 0.0553925771	-3.837980327	 1.2681444434	 0.087421
H	-1.8175504782	-4.7131737816	 0.1556275462	 0.287169
H	 1.3272183088	-0.8440789952	 1.754144093	 0.086509
H	 0.8428231406	-1.434265501	-1.081871123	 0.218988
