19
gdb 24115	4.62277	0.92097	0.86619	3.3749	81.6	-0.2139	0.0358	0.2497	1388.6067	0.161662	-382.099569	-382.091358	-382.090414	-382.13399	30.796	
C	-0.087206602	 1.6483535011	 0.070426762	-0.343936
C	-0.2618265417	 0.1821624725	-0.3014305989	 0.032324
C	-0.0460537246	-0.8822114316	 0.7405208765	-0.245462
C	-1.4383522921	-0.5956651554	 0.230957549	-0.275877
C	 1.3437150202	 2.0864113141	 0.1121336039	 0.358641
N	 2.0901954964	 2.1839949235	 1.1924927752	-0.298267
C	 3.3360827746	 2.5739990071	 0.7554822122	-0.087082
C	 3.3476959368	 2.7154155385	-0.6049854737	-0.114465
N	 2.0663617493	 2.4002805483	-1.0063572179	-0.275137
H	-0.6560819172	 2.2778560238	-0.6271246871	 0.099456
H	-0.5024899736	 1.8222176402	 1.067328515	 0.128958
H	 0.0579919557	-0.0666187378	-1.3105933171	 0.073933
H	 0.4307545256	-1.8090136579	 0.4416645151	 0.109818
H	 0.2118706544	-0.5527345272	 1.7411633908	 0.129691
H	-2.1261764188	-0.080800344	 0.8940611073	 0.111733
H	-1.9118991527	-1.3250115346	-0.4171247521	 0.109328
H	 4.1494730053	 2.7351321814	 1.4465839965	 0.103063
H	 4.1110154199	 3.0070809576	-1.306870504	 0.122754
H	 1.7241727045	 2.4098540904	-1.9524085129	 0.260528
