20
gdb 97159	3.26973	1.28189	1.00732	2.8448	81.91	-0.2366	0.0324	0.269	1226.5034	0.171873	-403.150216	-403.141675	-403.140731	-403.184121	32.183	
C	 0.1187654547	 1.4387669617	-0.1566711323	-0.3168
N	 0.0732624705	-0.012978846	-0.2563788358	-0.300037
C	-0.9844979785	-0.6128434647	 0.0852101876	 0.409205
C	-1.1078358412	-2.113946605	 0.0059763328	-0.290839
C	-1.8750666982	-2.6672965448	 1.2185063515	-0.243164
C	-3.2538487458	-2.0218230832	 1.2434494664	-0.045609
C	-3.6096483362	-0.9451609737	 2.2470171956	-0.31045
C	-3.283718638	-0.5774169237	 0.8284552273	 0.101929
O	-2.0589543698	 0.0795626441	 0.593001252	-0.258455
H	 0.9845246581	 1.8055920157	-0.7142266506	 0.112981
H	-0.7858729626	 1.9231761381	-0.5450558903	 0.115171
H	 0.2319067779	 1.7588610868	 0.887630396	 0.118435
H	-1.6496973701	-2.3861752733	-0.9096145963	 0.116941
H	-0.0981965479	-2.5174294882	-0.0801670353	 0.129878
H	-1.9599546649	-3.7553963359	 1.1530406915	 0.108083
H	-1.3209394314	-2.4491139963	 2.1378237811	 0.113206
H	-4.0693026173	-2.6377591153	 0.8773367394	 0.095061
H	-4.6383808029	-0.8579492509	 2.5783384458	 0.11691
H	-2.8645694419	-0.6938412402	 2.9946764396	 0.125171
H	-4.0701708043	-0.2089135553	 0.1770010339	 0.102383
