16
gdb 11458	4.03701	1.48176	1.16359	3.3045	62.26	-0.2278	0.0477	0.2755	1004.4551	0.132425	-417.078624	-417.070884	-417.06994	-417.111202	28.47	
N	-0.1441121089	 1.2775710841	-0.1210175119	-0.573942
C	-0.1452820902	-0.0864983488	-0.0678491027	 0.479114
N	-1.1485927707	-0.8434129421	 0.1572975947	-0.377149
C	-0.666033598	-2.2237387771	 0.0029152206	-0.002302
C	-1.4596592965	-2.9123602676	-1.1131722931	-0.049468
O	-2.8430248838	-2.8606454303	-0.8523830723	-0.423763
C	 0.8478703107	-2.0733321306	-0.3022765095	-0.129071
O	 1.065492164	-0.6448024094	-0.3296491079	-0.251267
H	 0.7433207224	 1.7215274742	 0.0543672212	 0.266006
H	-0.9399891852	 1.71455722	 0.3153661236	 0.270311
H	-0.8383417985	-2.7759543022	 0.9346847601	 0.085994
H	-1.2059738615	-2.4289341289	-2.0736092837	 0.077694
H	-1.1805817902	-3.9703172281	-1.1889699194	 0.098503
H	-3.0139722762	-1.9495810552	-0.5776793217	 0.292366
H	 1.4954018638	-2.5038637632	 0.4657385755	 0.119243
H	 1.1330056089	-2.4799084048	-1.2784788437	 0.11773
