18
gdb 47055	3.49965	1.39769	1.1057	4.7219	72.26	-0.2375	0.017	0.2545	1092.3175	0.150235	-439.103343	-439.095953	-439.095009	-439.135393	28.911	
O	 0.0120521096	 0.2335025212	-0.9468387051	-0.325206
C	-0.0068089802	 1.2226244549	-0.2679049988	 0.429378
C	-1.2882526798	 1.9856879178	 0.0469722062	-0.309563
N	-1.1900716355	 2.691734872	 1.3166734522	-0.305136
C	-0.1343836267	 3.6863485961	 1.2624377351	-0.028949
C	 0.4314026253	 4.0032758322	 2.6725355858	-0.242534
C	 1.443433837	 2.8343725769	 2.4941841386	-0.240285
C	 1.1863532864	 2.9344201149	 0.9746060369	 0.16475
O	 1.1503293788	 1.718931859	 0.2293112213	-0.233377
H	-1.4893218258	 2.6460909741	-0.8189937511	 0.111941
H	-2.0897716371	 1.2456389454	 0.0820946964	 0.14173
H	-2.0784313702	 3.1113383585	 1.56737567	 0.22859
H	-0.3623797236	 4.5388273873	 0.6020571822	 0.057857
H	 0.9190657623	 4.9806357158	 2.7036146481	 0.107557
H	-0.2780253619	 3.9282366026	 3.4981712302	 0.109727
H	 2.4678260968	 2.9779818449	 2.8403621038	 0.106523
H	 1.0476424545	 1.8980200311	 2.8890843764	 0.129627
H	 1.9186168601	 3.5795665553	 0.481660042	 0.09737
