19
gdb 112343	2.10549	1.50107	0.9238	5.291	82.67	-0.2114	0.0018	0.2132	1278.6892	0.160018	-419.246257	-419.237254	-419.23631	-419.279912	34.191	
C	 0.0443913477	 1.5482605289	 0.0419826847	-0.385976
C	-0.0438797445	 0.022647377	-0.0419054015	-0.186372
C	 0.6913086836	-0.5439130095	-1.2622310389	 0.037749
O	 2.0779723167	-0.2048339637	-1.1987178186	-0.263563
C	 2.8514084806	-1.3563052562	-1.246938609	 0.415367
N	 4.118388037	-1.3567045698	-1.2085155891	-0.568203
C	 1.9560814408	-2.4980774782	-1.3423295549	-0.321349
C	 0.6858401957	-2.0550948817	-1.3604941243	 0.34856
N	-0.4920415179	-2.737568262	-1.5204660234	-0.593027
H	 1.0882651614	 1.8677561936	 0.0876492406	 0.143817
H	-0.4146170984	 2.0197968152	-0.8339165741	 0.115993
H	-0.4697608536	 1.9214359331	 0.9322436192	 0.115243
H	 0.3824149162	-0.4363380725	 0.8575524912	 0.113372
H	-1.0976473551	-0.2844628191	-0.0899899248	 0.086534
H	 0.2700191871	-0.1009763532	-2.1780211968	 0.101001
H	 4.469746123	-0.4010040217	-1.1402433139	 0.213164
H	 2.3111791437	-3.5158702602	-1.3946523794	 0.108349
H	-0.4629727155	-3.7346573087	-1.3719035126	 0.262227
H	-1.3261712285	-2.3044450113	-1.1560229144	 0.257113
