13
gdb 75709	2.30259	2.0026	1.1853	3.5344	58.96	-0.2634	-0.06	0.2035	959.4886	0.087454	-493.693793	-493.686262	-493.685318	-493.726157	27.576	
O	 0.4179079769	 1.0608422414	-0.7053780843	-0.413298
C	 0.0051884777	-0.0787282786	-0.0342086001	-0.045978
C	 0.5766604183	-0.2606019936	 1.3697782566	 0.369097
O	 1.647456969	 0.158349144	 1.7237116965	-0.314446
C	-0.4697634951	-0.9709199064	 2.2016679833	-0.094819
O	-1.499568545	-0.0065911298	 2.4661999027	-0.220319
C	-1.732417723	-0.9798024331	 1.4348026011	-0.093289
C	-1.5125149848	-0.2950437431	 0.093457016	 0.385739
O	-2.3572289008	-0.0017313463	-0.7029997289	-0.284782
H	 1.2419711181	 1.3429456365	-0.2828573206	 0.304486
H	 0.3277725072	-1.0103249041	-0.5565008023	 0.130756
H	-0.227386964	-1.6640403215	 3.0001715274	 0.138839
H	-2.5429637546	-1.6810609653	 1.6026917425	 0.138015
