15
gdb 131484	3.98921	1.15062	0.96815	5.1657	67.42	-0.249	-0.0308	0.2182	1165.5988	0.112376	-453.898952	-453.891327	-453.890382	-453.931854	28.395	
O	 0.0408838809	 1.3945679011	 0.6984778735	-0.417661
C	 0.0570774493	 0.1041077219	 0.159307852	 0.09741
C	-0.5095069949	-1.038570379	 0.9534831272	-0.33016
C	-1.2708164778	-0.4769944924	-0.2461073101	-0.147651
C	-2.5329341985	 0.2627332961	-0.0785721707	 0.273498
C	-2.8782569686	 1.3933080885	 0.5971303245	-0.049862
O	-4.1757229128	 1.6314052171	 0.413623698	-0.164501
N	-4.6593193261	 0.5912615444	-0.4312695459	-0.008053
N	-3.6945201804	-0.172140862	-0.6914038332	-0.18885
H	 0.7173390293	 1.4391959503	 1.382417439	 0.294937
H	 0.8997414916	-0.0993494952	-0.5003551482	 0.101088
H	-0.0616779179	-2.0220157594	 0.8652547585	 0.124514
H	-0.9141410973	-0.7980511041	 1.9307131079	 0.124385
H	-1.2695447233	-1.0940234662	-1.1377588912	 0.116625
H	-2.3169729935	 2.0854316387	 1.1979273586	 0.174283
