19
gdb 37932	2.47033	2.34638	1.79237	1.4053	76.44	-0.231	0.0777	0.3087	860.9185	0.163797	-385.874074	-385.867881	-385.866937	-385.904254	26.801	
C	-0.0454004339	 1.5377112533	-0.1171448825	-0.240123
C	 1.403381783	 2.0139424456	 0.0349725005	-0.074804
C	 2.2276514827	 1.7456572831	 1.2800036399	-0.053651
C	 1.6730285894	 1.2268352029	 2.587467768	-0.094173
O	 0.4940515603	 0.451332622	 2.444584054	-0.257893
C	 0.4614425243	-0.4624787933	 1.3856674334	 0.086849
C	-0.0287905262	 0.0177749587	 0.0476772797	-0.093002
C	 1.4247967934	-0.416766441	 0.2210221165	-0.1066
C	 2.3145001225	 0.8012970841	 0.1101031341	-0.072444
H	-0.7240157653	 2.0122385683	 0.5995498146	 0.113369
H	-0.3961479704	 1.795057522	-1.1220820081	 0.098802
H	 1.7000182877	 2.8795851768	-0.5480962012	 0.083323
H	 3.0702228508	 2.4185955998	 1.42015912	 0.083249
H	 2.4584771439	 0.6423131076	 3.0964553768	 0.088487
H	 1.3942253437	 2.0527254952	 3.2509698069	 0.106949
H	 0.1376063949	-1.4437023239	 1.7233659484	 0.090466
H	-0.7490681173	-0.5791411159	-0.5013484243	 0.079203
H	 1.7928567302	-1.3581209825	-0.1699967699	 0.082708
H	 3.2274531163	 0.7163647571	-0.467294007	 0.079285
