17
gdb 98495	2.32064	1.43826	0.95796	3.3289	77.44	-0.251	0.0102	0.2612	1226.4	0.134818	-417.9808	-417.971311	-417.970367	-418.015521	34.12	
C	 0.384805021	 1.4439699163	-0.0877334329	-0.342401
N	 0.6248903267	 0.0179452856	 0.0128666819	-0.350907
C	 0.281034688	-0.706450557	 1.1001756488	 0.405172
O	-0.2589843714	-0.24805465	 2.0972828747	-0.403555
C	 0.6134834247	-2.1920414834	 1.0353578417	 0.010182
C	 1.1683387946	-2.7485834251	 2.3203291814	-0.247448
N	-0.2025541063	-3.0386645574	 1.9353780596	-0.335893
C	 0.9971651069	-2.7542839076	-0.231783255	 0.230177
C	 1.3399639099	-3.1812310958	-1.3033472407	-0.380607
H	 1.3226142348	 1.9942806281	-0.2201076644	 0.130625
H	-0.2784694701	 1.6743329039	-0.928441083	 0.132079
H	-0.0898250606	 1.7650489245	 0.8398714417	 0.17259
H	 1.0399524736	-0.4747224698	-0.7629848214	 0.256826
H	 1.8580861042	-3.5844733603	 2.2582666	 0.131878
H	 1.3458287317	-2.0282365669	 3.1132114773	 0.138617
H	-0.8143996421	-2.3898941243	 2.4347633916	 0.25443
H	 1.6300206345	-3.5857686009	-2.2416971712	 0.198235
