19
gdb 99541	2.21937	1.20902	0.83512	6.3248	80.16	-0.325	0.012	0.3371	1389.1049	0.157901	-382.10863	-382.098364	-382.09742	-382.144358	36.051	
C	 0.0390010675	 1.6092593412	 0.0763014161	-0.402771
C	-0.0453119962	 0.0842316171	-0.0276515426	-0.198274
C	 0.6988890874	-0.4869587867	-1.257968634	-0.137741
C	 2.1063260915	-0.0712934061	-1.2319053764	 0.294546
N	 3.2118419584	 0.2597618835	-1.173184353	-0.321419
C	 0.610525721	-2.0443601675	-1.3589923927	-0.147835
C	-0.8376941212	-2.5728377331	-1.3772466584	-0.41177
C	 1.3139066862	-2.5111458541	-2.5596914449	 0.280273
N	 1.834184844	-2.8858668423	-3.5207977689	-0.311684
H	 1.0740684554	 1.9468507949	 0.1765663282	 0.153041
H	-0.3884970625	 2.0904320346	-0.8098848692	 0.124417
H	-0.5184553785	 1.9612968547	 0.9485465348	 0.126097
H	 0.3640506146	-0.3785420982	 0.8782327421	 0.119733
H	-1.0942343674	-0.2171699042	-0.0954785947	 0.116938
H	 0.2500081725	-0.0663130843	-2.1670459736	 0.141441
H	 1.1328768732	-2.4654482501	-0.491380796	 0.145867
H	-1.4159032352	-2.0995645745	-2.1762398246	 0.141429
H	-0.8378313841	-3.6507633811	-1.5526974371	 0.150195
H	-1.3336643066	-2.3844633237	-0.4236767651	 0.137516
