17
gdb 2099	4.66269	2.47228	1.78731	1.0674	66.19	-0.2424	0.0227	0.2651	745.1739	0.149606	-309.730329	-309.723647	-309.722702	-309.760656	25.653	
C	 0.0188692681	 1.5294099708	-0.0389225558	-0.395184
C	 0.011545148	 0.0031139817	 0.0148987861	 0.105215
O	 0.6219910742	-0.4529623551	-1.1846274655	-0.262646
C	 0.9354784033	-1.8343939266	-1.1629807551	-0.073402
C	 2.005780203	-2.1404447681	-0.1126723798	-0.251731
C	 1.6341437042	-1.4806956077	 1.1891312874	-0.074548
C	 0.7069236386	-0.5276259153	 1.2444412352	-0.058951
H	 1.0465696549	 1.90348125	-0.0357523771	 0.12523
H	-0.4748969198	 1.8735048121	-0.951587832	 0.123661
H	-0.5095855392	 1.9469040082	 0.8234298564	 0.1114
H	-1.0421192496	-0.3381452727	 0.0337179606	 0.069854
H	 0.0305197536	-2.4282361783	-0.9519418354	 0.087619
H	 1.2760873903	-2.0868156851	-2.1712756822	 0.103095
H	 2.09838114	-3.2262268704	 0.0191568274	 0.10124
H	 2.9877260988	-1.7870130157	-0.45604405	 0.114311
H	 2.1360807473	-1.814327717	 2.093671494	 0.087783
H	 0.4132562541	-0.0829428908	 2.1921562357	 0.087058
