18
gdb 37655	2.80128	2.63156	2.23759	1.7335	74.94	-0.2198	0.0873	0.3071	751.9284	0.153428	-364.798349	-364.793326	-364.792382	-364.827326	23.631	
C	-0.015486936	 1.5656628885	-0.002590483	-0.200575
C	 1.5313738897	 1.7163390332	 0.0051840646	-0.075805
C	 1.9296924257	 0.8705692638	 1.2393218877	-0.074762
C	 2.3270728791	-0.5144558522	 0.7786275524	-0.077434
C	 0.9178302461	-0.2604215691	 1.2579416089	-0.062778
C	 0.047067972	 0.023384325	 0.0187514666	-0.031122
N	 0.8932311122	-0.2796796336	-1.1882133251	-0.120837
C	 2.2798199162	-0.5229679883	-0.7285379115	-0.058668
C	 1.8899335105	 0.8300174695	-1.2009529149	-0.050594
H	-0.4976966596	 1.9882485645	 0.8839740013	 0.094609
H	-0.4887734269	 1.9619739083	-0.9062386235	 0.10107
H	 1.9329458663	 2.7285750896	-0.0196256996	 0.063665
H	 2.3238546305	 1.3224558455	 2.141380014	 0.083558
H	 3.0244640385	-1.1345532163	 1.3277386458	 0.085097
H	 0.5142638123	-0.6896223403	 2.1673270513	 0.083041
H	-0.8981632868	-0.5164727802	-0.0275919725	 0.070343
H	 2.876006803	-1.2222663967	-1.3056730242	 0.086385
H	 2.1552364673	 1.253964189	-2.1651257582	 0.084807
