21
gdb 69376	3.98646	0.98231	0.92895	2.1523	83.57	-0.2329	0.0762	0.3092	1361.0891	0.183196	-383.201054	-383.192412	-383.191468	-383.234591	33.297	
C	 0.0059171559	 1.5462854422	-0.1483639472	-0.488577
C	-0.0567557713	 0.051493018	-0.0475093777	 0.365843
C	-0.891943165	-0.6699732256	 0.9326892622	-0.281687
N	 0.5759075959	-0.7290147656	 1.1025900641	-0.172771
C	 1.0460975974	-1.7541804424	 0.0957627665	 0.050609
C	 0.4873288675	-0.9219175111	-1.0939106725	-0.340148
C	 2.5380730896	-1.9187107065	 0.1352846737	 0.022753
C	 3.1511330346	-3.0143056346	 0.9214298561	-0.244763
N	 3.1698778184	-3.0582446311	-0.5534498508	-0.329948
H	 0.9944362696	 1.879621036	-0.482548423	 0.121993
H	-0.7347441625	 1.9185545746	-0.8663249135	 0.121804
H	-0.1991271506	 2.0100004025	 0.8209051651	 0.128967
H	-1.3816782121	-0.082832066	 1.7041692356	 0.117116
H	-1.4265335077	-1.5755201292	 0.6489460444	 0.105108
H	 0.5675704994	-2.7317593368	 0.2468387696	 0.060015
H	-0.2423535151	-1.3930197849	-1.7593287617	 0.099017
H	 1.2879150793	-0.4914128751	-1.7008958551	 0.115136
H	 3.0928955226	-0.9879071527	 0.0323365356	 0.091448
H	 4.1222169757	-2.8727396118	 1.3865237079	 0.120694
H	 2.4866955602	-3.6880341319	 1.4568131874	 0.110902
H	 2.4503715784	-3.6989845379	-0.8832145566	 0.226489
