20
gdb 89432	2.81169	1.65534	1.3973	3.093	77.38	-0.2225	0.0666	0.2892	1012.2333	0.172326	-403.11015	-403.102364	-403.10142	-403.141793	31.807	
C	 0.0475092367	 1.5283646041	-0.000069942	-0.49409
C	 0.0165866017	 0.0142701771	 0.0022558255	 0.297436
C	-1.2969284666	-0.6960651928	 0.4332822467	-0.187843
N	-0.5622776639	-1.611299247	 1.3725101094	-0.147202
C	 0.6234449049	-2.1585519346	 0.6525374448	-0.020696
C	 0.6726846224	-0.7782647019	 1.1733984771	-0.096662
C	 0.6572986166	-2.1764051309	-0.8686855619	 0.078443
O	-0.4136296984	-2.9812293193	-1.353159654	-0.42744
C	 0.5612634554	-0.6742544202	-1.2580985622	-0.278751
H	 1.0649094169	 1.9059805041	-0.1558430341	 0.113956
H	-0.5812730463	 1.93234274	-0.8017929096	 0.117522
H	-0.3205082421	 1.9349317717	 0.9479404841	 0.118811
H	-1.9488184005	-0.053161415	 1.031421189	 0.09937
H	-1.8783896557	-1.2079925256	-0.3376482692	 0.112183
H	 1.0762034816	-2.9805356606	 1.1961981758	 0.096122
H	 1.2788559039	-0.4067158785	 1.9925213161	 0.086745
H	 1.6167165903	-2.6005304455	-1.1991357297	 0.067163
H	-0.3253028862	-3.0457777614	-2.3092925435	 0.28281
H	-0.0847718297	-0.5278797572	-2.1316149028	 0.08915
H	 1.5560460993	-0.2819029267	-1.5023974297	 0.092972
