21
gdb 75009	3.15571	1.32064	1.15441	1.4108	84.14	-0.2314	0.0278	0.2592	1167.502	0.184784	-387.122657	-387.114596	-387.113652	-387.155433	31.539	
C	 0.116976747	 1.4906954327	 0.0493893578	-0.490791
C	 0.0951289941	-0.0041793764	-0.0115212919	 0.323322
C	-0.0341613747	-0.768115766	-1.0991575354	-0.178317
C	-0.0133694842	-2.2473395868	-0.8056201353	-0.083126
C	 1.1649587884	-3.0140570426	-1.4457400644	-0.2263
C	 2.2802156068	-2.7810536081	-0.4256003153	-0.073919
O	 1.6375932041	-2.8168075695	 0.8432834806	-0.268263
C	 0.3079469958	-2.3042778916	 0.7223794418	 0.107673
C	 0.1927967455	-0.8497254116	 1.2394007837	-0.316112
H	 1.049318337	 1.8531272816	 0.5008290519	 0.126592
H	 0.0214547299	 1.9394449928	-0.9431527499	 0.121486
H	-0.6984829569	 1.8732456827	 0.6767876694	 0.124475
H	-0.1404882278	-0.3852262897	-2.109966298	 0.081351
H	-0.9697708743	-2.7216578611	-1.0527596111	 0.074932
H	 0.9332600768	-4.0817153939	-1.5148025891	 0.101881
H	 1.416154295	-2.6517900637	-2.4463455923	 0.097623
H	 3.0530130742	-3.5552317238	-0.4308521528	 0.102811
H	 2.7663302527	-1.8074804582	-0.5931325295	 0.090212
H	-0.3426603421	-2.9849474314	 1.2797502755	 0.073108
H	 1.0609112942	-0.601588426	 1.8615215195	 0.112479
H	-0.6945059815	-0.7133080195	 1.8735073748	 0.098883
