18
gdb 90392	2.1599	1.55203	1.30626	4.9922	76.83	-0.2536	0.0273	0.2809	1085.6361	0.146361	-401.92856	-401.919733	-401.918789	-401.961747	32.863	
C	-0.1989926583	 1.5328978444	-0.0584309731	-0.431735
C	 0.0678650758	 0.0473478715	 0.0336089951	 0.100417
O	 1.1456818769	-0.4412515663	-0.8318049145	-0.295497
C	 1.6833678469	-1.1871187915	 0.2432382527	 0.057381
C	 2.2118895769	-0.2810835106	 1.3358213475	-0.265334
C	 2.811450378	 0.9994606073	 1.0794254468	 0.312322
N	 3.3188707359	 2.0228659327	 0.8951419479	-0.35296
C	 0.7174430078	-0.624215439	 1.2547808205	 0.211352
C	-0.0272848864	-1.2198539178	 2.4127542037	-0.499938
H	 0.678181956	 2.1277346118	 0.1970736884	 0.164083
H	-0.5061791064	 1.7884169561	-1.0774438901	 0.13462
H	-1.0196486111	 1.8005893442	 0.6160897696	 0.120928
H	-0.8409565028	-0.5162844949	-0.2189306056	 0.091661
H	 2.0733017605	-2.1798795125	 0.0476627821	 0.120267
H	 2.6970880539	-0.8251457049	 2.1429168105	 0.134543
H	-0.3848457728	-0.4412721651	 3.0960398047	 0.137535
H	-0.8963446317	-1.788757244	 2.06524442	 0.130917
H	 0.6080060609	-1.8987596613	 2.9897375738	 0.129439
