25
gdb 99982	2.57542	1.07881	0.93438	0.6069	94.51	-0.2578	0.0543	0.3122	1427.9393	0.22522	-352.335539	-352.323965	-352.323021	-352.37146	43.743	
C	-0.005182672	 1.573394371	 0.2072200303	-0.406376
C	-0.0416491981	 0.0634055494	-0.0616149696	-0.191595
C	 0.6910741498	-0.4258399883	-1.3384893677	 0.270817
C	-0.0173133715	 0.0923173827	-2.603269949	-0.420804
C	 2.1511527982	 0.0662001203	-1.3334910888	-0.42171
C	 0.712768859	-2.0017099706	-1.3211471985	-0.161777
C	-0.6710110047	-2.6818168622	-1.2169234591	-0.411338
C	 1.4305270867	-2.5542335732	-2.4720109404	 0.327885
C	 1.9923539398	-3.0317521091	-3.4227577299	-0.469581
H	 1.0110996931	 1.9371701097	 0.382532083	 0.119765
H	-0.4280211477	 2.1474098066	-0.6231961153	 0.118273
H	-0.594724535	 1.8091638522	 1.0989264962	 0.112254
H	 0.3872609907	-0.4564264352	 0.8064027315	 0.087511
H	-1.091432575	-0.2453377547	-0.1137911366	 0.096715
H	 0.0441014819	 1.1826242313	-2.6665956776	 0.11147
H	 0.4464067857	-0.3188765818	-3.5044379391	 0.12624
H	-1.0780119509	-0.1780608193	-2.6151494909	 0.108685
H	 2.6675815897	-0.2347141853	-0.4142199003	 0.103972
H	 2.7035693701	-0.3505811986	-2.1794849089	 0.12799
H	 2.2030985829	 1.1558754322	-1.4055858832	 0.110886
H	 1.2795829857	-2.2836154151	-0.421640302	 0.099206
H	-0.5484653715	-3.7679602227	-1.2215612616	 0.12551
H	-1.183150221	-2.4049363501	-0.2931207657	 0.118152
H	-1.3103156425	-2.4182743182	-2.0634984584	 0.127449
H	 2.4993509367	-3.452058701	-4.2556872484	 0.190401
