17
gdb 66344	2.98613	1.27988	1.20852	2.4104	71.21	-0.251	-0.0443	0.2067	1089.9622	0.135381	-458.97067	-458.962538	-458.961594	-459.003329	30.967	
O	 0.000363188	 1.4504420186	-0.0214696334	-0.475804
C	 0.0130339296	 0.0451991619	-0.0362188312	 0.245767
C	-1.4364865548	-0.4938781813	-0.0477732181	-0.146579
O	-1.4561302202	-1.8893868341	-0.2691765182	-0.250102
C	-0.9786814685	-2.2587851843	-1.5508046664	-0.120055
C	 0.26422991	-1.5198292111	-1.9573180739	-0.082467
C	 0.7257435007	-0.4802132824	-1.266354563	-0.111915
C	 0.7328368062	-0.4634208867	 1.2077816081	 0.120774
O	 1.2620734265	 0.2947677423	 1.9850667671	-0.275482
H	 0.4963609305	 1.7055456762	 0.7743015934	 0.293925
H	-1.9308284953	-0.3174712605	 0.9115447351	 0.11887
H	-1.9842044735	 0.0569605309	-0.8264651251	 0.115043
H	-0.793592406	-3.338292675	-1.5077267681	 0.125124
H	-1.7630877124	-2.1006406829	-2.3128965125	 0.111105
H	 0.7537149728	-1.852171971	-2.8689556465	 0.106362
H	 1.6145554846	 0.0672886792	-1.5644135587	 0.109423
H	 0.7373370519	-1.5596250398	 1.3484792115	 0.116015
