21
gdb 109565	2.46699	1.25654	0.94751	1.3782	79.2	-0.2379	-0.0244	0.2135	1322.7905	0.179983	-424.239561	-424.229209	-424.228265	-424.275205	37.23	
C	 0.1093459328	 1.5390605429	 0.1683052279	-0.387483
C	 0.0995030101	 0.0222513128	-0.054491305	-0.195447
C	-1.3013208641	-0.5722585525	 0.0590335393	-0.120956
C	-1.5310446063	-2.1229459656	-0.048947598	 0.070103
O	-0.393480876	-2.9190711787	 0.1976792038	-0.417001
C	-2.5678667834	-2.047187426	 1.1305650775	-0.117495
C	-2.596275291	-3.1090517038	 2.2186941046	-0.406413
C	-1.9761710253	-0.6608550146	 1.4411232807	 0.352352
O	-1.9140111589	 0.0029590948	 2.4385090385	-0.306467
H	 1.1261939863	 1.9378593616	 0.1032637948	 0.112516
H	-0.4990148751	 2.0519135754	-0.5850755714	 0.11203
H	-0.2957785443	 1.7866630066	 1.1529721267	 0.146914
H	 0.5111277618	-0.2229665602	-1.0407065653	 0.108999
H	 0.7634328752	-0.4541271841	 0.6771127892	 0.089142
H	-1.9850428798	-0.0601089021	-0.6313497605	 0.101482
H	-1.9288469116	-2.4746883998	-1.0018184357	 0.091924
H	 0.0302453844	-2.6285871824	 1.0126953173	 0.285705
H	-3.5711779015	-1.8997939569	 0.709843421	 0.105024
H	-1.5897942727	-3.3439846296	 2.576429577	 0.112884
H	-3.179501222	-2.7561767552	 3.0739985222	 0.136356
H	-3.0430502785	-4.0385297725	 1.8543406654	 0.125831
