16
gdb 28675	3.51573	1.02538	0.8691	4.1924	77.18	-0.2253	0.0012	0.2265	1326.8706	0.124291	-400.803252	-400.794757	-400.793813	-400.837417	30.337	
C	 0.1671041301	 1.4062359234	-0.1637388962	-0.493228
C	-0.0633609409	-0.0525032828	-0.0013377499	 0.350526
C	-1.1553846905	-0.8048383878	 0.3027650521	-0.249724
C	-0.7251814453	-2.1724728371	 0.3044435474	-0.26305
C	 0.5984532772	-2.1520716346	 0.0035070943	 0.357284
C	 1.6299245509	-3.2235876729	-0.1442876586	-0.449308
C	 2.1221895468	-3.3745628656	-1.5198672278	 0.267994
N	 2.5104721666	-3.4932116239	-2.6011476907	-0.30429
O	 1.0175551578	-0.868628854	-0.1841631342	-0.205916
H	 0.9143930591	 1.7768428091	 0.5469058239	 0.140961
H	 0.5264187544	 1.6445487993	-1.1709800729	 0.146484
H	-0.7653179709	 1.9488916097	 0.0054028669	 0.138403
H	-2.14817964	-0.4326385311	 0.5014064334	 0.112606
H	-1.323524203	-3.0489284158	 0.4993107218	 0.115904
H	 2.4917185086	-3.0263808275	 0.5056961399	 0.167627
H	 1.198133009	-4.1758793284	 0.1783592106	 0.167728
