18
gdb 69420	4.244	0.95861	0.86017	5.4989	76.94	-0.2489	0.035	0.284	1353.9782	0.146636	-401.928465	-401.919815	-401.91887	-401.962128	32.206	
C	 0.1143755526	 1.4972474003	-0.0291150753	-0.487907
C	 0.040825257	 0.0101913943	 0.0720137098	 0.48176
C	-0.9615179356	-0.8111864247	 0.8159588879	-0.340186
C	 0.5222283996	-1.0162726784	 1.0816476835	-0.21631
C	 1.1750747719	-1.6924382695	-0.1175112091	 0.138465
C	 0.846360728	-3.1562217531	-0.42814935	-0.361879
C	 1.4032420185	-3.5973812625	-1.7052582635	 0.266403
N	 1.8568395477	-3.9446403291	-2.709401779	-0.302973
O	 0.5603494529	-0.754708851	-1.0345579247	-0.329572
H	 1.1384412798	 1.8275155128	-0.2272344134	 0.133245
H	-0.5222037475	 1.8540868539	-0.8464084593	 0.139462
H	-0.2332411454	 1.9621462288	 0.897702091	 0.126212
H	-1.4799721361	-0.2999386895	 1.621257348	 0.120572
H	-1.5568960605	-1.5532224444	 0.2916951383	 0.116325
H	 0.9710813226	-0.8936162891	 2.0580996258	 0.105214
H	 2.2628228941	-1.5518908689	-0.1229306469	 0.103232
H	 1.2554983711	-3.787399209	 0.3698393473	 0.15392
H	-0.2372304507	-3.3049446412	-0.4419160304	 0.154017
