17
gdb 67304	3.18017	1.58227	1.3197	0.7304	72.19	-0.2348	0.0719	0.3067	988.6801	0.134791	-421.706281	-421.698961	-421.698016	-421.737683	29.712	
O	-0.1368963813	 1.3367181412	-0.0132748203	-0.469247
C	-0.0570438597	-0.0287729938	-0.0112311118	 0.275147
C	 0.8825292317	-0.9986821101	-0.8334553524	 0.015309
O	 1.947550844	-0.9933380442	 0.1637484999	-0.343376
C	 0.7230473574	-1.0053314212	 0.9569489898	 0.015306
C	-0.0538394441	-1.9460129077	-0.0180649213	-0.215553
C	-1.2342122238	-0.9779661654	-0.1196191583	 0.357401
C	-2.577597436	-0.9564821503	 0.5265632505	-0.347124
C	-2.4422120914	-0.9508375532	-0.9929499446	-0.34712
H	 0.758077667	 1.6895746512	 0.0677501311	 0.297506
H	 1.1453102132	-1.0148996632	-1.890516284	 0.098988
H	 0.7948749684	-1.0295123198	 2.0436645036	 0.098988
H	-0.032498686	-3.0324417296	-0.0201982937	 0.092833
H	-2.9442590903	-1.8625351191	 0.9984589819	 0.112837
H	-2.9026777277	-0.0385454592	 1.0057268307	 0.122633
H	-2.6780598035	-0.02917731	-1.5152532362	 0.122633
H	-2.7190781978	-1.8531456254	-1.5289005149	 0.112837
