16
gdb 77210	3.78335	1.04202	0.90373	1.417	78.68	-0.24	0.0116	0.2516	1266.4869	0.12167	-400.644409	-400.635155	-400.634211	-400.678983	34.041	
O	 0.192045441	 1.3586883518	-0.0565485736	-0.422505
C	 0.0497167185	-0.0254187911	-0.0217045004	 0.149845
C	 0.1370020802	-0.6919202532	 1.4016175662	-0.206819
N	-1.3504902073	-0.8025113313	 1.403381332	-0.309738
C	-1.421870183	-0.5803659379	-0.0661578225	-0.250001
C	-2.4585642008	 0.3384922502	-0.5013046512	 0.337168
C	-3.2837236583	 1.1396673012	-0.8531291311	-0.421502
C	 0.858755986	-1.952629776	 1.4341032476	 0.331473
C	 1.429831871	-3.0118283996	 1.4404022458	-0.468471
H	-0.6041444352	 1.7595561006	 0.3139624827	 0.293975
H	 0.7299513304	-0.4457127948	-0.7623696385	 0.113027
H	 0.5111705732	-0.0109999808	 2.1739864176	 0.111214
H	-1.7107773666	-1.6969386394	 1.7180433922	 0.230014
H	-1.4632636774	-1.505553218	-0.6562949088	 0.105811
H	-4.0268694454	 1.8298264134	-1.1690910202	 0.20377
H	 1.9440640037	-3.9409657352	 1.4588880423	 0.202737
