20
gdb 33505	2.61011	1.10819	0.92163	3.9918	83.34	-0.282	0.0372	0.3192	1349.018	0.171043	-366.004934	-365.995906	-365.994962	-366.039364	33.822	
N	 0.3391576471	-1.1807262314	 0.0990552153	-0.357549
C	 0.1781207903	-0.0356911387	 0.0488418954	 0.245441
C	-0.0386719125	 1.3883363625	-0.0310189044	 0.198176
C	-1.1253454698	 1.8144866852	-1.0175392429	-0.309937
C	-2.4924508005	 1.240003685	-0.7092037488	 0.033457
C	-3.4399481099	 1.9496562246	 0.2257175975	-0.256517
C	-3.7315993657	 1.9006804512	-1.2543722828	-0.279102
C	 0.1734949437	 2.1817716706	 1.2501318052	-0.281206
C	 1.1884943963	 2.2701221347	 0.1501653413	-0.304237
H	-1.1743167048	 2.9101413763	-1.0143385875	 0.096909
H	-0.8173873528	 1.5182884149	-2.0284142156	 0.11803
H	-2.5141479005	 0.154304713	-0.6695215791	 0.109376
H	-4.0497711438	 1.352372671	 0.89410176	 0.117708
H	-3.1282704927	 2.9008994931	 0.6450550602	 0.106389
H	-3.6100011344	 2.8167427282	-1.8239001964	 0.109836
H	-4.5409687571	 1.2689668026	-1.6026200404	 0.117349
H	-0.4929841916	 3.0212314225	 1.4111281151	 0.128343
H	 0.4346552024	 1.6331384951	 2.1468981226	 0.139941
H	 2.1447388991	 1.7813865896	 0.2923343256	 0.140302
H	 1.2240730074	 3.16982092	-0.4542266003	 0.12729
