20
gdb 46032	3.53827	1.04998	0.93541	3.1807	80.2	-0.2521	0.0324	0.2846	1314.7485	0.172597	-403.15962	-403.151301	-403.150356	-403.193298	31.669	
N	-0.5233263872	 0.8405904844	 0.8108410106	-0.544948
C	-0.2195370445	-0.2191554898	 0.1958844875	 0.417057
C	-1.0479513939	-0.901781102	-0.8713104127	-0.313176
C	-0.4759729113	-2.3324458218	-0.9059823454	-0.045526
C	 0.9825356859	-2.0628052714	-0.4884535833	-0.095111
O	 0.928757561	-0.9357623943	 0.402522941	-0.240497
C	-1.1837302457	-3.2648833098	 0.0570247491	 0.041979
C	-2.4102302078	-4.0227306611	-0.3794618379	-0.27844
C	-1.113833554	-4.7583625662	-0.1356094449	-0.279911
H	 0.217046421	 1.0957665895	 1.467182106	 0.219493
H	-2.112194817	-0.8513335864	-0.6399422031	 0.1378
H	-0.887897574	-0.3869358069	-1.825496518	 0.125923
H	-0.5138609116	-2.7610155955	-1.9122703354	 0.074398
H	 1.4400835355	-2.8955643063	 0.0507314474	 0.120922
H	 1.6140137257	-1.8064383689	-1.3486430308	 0.105698
H	-1.1821461518	-2.918724795	 1.0881999453	 0.097707
H	-3.2196323269	-4.1519584898	 0.3300778528	 0.117514
H	-2.7378855799	-3.9072979195	-1.4078901746	 0.112495
H	-0.5784425895	-5.1350550697	-1.001678728	 0.110423
H	-1.0356074939	-5.3912389895	 0.7412270743	 0.1162
