18
gdb 65744	2.76775	1.14218	1.01752	3.2984	73.16	-0.2495	-0.0257	0.2237	1224.4763	0.145664	-439.094344	-439.085065	-439.084121	-439.129095	33.05	
C	 0.0467039414	 1.6205613393	-0.0304694357	-0.450382
C	 0.0172303541	 0.0913097275	-0.0365787378	 0.141621
C	-1.4097373578	-0.4653923742	 0.1083049145	-0.336993
C	-2.0865406466	-0.047812956	 1.403834596	 0.148875
O	-3.1891287572	 0.4352907282	 1.4548260557	-0.246312
C	 0.871096813	-0.5831740099	-1.1438958782	-0.1273
O	 1.7723599479	-1.1303853734	-0.131187083	-0.255772
C	 1.0416746159	-0.5600361052	 0.8863016637	 0.420798
N	 1.1977916744	-0.5948072379	 2.1299883837	-0.547192
H	 1.0648556321	 1.997646044	-0.1628095323	 0.128817
H	-0.5777136224	 2.0202202848	-0.836504071	 0.128364
H	-0.3331685711	 2.0117101864	 0.9176567295	 0.149809
H	-2.0388788468	-0.1434420065	-0.7278532014	 0.122218
H	-1.3721254035	-1.5639424416	 0.103521081	 0.126118
H	-1.4864748719	-0.2323194813	 2.3189517828	 0.119796
H	 0.3884284911	-1.3838101789	-1.7097154922	 0.122209
H	 1.404025304	 0.0939813933	-1.8158129002	 0.12315
H	 2.0160244534	-1.1447963685	 2.396757655	 0.232175
