18
gdb 42914	2.85291	1.51208	1.16912	3.5168	76.43	-0.2299	0.0147	0.2446	1085.6527	0.148171	-401.919753	-401.911889	-401.910945	-401.953161	30.057	
O	-0.1790516698	 0.2056566162	-1.0629902878	-0.371555
C	-0.14979831	 1.3240093598	-0.6237791463	 0.415754
C	-1.135979673	 2.2605176325	 0.0768789321	-0.218781
C	-0.5389205474	 2.661382609	 1.4264765035	-0.290149
C	 0.0118725999	 3.2421434013	 0.1599660078	-0.003677
N	 0.8694403386	 2.2781670498	-0.5398071758	-0.099157
C	 2.2913184756	 2.1588723722	-0.5031007437	 0.024644
C	 3.017761849	 1.6144060655	 0.7129207011	-0.276416
C	 2.922160564	 0.7953161732	-0.5495172053	-0.273246
H	-2.169252705	 2.4324815474	-0.1855585883	 0.119105
H	-1.1710114696	 3.3112619638	 2.0262070904	 0.125144
H	 0.0446910773	 1.9466384096	 1.9978772033	 0.127247
H	 0.0206792433	 4.2914418676	-0.1037413473	 0.115758
H	 2.7960308642	 2.9506977982	-1.0506959508	 0.097601
H	 3.9691099045	 2.0640976943	 0.9756413592	 0.115257
H	 2.418624304	 1.3023578751	 1.5602255242	 0.117734
H	 2.2504322654	-0.0534147367	-0.5594070279	 0.157248
H	 3.809126649	 0.6799087013	-1.1618553284	 0.117488
