19
gdb 69987	3.00098	1.72806	1.59636	1.8576	72.75	-0.2512	0.0891	0.3403	936.1863	0.16153	-423.010494	-423.003541	-423.002597	-423.041386	29.05	
C	-0.0072891939	 1.491092748	-0.0033804535	-0.493309
C	-0.0359589698	-0.0178419454	 0.0337807082	 0.345526
C	-0.8604499964	-0.7588032838	 1.0659948299	-0.350403
C	 0.6421274326	-0.8393429536	 1.1157528463	-0.089933
C	 1.3237972612	-1.9288369514	 0.2671071238	 0.173981
O	 0.3552761371	-2.8495749999	-0.2478467199	-0.277333
C	-0.2369919796	-2.1532138432	-1.3627210857	-0.108623
C	 0.4256067029	-0.7750376597	-1.2385917229	-0.028095
O	 1.7600549584	-1.2097879953	-0.8757975547	-0.251647
H	 0.9475399888	 1.8550471995	-0.3990731146	 0.127735
H	-0.8089594921	 1.8956432677	-0.6325543197	 0.117561
H	-0.1340766598	 1.9095572422	 1.0000612854	 0.117635
H	-1.3419540493	-0.1401435268	 1.8182048969	 0.107229
H	-1.41114012	-1.6552867673	 0.8113347626	 0.131569
H	 1.203578119	-0.3810040499	 1.9228065456	 0.087797
H	 2.1443586106	-2.4776263196	 0.7266901247	 0.092714
H	 0.041448816	-2.647745786	-2.2998947017	 0.108261
H	-1.3265339793	-2.1388696383	-1.2661188036	 0.105501
H	 0.4589481937	-0.1756817771	-2.147009277	 0.083834
