10
gdb 187	9.01341	3.89637	2.72039	3.6997	43.39	-0.1951	0.0406	0.2357	444.2644	0.075511	-301.405558	-301.400597	-301.399653	-301.433583	18.314	
O	 0.0027498029	-0.0505033212	 0.0030155796	-0.431118
C	-0.0137438913	 1.1642779621	 0.0098827971	 0.443897
N	-1.1116685842	 2.0180264293	 0.0286643034	-0.328742
C	-0.7175225223	 3.3537452851	 0.0309580223	-0.084938
C	 0.6303237607	 3.372145972	 0.0132904365	-0.084938
N	 1.0605860714	 2.0476809124	 0.0003087316	-0.328742
H	-2.0523348648	 1.6671899841	 0.0391210272	 0.269388
H	-1.4266405306	 4.1627538125	 0.0445893563	 0.137903
H	 1.3172106894	 4.2002120628	 0.0086208332	 0.137903
H	 2.0104346458	 1.7226513709	-0.0135521471	 0.269388
