21
gdb 121271	3.83858	0.97335	0.86085	0.7962	79.24	-0.2488	0.0871	0.3359	1415.5048	0.183004	-424.205959	-424.197134	-424.19619	-424.240049	32.839	
C	-0.5396849103	 1.3756923429	-0.4014552076	-0.222417
O	-0.6347140265	-0.0227693548	-0.5180400367	-0.238624
C	-0.7235934131	-0.6734065127	 0.7303014241	-0.076427
C	-0.829869116	-2.1671669717	 0.4591877711	 0.093402
O	-0.789684576	-2.8378668197	 1.7186979745	-0.276818
C	-1.421500505	-4.1080078478	 1.5737591776	-0.092636
C	-2.4905964637	-3.9150313746	 0.5131346368	-0.057401
C	-3.3416801883	-2.6810106451	 0.6648080674	-0.291218
C	-2.1109970706	-2.6428467473	-0.2069102565	-0.041471
H	-0.4720476079	 1.7857235084	-1.4122100577	 0.12537
H	-1.4222883563	 1.8055742527	 0.0984377418	 0.104138
H	 0.3548680377	 1.6785736369	 0.1658043836	 0.104057
H	 0.1677324745	-0.4722218072	 1.3465684586	 0.094455
H	-1.6045146436	-0.3284661572	 1.2951682727	 0.089817
H	 0.0277700957	-2.4625833867	-0.1681885514	 0.074082
H	-0.6987469884	-4.8741485424	 1.249282856	 0.091556
H	-1.8051275615	-4.3919207236	 2.5596651376	 0.106485
H	-2.872249693	-4.782609213	-0.0118948877	 0.087794
H	-4.3027185772	-2.6713941125	 0.1632914938	 0.110188
H	-3.321962493	-2.1597671306	 1.6171045167	 0.119268
H	-2.2080577675	-2.532959624	-1.2791322749	 0.0964
