18
gdb 36820	8.77255	0.44078	0.42451	4.36	78.83	-0.2625	0.0112	0.2737	2375.0375	0.147383	-398.144901	-398.134862	-398.133918	-398.181512	33.877	
N	-0.023296398	-1.1837231265	 0.0164992614	-0.297815
C	-0.0295334879	-0.0283892089	 0.015341758	 0.259126
C	-0.0170251418	 1.4325597345	 0.016453499	-0.340719
C	 1.4114147734	 2.0097715406	 0.0041372242	-0.201114
C	 1.401852149	 3.5377631882	 0.0284103733	-0.128084
N	 2.7636908804	 4.0564456759	-0.0224476999	-0.301676
C	 2.8126957979	 5.5136066752	-0.0037306992	-0.262401
C	 4.196700245	 5.994666682	-0.008913824	 0.257184
N	 5.2866299897	 6.3756257635	 0.0110903424	-0.291758
H	-0.5768793869	 1.7846288186	-0.8580169569	 0.156307
H	-0.563484563	 1.7822298519	 0.9003932387	 0.154849
H	 1.9592079947	 1.6267798962	 0.8731034215	 0.12371
H	 1.9461677237	 1.6646084478	-0.8852747922	 0.141955
H	 0.8655100053	 3.9166494741	-0.8522294473	 0.114158
H	 0.8383651735	 3.8938732561	 0.9127081902	 0.08807
H	 3.3051839355	 3.6907678486	 0.7548103995	 0.234719
H	 2.3112942897	 5.8949462452	-0.9022198284	 0.159558
H	 2.2966211299	 5.9727949869	 0.8597745198	 0.133933
