10
gdb 21903	7.79827	1.31305	1.12382	3.757	57.45	-0.2824	-0.0734	0.209	931.4913	0.061327	-413.460692	-413.454465	-413.453521	-413.491198	22.57	
O	 0.0726732144	 1.3530563922	 0.0854170966	-0.411596
C	 0.0673121541	 0.0175568352	 0.0626445591	 0.483578
N	 0.0970190116	-0.6682610249	-1.0579893834	-0.226664
O	 0.079657031	-2.0035721587	-0.6805073822	-0.207521
C	 0.0404779295	-2.0667195914	 0.66751256	 0.372104
C	 0.0297638455	-0.8189207899	 1.2109093166	-0.431037
C	 0.01737737	-3.3515251085	 1.2641103756	 0.255465
N	-0.0019998257	-4.3925610107	 1.7684991958	-0.315409
H	 0.1009242917	 1.6715737308	-0.8274431024	 0.321126
H	 0.0005449679	-0.5364546441	 2.2486720642	 0.159956
