19
gdb 26272	3.51881	1.10708	1.03164	2.488	83.3	-0.2467	-0.033	0.2137	1251.7048	0.160904	-382.136465	-382.127919	-382.126975	-382.17072	31.565	
C	-0.2204200562	 1.5926412619	-0.1204858316	-0.3939
C	 0.0129159683	 0.073857742	-0.0377171699	-0.061238
C	-1.2987696369	-0.6796862571	 0.2445035778	-0.393902
C	 0.6976776956	-0.4512466307	-1.2838465605	 0.326638
N	 1.909949711	-1.0013255233	-1.1275892123	-0.308751
C	 2.5106222168	-1.4627595965	-2.2258002529	 0.069055
N	 2.0452073146	-1.4424479083	-3.4739608906	-0.25203
C	 0.8351846589	-0.8916749593	-3.6192585015	 0.021139
C	 0.114147724	-0.3781608981	-2.5523026239	-0.164365
H	 0.7167861232	 2.1299771868	-0.293005061	 0.125957
H	-0.9110919099	 1.8498642957	-0.9310557586	 0.115052
H	-0.6556356842	 1.9601463045	 0.8142053361	 0.119012
H	 0.7099035247	-0.1251879006	 0.782283638	 0.098436
H	-2.034726251	-0.5177875391	-0.5507144016	 0.115052
H	-1.1276983733	-1.7567472427	 0.3312360123	 0.125955
H	-1.7421756152	-0.3295463135	 1.1820072111	 0.119013
H	 3.4939137484	-1.9064571934	-2.0837079497	 0.117588
H	 0.4337192331	-0.8635784728	-4.630060619	 0.116934
H	-0.8647512218	 0.0621253044	-2.7027302923	 0.104356
