15
gdb 128062	4.56985	1.06498	0.8686	2.1754	69.48	-0.2292	-0.0503	0.1788	1268.5854	0.113756	-450.130554	-450.122095	-450.121151	-450.164637	29.18	
C	-0.0060981787	 1.4131393078	 0.0467844735	-0.312771
N	-0.0242588317	-0.0269058456	-0.0986947396	-0.314921
C	 0.6312046249	-0.6383956902	-1.1235930196	 0.292431
N	 1.2110245193	 0.0200703355	-2.0569452021	-0.548512
C	 0.6032544442	-2.1247848827	-1.069275802	 0.350551
N	 0.0346423251	-2.7956703076	-0.1003784817	-0.192217
O	 0.2556762535	-4.129790579	-0.4458318107	-0.15214
C	 0.9371390597	-4.1021530943	-1.5943645163	 0.107254
N	 1.18783188	-2.914418918	-2.0376764878	-0.311179
H	 1.0062972296	 1.7943523761	 0.2309950192	 0.133191
H	-0.3738711499	 1.8883174203	-0.8670699148	 0.150119
H	-0.6523864933	 1.6917150621	 0.881391577	 0.120726
H	-0.3334716136	-0.5993298927	 0.667861313	 0.264804
H	 1.6103317188	-0.6256280916	-2.7356748632	 0.235902
H	 1.2057019319	-5.0531789201	-2.030023385	 0.176762
