17
gdb 63346	2.55099	1.42216	1.14743	1.2422	68.11	-0.2509	-0.0517	0.1992	1095.4489	0.13318	-459.014804	-459.00602	-459.005076	-459.048386	33.084	
C	 0.1187322255	 1.5789939129	 0.1407593871	-0.426718
C	-0.0867853124	 0.0626640501	-0.0462782757	 0.290225
O	-1.4587334961	-0.2467340663	-0.088294342	-0.48062
C	 0.6781091553	-0.4684537572	-1.2721251031	-0.363658
C	 2.078282373	-0.8329666191	-0.7677427479	 0.394512
O	 3.0523967072	-0.9966986605	-1.4512858725	-0.298126
C	 2.037106418	-0.9620536426	 0.7644778714	-0.443021
C	 0.5884976042	-0.6885856517	 1.1177227997	 0.349046
O	-0.0202840235	-1.0503648099	 2.0938973409	-0.328044
H	 1.1773809189	 1.8604867768	 0.1350941002	 0.118152
H	-0.3808948923	 2.1036645819	-0.6782782329	 0.141104
H	-0.3247856137	 1.9070254178	 1.084999488	 0.132848
H	-1.6947930607	-0.5264695704	 0.8091459969	 0.291472
H	 0.1936206346	-1.3898946621	-1.6197180276	 0.150812
H	 0.7271173424	 0.2210584846	-2.1176174738	 0.136096
H	 2.3793773	-1.9387308543	 1.116517077	 0.166636
H	 2.7001842196	-0.2112351999	 1.2114729041	 0.169285
