18
gdb 81791	2.13688	1.92535	1.22987	2.82	71.64	-0.236	0.0644	0.3004	1046.5615	0.146438	-439.015094	-439.006638	-439.005694	-439.047841	32.497	
C	-0.1569174164	 1.4969399059	 0.0642804089	-0.522202
C	 0.1447998461	 0.0368184275	-0.0052147887	 0.343373
O	-0.6992386564	-0.8842507134	 0.727819995	-0.302289
C	 0.7208794293	-0.9088928409	 0.9710185446	-0.108438
C	 1.3036379443	-1.7993102055	-0.1475128746	 0.055973
O	 0.8688493177	-3.1281408219	-0.1856182777	-0.43345
C	 0.6979728368	-0.7844905565	-1.1612570354	 0.258848
C	 0.1419863226	-0.9990623794	-2.5084177832	-0.30681
N	 1.4384241922	-0.3028868636	-2.3215837272	-0.373679
H	 0.7063359095	 2.0881801602	-0.2584716031	 0.131322
H	-1.0059592672	 1.7543718873	-0.5790753021	 0.134393
H	-0.4097523021	 1.7834524978	 1.0880557644	 0.144285
H	 1.0524066003	-0.76144411	 1.993015036	 0.106474
H	 2.3955088999	-1.7996607647	-0.1908435539	 0.105566
H	-0.0871878209	-3.0967830749	-0.0499182688	 0.289248
H	 0.2197939894	-1.9825700318	-2.9629141676	 0.132965
H	-0.7262796926	-0.4189744272	-2.8111471501	 0.113888
H	 1.3090012475	 0.7012265212	-2.4330048167	 0.230533
