14
gdb 14585	18.96454	0.58553	0.57198	3.3286	76.37	-0.268	-0.0633	0.2047	1793.8614	0.103858	-345.348794	-345.339723	-345.338779	-345.384162	29.978	
O	-0.1034426932	-0.061805346	 0.0035284162	-0.227032
C	-0.0214309272	 1.1449903908	 0.007442767	 0.018367
C	 1.2169135305	 1.8801994301	 0.0005750496	 0.059893
C	 2.2431945817	 2.5177336334	-0.0061377462	 0.071078
C	 3.469953203	 3.2974423431	-0.0137830462	-0.354942
C	 3.2118823039	 4.8278921902	-0.0023820648	-0.342654
C	 4.4535938206	 5.5887844673	-0.010495428	 0.290353
C	 5.4958902435	 6.1866192819	-0.017216711	-0.429087
H	-0.9272187154	 1.785242386	 0.0168143334	 0.098866
H	 4.0816683124	 3.0255687938	 0.8544411599	 0.158967
H	 4.0641742046	 3.0357174726	-0.897151315	 0.158973
H	 2.6006639877	 5.0935997056	-0.8722856777	 0.1473
H	 2.6182610466	 5.0834872142	 0.8826149771	 0.147322
H	 6.4081966515	 6.730186537	-0.0227198044	 0.202596
