19
gdb 114667	3.40726	1.17905	1.0651	2.2457	71.02	-0.252	0.0751	0.3271	1192.9986	0.159493	-460.120765	-460.112579	-460.111635	-460.153577	31.546	
C	 0.081872607	 1.3258145226	 0.0441096899	-0.23651
O	-0.1818703496	-0.0452236615	-0.1542496708	-0.250755
C	 0.5668326556	-0.6229314629	-1.1979290939	 0.138754
C	 2.0479239973	-0.9942734767	-0.8293075644	-0.263133
C	 1.9068325096	-2.5135939662	-0.9794698171	 0.020217
O	 1.1593427642	-2.6242063648	-2.2476581165	-0.332241
C	 0.0604445621	-2.0507513936	-1.4631065612	-0.019474
C	 0.5810562699	-2.8627091097	-0.2488282421	 0.19619
O	 0.2414051394	-4.2193695951	-0.2555576683	-0.455453
H	 1.1247400417	 1.5088730423	 0.3432644851	 0.108549
H	-0.1230441973	 1.911620731	-0.865264451	 0.108551
H	-0.5780518572	 1.6702795149	 0.8436892069	 0.130637
H	 0.5096805456	-0.0017356309	-2.1019668425	 0.075605
H	 2.7822027702	-0.5865991539	-1.5266811933	 0.111407
H	 2.301193493	-0.6809241581	 0.1873851515	 0.110409
H	 2.7893232985	-3.1514011169	-0.9263026844	 0.083795
H	-0.9295592983	-2.1896233089	-1.8961397453	 0.08555
H	 0.4074783951	-2.4730270332	 0.7547335764	 0.101197
H	 0.3922134733	-4.5300325184	-1.1581794691	 0.286705
