17
gdb 17038	6.13368	1.36488	1.3049	1.9256	70.22	-0.2233	-0.0308	0.1925	969.4286	0.141375	-363.783023	-363.775616	-363.774672	-363.814706	27.814	
O	-0.7648425552	 0.8089791529	-0.0142725464	-0.249659
C	 0.2049732113	 1.0516902711	-0.6907653584	 0.11608
C	 1.2948278492	 2.0258952276	-0.3562717452	-0.048955
C	 1.1824555262	 3.5369843993	-0.778314452	-0.035973
C	 0.108113986	 3.7273864203	 0.326520978	-0.256702
C	 1.2746148126	 2.8916752565	 0.9313436882	-0.022177
N	 2.3056544417	 3.7629425863	 0.2205841064	-0.109318
C	 2.5390620136	 5.1165367257	 0.7150064587	-0.33166
H	 0.3661088597	 0.5204144458	-1.6577027804	 0.079074
H	 2.2763569414	 1.6128592366	-0.6069208921	 0.09822
H	 1.2204683283	 3.9425746852	-1.7910198099	 0.086957
H	-0.0259571284	 4.7378895051	 0.7087794412	 0.104785
H	-0.850640054	 3.2250858242	 0.2045003567	 0.13017
H	 1.4154040652	 2.550724409	 1.9576488803	 0.089397
H	 3.1814633036	 5.049510578	 1.5991732181	 0.125415
H	 3.0902837182	 5.671366918	-0.0514220023	 0.123549
H	 1.6520675906	 5.7073454185	 0.9869248289	 0.100797
