19
gdb 67783	2.68348	2.33007	1.62704	0.2971	81.63	-0.2313	0.0164	0.2477	886.0277	0.161342	-348.710648	-348.704088	-348.703144	-348.740922	28.621	
C	-0.0112942919	 1.4778490753	 0.0308742871	-0.49729
C	-0.0077204857	-0.0357413489	-0.0517490117	 0.320327
C	 0.3605713506	-0.6773627723	-1.3694548828	-0.140001
C	-0.1327489807	-1.9216719791	-1.4068011269	-0.096578
C	-0.8470001599	-2.1882618148	-0.1077328786	-0.085593
C	 0.0932693088	-2.1755155792	 1.1436376851	-0.082482
C	-0.6715195758	-1.0691312947	 1.8223745789	-0.113961
C	 0.6527488491	-0.7575917206	 1.1763343274	-0.102546
C	-1.3027145888	-0.7892501132	 0.4119336518	-0.097133
H	 0.9917576014	 1.8880748259	-0.1344473877	 0.112066
H	-0.6774092917	 1.9126560703	-0.7225444396	 0.113932
H	-0.3476786952	 1.814257993	 1.0176252262	 0.11641
H	 0.9979358818	-0.2123746702	-2.1137917407	 0.088402
H	 0.0317543019	-2.6573175318	-2.1855725728	 0.092318
H	-1.5892947253	-2.9866242224	-0.0873385974	 0.061925
H	 0.6204303221	-3.0105284894	 1.5867426995	 0.083204
H	-1.0337264613	-0.9536971484	 2.8328425825	 0.086438
H	 1.6013530125	-0.5233632138	 1.6433967525	 0.078606
H	-2.2917169718	-0.3892115155	 0.1878142071	 0.061956
