19
gdb 51066	3.58778	1.08831	1.04583	2.5183	79.96	-0.2394	-0.0219	0.2176	1217.9086	0.159358	-385.849161	-385.841232	-385.840288	-385.882607	30.152	
O	-0.5708039405	 0.510349935	 0.6259695549	-0.238195
C	 0.2138303183	 0.8429096858	-0.2232766351	 0.165124
C	 1.2684469298	 1.9224289509	-0.056180525	-0.431823
C	 1.215446112	 2.9386044113	-1.1540934483	 0.356209
C	 1.5977686116	 2.9039737802	-2.6196869735	-0.111629
C	 0.2373695831	 3.4469605163	-3.0487689087	-0.226013
C	 0.1228407632	 4.0087696982	-1.6053466747	-0.10952
C	 1.2317104903	 5.0939812447	-1.5352949278	-0.224282
C	 2.2233712123	 3.941158904	-1.6702133534	-0.129642
H	 0.2132360239	 0.363179643	-1.2298822022	 0.075435
H	 1.1482187691	 2.3713676506	 0.9356989765	 0.123228
H	 2.2497810514	 1.4249546391	-0.0828562841	 0.12311
H	 2.2198954623	 2.1738240856	-3.1228456888	 0.084484
H	 0.1903506652	 4.1691005489	-3.8722078493	 0.090004
H	-0.4756470628	 2.6377228375	-3.2302405636	 0.100171
H	-0.8488644316	 4.1704322574	-1.1431777029	 0.078033
H	 1.2179492063	 5.8766251236	-2.3027818572	 0.089702
H	 1.2906126058	 5.5526332462	-0.5443700615	 0.100821
H	 3.2909557303	 3.9469387217	-1.4870253852	 0.084783
