14
gdb 125532	5.44239	1.37562	1.10564	2.8776	69.9	-0.227	-0.0128	0.2142	1033.4521	0.103377	-432.894133	-432.88737	-432.886426	-432.925351	25.556	
C	 0.0357232419	 1.4212850235	-0.0000612229	-0.492979
C	-0.0473441172	-0.0565207458	-0.008096741	 0.393241
N	-1.0948937736	-0.7794596382	-0.258876992	-0.289069
N	-0.6130337573	-2.0627904729	-0.1306669865	 0.025429
C	-1.0069333016	-3.3843330071	-0.2164893746	-0.145849
C	 0.1499429045	-4.0758581781	 0.0724574731	-0.088662
N	 1.2352821364	-3.241272228	 0.331599107	-0.395209
C	 0.7003089068	-2.0663050705	 0.1910810104	 0.467915
O	 1.095460146	-0.7673493034	 0.2775175666	-0.228088
H	 0.7682909811	 1.7711863777	-0.7340834014	 0.160722
H	-0.9436246875	 1.8341713191	-0.2426968989	 0.16712
H	 0.3490182308	 1.7854789527	 0.9833188015	 0.16071
H	-2.0096401492	-3.6857904371	-0.4596775316	 0.14544
H	 0.2698686191	-5.1476126719	 0.1104539002	 0.119281
