20
gdb 88840	3.01693	1.17206	0.92425	3.2607	76.61	-0.2212	0.055	0.2762	1298.5244	0.169557	-440.217697	-440.208226	-440.207281	-440.253136	34.116	
C	 3.0151042962	-0.7059374907	 0.4455081559	-0.31446
N	 1.6212712815	-1.1284744152	 0.4313631511	-0.088577
C	 1.219402615	-2.2046849576	 1.3212337287	-0.257209
C	 0.7413153681	-0.8093245144	 1.5586590861	 0.023353
C	 1.2202689006	-0.045967285	 2.7595171488	 0.097053
O	 1.2127219533	 1.3921416421	 2.5499539463	-0.296548
C	 0.3063491548	 1.607656666	 3.6483461309	-0.096636
C	 0.2349179108	 0.0934831542	 3.9489659514	 0.038053
O	-0.9962743606	-0.5477388807	 3.7166463819	-0.418032
H	 3.5449916783	-0.8929062812	 1.3926108482	 0.097484
H	 3.5479392224	-1.2468585962	-0.3431680707	 0.119962
H	 3.0690683375	 0.3647629371	 0.2278203597	 0.137344
H	 0.5470416045	-2.9531070969	 0.9104767225	 0.116218
H	 1.9644431489	-2.5973835389	 2.0146434971	 0.099482
H	-0.2690544487	-0.5512146514	 1.2547178467	 0.101722
H	 2.2172304756	-0.3798837547	 3.0692537536	 0.073875
H	 0.7476962696	 2.2366338348	 4.4319956084	 0.096659
H	-0.6481202416	 2.0400731534	 3.3226444979	 0.103043
H	 0.6613027211	-0.1999865018	 4.9162081844	 0.077099
H	-1.5727281373	-0.3828737129	 4.4691393909	 0.290116
