18
gdb 110249	2.12284	1.59081	1.0662	1.951	73.52	-0.2451	-0.0106	0.2346	1160.6069	0.14643	-439.022171	-439.013708	-439.012764	-439.055405	32.199	
C	 0.0853026812	 1.5532279022	-0.0393506774	-0.380323
C	 0.1243261864	 0.0308238384	 0.0631225546	-0.144663
N	 0.6409430621	-0.5518320816	-1.1841745913	-0.137655
C	-0.3047029033	-0.7028173232	-2.3824946047	-0.208628
C	 0.736243829	-1.7576979939	-2.8964497649	 0.200166
O	 1.9659417602	-1.296734075	-3.336052064	-0.447862
C	 0.5690683547	-2.0678150329	-1.3683403924	-0.205686
C	-0.9457370523	-1.8474141905	-1.5701347487	 0.435025
O	-1.9992861282	-2.1992950206	-1.1389655914	-0.31861
H	 1.0719257321	 1.9512089054	-0.2931823878	 0.125535
H	-0.6219375723	 1.8807349629	-0.8082008057	 0.123756
H	-0.2319584475	 1.9901066698	 0.9118451268	 0.123714
H	 0.8173210356	-0.2734334777	 0.8561340012	 0.111839
H	-0.8691130772	-0.3568980043	 0.335795569	 0.117552
H	-0.7320905994	 0.1536385309	-2.8997687462	 0.104483
H	 0.3693353226	-2.509982573	-3.5943679078	 0.109108
H	 2.2374889145	-0.6370356867	-2.6801643673	 0.289375
H	 1.1279491619	-2.7530127802	-0.7334128221	 0.102874
