12
gdb 353	6.71474	2.47373	1.84838	1.0401	47.28	-0.2515	-0.0944	0.1571	641.1289	0.093575	-306.392828	-306.385878	-306.384934	-306.424157	22.634	
C	 0.0987521455	 1.4499294925	-0.1625586127	-0.384053
C	 0.3638417624	-0.0361046946	 0.060031346	-0.282849
C	 0.5224289156	-0.4066763423	 1.5142633621	 0.292455
O	 0.4537278203	 0.3669604075	 2.4415971565	-0.274656
C	 0.792262047	-1.8849735734	 1.8348681771	 0.089484
O	 0.8812946385	-2.7440244714	 0.9979698891	-0.215908
H	 0.9176961081	 2.0574122034	 0.2315875851	 0.133709
H	-0.0090294382	 1.6654183491	-1.2286465099	 0.118416
H	-0.8149499244	 1.7656844581	 0.3478359985	 0.133725
H	-0.4373101861	-0.6640741523	-0.3527333484	 0.14158
H	 1.2663236647	-0.3769798244	-0.4652540145	 0.141578
H	 0.8962912065	-2.0743580023	 2.9245352811	 0.10652
