16
gdb 48254	2.4081	1.11105	0.81609	2.604	69.56	-0.2708	-0.0476	0.2232	1346.5868	0.122016	-437.878688	-437.869508	-437.868564	-437.914059	31.324	
O	-0.896408978	 0.7333664988	 0.6542565126	-0.233978
C	-0.0397212792	 0.8821156474	-0.1785746684	 0.142484
C	 1.1883317164	 1.7586113963	 0.0210405253	-0.138727
C	 1.3331436526	 2.800432009	-1.1239297949	-0.353446
C	 1.5052700396	 2.188614135	-2.438831095	 0.259755
N	 1.643454344	 1.6841608002	-3.4693205759	-0.302054
C	 1.1652672009	 2.4596642121	 1.3613989092	 0.090245
C	 1.9869743766	 2.0106773152	 2.4883528142	-0.178025
O	 2.3679422913	 3.1488896299	 1.7081833152	-0.248129
H	-0.0961501827	 0.3771473456	-1.1664453989	 0.118501
H	 2.0653338355	 1.0990493144	-0.0328433372	 0.126757
H	 0.4601522041	 3.4627456479	-1.1495330112	 0.163002
H	 2.2053858865	 3.4236364077	-0.9033382665	 0.185777
H	 0.2491145062	 3.0068501753	 1.5805449287	 0.115734
H	 1.6675395562	 2.226864	 3.5057445069	 0.130618
H	 2.6227678999	 1.1339060852	 2.3752512658	 0.121486
