11
gdb 9026	4.80578	0.92498	0.80003	3.9041	69.42	-0.2948	-0.07	0.2248	1293.4249	0.072245	-356.420061	-356.412079	-356.411134	-356.453094	27.063	
N	-0.0415508605	 1.4872434898	 0.0720762186	-0.47582
C	-0.0226866883	 0.0249013444	-0.0236838606	-0.330217
C	-1.3909286934	-0.5008837258	 0.1507434114	 0.326914
N	-2.460204392	-0.9147240902	 0.2819766209	-0.297684
C	 0.5676410031	-0.5069711881	-1.2634972912	 0.178621
C	 1.0914250897	-0.8784509498	-2.2859363405	-0.000089
C	 1.6819333966	-1.3002202179	-3.4432551357	 0.222838
N	 2.1875065589	-1.6554224931	-4.4263690503	-0.321535
H	 0.9106633415	 1.8368226387	 0.0185712382	 0.256223
H	-0.5509019061	 1.879003426	-0.7150115194	 0.258707
H	 0.5710191004	-0.3503322241	 0.8213272186	 0.182042
