17
gdb 125928	4.67675	1.17226	0.97602	2.2586	76.37	-0.2052	0.0205	0.2257	1202.7655	0.138242	-414.186331	-414.178369	-414.177425	-414.21881	30.244	
C	-0.5416267815	 1.5831471827	-0.2943925546	-0.40309
C	 0.1267148494	 0.2614625707	 0.0235086678	 0.065851
C	 0.8593586317	-0.5401230673	-1.1342811462	-0.382504
C	 2.0726881561	-0.4556882574	-0.2259024011	 0.337332
N	 3.1922051218	-0.9684159958	 0.2418580512	-0.411278
C	 3.20125172	-0.4036394644	 1.5072387417	 0.387831
N	 4.2320318821	-0.6650810808	 2.383293635	-0.574569
N	 2.155435249	 0.3635113338	 1.8425269198	-0.364303
N	 1.4774545435	 0.3502156718	 0.6507707276	 0.046757
H	 0.1263732987	 2.2276683931	-0.8732114266	 0.12984
H	-1.4543348402	 1.4138105556	-0.8749146061	 0.126466
H	-0.8165763641	 2.1084769333	 0.6250407245	 0.141026
H	-0.5308167653	-0.395016346	 0.6021603663	 0.112243
H	 0.4742773892	-1.548631637	-1.2965677008	 0.139754
H	 0.9262733163	-0.0132877275	-2.0888677137	 0.130594
H	 5.0978006211	-0.9020895272	 1.9232781245	 0.259726
H	 4.3380180622	 0.0249591323	 3.1116290107	 0.258323
