16
gdb 8133	4.08264	1.70289	1.43384	2.4195	64.05	-0.2415	-0.019	0.2225	877.8602	0.130184	-383.75686	-383.749744	-383.748799	-383.788031	27.918	
O	-0.088136257	 1.4268009257	-0.2262237153	-0.467991
C	-0.0155973729	 0.057058203	 0.0286243282	 0.39873
C	-0.2562954981	-0.9209028003	-1.094175526	-0.351883
C	-1.2961456504	-0.7439174744	-0.0005474286	-0.078441
C	-1.2861113336	-1.7473428447	 1.1337098133	-0.331899
C	 0.1424958211	-1.6938806251	 1.7030304816	 0.383165
O	 0.6383016837	-2.5163268953	 2.4259551702	-0.302281
C	 0.8327730686	-0.4183873576	 1.1932841304	-0.395229
H	 0.7149930744	 1.6889447811	-0.6895349798	 0.284277
H	-0.4984827488	-0.4889271117	-2.058588109	 0.119375
H	 0.3171512286	-1.8432942861	-1.1388920016	 0.115325
H	-2.2195311587	-0.2445091388	-0.267258695	 0.101988
H	-1.9794868544	-1.4554275475	 1.9332250538	 0.133752
H	-1.5383931273	-2.7735503103	 0.8493758022	 0.130756
H	 1.8833157314	-0.6200688475	 0.9623982618	 0.122762
H	 0.8065256235	 0.3331832696	 1.993140264	 0.137594
