15
gdb 80222	2.29157	1.57576	1.20996	5.584	67.65	-0.2654	-0.0424	0.223	1054.7692	0.110518	-457.767731	-457.759484	-457.758539	-457.800906	29.599	
C	 0.0687076658	 1.576151501	-0.0448084191	-0.426343
C	 0.0975037074	 0.067875595	 0.039619001	-0.084268
C	 1.30005751	-0.7649846027	-0.1145510042	 0.048334
O	 2.4758802528	-0.0912088398	 0.379113077	-0.257257
C	 1.9597576802	-0.0821643266	 1.6810627547	 0.429936
O	 2.5036890171	 0.2940401252	 2.6609579443	-0.301068
C	 0.6471228541	-0.7120262848	 1.2762742026	-0.005458
C	-0.1538665502	-1.7160454954	 1.9960399438	 0.065546
O	 0.0199501069	-2.0415950001	 3.1421984226	-0.243398
H	 1.0230286998	 2.0118961768	 0.256133274	 0.157866
H	-0.1339051136	 1.8842407148	-1.0755433717	 0.136585
H	-0.7193354678	 1.9847434962	 0.5934512394	 0.140693
H	-0.8025743259	-0.4285266208	-0.3248954283	 0.119226
H	 1.454737377	-1.6178023074	-0.7612985804	 0.144386
H	-0.9608106836	-2.1697418912	 1.3744390745	 0.075218
