19
gdb 74404	2.57857	1.49054	1.26877	2.5132	82.47	-0.2319	0.0086	0.2404	1105.0529	0.158142	-385.895912	-385.887276	-385.886332	-385.928839	33.007	
C	 0.0359062151	 1.448322988	 0.0725475011	-0.515255
C	-0.0635297901	-0.0378570416	 0.0390530195	 0.331659
C	-0.0517300184	-0.8996680429	-0.9975146436	-0.236995
C	-0.0052076753	-2.2898480742	-0.3701490282	 0.179234
C	 0.0484753849	-3.5264270347	-1.2316828756	-0.508201
C	-1.0026431121	-2.0907007784	 0.8210697804	-0.255672
C	-0.0352036257	-0.9511520604	 1.2616143858	-0.237409
C	 1.0878156308	-1.9257883941	 0.7189807703	 0.398037
O	 2.1875535367	-2.2631027797	 1.0112398879	-0.31329
H	 0.9481456541	 1.7715020446	 0.5901810047	 0.136967
H	 0.0564134791	 1.8651127769	-0.938479729	 0.128371
H	-0.8064430485	 1.8986540927	 0.6118863574	 0.129385
H	 0.0527933128	-0.6864395789	-2.0533746607	 0.100704
H	 0.8931449617	-3.4814835155	-1.9267780694	 0.130544
H	 0.1682479847	-4.4273077738	-0.6223004867	 0.124886
H	-0.8668583733	-3.6365575591	-1.8230956712	 0.122479
H	-2.0091027431	-1.7697984085	 0.5389232898	 0.101348
H	-1.0277938094	-2.9386216581	 1.5143649224	 0.103769
H	-0.0291960138	-0.5183079425	 2.2596224652	 0.079439
