20
gdb 121451	5.20554	0.73217	0.717	2.108	84.19	-0.2474	0.0226	0.27	1679.7814	0.17008	-403.118375	-403.109263	-403.108318	-403.153695	33.255	
C	-0.0726423549	 1.5889225966	-0.3182063325	-0.379588
C	 0.2736038347	 0.5981249134	-1.4318936435	-0.151529
C	 0.5997902827	-0.7994040301	-0.8932206951	-0.161099
N	 1.015144596	-1.6819786218	-1.9790385501	-0.347866
C	 0.3649377853	-2.7214086736	-2.2121192069	 0.484884
O	-0.7544979021	-3.264189448	-1.5491803563	-0.286855
C	-0.6571898418	-4.4518252266	-2.3725997613	 0.098455
C	-0.9038772136	-4.0983062574	-3.7932806666	-0.290261
C	 0.4786576284	-3.8580764743	-3.1726652812	-0.229809
H	-0.9432662291	 1.2547696124	 0.2571647658	 0.114789
H	 0.7611031821	 1.7055880104	 0.3834021363	 0.113787
H	-0.3038681427	 2.5777376131	-0.7257689763	 0.112266
H	-0.5627157442	 0.5187432975	-2.1371950702	 0.096636
H	 1.1319712038	 0.9584774472	-2.0101260845	 0.106346
H	 1.4408288425	-0.7211931447	-0.1915813366	 0.102895
H	-0.2578287635	-1.1950414521	-0.3324371688	 0.10895
H	-0.7824732243	-5.4083658892	-1.8847380224	 0.124151
H	-0.9320266896	-4.9268352014	-4.494590487	 0.127473
H	-1.5509566622	-3.2607183611	-4.0336276149	 0.133502
H	 1.3884418826	-4.2861704204	-3.5659360279	 0.122873
