15
gdb 12440	3.53587	1.99043	1.36845	1.1782	62.1	-0.2493	-0.0327	0.2166	862.567	0.119601	-399.810974	-399.803783	-399.802839	-399.843027	25.939	
O	-0.0020750737	-0.011068993	 0.3712247548	-0.289727
C	-0.047245555	 1.1720396036	 0.1268642535	 0.371616
C	-1.3546250978	 1.9357552407	 0.0549876906	-0.304325
C	-1.4871751199	 2.8648257086	-1.1669363073	-0.173278
N	-0.6954882643	 4.0863637745	-1.0825381233	-0.210561
C	 0.5613649608	 4.0066215771	-1.0731060512	 0.100308
O	 1.3317041493	 2.8752495991	-1.1254147572	-0.22782
C	 1.264570982	 1.9473809166	-0.0385554164	-0.169234
H	-2.161699464	 1.1989555106	 0.0695670837	 0.130524
H	-1.4437802352	 2.5482908525	 0.9628797846	 0.132743
H	-1.2239171211	 2.310536153	-2.0784043996	 0.12342
H	-2.5357288115	 3.159165114	-1.2587265378	 0.119228
H	 1.167349907	 4.9133480695	-1.088685815	 0.124114
H	 1.4680626635	 2.4705638236	 0.9086916176	 0.125864
H	 2.0604271599	 1.2223088395	-0.2110331269	 0.147129
