15
gdb 10587	2.70618	1.8319	1.29677	3.2244	69.47	-0.2488	-0.0317	0.2172	962.7286	0.115997	-362.611113	-362.602655	-362.601711	-362.643961	30.454	
C	-0.1234380583	 1.5670181659	 0.081295844	-0.406725
C	-0.0460868177	 0.0594983135	 0.1304842944	-0.016874
N	 1.1519071758	-0.5898550825	-0.3675230354	-0.359174
C	 0.8410286944	-0.7265571619	 1.0868877355	 0.00083
C	 1.8058594882	 0.0130723527	 1.9719297539	 0.125526
O	 1.9713169676	-0.2176797889	 3.1395456836	-0.244223
C	 0.3277838158	-1.9745235659	 1.5805133543	 0.264506
C	-0.0917326876	-3.0332057246	 1.9653870793	-0.421596
H	 0.8583416053	 2.0293540189	 0.1953974959	 0.135627
H	-0.5291604414	 1.8808427979	-0.8863401395	 0.131906
H	-0.786914673	 1.9471657873	 0.8641831834	 0.134874
H	-0.9937891823	-0.4446592708	-0.0524000556	 0.110179
H	 0.9354446398	-1.4681525563	-0.8319720719	 0.250911
H	 2.3697955107	 0.8029918875	 1.4342580018	 0.091901
H	-0.4600906574	-3.9632123629	 2.3223124361	 0.202332
