15
gdb 24252	3.96092	1.67691	1.2874	1.7804	70.1	-0.2153	0.0052	0.2204	931.2795	0.116233	-416.797866	-416.791767	-416.790823	-416.82825	24.621	
C	 0.0193909569	 1.4570091996	-0.0005351423	-0.243652
C	 1.262897647	 0.6499939379	 0.0495510412	-0.015141
C	 1.9631569542	 0.3619615177	 1.4063797947	-0.376543
C	 0.8609541073	-0.3873746179	 2.1010180998	 0.214519
C	-0.1771429025	-0.5430927921	 1.2616741321	 0.351389
O	-1.171428498	-1.2202875295	 1.8772752536	-0.194662
C	-0.6383303147	-1.4445908512	 3.1277704322	 0.03018
N	 0.5550584436	-0.9725798503	 3.3196145374	-0.336217
N	-0.0902254998	-0.0299274997	-0.0404378005	-0.203959
H	-0.3165367495	 1.9485932148	 0.9085023162	 0.130092
H	-0.2599389043	 1.9492626092	-0.9269375648	 0.129146
H	 1.8592243809	 0.569931513	-0.8525054382	 0.110505
H	 2.8645696129	-0.2416916152	 1.2505486811	 0.126517
H	 2.2725503591	 1.2825095541	 1.9132857576	 0.128563
H	-1.2638728932	-1.9924638605	 3.8135789498	 0.149262
