16
gdb 104572	3.06378	1.1484	0.99259	1.6878	66.88	-0.2602	-0.0541	0.2061	1186.3663	0.12271	-475.046266	-475.03753	-475.036585	-475.080132	31.824	
O	 0.1082300642	 1.3724092558	 0.2115688787	-0.430566
C	 0.0742336563	-0.0240180548	-0.0050136579	-0.12328
C	-1.3598890696	-0.5464717515	-0.0316555965	 0.220537
C	-1.5396497201	-2.0925703486	 0.1260845824	-0.466793
C	-2.1941859548	-1.761431197	 1.4917439483	 0.447573
O	-2.6187604663	-2.3875386109	 2.4192819289	-0.340217
N	-2.0962790402	-0.4074829339	 1.236173117	-0.355463
C	-2.1653188458	 0.0497542404	-1.1741216058	 0.135305
O	-1.7327878385	 0.8495599148	-1.9675580878	-0.264394
H	-0.2188082696	 1.7770302346	-0.6014849153	 0.300958
H	 0.5810628986	-0.3101665295	-0.937920498	 0.108046
H	 0.6100683845	-0.4894694452	 0.8285524864	 0.115416
H	-2.2075540624	-2.5743491199	-0.5912823781	 0.140027
H	-0.60409733	-2.6511651084	 0.1903655733	 0.147176
H	-2.1549915684	 0.394724758	 1.84852548	 0.265431
H	-3.2220751178	-0.2948847139	-1.2126946855	 0.100244
