20
gdb 88279	3.18672	1.04066	1.02678	2.8645	82.08	-0.2444	0.0042	0.2486	1304.3516	0.170503	-403.141133	-403.131988	-403.131044	-403.175553	33.727	
C	-0.304630744	 1.2190647795	 0.5136420076	-0.418483
C	 0.1895197172	-0.1722211688	 0.1871735616	 0.010806
C	 1.4677449832	-0.4012130191	-0.5498003758	-0.28524
C	 1.38158125	-0.8193591779	 0.9070237767	-0.122302
C	 2.1690710615	-0.0472289175	 1.907137125	 0.3749
O	 2.5602384245	 1.0919971683	 1.7436718406	-0.359875
N	 2.4982574712	-0.7832718233	 3.0519643612	-0.085684
C	 1.527189211	-1.2175411882	 4.043736993	-0.233368
C	 2.5565953378	-0.1714432699	 4.3569086989	-0.215994
H	 0.5240779832	 1.8806260289	 0.770990017	 0.157371
H	-0.8327079666	 1.6425329974	-0.3477701098	 0.115355
H	-1.0058186207	 1.2036747651	 1.3557994078	 0.107991
H	-0.6017332282	-0.8876853278	-0.0238390047	 0.089999
H	 1.5242311864	-1.1871043065	-1.2944363282	 0.113165
H	 2.0926364143	 0.4656447992	-0.736263092	 0.139057
H	 1.2903218281	-1.8774961022	 1.1229595061	 0.091283
H	 0.4982068898	-0.8871349145	 3.9231916657	 0.130912
H	 1.6441276872	-2.2316557566	 4.4162217952	 0.12609
H	 3.4179823413	-0.4308726794	 4.9654426226	 0.126145
H	 2.2312033728	 0.8627640436	 4.4281709716	 0.137874
