19
gdb 100579	4.0292	0.79494	0.72038	3.2522	74.5	-0.2512	-0.0218	0.2295	1563.525	0.158145	-456.373428	-456.363168	-456.362224	-456.409408	35.999	
C	-0.1120038338	 1.4892925064	-0.0452218863	-0.394203
C	-0.1740257678	-0.0479633325	-0.1441660977	-0.058494
C	-1.6188278671	-0.5469212714	-0.1093579869	-0.084498
O	-2.1575357538	-0.1706582917	 1.1526495599	-0.429679
C	 0.5407522782	-0.5459621381	-1.3859649472	 0.374003
N	-0.0933731286	-0.9743685071	-2.3965227626	-0.506799
N	 1.9521896515	-0.4516694107	-1.2782326845	-0.33907
C	 2.8791370977	-0.7799537276	-2.2348104877	 0.1666
O	 2.6368193738	-1.2074591808	-3.3411588456	-0.299371
H	 0.9165123729	 1.8580447418	 0.0213168417	 0.100448
H	-0.5746648867	 1.9441012951	-0.9270839661	 0.131271
H	-0.6555848537	 1.8182139823	 0.842189654	 0.146017
H	 0.3305316234	-0.4695848756	 0.7376459206	 0.088397
H	-2.179862262	-0.104250335	-0.9425815928	 0.111331
H	-1.6361971215	-1.6361868821	-0.2474376894	 0.101347
H	-3.0913394365	-0.3978540237	 1.1563368039	 0.289583
H	 0.5462057731	-1.247153819	-3.1429987302	 0.252408
H	 2.3201887374	-0.1113672045	-0.4023313775	 0.257335
H	 3.9113151835	-0.6066992358	-1.8730531256	 0.093374
