19
gdb 79041	3.67755	1.59004	1.3648	1.7917	78.79	-0.2368	0.0832	0.32	988.6132	0.160952	-385.797204	-385.790408	-385.789464	-385.828005	28.402	
C	-0.2023331739	 1.620316697	-0.110682614	-0.418301
C	-0.0310078698	 0.1149422879	 0.0114464194	-0.09631
C	 1.1776545653	-0.5933982759	-0.6964056075	-0.11678
C	 2.1858243415	-0.1657272582	 0.4141598001	-0.080072
C	 2.5499520279	-1.5638235931	 0.9244268974	 0.073451
O	 2.3896691098	-1.5444702241	 2.3653312466	-0.297172
C	 1.1715623712	-0.7863002851	 2.5973039662	-0.191078
C	 0.8317504372	-0.478581267	 1.1550944249	 0.270147
C	 1.1586399256	-1.7708311069	 0.319969432	-0.072585
H	 0.7456689127	 2.1493241048	 0.029210731	 0.116794
H	-0.5909751154	 1.8854375141	-1.0999524314	 0.118167
H	-0.9111200459	 1.999282951	 0.6336642009	 0.118255
H	-0.9888686862	-0.4007957772	-0.1313212402	 0.069856
H	 1.3716540717	-0.6570665261	-1.7675638857	 0.071754
H	 2.7473105465	 0.764267611	 0.4968574179	 0.076219
H	 3.4518593913	-2.1274322509	 0.688203773	 0.075876
H	 0.4365926844	-1.4141555013	 3.1137301445	 0.10394
H	 1.395385105	 0.0925291984	 3.2122537707	 0.104289
H	 0.5294060311	-2.6612003882	 0.2958607844	 0.073551
