20
gdb 124518	2.46961	1.32743	0.98009	3.2704	80.5	-0.2488	-0.0002	0.2486	1273.0668	0.169991	-403.162667	-403.153266	-403.152321	-403.19715	34.573	
C	-0.0546127498	 1.6820109236	 0.4377713075	-0.39412
C	-0.0951351663	 0.2368321511	-0.0790448799	-0.09304
C	 0.8657647246	-0.6581400564	 0.7293070829	-0.382264
C	-1.4917373164	-0.3255587922	-0.0865099932	 0.093582
C	-2.5820655112	 0.0497546978	 0.6324882988	-0.013785
O	-3.6426904992	-0.719237204	 0.3422724967	-0.174091
N	-3.2641759783	-1.6534254107	-0.6158959709	-0.199949
C	-1.9972902563	-1.4205336708	-0.8658637006	 0.308102
C	-1.2748641749	-2.2524229974	-1.877225817	-0.504618
H	 0.9604811074	 2.0851738517	 0.3725144508	 0.115375
H	-0.7186167819	 2.3316799033	-0.1399056278	 0.120781
H	-0.3595258759	 1.7332927078	 1.4892730062	 0.117054
H	 0.2607213373	 0.2441199398	-1.1187217721	 0.082817
H	 0.5700873351	-0.6852841913	 1.7834809884	 0.120505
H	 0.8687437124	-1.6873388424	 0.3588442062	 0.119172
H	 1.8902926705	-0.2758456442	 0.6719191354	 0.113789
H	-2.756478248	 0.8255271511	 1.3616738875	 0.144756
H	-0.8291028691	-1.6251476987	-2.6566719457	 0.135672
H	-0.4635939163	-2.8259098119	-1.416658006	 0.138641
H	-1.9690216636	-2.9518652862	-2.3467283972	 0.151621
