23
gdb 118439	1.73355	1.24868	0.7952	2.6277	83.73	-0.2323	-0.0137	0.2185	1550.6301	0.201501	-425.448589	-425.436981	-425.436037	-425.486577	40.214	
C	-0.4264369798	 1.5884982738	 1.035516722	-0.385253
C	-0.5723868366	 0.10361559	 1.3192730077	-0.043039
O	 0.7059791543	-0.499134105	 1.1731604095	-0.239179
C	 0.7401420121	-1.8884828366	 1.3512564427	 0.029236
C	 2.0685471406	-2.3997405429	 0.7659546576	-0.198567
C	 2.2079791055	-2.0955124606	-0.7273128385	-0.382266
C	 0.5979442469	-2.2942211994	 2.8318679736	 0.362626
C	 0.5148342816	-3.7845793359	 3.1286655183	-0.479882
O	 0.558038073	-1.4688170664	 3.7127513028	-0.295614
H	-0.0422954785	 1.754349767	 0.0247493567	 0.120577
H	-1.3950857328	 2.0892009272	 1.1262648126	 0.113143
H	 0.2677688032	 2.0440735798	 1.7468908768	 0.13323
H	-0.9555882384	-0.0574138986	 2.3340222354	 0.112405
H	-1.2813780912	-0.3584846958	 0.6112168272	 0.07831
H	-0.0938710917	-2.3696449122	 0.8039557115	 0.06854
H	 2.8842077436	-1.9254542664	 1.3244731173	 0.118373
H	 2.1454194287	-3.4784923806	 0.9380911831	 0.099916
H	 1.4297422315	-2.6037783575	-1.3077943678	 0.109928
H	 2.1172360329	-1.0224181309	-0.9074020418	 0.139337
H	 3.1790593225	-2.4303726593	-1.1040132617	 0.11235
H	-0.0169968587	-4.3345448021	 2.3466581151	 0.128982
H	 1.526931622	-4.2007525808	 3.1916257842	 0.15135
H	 0.0263472193	-3.932763437	 4.0931169157	 0.145494
