22
gdb 107128	2.66477	1.30877	1.14146	1.7802	86.26	-0.1985	0.0837	0.2823	1226.5561	0.193301	-367.139832	-367.130734	-367.12979	-367.173354	35.668	
C	 0.1745713681	 1.5462525433	 0.0652802252	-0.377758
C	-0.0174575594	 0.0293033612	-0.0671345806	-0.304851
C	-1.4516224917	-0.4071846712	-0.0139991339	 0.366906
N	-1.9113995082	-1.6975227614	-0.5903621112	-0.391544
C	-2.5234104894	-0.4119377309	-1.0316703972	-0.186619
C	-3.578034352	 0.0500197603	 0.0236144102	 0.362479
C	-4.5898006275	 1.1148476514	-0.2808753178	-0.493306
C	-3.6632645035	-0.9190108543	 1.1718231785	-0.341587
C	-2.4818812014	 0.0185800747	 1.0828171553	-0.160001
H	 1.2348539992	 1.8093224039	 0.0049744958	 0.113791
H	-0.3532638155	 2.0801775305	-0.7314016219	 0.11815
H	-0.2042096954	 1.91629027	 1.0228455954	 0.123268
H	 0.4156488259	-0.3105360871	-1.0173901892	 0.092198
H	 0.5454105455	-0.4821556852	 0.7262903082	 0.106869
H	-1.2331432353	-1.9588808144	-1.3064630058	 0.220421
H	-2.5101280762	-0.1167555267	-2.074375998	 0.084002
H	-5.3938931582	 0.7327943993	-0.9226358293	 0.118295
H	-5.0510083152	 1.4920334424	 0.6376611677	 0.117372
H	-4.1328894431	 1.9679421957	-0.7977108507	 0.112341
H	-4.3886919602	-0.644111928	 1.9326102321	 0.099044
H	-3.5342565201	-1.9827608453	 1.0198296391	 0.138233
H	-2.2679957564	 0.7603038618	 1.8425047981	 0.082296
