24
gdb 119981	1.87331	1.15257	0.8393	2.5925	86.94	-0.2131	0.0658	0.2788	1524.2559	0.215337	-405.514847	-405.503728	-405.502784	-405.551461	40.053	
C	-2.1410902982	 0.5099054199	 0.6295238439	-0.381565
C	-1.1202955105	-0.5839076445	 0.3070634785	-0.171015
C	-1.1476332381	-0.9959890311	-1.1668946019	-0.12659
N	-0.2186842516	-2.0951435748	-1.4043496241	-0.098451
C	 0.2396075234	-2.4249527194	-2.7533222148	-0.017418
C	-0.2138231257	-1.6908137386	-4.0004863504	-0.415219
C	 1.1860451121	-1.8494592013	-1.7456163826	-0.001676
C	 1.7965239809	-0.4780096728	-1.8924660108	-0.1065
O	 2.1833050085	-0.0381446229	-0.5932344153	-0.410917
H	-1.9542564912	 1.4177610205	 0.0441154566	 0.107119
H	-3.1636260836	 0.1818798885	 0.4093252589	 0.109915
H	-2.1033887957	 0.7868090873	 1.6875411172	 0.111707
H	-0.1083949529	-0.2428057103	 0.5506699864	 0.121887
H	-1.3097618471	-1.4732053759	 0.9187222898	 0.101871
H	-2.1488663399	-1.3598091153	-1.4327931266	 0.094657
H	-0.968176092	-0.1061578664	-1.7918967957	 0.073646
H	 0.3087512474	-3.5017109014	-2.9146067125	 0.085528
H	-0.2585388952	-0.6073309768	-3.8794011127	 0.118995
H	 0.4690409394	-1.9060829806	-4.8295254514	 0.120771
H	-1.2103645522	-2.0324331672	-4.3014388547	 0.124407
H	 1.8706846259	-2.5325667	-1.2425794132	 0.091819
H	 2.6743847182	-0.5572993073	-2.5542227435	 0.092741
H	 1.102781444	 0.2336730403	-2.3575520738	 0.087518
H	 2.6058434441	 0.82150238	-0.6816007969	 0.286769
