14
gdb 28972	2.95865	1.55421	1.02538	1.9265	76.69	-0.2727	-0.0754	0.1973	1075.8713	0.102644	-395.805832	-395.798106	-395.797162	-395.838993	27.342	
C	-0.0370565718	 1.5066835082	-0.0250553174	-0.49639
C	-0.0108899596	 0.0074698526	-0.00085353	 0.278607
N	-0.0299901195	-0.641925262	-1.1671513838	-0.291235
C	-0.0060279884	-1.9749427222	-1.1289535046	 0.084073
N	 0.0355229465	-2.7531115758	-0.0461364519	-0.249422
C	 0.0547121852	-2.1129694917	 1.1195277702	-0.027379
C	 0.0329639519	-0.718206443	 1.2079996365	 0.065818
C	 0.0544785556	-0.062527788	 2.4742748283	 0.214891
N	 0.0719020426	 0.4764672372	 3.4990024429	-0.329429
H	 0.8506875793	 1.9185310086	 0.4668626772	 0.158246
H	-0.0751440623	 1.8550793634	-1.0569319045	 0.153218
H	-0.905040671	 1.8892497826	 0.5224721675	 0.158203
H	-0.0220520428	-2.4835128854	-2.0897071972	 0.135676
H	 0.0884949443	-2.7182654847	 2.0216451669	 0.145123
