21
gdb 84357	2.43806	1.47016	1.20093	2.3316	84.02	-0.2348	-0.0156	0.2192	1164.8715	0.180794	-387.13523	-387.125574	-387.12463	-387.169515	36.33	
C	-0.1967898171	 1.5832531583	 0.0143953073	-0.393125
C	-0.0022762422	 0.0598348863	-0.0407341136	-0.150678
C	 0.7856581124	-0.4643824253	-1.214290143	-0.094839
C	 1.8365960627	-1.1999471587	-0.8499066986	-0.103035
C	 1.9845906792	-1.3395772514	 0.6478099964	 0.120934
C	 1.7809295011	-2.7900740463	 1.1330710771	-0.417244
C	 3.3208163332	-0.7891868068	 1.1809888064	-0.417652
C	 0.8154303461	-0.462981429	 1.1552951925	 0.383825
O	 0.5931747232	-0.2134923109	 2.3127508286	-0.336207
H	 0.7624833191	 2.1040397339	-0.0665157745	 0.120273
H	-0.8380442165	 1.9256598414	-0.8032659664	 0.115624
H	-0.6603965245	 1.8639519181	 0.9637959506	 0.139511
H	-0.9970168782	-0.4089405229	 0.0083711785	 0.107554
H	 0.5046872434	-0.2484437133	-2.2396249996	 0.09793
H	 2.5322238581	-1.6721885605	-1.53638831	 0.095915
H	 2.5939911298	-3.4308340118	 0.7758009082	 0.114272
H	 1.7696983408	-2.8207711136	 2.2267321089	 0.134565
H	 0.8376780559	-3.2068007539	 0.7668553878	 0.117334
H	 3.5041380229	 0.2289390889	 0.8245603634	 0.116984
H	 3.3069447332	-0.7716793262	 2.2746126644	 0.135936
H	 4.1551895874	-1.4181006361	 0.8528979055	 0.112122
