17
gdb 84911	2.83299	1.37309	1.08184	4.0657	70.04	-0.2498	-0.0269	0.2229	1118.625	0.135068	-458.964165	-458.955738	-458.954794	-458.997511	31.058	
O	 0.1729987211	 1.2855394544	-0.1824471841	-0.435551
C	-0.1064397264	-0.1099516552	-0.0745988132	 0.08958
C	 0.7337513461	-0.7562921791	 0.9992979196	-0.106584
C	 0.212414207	-1.0785479817	 2.1817818652	-0.062049
C	-1.2320736212	-0.8233276477	 2.5119397151	-0.129423
O	-1.8685334455	 0.0287315289	 1.5747499904	-0.272786
C	-1.5936494892	-0.3534973268	 0.2351154388	-0.013498
C	-2.4877789996	 0.482665138	-0.6697509689	 0.156405
O	-2.6361434605	 0.2506804237	-1.8393128268	-0.255346
H	 0.0291071472	 1.659235741	 0.6953189752	 0.282312
H	 0.1191266374	-0.5268074217	-1.0609492141	 0.111182
H	 1.7869648486	-0.9096402987	 0.7844761866	 0.105562
H	 0.8130551428	-1.5445651417	 2.9586488478	 0.104674
H	-1.7770919859	-1.7822898579	 2.5877416219	 0.110058
H	-1.3237483072	-0.3297730872	 3.4860379778	 0.12625
H	-1.8344808921	-1.4162528892	 0.0688323924	 0.095887
H	-2.9957999625	 1.324650751	-0.1525245937	 0.093327
