17
gdb 25993	4.64394	0.99446	0.82328	5.0059	79.98	-0.1941	0.0205	0.2147	1340.3667	0.138461	-414.233517	-414.225231	-414.224287	-414.267152	31.154	
C	 1.4270069369	-0.4307104823	 0.1572364188	-0.447552
C	 0.0199039882	 0.1048675465	 0.1238482527	 0.392891
N	-0.1583594607	 1.3712905334	 0.1924508737	-0.528824
N	-1.0063090593	-0.8183581382	 0.0195075948	-0.439762
C	-1.0100630809	-2.2067338225	-0.0641683278	 0.355463
C	-0.0133400564	-3.1570901775	-0.074868632	-0.183943
N	-0.6862837138	-4.3655275904	-0.178887552	-0.241014
C	-2.0114459943	-4.0962795888	-0.2245903585	 0.023933
N	-2.2460177746	-2.8044683484	-0.1578345648	-0.323436
H	 2.1074943253	 0.4150280885	 0.2402190877	 0.147346
H	 1.5754737825	-1.0991891506	 1.0117194353	 0.134175
H	 1.6580146627	-0.9923753437	-0.7539286366	 0.134169
H	-1.1524682068	 1.6109477882	 0.160465669	 0.19351
H	-1.9434289696	-0.4420983558	-0.0010169497	 0.247619
H	 1.0573229751	-3.1143327024	-0.0223351493	 0.130129
H	-0.2562868886	-5.2739390499	-0.2140002141	 0.269176
H	-2.7616188256	-4.867938056	-0.3059421773	 0.13612
