21
gdb 107820	3.20958	1.4227	1.24032	1.722	80.52	-0.2241	0.0812	0.3054	1101.9319	0.183922	-387.06502	-387.057148	-387.056204	-387.097176	31.708	
C	 0.0287415656	 1.5368033908	 0.1243987991	-0.388651
C	-0.0388076075	 0.0183257382	-0.0819381639	-0.291261
C	-1.4490400223	-0.5444255639	-0.0540542044	 0.313273
C	-2.2300287894	-0.5174046443	 1.3092618657	-0.27229
C	-2.6539664671	-1.9625444536	 1.0585679844	-0.106617
C	-3.103603841	-2.099693266	-0.3829488926	 0.115139
O	-3.5322362261	-0.9464364673	-1.0757478952	-0.272319
C	-2.3968009295	-0.0776285642	-1.166287765	-0.115582
C	-1.6474881452	-2.0933270829	-0.0930676779	-0.185405
H	 1.0667956605	 1.8814308378	 0.1497041508	 0.114902
H	-0.4791176864	 2.0774867025	-0.6807840043	 0.121109
H	-0.4421469368	 1.8299211423	 1.0687934136	 0.122256
H	 0.4319912663	-0.2439624613	-1.0393252362	 0.096888
H	 0.553601108	-0.4807808642	 0.6951204586	 0.099461
H	-1.5425956001	-0.4379018017	 2.1561468023	 0.098019
H	-3.0233059759	 0.2307122972	 1.4155708323	 0.096971
H	-2.9213469281	-2.6953160983	 1.8119869803	 0.081163
H	-3.6253718604	-3.0010253378	-0.6814549518	 0.100047
H	-2.7474120693	 0.9514112049	-1.0371956222	 0.105011
H	-1.9227945039	-0.1691808525	-2.1573615049	 0.084384
H	-0.9164333114	-2.8522007757	-0.3413445387	 0.083503
