20
gdb 10180	3.14054	1.07028	0.83462	1.5397	77.61	-0.2583	0.0464	0.3047	1398.3117	0.174668	-348.97391	-348.963939	-348.962995	-349.009054	35.661	
C	 0.0720000821	 1.6310114946	 0.0288940462	-0.385336
C	-0.0212123867	 0.1025332282	 0.0082085109	-0.177139
C	 0.633233207	-0.5050429915	-1.2386760058	-0.175176
C	 0.6632406643	-2.0509045143	-1.2543223364	-0.186393
C	-0.7488427697	-2.6806915483	-1.3438149698	-0.052306
O	-0.7141659896	-4.0902327298	-1.3640919057	-0.42259
C	 1.472671925	-2.5515413318	-2.3650083166	 0.290125
C	 2.092116522	-2.984201422	-3.3018825545	-0.453168
H	 1.1157333286	 1.9640135266	 0.0160894131	 0.116759
H	-0.424688946	 2.0697562454	-0.8435336638	 0.116834
H	-0.4000381824	 2.0462598597	 0.924479352	 0.11466
H	 0.4613230075	-0.3070229187	 0.905558771	 0.099434
H	-1.0749990392	-0.1943794083	 0.0661648028	 0.105084
H	 0.1196815744	-0.1509446143	-2.1419134917	 0.105149
H	 1.664782405	-0.1424446901	-1.3150440028	 0.108389
H	 1.1155147929	-2.4047148169	-0.3173017821	 0.11103
H	-1.3308563669	-2.4042650998	-0.4606824783	 0.110951
H	-1.2619131691	-2.2702118568	-2.2289576985	 0.090531
H	-0.1419105111	-4.3471382948	-2.0976058128	 0.284623
H	 2.6654517918	-3.352343367	-4.1166284372	 0.198539
