21
gdb 80554	2.80136	1.27792	1.15647	1.297	83.72	-0.2322	0.0169	0.2491	1180.1902	0.183791	-387.088288	-387.07971	-387.078765	-387.121207	33.917	
C	-0.0922274585	 1.6009429149	 0.0052897622	-0.410792
C	 0.009157694	 0.0931088822	-0.0228606907	-0.014014
C	 0.6839654618	-0.6718017899	-1.1470792907	-0.074214
C	 1.4098644449	 0.0472043766	-2.2821993839	-0.230013
C	 2.9355594332	 0.0241080446	-2.1223668839	 0.089289
O	 3.4550895914	 0.948938905	-3.0758175486	-0.43759
C	 3.3474638228	 0.3782620856	-0.709264113	-0.091882
C	 2.6073193863	 0.0719380195	 0.356765519	-0.07595
C	 1.3156781051	-0.6479244887	 0.2280733265	-0.091044
H	 0.84671203	 2.0810220351	-0.2806591411	 0.12896
H	-0.8752675242	 1.9572839584	-0.6737880802	 0.115444
H	-0.3449183503	 1.9496156271	 1.0126692055	 0.113022
H	-0.865612181	-0.40595625	 0.3877532907	 0.080698
H	 0.2006557234	-1.6008580204	-1.4324215593	 0.079842
H	 1.1431613015	-0.3990274953	-3.2446767825	 0.100841
H	 1.1178363427	 1.1005283154	-2.3399588297	 0.115279
H	 3.3048478356	-0.9904853066	-2.3545564729	 0.072078
H	 4.4155405156	 0.8912252491	-3.0558634969	 0.279156
H	 4.2997210568	 0.8930332861	-0.5967767026	 0.078782
H	 2.945911571	 0.3379127253	 1.3559466974	 0.086404
H	 1.2340441479	-1.5479209342	 0.8330922646	 0.085703
