16
gdb 24651	4.4688	1.24686	1.01761	1.7847	80.74	-0.2288	-0.0407	0.1881	1135.6923	0.127098	-396.947554	-396.940441	-396.939497	-396.979694	26.799	
C	-0.1489583506	 1.2531643882	-0.372590349	-0.233415
C	 1.2730695747	 1.0078027703	 0.0169250135	-0.212753
N	 0.2845589039	-0.0453585307	 0.1332970659	-0.117516
C	-0.1150332287	-0.5141298783	 1.3843519098	 0.330492
N	 0.8115329018	-0.6928617194	 2.3251740908	-0.300653
C	 0.3915856721	-1.2217917617	 3.4789723191	-0.016336
C	-0.9356542704	-1.5586235903	 3.7034771854	-0.026088
N	-1.8722163222	-1.3689329378	 2.7632660183	-0.227447
C	-1.4628269486	-0.855345247	 1.6133103186	-0.055279
H	-0.7489088015	 1.8748915099	 0.2882727016	 0.127885
H	-0.4392569259	 1.2775216436	-1.4187069045	 0.128418
H	 2.0284452776	 0.8581851625	-0.7485373548	 0.1274
H	 1.6320165462	 1.4516512927	 0.9410156729	 0.136716
H	 1.1445713021	-1.3734776936	 4.2485598628	 0.113194
H	-1.2583921871	-1.9842317281	 4.6487382386	 0.112048
H	-2.2050123834	-0.7014072603	 0.8339266609	 0.113335
