16
gdb 131143	3.76378	1.1769	1.0144	3.0053	70.09	-0.248	-0.014	0.2341	1157.6263	0.124289	-437.856712	-437.848951	-437.848007	-437.889894	29.418	
O	 0.2593504693	 1.3179201973	 0.3495696884	-0.456198
C	 0.0476642169	-0.0476348079	 0.0890073697	 0.285291
C	-0.7150173986	-0.8445440808	 1.1209925993	-0.334695
C	-1.3976322012	-0.389187034	-0.1507540403	-0.286178
C	 1.119575201	-0.6735170247	-0.7206650006	 0.088455
C	 1.7131672762	-1.8942673724	-0.6300337676	-0.022228
O	 2.6537529809	-2.0411673717	-1.5754451832	-0.168732
N	 2.7187036956	-0.8738460175	-2.3313338925	-0.129749
C	 1.8123109534	-0.0812430027	-1.8208622471	-0.047805
H	 1.0377772059	 1.3918402827	 0.9140388875	 0.28448
H	-0.4977525995	-1.8997081596	 1.2458947801	 0.114122
H	-0.9673884393	-0.3196755619	 2.0350705212	 0.123016
H	-2.0989064952	 0.4338189339	-0.0760553558	 0.13128
H	-1.6258313504	-1.1287481921	-0.9090137846	 0.123725
H	 1.5781814469	-2.7366811522	 0.0301265516	 0.151362
H	 1.6698974982	 0.9049831238	-2.2385579064	 0.143855
