12
gdb 17168	4.61856	1.90649	1.5837	2.6374	55.17	-0.2512	-0.0503	0.2009	762.4771	0.08133	-418.350832	-418.344652	-418.343708	-418.381433	22.919	
O	 0.030552689	-0.0543788666	 0.0509659162	-0.23828
C	 0.0775673011	 1.1464441025	-0.0041378114	 0.018981
C	 1.3342971104	 1.9393806014	-0.0040402889	 0.345332
O	 2.643208562	 1.3318489555	 0.0628306957	-0.325916
C	 2.9641583727	 2.7497040289	 0.0060388003	 0.033381
C	 1.7894899504	 3.1157041305	-0.9546056883	 0.005211
O	 1.2599904518	 4.1712666633	-0.1104958153	-0.315301
C	 1.7361698699	 3.2003516603	 0.857862875	 0.005205
H	-0.8340349736	 1.7807410841	-0.0596428864	 0.101925
H	 4.0083147102	 3.0571183015	 0.0223934868	 0.120176
H	 1.7327251008	 3.2127395218	-2.0378993607	 0.124642
H	 1.6162371554	 3.3977243169	 1.922204637	 0.124644
