16
gdb 16107	4.46234	1.64779	1.44946	1.095	71.37	-0.2439	0.0443	0.2882	886.7185	0.131019	-346.562688	-346.555667	-346.554723	-346.593604	27.493	
C	 0.0201956971	-1.1979685067	-0.0828559991	-0.394522
C	 0.0353254717	 0.0040503254	-0.0284422175	 0.165805
C	 0.0210185755	 1.4302009318	 0.058697471	 0.180864
C	 0.3321075671	 2.2986633633	-1.1498661892	-0.32125
C	 1.2815652521	 2.290894151	 0.0119208839	-0.104698
C	 1.0623591481	 3.3682180877	 1.0578699144	-0.094028
O	-0.3471741441	 3.4187474209	 1.2599926459	-0.257924
C	-0.8615579299	 2.1026128376	 1.1128292509	-0.15234
H	 0.0119703324	-2.2581371453	-0.137439677	 0.186755
H	 0.637911557	 1.7799472625	-2.0502031541	 0.126091
H	-0.2881291324	 3.1762289582	-1.3029969759	 0.128829
H	 2.2571172926	 1.8315461296	-0.0862691347	 0.10622
H	 1.5929775271	 3.1070983595	 1.9875280974	 0.097718
H	 1.3794742183	 4.3685772123	 0.7455849481	 0.113697
H	-1.9119084239	 2.1905933383	 0.8194903603	 0.116561
H	-0.8029630087	 1.5333474339	 2.0532354254	 0.102223
