19
gdb 40450	3.55502	1.21797	1.10358	0.572	74.74	-0.2578	0.0776	0.3355	1160.6447	0.160065	-423.001728	-422.993894	-422.99295	-423.034429	30.251	
C	-0.028345973	 1.4391661502	-0.0660662089	-0.186775
O	 1.1565182822	 0.6435439686	-0.1545742866	-0.2369
C	-0.0946425195	-0.0256441669	 0.0295728367	-0.019212
C	-0.2804041203	-0.7472240071	 1.321908791	 0.438093
C	 0.164952101	-0.1601584635	 2.6496599505	-0.30152
C	 0.0329544861	-1.3381861024	 3.6453021767	-0.221939
C	 0.2176661183	-2.6229711146	 2.8009467491	-0.240388
C	-0.2514017988	-2.2167751098	 1.4197004766	-0.010175
O	-1.5015856852	-1.5074180516	 1.4134591042	-0.312342
H	-0.1157823323	 2.0461355694	 0.8328719598	 0.11758
H	-0.3340094601	 1.9276911168	-0.9899053144	 0.119754
H	-0.4507717704	-0.5797755405	-0.8393758232	 0.0956
H	 1.2023055718	 0.1762890643	 2.5440747073	 0.122516
H	-0.4357724393	 0.703098254	 2.9528503638	 0.104863
H	 0.7487971034	-1.2714543612	 4.4677193412	 0.100565
H	-0.9687900071	-1.3326455999	 4.0799564777	 0.12027
H	 1.2726676471	-2.9171744636	 2.7377491909	 0.107435
H	-0.3372094316	-3.4750908522	 3.2056215501	 0.110054
H	-0.0781498025	-2.8559370003	 0.5568355875	 0.09252
