20
gdb 103704	2.90997	1.14318	0.96154	3.7225	80.78	-0.274	0.0178	0.2919	1294.5014	0.168276	-403.154686	-403.144477	-403.143533	-403.189483	37.669	
C	 0.2149869425	 1.4148643771	 0.3258830769	-0.385343
C	-0.2025895028	 0.0261868847	-0.1745403129	-0.239764
C	 0.6114194733	-0.4556386869	-1.3702165727	 0.29024
C	 0.3984905964	 0.3207870056	-2.6570636807	-0.466795
C	 1.9868564051	-1.0238347201	-1.1090896807	-0.377689
C	 0.8437271255	-1.960948907	-1.4766692929	 0.195593
O	 0.2763413275	-2.761055464	-0.4808242124	-0.443256
C	 0.8620241501	-2.5884867653	-2.7819806112	 0.25704
N	 0.8856034174	-3.1168638203	-3.8111700453	-0.357185
H	 1.2728074997	 1.4319573535	 0.6094661759	 0.116905
H	 0.060744355	 2.1892028412	-0.4315530612	 0.120545
H	-0.3714264199	 1.6950424327	 1.2059776537	 0.118377
H	-0.1127517091	-0.6994293084	 0.6368061708	 0.118876
H	-1.2628109116	 0.0400346546	-0.4569386101	 0.104854
H	 0.7285701481	 1.3572284728	-2.5377669522	 0.125638
H	 0.9547157481	-0.1103719419	-3.4928786959	 0.13891
H	-0.6615160049	 0.3329414484	-2.9323763866	 0.129313
H	 2.77306945	-0.8618513567	-1.838336768	 0.131246
H	 2.3195495424	-1.0984114307	-0.0788454338	 0.125148
H	 0.8703099371	-3.5020981294	-0.3142793907	 0.297345
