18
gdb 133878	3.53569	2.16998	1.87468	1.6747	77.35	-0.2301	0.0938	0.3239	800.3447	0.152293	-364.737867	-364.732498	-364.731554	-364.767136	24.515	
C	-1.4348507392	 1.4276927955	 0.4334233756	-0.347335
C	-1.5709806058	 0.0579778234	-0.3333500066	-0.099015
C	-0.7638689082	-0.6297313038	 0.8145240417	-0.036866
C	 0.3281610154	-1.5427059681	 0.2960830508	-0.082799
C	 1.597664961	-0.7409193433	 0.2648683473	-0.033654
C	 1.401093053	 0.6292129261	 0.958825058	-0.374927
C	-0.0542351033	 0.7405725816	 0.5647956254	 0.288908
C	-0.1509530665	 0.2979513866	-0.9171839315	 0.025445
N	 0.735379246	-0.8843980627	-0.9625149129	-0.150055
H	-2.0297012121	 1.534730841	 1.3440556396	 0.098902
H	-1.4839228484	 2.3348898636	-0.1753324002	 0.098509
H	-2.460096755	-0.3129924604	-0.8458192729	 0.074833
H	-1.2337024642	-0.8249820746	 1.7787780611	 0.066549
H	 0.2992509703	-2.6257927006	 0.324299442	 0.08886
H	 2.5765779442	-1.2040540598	 0.2113145005	 0.092577
H	 2.0456532782	 1.4028167822	 0.5306692133	 0.11021
H	 1.5860992419	 0.5606598415	 2.0351424605	 0.109174
H	 0.0072936125	 1.0144440717	-1.7236937717	 0.070685
