21
gdb 63821	3.0718	1.45565	1.29966	1.1253	81.04	-0.2331	0.0772	0.3103	1072.1467	0.182389	-387.034064	-387.02591	-387.024966	-387.065975	33.769	
C	-0.3542577405	 1.6006642459	-0.0775850331	-0.458953
C	 0.0006449092	 0.1216888138	-0.0587956226	 0.394262
O	-1.188101459	-0.6647769231	-0.1405824041	-0.477919
C	 1.0981675354	-0.4272900532	-1.0477840677	-0.323846
C	 1.7926006633	-1.1629365704	 0.1407453344	-0.010055
C	 2.9816155252	-0.4894982863	 0.8710734127	-0.058833
C	 2.8891631304	 1.0037031847	 0.8537475895	-0.291595
C	 1.9930773606	 0.2429199561	 1.7975062432	-0.075354
C	 0.8064028756	-0.4866584213	 1.1292077827	-0.032493
H	-0.8119070009	 1.8733273895	-1.0376473494	 0.101527
H	-1.0785222471	 1.8164950498	 0.7141640677	 0.123533
H	 0.5158374374	 2.2431478923	 0.069927707	 0.122722
H	-1.6222430078	-0.4500249134	-0.9739873101	 0.270664
H	 0.6716415878	-1.0961942144	-1.7992598596	 0.092883
H	 1.7060344296	 0.3265256678	-1.5551340946	 0.095977
H	 1.8525053655	-2.2480713536	 0.0737406771	 0.070216
H	 3.9050659457	-0.996723671	 1.1250118715	 0.082468
H	 3.7110884442	 1.5106388089	 1.3508887033	 0.110109
H	 2.5163351406	 1.5452336649	-0.0083398689	 0.10657
H	 2.0628301648	 0.4123401503	 2.8656735299	 0.08354
H	 0.2049595399	-1.0802508373	 1.8171475211	 0.074577
