22
gdb 114333	3.02504	1.07092	1.02974	2.8168	81.44	-0.2135	0.0718	0.2854	1295.9668	0.195144	-404.324065	-404.314945	-404.314001	-404.35832	34.747	
C	-0.0946369558	 1.5955840205	 0.043174531	-0.425995
C	 0.0381063722	 0.0925120616	-0.0388517113	 0.024187
C	 0.6040753093	-0.6408582723	-1.2046689918	-0.043595
C	 1.4193325114	 0.1115063171	-2.2513914346	-0.287053
C	 2.8106324929	 0.299116636	-1.592963853	 0.057608
C	 3.5071222079	 1.5916887107	-1.9875470736	-0.09885
O	 4.7656406221	 1.6291415127	-1.3303184219	-0.422027
C	 2.5463985665	 0.1608722237	-0.0717521948	-0.180761
N	 1.3143248393	-0.6402039479	 0.0953904949	-0.119029
H	 0.6040441603	 2.1370000844	-0.5978649151	 0.120757
H	-1.1076408372	 1.8892616955	-0.2525138103	 0.120875
H	 0.0608813635	 1.9425027134	 1.0712326797	 0.126181
H	-0.758321173	-0.4179474642	 0.5030958977	 0.084344
H	 0.1603882845	-1.5883363102	-1.5017969928	 0.083306
H	 1.4843411817	-0.4593890188	-3.1811290289	 0.104792
H	 0.9686616095	 1.0780267394	-2.5077318713	 0.099905
H	 3.4575952004	-0.5301484086	-1.9009596548	 0.087089
H	 3.6274799913	 1.6344766431	-3.0823359933	 0.086546
H	 2.8802554439	 2.451983211	-1.6950634533	 0.082528
H	 5.2013158423	 2.4561982592	-1.5554645385	 0.287192
H	 3.3662499694	-0.3613216016	 0.4264222295	 0.114633
H	 2.4604769175	 1.142576255	 0.4096854566	 0.097367
