18
gdb 38811	3.01762	1.84617	1.50261	1.8172	73.26	-0.2481	0.0243	0.2723	916.4193	0.151681	-401.964884	-401.958319	-401.957375	-401.995879	26.815	
C	 0.1053434114	 1.5602550444	 0.3475380837	-0.285479
C	 1.3130994464	 0.7691830101	-0.0751857617	-0.037244
C	 2.2655758744	 0.2927393012	 1.0159063152	-0.252749
C	 1.4303285041	-0.5718632601	 1.976472943	 0.072056
O	 1.0775382745	 0.1154366847	 3.207515891	-0.233881
C	-0.2731974892	 0.0166077705	 3.3022903591	 0.104869
N	-0.9427570205	-0.5102898033	 2.3647301128	-0.25674
C	 0.0425752965	-0.8399027434	 1.314589984	-0.031748
C	-0.0268001948	 0.0793985074	 0.0964691591	-0.026159
H	 0.0465941179	 1.9246991189	 1.3678659654	 0.12336
H	-0.341415123	 2.2255497649	-0.3830928096	 0.111939
H	 1.7233079739	 0.9420901707	-1.064017846	 0.084449
H	 3.0581262247	-0.3220415982	 0.5760602832	 0.105274
H	 2.7540664047	 1.1091606553	 1.5573083306	 0.118913
H	 1.9604069658	-1.4808014917	 2.2737101328	 0.093749
H	-0.6850040505	 0.4248503364	 4.2192712144	 0.13727
H	-0.0858751908	-1.8815030333	 1.0092974955	 0.084553
H	-0.6069989055	-0.2501907344	-0.7571563324	 0.087568
