16
gdb 29302	4.1089	1.12785	0.95011	1.7222	72.93	-0.1919	0.0339	0.2258	1208.5685	0.126084	-434.074571	-434.066739	-434.065794	-434.107972	29.619	
O	 0.2069810523	 1.3561689395	-0.1172398919	-0.439557
C	 0.106577442	 0.0075676259	-0.1026789283	 0.339784
C	-0.2450433695	-0.8037683852	-1.1491849844	-0.212777
N	-0.1948797207	-2.0842622679	-0.6082596803	-0.291922
C	 0.171121186	-1.9747047668	 0.6875543405	 0.420515
N	 0.3636826129	-0.7118837223	 1.030934385	-0.398168
N	 0.298486525	-3.1296241216	 1.4732678222	-0.206421
C	 1.3553848583	-3.1007841353	 2.5032186563	-0.217263
C	-0.0676888981	-2.9902811206	 2.8963345908	-0.217255
H	 0.4727908129	 1.6142287003	 0.7732397329	 0.298198
H	-0.5119337034	-0.6074166597	-2.1714411339	 0.129532
H	-0.3905645764	-2.9544914536	-1.0731855594	 0.268011
H	 1.8900012829	-4.037640164	 2.6276062755	 0.120762
H	 1.9544751439	-2.1971342001	 2.5556517327	 0.142892
H	-0.4192000453	-2.0128188161	 3.2113706324	 0.142907
H	-0.5918816926	-3.8449247523	 3.3132187396	 0.120761
