20
gdb 11461	3.18418	1.55718	1.19563	2.8411	70.96	-0.2436	0.0795	0.3231	1067.4936	0.177756	-386.15428	-386.145872	-386.144928	-386.187599	31.425	
C	 0.1008481955	 1.3980704447	 0.46010595	-0.4012
C	 0.0730126434	-0.0625671921	 0.0423249225	 0.164663
C	 1.0559487639	-0.461144805	-1.0628370712	-0.224155
C	 1.248201919	-1.9640767502	-0.8014828943	-0.264934
C	 1.1083183982	-2.0712847674	 0.7297339352	 0.116443
C	 2.4439815377	-2.13125529	 1.4709596748	-0.055941
O	 2.2667598001	-1.9672039915	 2.8608519628	-0.42487
O	 0.4382788077	-0.8750234821	 1.1638242058	-0.303858
H	 1.1106778109	 1.6900001612	 0.7653433863	 0.118779
H	-0.2129193521	 2.0396018902	-0.3694535142	 0.116009
H	-0.5766589369	 1.5716886207	 1.3008634837	 0.126234
H	-0.9507791738	-0.3313409856	-0.2687421538	 0.067323
H	 0.6779444848	-0.2424995343	-2.0646417426	 0.102496
H	 1.9990648704	 0.0812197422	-0.9309832285	 0.104925
H	 0.4669709386	-2.5447408222	-1.3007851757	 0.107266
H	 2.2133853213	-2.3392194988	-1.1537634119	 0.107301
H	 0.4969480519	-2.9322699002	 1.0291393234	 0.078939
H	 2.9156730416	-3.1080538279	 1.3143020826	 0.101756
H	 3.1195897227	-1.3628038038	 1.0556424437	 0.074134
H	 1.673806555	-1.2104727177	 2.9522835117	 0.28869
