19
gdb 85410	1.97164	1.63502	0.95816	4.3864	79.4	-0.2537	0.0092	0.2629	1253.3792	0.158245	-423.085354	-423.076211	-423.075267	-423.120575	33.377	
C	 0.1714991663	 1.4888398165	-0.1674527334	-0.383646
C	-0.0745277506	 0.0007694522	 0.0987619575	 0.084082
O	 0.2160595252	-0.7114013732	-1.1209908599	-0.239739
C	 1.1597975239	-1.6667031575	-1.2532899457	 0.410311
O	 1.3274431863	-2.1762331135	-2.3283579593	-0.329211
C	 1.9802228615	-2.0696492334	-0.0388355234	-0.448518
C	 1.6023341881	-1.435694513	 1.2693381297	 0.282572
C	 2.3364715393	-1.9168186289	 2.4881848154	-0.473139
C	 0.6611123466	-0.4975325975	 1.3020366775	-0.163574
H	 1.2368983578	 1.6771182045	-0.3285159053	 0.12631
H	-0.381566635	 1.8076773105	-1.054464695	 0.135559
H	-0.161239995	 2.0867112418	 0.6865718555	 0.11973
H	-1.1528966817	-0.1464068502	 0.2533346136	 0.106099
H	 1.9264117618	-3.16418217	 0.0228287569	 0.145809
H	 3.0299487341	-1.8585277636	-0.2854222183	 0.147079
H	 3.4182447859	-1.7655201676	 2.3815999766	 0.12977
H	 2.0058672785	-1.3963847689	 3.3905335045	 0.125983
H	 2.1865817162	-2.9936658165	 2.6375953095	 0.130702
H	 0.3782955008	-0.0261145719	 2.2398958038	 0.09382
