17
gdb 24679	3.71196	1.64092	1.16836	2.0238	82.94	-0.1874	-0.0005	0.1869	1016.9491	0.140076	-380.906991	-380.900144	-380.8992	-380.93806	27.912	
C	-0.0206523964	 1.5124595518	-0.0334545554	-0.232198
N	 1.3328933304	 2.0925574672	-0.0237736741	-0.400614
C	 2.2562116103	 1.3885720099	-0.81813678	 0.336372
C	 3.4290005549	 1.7644600766	-1.4229074328	-0.265894
C	 3.987472771	 0.5955725677	-2.0282881408	-0.158498
C	 3.1405640837	-0.4531622361	-1.7815775097	-0.113914
N	 2.0793161282	 0.0265111561	-1.0367370266	-0.045304
C	 1.0073100604	-0.6703748846	-0.4795832916	 0.036273
C	-0.0192727686	 0.0016897418	 0.0461470438	-0.153819
H	-0.5822564766	 1.9515721596	 0.7957294968	 0.111738
H	-0.5251966293	 1.835508094	-0.9568141665	 0.124727
H	 1.6719976043	 2.1933689093	 0.9276202173	 0.234179
H	 3.8386227255	 2.762293852	-1.4283292442	 0.096066
H	 4.8996100977	 0.5457065076	-2.6027854552	 0.096792
H	 3.1651653808	-1.4839660782	-2.0972524272	 0.115864
H	 1.093825443	-1.7501628624	-0.4940956923	 0.11741
H	-0.8480798193	-0.5256374221	 0.5022141884	 0.100822
