18
gdb 75646	3.04368	1.57098	1.27339	3.4087	78.5	-0.2424	0.0061	0.2485	1030.6373	0.147979	-401.848353	-401.840752	-401.839808	-401.880332	29.661	
C	 0.4727719928	 1.2267736151	 0.0504338543	-0.35282
N	-0.2514415619	-0.0248135941	-0.0185307349	-0.17262
C	-0.1723693027	-0.9597597427	-1.0882054464	 0.328858
O	 0.1358287229	-0.7999299852	-2.2327888558	-0.343457
C	-0.7407818618	-2.0912039368	-0.1471852215	-0.164273
C	-0.1800943195	-2.9778574267	 1.0339411478	-0.0776
C	 0.9937213687	-1.9937220704	 1.1794902516	-0.259217
C	-0.2844059011	-1.1258526672	 0.9429685062	 0.315775
C	-1.0247168037	-2.0163358412	 1.9959616288	-0.298704
H	 1.4567436865	 1.101176595	 0.5236843445	 0.122272
H	 0.6202875611	 1.5834460789	-0.9721919189	 0.156222
H	-0.0942886869	 1.9766412153	 0.6095734158	 0.131359
H	-1.8218651536	-2.1637991158	-0.2910659608	 0.102989
H	-0.1455207609	-4.0658312557	 1.099968412	 0.091011
H	 1.4649041948	-1.9288931966	 2.1622551866	 0.094802
H	 1.7289604502	-1.9931373785	 0.3708124251	 0.11054
H	-2.1111878626	-2.0802308924	 1.9177786921	 0.112205
H	-0.6890002323	-1.9659084312	 3.0353987135	 0.102659
