20
gdb 75623	2.09612	1.70752	1.08109	3.5276	81.26	-0.2271	0.0381	0.2652	1176.2612	0.169632	-403.161239	-403.151721	-403.150777	-403.195534	34.802	
C	-0.0992368155	 1.5783700729	-0.0153529234	-0.402755
C	 0.0175169066	 0.0614679873	 0.0305404869	-0.267589
C	 1.1597405982	-0.5600578947	-0.816696707	 0.423842
O	 1.4748574663	-0.5779028353	-1.9794835084	-0.387753
N	 1.7385538964	-1.1106968427	 0.3019216963	-0.128686
C	 2.9178350265	-1.9155390032	 0.4705636654	-0.354901
C	 0.7494414849	-0.5863298824	 1.226437204	 0.40602
C	 1.0231905556	-0.0258662126	 2.5856553999	-0.331655
C	 0.1936750261	-1.2945728461	 2.4195313445	-0.336567
H	 0.8574593831	 2.0559477855	 0.2171368828	 0.124522
H	-0.4037523094	 1.9012430162	-1.0151889912	 0.13774
H	-0.8447714716	 1.9432895329	 0.6989196187	 0.115914
H	-0.9437947254	-0.4165870738	-0.1823294579	 0.101301
H	 3.3557041378	-2.064756063	-0.5192737994	 0.164668
H	 3.6591226895	-1.4218314185	 1.1112153359	 0.128419
H	 2.6817346474	-2.8961693037	 0.9020147496	 0.128754
H	 2.02136307	-0.1310998155	 2.9984546483	 0.117856
H	 0.5170279793	 0.8889601451	 2.8763587405	 0.12202
H	-0.8753252815	-1.2413564115	 2.5986095567	 0.121307
H	 0.6487789057	-2.2317346368	 2.7239007878	 0.117543
