20
gdb 114526	2.43469	1.51861	1.12201	0.5199	75.45	-0.2125	0.0527	0.2652	1153.0163	0.170234	-440.208518	-440.199512	-440.198568	-440.242769	33.21	
C	 0.0021334379	 1.5853932063	 0.2981312033	-0.237582
O	 0.4760381121	 0.3099967378	-0.0702214528	-0.226298
C	 0.8192386339	-0.4827873731	 1.0320676815	 0.123515
C	-0.3494086698	-1.1796189951	 1.7948774113	-0.210423
N	 0.1051810275	-2.5332711564	 1.3490647333	-0.132933
C	-0.4279102291	-2.8852400805	-0.0127147783	-0.22856
C	 0.9627430788	-2.6003805365	-0.6418888006	 0.13795
O	 1.0730406769	-1.859124625	-1.8262046806	-0.418805
C	 1.328046434	-1.9066111533	 0.6832260758	-0.058004
H	 0.756709857	 2.1473220538	 0.8714206912	 0.104075
H	-0.2189422135	 2.127043111	-0.6243009755	 0.130279
H	-0.9156659521	 1.5290343898	 0.9034948433	 0.104845
H	 1.5101202984	 0.0657445906	 1.6918423226	 0.064148
H	-0.300285581	-1.0827861494	 2.8842976307	 0.101635
H	-1.3555120817	-0.9087174202	 1.4580361876	 0.106133
H	-0.8122826296	-3.9075754419	-0.0792643373	 0.094806
H	-1.1868123753	-2.1849531041	-0.3797311724	 0.10891
H	 1.5444606277	-3.5309248831	-0.7053238534	 0.078171
H	 1.01020742	-2.4687482067	-2.5677949223	 0.284718
H	 2.3091719478	-2.1437050639	 1.1038333827	 0.073418
