16
gdb 33298	5.89445	0.73672	0.70084	1.8567	97.24	-0.2292	-0.0287	0.2005	1588.8707	0.123365	-363.511648	-363.503343	-363.502399	-363.544863	31.403	
C	 0.0977510423	-3.7574708886	 0.0050059562	-0.586714
C	 0.0640108253	-2.5497589213	-0.00340286	 0.260586
C	 0.0236133522	-1.1920828684	-0.0117254977	 0.000893
C	-0.0027765782	 0.0202628278	-0.0277058599	 0.243385
C	-0.0875766992	 1.4361468921	-0.0213646466	 0.050794
C	 0.286002027	 2.2868345106	-1.1827468516	-0.26307
N	 1.142590808	 2.3807493991	 0.0008616479	-0.152903
C	 0.3860331988	 3.2492054645	 0.9727479625	-0.151523
C	-0.8169326608	 2.2767887681	 1.036169099	-0.313716
H	 0.131052403	-4.8186237651	 0.0103069889	 0.191575
H	 0.7670039635	 1.7895615884	-2.018611403	 0.135629
H	-0.352375471	 3.1281804672	-1.4506609735	 0.114341
H	 0.9397929718	 3.3250725931	 1.909346207	 0.120941
H	 0.1935842148	 4.25559328	 0.5867621027	 0.109798
H	-1.8042516234	 2.6487959576	 0.749618188	 0.110436
H	-0.8935238641	 1.7638428349	 1.99523046	 0.129549
