20
gdb 82930	2.12093	1.85901	1.53083	2.4944	78.11	-0.2204	0.0655	0.2859	1008.4458	0.171607	-403.101987	-403.093826	-403.092882	-403.133997	32.803	
C	-0.0083554723	 1.4883486871	-0.0197462083	-0.443614
C	 0.0054917642	-0.0224349197	 0.0036308667	 0.298746
C	-0.8718969108	-0.7319027299	 1.018167246	 0.044003
O	-1.6849732445	-1.8280718834	 0.7058424779	-0.410864
C	 0.6315631143	-0.8356398819	 1.1356414343	-0.146413
C	 1.3259260194	-2.034842394	 0.4819867466	-0.262318
C	 1.2194704771	-1.7948913115	-1.0285079101	-0.016907
C	-0.0925694806	-1.9031630689	-1.7153535109	-0.261722
N	 0.4183028719	-0.5841460072	-1.2849381969	-0.156754
H	 0.9560178238	 1.8702939537	-0.3688296995	 0.122422
H	-0.7804237313	 1.856929815	-0.7033078574	 0.124742
H	-0.2061461566	 1.9021177538	 0.9739326511	 0.104957
H	-1.3405739152	-0.0477679649	 1.7282472568	 0.084431
H	-1.6879397043	-2.4161899606	 1.4692178326	 0.289362
H	 1.1165956252	-0.3641418198	 1.985188523	 0.081819
H	 2.3756252895	-2.0626550449	 0.7866851677	 0.107747
H	 0.8814268657	-2.9920663815	 0.7786701884	 0.099025
H	 2.1319501465	-1.8959610453	-1.6124089756	 0.084903
H	-0.1102404676	-2.0239865362	-2.7959812157	 0.104166
H	-0.9239616343	-2.3397029099	-1.1827903264	 0.152268
