20
gdb 59387	4.14123	0.81258	0.71785	5.1623	78.33	-0.2396	0.0265	0.2662	1570.9586	0.169603	-440.293725	-440.283814	-440.28287	-440.329944	34.958	
C	 0.124253908	 1.4418344173	-0.1773629073	-0.410711
C	-0.050068419	-0.0644812296	 0.013235507	 0.124523
O	 0.7337912206	-0.5509581865	 1.0980114577	-0.427836
C	-1.5117473407	-0.469427194	 0.188915215	-0.012696
C	-2.4132582753	-0.4201496393	-1.085715276	-0.207852
N	-2.6040334305	-1.8641496607	-0.9472499966	-0.034267
C	-1.7783986317	-2.0024466859	 0.2529674086	-0.190884
C	-3.3777764322	-2.7661224006	-1.5862217051	 0.131225
O	-3.4709331467	-3.9368641955	-1.2765306118	-0.331743
H	 1.1827683328	 1.6884006096	-0.293363346	 0.131916
H	-0.4130694392	 1.8001206614	-1.0615377006	 0.122112
H	-0.2627239264	 1.9890390919	 0.6916258788	 0.109297
H	 0.3502153503	-0.5877143576	-0.8652572617	 0.094537
H	 0.4809232882	-0.0611643864	 1.8888195928	 0.278638
H	-1.9459960046	 0.0763874353	 1.0326853701	 0.073961
H	-3.3317190665	 0.1695308622	-0.9915589826	 0.11689
H	-1.8952181976	-0.1214206169	-2.0058495224	 0.113764
H	-0.8922473444	-2.6296650793	 0.1165535171	 0.133974
H	-2.3328668745	-2.361237518	 1.1253574868	 0.121503
H	-3.9244371408	-2.3109741475	-2.4391390439	 0.063649
