20
gdb 87527	2.96777	1.53416	1.33154	1.4884	78.51	-0.2341	0.0827	0.3169	1048.0227	0.172129	-403.089601	-403.081843	-403.080899	-403.121527	31.016	
C	-0.1693841146	 1.4653472651	-0.0867718356	-0.31954
N	 0.0002524492	 0.0203328948	 0.0112184432	-0.1565
C	 1.3747549888	-0.4918836024	-0.169114292	-0.351354
C	 0.7107220667	-0.5063015864	 1.1436803915	 0.440999
C	 1.1753918451	 0.0779984257	 2.4880491591	-0.024382
C	-0.1494931904	 0.2994997375	 3.25322058	-0.22185
C	-0.8170214223	-1.0749557865	 2.9109273727	-0.219332
C	 0.3418811394	-1.6605344115	 2.0779594622	-0.023655
O	 1.5158215233	-1.2905755677	 2.8736271378	-0.299059
H	 0.6684874298	 2.0399525895	 0.3412306517	 0.101206
H	-0.2689185899	 1.7430281851	-1.1405475334	 0.126208
H	-1.0886406199	 1.7620610254	 0.4282016613	 0.125946
H	 1.4677249905	-1.3961738349	-0.764668903	 0.119506
H	 2.1685473459	 0.2389503424	-0.3215881038	 0.109417
H	 1.9901270418	 0.7917881221	 2.604761597	 0.082426
H	 0.0332997172	 0.4239091346	 4.3224815116	 0.108601
H	-0.7156655002	 1.1614555969	 2.8914112512	 0.101225
H	-1.0226557461	-1.6780641745	 3.7972990468	 0.106576
H	-1.7350386607	-0.9762018098	 2.325885764	 0.110057
H	 0.3160873264	-2.7052687454	 1.7711799077	 0.083506
