14
gdb 127542	5.05773	1.33034	1.07227	0.817	65.79	-0.2144	-0.0062	0.2082	1058.5212	0.102664	-469.970633	-469.963303	-469.962359	-470.002942	26.06	
C	 0.0647546956	 1.3290097706	 0.0088984456	-0.304344
N	-0.1254888332	-0.1024345562	 0.0023026897	 0.089934
N	-0.0279617234	-0.811616709	-1.1603936009	-0.349832
C	 0.0949437953	-2.0317359276	-0.7005962118	 0.358244
O	 0.1316722543	-3.2921340345	-1.2027612105	-0.275012
C	 0.3557719523	-4.1048753615	-0.0220507985	 0.015255
O	 0.1459800147	-3.3048605906	 1.1699257787	-0.275013
C	 0.1032264996	-2.039150052	 0.6817949526	 0.358237
N	-0.0145338295	-0.8240822582	 1.1560870006	-0.349828
H	 1.1273169335	 1.6000886338	 0.00419269	 0.13882
H	-0.4153645573	 1.7395709939	-0.8801218629	 0.155835
H	-0.404996545	 1.7299605663	 0.907789503	 0.155836
H	-0.3556940123	-4.9328310939	-0.0221939059	 0.146958
H	 1.3926172953	-4.4615575512	-0.0302233697	 0.134909
