19
gdb 107693	3.25215	1.33141	1.12481	1.9051	76.02	-0.2294	0.0624	0.2918	1134.0987	0.159495	-419.092033	-419.08373	-419.082785	-419.124774	32.201	
C	 0.1277976644	 1.3675129333	-0.091094039	-0.529322
C	 0.0453545408	-0.1254766706	-0.0315007946	 0.373467
N	 0.6111016689	-1.0483911602	-1.0788766689	-0.429951
C	-0.0010464601	-1.982707152	-0.0702679554	 0.325772
C	 0.1152382426	-3.4668421552	-0.2482063566	-0.195028
O	 1.4736625176	-3.8430960245	-0.3839437213	-0.416942
C	 0.4675237431	-1.0828425111	 1.1219141488	-0.098474
N	-0.8760349821	-0.9813061684	 1.7792671679	-0.34708
C	-1.1900743889	-1.0345788652	 0.3147297293	-0.156323
H	 1.1690482572	 1.6926073929	-0.1790712762	 0.133237
H	-0.4263827968	 1.7618120677	-0.9498207122	 0.120327
H	-0.3000178774	 1.7951084008	 0.8204356863	 0.146006
H	 0.0315144209	-1.0150672718	-1.9235688748	 0.203563
H	-0.287247786	-3.9915042756	 0.6269054269	 0.107103
H	-0.4813335163	-3.7840762015	-1.1211134329	 0.087412
H	 1.8897577129	-3.1566991576	-0.921359344	 0.294797
H	 1.4129359901	-1.1116181709	 1.663228802	 0.092872
H	-1.118571342	-1.8683265369	 2.228388945	 0.210778
H	-2.2043331491	-0.9947460233	-0.0900873203	 0.077785
