18
gdb 62162	2.00142	1.12468	0.8376	2.5064	70.41	-0.2646	0.0047	0.2693	1398.7566	0.145336	-476.275393	-476.265171	-476.264227	-476.313071	34.416	
C	 0.055577405	 1.6997665165	 0.0842168138	-0.398797
C	 0.0068089964	 0.1814616103	 0.1660115319	 0.104417
C	 0.3268308403	-0.3453072659	 1.5702619844	-0.163601
N	 0.297282149	-1.7944784228	 1.6498640336	-0.27327
C	 1.3605862905	-2.5526101092	 1.2692078312	 0.147896
O	 2.4048412061	-2.1021009459	 0.845355894	-0.324397
O	-1.3245950866	-0.2510904222	-0.175995386	-0.193969
C	-1.4723573674	-1.2013048475	-1.1182498422	 0.158153
O	-2.5344838161	-1.6712168243	-1.3979745642	-0.27891
H	 1.0549780703	 2.0621915197	 0.3420235547	 0.132591
H	-0.183247535	 2.0368262608	-0.9274872931	 0.134005
H	-0.6670142015	 2.1477192032	 0.7731261806	 0.133951
H	 0.7205189563	-0.2636009708	-0.5376167546	 0.117691
H	 1.3283686468	-0.0088622492	 1.8517982308	 0.143856
H	-0.394254762	 0.0604453027	 2.2854754126	 0.121974
H	-0.5533337623	-2.2537229008	 1.9320380224	 0.263348
H	 1.1700564208	-3.6359379578	 1.3948933016	 0.087322
H	-0.5160138106	-1.4845903566	-1.5983201516	 0.087739
