22
gdb 119564	3.22565	0.92517	0.83025	2.0011	81.81	-0.2308	0.0773	0.3081	1482.9054	0.193723	-404.301049	-404.291379	-404.290435	-404.335843	36.085	
C	-0.0707774634	 1.5747133795	-0.1797367682	-0.414649
C	 0.0162785693	 0.075238868	 0.0763719797	-0.043301
C	 0.9707152443	-0.8185514557	-0.7636489212	-0.176669
N	 1.6146228641	-1.4023997454	 0.4656923278	-0.166277
C	 2.2289013451	-0.2477752606	 1.1521178089	-0.29294
C	 0.7714260101	-0.4481646401	 1.308453919	 0.336342
C	 0.079902506	-0.8588675035	 2.5818520182	-0.318442
C	 0.9579674823	-1.6059624139	 3.5905879683	-0.075088
O	 0.2205327741	-2.0462388566	 4.7207018272	-0.418679
H	 0.9164158911	 2.0471879846	-0.1741357593	 0.116023
H	-0.5285906282	 1.7772705526	-1.1542653444	 0.117262
H	-0.6826679076	 2.0703279312	 0.5820850531	 0.118843
H	-0.9922735963	-0.3514112248	 0.0637065522	 0.077436
H	 0.4679634332	-1.5982935087	-1.339225748	 0.107678
H	 1.6808206465	-0.2981882288	-1.41699633	 0.099538
H	 2.8757893608	-0.5391970185	 1.9731609583	 0.121486
H	 2.6192171299	 0.5724335929	 0.5524390097	 0.105793
H	-0.3447505046	 0.0290754051	 3.0687838821	 0.110975
H	-0.7728189679	-1.5030071271	 2.3195694858	 0.089008
H	 1.4678359226	-2.4408505343	 3.0878403256	 0.113228
H	 1.7298958002	-0.9403580971	 3.9895368028	 0.111526
H	-0.4040795917	-2.7139270988	 4.4200539826	 0.280908
