18
gdb 84773	2.2529	1.57526	1.30098	3.6621	77.29	-0.2263	0.0141	0.2405	1067.4881	0.147743	-398.152398	-398.14328	-398.142336	-398.186388	32.859	
C	 0.0008983831	 1.4324565345	 0.0060901762	-0.350819
N	-0.1170950928	-0.0082978161	-0.0020893312	-0.057482
C	 0.1350947762	-0.8213967193	-1.0848353492	 0.069946
N	 0.2218584678	-2.0790807502	-0.8847632001	-0.273838
C	-0.013127227	-2.2754072595	 0.5502653403	-0.204719
C	 0.0204908461	-0.8393141993	 1.2047247569	 0.093947
C	 1.3403466034	-0.5833668739	 1.9574562101	-0.433864
C	-1.1191939037	-0.6144121009	 2.1078495877	 0.274083
N	-2.0043606432	-0.4312985367	 2.828294238	-0.345551
H	 1.0028370015	 1.7862335064	 0.2869745988	 0.125853
H	-0.2252687219	 1.8094371012	-0.9944042395	 0.143139
H	-0.7269870951	 1.8656482619	 0.6997146467	 0.152433
H	 0.2271012727	-0.3605313749	-2.0646446944	 0.130799
H	-0.9853696105	-2.7563565514	 0.7020747285	 0.135068
H	 0.7505539296	-2.9208690936	 0.9937163696	 0.122606
H	 2.1803932931	-0.7634389205	 1.2805857707	 0.139004
H	 1.4011276438	 0.4391925541	 2.3382042669	 0.136074
H	 1.421895427	-1.2665571818	 2.8070624038	 0.143319
