18
gdb 82285	2.44379	1.88971	1.2016	2.9511	79.02	-0.2202	-0.057	0.1631	1035.1953	0.148552	-401.954179	-401.946345	-401.945401	-401.986501	30.475	
C	-0.7498789639	 1.2979606585	 0.1046098367	-0.385187
C	 0.0632104954	 0.0112775295	-0.0245062653	-0.076724
N	 0.645607009	-0.0788820947	-1.3722626347	-0.099076
C	 1.8126138456	 0.7158647539	-1.6989905106	-0.242192
C	 1.9233658576	-0.778661107	-1.5394558591	-0.078121
C	 2.6202088823	-1.297127724	-0.3507865411	-0.026321
C	 2.2391695765	-0.9868933003	 0.897653492	-0.190699
C	 1.0417762227	-0.1711307948	 1.1545510114	 0.355925
O	 0.7879683723	 0.27937343	 2.2557985714	-0.339443
H	-0.1072490169	 2.1756699475	-0.0187925284	 0.117974
H	-1.5287596578	 1.3297200475	-0.6606844973	 0.121545
H	-1.2031527961	 1.3500955859	 1.0950622722	 0.143602
H	-0.6262311071	-0.8423180316	 0.0562342983	 0.114569
H	 1.8189907997	 1.15115833	-2.69504628	 0.125023
H	 2.2861101598	 1.3169027447	-0.9250316786	 0.126899
H	 1.9960429327	-1.3853194864	-2.4393451075	 0.104597
H	 3.4796663887	-1.9403750302	-0.525069073	 0.113324
H	 2.7866853995	-1.3234731485	 1.7716948537	 0.114307
