17
gdb 55046	4.18361	0.87665	0.80898	5.4431	75.62	-0.2528	-0.0447	0.2082	1418.396	0.133984	-418.004097	-417.994781	-417.993837	-418.039203	32.721	
C	 1.9339636898	 0.636050662	 0.0844509946	-0.488213
C	 1.6361311883	-0.843183799	-0.0409389768	 0.390386
O	 2.1011989878	-1.6633937854	 0.7246667105	-0.321556
C	 0.727963356	-1.2269748815	-1.1762678563	-0.111905
C	 0.9412803401	-2.5650586757	-1.8296881677	-0.230504
N	-0.2634765023	-2.3158488293	-1.0744181354	-0.086889
C	-0.4404897614	-3.0168621145	 0.2019715686	-0.304661
C	-1.0727294358	-4.3161927667	-0.0415191515	 0.28445
N	-1.5559321125	-5.3499774683	-0.2192966791	-0.301552
H	 2.341818146	 1.0239420066	-0.8561404022	 0.147762
H	 1.0086275255	 1.1910026891	 0.2790520115	 0.150032
H	 2.6429988742	 0.805027795	 0.8949140471	 0.1498
H	 0.3765794152	-0.3988175015	-1.7860530235	 0.105706
H	 0.8194204185	-2.6554833665	-2.904997581	 0.135668
H	 1.7112814303	-3.1889491901	-1.3802069564	 0.145641
H	 0.4931931497	-3.1689148564	 0.7570178505	 0.181439
H	-1.1069699793	-2.4185173576	 0.8331326872	 0.154398
