23
gdb 112914	2.2449	1.30018	0.93251	2.1162	82.92	-0.2411	0.0819	0.3229	1369.8412	0.204564	-425.434537	-425.424482	-425.423538	-425.469828	37.102	
C	-0.0597658033	 1.4454729655	-0.2211722794	-0.234861
O	 0.0371727652	 0.0786259445	 0.0990382618	-0.23794
C	-1.2029409212	-0.6030605884	 0.0708000781	 0.110376
C	-1.686142539	-0.9159639692	-1.370394379	-0.270448
C	-1.7677004872	-2.4573742578	-1.416701573	 0.15994
C	-1.3808827357	-3.0931089783	-2.7402101412	-0.410207
O	-0.8690278473	-2.8957710573	-0.4065500305	-0.267418
C	-1.037766418	-2.0128318332	 0.6953776416	 0.107275
C	 0.1126302843	-2.1857250383	 1.6694650316	-0.402315
H	 0.9391622253	 1.8756218099	-0.1139191679	 0.127252
H	-0.403938757	 1.6123850514	-1.2533013757	 0.105035
H	-0.7494734517	 1.9725267649	 0.4577731478	 0.10234
H	-1.9445423828	-0.0180317873	 0.6356331784	 0.058128
H	-2.6374466942	-0.4420210673	-1.6243085116	 0.097128
H	-0.9268857867	-0.5602769401	-2.0736462545	 0.111322
H	-2.7921658214	-2.7710031465	-1.1451981403	 0.057575
H	-0.3632372301	-2.8011832187	-3.0176106856	 0.124254
H	-1.4194334776	-4.1837520882	-2.6695672083	 0.124629
H	-2.0646670625	-2.7752088162	-3.5335266309	 0.113204
H	-1.9910636953	-2.2544390291	 1.199888836	 0.057211
H	 1.0594282229	-1.9377029585	 1.1880116012	 0.137854
H	-0.0169605958	-1.5287199487	 2.534234989	 0.112624
H	 0.1482076192	-3.220644293	 2.0201336125	 0.117044
