13
gdb 130323	2.5174	1.87219	1.07554	2.3381	67.33	-0.2271	-0.0812	0.1459	1013.8889	0.089334	-486.022228	-486.014447	-486.013503	-486.054152	29.892	
N	 0.0068884599	 1.3050376754	-0.0430672377	-0.555891
C	-0.0095767447	-0.0570969459	 0.0402075414	 0.342305
N	-1.1446340021	-0.7000799997	 0.0313107183	-0.167648
O	-1.1200381667	-2.06095522	 0.172683532	-0.207396
N	 0.0245470723	-2.7942714283	 0.3300167173	-0.167651
C	 1.1663227915	-2.1633213488	 0.3406274668	 0.342306
N	 2.3268475577	-2.8503841603	 0.5497568932	-0.55589
C	 1.2833720558	-0.7212217166	 0.1580806191	 0.265233
O	 2.3570676912	-0.1314202881	 0.0905046077	-0.387007
H	 0.898700718	 1.6968403789	-0.3051462755	 0.276662
H	-0.8209861186	 1.7607552543	-0.3914443729	 0.269155
H	 2.3101002129	-3.8474975824	 0.4086764205	 0.269156
H	 3.161086453	-2.3554174987	 0.2730346998	 0.276663
