19
gdb 62899	3.95851	1.14286	0.99617	5.973	81.39	-0.2534	0.0286	0.282	1220.6707	0.159381	-382.010821	-382.002223	-382.001279	-382.043748	32.998	
N	 1.2496456715	-0.8285795936	-1.4009049772	-0.332406
C	 0.9791776672	 0.2184369726	-0.9926732519	 0.282003
C	 0.5531025868	 1.5378749733	-0.5573270741	-0.152009
C	 0.5275995497	 1.8265574507	 0.9764099406	-0.06978
N	 2.0353559403	 1.6838430488	 0.9130713756	-0.318034
C	 1.6584227003	 2.5931117255	-0.239749071	-0.069765
C	 0.6227572939	 3.3700466775	 0.6623610932	 0.33493
C	-0.5625763796	 4.1036161312	 0.0227996728	-0.471577
C	 1.1863893058	 4.2788362058	 1.7588749852	-0.473966
H	-0.3001014574	 1.8638047993	-1.1452956597	 0.11528
H	-0.0718049793	 1.3090771589	 1.7274427909	 0.09573
H	 2.47931896	 2.2152977258	 1.6609028184	 0.215404
H	 2.4029651561	 2.9866693465	-0.9339353516	 0.095726
H	-1.0610348557	 3.5617361752	-0.781353383	 0.123876
H	-1.3186370262	 4.3253686437	 0.7839354709	 0.126504
H	-0.2298942403	 5.0631757779	-0.3878549233	 0.126509
H	 1.5002807336	 5.2352610133	 1.3274892979	 0.128235
H	 0.4101472108	 4.4968993541	 2.4999876156	 0.128229
H	 2.0434657125	 3.8720855638	 2.2995962806	 0.115113
