13
gdb 20404	4.95022	2.10501	1.50721	4.8656	58.93	-0.2467	-0.0065	0.2402	771.6765	0.098213	-398.584025	-398.578191	-398.577247	-398.61438	21.826	
C	 0.0226336629	 1.3849028959	-0.1138202129	-0.088642
C	 1.5048044965	 1.8727040333	 0.0498466746	-0.392644
C	 2.1296123011	 0.6477133136	 0.6401530305	 0.105442
C	 3.2125959783	 0.0407158576	 1.170997333	-0.067288
O	 2.9283465647	-1.2544101324	 1.4395918717	-0.183133
N	 1.5903395826	-1.5429581435	 1.0730944708	-0.272162
C	 1.1756154582	-0.3970657172	 0.6112492438	 0.476284
O	-0.01843397	-0.0564819261	 0.1035014288	-0.262537
H	-0.6336737797	 1.8477271906	 0.6293016529	 0.13036
H	-0.3821709431	 1.5737472792	-1.1096567826	 0.132275
H	 1.9437502834	 2.1397501471	-0.9171082667	 0.135275
H	 1.5570458114	 2.7574531288	 0.6897988138	 0.133473
H	 4.2159063838	 0.3507092732	 1.4191609323	 0.153298
