13
gdb 1001	4.14183	3.3009	1.85838	3.2284	55.16	-0.1984	0.047	0.2454	648.2207	0.103022	-340.664901	-340.65818	-340.657236	-340.695735	23.654	
C	-0.0284723169	 1.455575722	 0.0288911911	-0.334744
N	-0.0164630285	 0.007595979	 0.0124700004	-0.041257
C	-0.1590177302	-0.8305336436	-1.068919217	-0.004379
N	-0.0993181392	-2.0918671097	-0.7291750146	-0.263124
C	 0.0914782861	-2.1012797035	 0.638924711	-0.213821
C	 0.1432198414	-0.8120563879	 1.1005340677	 0.327089
O	 0.3066599858	-0.2274455196	 2.3140786034	-0.440047
H	 0.9171753145	 1.8500975503	 0.4119385973	 0.148018
H	-0.1741351159	 1.8139481361	-0.9914941359	 0.142463
H	-0.8409242994	 1.832748275	 0.656815302	 0.148015
H	-0.301764377	-0.4397448011	-2.0656096823	 0.122332
H	 0.17873376	-3.0187664766	 1.2004552488	 0.097663
H	 0.4054377792	-0.9203638904	 2.9740249179	 0.311794
