18
gdb 47197	2.63144	1.74794	1.15386	2.744	81.05	-0.2352	0.0128	0.248	1066.2044	0.149052	-401.95578	-401.947877	-401.946933	-401.989003	30.321	
N	-0.0474955631	 1.1538337945	-0.6123258314	-0.53696
C	-0.0240996643	 0.018311229	-0.0469310634	 0.336899
O	 1.1054417647	-0.4149091845	 0.5777172358	-0.271881
C	 1.3003147425	-1.7589447338	 1.0287620557	-0.119943
C	 0.0551251394	-2.5737403753	 1.1507820184	-0.133147
C	-1.1079372237	-2.145544517	 0.6740127025	-0.108002
C	-1.2456201671	-0.8443818485	-0.0037793989	 0.223372
C	-2.5863085536	-0.1137662971	 0.0869777001	-0.287856
C	-2.1921917588	-0.7473098344	-1.2015974753	-0.28761
H	 0.8651754436	 1.6037814959	-0.5386082954	 0.21815
H	 2.0128891615	-2.2419817964	 0.3422920178	 0.121965
H	 1.8079583325	-1.6760957231	 1.9981088533	 0.125641
H	 0.1555218365	-3.5388951555	 1.6369616165	 0.100911
H	-2.0055901489	-2.7514564777	 0.7635943328	 0.095824
H	-3.35660717	-0.5838349184	 0.6891388354	 0.113149
H	-2.5226604373	 0.9648268187	 0.1555991905	 0.148136
H	-1.8617052548	-0.0954548826	-2.000645505	 0.148166
H	-2.6848086888	-1.6635360839	-1.5090334294	 0.113185
