19
gdb 99803	1.75763	1.48097	1.26646	2.2264	77.59	-0.2408	-0.018	0.2227	1164.8254	0.154437	-423.0083	-422.997534	-422.99659	-423.043828	38.924	
C	-0.1391880432	 1.4948625855	-0.0154031644	-0.495367
C	 0.0030189926	-0.0112400646	 0.0450160224	 0.400029
O	 0.0912265361	-0.6093925615	 1.0877067462	-0.300542
C	 0.0108964245	-0.7866704962	-1.3123500136	-0.074879
C	-0.0070015452	-2.3026148617	-1.0407054856	-0.421724
C	-1.2337416329	-0.3607382455	-2.1463524602	-0.092636
O	-2.435144736	-0.4316806456	-1.4043166125	-0.417297
C	 1.2145588224	-0.4135548835	-2.0523729477	 0.329936
C	 2.1951476033	-0.0967133485	-2.6729017629	-0.487584
H	 0.4586127257	 1.9274409379	-0.8214900245	 0.144392
H	-1.1914132352	 1.7341265709	-0.2063706614	 0.164582
H	 0.149480338	 1.9228036061	 0.9452652518	 0.14194
H	-0.9033208322	-2.5804800373	-0.478386722	 0.114701
H	 0.0171976828	-2.8550093881	-1.983988629	 0.117779
H	 0.8513438632	-2.5958043231	-0.4358556617	 0.147848
H	-1.1314688876	 0.6809004483	-2.4580339783	 0.125427
H	-1.27076233	-0.9763311922	-3.0559824523	 0.108358
H	-2.6275211666	-1.3558054431	-1.2172594814	 0.293056
H	 3.0674634003	 0.1756755524	-3.2143634528	 0.201981
