18
gdb 94917	2.0561	1.78616	1.4206	4.0716	74.58	-0.2684	0.0207	0.289	1008.4466	0.149864	-401.964402	-401.956512	-401.955568	-401.9968	30.647	
O	 0.088245543	 1.4189157122	-0.0228962081	-0.437925
C	 0.0223105113	 0.0085104685	-0.0316206882	 0.139169
C	 0.8113752049	-0.6822752911	 1.1144315292	-0.277261
C	 0.0600038904	-1.9935831653	 1.4351365967	-0.232544
C	-1.3645662425	-1.7817038386	 0.9332196837	-0.057714
C	-2.1266663814	-0.5350955579	 1.3714141856	-0.19005
C	-1.7121167979	 0.3143444691	 2.452183038	 0.290722
N	-1.3874959539	 1.0195872348	 3.3118938717	-0.35851
C	-1.389424197	-0.5787914257	 0.0365309209	-0.086361
H	-0.1982444316	 1.7273678584	 0.845189481	 0.293352
H	 0.44301246	-0.2816665897	-1.0011160522	 0.096304
H	 1.851938818	-0.8570234843	 0.8329759267	 0.109892
H	 0.8261743915	-0.020625023	 1.9838995366	 0.134392
H	 0.4910141735	-2.8351071544	 0.8822148583	 0.112386
H	 0.1022301787	-2.2522018383	 2.4976797239	 0.119557
H	-1.97840604	-2.6527929992	 0.7324392693	 0.102106
H	-3.2068448457	-0.6106952814	 1.295817887	 0.138213
H	-2.0097763612	-0.5254543941	-0.8505753401	 0.104272
