18
gdb 46416	4.07888	0.74661	0.66501	2.6425	79.74	-0.2463	-0.0295	0.2168	1645.9446	0.145671	-401.906643	-401.897309	-401.896365	-401.941793	33.67	
O	-0.0563479846	 0.0020505517	-0.1789293141	-0.283054
C	-0.0650612969	 1.1846361485	-0.0199187217	 0.381454
C	-1.1397441057	 2.2471341969	 0.2594766418	-0.284164
N	-0.044092089	 3.2244565137	 0.5064316645	-0.32513
C	 1.0162796051	 2.2816106745	 0.0374984107	-0.108214
C	 2.1785711313	 2.0689235781	 1.0003488886	-0.168903
C	 3.0401185006	 3.3387961312	 1.1499352385	-0.358661
C	 4.1502694581	 3.1641019611	 2.0773016925	 0.289993
C	 5.0583274485	 2.992467535	 2.845829615	-0.431765
H	-1.7681808687	 2.4425995596	-0.6202395223	 0.126079
H	-1.7916680161	 2.0639569899	 1.1204944523	 0.138073
H	-0.120792661	 4.0642807403	-0.0542954822	 0.2268
H	 1.3953660339	 2.5051057131	-0.9726458106	 0.094002
H	 1.7875494605	 1.7832126297	 1.9819170158	 0.117863
H	 2.7927643142	 1.2375357584	 0.6385136276	 0.124138
H	 3.4283007222	 3.6373008857	 0.1664949627	 0.123852
H	 2.3973733605	 4.1593424466	 1.4925120943	 0.142985
H	 5.8634897673	 2.8520381858	 3.5233975666	 0.194651
