18
gdb 89866	3.77198	0.99621	0.88064	5.0802	79.03	-0.2296	0.0116	0.2412	1338.9468	0.147534	-398.082556	-398.073926	-398.072982	-398.116126	31.887	
C	-0.0095922656	 1.5524098941	 0.1499848492	-0.321416
N	-0.0114541495	 0.1068025788	 0.1146353138	-0.069045
C	-1.2636800632	-0.6020814531	 0.4708007273	-0.237612
C	-0.4083342354	-1.6069435412	 1.2369240372	 0.341919
C	 0.7548415563	-0.6176051174	 1.1496455547	-0.253258
N	-0.8449876339	-2.440581496	 2.3302773629	-0.356196
C	-0.3415185543	-3.0885446444	 1.090973408	-0.276306
C	-1.3121628443	-3.8068269022	 0.3023072547	 0.340126
N	-2.0761937792	-4.3678758749	-0.3596783822	-0.334872
H	 0.9969720132	 1.927319588	-0.0625165286	 0.124828
H	-0.6810662167	 1.9400598356	-0.6226763379	 0.129607
H	-0.3326416549	 1.9655567799	 1.1247814299	 0.093219
H	-1.9212140967	-0.0359827832	 1.1496950102	 0.101639
H	-1.8474753941	-0.9679440196	-0.3794283314	 0.131361
H	 1.7345899632	-0.9896529114	 0.8291856221	 0.11317
H	 0.8755701636	-0.0516578899	 2.0901964503	 0.093366
H	-0.136307678	-2.5036642537	 3.0584948097	 0.245532
H	 0.6445867096	-3.5451083596	 1.10850008	 0.133938
