17
gdb 38574	2.83479	2.20564	2.04175	1.0183	68.17	-0.2344	0.0747	0.3091	787.3176	0.140356	-421.807917	-421.802417	-421.801473	-421.837441	24.343	
C	-0.0048066893	 1.4923024686	-0.0352340662	-0.227277
C	 1.4399376782	 1.971733286	 0.0661377656	-0.104524
C	 2.2342014969	 1.4171363618	 1.2111995313	 0.082543
O	 1.5882416462	 0.404145104	 1.9551886278	-0.252572
C	 1.1082228342	-0.5178861061	 1.0097533907	 0.052496
C	-0.0000706801	-0.0367307172	 0.0262713712	 0.05559
O	 0.7692735437	-0.5558221912	-1.0930510603	-0.305513
C	 1.9671884927	-0.4734166731	-0.2817757205	 0.061443
C	 2.5357236986	 0.9325961861	-0.192649879	-0.118301
H	-0.6036776545	 1.9040660261	 0.7863876014	 0.10739
H	-0.4627365728	 1.8082083689	-0.9777943158	 0.113082
H	 1.649561057	 2.9908048111	-0.2412226481	 0.091218
H	 2.9055522752	 2.0147275182	 1.8153240328	 0.101882
H	 0.9313147001	-1.479517472	 1.4887000714	 0.096518
H	-0.9981892951	-0.4795732533	 0.0773209846	 0.074903
H	 2.6932914987	-1.2495685649	-0.5277622244	 0.080735
H	 3.4422519002	 1.2042120971	-0.7172892824	 0.090388
