19
gdb 119723	3.21888	1.0446	0.93021	2.2746	72.24	-0.2333	0.0572	0.2905	1332.6925	0.157624	-460.094902	-460.085734	-460.08479	-460.1294	33.307	
C	-0.0716722241	 1.3907252673	-0.6230490926	-0.221928
O	-0.0743742279	 0.0432962607	-1.0340780367	-0.23557
C	 0.789345933	-0.7659845201	-0.2711923754	-0.181087
C	 0.6884672357	-2.1668821736	-0.7916430328	 0.370318
O	 1.5214283058	-3.1551177673	-0.1606724902	-0.347524
C	 1.8086386987	-3.7583769831	-1.462809914	-0.107536
C	 0.8357205026	-2.8218051471	-2.1618264888	-0.222172
C	-0.4833306802	-2.8562739041	-1.3973693675	 0.088608
O	-1.0139840477	-4.0180405424	-0.8432409374	-0.440616
H	-0.4031152016	 1.4981000672	 0.4214347741	 0.109434
H	 0.9281477655	 1.8427829156	-0.7150596686	 0.107927
H	-0.7653544412	 1.9296536492	-1.2723463181	 0.13126
H	 1.8317163228	-0.4108825421	-0.3391157955	 0.096789
H	 0.5112063066	-0.7503976869	 0.7978396269	 0.100035
H	 2.8584961516	-3.5964087874	-1.7254897476	 0.115744
H	 1.576382497	-4.8288236911	-1.4780972489	 0.114245
H	 0.9493964435	-2.3909653563	-3.1473728824	 0.104671
H	-1.2434419083	-2.1989978672	-1.8060366494	 0.123509
H	-0.4393111221	-4.2458027612	-0.0996898853	 0.293894
