15
gdb 126871	4.59726	0.97528	0.84381	2.4602	77.66	-0.2551	-0.0923	0.1629	1334.358	0.110154	-450.025279	-450.016785	-450.01584	-450.060005	29.94	
C	-0.0544593745	 1.5592765796	 0.0248010269	-0.366566
C	 0.0790535171	 0.0330211099	 0.0001977294	-0.154325
N	 0.8315765094	-0.3756110487	-1.1748013447	-0.271774
C	 1.8881733055	-1.0739728724	-1.0809205017	 0.358125
C	 2.6456770676	-1.4759432577	-2.2471996322	 0.018825
N	 3.6904827576	-2.2209260971	-2.2074434477	-0.042421
O	 4.1050573515	-2.650272435	-0.9715738208	-0.242171
N	 3.4202478791	-2.2307978069	 0.2502435614	 0.06494
N	 2.4272883324	-1.5217255596	 0.1733139649	-0.154624
H	 0.9233072646	 2.033087566	 0.1531702195	 0.125223
H	-0.4912089767	 1.9245438796	-0.9083977875	 0.132225
H	-0.694779506	 1.8659379264	 0.8568867867	 0.121672
H	 0.5120960527	-0.3335034161	 0.937121527	 0.126885
H	-0.92040127	-0.4088803253	-0.1037461244	 0.123462
H	 2.3292856997	-1.1409475128	-3.2301359368	 0.160525
