16
gdb 51397	5.3633	0.89998	0.86548	1.5348	72.32	-0.2512	-0.0077	0.2435	1316.7261	0.124008	-437.837884	-437.829987	-437.829043	-437.871352	28.898	
N	-0.1359727503	 1.2798574504	 0.1213558758	-0.435714
C	-0.0819370873	 0.0213070962	 0.1447455581	 0.118942
O	-1.1261389669	-0.7027442132	-0.3179759564	-0.203967
C	-1.0360164832	-2.1028545376	-0.1614374647	 0.167985
C	-1.6338012434	-2.7289399935	 1.1524519054	-0.229214
C	-3.0385925799	-2.3159381068	 0.5749881403	-0.238279
C	-2.2800774928	-2.8717197586	-0.6894140692	-0.222224
C	-1.8246978109	-3.9755382875	 0.2795945807	 0.446133
O	-1.7301445822	-5.1611010781	 0.3387099712	-0.314334
H	 0.7314134703	 1.6734324033	 0.4802180911	 0.234514
H	 0.7542140395	-0.5952939144	 0.5015586886	 0.091936
H	-0.0526073611	-2.4616337055	-0.4802212081	 0.10406
H	-1.2659248106	-2.6359075584	 2.1712275252	 0.101291
H	-3.9029524553	-2.8805570534	 0.9241130049	 0.122402
H	-3.2190686332	-1.2439418771	 0.5519126267	 0.149124
H	-2.6315201726	-2.9358464858	-1.7155525096	 0.107346
