16
gdb 19261	3.42844	1.90842	1.40738	3.8198	68.09	-0.2376	0.0042	0.2417	899.785	0.129851	-379.862855	-379.855029	-379.854085	-379.894901	28.676	
C	-0.065785544	 1.3559636905	-0.0699378848	-0.339034
N	 0.1480112354	-0.0827246311	-0.0621201215	-0.281147
C	 0.6421049443	-0.6124386558	 0.9571166984	 0.375932
C	 1.2051999849	-0.190652801	 2.3261398101	-0.013582
O	 0.3240645294	 0.5431515835	 3.1425859191	-0.421005
C	 1.4032024419	-1.6914267718	 2.5639182795	-0.069554
C	 0.1591990187	-2.4359291651	 2.3178434644	-0.241313
N	 0.9606817867	-2.0198655189	 1.1317623756	-0.160459
H	 0.5018090667	 1.7936463989	-0.8988690548	 0.127971
H	-1.1238342608	 1.5534131833	-0.2737222341	 0.132716
H	 0.2078919556	 1.8620235016	 0.8639892691	 0.123973
H	 2.170949432	 0.3203916138	 2.2042814779	 0.098906
H	 0.7839517122	 0.7833651963	 3.9540607533	 0.290156
H	 2.2959592525	-2.1492335601	 2.9739735705	 0.103357
H	 0.172839928	-3.5097435324	 2.4710315895	 0.132854
H	-0.7989181036	-1.9542474319	 2.4912992278	 0.140229
