21
gdb 101407	3.05204	1.03908	0.93495	2.276	79.21	-0.2447	-0.0244	0.2203	1370.5588	0.180802	-424.241479	-424.231686	-424.230742	-424.276545	36.088	
C	 0.0337048432	 1.5946912024	-0.0525792831	-0.38223
C	-0.0035841292	 0.0653152887	-0.0164071546	-0.202016
C	-1.431055663	-0.4994405286	-0.0027619664	 0.1095
O	-2.190734639	-0.0566395077	-1.1262810786	-0.441981
C	-1.4445557282	-2.028848128	 0.08039465	-0.104639
C	-2.8062117808	-2.7948084819	 0.1351076374	-0.263288
C	-2.3081335042	-3.7832378621	-0.9642658733	-0.329319
C	-1.1792019804	-2.7841290481	-1.2358684288	 0.391976
O	-0.4975078447	-2.53554381	-2.1929423577	-0.316064
H	 1.0624479334	 1.9628978058	-0.106121138	 0.110706
H	-0.5139185021	 1.975045823	-0.9187394763	 0.1275
H	-0.4293746707	 2.0215745987	 0.8441676376	 0.111914
H	 0.5227652117	-0.352128536	-0.8844811382	 0.118185
H	 0.5266450197	-0.3029577605	 0.8712235958	 0.092215
H	-1.9690331375	-0.0983918715	 0.8666754295	 0.088494
H	-1.7003355512	-0.3131517706	-1.9174664202	 0.290794
H	-0.7629822521	-2.379823675	 0.8645091884	 0.098039
H	-3.0776465196	-3.232535137	 1.0959105281	 0.106804
H	-3.6187963365	-2.1627957269	-0.2274816383	 0.132716
H	-1.9207196951	-4.719747958	-0.5493331707	 0.130889
H	-2.9648299238	-4.0154437364	-1.8057619126	 0.129805
