23
gdb 104421	2.87238	1.17468	1.04681	1.4312	87.44	-0.2333	0.0338	0.2671	1279.6321	0.206561	-388.30888	-388.29946	-388.298516	-388.342471	36.735	
C	-0.1114987396	 1.5922487753	 0.0637061297	-0.414042
C	-0.0029479836	 0.0520063458	 0.0239206858	 0.237333
C	-1.4229195154	-0.5452872683	 0.029955302	-0.104588
O	-2.1247098214	-0.0755132775	 1.1727621621	-0.425654
C	 0.7070815881	-0.4226047908	-1.264678505	-0.238722
C	 2.2315707295	-0.2783555041	-1.1823421489	-0.218984
C	 2.8003701089	-1.1089781901	-0.0240522828	-0.239603
C	 1.9700984377	-0.9653785063	 1.2243544868	-0.080284
C	 0.7441512055	-0.4443862901	 1.2459257018	-0.056247
H	 0.8770345366	 2.0575728712	 0.0261978503	 0.110567
H	-0.6974235454	 1.9592928481	-0.7875762386	 0.10175
H	-0.6083465529	 1.9205036182	 0.9791692733	 0.131926
H	-1.9400453911	-0.2484123359	-0.8979903809	 0.079617
H	-1.3512854763	-1.6439380857	 0.0370816552	 0.084924
H	-2.9849775874	-0.5032069061	 1.1952249222	 0.287869
H	 0.4647113769	-1.480655213	-1.4375057768	 0.087973
H	 0.3163222101	 0.1322428529	-2.1258878467	 0.087522
H	 2.6902449912	-0.5815427549	-2.1296698276	 0.088954
H	 2.4937144799	 0.7758551173	-1.0339826998	 0.102516
H	 2.8503271103	-2.1711871811	-0.3089986824	 0.103263
H	 3.8377355894	-0.8158554707	 0.1814276892	 0.099072
H	 2.4155642765	-1.3175650439	 2.1526606141	 0.079659
H	 0.2032340527	-0.3615294802	 2.184607947	 0.095178
