14
gdb 4190	4.96122	1.64538	1.3335	1.7672	68.84	-0.228	-0.0398	0.1882	881.553	0.108648	-378.656024	-378.649541	-378.648597	-378.686504	25.33	
O	-0.0827566633	 1.3212610813	-0.0063689098	-0.387133
N	 0.0277223755	-0.0747987923	 0.0337822939	-0.249129
C	-1.1196815143	-0.6386873591	-0.0012662866	 0.446227
C	-2.4744820085	-0.0688079717	-0.0346876236	-0.168103
C	-3.3877875592	-1.0505209031	 0.0476945626	-0.050412
C	-2.7267099395	-2.391315975	 0.0899637471	-0.092756
N	-1.9642712356	-2.6737641122	-1.1606914793	-0.330419
C	-1.2646610344	-2.1277704399	 0.0365808652	-0.149724
H	 0.8386726744	 1.5994326904	 0.0256179794	 0.308973
H	-2.6661731672	 0.989368261	-0.1356723531	 0.124588
H	-4.4623838231	-0.9158768329	 0.0410525601	 0.113084
H	-3.1570420935	-3.2181867796	 0.6434125002	 0.097701
H	-1.7659346342	-3.6737483255	-1.1980963862	 0.232488
H	-0.5238164271	-2.7343939013	 0.54175978	 0.104616
