20
gdb 86943	3.83075	0.89697	0.81552	2.6721	77.9	-0.2454	0.0282	0.2737	1452.1378	0.170284	-440.302422	-440.292704	-440.29176	-440.337841	35.255	
C	-0.0040847933	 1.6563056908	 0.1280648948	-0.406765
C	 0.0715873571	 0.1421179621	 0.0139753557	 0.027797
C	 1.0492547639	-0.4952204493	-1.0157258087	-0.272743
C	 1.3690451743	-1.5964302833	 0.0299735951	 0.035056
N	 2.734935766	-2.021181535	 0.1912232349	-0.287921
C	 3.1370339674	-3.3216661496	 0.1755068841	 0.149948
O	 2.4110111008	-4.2806445295	 0.0221416855	-0.322564
C	 0.783707448	-0.6613625938	 1.1378238871	 0.072948
O	 1.7880954789	 0.1371225858	 1.7434075034	-0.433644
H	 0.9813819878	 2.0813510888	 0.3337911543	 0.130062
H	-0.3812633851	 2.0930393127	-0.8028692257	 0.112661
H	-0.6754371278	 1.9625462936	 0.9372809082	 0.115627
H	-0.9308575387	-0.2770703923	-0.1239160692	 0.079489
H	 0.649205427	-0.8182220694	-1.9792422968	 0.10663
H	 1.915402754	 0.1504174661	-1.1920619666	 0.100655
H	 0.7671993291	-2.4950085252	-0.1090181007	 0.120859
H	 3.4258420974	-1.3029885765	 0.3448320359	 0.245602
H	 4.2325290963	-3.4112687222	 0.3203946118	 0.071819
H	 0.1470400569	-1.1303622466	 1.898280218	 0.066518
H	 2.2122902701	-0.3964994172	 2.422816949	 0.287967
