18
gdb 52072	2.68667	1.13057	0.91814	3.9445	75.84	-0.2553	-0.0311	0.2243	1303.9574	0.14604	-439.078619	-439.069335	-439.068391	-439.113788	32.966	
N	-0.2209969357	 1.0994566629	-0.5442107372	-0.444189
C	-0.5092099482	 0.0499087739	 0.0943728285	 0.114879
O	-0.5271513484	-1.1362277947	-0.5568597609	-0.187543
C	-0.8797966724	-2.298035053	 0.1920011321	-0.189594
C	-2.3505546947	-2.6349090601	 0.0682511761	 0.252563
C	-2.9069908482	-2.9869882861	-1.3066612541	-0.287054
C	-2.7644906304	-4.064433219	-0.2931171035	-0.311825
C	-3.2758224925	-1.9273182601	 0.9852245237	 0.114863
O	-2.9382364895	-1.1401873681	 1.8371739494	-0.275794
H	-0.2427833067	 1.8984390791	 0.0863204062	 0.228274
H	-0.7657537514	-0.0303161415	 1.1560125402	 0.116557
H	-0.2719749611	-3.1082601815	-0.2196077822	 0.115547
H	-0.6176062791	-2.1685336774	 1.2479788218	 0.127863
H	-3.902638002	-2.6303326351	-1.5480813852	 0.132385
H	-2.1989848222	-2.9306524114	-2.1249437903	 0.150023
H	-1.9591630719	-4.7829719699	-0.3958098792	 0.135361
H	-3.6590359273	-4.4585124797	 0.1775445344	 0.130982
H	-4.3500228884	-2.1864871683	 0.8385108202	 0.076702
