18
gdb 68618	2.40672	1.66416	1.3494	4.7361	75.74	-0.2586	0.0192	0.2777	1021.4012	0.148733	-401.948023	-401.940223	-401.939278	-401.980094	30.462	
C	-0.0278899175	 1.5194717416	 0.0457956473	-0.50571
C	-0.0056120169	 0.0128063899	-0.0080942384	 0.267394
C	 0.3626731982	-0.8170229423	-1.2839533474	-0.281314
C	-0.3084339308	-1.9438397523	-0.4668979345	 0.096633
O	 0.5579158649	-2.1203275615	 0.6499422866	-0.267661
C	 0.8274547466	-0.7513294438	 1.0342948441	-0.116593
C	-1.3271381049	-0.8597301602	 0.0167799034	-0.210778
C	-2.0441368535	-1.047500282	 1.263054364	 0.284526
N	-2.6092212717	-1.1772108886	 2.2637039042	-0.336799
H	 0.9826640819	 1.9272697806	-0.0668724504	 0.128822
H	-0.6483963853	 1.9366568753	-0.753121688	 0.125207
H	-0.4266233261	 1.8722854395	 1.0030416229	 0.138855
H	-0.2017034369	-0.5116819108	-2.1669906841	 0.10776
H	 1.4207952798	-0.9482665653	-1.518040717	 0.111458
H	-0.614887645	-2.9076435623	-0.8670651673	 0.099968
H	 1.8993606682	-0.5381338602	 0.9534522344	 0.107775
H	 0.4996947798	-0.5826046454	 2.0654042248	 0.128068
H	-2.013592701	-0.5554395222	-0.7757700246	 0.12239
