25
gdb 118582	1.61872	1.09943	0.69518	1.2107	87.7	-0.2392	0.0885	0.3277	1746.1637	0.225476	-426.617671	-426.605671	-426.604727	-426.656112	41.474	
C	-1.2749342943	 0.8155049576	 1.0676480586	-0.383073
C	-0.704820204	-0.5411208102	 1.4470581286	-0.037903
O	 0.7026830555	-0.4923913107	 1.2583595948	-0.266516
C	 1.4023169234	-1.7120364208	 1.4487491667	 0.111717
C	 2.6550068792	-1.6628151955	 0.5665779774	-0.181719
C	 2.331780574	-1.5164580546	-0.9215697387	-0.386648
C	 1.7769184996	-1.9231872623	 2.9156188722	-0.057315
O	 0.6196469011	-2.2246611639	 3.6680667593	-0.233274
C	 0.8852209106	-2.3784055204	 5.0414701282	-0.228558
H	-1.0435036988	 1.0558030844	 0.0256628624	 0.119963
H	-2.3621652768	 0.8195484599	 1.1926872823	 0.11072
H	-0.851505186	 1.601037299	 1.7005004016	 0.122296
H	-0.9447897152	-0.7918541322	 2.4867530831	 0.109254
H	-1.1383099274	-1.3313976459	 0.8117728538	 0.080511
H	 0.7667311965	-2.5570099125	 1.1352490901	 0.069756
H	 3.2758792202	-0.8198628575	 0.8956144952	 0.103307
H	 3.2410030233	-2.5736547522	 0.7374816321	 0.092994
H	 3.2463779393	-1.4490414477	-1.5183225553	 0.107849
H	 1.7570670771	-2.3748243083	-1.2877545902	 0.108586
H	 1.7389709992	-0.6154558421	-1.0947359291	 0.132467
H	 2.5069711504	-2.7468106149	 3.0007753725	 0.079128
H	 2.2591874758	-1.0075444438	 3.2963371954	 0.091415
H	 1.297679782	-1.4579967933	 5.4841717726	 0.105646
H	-0.060486007	-2.6153287483	 5.5350337132	 0.126328
H	 1.5987968924	-3.1967941238	 5.2288793632	 0.103068
