19
gdb 77541	2.85136	1.33069	1.07436	2.0587	83.97	-0.2352	0.0194	0.2546	1188.7492	0.156097	-385.800996	-385.791835	-385.790891	-385.834318	35.284	
C	-0.1780209973	 1.6615890381	 0.0353375027	-0.448134
C	 0.0172928861	 0.1565566317	-0.002440673	-0.02954
C	 0.8956772331	-0.580880312	-1.0621963612	 0.3713
C	 0.6288360208	-0.8392423798	-2.5103769533	-0.515713
C	 2.1855630918	-0.0698027114	-0.3671165029	-0.308928
C	 1.1986129994	-0.5684495085	 0.7228733231	 0.329932
O	 0.9252325681	-1.7514811269	-0.1379866934	-0.368513
C	 1.4151822824	-0.7481664854	 2.1262408789	 0.072544
C	 1.5925252464	-0.8595364043	 3.3102706266	-0.358501
H	 0.7400892035	 2.2235153151	-0.1535489409	 0.120154
H	-0.9157928876	 1.9672356605	-0.7145746744	 0.123403
H	-0.5608435687	 1.969054036	 1.0142360233	 0.131592
H	-0.919440039	-0.3808434792	 0.1697152606	 0.087089
H	 0.6274973456	 0.1014995825	-3.0702641212	 0.127338
H	 1.3984159037	-1.4916565598	-2.9338624149	 0.135593
H	-0.3451353204	-1.3208015692	-2.6404983777	 0.134906
H	 3.0588729844	-0.708773018	-0.5020637618	 0.112145
H	 2.4303422	 0.992914459	-0.4041308389	 0.098357
H	 1.7502441675	-0.9673471582	 4.3550922884	 0.184975
