20
gdb 108380	2.30459	1.37495	1.09235	4.423	83.56	-0.2749	0.0333	0.3082	1211.3374	0.171293	-366.011039	-366.002141	-366.001197	-366.04477	33.446	
C	 0.1695827787	 1.5197496619	 0.1641452785	-0.376019
C	-0.0966636828	 0.0242407474	-0.054733627	-0.300593
C	 0.5942490372	-0.5217441577	-1.2748487944	 0.360125
C	 0.2084693793	-0.2103055145	-2.7325687588	-0.295446
C	 0.5706915088	-1.6808052257	-3.1260831939	-0.236629
C	 0.9611454762	-1.9480440104	-1.6700188059	-0.129554
C	 2.0456438618	-0.9802755758	-1.2231012933	-0.228107
C	 3.0580140867	-0.485527466	-2.1164706951	 0.299103
N	 3.8565546199	-0.0801231893	-2.8498541721	-0.357214
H	 1.2376791107	 1.7135311792	 0.305194334	 0.125907
H	-0.1637193849	 2.1100762797	-0.6955308489	 0.125425
H	-0.3610013968	 1.8868710982	 1.047489675	 0.117092
H	 0.2219053095	-0.5435660025	 0.8286189464	 0.100228
H	-1.1767083471	-0.1461657363	-0.1550265575	 0.10384
H	-0.8591782431	-0.0040306374	-2.8375535156	 0.107498
H	 0.7734837532	 0.5861963431	-3.2234381845	 0.123691
H	-0.3044674463	-2.2548429319	-3.435435613	 0.110632
H	 1.3625706063	-1.8123623311	-3.8680583896	 0.125466
H	 0.8201834527	-2.8733891989	-1.1229046737	 0.097278
H	 2.40692868	-1.162922982	-0.2152207607	 0.127276
