14
gdb 132146	3.19593	1.335	0.94719	5.0116	68.45	-0.2435	-0.0426	0.2009	1145.2223	0.100036	-481.833647	-481.825961	-481.825017	-481.866018	28.405	
C	 0.0778261626	 1.4967785422	 0.0207496058	-0.471741
C	-0.0448326941	 0.0083528523	 0.0039542387	 0.390787
C	-1.1801980743	-0.703988072	-0.1499020964	-0.329569
C	-1.204962361	-2.1653590924	-0.15350064	 0.295493
O	-2.2050685715	-2.8510444761	-0.2890545822	-0.371898
C	 0.1423391649	-2.726108697	 0.028872987	 0.089293
F	 0.2729752601	-4.0462727214	 0.0463747525	-0.052993
C	 1.2260685898	-1.9466717866	 0.1757686573	-0.059839
O	 1.162280591	-0.5934785435	 0.1673312968	-0.220765
H	 0.7440888267	 1.8363885369	-0.7792515801	 0.152024
H	-0.8993980972	 1.9621328827	-0.1116905301	 0.146934
H	 0.5070521218	 1.8361762203	 0.9693357314	 0.152024
H	-2.1236862974	-0.187850578	-0.2775578091	 0.125236
H	 2.2323736686	-2.3189660773	 0.3119996086	 0.155014
