16
gdb 71370	3.01029	2.03678	1.61752	0.9794	66.32	-0.2482	0.0542	0.3024	843.579	0.126047	-437.787679	-437.781496	-437.780552	-437.817834	26.355	
O	 0.1267370083	 1.3878648673	 0.109244847	-0.469651
C	 0.0635977665	 0.0179500599	 0.0396317248	 0.395952
C	 0.6573728992	-0.9777034722	 1.0309065159	-0.224853
N	 0.0089768596	-1.9061865198	-0.0026619744	-0.161272
C	-1.1883692495	-0.9156846898	-0.0215479988	-0.110046
C	-1.7191485417	-0.9155136888	-1.4425092286	 0.026405
O	-1.3002609589	 0.2505901622	-2.1874293064	-0.272931
C	-0.471846217	-0.934088974	-2.2083013262	 0.026405
C	 0.5550670275	-0.9416483891	-1.0919460032	-0.110046
H	-0.3459988137	 1.7134797153	-0.6686496407	 0.292827
H	 1.7451482912	-1.0715587849	 1.0792723577	 0.107198
H	 0.2065149255	-1.0486451681	 2.0239310142	 0.107198
H	-1.8720762589	-1.0022512957	 0.822501147	 0.079774
H	-2.6530511526	-1.3702303729	-1.7504262336	 0.116632
H	-0.3338633304	-1.4047684228	-3.1743115939	 0.116632
H	 1.6149814549	-1.0541816967	-1.3184093409	 0.079774
