17
gdb 12235	3.42457	1.47708	1.1397	4.0965	65.28	-0.2434	0.038	0.2814	1044.2723	0.141463	-401.018045	-401.009383	-401.008439	-401.051596	30.858	
C	-0.1356371649	 1.6087514824	 0.1731673403	-0.409402
C	-0.001637183	 0.1009876793	 0.0007657427	-0.181549
C	 0.7130113757	-0.5078155616	-1.255859552	 0.056541
C	 1.3436134696	 0.4300239318	-2.2683281263	-0.085312
O	 2.1154011182	-0.3822063482	-3.1426368684	-0.427456
N	 1.664559526	-1.1226859013	-0.3263985869	-0.325975
C	 1.1211718844	-0.5954131705	 0.8182284362	 0.431116
O	 1.4247267209	-0.6601320251	 1.9797746483	-0.368526
H	 0.8149718795	 2.1280007374	 0.0212287367	 0.124469
H	-0.8716824553	 2.0294628367	-0.5192762837	 0.119141
H	-0.4677607903	 1.8283795999	 1.1920217103	 0.140914
H	-0.9653422526	-0.3854580548	 0.1792151036	 0.104317
H	 0.1081732239	-1.2462520337	-1.7950816776	 0.091238
H	 0.5520167701	 0.9713932703	-2.8106311843	 0.091907
H	 1.9737808314	 1.1700201582	-1.754849428	 0.092305
H	 2.5748830128	 0.1906001314	-3.7634693661	 0.291694
H	 2.4712971637	-1.7055469023	-0.4925201349	 0.25458
