12
gdb 5720	5.2185	2.13076	1.53249	1.1211	55.69	-0.2199	0.0224	0.2423	743.4522	0.085962	-418.466457	-418.460767	-418.459822	-418.496387	21.549	
C	 0.0227888922	 1.4052145102	-0.1075011402	-0.003032
O	 1.2859691515	 1.9200901439	 0.3519375733	-0.282757
C	 1.9845477442	 0.8064167205	 0.7169474814	 0.226466
C	 3.2107932384	 0.4006860141	 1.1130385261	-0.1316
O	 3.1408538122	-0.952367977	 1.3625367022	-0.172341
C	 1.8572295335	-1.3876216452	 1.1160430029	-0.1316
C	 1.1331239324	-0.3184713726	 0.7188374055	 0.226466
O	-0.1289880129	 0.0506705137	 0.3550784099	-0.282757
H	-0.7836433664	 2.0162921056	 0.3043185164	 0.138101
H	 0.0086748991	 1.4140512491	-1.2063086962	 0.122001
H	 4.1654932116	 0.8677269602	 1.271604638	 0.145526
H	 1.6672375941	-2.4329302026	 1.2771500706	 0.145526
