18
gdb 5379	4.55219	1.45847	1.21069	0.2938	81.44	-0.2365	0.0044	0.241	1039.8799	0.156336	-310.746321	-310.738992	-310.738048	-310.778386	27.987	
C	-0.0440864823	 1.5610419892	 0.0541704338	-0.363347
C	 0.0020553628	 0.0239859545	 0.0014917535	-0.291478
C	 0.7042409609	-0.4974438111	-1.2320428995	 0.330089
C	-0.0041352447	-0.736676473	-2.4136145837	-0.188809
C	 0.64494449	-1.1846482913	-3.5610813377	-0.091028
C	 2.0205581498	-1.4031634546	-3.5459739062	-0.12083
C	 2.7388657706	-1.1705313925	-2.3754646092	-0.090991
C	 2.0842050565	-0.7226223227	-1.2310939853	-0.189046
H	 0.9661369486	 1.9825954877	 0.0534716981	 0.120224
H	-0.5719005347	 1.9662997648	-0.8150022229	 0.120208
H	-0.5574451759	 1.9078192508	 0.956716761	 0.111168
H	 0.5090348168	-0.3521115623	 0.8976275391	 0.101895
H	-1.0209592624	-0.3684146906	 0.0336642473	 0.101968
H	-1.0783645632	-0.5740749398	-2.4316962705	 0.086102
H	 0.074892493	-1.3681762862	-4.4662705856	 0.092363
H	 2.5279613549	-1.7554566575	-4.4378958808	 0.093041
H	 3.8101715932	-1.3429466971	-2.3512570116	 0.092362
H	 2.6506371162	-0.5489408981	-0.3202073296	 0.086109
