20
gdb 17189	4.63726	1.59293	1.4163	0.1599	80.37	-0.2634	0.1056	0.369	969.1143	0.177739	-311.799549	-311.792211	-311.791267	-311.830588	29.769	
C	-0.1813391132	 1.5539337806	-0.003800598	-0.446302
C	 0.0415048006	 0.0489493852	 0.024270642	 0.073996
C	 1.2218866042	-0.6302192267	-0.7559199843	-0.14293
C	 2.1941632339	-0.1095179081	 0.348315163	-0.230366
C	 0.9400455042	-0.6370041538	 1.1129789523	-0.142888
C	 0.9937677373	-1.8472711334	 0.1609727102	 0.483791
C	 0.1517269734	-3.0667080189	 0.0295473832	-0.375751
C	 1.6627677126	-3.1717564226	 0.2570470641	-0.380739
H	 0.7335203187	 2.135019162	 0.1343127115	 0.116743
H	-0.6228674268	 1.8554866093	-0.9604091681	 0.115134
H	-0.8826625934	 1.8496389917	 0.7846792908	 0.115144
H	-0.9127450922	-0.4690360779	-0.1214895787	 0.065459
H	 1.3853910245	-0.6385407821	-1.8355450792	 0.064061
H	 3.1141295313	-0.6822771436	 0.4849591631	 0.093206
H	 2.3910190263	 0.9625707155	 0.3819181666	 0.088236
H	 0.7778873573	-0.6531457206	 2.1927204929	 0.064051
H	-0.5006304601	-3.3474624697	 0.851021209	 0.109749
H	-0.2290645866	-3.3409109151	-0.9497496593	 0.109749
H	 2.2730301422	-3.5148903435	-0.5730529072	 0.109828
H	 2.001440826	-3.5214407582	 1.2277420661	 0.109829
