18
gdb 91481	2.64777	1.63985	1.2317	1.9276	77.97	-0.231	0.0322	0.2632	1038.4213	0.148645	-401.875953	-401.868157	-401.867213	-401.907906	31.416	
O	 0.0562785346	 1.364690604	 0.0361607871	-0.440305
C	-0.0141497175	-0.0443250836	 0.0283092505	 0.083479
C	 0.4190278853	-0.6163535677	 1.4126254089	-0.198103
N	-0.8019962476	-1.3304438704	 1.8846241122	-0.143794
C	-1.1959678906	-2.0315273178	 0.6009736933	-0.226488
C	-1.463169906	-0.6052142311	 0.0333455427	 0.237559
C	-1.8581120037	-0.3131218524	 1.5139941855	-0.217136
C	-2.2842457183	-0.3005339558	-1.1078715125	 0.002724
C	-2.9592496171	-0.0164576427	-2.0634199263	-0.341368
H	-0.3391499269	 1.6823872027	-0.7838862617	 0.288313
H	 0.5612651183	-0.4608091266	-0.8097849455	 0.074296
H	 1.2560465729	-1.3147218228	 1.3464525382	 0.108381
H	 0.6794448581	 0.1939081168	 2.0968237077	 0.124363
H	-0.4125274226	-2.640355034	 0.1398503508	 0.105801
H	-2.1049311165	-2.6187438942	 0.7429944628	 0.120031
H	-2.8520163622	-0.6796910047	 1.7752572423	 0.114947
H	-1.6938634752	 0.6970912874	 1.8928376951	 0.122419
H	-3.566052865	 0.2198448329	-2.9024123011	 0.184882
