18
gdb 57115	2.94182	1.17232	0.93071	3.8903	71.78	-0.2657	0.009	0.2747	1247.9754	0.148413	-439.093847	-439.085032	-439.084088	-439.128325	31.773	
O	-0.3323965697	 1.2719204602	 0.0688708441	-0.412873
C	 0.019707547	-0.0983572186	 0.1055694897	-0.012654
C	 0.5573899755	-0.5310965956	-1.2014401936	 0.254594
N	 1.0134667121	-0.8445640355	-2.2161213558	-0.31939
C	 1.0035120214	-0.4584460453	 1.2427608306	-0.027162
C	 0.4503794626	-0.0000823042	 2.617347435	-0.274384
C	-0.0070462167	-1.320973219	 3.2875972292	-0.071557
O	 0.0084301372	-2.3113730465	 2.2660042868	-0.241724
C	 1.099450804	-1.9858158127	 1.4238741749	-0.106959
H	 0.4599276726	 1.783961691	-0.131968814	 0.294377
H	-0.91834684	-0.6364002601	 0.2818144591	 0.151521
H	 1.9778832875	-0.0143779976	 1.016797881	 0.085403
H	 1.2205107039	 0.5006049439	 3.2083704697	 0.108184
H	-0.3699453638	 0.7076605043	 2.4839466365	 0.133276
H	 0.680994207	-1.6026549554	 4.0992916145	 0.096136
H	-1.0195795545	-1.2795826388	 3.6956663191	 0.116242
H	 1.0002232545	-2.5560787068	 0.496609222	 0.130691
H	 2.0596310392	-2.2522223233	 1.8943060613	 0.096278
