16
gdb 15761	5.58216	0.95433	0.87497	3.3182	78.04	-0.2522	-0.0458	0.2065	1342.7632	0.128587	-346.588415	-346.57952	-346.578576	-346.624908	30.076	
C	 0.0262747873	 1.4462115399	-0.023130558	-0.503766
C	 0.028038307	-0.0063404506	-0.0066285652	 0.131346
C	 0.0088455976	-1.2132561445	 0.0073291072	-0.016883
C	-0.0063101243	-2.661504069	 0.0239632113	 0.227677
O	-1.0478626628	-3.2931572417	 0.049327353	-0.328273
C	 1.3290708135	-3.3235545181	 0.0080869284	-0.107147
C	 1.4574904481	-4.638839838	 0.7653238841	-0.248256
C	 1.4313972265	-4.6557920523	-0.7230336116	-0.24826
H	 1.0433107762	 1.8514751889	-0.0342732256	 0.155716
H	-0.4989734259	 1.8227256733	-0.907706668	 0.163158
H	-0.488005758	 1.8431303074	 0.8589426688	 0.163137
H	 2.1886240939	-2.6649700739	-0.014479769	 0.09488
H	 2.3942313425	-4.8198601666	 1.2794616666	 0.117812
H	 0.5635864212	-4.9658291694	 1.2837422945	 0.140522
H	 0.5200041736	-4.9941449783	-1.2022234304	 0.140524
H	 2.3496164637	-4.8488474773	-1.2654287361	 0.117811
