14
gdb 29142	3.21093	1.4522	1.00618	2.4392	69.06	-0.2374	-0.0679	0.1695	1105.1676	0.101265	-473.887114	-473.879569	-473.878625	-473.919151	28.355	
C	 0.0200212636	 1.5159344012	 0.2309760609	-0.466462
C	-0.0123203895	 0.0397959607	-0.0306101647	 0.242358
C	-1.1459126833	-0.614461819	-0.3433340376	-0.025027
O	-1.1641018518	-1.964907257	-0.5806656452	-0.190159
C	-0.0223835875	-2.6792875849	-0.5037151023	 0.361634
O	 0.0066769469	-3.8717704751	-0.705233823	-0.369496
C	 1.1874896713	-1.8942436875	-0.1550112253	 0.280484
O	 2.3020325514	-2.6213250271	-0.0852225421	-0.37765
N	 1.2004935978	-0.6302815281	 0.0664154305	-0.336801
H	 0.6985679536	 2.0116185999	-0.47087205	 0.145511
H	-0.9720336046	 1.9633582636	 0.1341087693	 0.125073
H	 0.3979452591	 1.7152115443	 1.2390348673	 0.145509
H	-2.1295418961	-0.1787637769	-0.4407865741	 0.14412
H	 2.0352005791	-3.5351757439	-0.2903856436	 0.320906
