21
gdb 96123	2.23859	1.75615	1.19933	1.2797	77.74	-0.248	0.0815	0.3296	1114.6935	0.182586	-424.224147	-424.215389	-424.214444	-424.257092	33.983	
C	-0.0887590373	 1.5040107191	 0.012157923	-0.411667
C	 0.0120687329	-0.0274538705	 0.0026313203	-0.055188
C	 0.7417443628	-0.5083891446	-1.2609831927	-0.096237
O	 0.929365358	-1.9112188419	-1.2573775133	-0.250945
C	 1.8647140144	-2.3279219693	-0.2814761726	-0.108655
C	 1.6436194333	-1.6956305127	 1.0799660941	-0.038506
O	 2.1326295669	-0.3563098824	 1.2591010199	-0.300303
C	 0.7087951995	-0.5682969493	 1.2482021788	 0.40679
C	 0.0202889555	-0.353950705	 2.5767933928	-0.476653
H	 0.9032120406	 1.9529039499	 0.1259864087	 0.133864
H	-0.5202795556	 1.8685400617	-0.9259874931	 0.114519
H	-0.7213742416	 1.8677958049	 0.826308419	 0.118215
H	-0.9980840928	-0.4583295702	-0.0151477197	 0.080265
H	 0.1429126486	-0.2806304185	-2.1477001483	 0.105156
H	 1.7073809703	 0.0129734948	-1.3530337287	 0.100022
H	 1.7588644832	-3.4147108286	-0.2039501941	 0.110282
H	 2.894775003	-2.1083601882	-0.6093311114	 0.101826
H	 1.8330285207	-2.346499776	 1.9347192709	 0.088622
H	-0.0961457451	 0.7124094345	 2.7929939644	 0.129574
H	-0.9765023326	-0.80805247	 2.5737902633	 0.122447
H	 0.6039549555	-0.7997356575	 3.3860213687	 0.126571
