10
gdb 3894	5.89475	2.78255	1.89027	2.5281	51.32	-0.2544	-0.0708	0.1836	597.6286	0.067759	-359.30132	-359.296137	-359.295193	-359.330338	18.997	
O	 0.0483514751	-0.0599420765	 0.002561537	-0.353689
C	-0.0265614225	 1.1567599889	 0.0099766527	 0.359516
C	-1.2391141028	 1.9509744039	 0.0302779578	-0.278401
C	-1.1305784699	 3.2927081295	 0.0359005405	 0.126943
O	 0.0253317945	 3.9758112654	 0.024117386	-0.224314
N	 1.2405977608	 3.2966499217	 0.00434922	-0.036326
C	 1.1862464991	 2.0125640124	-0.0016869109	-0.049196
H	-2.2102855068	 1.4733739227	 0.0406762633	 0.137303
H	-1.968093442	 3.9821879301	 0.0506749388	 0.159093
H	 2.1565951546	 1.522255102	-0.0172406754	 0.15907
