19
gdb 39207	2.89616	1.79349	1.28777	1.7625	79.11	-0.2442	0.0202	0.2645	1005.9655	0.161721	-385.897406	-385.890354	-385.889409	-385.928882	28.776	
C	 0.0461229342	 1.4469645517	 0.5641988823	-0.238682
C	 1.1400351432	 2.1267375544	-0.3094375085	-0.227563
C	 2.0309552939	 0.9765873691	-0.8622318366	-0.105412
C	 2.3677605455	 0.9835609886	-2.3329972057	-0.084446
C	 1.9717495901	-0.1314090584	-2.9526632874	-0.072348
C	 1.2923609914	-1.1150097056	-2.0225189982	-0.393784
C	 1.1560765866	-0.2814383494	-0.758764174	 0.467335
O	 1.025493204	-0.8406415276	 0.5425237592	-0.313597
C	-0.0297146237	 0.0148742445	 0.0509964187	-0.053484
H	 0.3183616509	 1.4391373953	 1.6247521595	 0.116404
H	-0.9176761144	 1.9570564403	 0.4769303401	 0.101335
H	 0.6604278764	 2.6409077536	-1.1496424494	 0.102258
H	 1.7113558165	 2.8780104253	 0.242472255	 0.099376
H	 2.9345755983	 0.8706650931	-0.2472407501	 0.087332
H	 2.8895351188	 1.80571851	-2.8112973111	 0.093954
H	 2.1245586362	-0.3455429005	-4.0048063375	 0.094773
H	 0.3313243684	-1.4790928193	-2.4038392845	 0.111287
H	 1.9156903797	-2.0018168806	-1.8432322958	 0.12228
H	-0.9857281262	-0.4828983044	-0.0943345762	 0.092984
