16
gdb 6515	3.02822	1.84714	1.42486	4.047	66.33	-0.2427	0.0108	0.2534	909.0151	0.128589	-379.909498	-379.900699	-379.899755	-379.942109	32.536	
C	-0.0198473377	 1.5455698377	 0.0610492133	-0.418804
C	 0.0084134872	 0.0333885939	-0.0085963904	 0.27587
N	-1.2215989544	-0.5155291934	-0.525507446	-0.565108
C	 1.3433194834	-0.6554625155	-0.241524916	-0.389872
C	 0.6768212676	-0.7095840038	 1.134415677	 0.226895
O	 1.1904791223	 0.0639585778	 2.1749421563	-0.443017
C	 0.116210987	-1.9787005625	 1.5506747286	 0.252913
N	-0.3193380367	-3.0013670878	 1.8729237565	-0.35484
H	 0.8831199305	 1.9444911428	 0.5236102989	 0.131384
H	-0.1040588452	 1.9581278149	-0.9507321189	 0.115397
H	-0.888797996	 1.8757436948	 0.635626552	 0.140275
H	-1.2835152285	-0.345483585	-1.5252126212	 0.232649
H	-1.2791402015	-1.5192164688	-0.3853576404	 0.245477
H	 1.362023633	-1.5685510977	-0.8264075002	 0.128036
H	 2.2404841079	-0.0470732658	-0.2926633673	 0.125279
H	 1.993081141	-0.3606917415	 2.5001015479	 0.297466
