17
gdb 18411	3.31973	2.21249	1.48825	1.5594	63.38	-0.2559	0.0679	0.3238	842.3467	0.145427	-400.962392	-400.95589	-400.954946	-400.992885	25.793	
C	 0.0032679881	 1.3996054469	 0.1229317261	 0.017872
O	 1.2626771436	 1.9990162435	-0.031862867	-0.231929
C	 2.1571200323	 1.7858313339	 1.0524930659	-0.101597
C	 2.8511931644	 0.4370249725	 0.9670250082	-0.023771
N	 2.8067926595	-0.4174697423	 2.1680105332	-0.33794
C	 2.0435025276	-0.8078065443	 0.9682081184	-0.02377
C	 0.5290081845	-0.7234580647	 1.0548780372	-0.101598
O	-0.0310814177	 0.0050423962	-0.0299683104	-0.231929
H	-0.4133390198	 1.670853901	 1.1112799669	 0.076733
H	-0.6214816102	 1.8042053445	-0.6765308955	 0.115245
H	 2.8886537599	 2.5985615514	 1.0079831684	 0.107773
H	 1.6283504439	 1.8592053859	 2.0135791497	 0.105312
H	 3.758692681	 0.4182219229	 0.3675581298	 0.09069
H	 3.6571514073	-0.9691413702	 2.243412217	 0.235133
H	 2.4299375522	-1.629690255	 0.3695053419	 0.09069
H	 0.0848547795	-1.7227327249	 1.0120910916	 0.107774
H	 0.2473748141	-0.2691885374	 2.0156012787	 0.105312
