21
gdb 96457	2.15058	1.90413	1.3036	0.3501	77.82	-0.2314	0.0829	0.3144	1059.974	0.184175	-424.202216	-424.194191	-424.193246	-424.234251	32.583	
C	-0.4598422775	 1.5281778842	-0.0064739512	-0.431735
C	-0.0343960673	 0.0572481166	-0.0030743007	 0.121125
O	 0.5557257836	-0.3640703483	-1.2424664032	-0.267353
C	 1.617324429	 0.4162518473	-1.757560979	-0.074668
C	 2.9099170057	 0.3731138451	-0.9442099075	-0.08208
O	 2.7652058485	 0.9587885515	 0.3465041113	-0.251888
C	 2.2666571529	 0.0516005716	 1.2845857703	 0.118064
C	 1.2836712746	 0.5665806803	 2.2836920622	-0.332768
C	 0.8259534002	-0.3808365045	 1.1854676523	-0.069318
H	 0.3880224533	 2.2144386224	 0.0468890723	 0.136966
H	-1.0288209396	 1.7435946318	-0.9158716567	 0.119872
H	-1.1065947047	 1.72314317	 0.8536744902	 0.119209
H	-0.9520088001	-0.5399690684	 0.0345586236	 0.085246
H	 1.8220012053	 0.0090918875	-2.755432294	 0.102816
H	 1.3162505521	 1.4652390771	-1.8878323061	 0.096411
H	 3.2676394503	-0.6625428253	-0.8554450623	 0.096782
H	 3.6756293408	 0.9566891117	-1.4695210914	 0.102155
H	 2.9981593832	-0.6909894014	 1.6061531721	 0.083941
H	 1.3319810956	 0.1961159001	 3.30161498	 0.112524
H	 1.0110704264	 1.6114086521	 2.1969791162	 0.125887
H	 0.6380939275	-1.4048070314	 1.4953642718	 0.088812
