15
gdb 129701	2.36767	1.91749	1.06215	3.0577	76.64	-0.1879	-0.0272	0.1607	1050.131	0.115331	-450.138901	-450.13108	-450.130136	-450.170858	30.268	
N	 0.0844691943	 1.4012283906	 0.1362501284	-0.593922
C	-0.0189192388	 0.0091316375	 0.0493174258	 0.270408
C	-1.1841543327	-0.6938024754	 0.035172582	 0.310238
O	-2.3897031644	-0.0876393278	 0.0367974693	-0.458293
C	-1.1731422985	-2.1355338134	 0.0074209068	 0.207336
N	-2.3340439124	-2.7172152354	-0.00694137	-0.623384
C	 0.160215149	-2.7065726544	-0.0279075662	-0.072966
N	 1.2705846599	-2.0242660083	-0.0092531325	-0.198978
N	 1.1645489189	-0.6937838543	 0.0310620184	-0.274143
H	 0.5961352941	 1.8136832309	-0.6371425253	 0.253615
H	-0.8378409027	 1.8175011759	 0.185235374	 0.273284
H	-3.0137897477	-0.8460875353	 0.0203266416	 0.305481
H	-2.2622971989	-3.7316264681	-0.0517991985	 0.209269
H	 0.2815400398	-3.7852512272	-0.0667195522	 0.118195
H	 2.0345535201	-0.2001935653	 0.1522935583	 0.273861
