16
gdb 32163	3.03291	1.27314	0.90211	2.7723	75.16	-0.2305	-0.0103	0.2202	1227.7734	0.126272	-434.12786	-434.119561	-434.118616	-434.160987	30.744	
N	 0.0466337325	 1.379096557	 0.1317682393	-0.565022
C	-0.0064253995	 0.0158270093	 0.0515887005	 0.404154
C	-1.2278817861	-0.6814521783	 0.0433821517	-0.244912
C	-1.1538121922	-2.0585863293	 0.0006104127	 0.310795
C	-2.3834728013	-2.929911134	-0.0145105255	-0.154767
O	-3.5483704439	-2.1270755212	-0.0067946061	-0.419207
N	 0.0173015767	-2.7235598621	-0.0292813122	-0.331034
C	 1.1029651312	-1.9591654376	-0.0174070947	 0.060959
N	 1.1691213175	-0.6289684706	 0.017219285	-0.326203
H	 0.941445958	 1.7956605408	-0.071037121	 0.260649
H	-0.7688439521	 1.9130002707	-0.1165882733	 0.258127
H	-2.1839172162	-0.1757979438	 0.0710834635	 0.111858
H	-2.3315804355	-3.5743104115	-0.9058616701	 0.115503
H	-2.3363604385	-3.5971576658	 0.8602296762	 0.116056
H	-4.3130909115	-2.7083251941	 0.0077096093	 0.294262
H	 2.059115881	-2.4788736496	-0.0430269854	 0.108782
