17
gdb 99007	4.08309	0.8171	0.77129	2.5101	66.15	-0.2734	0.0073	0.2807	1523.3217	0.132854	-496.162896	-496.152549	-496.151605	-496.200722	33.747	
C	-0.1837047955	 1.2592236656	-0.360668028	-0.242017
O	-0.1804154854	-0.1041597356	 0.0880256294	-0.230763
C	-1.3920533666	-0.6799069886	 0.1828876029	 0.459806
O	-2.4278163402	-0.1307230626	-0.0876410141	-0.346102
C	-1.2533898867	-2.1067857193	 0.6909779071	-0.43739
C	-2.5973989891	-2.8071006843	 0.7232427499	 0.44736
O	-3.2533977986	-2.9984948482	 1.7131715562	-0.353672
O	-2.9563822145	-3.1910502364	-0.5134757731	-0.223164
C	-4.2499771521	-3.8017549333	-0.6120069998	-0.239184
H	 0.861435926	 1.5674404789	-0.3757799766	 0.136762
H	-0.6206161868	 1.3332855065	-1.3594509264	 0.144508
H	-0.7596918629	 1.8870595871	 0.3234273208	 0.145317
H	-0.5503045754	-2.641861148	 0.0470176503	 0.154704
H	-0.8417578815	-2.0842760221	 1.7025216357	 0.16119
H	-4.2988565104	-4.7016050343	 0.0061190987	 0.140624
H	-5.0254022977	-3.1049580148	-0.2849805588	 0.148423
H	-4.3799367727	-4.0520489007	-1.6646961942	 0.1336
