13
gdb 132312	2.00752	1.85577	0.96485	5.0001	64.95	-0.2285	-0.0241	0.2044	1090.7278	0.0908	-494.117743	-494.110462	-494.109518	-494.149476	27.925	
N	-0.0188338825	 1.3551792952	 0.1421884448	-0.566825
C	-0.0348642055	-0.0058001789	 0.0493109886	 0.510019
N	-1.1900158222	-0.6280475518	 0.0326477348	-0.391156
C	-1.1204386433	-1.9702718459	-0.0009780777	 0.350536
F	-2.3069005849	-2.5599676786	-0.0083049877	-0.060757
C	 0.0039715653	-2.7398286468	-0.0344426702	-0.419361
C	 1.2820584127	-2.0858336302	-0.0223294343	 0.43356
O	 2.3958615	-2.5704329904	-0.0401703661	-0.390939
N	 1.1510486764	-0.6603871081	 0.0212538762	-0.399233
H	 0.7829554374	 1.8622215895	-0.1952600674	 0.266754
H	-0.9142631349	 1.7917561875	-0.0130174486	 0.280958
H	-0.0390445608	-3.8181688478	-0.0651013579	 0.125804
H	 2.0302667723	-0.1637187339	 0.0713063257	 0.260641
