14
gdb 24037	4.55258	1.09406	0.88686	3.7469	73.97	-0.262	-0.0658	0.1962	1209.363	0.103237	-395.790818	-395.783486	-395.782542	-395.824113	26.346	
N	-0.9583162413	 0.0187724493	-1.4546312002	-0.306581
C	-0.4309154459	 0.4976894798	-0.5453507904	 0.272542
C	 0.2368938818	 1.1035625096	 0.6031708692	-0.429085
C	 1.5548527674	 1.7919514747	 0.2863413552	 0.305474
C	 2.1082607289	 1.8563837949	-0.993334577	-0.050338
N	 3.2690245807	 2.4711573234	-1.2301434348	-0.234418
C	 3.8741744179	 3.0217493165	-0.1789921093	-0.006812
C	 3.3235973194	 2.9586356559	 1.1000864806	-0.018924
N	 2.1657348351	 2.3456557482	 1.3373154329	-0.289095
H	-0.4406822422	 1.8300567163	 1.0663763503	 0.180325
H	 0.4129543045	 0.3313540798	 1.3608710982	 0.180327
H	 1.6059445686	 1.4036004479	-1.8430442171	 0.146572
H	 4.8201877644	 3.5259006021	-0.3568495273	 0.125226
H	 3.8264904506	 3.4114994918	 1.9505130095	 0.124788
