15
gdb 75170	3.09938	1.33943	0.94075	10.8905	77.59	-0.1906	-0.0513	0.1393	1161.9885	0.113039	-453.979404	-453.971211	-453.970267	-454.012204	30.222	
N	-0.007829706	 1.3231475543	 0.0067727399	-0.549903
C	-0.065714326	 0.0108045393	 0.000715105	 0.439818
N	-1.093741144	-0.8092995767	 0.0030611175	-0.353977
H	-2.0660462716	-0.5452114799	 0.0103638554	 0.269764
C	-0.6394605973	-2.2121912188	-0.0065562835	-0.271098
C	 0.8644664249	-2.0948351742	-0.015282496	 0.024541
C	 1.70770065	-3.2587108968	-0.0262187976	 0.061772
O	 2.9257745914	-3.2787368727	-0.0337392252	-0.305137
C	 1.2486316074	-0.7413485672	-0.0110451602	 0.256935
O	 2.2893265351	-0.0753334959	-0.0143025654	-0.435029
H	 0.9587123605	 1.6532497676	 0.002432428	 0.294055
H	-0.7867271042	 1.9576144448	 0.0146428201	 0.278271
H	-1.0454511995	-2.720654177	 0.8788205993	 0.13404
H	-1.056389013	-2.7120355254	-0.8917566182	 0.13404
H	 1.1350525323	-4.2223583914	-0.0272569294	 0.021909
