18
gdb 94793	2.9097	1.50464	1.09317	4.1523	74.05	-0.2392	0.0118	0.251	1118.3378	0.148109	-439.109382	-439.100861	-439.099917	-439.142807	31.092	
C	-0.0207030214	 1.4230698019	-0.0104333517	-0.345509
N	-0.0336444982	-0.0188393106	 0.051084476	-0.091411
C	-1.2114289851	-0.7987628266	-0.2986326362	-0.172647
C	-0.8219162609	-2.2540636454	 0.0557894754	-0.336217
C	 0.6924984759	-2.2144162911	 0.1257391859	 0.312661
C	 1.5836242112	-3.2810808318	 0.581734275	-0.237003
O	 1.4650970382	-2.9757639395	-0.8094245675	-0.262284
C	 1.0994975822	-0.7571713136	 0.2533000686	 0.375178
O	 2.213302998	-0.33118256	 0.4794566888	-0.396298
H	 0.9834631643	 1.7564412297	 0.2572468205	 0.167864
H	-0.2612250904	 1.7800100931	-1.0202917755	 0.126407
H	-0.7476607714	 1.8529031232	 0.6888969824	 0.124807
H	-2.0831935954	-0.4530670269	 0.268462398	 0.113288
H	-1.4492115329	-0.6854222442	-1.3659993057	 0.115589
H	-1.24146353	-2.5302408667	 1.0275963578	 0.123111
H	-1.1693647414	-2.9758294912	-0.6850222722	 0.131969
H	 2.5332070947	-3.0044283901	 1.0353752246	 0.137984
H	 1.1564042426	-4.2345233101	 0.8908255457	 0.112512
