18
gdb 34724	3.59994	1.46896	1.43714	1.9266	79.81	-0.2413	0.0454	0.2867	977.0623	0.150248	-364.774125	-364.767295	-364.766351	-364.805081	28.526	
C	-0.0400041883	-1.2226316626	-0.1092648572	-0.438927
C	-0.0017145455	-0.0233629299	-0.0392487852	 0.343976
C	 0.0109225144	 1.4290117598	 0.0501329089	-0.164906
C	-0.4785234174	 2.0221710804	 1.4011523919	-0.059224
C	 0.6797810696	 1.5988210189	 2.3278699334	-0.24
C	 1.8028151024	 2.1148495314	 1.4359405917	-0.027054
C	 1.2793888488	 3.3045639541	 0.7057659904	-0.033124
C	-0.1644377704	 3.5120981031	 1.1513678156	-0.248388
N	 1.395340765	 1.9946899459	 0.0109514471	-0.119385
H	-0.0647966923	-2.2818794015	-0.1800403809	 0.194182
H	-0.5522427848	 1.8469832017	-0.7922318073	 0.103519
H	-1.4890150701	 1.765064262	 1.7110886333	 0.07909
H	 0.6494688156	 2.1052570853	 3.2974779023	 0.100127
H	 0.7230251545	 0.5190817946	 2.4898596692	 0.119516
H	 2.8511691974	 1.9589253119	 1.6570274192	 0.092288
H	 1.9037063706	 4.1092353684	 0.3373637003	 0.092883
H	-0.7946357247	 3.9601785977	 0.376664936	 0.102972
H	-0.2400490649	 4.1202472487	 2.0582847712	 0.102454
