17
gdb 67743	3.45877	1.57382	1.37105	0.3709	72.2	-0.2169	0.0017	0.2186	971.132	0.134541	-421.778401	-421.770841	-421.769897	-421.809655	31.009	
C	-0.1196044423	 1.4886319776	 0.0891403935	-0.493496
C	 0.1346697497	 0.0098657173	 0.0157379086	 0.379142
O	-1.1311778078	-0.7718235717	 0.2795864692	-0.324658
C	-0.4009564589	-1.6114462722	 1.1312660432	 0.027934
C	 0.8209312879	-0.7669108544	 1.1865334609	-0.242131
C	 0.9711024541	-2.0913835836	 0.4898448371	 0.312465
O	 1.663852801	-3.0911670077	 1.161053858	-0.472776
C	 1.1153487712	-1.843117114	-0.964784504	-0.149351
C	 0.687611316	-0.604811243	-1.2480591737	-0.134399
H	 0.8164093383	 2.0398208152	-0.0490075741	 0.125944
H	-0.8169374251	 1.7917594273	-0.698412451	 0.132035
H	-0.5512119404	 1.7620329599	 1.0552347956	 0.130137
H	-0.9317799885	-2.2211480265	 1.8534857743	 0.110081
H	 1.445710816	-0.3940721495	 1.9887461124	 0.104774
H	 1.222933474	-3.930924849	 0.9945396341	 0.289298
H	 1.4258305456	-2.6039449972	-1.6709906433	 0.102357
H	 0.5569095493	-0.1664595485	-2.2293377109	 0.102644
