15
gdb 124337	4.24848	1.1536	0.91321	3.8397	73.1	-0.2332	-0.0474	0.1857	1217.5987	0.113264	-450.157307	-450.149017	-450.148073	-450.190523	30.048	
C	-0.1058828843	 1.4586766417	-0.0067314384	-0.483983
C	 0.0296653691	-0.0449418935	 0.0065926246	 0.442958
O	 1.0662114833	-0.6498720251	 0.0021373265	-0.285657
N	-1.211508301	-0.7454952105	 0.0252739276	 0.032978
N	-2.3943402176	-0.1121939088	 0.0289236568	-0.204157
C	-3.2803718329	-1.0875011283	 0.0510320588	-0.105729
C	-2.5865091282	-2.3331709511	 0.0552948432	 0.351068
N	-3.1111753001	-3.606366678	 0.1439010948	-0.587874
N	-1.2861901784	-2.0957218194	 0.0336432248	-0.278271
H	 0.8980717745	 1.8815088788	-0.02046906	 0.146305
H	-0.6693355628	 1.7909421052	-0.8819102778	 0.158278
H	-0.6521473592	 1.8073889334	 0.872989784	 0.159304
H	-4.3405674528	-0.8866307063	 0.065234684	 0.130604
H	-3.9924939219	-3.7380094774	-0.3298873535	 0.257569
H	-2.4431090079	-4.3299516207	-0.0832226156	 0.266606
