15
gdb 6655	7.56364	0.81146	0.74297	4.5117	62.97	-0.2847	0.0004	0.2851	1433.8068	0.116828	-399.853856	-399.844824	-399.84388	-399.889384	29.522	
C	-0.0391351388	 1.4558063024	-0.1535824296	-0.479967
C	-0.097557022	-0.0336761023	 0.0730334219	 0.426951
O	-0.2273082964	-0.588453648	 1.1320741083	-0.336712
O	 0.0178722842	-0.7013781472	-1.1036032819	-0.243183
C	-0.0249965659	-2.129169857	-1.005052315	-0.058332
C	 0.1219522737	-2.6517532217	-2.4368992138	-0.345862
C	 0.094674017	-4.1107466806	-2.4853770004	 0.249848
N	 0.0715594524	-5.2653282939	-2.5099488371	-0.294239
H	 0.9062928729	 1.7257843177	-0.6324797925	 0.153425
H	-0.8443039057	 1.7649780443	-0.8260288463	 0.153431
H	-0.1332313115	 1.9703775705	 0.8015904502	 0.154689
H	 0.7850897492	-2.4865022226	-0.3635026792	 0.145004
H	-0.9708028552	-2.4472106544	-0.5580482976	 0.145004
H	-0.6867215953	-2.2554541368	-3.0599447775	 0.164972
H	 1.0640561213	-2.2946332005	-2.8659653495	 0.164972
