15
gdb 125147	3.27135	1.25797	0.91477	5.9188	72.98	-0.246	-0.0722	0.1738	1201.3597	0.111895	-453.953734	-453.94516	-453.944216	-453.987044	30.762	
C	-0.0464238241	 1.5383543998	 0.0627442045	-0.526783
C	-0.0078678009	 0.046961104	-0.0029378426	 0.03182
C	 0.001508615	-0.8040833797	-1.0751866109	 0.272347
O	 0.0184073901	-2.0861244523	-0.6637722694	-0.209059
N	 0.0336734867	-2.112137777	 0.7228727394	-0.206583
C	 0.008416683	-0.8532216139	 1.1094863532	 0.363774
N	-0.0721990129	-0.5060834298	 2.4455215186	-0.589446
C	-0.012085547	-0.5334072919	-2.5155723541	 0.080085
O	-0.0037394351	-1.3777097437	-3.3788724638	-0.257438
H	 0.872808434	 1.9442175145	 0.5035504469	 0.138574
H	-0.1610912649	 1.9895813143	-0.9246545032	 0.144129
H	-0.8807683233	 1.8761957031	 0.6876512651	 0.151405
H	 0.1154715889	-1.2816207044	 3.0672634074	 0.266483
H	 0.4608076373	 0.3138682523	 2.6988077806	 0.257433
H	-0.0308097869	 0.5503469149	-2.7581296714	 0.083258
