21
gdb 115581	3.19955	0.98073	0.91057	2.8062	74.35	-0.246	0.0643	0.3103	1366.051	0.18086	-461.336646	-461.326579	-461.325635	-461.371796	36.859	
C	-0.425982914	 1.6586168658	 0.1442127123	-0.446452
C	-0.1381813477	 0.1660064002	 0.1409580983	 0.368417
C	-1.3368946369	-0.6394361008	-0.3771433472	-0.086276
O	-1.5598782253	-0.3649448169	-1.7445473214	-0.423853
O	 1.0003556301	-0.1514300954	-0.7230670276	-0.337144
C	 1.6344783445	-0.9210250763	 0.326471813	-0.079288
C	 0.5722684679	-0.4923649342	 1.3569755922	-0.08207
C	 1.0785522546	 0.40179949	 2.4729790743	-0.111133
O	 1.8541575229	-0.4227265799	 3.3327299542	-0.422212
H	 0.4784569159	 2.240355597	 0.3345720083	 0.117812
H	-0.8272534101	 1.9471401494	-0.8309445339	 0.139394
H	-1.1737392204	 1.9068917977	 0.9051099202	 0.115608
H	-1.1520207527	-1.7129244514	-0.2100556159	 0.080792
H	-2.2503341577	-0.3692714862	 0.1648355028	 0.104349
H	-0.6964550105	-0.4755064624	-2.1655662836	 0.290505
H	 1.6620467321	-1.9914700348	 0.0924756624	 0.10405
H	 2.6545218125	-0.5744243052	 0.5254521845	 0.110295
H	 0.0118682898	-1.319288687	 1.8021583409	 0.083869
H	 1.6853949946	 1.2215712942	 2.0594539431	 0.093233
H	 0.2310453007	 0.85562197	 3.0107319788	 0.090739
H	 2.2351755198	 0.1312764764	 4.0202321944	 0.289365
