16
gdb 4143	4.8316	1.51862	1.30964	2.1155	67.42	-0.2361	0.0133	0.2494	931.8433	0.131848	-379.868504	-379.861543	-379.860599	-379.899694	27.099	
O	-0.3422171264	 1.2498646053	-0.617865427	-0.396272
N	-0.1567230137	-0.1376191659	-0.4631134267	-0.220352
C	-1.1233421047	-0.6641005877	 0.1720143533	 0.398948
C	-2.3756789617	 0.0182026182	 0.6919441847	-0.29361
C	-3.3168219089	-1.1362121621	 0.9789910337	-0.045543
N	-3.5260877334	-1.9954940524	-0.2059225805	-0.331412
C	-2.584472778	-2.4245076477	 0.8485080829	-0.036116
C	-1.1360604722	-2.1511765034	 0.4863965317	-0.289508
H	 0.4234310703	 1.4968365701	-1.1469278939	 0.304909
H	-2.1518165204	 0.5852671477	 1.604835835	 0.119861
H	-2.7656515526	 0.7278650699	-0.042666588	 0.137703
H	-4.1288445568	-1.009933747	 1.6872118452	 0.086727
H	-4.4006098721	-2.5043495876	-0.1032894008	 0.231378
H	-2.8324655398	-3.2869791035	 1.4579927115	 0.086793
H	-0.7800456482	-2.7471058766	-0.3577716037	 0.130604
H	-0.4868000316	-2.3661427874	 1.3450969328	 0.11589
