18
gdb 92807	2.92902	1.7771	1.41572	3.0173	77.49	-0.2334	0.0025	0.2359	952.2852	0.149686	-401.878938	-401.871955	-401.871011	-401.909977	29.02	
O	-0.073245759	 1.4810987158	 0.0841353303	-0.44362
C	 0.0307410643	 0.0763176687	 0.0188609079	 0.09309
C	 0.5320703152	-0.5436744906	 1.3799656157	-0.26738
C	-0.7533967193	-0.7644675308	 2.1774846789	-0.212213
C	-1.7683756399	-0.804034558	 1.3212343978	 0.296492
C	-3.1719949057	-0.3461561941	 1.00895861	-0.180122
N	-2.9465008729	 1.0854520735	 0.607363665	-0.341077
C	-2.7334556458	 0.0056542636	-0.3847995632	-0.075576
C	-1.3395323399	-0.6224918002	-0.1188633791	-0.075715
H	-0.9156317663	 1.6876821938	 0.5191394339	 0.296377
H	 0.72774126	-0.1471949483	-0.795663094	 0.071529
H	 1.0910407706	-1.4752069521	 1.2103097272	 0.099634
H	 1.2118808662	 0.1557171568	 1.8776582292	 0.114571
H	-0.7916711972	-0.7742211719	 3.2604170181	 0.098697
H	-4.1359586648	-0.6568204277	 1.3892894553	 0.105748
H	-3.8606903573	 1.4965913904	 0.4178698708	 0.235519
H	-3.2982342883	-0.0085227737	-1.3083655833	 0.098979
H	-1.2645970396	-1.5789075352	-0.6506292505	 0.085067
