16
gdb 15130	8.501	0.69161	0.66943	3.0323	76.9	-0.238	-0.026	0.2119	1634.8364	0.128393	-346.572574	-346.563841	-346.562897	-346.608772	29.679	
O	-0.3571910668	 0.1488328877	 0.2410546612	-0.232121
C	-0.0449184338	 1.2840331047	 0.0057645481	 0.173133
C	 1.3908897015	 1.7296137469	-0.2817881104	-0.414053
C	 1.4564631497	 2.7535564495	-1.3137997301	 0.024789
C	 1.4533678501	 3.5954713765	-2.1770494477	 0.100806
C	 1.4673618226	 4.5911589431	-3.208273467	-0.15523
C	 1.0532401342	 6.022220079	-2.8986904628	-0.251991
C	 2.4935101755	 5.7142109263	-3.1761920738	-0.250775
H	-0.7885144189	 2.1105445572	-0.009449363	 0.091448
H	 1.7929741761	 2.1212932265	 0.6658079405	 0.152426
H	 1.9804845927	 0.8408480601	-0.5306944551	 0.152502
H	 1.1994115606	 4.2286108954	-4.1964569645	 0.112909
H	 0.4774241544	 6.54411616	-3.6544790576	 0.121101
H	 0.7656155215	 6.2411075469	-1.8773961072	 0.126416
H	 3.1869050406	 5.7226263161	-2.3439111861	 0.127484
H	 2.91828544	 6.0224141841	-4.1247495344	 0.121156
