19
gdb 54404	3.21624	1.34569	1.21751	2.0936	75.02	-0.2431	-0.0183	0.2248	1099.3879	0.158918	-423.029923	-423.0216	-423.020655	-423.063748	31.54	
C	 0.5546618366	 1.3609072389	 0.029130947	-0.480079
C	-0.1660156987	 0.0337554707	-0.0137868049	 0.256649
O	-0.7822707842	-0.4270376651	 0.9214493783	-0.313678
C	-0.0919537469	-0.740156777	-1.3057432946	 0.344951
C	 0.7317199032	-2.0471465407	-1.4493049398	-0.257031
C	 0.7046770001	-1.5319894793	-2.9031000174	 0.066848
C	-0.7704734205	-1.6970695103	-3.3253905841	-0.222955
C	-1.413712429	-1.0740413734	-2.0461859867	-0.250879
O	 0.7211401983	-0.1640887167	-2.3793606119	-0.334023
H	 1.6202936319	 1.2121652134	-0.1742276393	 0.150956
H	 0.1845715306	 2.0133148553	-0.7695222991	 0.150251
H	 0.4117847964	 1.8299090231	 1.003085738	 0.136367
H	 1.7196696733	-1.9581018303	-0.9966211109	 0.113586
H	 0.2556778843	-2.9978612706	-1.2008998874	 0.107922
H	 1.4936259244	-1.7378080067	-3.6258474353	 0.08303
H	-0.992289974	-1.1254915349	-4.22854538	 0.111623
H	-1.0506988455	-2.7403005968	-3.4923802117	 0.104171
H	-2.0403712176	-1.761050136	-1.4752515238	 0.122099
H	-1.9857629627	-0.1685588637	-2.2579684665	 0.110192
