17
gdb 123446	5.34307	0.97272	0.85385	3.5888	73.5	-0.2621	0.0064	0.2684	1313.1775	0.139579	-414.177395	-414.169789	-414.168844	-414.210587	27.685	
C	 0.248942692	 1.1343731364	 0.6983024065	-0.159656
C	-0.0276813478	-0.1016192367	-0.1173142459	-0.000559
C	-1.4254609709	-0.5425059136	-0.337244899	-0.247636
N	-0.6382507483	 0.0021684804	-1.4556218912	-0.31034
N	 1.4714485561	 1.8066004187	 0.274239273	 0.029844
C	 2.1224801212	 1.7729287098	-0.9096136132	 0.015763
N	 3.170405944	 2.577563387	-0.8821522288	-0.282005
C	 3.1088767912	 3.0964308257	 0.3734041202	 0.036771
N	 2.1008169155	 2.6646102046	 1.1146122451	-0.251786
H	-0.5937928966	 1.8340535879	 0.6255754446	 0.123317
H	 0.3774986448	 0.8854928783	 1.7555770766	 0.147967
H	 0.7482781971	-0.8618408398	-0.0596082104	 0.115508
H	-1.6502747193	-1.6023197177	-0.4053556785	 0.132339
H	-2.2249428207	 0.0638908576	 0.0810594113	 0.121041
H	-0.9220962316	 0.9632820713	-1.6353389966	 0.236487
H	 1.8043374498	 1.1565376262	-1.7363430865	 0.165181
H	 3.8268830335	 3.8069794539	 0.7551676626	 0.127765
