18
gdb 61626	3.66633	0.88515	0.87277	5.4802	72.73	-0.2841	0.0205	0.3047	1383.3379	0.146495	-439.074946	-439.065744	-439.0648	-439.109493	33.579	
C	 0.5549817213	 1.2841463795	-0.1451948059	-0.433724
C	 0.0470937017	-0.0966259256	 0.1739870212	 0.086252
O	 1.0343457111	-1.1037429276	 0.4626012869	-0.270263
C	 0.1190264377	-0.7099697406	 1.5135994269	 0.024124
C	 0.696584919	-0.013098184	 2.7381109221	-0.264617
C	 2.1362501902	-0.4859119706	 3.0540624428	-0.012059
O	 3.0507029389	-0.0957897893	 2.0530294448	-0.426674
C	 2.5826955216	 0.0913153877	 4.3332283505	 0.29012
N	 2.8899106335	 0.5344742555	 5.3543039015	-0.31491
H	 1.3951541862	 1.5557783006	 0.4974639908	 0.146486
H	 0.8940809764	 1.3279424821	-1.184893507	 0.138327
H	-0.2434380521	 2.0236958075	-0.0221951921	 0.13203
H	-0.742174427	-0.4627367376	-0.4836824311	 0.10429
H	-0.6029863268	-1.4954134362	 1.7350347887	 0.109415
H	 0.7263047978	 1.0720208884	 2.6091666534	 0.135963
H	 0.0493350798	-0.2207824324	 3.5956679353	 0.129233
H	 2.131912555	-1.5807031926	 3.1829216352	 0.121503
H	 2.7032096356	-0.4837606949	 1.233855786	 0.304505
