19
gdb 75812	2.95804	1.3287	1.12749	2.2319	75.87	-0.2487	-0.0269	0.2218	1135.1596	0.158146	-423.018131	-423.009455	-423.008511	-423.051615	32.814	
O	 0.2049382377	 0.7493327948	-0.9425045041	-0.429104
C	 0.019359694	-0.3573154338	-0.11331594	 0.009175
C	 0.1315609525	-0.1392023191	 1.393102562	 0.340232
O	 0.6504179438	 0.7497043004	 2.0117928207	-0.310043
C	-0.9836202147	-1.1465731417	 1.6799371332	-0.422778
C	-1.4191635309	-0.9251259175	 0.2010578212	 0.293927
C	-2.5917566386	 0.0253088783	-0.1540356749	-0.265536
C	-2.9043133053	-0.8884734177	-1.3711868733	-0.202868
C	-2.0283021457	-1.9989384714	-0.727371198	-0.300319
H	 0.4144152459	 1.4976559707	-0.3685883794	 0.298508
H	 0.6582276903	-1.188683058	-0.4469236946	 0.102598
H	-0.6000285707	-2.1568544847	 1.8579814194	 0.129379
H	-1.6860918076	-0.880856501	 2.4728515946	 0.130643
H	-3.3814661114	 0.00208766	 0.6024273629	 0.099314
H	-2.327998543	 1.0630739527	-0.3688160991	 0.10713
H	-3.9525271301	-1.1270582417	-1.5615924172	 0.09892
H	-2.4584068439	-0.4992386725	-2.2894187602	 0.118907
H	-1.3335030682	-2.5429386194	-1.374223867	 0.099218
H	-2.6272342542	-2.7259204483	-0.1697626862	 0.102697
