19
gdb 73828	2.41185	1.80609	1.3588	1.9207	80.	-0.2048	-0.0061	0.1987	1033.8586	0.159132	-385.875986	-385.867897	-385.866953	-385.908216	31.724	
C	-0.0104371258	 1.5131927903	 0.1120956701	-0.509492
C	-0.0502121105	 0.0304391959	-0.0147331304	 0.234378
C	-0.0619248909	-0.7734739845	-1.0799155569	 0.234344
C	-0.0395476124	-0.4891731057	-2.5410447967	-0.50949
C	 0.0052503243	-2.2089313543	-0.4829080971	-0.090516
O	-0.7675954757	-2.0308733849	 0.7128961105	-0.228827
C	 0.0238942003	-0.938052012	 1.200986791	-0.090513
C	 1.4316005049	-1.587232613	 1.1866404896	-0.08072
C	 1.4198148936	-2.3882571885	 0.1254556881	-0.080697
H	 0.912564614	 1.8436670547	 0.6087807804	 0.125111
H	-0.0576724844	 2.0082446645	-0.8621140498	 0.125125
H	-0.8431375445	 1.8884775492	 0.7208062861	 0.12856
H	-0.0787380238	 0.5838843947	-2.7493813218	 0.125127
H	 0.8730597666	-0.8855621973	-3.00780978	 0.125115
H	-0.8843824827	-0.9630853931	-3.0571979447	 0.128553
H	-0.3853737497	-3.0203255377	-1.0969239831	 0.07439
H	-0.3493450817	-0.5660135515	 2.155053507	 0.074391
H	 2.2341979552	-1.3603553016	 1.873501176	 0.10758
H	 2.2101472631	-2.9951337254	-0.292263248	 0.10758
