16
gdb 78727	4.44814	1.1738	1.05417	5.0043	74.27	-0.2674	0.019	0.2864	1113.1021	0.125211	-400.706417	-400.69905	-400.698106	-400.7381	28.841	
O	-0.0265019562	 1.3338327594	 0.0792888451	-0.439319
C	 0.0298989117	-0.0679106814	-0.0555136292	 0.134534
C	-1.3926441879	-0.6007586257	-0.1522019719	-0.107459
C	-1.3754697354	-0.5287241996	-1.6499976558	-0.098262
C	 0.2020204966	-0.5597633244	-1.5272108683	-0.130668
C	 0.1449131583	-2.1018198592	-1.4097230612	-0.299246
C	-1.3167467437	-1.9014832253	-0.9888084036	 0.213553
C	-2.3444667087	-2.8853873307	-0.921030669	 0.170717
N	-3.1676702568	-3.6981079763	-0.8734342785	-0.350082
H	 0.8685859375	 1.677505436	-0.007974434	 0.286754
H	 0.7034225869	-0.5170567375	 0.6894801569	 0.070121
H	-2.2191258645	-0.4280378758	 0.5239140957	 0.117292
H	-2.0758154345	-0.1360454163	-2.3711612934	 0.118123
H	 0.908470876	-0.0649626365	-2.1898871672	 0.08328
H	 0.2034996611	-2.5985355264	-2.380635669	 0.122856
H	 0.8271819595	-2.5842484002	-0.7018577665	 0.107807
