18
gdb 99827	1.88185	1.59279	1.26448	2.8137	74.	-0.2381	0.0209	0.259	1118.6962	0.143566	-439.072096	-439.06158	-439.060636	-439.107212	38.139	
C	-0.2104567226	 1.3837363678	 0.0533021149	-0.259441
O	 0.1060611611	-0.0028597915	 0.0479579223	-0.283256
C	 0.6851093573	-0.5139068913	-1.15582717	 0.046833
C	 0.6051490328	-2.0474481239	-1.0336105393	-0.406922
C	-0.0265472511	-0.0672935614	-2.3565627265	 0.356465
C	-0.645776953	 0.2842402588	-3.3238649316	-0.472394
C	 2.1998170741	-0.1435641786	-1.2628379863	 0.383721
N	 2.7606535639	 0.1653736359	-0.0649233572	-0.529724
O	 2.8039622388	-0.1944190436	-2.3120485182	-0.36181
H	 0.6764015659	 2.0074052295	-0.1218924496	 0.118629
H	-0.966634381	 1.6239967494	-0.7013344603	 0.135169
H	-0.6083397821	 1.5985346677	 1.04763635	 0.127698
H	-0.4412994888	-2.3556954752	-0.9925904782	 0.134774
H	 1.0897334076	-2.5117636194	-1.8941453762	 0.150553
H	 1.1082810954	-2.3674436345	-0.1173156975	 0.122379
H	-1.1737587877	 0.5971388745	-4.1909066546	 0.201818
H	 2.2090023591	 0.1244539163	 0.7748620481	 0.27149
H	 3.7555012003	 0.3093110796	-0.0195851597	 0.264017
