22
gdb 6132	2.66563	1.77979	1.53053	1.272	77.92	-0.2496	0.0727	0.3223	995.5435	0.198463	-350.204562	-350.195189	-350.194245	-350.237437	36.153	
C	-0.701743372	 1.16506303	-0.1408763859	-0.414738
C	 0.0495614719	-0.1577926943	-0.1448541893	 0.003964
C	 1.3798258325	-0.2755130287	-0.9347265039	 0.100215
O	 2.0161217131	 0.9911727369	-1.0097846344	-0.427776
C	 1.9268377254	-1.1912743436	 0.1931432169	-0.293085
C	 0.7883087365	-0.6884142624	 1.1402560601	 0.33741
C	 1.2736684489	 0.4208908176	 2.0777567205	-0.444149
C	 0.0444343877	-1.7685388918	 1.9210519735	-0.454529
H	-0.0485691425	 1.9983019053	 0.1247905324	 0.133263
H	-1.1197355194	 1.376083902	-1.1312139785	 0.111155
H	-1.5349122543	 1.1383582006	 0.57024147	 0.107196
H	-0.6181095533	-0.9523835864	-0.49915527	 0.063959
H	 1.308126379	-0.7252628034	-1.9348259975	 0.055909
H	 2.9202036548	 0.8488217645	-1.3077401516	 0.281877
H	 1.8247611526	-2.2525911371	-0.0544052539	 0.090673
H	 2.9570535464	-1.0003775165	 0.5103259776	 0.085738
H	 1.8300495345	 1.186873443	 1.5329069678	 0.130081
H	 0.4341216598	 0.9049796444	 2.5895358649	 0.107016
H	 1.9335671327	 0.0037647773	 2.8478988261	 0.102217
H	 0.6825598771	-2.2077902129	 2.6971985796	 0.108992
H	-0.8419591398	-1.3575256908	 2.4191747211	 0.11072
H	-0.2876792717	-2.5792330836	 1.2631076945	 0.103892
