13
gdb 131639	2.28959	1.48962	0.91929	4.5988	68.12	-0.2783	-0.0712	0.2071	1162.8945	0.089317	-452.736813	-452.72882	-452.727876	-452.770528	27.761	
O	-0.0193055677	 1.3695697177	 0.465978855	-0.413596
C	 0.0214446823	 0.0790658517	-0.1186396757	-0.21481
C	-1.3583208003	-0.4898109154	-0.0460730854	 0.079729
C	-1.7625324981	-1.7883204754	 0.0745459922	 0.269202
O	-3.1133386996	-1.8669751561	 0.0740814763	-0.208939
N	-3.6262411142	-0.5902895446	-0.0379281366	-0.112953
C	-2.5932178233	 0.2123376096	-0.1098447467	-0.015914
C	-1.0228807708	-2.9877369064	 0.1950069204	 0.237425
N	-0.3815255894	-3.9465783217	 0.2925578226	-0.330476
H	 0.8375692564	 1.786527338	 0.3346570049	 0.300412
H	 0.3397615717	 0.1297216599	-1.1724304407	 0.122608
H	 0.7257378596	-0.5896884729	 0.3980754336	 0.125021
H	-2.7435124465	 1.2782112156	-0.1921212201	 0.162289
