16
gdb 72373	2.63879	1.70956	1.4127	1.5557	70.33	-0.262	-0.0078	0.2542	958.4737	0.124724	-437.890592	-437.882843	-437.881899	-437.923035	29.358	
O	 0.1369097427	 1.2903264256	-0.1713096562	-0.477291
C	 0.1000767439	-0.1050103414	-0.0467064493	 0.277459
C	 0.8259977388	-0.8330481396	-1.2016862157	-0.33693
C	-0.1338727078	-1.9207523549	-1.613889095	-0.054631
C	-1.2776698028	-1.9117001024	-0.9245206846	-0.090346
C	-1.2759567461	-0.827904742	 0.1001008676	 0.034558
O	-0.8554162467	-1.3027954128	 1.4527383938	-0.275641
C	 0.3287049497	-0.623758407	 1.3623038991	 0.359888
N	 1.2417020633	-0.4117901445	 2.1980067066	-0.556921
H	 0.5736006134	 1.6386398272	 0.614678263	 0.300048
H	 1.0046283394	-0.1128221182	-2.0089871675	 0.13117
H	 1.804386113	-1.2239316564	-0.9013262761	 0.132698
H	 0.1052008097	-2.6258053013	-2.4030339582	 0.110246
H	-2.1053437039	-2.5968437092	-1.0612841416	 0.108858
H	-2.1742142286	-0.2175380717	 0.1976744707	 0.105132
H	 1.0444496221	-0.8490388614	 3.0996684933	 0.231702
