16
gdb 49212	4.62261	1.0014	0.84073	2.5945	78.05	-0.2412	-0.0582	0.183	1285.4086	0.125771	-437.959758	-437.951916	-437.950972	-437.992478	29.218	
O	-0.1710378076	-0.0520362939	 0.0338269896	-0.294756
C	-0.0729729051	 1.1576825641	 0.0504849846	 0.08948
C	 1.1865459461	 1.8865812231	-0.0074117877	 0.14331
C	 1.1737878342	 3.2346685021	 0.0217860444	-0.02027
N	 2.3286732534	 3.9837038432	-0.0363507492	-0.335521
C	 3.5842724745	 3.4664665942	-0.3620367896	 0.410046
O	 4.5639252708	 4.1744171938	-0.3520734755	-0.339015
C	 3.5633883834	 2.0062972413	-0.7875344223	-0.331166
C	 2.5061953483	 1.1613657571	-0.0595669904	-0.326705
H	-0.9773120837	 1.8063345082	 0.1139773635	 0.05763
H	 0.2508151423	 3.800733578	 0.1018762376	 0.132677
H	 2.3022890552	 4.9805320158	 0.1219845829	 0.26481
H	 3.3523988401	 2.0121023575	-1.8660210432	 0.140351
H	 4.572679572	 1.6112340591	-0.6617571847	 0.140301
H	 2.8408824	 0.9409348678	 0.9635628212	 0.127375
H	 2.3759361261	 0.1931762685	-0.5492768711	 0.141454
