17
gdb 111829	2.82656	1.39946	1.11342	3.584	68.1	-0.2418	-0.0455	0.1963	1099.2719	0.135803	-458.926224	-458.918128	-458.917184	-458.959421	29.894	
O	-0.2703214845	 1.6502388153	-0.0461817433	-0.419739
C	-0.0280151008	 0.2979424874	-0.3789144471	-0.08913
C	-1.2795335929	-0.5410300825	-0.1105571575	-0.137464
C	-1.3307093028	-2.0997427168	-0.1661277992	-0.131484
C	-0.1261189873	-2.8533437218	 0.4259719072	-0.082126
O	-0.6536734932	-2.7542910738	 1.773577128	-0.281614
C	-1.8770015763	-2.148788227	 1.300857985	-0.003171
C	-1.7206471729	-0.6092924363	 1.3596090949	 0.398472
O	-1.7798902422	 0.2151033543	 2.2293377473	-0.309917
H	-0.5764228787	 1.6671224905	 0.8702376321	 0.298784
H	 0.2385525497	 0.2736428439	-1.4409037054	 0.113313
H	 0.8266016816	-0.1070224484	 0.1847610644	 0.097142
H	-2.1070759287	-0.1242988159	-0.699442176	 0.122222
H	-1.8393095844	-2.5443424957	-1.0182398441	 0.09349
H	-0.0638178201	-3.9017261024	 0.1115030485	 0.114205
H	 0.8624430768	-2.3925955116	 0.3321958874	 0.116726
H	-2.7825211533	-2.6431312493	 1.6604023678	 0.10029
