23
gdb 115385	3.30025	1.00618	0.89963	1.8146	81.28	-0.2521	0.0769	0.3291	1423.8002	0.20619	-425.438151	-425.42865	-425.427706	-425.472416	36.097	
C	-0.1621945483	 1.6183723122	 0.0043913723	-0.388982
C	-0.0581146156	 0.0891510316	-0.0291859213	-0.190314
C	 0.7293438987	-0.4659045607	-1.2225316977	 0.011935
C	 2.2184077974	-0.1005878707	-1.1893338034	-0.093667
O	 2.9197132536	-0.7125323172	-2.2639211471	-0.256469
C	 2.7742752438	-2.1162679444	-2.3323713787	 0.21374
C	 3.5826979094	-2.8504789228	-1.2573286229	-0.419576
O	 1.4175938118	-2.51058336	-2.363227244	-0.256004
C	 0.6367473777	-1.9940207136	-1.2947894107	-0.104468
H	 0.8179083044	 2.0936304404	 0.1121623504	 0.121197
H	-0.617718907	 2.0026551623	-0.9147702483	 0.119251
H	-0.7795383349	 1.9491470705	 0.8451361268	 0.115369
H	 0.3974122671	-0.2684361251	 0.9045684328	 0.095041
H	-1.0697310648	-0.3370969228	-0.0518877656	 0.097825
H	 0.3103863636	-0.0652232402	-2.1551317025	 0.084011
H	 2.3773766463	 0.9736072762	-1.3122678545	 0.110545
H	 2.6505472553	-0.3892735437	-0.2164300907	 0.085696
H	 3.1626795887	-2.3858211668	-3.3192592378	 0.090771
H	 3.2454132319	-2.6266282522	-0.242657701	 0.118417
H	 3.4973252288	-3.9291424996	-1.413547992	 0.125674
H	 4.6346225097	-2.5635175084	-1.3367058147	 0.125602
H	 0.9426045626	-2.4337059581	-0.3309079525	 0.085777
H	-0.38930083	-2.3197326368	-1.4909793871	 0.10863
