13
gdb 1225	7.79293	1.27363	1.17628	2.8437	52.07	-0.2651	-0.0361	0.229	965.2519	0.098284	-381.63248	-381.624442	-381.623498	-381.666952	25.619	
C	-0.1149262586	 1.4324401099	 0.1174247366	-0.479521
C	-0.0174055881	-0.0691493403	 0.1971447505	 0.433717
O	 0.8101663806	-0.6922612088	 0.8072105289	-0.335281
O	-1.0111738177	-0.6431146914	-0.5362999983	-0.242017
C	-1.0550362759	-2.0706709053	-0.5703389254	-0.170751
C	-2.3567854024	-2.5554257335	 0.0414243032	 0.146095
O	-2.826030924	-3.6397280846	-0.1745958488	-0.227114
H	 0.6538111247	 1.8800799673	 0.7455647203	 0.154008
H	 0.0151115718	 1.756806283	-0.919104778	 0.156984
H	-1.1061640616	 1.7631154543	 0.4388617315	 0.154165
H	-0.9836637857	-2.4036363763	-1.6091272859	 0.146673
H	-0.2128494954	-2.479172953	-0.0002682349	 0.172758
H	-2.8368305777	-1.8192611013	 0.7249922203	 0.090284
