15
gdb 44840	2.55552	1.84119	1.43399	4.7164	64.52	-0.26	-0.0459	0.2141	917.0802	0.114609	-457.8302	-457.823647	-457.822702	-457.861275	25.989	
O	-0.0015471239	 0.0091724557	 0.0064012983	-0.305487
C	-0.0247999019	 1.2063481991	 0.0143607511	 0.424367
C	-1.2613124182	 2.1295898305	 0.0272598453	-0.340909
C	-0.5877936406	 3.5094845517	 0.022579649	 0.090327
C	 0.622806677	 3.3007529748	-0.9027369699	-0.256136
C	 1.1907234459	 2.1642266486	-0.0166837619	-0.262312
C	 1.1489191832	 2.8732971035	 1.3451643848	 0.439905
O	 1.8782461749	 2.7790853487	 2.2831722468	-0.331126
O	 0.0454667706	 3.6863245505	 1.3212861293	-0.239156
H	-1.8700128001	 1.9578979106	-0.866101474	 0.14103
H	-1.8828194417	 1.9536651308	 0.90803216	 0.153639
H	-1.2299212815	 4.3686785202	-0.1567868348	 0.107327
H	 0.3496087668	 2.9802775708	-1.9109163042	 0.125355
H	 1.2750592796	 4.1748170389	-0.954666672	 0.134806
H	 2.14133018	 1.6927037355	-0.2440208977	 0.118369
