15
gdb 87619	2.79171	1.58466	1.18183	3.3771	68.3	-0.2427	-0.027	0.2157	1015.5065	0.113452	-453.976543	-453.968898	-453.967954	-454.008673	29.077	
O	 0.0191221337	 1.3740104868	-0.0525616564	-0.424729
C	 0.0501833224	-0.0062242625	 0.0307340844	 0.114742
C	-0.3707020393	-0.7314305086	 1.2577227591	-0.356262
C	-1.2921973875	-0.7530938754	 0.0377701323	 0.148805
N	-2.4734970396	 0.0597964549	 0.0114710668	-0.323402
C	-3.3116236536	-0.5927313442	-0.7101433064	 0.053605
N	-2.8506153124	-1.8055754134	-1.1914550573	-0.356783
C	-1.5307838117	-1.9937736121	-0.754236548	 0.386276
O	-0.815384522	-2.9397595608	-0.9842424067	-0.376508
H	-0.9012238374	 1.6454593998	 0.0718426705	 0.301747
H	 0.8331903193	-0.4459512993	-0.5795503649	 0.132073
H	 0.1087136406	-1.6768961033	 1.4887690459	 0.144713
H	-0.7287495493	-0.1487054775	 2.0986163592	 0.13653
H	-4.3109754892	-0.2492261996	-0.9510466653	 0.14686
H	-3.3531475541	-2.4555395848	-1.7738761531	 0.272333
