17
gdb 72982	2.64287	1.54667	1.21083	3.4799	73.6	-0.2232	0.0165	0.2397	1048.7816	0.137013	-414.12968	-414.120836	-414.119892	-414.162795	33.2	
N	-0.0153807588	 1.5117544494	-0.1592462528	-0.594586
C	-0.0405247463	 0.0892914035	-0.0867615289	 0.261408
C	 0.5727947025	-0.8025384571	-1.1739478271	-0.227079
N	-0.506512699	-1.8322250415	-0.9574924676	-0.352919
C	-1.1827073553	-0.9028010499	-0.0345777462	-0.110201
C	-0.248844512	-0.7765373862	 1.1794304177	 0.137326
N	 0.6718781907	-1.8216868032	 1.5762630925	-0.591542
C	-0.8116631087	-0.0213710832	 2.2663117253	 0.233972
N	-1.2686475048	 0.606071604	 3.1253669775	-0.345015
H	-0.7814774896	 1.9128237237	 0.3735095593	 0.250451
H	 0.8408752142	 1.8739156005	 0.2549277185	 0.242869
H	 0.5014956843	-0.3093357258	-2.1461133653	 0.128092
H	 1.5871028309	-1.1805705762	-1.0165032964	 0.12173
H	-1.0482621337	-1.9832223687	-1.8006369088	 0.236815
H	-2.26037508	-0.7942991751	 0.0149062844	 0.113182
H	 0.329671063	-2.2646621789	 2.4245709023	 0.240218
H	 0.6336421727	-2.5353134452	 0.8475051056	 0.255277
