19
gdb 87434	4.24537	1.20702	1.10357	1.9235	79.56	-0.2305	0.0849	0.3155	1149.5614	0.158412	-385.773624	-385.766052	-385.765108	-385.805517	30.44	
C	-0.0591604446	 1.5546159039	-0.0842199865	-0.403792
C	 0.0061434502	 0.0432523922	-0.0326473905	-0.081502
C	 1.33372997	-0.6740885975	-0.2604091119	-0.378053
C	 0.6879080158	-0.6697515047	 1.0885174668	 0.399663
C	 1.1924211348	-0.1946606996	 2.4512331365	-0.216875
C	-0.0360743298	-0.8287688926	 3.1852393362	 0.110873
O	 0.7656536546	-1.5718979385	 4.1494710193	-0.336537
C	 1.5093471881	-1.6613098718	 2.8989035863	 0.112432
C	 0.238928731	-1.8115353129	 1.9976013501	-0.221069
H	 0.8402202357	 2.0026593836	 0.3512648126	 0.113517
H	-0.1411746285	 1.9135953901	-1.1161637415	 0.117878
H	-0.922062993	 1.9386528835	 0.471648251	 0.115949
H	-0.8645434868	-0.4587010387	-0.4504965613	 0.082498
H	 1.3318771205	-1.5911266237	-0.8417008278	 0.10956
H	 2.2143064315	-0.0556446692	-0.4114357484	 0.109111
H	 1.7331974583	 0.7065826276	 2.7380791782	 0.085162
H	-0.9683673827	-0.371559524	 3.5152836207	 0.098086
H	 2.4501359763	-2.2103889932	 2.8811810505	 0.098838
H	-0.2988248614	-2.7311520547	 1.7680316597	 0.084262
