14
gdb 27089	3.47484	1.14757	0.86983	3.8116	67.83	-0.1985	0.0198	0.2183	1238.2544	0.101645	-470.026302	-470.018071	-470.017127	-470.060027	29.371	
O	 0.2275562436	 1.3245225721	 0.1009185336	-0.437097
C	 0.0698029957	-0.0113401926	-0.0229211576	 0.284148
C	-0.1455145519	-0.8553520369	-1.0783536994	 0.242866
O	-0.2897654616	-0.4246078161	-2.3703321558	-0.237023
C	 0.042762136	-1.2815005915	-3.3732255445	 0.107923
N	-0.0861157118	-0.892840524	-4.5654592034	-0.44311
N	-0.2402396855	-2.1515297998	-0.6613353227	-0.325015
C	-0.0797436347	-2.1087848377	 0.6426742652	 0.003348
N	 0.1056648465	-0.8252207417	 1.0821036581	-0.299038
H	 0.1528918189	 1.7087038972	-0.7807454162	 0.321405
H	 0.3876867181	-2.2511690792	-3.0075194993	 0.131014
H	 0.1996516653	-1.6366174688	-5.199283515	 0.232288
H	-0.0924312496	-2.953270589	 1.312628718	 0.139459
H	 0.2381080911	-0.511195242	 2.0290592389	 0.27883
