21
gdb 60590	3.43764	1.02316	0.86997	2.4912	78.59	-0.2445	0.0769	0.3214	1384.2992	0.181726	-424.184089	-424.17476	-424.173816	-424.21914	33.806	
C	 0.139023873	 1.6028727162	-0.1055166178	-0.422833
C	 0.0185672215	 0.0746409627	-0.1071467726	-0.044713
C	 0.8335053718	-0.6063856432	 0.9805373809	 0.092301
C	 2.0627694273	-0.0599950017	 1.5667659046	-0.191665
O	 0.8262619664	-0.0036286432	 2.2820193412	-0.239818
C	-1.4431238331	-0.3509296573	 0.0397892335	 0.171116
C	-2.3972486368	-0.1275543891	-1.1550855953	-0.299944
C	-2.604656562	-1.6531905544	-1.089708544	-0.064929
O	-1.6099309901	-1.7891405961	-0.0541407846	-0.299969
H	 1.1404424029	 1.9259346196	-0.4025179356	 0.117436
H	-0.5694355203	 2.0496100274	-0.8097419042	 0.115845
H	-0.066971421	 2.0021614153	 0.8914604428	 0.140932
H	 0.3723682125	-0.3237733183	-1.0689951575	 0.075519
H	 0.70505161	-1.688308542	 1.002608699	 0.11292
H	 2.8083782381	-0.7406445926	 1.9761887399	 0.113581
H	 2.4511724526	 0.9005273892	 1.2344561098	 0.111087
H	-1.8362708295	 0.0192099722	 0.997294258	 0.086771
H	-3.2761088273	 0.4898903061	-0.9658662622	 0.11154
H	-1.8990029863	 0.2243811073	-2.061527402	 0.108464
H	-3.5967185133	-1.971070931	-0.7443990474	 0.102519
H	-2.3437510465	-2.2251978469	-1.9877015067	 0.103839
