15
gdb 28689	3.56251	1.07894	0.8495	2.7653	72.57	-0.2081	0.0184	0.2265	1283.4779	0.114627	-413.038418	-413.030028	-413.029084	-413.072553	30.098	
N	 0.3075396051	 1.2270028689	 0.534775868	-0.612912
C	 0.0093026808	-0.0731449636	 0.1017274632	 0.283647
C	-0.9703351729	-0.6194454678	-0.6897457541	-0.15559
N	-0.7532535983	-1.9709946638	-0.8641181257	-0.303594
C	 0.3340252187	-2.2427433235	-0.1884179962	 0.359294
C	 0.9774362294	-3.5986943621	-0.1038946183	-0.446169
C	 1.7003358431	-3.8013618577	 1.1517704516	 0.256126
N	 2.2883502277	-3.9135024357	 2.1401076323	-0.31071
N	 0.8479373016	-1.1237369666	 0.4104255189	-0.312198
H	 0.1798540369	 1.3486544188	 1.5352250854	 0.251587
H	-0.2737898092	 1.9058624141	 0.0594180496	 0.254796
H	-1.8162402907	-0.1195651772	-1.1364153646	 0.101754
H	 0.1958263225	-4.3565439126	-0.210304617	 0.185927
H	 1.6828760189	-3.7565441659	-0.9311676083	 0.171163
H	 1.6828833765	-1.0650145052	 0.9716413451	 0.276879
