21
gdb 121309	2.79547	1.03882	0.86347	4.0673	78.43	-0.2594	0.0135	0.273	1430.7961	0.183251	-424.284857	-424.275556	-424.274612	-424.319728	33.783	
C	-0.0952959994	 1.6005975793	 0.2435150336	-0.383781
C	 0.0228023568	 0.0871259446	 0.0465082709	-0.172857
C	 0.7302479624	-0.6042727595	 1.2178058988	-0.184879
C	 0.8463985403	-2.1385659059	 1.0707623398	-0.147639
C	 1.6280200472	-2.8165464595	 2.2073297899	-0.259164
C	 0.5164800968	-3.2167370596	 3.1899990516	-0.078101
O	-0.6617534342	-3.4021224092	 2.3895752237	-0.216862
C	-0.5306864065	-2.7995539014	 1.1754440576	 0.439467
O	-1.4148460729	-2.8089510915	 0.3668324591	-0.342501
H	 0.8892619722	 2.0688341451	 0.3569608368	 0.109956
H	-0.5911551845	 2.0724693586	-0.610085323	 0.116478
H	-0.6794962093	 1.8394936077	 1.1393037938	 0.114896
H	-0.9691921326	-0.3536492931	-0.0918547271	 0.134174
H	 0.5782667919	-0.1225764337	-0.8771403246	 0.095422
H	 1.7460539235	-0.2007996006	 1.3208064564	 0.098196
H	 0.2116424396	-0.362908483	 2.156233234	 0.100677
H	 1.2610594074	-2.3663606286	 0.0852263173	 0.104989
H	 2.1414121774	-3.7097608344	 1.8396627118	 0.117197
H	 2.3736880192	-2.165543912	 2.6697501178	 0.111261
H	 0.7124993887	-4.1523460314	 3.7180063593	 0.125038
H	 0.3146187261	-2.4349181519	 3.9313728423	 0.118032
