15
gdb 5075	3.25844	1.99711	1.24791	2.0232	63.51	-0.1695	0.0469	0.2164	916.6712	0.117221	-399.828273	-399.81922	-399.818276	-399.86267	31.31	
C	 0.0989178505	 1.5046242806	 0.0585802381	-0.541944
C	 0.0716189623	 0.0079025055	 0.01816953	 0.006573
C	 0.0264081524	-0.8150802108	-1.0878390202	 0.32496
O	-0.0048769662	-0.5595483684	-2.4228654681	-0.437193
N	 0.0025997081	-2.1127571353	-0.6921691584	-0.301831
C	 0.0367290475	-2.1754604036	 0.7004070787	-0.192817
C	 0.0795569885	-0.8819027922	 1.1448183849	 0.256574
O	 0.1127242853	-0.5156802338	 2.4617981578	-0.450168
H	 1.0539687135	 1.9074926453	 0.4229644148	 0.127081
H	-0.0632850636	 1.940003129	-0.9345163957	 0.105048
H	-0.6930757665	 1.9155416335	 0.6993221686	 0.126694
H	 0.0923271367	 0.3885543581	-2.5521033959	 0.303336
H	-0.0187647233	-2.8945009868	-1.3213942832	 0.264209
H	 0.0238992022	-3.1117046017	 1.228828379	 0.116582
H	 0.1749300324	 0.4424161106	 2.5085839096	 0.292895
