19
gdb 108008	3.60265	1.55938	1.3908	0.9913	77.8	-0.2256	0.092	0.3176	991.1022	0.159893	-385.803653	-385.796438	-385.795494	-385.835223	29.354	
C	 0.0442273448	 1.3549787664	 0.0993329064	-0.258062
O	-0.087001802	-0.040397789	-0.0800609345	-0.302283
C	-1.3805138016	-0.5230768065	-0.0236701592	 0.448752
C	-2.5642767088	-0.0176318709	-0.8972904699	-0.317748
C	-3.4316213881	-0.7530550916	 0.152552083	-0.059826
C	-2.9868288774	-2.2359538529	 0.1651767918	-0.070047
C	-2.1256565853	-2.0894965686	 1.4012206966	-0.100981
C	-1.4750657311	-2.0630784533	 0.0365326561	-0.127939
C	-2.3246775582	-0.5512905273	 1.2573873061	-0.139316
H	 1.1142677246	 1.5742350599	 0.1096820543	 0.127211
H	-0.4250919014	 1.9209432272	-0.7169654262	 0.112526
H	-0.395231878	 1.6853074515	 1.051368015	 0.107882
H	-2.6953805426	 1.0671847443	-0.8275488253	 0.094453
H	-2.6160664121	-0.3359884083	-1.9430355814	 0.093623
H	-4.4810341951	-0.5115468039	 0.309814791	 0.066803
H	-3.5110728328	-3.107791689	-0.2041770652	 0.084221
H	-1.9747757478	-2.7479609693	 2.2456980872	 0.08537
H	-0.8214034662	-2.7836783815	-0.4361041885	 0.087236
H	-2.3598859808	 0.2052145527	 2.0369471625	 0.068126
