17
gdb 28883	2.28567	1.8242	1.0227	4.4832	79.6	-0.2064	-0.0073	0.1991	1118.782	0.137337	-418.070517	-418.06209	-418.061146	-418.103108	32.415	
C	 0.1114019118	 1.5255037854	 0.0478751802	-0.55024
C	 0.0501728603	 0.0192487499	 0.0251151207	 0.113336
C	 0.0741981532	-0.6853685585	-1.1910130353	 0.213719
N	 0.1642753135	-0.0037054298	-2.4109968381	-0.594715
C	 0.0759806857	-2.0851562812	-1.1565356547	-0.071416
N	 0.051489122	-2.7958889128	-0.0326988859	-0.270086
C	 0.0038448328	-2.1393873143	 1.1223133863	-0.071769
C	-0.006176759	-0.7440832606	 1.1957706708	 0.274904
O	-0.058271477	-0.1950489003	 2.4424842301	-0.437426
H	 0.7244551989	 1.8931546312	-0.7804756688	 0.151008
H	-0.878249862	 1.9937701116	-0.0395142183	 0.135098
H	 0.5729927897	 1.9070961995	 0.9656068993	 0.122896
H	-0.3975610267	 0.8336786154	-2.4735993176	 0.248199
H	 0.0006635571	-0.5972707695	-3.2127426298	 0.248905
H	 0.1012012493	-2.6439469409	-2.0910300619	 0.085478
H	-0.0310057368	-2.7185226597	 2.0403717151	 0.107252
H	-0.1530554027	 0.7595614147	 2.3724262079	 0.294858
