17
gdb 86173	2.8261	1.23637	1.03189	3.6753	77.56	-0.2464	-0.0543	0.1921	1174.9997	0.137397	-418.025181	-418.016547	-418.015603	-418.058586	32.22	
N	-0.5641931523	 1.4015678389	-0.4646448609	-0.504525
C	-0.009957122	 0.1121585242	-0.0526343508	-0.084191
C	-1.1239859244	-0.9096469528	 0.2727826346	-0.227537
C	-1.3006747706	-1.7584445669	-0.9968746952	 0.073517
O	-2.3230635761	-1.1526367786	-1.7979789467	-0.429745
C	 0.0490887999	-1.6401394693	-1.6740613983	-0.198559
C	 0.7546076506	-0.6216995797	-1.165997622	 0.20389
C	 2.0173728983	-0.1613638792	-1.6271066878	 0.201549
N	 3.0455656357	 0.253996334	-1.9637236067	-0.334721
H	 0.1787895782	 2.0390184917	-0.7375664684	 0.238493
H	-1.1569036579	 1.2633934909	-1.2795800503	 0.237309
H	 0.6362368096	 0.2924778479	 0.8116256587	 0.095901
H	-0.805459923	-1.5553812226	 1.09521725	 0.112881
H	-2.0544363688	-0.4161658061	 0.5566112411	 0.13155
H	-1.5702571497	-2.7981474218	-0.7683279213	 0.078679
H	-2.3753597743	-1.6249252918	-2.6359788309	 0.286338
H	 0.3518101868	-2.2532550287	-2.5159120749	 0.11917
