19
gdb 72670	2.33183	1.49322	1.44305	1.2866	82.15	-0.2218	0.0247	0.2465	1059.3871	0.158718	-381.988402	-381.979581	-381.978637	-382.021555	34.114	
C	-0.2040715423	 1.5428034553	 0.0017427836	-0.460234
C	 0.0128804153	 0.0504482463	 0.0161870002	 0.266331
C	-1.2158925635	-0.8794342321	 0.1625447188	-0.210899
N	-0.477203779	-1.7516072626	 1.1183697841	-0.366758
C	 0.6641318995	-0.7846823283	 1.1935988482	 0.155033
C	 1.7680515257	-1.1958942421	 0.1890001491	-0.200651
N	 1.085079255	-0.4318367291	-0.8933169306	-0.363519
C	 1.000997619	-0.2691792476	 2.4911038462	 0.202862
C	 1.2681518737	 0.1614748918	 3.58311659	-0.432197
H	 0.7512080241	 2.0699302002	 0.0680616402	 0.129296
H	-0.6901154537	 1.8463026947	-0.9336144559	 0.118339
H	-0.8400403428	 1.859003875	 0.8347021764	 0.116778
H	-2.0813552327	-0.3648623154	 0.5993437212	 0.099039
H	-1.5441106087	-1.3982605011	-0.7465545987	 0.095972
H	-0.9475320344	-1.8569932124	 2.0098336983	 0.224808
H	 2.7613547678	-0.7897159508	 0.4074697267	 0.108091
H	 1.8313806648	-2.2788296411	 0.0503432878	 0.108006
H	 0.7470107907	-1.0082391182	-1.6567735106	 0.216923
H	 1.5122580817	 0.5424867174	 4.5438988249	 0.192778
