15
gdb 19897	3.90535	2.04307	1.69892	2.9709	64.98	-0.2319	-0.0328	0.1991	782.1881	0.117946	-362.56168	-362.554908	-362.553964	-362.593026	25.485	
O	-0.1388789443	-0.0916817209	-0.182318881	-0.242448
C	-0.0635221941	 1.1090776798	-0.218851931	 0.120175
C	 1.1493183219	 1.9231840826	 0.1284756415	-0.077911
C	 1.4720004694	 2.8589900301	 1.2409237063	-0.065158
C	 1.1002911554	 2.4445975726	 2.6725344354	-0.071549
C	 0.3507128723	 1.1484836911	 2.7246367229	-0.302382
C	 1.8156534821	 1.1412991635	 2.3870802638	 0.011356
N	 2.2735467406	 1.5970246377	 1.0078795645	-0.158888
H	-0.8930884254	 1.7317117226	-0.6284638269	 0.080903
H	 1.5390704684	 2.314776382	-0.818642986	 0.128755
H	 1.9118574192	 3.8290288289	 1.0283606649	 0.105367
H	 1.2014387704	 3.1209117884	 3.5101131799	 0.100809
H	 0.1656164271	 0.7955845991	 3.7356386749	 0.122787
H	-0.4402094693	 0.8919132931	 2.0344579672	 0.136276
H	 2.5473720864	 0.5943097493	 2.9657443535	 0.111908
