18
gdb 65178	2.72379	1.33312	1.1204	3.8969	76.89	-0.2623	0.023	0.2853	1140.2966	0.147203	-401.93589	-401.927351	-401.926407	-401.969101	32.885	
O	 0.1136827299	 1.3698972031	 0.3472457649	-0.471042
C	 0.0520133986	-0.0029452137	 0.0802869307	 0.40769
C	 1.1142643238	-0.5995073501	-0.8107658661	-0.320946
C	 1.1632388929	-0.8086982778	 0.6894235881	-0.303083
C	-1.333159936	-0.5917845707	 0.0637250434	-0.06213
C	-2.4530196735	 0.0823088241	 0.7892685453	-0.299276
C	-2.4643464361	 0.0630625145	-0.7342991679	-0.189545
C	-2.2122793846	 1.2651875041	-1.4755951803	 0.290829
N	-1.9787494384	 2.2243455025	-2.0819133011	-0.357466
H	-0.1067552898	 1.8517117821	-0.4603395505	 0.301178
H	 0.8503748884	-1.4391284837	-1.4450729091	 0.114257
H	 1.8314152997	 0.0894232736	-1.2419300003	 0.124998
H	 1.9028408568	-0.247729234	 1.2481447445	 0.130416
H	 0.9381406751	-1.7927091789	 1.0860456433	 0.113772
H	-1.349097321	-1.676797032	 0.0267753366	 0.101657
H	-3.2050402842	-0.5171379181	 1.2883938234	 0.128083
H	-2.2183619033	 1.0301165012	 1.2576503862	 0.156102
H	-3.1693548684	-0.6055695463	-1.2161119013	 0.134507
