21
gdb 42138	1.95668	1.84621	1.11163	2.0724	80.15	-0.2425	0.0027	0.2452	1146.5371	0.184614	-424.210003	-424.201664	-424.20072	-424.242737	32.599	
C	 0.0208779557	 1.5953527881	 0.1622595423	-0.20723
C	 1.4021876958	 2.1874638962	-0.141907332	-0.062988
O	 1.7916258288	 2.2162006152	-1.510461804	-0.24689
C	 2.1485372404	 1.0127824168	-2.1332321474	 0.031086
O	 3.0380359812	 0.2259853159	-1.3828504256	-0.242887
C	 2.5866678224	-1.0668999484	-0.9594418095	-0.130942
C	 2.1176739225	-1.1151560517	 0.4775818391	-0.057874
C	 0.9501974712	-0.6471055546	 0.9244980536	-0.03208
C	-0.0973732146	 0.0499196188	 0.1010706827	-0.254538
H	-0.2408290666	 1.9220135942	 1.1776405594	 0.099391
H	-0.7215813908	 2.0402192317	-0.5105135839	 0.105545
H	 1.3971525339	 3.2418104224	 0.1512078206	 0.104087
H	 2.1697677406	 1.6786749115	 0.4515557131	 0.113164
H	 1.2626465801	 0.415075334	-2.4022902803	 0.073411
H	 2.6550623524	 1.3281395379	-3.0533870561	 0.106615
H	 1.7969121285	-1.4176535328	-1.6379125404	 0.104688
H	 3.4409709163	-1.7383111694	-1.0883474173	 0.109985
H	 2.8101471274	-1.5556560951	 1.1907149666	 0.091342
H	 0.7433432125	-0.7178012665	 1.9916151877	 0.090312
H	-1.0937617671	-0.2278897288	 0.4646490002	 0.10142
H	-0.0489286605	-0.2831244854	-0.9394729986	 0.104386
