12
gdb 129906	3.47264	1.78068	1.18467	3.1668	62.29	-0.2457	-0.0679	0.1778	925.7008	0.079323	-464.930576	-464.923959	-464.923015	-464.961628	24.818	
N	-0.0973213484	 1.4298567831	-0.0237416534	-0.603875
C	-0.0660089624	 0.0387444581	 0.0146692535	 0.205874
C	-1.0677425973	-0.8964413558	 0.1361782371	-0.071733
N	-0.6242008389	-2.2210953703	 0.135536984	-0.390908
C	 0.6574772241	-2.0743654618	 0.012253979	 0.542109
O	 1.749801648	-2.8451936369	-0.0661418496	-0.235874
N	 2.8509351811	-1.9309232865	-0.1964549522	 0.005996
N	 2.4210304722	-0.7477911724	-0.1923100438	-0.065465
N	 1.0825246978	-0.7812313558	-0.0667794348	-0.034341
H	 0.3937482984	 1.8692279143	 0.7468801281	 0.255355
H	 0.2412680237	 1.8204863917	-0.8959653869	 0.25534
H	-2.1198488082	-0.6715090676	 0.2267671991	 0.137521
