20
gdb 111433	2.9828	1.48454	1.19826	0.9872	77.37	-0.2235	0.0703	0.2939	1101.0182	0.171896	-403.108111	-403.100191	-403.099247	-403.140575	31.195	
C	-0.0884623546	 1.5224279548	 0.0819725166	-0.380859
C	 0.0809914389	 0.0008587289	 0.0571266488	-0.177415
C	 0.70893063	-0.5171084628	-1.2395424538	 0.005782
C	 0.9365808882	-2.025193694	-1.2817089338	 0.020091
O	-0.2650744589	-2.807299596	-1.2455594018	-0.256219
C	 0.3427623316	-2.544824323	-2.5207285947	 0.022924
C	-0.263501231	-1.379173282	-3.266008376	-0.055281
C	-1.4173361972	-0.7062460049	-2.6131437142	-0.251906
N	-0.0614559178	-0.1556259303	-2.4628466477	-0.11221
H	 0.8773597946	 2.0287000861	-0.0240587449	 0.113033
H	-0.7287869926	 1.8605451008	-0.7370330376	 0.13468
H	-0.5360488442	 1.8506963027	 1.0250565628	 0.109088
H	 0.7190531509	-0.3148637416	 0.8922572363	 0.096773
H	-0.8848773752	-0.4929129748	 0.2085048201	 0.110965
H	 1.6939537582	-0.0434716427	-1.3627229487	 0.083233
H	 1.7991632205	-2.4678280345	-0.7859193678	 0.095376
H	 0.7137975685	-3.4143890418	-3.0550969411	 0.10006
H	-0.0863472703	-1.3146655307	-4.3359916043	 0.090776
H	-2.0828016898	-0.0807411239	-3.2023573143	 0.111415
H	-1.8790764798	-1.2337469803	-1.7862249039	 0.139694
