19
gdb 30170	4.41632	1.22768	0.99689	1.4909	82.65	-0.1689	0.057	0.2259	1198.3293	0.162675	-382.101949	-382.094137	-382.093193	-382.134124	31.067	
C	-0.3365789846	 1.4595210033	 0.0752604596	-0.415646
C	 0.1358887514	 0.0141895974	 0.016842091	 0.081554
C	 0.9915306846	-0.3511715523	-1.253025532	-0.383559
C	 1.9963786121	-1.3007381664	-0.6597607661	 0.275549
C	 1.9299873606	-1.20056394	 0.7010874794	 0.331057
N	 2.8546373313	-2.0228331483	 1.2711779217	-0.368972
C	 3.5408474581	-2.6628260806	 0.2458363456	-0.083549
C	 3.0283981245	-2.2340737315	-0.9609248174	-0.327582
N	 0.9364359474	-0.3562744829	 1.2374363842	-0.431837
H	 0.513074242	 2.1524877787	 0.0529438615	 0.114269
H	-0.9754555662	 1.6895468029	-0.782770167	 0.123483
H	-0.9138494204	 1.6507272965	 0.9857778676	 0.122042
H	-0.7392026548	-0.6467557637	 0.0230090269	 0.090554
H	 0.3492428274	-0.7854332839	-2.0261751715	 0.103569
H	 1.4622645923	 0.540229426	-1.6952819753	 0.093345
H	 2.9839855952	-2.1870361901	 2.2537167323	 0.258183
H	 4.32482258	-3.3675600522	 0.4700637164	 0.110609
H	 3.3679918317	-2.562555496	-1.9316798306	 0.087634
H	 1.3372155875	 0.4805508729	 1.6583514438	 0.219299
