18
gdb 43707	4.56618	1.17767	1.06388	3.0655	76.63	-0.2399	-0.0249	0.215	1134.6034	0.147615	-401.872289	-401.864983	-401.864038	-401.904341	29.293	
O	-0.0130778363	 0.1901142022	-0.83726762	-0.288233
C	-0.0172803383	 1.2067999494	-0.2077325291	 0.395739
C	-1.1306980658	 2.1115083562	 0.3441679525	-0.447265
C	-0.0288460073	 3.1298492082	 0.7354413913	 0.393928
C	 1.0875556034	 2.1407305981	 0.3117852647	-0.447263
C	-0.053272011	 4.6415609576	 0.4263896141	-0.134442
C	-1.0737741731	 4.7088752626	 1.5824548477	-0.172499
N	-0.0162351251	 3.7378541939	 2.1477421474	-0.180972
C	 0.9984299462	 4.7361462495	 1.55218586	-0.172498
H	-1.8831899597	 2.4266383141	-0.3844637684	 0.133437
H	-1.6392105262	 1.667969639	 1.2074525162	 0.146775
H	 1.6325331687	 1.7110640399	 1.1597001115	 0.146776
H	 1.8099168755	 2.475285264	-0.4383621854	 0.133437
H	-0.0740905827	 5.1410203529	-0.5488305807	 0.069576
H	-1.1448162891	 5.6419796511	 2.1470384778	 0.103812
H	-2.0573544053	 4.2564015046	 1.4407230336	 0.10794
H	 1.9890161089	 4.309652559	 1.3816178933	 0.107941
H	 1.0613530475	 5.6710135778	 2.1148123734	 0.10381
