18
gdb 12220	2.84637	1.65784	1.41417	3.7992	68.38	-0.2394	-0.0163	0.2232	964.7875	0.152269	-384.935852	-384.92731	-384.926365	-384.968967	31.223	
C	-0.6696128113	 1.281758845	-0.0926631734	-0.416477
C	-0.0167939067	-0.0917278213	-0.0526701325	 0.022199
C	 1.2804725686	-0.3544505608	-0.8626990694	 0.102811
O	 2.011979323	 0.8539451739	-0.9808911922	-0.424974
C	 1.7768748347	-1.2559115073	 0.2991725858	-0.274308
C	 0.715843385	-0.6067520929	 1.245001714	-0.106686
C	 1.2834830231	 0.4854445075	 2.1157501267	 0.156625
O	 0.9896019177	 0.6482092244	 3.2743699126	-0.262445
H	 0.0572140322	 2.0782909363	 0.0786764236	 0.139186
H	-1.1323978683	 1.4599966625	-1.0689382256	 0.117109
H	-1.4523817042	 1.3579844099	 0.6691113129	 0.123328
H	-0.7481146416	-0.8582636363	-0.3291997781	 0.085986
H	 1.1575289155	-0.8307840944	-1.8443511198	 0.065507
H	 2.8922973612	 0.6402892412	-1.306554503	 0.286942
H	 1.5684989867	-2.3151311587	 0.1305063024	 0.111735
H	 2.8291372356	-1.1419022891	 0.5764976997	 0.101883
H	 0.1360848444	-1.2802098615	 1.8789306315	 0.085209
H	 2.0156786443	 1.1501041917	 1.6081162249	 0.08637
