21
gdb 73865	2.9298	1.21248	0.93717	1.8767	86.4	-0.2241	0.0322	0.2563	1317.8533	0.181013	-387.10058	-387.091279	-387.090335	-387.134714	35.042	
C	-0.0486732653	 1.5136764152	 0.1202108379	-0.497961
C	 0.0302505674	 0.0231884601	 0.0055619816	 0.225134
C	 0.0151179391	-0.7312342779	-1.1036937166	 0.225135
C	-0.0848068337	-0.2890070877	-2.5303612002	-0.497962
C	 0.0912403711	-2.2083832657	-0.7795675043	-0.383405
C	 0.3560327256	-2.2337461037	 0.7248160921	 0.431467
C	 0.2928274928	-3.4431994226	 1.5482432942	-0.249026
O	 1.5540967936	-2.893438514	 1.1571420372	-0.269035
C	 0.119040028	-0.8221135601	 1.2587214276	-0.383403
H	 0.8369928493	 1.9154226826	 0.6294122049	 0.126691
H	-0.1295233463	 2.008465003	-0.8502858457	 0.122254
H	-0.9146862317	 1.8156266081	 0.7239925644	 0.122819
H	-0.1541509553	 0.7963407654	-2.6324756998	 0.122254
H	 0.7862110075	-0.6257992369	-3.1074151005	 0.126694
H	-0.9654977002	-0.7287710042	-3.0168726874	 0.122816
H	-0.8447646151	-2.7226732413	-1.0426645572	 0.104119
H	 0.8957296334	-2.7273028266	-1.3153346495	 0.117342
H	 0.0564698009	-3.3654835186	 2.6097258817	 0.106302
H	 0.0357503132	-4.3987273987	 1.0905013347	 0.106302
H	 0.9398985817	-0.52482411	 1.9230529033	 0.117342
H	-0.8052968159	-0.7546114091	 1.8510598275	 0.104119
