25
gdb 104716	2.3253	1.0837	0.87991	1.5839	88.25	-0.2534	0.0717	0.3251	1469.9552	0.227413	-389.48908	-389.478453	-389.477509	-389.524393	40.43	
C	-0.2911946861	 1.7537760764	 0.3296298332	-0.39048
C	-0.0011556757	 0.3050197982	-0.0795312454	-0.24239
C	 0.7077170659	-0.5384182092	 0.9887768459	 0.365155
C	 2.0784036677	 0.0286497029	 1.4047402978	-0.230656
C	 3.0890508418	 0.197796054	 0.2649494797	-0.394202
C	-0.1587596978	-0.8880673949	 2.2452347246	-0.315753
C	 0.3107723893	-2.36142021	 2.127117675	 0.17643
O	-0.5970921756	-3.406370966	 2.3756250448	-0.436618
C	 0.7739210122	-2.071043071	 0.6762405303	-0.322886
H	 0.6274994518	 2.3310420601	 0.4734930659	 0.119124
H	-0.8810699164	 2.2639826929	-0.4381884134	 0.111954
H	-0.8584426472	 1.7960042219	 1.266042674	 0.118028
H	-0.9494780581	-0.1898406077	-0.3265467516	 0.081856
H	 0.5870942817	 0.2955847661	-1.0061887162	 0.096381
H	 1.9276878603	 0.9948949198	 1.9022847102	 0.096389
H	 2.5124589478	-0.6290840783	 2.1683599506	 0.095377
H	 4.0611374901	 0.5149627242	 0.6550871241	 0.11269
H	 3.2424559663	-0.7397435263	-0.2802981118	 0.117357
H	 2.7657024702	 0.9517981486	-0.4591821863	 0.118908
H	 0.0515445746	-0.3587494526	 3.1789078231	 0.095127
H	-1.2308434472	-0.802694677	 2.0312609058	 0.082934
H	 1.1608558692	-2.5626787108	 2.7842546195	 0.091284
H	-1.3656287274	-3.2698932822	 1.8115349619	 0.273376
H	 0.0037940351	-2.3652075139	-0.0463774465	 0.083478
H	 1.7286549472	-2.493870285	 0.3519885751	 0.09714
