22
gdb 115152	3.08194	1.09652	0.89112	3.7841	82.03	-0.2332	0.036	0.2692	1372.0139	0.195204	-404.408675	-404.399074	-404.39813	-404.443155	35.85	
C	-0.0032000974	 1.6510413834	-0.0139273497	-0.389235
C	-0.0648095561	 0.1190710538	-0.0170897845	-0.198263
C	 0.7140904554	-0.5170927987	-1.1706461098	 0.027351
C	 2.2396339184	-0.2473835474	-1.1416669161	-0.1791
N	 2.766238114	-1.3522712153	-1.9202932686	-0.307512
C	 1.9325431279	-2.4334834953	-2.0215846604	 0.4095
O	 2.2037416542	-3.4957554716	-2.5391335557	-0.392439
C	 0.6209834597	-2.0581885629	-1.3131212298	-0.13829
C	 0.5268840766	-2.857707866	-0.0030674836	-0.399859
H	 1.0220616088	 2.0150141451	 0.1123838976	 0.119206
H	-0.3880847456	 2.0648583702	-0.9527219824	 0.117135
H	-0.6010481764	 2.0666857697	 0.802676061	 0.116428
H	 0.3116624627	-0.2620662717	 0.9397517963	 0.1015
H	-1.1128707602	-0.1990018207	-0.0813249653	 0.101002
H	 0.3391941347	-0.0882481899	-2.1092561029	 0.083096
H	 2.4997766695	 0.7163021893	-1.5903215121	 0.112124
H	 2.6270249937	-0.2498105492	-0.1107796746	 0.101218
H	 3.7328318914	-1.4319690877	-2.1943007972	 0.247808
H	-0.2158836741	-2.3466528496	-1.9553735267	 0.095764
H	 1.3402511262	-2.6073300856	 0.6869481164	 0.116182
H	-0.4203878863	-2.6724956959	 0.5107583088	 0.116152
H	 0.5968706629	-3.9255026341	-0.2261465307	 0.140232
