21
gdb 68280	2.26721	1.4819	1.40901	2.7133	83.43	-0.2415	-0.0218	0.2197	1098.6749	0.18081	-387.054091	-387.044921	-387.043977	-387.0877	34.95	
C	 0.4721614266	 1.1945673416	 0.326765444	-0.517522
C	 0.2347305269	-0.2764785063	 0.1059780419	 0.28815
C	 0.7173465982	-1.1596035818	-1.087089757	-0.269012
C	-0.0798763453	-2.12611663	-0.1593432832	-0.078768
C	 0.6839354452	-1.4601138056	 1.0210190347	-0.278319
C	-1.1726020616	-1.0199809989	-0.023263908	 0.239299
C	-2.145279669	-0.9967517638	 1.1624141005	-0.497323
C	-1.9951942738	-0.6983807105	-1.2520676623	 0.08736
O	-2.1188339512	-1.3967815065	-2.2273045291	-0.256135
H	 1.544309963	 1.4021455399	 0.4140196219	 0.125176
H	 0.0841949881	 1.7932547733	-0.504407433	 0.12224
H	-0.0102996088	 1.5416755439	 1.2472181791	 0.120891
H	 0.3081917072	-0.9575759771	-2.0758672522	 0.115267
H	 1.7958034337	-1.3318934877	-1.1327217558	 0.086416
H	-0.2559410084	-3.1894299369	-0.318273743	 0.079317
H	 1.7622129315	-1.6405171344	 1.0472683306	 0.091728
H	 0.2620437466	-1.5325017349	 2.0234457409	 0.090982
H	-1.6480570725	-1.0797216658	 2.129317097	 0.128948
H	-2.7186057656	-0.0623100506	 1.1699959161	 0.122147
H	-2.8656967178	-1.8186932372	 1.0854675149	 0.132502
H	-2.5499578228	 0.2689779092	-1.1781315182	 0.066658
