13
gdb 42640	2.85255	1.72887	1.30934	4.9547	66.81	-0.2746	-0.0295	0.2451	928.4176	0.089827	-415.57155	-415.564761	-415.563817	-415.602899	25.739	
O	-0.0212487461	 0.0790297643	 0.0187588835	-0.288104
C	 0.0104077336	 1.2610351621	 0.0698346821	 0.437569
N	-1.0758289655	 2.2302175238	 0.0899350786	-0.199472
C	-0.489243665	 3.4287616324	 0.8056931185	-0.038036
C	 0.9183578281	 3.0907001058	 1.3042176697	-0.278487
C	 1.0935843717	 2.3541490099	-0.0668035265	 0.02753
C	 2.3749133946	 2.1350110572	-0.669257195	 0.173394
N	 3.4047490194	 1.9608856411	-1.1651938393	-0.327735
C	-0.1354252162	 3.2063276004	-0.5984166475	-0.077837
H	-1.2154093687	 4.1028867137	 1.2382794373	 0.136878
H	 1.5403679984	 3.9857339556	 1.3606781421	 0.145901
H	 1.0370334854	 2.4817160633	 2.2043202645	 0.138589
H	-0.3623576898	 3.6535325103	-1.5541159881	 0.14981
