18
gdb 10320	2.57403	1.88956	1.19183	1.2138	71.65	-0.2508	-0.0155	0.2353	1035.5844	0.15321	-381.160651	-381.151708	-381.150764	-381.194466	31.948	
C	-0.2527892533	 0.0172617152	 1.0269033647	-0.374955
C	 0.5895945324	-0.9382864402	 0.1822336518	-0.154601
N	 0.7063643238	-0.5213213649	-1.2269129715	-0.091328
C	 1.8392980733	 0.1822521074	-1.5895899144	 0.158827
O	 2.1065272096	 0.6465241644	-2.6734847743	-0.325703
C	-0.3570608892	-0.8481624148	-2.0992603168	 0.358587
C	-0.241862183	-0.4544537925	-3.5515768923	-0.443127
N	-1.3481864935	-1.4684428502	-1.5861501593	-0.501567
H	 0.1719820508	 1.0262827304	 1.0252041375	 0.115576
H	-1.2742102177	 0.0627077088	 0.645081776	 0.149746
H	-0.2871016213	-0.3351910456	 2.0626105342	 0.119143
H	 1.6051034537	-1.0073168694	 0.5826531526	 0.108272
H	 0.1516173028	-1.9364645656	 0.1927998725	 0.146164
H	 2.5231871249	 0.2817346993	-0.7257238463	 0.088457
H	-0.1628877293	 0.6281037384	-3.66719444	 0.159384
H	 0.6548924111	-0.8728382423	-4.012567738	 0.156217
H	-1.1275295001	-0.8153730998	-4.0799168654	 0.109897
H	-2.0442519649	-1.6649965784	-2.302461091	 0.221013
