18
gdb 51320	4.31728	0.9335	0.79562	4.6452	75.41	-0.2537	-0.0168	0.2369	1409.9341	0.148523	-439.136235	-439.12786	-439.126915	-439.169916	30.562	
O	 0.0926421744	-0.0772663371	-0.0322367494	-0.261163
C	 0.0292987808	 1.1004603831	 0.138719146	 0.172781
O	 1.0699331772	 1.9186176877	-0.2153487639	-0.2271
C	 0.9118831996	 3.2920407778	-0.1347474073	 0.422807
N	-0.2377623806	 3.8070633543	-0.1480308035	-0.289213
C	-0.3707097765	 5.2588769131	-0.0478505252	-0.145818
C	 0.8829292978	 6.0016405367	 0.4295835953	-0.210623
C	 2.1170209058	 5.4793855625	-0.3118347667	-0.207423
C	 2.2552512052	 3.9708444923	-0.0706991472	-0.302985
H	-0.8057902336	 1.6528726158	 0.5877486478	 0.12464
H	-0.6742459964	 5.6238274859	-1.0388795147	 0.117493
H	-1.2169469251	 5.465464854	 0.6167519492	 0.115259
H	 0.7539693782	 7.0778604484	 0.2756100114	 0.103543
H	 1.0122547688	 5.8465118234	 1.5086062691	 0.103758
H	 2.0050005638	 5.6691225865	-1.3865062345	 0.109993
H	 3.0253397618	 5.9975204129	 0.0086559037	 0.105669
H	 2.692486715	 3.7655726785	 0.9155011815	 0.132283
H	 2.9202716137	 3.494194514	-0.7978128318	 0.1361
