16
gdb 131509	3.75507	1.36811	1.16007	0.7756	69.86	-0.2557	-0.0121	0.2436	1039.7862	0.127914	-434.07253	-434.065485	-434.064541	-434.104082	27.553	
O	 0.0800398262	 1.3974183905	-0.0125139249	-0.428411
C	 0.0157807878	-0.0182628793	 0.0292453743	 0.126198
C	 0.6477845446	-0.5747878131	 1.3551079177	-0.368565
C	-0.5703925036	-0.7344810037	 2.2090219397	 0.298189
N	-0.8703804758	-0.9145804713	 3.4906451283	-0.314987
N	-2.2061010215	-0.9864343135	 3.451275341	-0.098613
N	-2.7946020185	-0.8636678319	 2.255676192	-0.314987
C	-1.7480167185	-0.7033220215	 1.4532205862	 0.298189
C	-1.4726453411	-0.5186829219	-0.0057877905	-0.368565
H	-0.4007882573	 1.7389575526	 0.7507452678	 0.283884
H	 0.5714262424	-0.350609998	-0.8502147925	 0.092244
H	 1.1453452859	-1.5371546277	 1.1836722884	 0.122486
H	 1.3983293753	 0.1233735	 1.733484523	 0.129541
H	-2.7486617906	-1.1010006615	 4.2919233857	 0.29137
H	-2.1024040011	 0.2159996913	-0.5132926378	 0.129541
H	-1.5598127343	-1.4655784111	-0.5525030183	 0.122486
