23
gdb 100030	2.46306	1.20311	1.0062	2.2379	82.07	-0.2478	0.0602	0.308	1315.1092	0.203459	-425.414075	-425.403483	-425.402539	-425.448959	40.305	
C	-1.7304507625	 0.0894445962	 1.5073866519	-0.416512
C	-0.6497088189	 0.0602173107	 0.4463179117	-0.007689
C	 0.0448559208	 1.3221427204	-0.0076639845	-0.306493
C	 0.8324825254	 0.251338376	 0.7072077779	-0.015967
C	 1.481116365	 0.5123116124	 2.0599455121	 0.334295
C	 2.916487479	 1.0307577464	 1.8575066972	-0.413808
O	 0.7241313056	 1.4959024406	 2.76555765	-0.469871
C	 1.4880473304	-0.7765576221	 2.8982029127	-0.110751
O	 1.9845808047	-0.4296790199	 4.1917155935	-0.437157
H	-1.4975426811	 0.8117756919	 2.2901806348	 0.141824
H	-2.6940868222	 0.3581554597	 1.0590973717	 0.106574
H	-1.8553075994	-0.8939235003	 1.9773064634	 0.100665
H	-0.8518330135	-0.6547489046	-0.3490888818	 0.075067
H	 0.2186611621	 1.4851241614	-1.0659158233	 0.100169
H	-0.1617720103	 2.2200577361	 0.5638463084	 0.130489
H	 1.4767968552	-0.353557616	 0.0735117482	 0.074314
H	 2.8893190799	 1.9783884898	 1.314154494	 0.122097
H	 3.4012481018	 1.1912975863	 2.8240676829	 0.12178
H	 3.5214892032	 0.3176997819	 1.2872074583	 0.103079
H	 0.9928753547	 1.4065137126	 3.6893024543	 0.283672
H	 0.4652512417	-1.1668927159	 2.9647419037	 0.101211
H	 2.1222539389	-1.5385866851	 2.4219421066	 0.08866
H	 1.7627233896	-1.1341593686	 4.8060485163	 0.294351
