18
gdb 43201	2.71789	1.66635	1.24522	3.7646	77.17	-0.235	-0.0031	0.2319	1040.9848	0.148843	-401.925219	-401.917586	-401.916642	-401.957441	29.408	
O	 0.0708051747	 0.0783674134	 0.3536431912	-0.337866
C	 0.0651307304	 1.252035452	 0.1126360141	 0.337099
N	-1.0174785414	 2.1727712187	-0.038763936	-0.155478
C	-1.6913896582	 2.6014781254	 1.2348246513	-0.183498
C	-0.6504956813	 3.7464671022	 1.4126820703	-0.25218
C	-0.0542643442	 3.33910677	 0.0330656624	-0.081378
C	 1.1041201562	 2.3445948989	-0.0089226712	 0.218202
C	 2.449984506	 2.3524556652	 0.6706719056	-0.311483
C	 2.3722984695	 2.3395019759	-0.8260952856	-0.328496
H	-2.7127530343	 2.94201617	 1.0499081788	 0.119885
H	-1.7082137052	 1.8166539274	 1.9951233022	 0.130621
H	-1.0686660764	 4.7536381471	 1.4558062961	 0.112587
H	 0.0360930556	 3.6116436497	 2.2517948498	 0.115643
H	-0.1158504725	 4.0768066754	-0.7697456678	 0.088335
H	 2.7504770997	 3.2709668856	 1.1640211194	 0.124021
H	 2.7373547879	 1.4393031639	 1.1809559039	 0.140109
H	 2.6142193919	 1.4206137282	-1.3489928577	 0.13879
H	 2.6170933717	 3.249940331	-1.3627051668	 0.125089
