15
gdb 105732	2.35791	1.51611	1.20093	4.7159	65.7	-0.2801	-0.0188	0.2613	1049.2016	0.113375	-453.957514	-453.949352	-453.948408	-453.990815	29.289	
O	 0.0706907077	 1.3602466298	-0.0330867441	-0.40726
C	 0.0053801269	-0.0348981735	 0.0472416703	-0.076539
C	-1.4520608027	-0.5456838764	-0.0447028054	 0.060205
C	-1.5819084087	-2.0802600671	 0.2089416582	-0.155667
O	-2.4113656693	-2.1683627931	 1.3908522116	-0.209165
C	-2.6689650334	-0.8990311094	 1.7556311239	 0.13555
N	-2.2212687262	 0.0696153969	 1.067715126	-0.296054
C	-2.0477927116	-0.1577855915	-1.3323616184	 0.298328
N	-2.5126017054	 0.0958227522	-2.3588333032	-0.333146
H	-0.560594944	 1.7073410789	 0.6105455457	 0.303569
H	 0.5968063391	-0.4399147955	-0.7803412162	 0.127959
H	 0.4196957844	-0.42450104	 0.9918346683	 0.096681
H	-2.0745164914	-2.6158325914	-0.6029064732	 0.155518
H	-0.6184222003	-2.5480180062	 0.4304682227	 0.136391
H	-3.2671597753	-0.8001289938	 2.6544260838	 0.163632
