19
gdb 83576	2.60311	1.70548	1.58848	1.772	74.19	-0.2442	0.0053	0.2496	953.5568	0.162506	-423.038314	-423.031167	-423.030222	-423.069427	29.554	
O	 0.0281035115	 1.4208706306	 0.0339210322	-0.466329
C	 0.021220289	 0.0078707352	 0.0390364429	 0.168781
C	-1.382753239	-0.5957274615	-0.184919275	-0.079766
C	-1.5465327924	-0.3891460028	-1.7143903918	-0.098515
O	-0.2234248843	-0.15838426	-2.2389450582	-0.288079
C	 0.6959678196	-0.5751572434	-1.2072468167	 0.009834
C	 0.7813361515	-2.0844090746	-1.1033749949	-0.063643
C	-0.1655306203	-2.770973987	-0.4618824727	-0.056097
C	-1.3515243738	-2.0918621466	 0.1811301101	-0.275836
H	-0.0942341952	 1.6897140221	-0.8853334971	 0.287382
H	 0.4791548913	-0.3139723945	 0.9771777875	 0.086021
H	-2.1441150916	-0.0611706974	 0.3863328442	 0.078841
H	-1.9939396989	-1.2660397367	-2.1977509842	 0.103022
H	-2.1571711114	 0.4857708339	-1.9591201202	 0.107169
H	 1.6592349079	-0.115685312	-1.4376081743	 0.080077
H	 1.6154484739	-2.588393506	-1.5815394931	 0.093493
H	-0.1110095907	-3.8548385094	-0.393844382	 0.093875
H	-1.3109307492	-2.217777271	 1.2729310306	 0.111291
H	-2.2810488479	-2.5831296489	-0.1372229674	 0.108477
