19
gdb 47896	2.61633	1.45751	1.03889	3.2716	79.57	-0.2362	-0.0568	0.1794	1163.5588	0.160675	-423.035748	-423.027535	-423.026591	-423.06894	31.283	
O	-0.0561394204	 0.8816965151	-1.5247804824	-0.314566
C	-0.0312213939	 1.4253116279	-0.4354485807	 0.306623
C	-1.4097164416	 1.7807139409	 0.1568813519	-0.180581
O	-1.496807282	 2.3595285834	 1.4314426397	-0.241113
C	-0.8964044442	 3.6414852821	 1.5711594463	-0.07405
C	 0.1144469525	 3.5826147846	 2.7182088108	-0.203675
C	 0.9338490541	 2.2754662409	 2.6617631537	-0.249309
C	 1.7084918887	 2.0933445852	 1.3851211838	-0.051024
C	 1.2958344442	 1.7466286619	 0.1555756064	-0.129869
H	-1.8957605029	 2.4070597764	-0.6082172889	 0.123255
H	-1.9762206815	 0.8452277317	 0.2006448675	 0.14105
H	-0.3984624074	 3.9358922252	 0.6396833402	 0.103522
H	-1.6779626049	 4.3852432263	 1.7753066733	 0.105237
H	 0.7638243935	 4.4650513361	 2.6789186701	 0.102239
H	-0.4102084244	 3.6108456927	 3.6794245325	 0.111411
H	 1.6305433108	 2.2553795409	 3.5047795074	 0.100815
H	 0.2341991368	 1.4474607548	 2.794423814	 0.13521
H	 2.7811203447	 2.2607028819	 1.4768212321	 0.10564
H	 2.0589885076	 1.626755182	-0.6104374277	 0.109185
