16
gdb 62307	3.60885	1.47576	1.1997	1.1971	75.69	-0.2368	0.0272	0.264	1021.788	0.12281	-400.600252	-400.592627	-400.591683	-400.632019	30.136	
O	-0.0077672065	 1.4210617166	-0.1059033889	-0.483147
C	 0.0447635943	 0.0124214951	-0.0499096885	 0.268416
C	 0.9896070352	-0.5457963362	-1.0048081186	 0.278532
C	 1.8102304094	-0.942716875	-1.7887094896	-0.446827
C	-0.014534538	-0.6269245134	 1.3582925618	-0.085336
C	-1.5054517206	-0.227977053	 1.5735564525	-0.079623
C	-1.8188757882	-1.6851012807	 1.8951737711	-0.189446
N	-0.7660467847	-1.8653197554	 0.8018965442	-0.159283
C	-1.3473955864	-0.624095593	 0.0742252176	-0.059397
H	 0.8880544933	 1.7453806293	-0.2452487367	 0.288073
H	 2.5209451605	-1.315700715	-2.4844484365	 0.199751
H	 0.7739175956	-0.7416772746	 2.1040857031	 0.085874
H	-1.9026080854	 0.7019460091	 1.9860616741	 0.082439
H	-1.5074008984	-2.081705171	 2.8669918221	 0.104011
H	-2.8028338112	-2.0777984174	 1.6186886837	 0.104853
H	-2.1212261789	-0.7304398955	-0.6870183514	 0.091109
