21
gdb 104870	2.124	1.58648	1.19107	1.7612	79.1	-0.237	0.0139	0.2509	1155.1013	0.18149	-424.231032	-424.221506	-424.220562	-424.265494	35.531	
C	-0.0855051175	 1.5530342136	-0.1591377034	-0.393738
C	 0.020133346	 0.0282984346	-0.0931515359	-0.203855
C	 0.8318899005	-0.6107082564	-1.2365351499	 0.295022
C	 0.7682207894	-2.149695423	-1.1238855947	-0.08378
O	 1.315981693	-2.788345353	-2.2535425578	-0.425821
O	 0.247281851	-0.2649564038	-2.5165799103	-0.320756
C	 1.16671247	 0.4919621064	-3.3058459025	-0.137404
C	 2.4336825155	 0.5300531492	-2.5001985588	-0.099803
C	 2.2445043604	-0.0902861735	-1.3436082049	-0.087648
H	 0.896647337	 2.0306679282	-0.0957032704	 0.11668
H	-0.5529887991	 1.8633834673	-1.0978094234	 0.128024
H	-0.698439984	 1.9327870806	 0.6636858014	 0.111315
H	 0.4722414373	-0.2794479752	 0.8590670305	 0.09551
H	-0.9857798523	-0.4075809469	-0.1136890441	 0.104314
H	 1.3426457918	-2.482538711	-0.2525738638	 0.104204
H	-0.2816182962	-2.4448348229	-0.9644006581	 0.086372
H	 0.8692073968	-2.3867524789	-3.0087751056	 0.285157
H	 1.3004617506	 0.0061285231	-4.2840175939	 0.1062
H	 0.7614723659	 1.4980382285	-3.496900628	 0.107644
H	 3.3425131669	 1.0043710419	-2.8480510607	 0.10807
H	 2.971322357	-0.2267096789	-0.5526410257	 0.104295
