20
gdb 94379	2.77499	1.53859	1.26756	2.0344	78.02	-0.2318	0.0664	0.2982	1066.5468	0.171642	-403.088847	-403.080813	-403.079868	-403.12112	32.107	
O	 0.5996013029	 0.7258958201	-0.7393253427	-0.427921
C	 0.1499163682	-0.3081797721	 0.1023104803	 0.092847
C	-0.0291998863	-0.0765751084	 1.6245196889	-0.271644
C	-1.2477251437	-1.0391970274	 1.5637414796	-0.303483
C	-1.3210559015	-0.7984501347	 0.0416034529	 0.338913
C	-2.4444077847	 0.1189214669	-0.5182177702	-0.334786
C	-2.7618981324	-1.0271641034	-1.4729144989	-0.017162
C	-1.5648579785	-1.4423675382	-2.2271653001	-0.251199
N	-1.7277969773	-1.941894817	-0.8416244185	-0.177258
H	 0.0908903111	 1.5180114248	-0.5355534937	 0.279661
H	 0.8151398265	-1.1573964105	-0.0866328382	 0.103206
H	 0.8044438334	-0.3293234521	 2.2821475899	 0.10681
H	-0.3393540323	 0.9537644675	 1.8318345683	 0.094564
H	-0.9670157283	-2.0750785129	 1.7713564594	 0.118591
H	-2.1300455159	-0.7846646005	 2.1546963722	 0.100327
H	-3.2296276515	 0.3069842278	 0.2171488946	 0.111196
H	-2.1592433684	 1.0685596605	-0.9840331741	 0.090748
H	-3.7576512326	-1.3833349066	-1.7163989857	 0.093089
H	-1.6852884904	-2.2261123903	-2.9685973597	 0.117445
H	-0.7767632782	-0.7238047137	-2.4368127544	 0.136056
