13
gdb 20506	9.37297	1.00313	0.91131	0.8481	72.29	-0.2349	-0.0172	0.2177	1212.2755	0.097142	-357.628527	-357.621144	-357.6202	-357.661748	25.155	
C	-0.0115634962	 1.4634021801	 0.0099003597	-0.508447
C	 0.0091459577	 0.0098509872	 0.0023085704	 0.188808
C	 0.0373239188	-1.195230041	-0.0040518713	-0.05013
C	 0.0311938004	-2.6088043567	-0.0112193565	 0.205624
N	 1.15220862	-3.3522972917	-0.0221470916	-0.276187
N	 0.688864527	-4.5911637897	-0.0255005095	-0.09908
N	-0.6294804998	-4.7449805677	-0.0178795135	-0.172515
C	-1.0737850679	-3.4917843475	-0.0086779085	-0.176235
H	 1.0055294306	 1.8696912467	 0.0023063376	 0.157183
H	-0.5353416902	 1.8578624104	-0.8679638443	 0.153587
H	-0.5185353354	 1.8488805157	 0.9015169867	 0.153592
H	 1.3115048632	-5.3830613437	-0.0334939916	 0.294802
H	-2.1276028682	-3.2671852422	-0.0008068175	 0.128998
