18
gdb 78405	2.55782	1.73064	1.43318	3.0196	75.69	-0.2287	-0.0354	0.1933	978.8334	0.147292	-401.882347	-401.874567	-401.873623	-401.914488	30.412	
C	-0.3731678325	 1.4526426705	 0.2809550889	-0.446922
C	 0.0200297586	 0.0190708967	-0.0017668991	 0.033636
C	 0.5872926204	-0.6531413718	-1.1915401401	-0.073387
C	 1.7478536034	 0.0212563485	-1.9425073094	-0.03835
C	 1.773085712	 1.5555828663	-2.1682336859	-0.380318
C	 2.4397214424	 1.6943145435	-0.7694612592	 0.386103
O	 2.8951479166	 2.6161814564	-0.1596898773	-0.295958
C	 2.4508664493	 0.1535217629	-0.5711696792	-0.087234
N	 1.3460610503	-0.6165430119	 0.1554533688	-0.176726
H	 0.2838789792	 2.2128754826	-0.1314367442	 0.149077
H	-1.3808245388	 1.6309232313	-0.1103240175	 0.124989
H	-0.4062789491	 1.6055715116	 1.3647140756	 0.136494
H	-0.6898359066	-0.6534423385	 0.4843425036	 0.10733
H	 0.1573842631	-1.5879020883	-1.5418717951	 0.098661
H	 2.175500672	-0.5973757533	-2.7287246451	 0.088677
H	 2.4716345862	 1.856117477	-2.9567650508	 0.136374
H	 0.8300657384	 2.081914979	-2.3284919551	 0.132774
H	 3.4200224351	-0.2843244126	-0.3281902788	 0.104778
