21
gdb 100694	2.95322	0.79531	0.65409	3.1218	84.28	-0.251	0.047	0.298	1742.5041	0.179417	-424.202868	-424.191508	-424.190564	-424.240442	39.798	
C	 0.1977477574	 1.4051589019	-0.0268395504	-0.500122
C	 0.1152946918	-0.0495177487	-0.0179153927	 0.083537
C	 0.0296373514	-1.2519451369	 0.0172100899	 0.024986
C	-0.0580876631	-2.7143599655	 0.0007595105	-0.166087
C	-1.5203554563	-3.1865910736	 0.1214734539	-0.400507
C	 0.6380510969	-3.2455265529	-1.2782366042	 0.108093
O	 1.9612115661	-2.7353200749	-1.3852447196	-0.453398
C	 0.8048756449	-4.7644514426	-1.3035361007	-0.054861
O	 1.5127353005	-5.1751333686	-2.4534833644	-0.42981
H	 1.1457059319	 1.7543926484	 0.3968108456	 0.150592
H	 0.1211066279	 1.8040100127	-1.0442371069	 0.149926
H	-0.6116821099	 1.8485376412	 0.5633129811	 0.152928
H	 0.510519841	-3.1010015437	 0.8581107158	 0.107545
H	-1.5761424065	-4.2740691064	 0.2172231033	 0.124084
H	-1.9920262717	-2.7438719316	 1.0020845982	 0.128015
H	-2.098900348	-2.8856269132	-0.7574091618	 0.127692
H	 0.0415404494	-2.9407793246	-2.1532853005	 0.076324
H	 1.9056307845	-1.773965098	-1.3241063834	 0.286117
H	 1.3178608051	-5.0779615725	-0.3780790828	 0.08551
H	-0.1698362268	-5.2591405643	-1.3359589916	 0.106853
H	 2.2726985232	-4.5832608261	-2.5135719793	 0.292581
