10
gdb 35165	2.67629	1.33545	1.01918	2.7749	62.9	-0.3517	-0.0875	0.2641	1080.4179	0.052479	-430.444462	-430.436498	-430.435554	-430.477527	27.102	
N	-0.1169227463	-1.152543177	 0.0140740817	-0.28992
C	-0.0391124927	-0.0004158155	 0.0163532681	 0.340839
C	 0.0160215089	 1.4428079506	-0.0086773034	-0.14446
O	 0.5307790113	 2.102728879	 1.1390250903	-0.213483
C	 1.3313583664	 2.1632300365	-0.0387632783	 0.142518
C	 2.5750587033	 1.4188835981	-0.0162554729	 0.294503
N	 3.5705189048	 0.8346435496	-0.0106648814	-0.294137
C	 1.3903053223	 3.4523016946	-0.7029373503	 0.271146
N	 1.4224551059	 4.4729604771	-1.2413641615	-0.290318
H	-0.8271271639	 1.934265377	-0.4900001823	 0.183312
