20
gdb 115001	2.44991	1.36371	1.11082	0.3475	74.71	-0.2498	0.0179	0.2676	1182.505	0.170363	-440.303081	-440.29377	-440.292826	-440.337623	34.9	
C	 0.0027864427	 1.5227311217	-0.2140750281	-0.418936
C	 0.0111224843	 0.0045496397	 0.0035155803	 0.247318
C	-1.4294448721	-0.525150088	 0.0582536433	-0.409274
N	 0.7048168393	-0.6439490841	-1.1393847862	-0.281458
C	 1.5876480393	-1.4018148945	-0.6458711543	 0.103816
O	 1.7516188846	-1.4689555701	 0.6984861447	-0.249157
C	 0.8271834728	-0.4819707178	 1.2525088593	 0.039535
C	 1.6735263395	 0.5285687461	 2.0179987918	-0.07686
O	 2.3913236833	-0.098570688	 3.0624738784	-0.423509
H	 1.0135018677	 1.9247518085	-0.3167140197	 0.121719
H	-0.5375705662	 1.7487863739	-1.1369719416	 0.129811
H	-0.498378069	 2.0408430937	 0.6098801226	 0.114523
H	-1.9497320039	-0.3021043436	-0.8770829671	 0.12834
H	-1.4402597144	-1.6096605382	 0.2031208894	 0.120619
H	-1.981398832	-0.0614566106	 0.8832908073	 0.113393
H	 2.2587619651	-2.0413149184	-1.2093750798	 0.140315
H	 0.1945700141	-1.0174693536	 1.9668682968	 0.097295
H	 2.3490898619	 1.0510415174	 1.3241318637	 0.096182
H	 1.0275616219	 1.2781641019	 2.4855117814	 0.115633
H	 2.897880851	-0.8112887659	 2.6562739877	 0.290696
