17
gdb 99562	2.27825	1.23588	0.948	2.9467	75.04	-0.2576	0.0065	0.2641	1269.8073	0.133298	-417.957315	-417.947071	-417.946127	-417.99281	35.897	
C	 0.1504142861	 1.4000360267	 0.1798823276	-0.248383
O	-0.1164126776	 0.0220548921	-0.0227467951	-0.230417
C	 0.5566907066	-0.547011068	-1.1135917458	-0.029842
C	 2.0117050358	-0.6515028308	-0.8543332102	 0.266004
N	 3.1432262764	-0.7533690808	-0.6416982213	-0.323802
C	-0.0415378189	-1.9746359983	-1.3410760309	-0.212838
N	 0.0305608326	-2.8449317815	-0.1730007362	-0.499382
C	-1.4229839134	-1.8368484839	-1.8051944982	 0.370061
C	-2.5489354643	-1.705040776	-2.2006001333	-0.438883
H	 1.2110623953	 1.577703337	 0.4021690404	 0.135048
H	-0.1346272743	 1.9934356866	-0.7003192218	 0.119833
H	-0.4528132749	 1.712229814	 1.0340211929	 0.142697
H	 0.4165323323	 0.0529344276	-2.026239125	 0.122219
H	 0.5512088545	-2.4374261549	-2.1402637487	 0.131699
H	 1.0034632173	-2.9938243709	 0.0812362585	 0.24535
H	-0.4190817447	-2.3816451483	 0.6113320812	 0.247859
H	-3.5481954189	-1.6046107206	-2.5464167243	 0.202778
