16
gdb 125240	2.9998	1.40317	0.96745	6.0863	75.39	-0.2598	-0.0759	0.1839	1174.6467	0.123023	-437.90945	-437.901143	-437.900198	-437.942298	30.867	
C	-0.0364181261	 1.5236692804	 0.0043867691	-0.497867
C	-0.0067555742	 0.0222346169	-0.013676777	 0.268957
C	-0.0215883577	-0.690605598	-1.1579858194	-0.32759
C	 0.00772084	-2.1421717817	-1.1505601875	 0.447117
O	-0.0020075642	-2.8667560536	-2.1094551633	-0.335548
O	 0.0517297304	-2.7305923471	 0.1098787797	-0.266141
N	 0.0675846275	-2.0178275347	 1.2938618082	-0.114343
C	 0.0401198427	-0.7262538592	 1.2355366449	 0.29565
C	 0.0601124601	-0.0303793766	 2.5692186777	-0.477974
H	 0.8484229408	 1.9308991027	 0.5060771481	 0.148106
H	-0.0707122588	 1.9249547781	-1.0104024308	 0.14176
H	-0.9097211902	 1.8956618315	 0.5515816089	 0.148093
H	-0.0558757492	-0.223980834	-2.1359239359	 0.132608
H	 0.0954696338	-0.7738906583	 3.3660204306	 0.158663
H	 0.9318300649	 0.6267954585	 2.6591074473	 0.139252
H	-0.8316966999	 0.5911716451	 2.7041350293	 0.139258
