17
gdb 41102	3.01839	1.94709	1.81609	1.8362	70.64	-0.2322	0.0486	0.2807	838.7145	0.137271	-421.712214	-421.705943	-421.704998	-421.742415	26.444	
C	 0.0217012593	 1.5379716429	 0.0804041379	-0.160948
O	 1.4756666092	 1.5482063056	-0.1802828796	-0.319403
C	 1.4783992822	 0.1411313655	-0.2675188124	 0.339665
C	 1.7447179116	-1.0485240317	 0.7073666534	 0.02151
C	 0.2863834735	-0.8902864709	 1.2391441623	-0.306918
C	-0.0165346763	-0.0034004825	-0.0077478243	 0.167847
C	-0.1840581732	-0.7289172646	-1.3783784061	-0.306918
C	 1.3644502893	-0.91808578	-1.4084312392	 0.021511
O	 1.7577899009	-1.9255415243	-0.4451426631	-0.293802
H	-0.2028100335	 1.9759087024	 1.0593233058	 0.113314
H	-0.5190615193	 2.0843852662	-0.7002909245	 0.113314
H	 2.5824901264	-1.2512038504	 1.3776102336	 0.084599
H	-0.2843129779	-1.8131122864	 1.3660202938	 0.112145
H	 0.2507989297	-0.3104856156	 2.1673462519	 0.108671
H	-0.7829228583	-1.6420812865	-1.4082380842	 0.112145
H	-0.5270452371	-0.0436726272	-2.1605507297	 0.108671
H	 1.9131228135	-1.0215982326	-2.3467336255	 0.084599
