14
gdb 9449	2.85767	1.80421	1.68132	2.5517	64.67	-0.2299	0.011	0.241	852.1563	0.1063	-378.692829	-378.684683	-378.683739	-378.725231	29.531	
N	-0.0338459545	 1.488419409	 0.1239661278	-0.550526
C	 0.0084371114	 0.0348759004	 0.0480251136	-0.029223
C	-1.4048501485	-0.6486969308	-0.0496355544	-0.179753
N	-0.9814247311	-1.2099756179	-1.3334748358	-0.32223
C	 0.2517402911	-0.6164446481	-1.38098342	 0.370026
O	 1.1217762424	-0.5745343467	-2.2051980447	-0.352711
C	 0.8768784858	-0.5168134322	 1.0714118393	 0.343228
C	 1.6148859172	-0.984634833	 1.8962460402	-0.473141
H	 0.9153748596	 1.8477886357	 0.1634779743	 0.248485
H	-0.4506245691	 1.8639393461	-0.7245015999	 0.236376
H	-1.6208167413	-1.3889655958	 0.7239755362	 0.129331
H	-2.2196308931	 0.0787324874	-0.1174399204	 0.119315
H	-1.47646234	-1.7625121245	-2.0171513976	 0.255915
H	 2.2675514301	-1.3955877597	 2.6265033814	 0.204909
