19
gdb 67046	2.11709	2.01342	1.60045	1.0976	73.78	-0.2205	0.0637	0.2842	957.5762	0.159306	-422.993234	-422.985273	-422.984329	-423.025029	31.887	
C	 0.0517227923	 1.5267544742	 0.0191493758	-0.489335
C	 0.0165749863	 0.0147049982	 0.0300719858	 0.205199
C	 0.2355181745	-0.7467760697	-1.3248715743	-0.264821
C	-0.9677942018	-1.6267817956	-0.9942249609	-0.152841
C	-0.8538893598	-2.0685031738	 0.4704589022	 0.015513
O	 0.4157072635	-2.0535556101	 1.0876903723	-0.26951
C	 0.8337206276	-0.6809847597	 1.1238769909	-0.117624
C	-1.3689592842	-0.7145087799	 0.1552480724	 0.307227
O	-2.5901657343	-0.1455843646	 0.4506863776	-0.462238
H	 1.0564260858	 1.897720426	-0.212489989	 0.117743
H	-0.6377019822	 1.9284880195	-0.729308574	 0.128995
H	-0.240877514	 1.9377769371	 0.9919186853	 0.113515
H	 0.0455263882	-0.0999342878	-2.1852659011	 0.102313
H	 1.2014711159	-1.2471560041	-1.4500708141	 0.099615
H	-1.5935772575	-2.1717793338	-1.6917492685	 0.088721
H	-1.5054164668	-2.8644589615	 0.8113460722	 0.103271
H	 1.9147897741	-0.6503586408	 0.9509868165	 0.106154
H	 0.6234042805	-0.241769779	 2.1139249218	 0.079537
H	-2.7245939181	-0.1811885545	 1.404305619	 0.288567
