16
gdb 28730	3.62805	1.07	0.9496	1.0424	75.52	-0.1829	0.0315	0.2144	1254.723	0.125407	-434.088177	-434.079558	-434.078613	-434.122198	31.546	
N	-0.2097572709	 1.3426550707	 0.6087860561	-0.598515
C	-0.1580032924	 0.0141719746	 0.2099998236	 0.384526
C	-1.0087501448	-0.7882185665	-0.4951327197	-0.261792
C	-0.4041282219	-2.088758729	-0.4857425182	-0.208687
C	 0.7507301445	-1.9882634753	 0.2137505384	 0.398119
N	 1.7423496655	-2.8978124245	 0.5553112542	-0.407793
C	 2.9768115236	-2.9560274887	-0.0632387631	 0.06152
N	 3.2812962732	-2.2476493534	-1.0732089449	-0.440742
O	 0.9072459397	-0.6816582403	 0.6579106186	-0.19345
H	 0.7111924044	 1.7553595671	 0.6907889924	 0.25751
H	-0.7984048314	 1.9042723862	 0.0089998422	 0.254882
H	-1.9329593491	-0.4936929277	-0.9651716445	 0.094338
H	-0.7751452745	-2.9858251891	-0.9559127602	 0.106035
H	 1.6616258532	-3.3880267542	 1.4330302966	 0.249188
H	 3.6284008886	-3.6937449687	 0.4233138013	 0.084908
H	 4.2237128524	-2.4711591812	-1.3844886527	 0.219953
