21
gdb 12070	3.46697	1.60767	1.43409	1.6966	77.37	-0.228	0.0803	0.3083	997.573	0.188709	-329.086108	-329.077803	-329.076859	-329.118364	32.336	
C	 0.0983391583	 1.5391386154	-0.126724975	-0.388185
C	 0.0075516281	 0.0302695922	 0.133296041	-0.23843
C	-1.4118272915	-0.546985169	 0.0478582355	 0.340484
C	-2.3295343812	 0.0160958503	 1.1370838251	-0.452546
C	-2.1187986343	-0.5588675192	-1.3452537599	-0.216237
N	-2.3626992524	-2.0454159573	-1.2878800619	-0.12746
C	-1.0219687416	-2.6557734274	-1.271972558	-0.253403
C	-1.5312023953	-2.0789883247	-0.0139047305	-0.068797
H	 1.1410067196	 1.8711584118	-0.1229087129	 0.114353
H	-0.3273301302	 1.8005210917	-1.1021115015	 0.117222
H	-0.4331515355	 2.1196403613	 0.63305791	 0.119549
H	 0.6503006153	-0.4898196755	-0.5860014858	 0.092211
H	 0.4202420496	-0.1966242109	 1.1258527927	 0.093504
H	-2.4723445982	 1.0953182	 1.0252225257	 0.116859
H	-3.3162246368	-0.4559547844	 1.096279971	 0.125154
H	-1.9110781021	-0.165860775	 2.1341141301	 0.110948
H	-3.0670000681	-0.0172422411	-1.3695958313	 0.10649
H	-1.5142132507	-0.2551919559	-2.2076348372	 0.095487
H	-1.0481620114	-3.7372409832	-1.3691637642	 0.118691
H	-0.2157939007	-2.1747459216	-1.8219531992	 0.10825
H	-1.8190513109	-2.7029102876	 0.8285614463	 0.085855
