21
gdb 40012	3.47225	1.33701	1.12393	0.3336	89.21	-0.2173	0.0237	0.241	1156.8773	0.185004	-349.944105	-349.93645	-349.935506	-349.976071	31.68	
C	-0.1402448035	 1.5109033845	 0.0226025098	-0.316547
C	 1.2615860998	 0.9715658013	-0.0435371748	-0.297839
C	 0.0765561594	 0.0149163109	-0.0025012016	 0.357886
C	-0.2115068744	-0.7607465443	 1.2808150215	-0.318711
C	 0.1856467425	-2.2369548923	 1.2012637667	-0.033158
C	-0.8737598154	-3.2782747452	 0.9244493257	-0.288351
C	 0.1270286186	-2.9047158539	-0.1516843505	-0.062253
C	-0.2504954525	-2.0617977647	-1.3125811863	-0.093827
C	-0.2460115578	-0.7279358021	-1.2497625015	-0.130677
H	-0.4759944075	 1.9527338514	 0.9555939723	 0.108311
H	-0.5524150888	 1.9819679413	-0.8642342565	 0.109979
H	 1.805886453	 1.0668285859	-0.9767338452	 0.112055
H	 1.8830279781	 1.038729136	 0.8435742586	 0.110596
H	 0.2981890222	-0.2832318307	 2.1244374709	 0.093206
H	-1.2856910004	-0.6835086166	 1.4911053651	 0.101759
H	 0.9986531864	-2.5392656017	 1.8530428487	 0.081398
H	-0.7806961082	-4.2539045023	 1.3898626262	 0.105331
H	-1.8947588283	-2.9295919236	 0.8038690273	 0.10962
H	 0.8813357848	-3.658730671	-0.3640438122	 0.086152
H	-0.5004174285	-2.563898453	-2.2440497747	 0.083335
H	-0.4807335295	-0.1378745998	-2.1331794996	 0.081736
