19
gdb 3180	4.64233	1.96189	1.78797	0.038	71.21	-0.2431	0.0878	0.3309	814.0872	0.171599	-273.759553	-273.752083	-273.751139	-273.790974	28.88	
C	 0.0718705614	 1.5554282532	 0.0094554865	-0.482277
C	 0.0095136575	 0.0395549639	 0.0021102359	 0.388736
C	 1.090570496	-0.6903759854	-0.7653995012	-0.301806
C	 1.1021791892	-0.6980755698	 0.7454324949	-0.301837
C	-1.352294847	-0.6057643277	 0.0092318344	-0.031063
C	-2.5278861289	-0.0502090516	 0.7757833482	-0.278107
C	-2.5389286513	-0.0434452139	-0.7350634023	-0.278108
H	 1.1121499067	 1.894121077	 0.0026090514	 0.113233
H	-0.4171085196	 1.988014144	-0.8703750738	 0.117577
H	-0.4024739992	 1.9787680732	 0.9017025404	 0.117589
H	 0.8218864659	-1.6078150648	-1.2785997804	 0.107052
H	 1.8412042792	-0.0997502087	-1.2803004753	 0.105256
H	 1.8606720483	-0.1126502783	 1.2547283119	 0.105258
H	 0.8413870066	-1.6207218786	 1.2533402118	 0.107052
H	-1.2910606931	-1.6917247296	 0.0039029896	 0.074004
H	-3.174818982	-0.7483408984	 1.2957737066	 0.107735
H	-2.4130100898	 0.9020944824	 1.2811380304	 0.110985
H	-2.4314027906	 0.9133459895	-1.2335179595	 0.110987
H	-3.1934183393	-0.7369579165	-1.2517673693	 0.107737
