22
gdb 120067	5.47005	0.81015	0.80439	1.7313	87.08	-0.228	0.0774	0.3054	1549.5996	0.194675	-367.116849	-367.108385	-367.107441	-367.150462	32.642	
C	-0.0670644347	 1.5959315659	 0.1133508573	-0.380378
C	-0.095305896	 0.0743031439	-0.0509983197	-0.158925
C	 0.8639312694	-0.4326285265	-1.136648823	-0.216825
C	 0.8567431552	-1.9467055333	-1.280839782	 0.007175
C	-0.2912347303	-2.6502445657	-2.0243323836	-0.011549
C	 0.2577406483	-2.3216326477	-3.4482112777	-0.072463
C	 0.1969868311	-3.8037192727	-3.793035962	-0.184845
N	 0.6092121961	-3.8809925505	-2.3259533659	-0.165881
C	 1.4791051834	-2.6072347513	-2.5192420462	-0.032027
H	 0.9354433867	 1.9458446523	 0.3840074096	 0.114197
H	-0.3518192089	 2.1008196314	-0.8165732041	 0.113417
H	-0.757287074	 1.9264505322	 0.8957724875	 0.112065
H	 0.1579390344	-0.4033770914	 0.9045947732	 0.097742
H	-1.1165814328	-0.2501904962	-0.2892620528	 0.097569
H	 0.607987772	 0.036231624	-2.0963925931	 0.092036
H	 1.8843370741	-0.1008254942	-0.8996527451	 0.094945
H	 1.129438267	-2.4485849817	-0.3441582223	 0.07774
H	-1.3341716829	-2.797298816	-1.7348883917	 0.077618
H	 0.0640111868	-1.4396422922	-4.0672905137	 0.065188
H	-0.7829575543	-4.2498818088	-3.9941764846	 0.098131
H	 0.9494132939	-4.2081941897	-4.4786381128	 0.098146
H	 2.5276220054	-2.6996589818	-2.8121439473	 0.076923
