22
gdb 77012	2.91348	0.98642	0.92966	1.3868	89.08	-0.2161	0.0536	0.2697	1412.1315	0.190123	-367.153543	-367.142603	-367.141659	-367.189462	40.066	
C	 0.5657005322	 0.8275401442	-1.9570164086	-0.320681
N	 0.4610235338	-0.2357999415	-0.9705879965	-0.12245
C	 1.5718225483	-0.5407115384	-0.0695134442	-0.036265
C	 2.9002392182	 0.2118870615	-0.0816739808	-0.395124
C	 3.7904479442	-0.2506669405	-1.1433919293	 0.308981
C	 4.5092349818	-0.6485891916	-2.0206658667	-0.44532
C	 0.2960961353	 0.0434741445	 0.4636148206	 0.293336
C	 0.2382863973	 1.4653424372	 0.9956447233	-0.456477
C	-0.6861471754	-0.8875332062	 1.1531221706	-0.434214
H	 1.0988473865	 1.7347262753	-1.6376339059	 0.096014
H	 1.0803570793	 0.434330149	-2.8388054763	 0.134751
H	-0.4435908088	 1.125569582	-2.259038198	 0.12086
H	 1.723576627	-1.6122242553	 0.0653559191	 0.089593
H	 2.7541110786	 1.2913044314	-0.1782099708	 0.128941
H	 3.388200014	 0.06079831	 0.8905464048	 0.134695
H	 5.1478346984	-0.9938417764	-2.7953489009	 0.195546
H	 0.9408441232	 2.1482034219	 0.5165362919	 0.117135
H	-0.7680259794	 1.8780383426	 0.8590124765	 0.120852
H	 0.4491352816	 1.4740973575	 2.0706483118	 0.121751
H	-0.4702619364	-0.964720703	 2.2250935409	 0.108992
H	-1.7123310002	-0.5171736855	 1.0444991514	 0.113435
H	-0.6408155896	-1.8862349687	 0.7130660568	 0.125651
