19
gdb 18528	5.46314	1.11846	1.05724	1.5102	72.25	-0.2267	0.0831	0.3098	1176.6202	0.165672	-364.999738	-364.991629	-364.990685	-365.032765	29.72	
C	 0.0818757141	 1.3809808006	-0.017783221	-0.222405
O	 0.133687571	-0.0238542704	-0.026935582	-0.236337
C	 0.5746102438	-0.5645953919	 1.2035587273	-0.06691
C	 0.6432650627	-2.0713897071	 1.0594005902	 0.002517
C	 1.746818854	-2.6864227558	 0.121139864	-0.229767
C	 2.2772253762	-3.4680371228	 1.3273383357	-0.040133
N	 2.6736656326	-2.4519653799	 2.3335978269	-0.331113
C	 1.25112053	-2.8689462881	 2.2235781313	-0.077896
H	 1.0695913879	 1.8268761779	 0.1813055843	 0.102746
H	-0.2588935411	 1.7048806861	-1.0046588193	 0.122536
H	-0.6209874976	 1.760764852	 0.7417219125	 0.099098
H	 1.5653244962	-0.1686299633	 1.472071741	 0.106453
H	-0.1232279177	-0.2891949465	 2.0151836804	 0.074727
H	-0.3427822416	-2.4593495736	 0.7894642167	 0.08015
H	 1.3220556056	-3.3183126303	-0.6608810621	 0.102949
H	 2.4516252735	-1.97883518	-0.321422207	 0.108859
H	 2.7181230964	-4.4572241308	 1.341833706	 0.090733
H	 3.0643144154	-2.9561003868	 3.1294795834	 0.226121
H	 0.7340946287	-3.2890711894	 3.0781637917	 0.087673
