14
gdb 42607	2.65422	2.16658	1.48293	5.8122	66.98	-0.248	-0.0254	0.2226	858.9988	0.10298	-432.844362	-432.837937	-432.836993	-432.875193	25.657	
N	-0.133109966	 1.2672574944	 0.2426306133	-0.510264
C	-0.0233143722	 0.0474255243	-0.052993499	 0.366346
N	 1.1404548772	-0.7557292037	-0.2034710696	-0.339595
C	 0.7121834259	-2.095332381	-0.4836769895	-0.016613
C	-0.6627872629	-2.0227153012	-0.9744605228	-0.03894
C	-0.4611524888	-2.7762711286	 0.3414363638	-0.254569
C	-1.2210715142	-1.6827315338	 0.9962381809	 0.427153
O	-1.7422222221	-1.4701036636	 2.0414349571	-0.296229
N	-1.1674155773	-0.8251685517	-0.2352999963	-0.197704
H	 0.7818813252	 1.698041815	 0.3789032034	 0.221002
H	 1.8630859618	-0.6133204573	 0.4892350232	 0.253261
H	 1.4413790461	-2.7807935158	-0.8981500161	 0.132059
H	-1.1062466938	-2.3409152617	-1.9068788063	 0.131349
H	-0.4521518489	-3.8364569956	 0.5586655279	 0.122744
