17
gdb 124276	4.32463	1.0258	0.83772	4.6487	78.18	-0.2385	-0.033	0.2056	1356.4127	0.135877	-418.065416	-418.056361	-418.055417	-418.100111	31.868	
C	-0.0864711077	 1.5083913299	-0.0014213275	-0.479165
C	 0.0336530877	-0.0020252108	 0.0297270006	 0.315247
O	 1.1074446974	-0.5698273941	 0.0621189995	-0.315512
C	-1.2222659415	-0.7859340568	 0.0193456794	 0.250776
N	-2.4215310093	-0.1962660035	-0.0157538842	-0.285812
N	-3.2875530863	-1.2174354016	-0.0139168839	-0.246219
C	-2.6940424334	-2.4480480527	 0.0210556469	 0.392952
C	-3.4795657123	-3.7179713824	 0.0289410121	-0.504217
C	-1.3409036142	-2.1971948432	 0.0436889624	-0.378929
H	 0.9113898324	 1.9478316838	 0.0101178302	 0.130851
H	-0.6310502548	 1.8281170723	-0.8952188145	 0.144617
H	-0.6659536618	 1.8614430247	 0.8571988634	 0.144624
H	-4.274591165	-1.0170807034	-0.0372395432	 0.273363
H	-4.1037474931	-3.8166254317	-0.8665077481	 0.139812
H	-2.8017139095	-4.5729243921	 0.0585940336	 0.151123
H	-4.1394168437	-3.7835973374	 0.9015551061	 0.1398
H	-0.5367006151	-2.912901791	 0.073358467	 0.126691
