11
gdb 131410	3.16809	1.55156	1.0415	3.5723	57.13	-0.2686	-0.0821	0.1866	1012.9694	0.064757	-525.809025	-525.801735	-525.800791	-525.841734	26.21	
O	-0.0464158282	 1.2990236733	-0.2436053378	-0.370437
C	 0.0929462825	-0.0113032195	-0.0672331892	 0.538915
N	 1.2115242643	-0.5116525825	 0.2879009438	-0.25821
O	 1.2412982536	-1.9182218135	 0.4448680903	-0.267089
C	 0.1352581986	-2.6874778567	 0.2281938747	 0.294528
N	 0.1478915569	-3.9413669432	 0.3648957976	-0.460465
C	-1.1466128285	-2.0146330329	-0.1893566066	 0.389083
O	-2.1758230116	-2.5575285332	-0.409963448	-0.248509
O	-1.07325078	-0.6338775054	-0.316215633	-0.198744
H	 0.8089250958	 1.7116560216	-0.0563242775	 0.332147
H	 1.0749237665	-4.2659379281	 0.6496598858	 0.248781
