19
gdb 35804	2.9946	1.41616	1.12564	1.4913	80.07	-0.2464	0.0519	0.2983	1112.7681	0.160407	-385.854576	-385.846675	-385.845731	-385.887006	31.023	
C	-0.5007315895	-1.1427338338	-0.6856803628	-0.450388
C	-0.287703531	-0.0138091566	-0.3300612729	 0.308509
C	-0.0162675428	 1.3453570395	 0.1137411524	-0.177227
C	-0.4405031374	 1.6430082417	 1.5796036127	-0.221193
C	 0.3354482343	 2.9250866804	 1.9254117928	-0.234608
C	 1.6893401705	 2.7303910469	 1.2478571659	 0.128685
O	 2.5176549921	 1.7632930568	 1.93626093	-0.299094
C	 2.4628922898	 0.8468447961	 0.8200790165	-0.082844
C	 1.4787307636	 1.7528401129	 0.0582952131	-0.077181
H	-0.6965225688	-2.1366990719	-1.0037846931	 0.193967
H	-0.5637491111	 2.0383890748	-0.5397547884	 0.104266
H	-1.5235033024	 1.7428485139	 1.6798435467	 0.106297
H	-0.1210645934	 0.8219891083	 2.2277127002	 0.125775
H	-0.1593384783	 3.8060867559	 1.4968589322	 0.096698
H	 0.44246492	 3.0901271408	 3.000970375	 0.112474
H	 2.2347155339	 3.6624446078	 1.0632678681	 0.070213
H	 3.4435618245	 0.7328794784	 0.3416509578	 0.099742
H	 2.0881341203	-0.141924237	 1.10822423	 0.112748
H	 1.7913582057	 2.0629726851	-0.9383534961	 0.083163
