22
gdb 88450	3.08639	1.1068	1.00787	1.293	82.59	-0.2266	0.0727	0.2993	1302.86	0.191871	-404.294043	-404.283965	-404.283021	-404.328835	37.952	
C	 0.8147923838	 1.2781688659	-0.5521132933	-0.314588
N	 0.6774198288	-0.1279624343	-0.2052404342	-0.104826
C	 1.8820251415	-0.8725670304	 0.1284279987	-0.316293
C	 0.8480851549	-0.5827257293	 1.1795191226	 0.299258
C	 1.2055787682	 0.3935946824	 2.291622577	-0.461571
C	-0.1534605829	-1.6139260898	 1.633221945	-0.09558
C	-0.1573952355	-3.0463159189	 1.1294159685	-0.350276
C	 0.2765549656	-2.7443724784	 2.5361756061	 0.13508
O	 1.6077377814	-2.8866656208	 2.951346487	-0.425506
H	 1.6576681632	 1.7939548774	-0.0673660267	 0.100124
H	 0.9550993859	 1.3556263577	-1.6352038569	 0.124922
H	-0.1074508138	 1.808676556	-0.2939533103	 0.122902
H	 1.9837648025	-1.8491208257	-0.3396139863	 0.110415
H	 2.8187000581	-0.3189313635	 0.2090939816	 0.101416
H	 1.94226645	 1.1384868076	 1.9838826991	 0.113885
H	 0.3125349588	 0.9226694614	 2.6442028606	 0.11801
H	 1.6174691852	-0.1627962926	 3.1385816584	 0.140261
H	-1.1297415606	-1.1811046954	 1.8428968023	 0.085769
H	-1.112070243	-3.5329998686	 0.9611228606	 0.113588
H	 0.6129845917	-3.3401206985	 0.4237904667	 0.109666
H	-0.3788974963	-3.0297574464	 3.3520727004	 0.104755
H	 2.1820247727	-2.637623976	 2.2203032231	 0.288587
