14
gdb 6620	9.55961	0.64175	0.60591	4.1715	89.78	-0.2485	-0.0683	0.1802	1786.8499	0.103729	-345.383555	-345.375042	-345.374098	-345.417569	28.597	
C	-0.0321233166	 1.4666726323	-0.055891275	-0.51945
C	-0.0080056583	 0.0167643305	-0.05570435	 0.25495
C	 0.0153984034	-1.1941530182	-0.0559284118	-0.182209
C	 0.0429280951	-2.5495266264	-0.0563524269	-0.280056
C	 0.0649430482	-3.7637795194	-0.0563968139	 0.353435
C	 0.103666986	-5.2121873986	-0.0580270692	 0.18635
C	-1.23559038	-5.8997489285	 0.1130346604	-0.478363
O	 1.1473043545	-5.8175716943	-0.1887519869	-0.268519
H	 0.5780009645	 1.8676720983	 0.7611695909	 0.165679
H	 0.3674965394	 1.8640479418	-0.9955869766	 0.165666
H	-1.0516988066	 1.8485359108	 0.0655326783	 0.162484
H	-1.6975613287	-5.594714559	 1.0581883455	 0.148048
H	-1.9186486348	-5.5986555808	-0.6885592157	 0.148048
H	-1.093843476	-6.9814148283	 0.0975342808	 0.143938
