16
gdb 36458	3.72674	1.00165	0.86218	4.9208	69.56	-0.2744	0.0251	0.2995	1297.8425	0.123205	-437.849191	-437.840854	-437.839909	-437.883045	29.834	
N	-0.0034571445	-1.1507218065	-0.3803248547	-0.296909
C	 0.0056869432	-0.0337866467	-0.086090111	 0.271192
C	 0.0264684	 1.3763345018	 0.2969327431	-0.364685
C	 1.3549374128	 2.0570540976	-0.0428555927	 0.057649
O	 1.5664667693	 2.1819547499	-1.4642461104	-0.287754
C	 1.7915968648	 3.6101344703	-1.3814967693	-0.151236
C	 1.435171659	 3.5785286804	 0.1006246393	 0.350923
C	 0.7102533676	 4.5196513332	 0.952067964	-0.257908
O	 2.1151500871	 4.2609161559	 1.1220513677	-0.250584
H	-0.791995747	 1.8979157077	-0.2100491284	 0.155517
H	-0.1490680855	 1.4481969152	 1.3770540059	 0.157296
H	 2.1875811849	 1.5350694578	 0.4462384688	 0.11414
H	 2.8352110117	 3.8799291743	-1.5826010076	 0.126352
H	 1.1277806204	 4.1721924155	-2.0472979832	 0.12026
H	 0.4607459401	 5.5080832215	 0.569495031	 0.129888
H	 0.0710250962	 4.1560688321	 1.7552222174	 0.12586
