15
gdb 5483	3.2898	2.04961	1.27286	2.7373	70.85	-0.2203	-0.036	0.1843	911.5122	0.119929	-362.726041	-362.718893	-362.717949	-362.757332	26.544	
C	-0.0286681941	 1.5064325497	 0.0482385037	-0.502355
C	-0.0105225662	 0.0152372752	-0.0388434838	 0.322503
C	-0.0283136258	-0.7992072886	-1.1339860697	-0.239741
C	 0.0022186604	-2.1643867548	-0.6860649059	-0.164567
C	 0.0377143169	-2.1512818238	 0.6731180203	-0.075431
N	 0.0304993173	-0.8201650459	 1.0878961854	-0.097157
C	 0.0597000492	-0.4199103816	 2.4172543702	 0.170969
O	 0.0943971694	-1.1805280972	 3.3506372498	-0.295625
H	 0.8624758026	 1.9124742356	 0.5415411006	 0.136851
H	-0.0596821642	 1.9187688698	-0.9628370516	 0.140592
H	-0.9046851514	 1.8883614962	 0.5859295893	 0.136866
H	-0.0598882093	-0.4600066066	-2.1587985984	 0.104939
H	-0.0020966405	-3.0449693481	-1.3099654528	 0.110538
H	 0.0678264114	-2.9321638204	 1.4132296423	 0.150728
H	 0.0473612743	 0.6772554006	 2.5251844305	 0.10089
