18
gdb 34038	3.12843	1.30046	1.13226	3.9565	76.11	-0.268	0.027	0.295	1114.2292	0.150002	-401.955174	-401.947466	-401.946522	-401.987333	29.919	
N	 0.0390950688	-1.1288383991	 0.0329347421	-0.346645
C	 0.0201371013	 0.0277902016	 0.0031008104	 0.223866
C	-0.016259201	 1.4678208937	-0.0283013857	 0.183147
C	 0.4836169349	 2.1313913197	-1.3003089777	-0.320818
C	 1.3284245004	 2.1960663775	-0.0597548799	-0.085794
C	 1.4548006764	 3.4970424229	 0.7364962023	-0.101516
O	 0.4234061366	 3.7008202276	 1.6841284375	-0.23254
C	-0.8609255739	 3.5632339866	 1.1111888325	-0.10518
C	-1.151548688	 2.0963833883	 0.7786934432	-0.279178
H	 0.8006791934	 1.4852059573	-2.1100370274	 0.139336
H	-0.0309569565	 3.0333862108	-1.6173485285	 0.125694
H	 2.2068667134	 1.5609007425	-0.0468744931	 0.119535
H	 2.384883224	 3.48781768	 1.3099213733	 0.123033
H	 1.4969041237	 4.3533599102	 0.0426889237	 0.097162
H	-1.5778344046	 3.9252972568	 1.8527434533	 0.120184
H	-0.956109138	 4.2033136383	 0.2178039797	 0.091794
H	-2.1013280002	 2.0050193272	 0.2398449983	 0.116177
H	-1.2530532008	 1.5451413282	 1.718616846	 0.131742
