17
gdb 91694	3.00026	1.26387	1.08808	3.9699	68.74	-0.2407	-0.023	0.2177	1129.1124	0.135823	-458.939217	-458.931366	-458.930422	-458.97182	29.79	
O	 0.0047376982	 1.3988531652	-0.0598567632	-0.433694
C	 0.0340009276	-0.0100637547	 0.037931108	 0.11456
C	 0.4232380101	-0.5770000206	 1.4447745885	-0.26518
C	-0.9276566253	-1.2449656319	 1.7588858388	 0.054704
O	-1.2256001268	-1.9174234387	 0.4916406972	-0.30161
C	-1.4092448014	-0.559205046	-0.0003909753	 0.044865
C	-1.9776025612	-0.153665022	 1.3886418435	-0.087067
C	-3.3994005868	-0.5851855904	 1.6118221802	 0.143622
O	-4.2336082333	 0.1095487736	 2.1373418252	-0.262267
H	 0.9097605834	 1.7232852562	-0.0844987518	 0.292058
H	 0.6302885812	-0.4574271332	-0.7663831414	 0.083765
H	 1.2275764321	-1.3145831009	 1.4057733256	 0.113634
H	 0.6898725362	 0.221397402	 2.1420241805	 0.109973
H	-1.022569021	-1.8823425258	 2.6378158322	 0.093756
H	-1.9738478727	-0.4795634535	-0.9284750348	 0.09588
H	-1.817756535	 0.8681203468	 1.7328071193	 0.107645
H	-3.6358898855	-1.6101220261	 1.2565193171	 0.095356
