19
gdb 103120	2.49729	1.04643	0.92035	1.896	74.12	-0.243	-0.0215	0.2215	1336.9195	0.155945	-460.146723	-460.136453	-460.135509	-460.18205	36.822	
C	-0.0273370365	 1.6415956284	-0.0837009311	-0.481851
C	-0.0178314196	 0.1260656425	-0.0219483229	 0.254738
C	-1.2917997012	-0.5360108604	-0.5335856278	-0.126817
O	-1.5482879361	-0.2717756562	-1.9024332267	-0.41456
C	 1.2539974041	-0.6105698588	-0.2300412166	 0.055079
O	 2.3953090482	 0.1491515161	-0.4781855181	-0.415918
C	 0.6255404442	-0.6088642388	 1.1753231652	-0.213561
C	 1.2687927109	 0.1214507692	 2.2869932448	 0.149626
O	 1.1965655205	-0.2248489674	 3.4440284616	-0.278055
H	 0.94259863	 2.0722737833	 0.1630699527	 0.148396
H	-0.2647867688	 1.9630868541	-1.103683521	 0.118748
H	-0.7808525754	 2.0592130668	 0.5928728205	 0.122186
H	-1.2015750451	-1.6242118535	-0.4513254739	 0.109747
H	-2.1386097771	-0.2318753657	 0.1010940014	 0.098698
H	-1.8862248141	 0.624950504	-1.9803147901	 0.289656
H	 1.2073507376	-1.5591245242	-0.7647566142	 0.105172
H	 3.1636031786	-0.3467444651	-0.1758864692	 0.297684
H	 0.1360962406	-1.5230929154	 1.4982874937	 0.100104
H	 1.8502987392	 1.0213187812	 1.9993790518	 0.080928
