21
gdb 96257	2.36215	1.54222	1.04421	0.8935	80.	-0.2349	-0.0056	0.2293	1195.619	0.183363	-424.206654	-424.198011	-424.197067	-424.23957	33.691	
C	 0.0501103305	 1.5637071351	 0.0787352069	-0.400804
C	 0.0104068103	 0.0370099087	 0.0512778934	 0.105277
C	 0.5762440447	-0.497152933	-1.2875909321	-0.073667
O	-0.0838272056	-1.6116521933	-1.8692630779	-0.260056
C	-0.2528116397	-2.7745183348	-1.0608179557	-0.108514
C	 1.003630879	-3.2100271456	-0.3548336147	-0.074817
C	 1.3730154059	-2.7336535704	 0.8346693882	-0.053132
C	 0.58140979	-1.7184521509	 1.6344856219	-0.125227
O	 0.7594803831	-0.3779252108	 1.1929984188	-0.256717
H	 1.0725823982	 1.9217138499	-0.0815347003	 0.125656
H	-0.5898373585	 1.9802673574	-0.7042928733	 0.117089
H	-0.2904967397	 1.9320288623	 1.0491405292	 0.123382
H	-1.034396182	-0.2986827206	 0.1519511149	 0.074523
H	 0.482385014	 0.2801088202	-2.0517938694	 0.103606
H	 1.6468465281	-0.6913180716	-1.1366470818	 0.10241
H	-1.0584785298	-2.6114351686	-0.330900027	 0.091864
H	-0.5973932441	-3.5462362908	-1.7548375846	 0.109346
H	 1.6632108459	-3.8883450267	-0.8907967418	 0.095965
H	 2.3267620504	-3.0403588284	 1.2578636959	 0.096771
H	-0.4889976055	-1.9725165987	 1.6399688085	 0.099118
H	 0.9204916647	-1.7240371494	 2.6743608608	 0.107928
