16
gdb 55213	2.82134	1.6261	1.03815	3.5488	74.07	-0.2409	-0.0393	0.2016	1084.3974	0.12639	-434.141174	-434.133237	-434.132293	-434.173905	30.005	
N	 0.0028945159	 1.3274041916	 0.0062763428	-0.566418
C	 0.0519990428	-0.0228565385	 0.0026097854	 0.476166
O	 1.0650799551	-0.6990884503	-0.0084144519	-0.412753
N	-1.2091282218	-0.6583694836	 0.0129164506	-0.165695
C	-1.2595262541	-2.1150410776	 0.0091450401	-0.204863
C	-2.732288258	-2.3890428395	 0.0192512311	-0.096799
C	-3.4196246079	-1.2448930406	 0.0274593187	-0.15631
C	-2.4865105681	-0.1009138559	 0.0234523117	 0.410622
N	-2.7191329476	 1.1606122689	 0.0283563284	-0.59063
H	 0.8815760245	 1.8136367125	-0.000902707	 0.259354
H	-0.8953918723	 1.8032353006	 0.0154648588	 0.287195
H	-0.7557356861	-2.5269616251	-0.8740169335	 0.147316
H	-0.7429899529	-2.5320431085	 0.882532645	 0.147222
H	-3.1369834322	-3.3924697391	 0.0197025192	 0.126041
H	-4.4935403448	-1.1157319888	 0.0358087208	 0.117095
H	-3.7188423927	 1.3432532342	 0.0359321599	 0.222458
