13
gdb 21597	3.5561	2.27867	1.39022	5.1367	66.25	-0.2014	-0.0318	0.1697	812.6527	0.098675	-394.809674	-394.803179	-394.802235	-394.840024	25.27	
N	 0.0145537467	 1.3943363421	 0.1334324464	-0.582904
C	-0.0572811292	 0.0279520543	 0.0457206889	 0.199028
C	-1.1975804991	-0.7246844769	 0.0243303192	-0.082944
N	-1.1176968778	-2.0902572177	-0.0127147019	-0.200601
N	 0.0051030351	-2.7943473456	-0.0310436945	-0.186561
C	 1.1235985144	-2.110208448	-0.0171268857	-0.090472
C	 1.2351707398	-0.6659268964	 0.0145038929	 0.313782
O	 2.2970371923	-0.0371582683	 0.0046459631	-0.421829
H	 0.9516799777	 1.7253407744	-0.0656818956	 0.26909
H	-0.737292467	 1.9473690764	-0.2444778342	 0.249731
H	-2.2004941897	-0.3144247898	 0.0385241274	 0.122836
H	-1.9571811233	-2.6463915014	-0.0273208463	 0.280684
H	 2.0368246	-2.695195603	-0.0412190098	 0.130159
