22
gdb 94312	2.31599	1.46317	1.12182	1.5361	82.71	-0.2338	0.0646	0.2983	1201.0739	0.193171	-404.320005	-404.310461	-404.309517	-404.353688	37.2	
C	-0.0550947402	 1.5295321194	 0.1523213113	-0.432018
C	-0.0989534518	 0.0143032203	 0.1587092603	 0.236699
C	-1.4177235051	-0.5714628178	-0.3115223005	-0.477704
N	 1.1550730754	-0.6237802812	-0.3068458325	-0.430407
C	 0.7806541724	-0.736695311	 1.1025931791	 0.28088
C	 1.6092673762	-0.1881124065	 2.2744321443	-0.296633
C	 0.9422856949	-1.2545105984	 3.1880068871	-0.258584
C	 0.4909470656	-2.0188479098	 1.9138179014	 0.067237
O	-0.7592538731	-2.6635621553	 1.8819185789	-0.422768
H	 0.9402260205	 1.895189392	 0.4121698145	 0.128652
H	-0.3030934301	 1.9121372361	-0.8443208744	 0.11732
H	-0.7792268496	 1.9485417303	 0.8607400685	 0.106855
H	-1.6066887116	-0.275830552	-1.3504838935	 0.118572
H	-1.4248769352	-1.6609392621	-0.2475436885	 0.137697
H	-2.2554559835	-0.1907881208	 0.2859015242	 0.108667
H	 0.9403005294	-1.4979984918	-0.7853324697	 0.223152
H	 2.6790828292	-0.361200877	 2.1284475513	 0.112573
H	 1.4584241803	 0.8580740476	 2.5474375017	 0.104656
H	 1.5716033162	-1.7928919376	 3.8988387891	 0.104508
H	 0.0774140027	-0.8461444263	 3.7217920245	 0.093966
H	 1.2195512566	-2.7940331232	 1.648931728	 0.09663
H	-1.4276247893	-2.026200755	 2.1551998547	 0.280048
