17
gdb 60696	6.08794	0.6353	0.60575	2.0504	81.13	-0.2491	-0.0661	0.183	1767.8065	0.133411	-417.987386	-417.977451	-417.976507	-418.023313	35.225	
N	-0.023358897	 0.8990136559	-0.8611569082	-0.551832
C	-0.1904435544	-0.2401129903	-0.1253893682	 0.26096
C	 1.0594257672	-1.0625164616	 0.0039740499	 0.143556
O	 2.1303204385	-0.703085585	-0.4222478045	-0.267172
N	-1.2320864051	-0.7167675987	 0.4504507827	-0.26074
C	-2.4762521906	 0.0234909604	 0.378840684	-0.179513
C	-3.2616486144	-0.3425599566	-0.9074562632	-0.346
C	-4.5362694703	 0.3555340126	-0.9934834883	 0.296331
C	-5.5798385561	 0.9508228747	-1.0339398903	-0.441083
H	 0.9360610026	 1.152072488	-1.0485277667	 0.272609
H	-0.6963466049	 1.6445098476	-0.8099415012	 0.26453
H	 0.8992257012	-2.0156715528	 0.5404164327	 0.111688
H	-3.0880203874	-0.242849154	 1.2454532572	 0.124187
H	-2.3399815866	 1.1166860043	 0.4141878707	 0.091779
H	-2.6456682166	-0.1093170271	-1.784330558	 0.137217
H	-3.4184948271	-1.4271592892	-0.9191069575	 0.146527
H	-6.5073367189	 1.4652825418	-1.0827402311	 0.196956
