21
gdb 114562	2.51505	1.20152	0.95551	0.7658	90.64	-0.2286	0.0405	0.2691	1332.7937	0.181398	-349.902615	-349.89334	-349.892396	-349.936496	35.772	
C	 0.0274198459	 1.5496370295	 0.1061523987	-0.381234
C	-0.1427096235	 0.0374008045	-0.074630513	-0.200096
C	 0.7041295748	-0.5228915408	-1.2124824317	-0.032314
C	 2.2657347867	-0.5798261824	-1.0735851176	-0.25284
C	 2.2327153825	-2.0823593352	-1.3657993264	-0.106334
C	 1.3960665055	-2.7893301191	-0.3492271065	-0.326074
C	 0.6871375474	-2.0498015718	-1.4669371443	 0.199362
C	-0.1809510848	-2.703056055	-2.3852740243	 0.183342
C	-0.9307452096	-3.2260646694	-3.1696736185	-0.42684
H	 1.0674282418	 1.80983163	 0.3318969968	 0.11709
H	-0.2586276822	 2.0918706492	-0.8019847439	 0.115094
H	-0.5930486952	 1.9233724832	 0.9264375702	 0.11308
H	 0.1089117472	-0.4726641077	 0.8635041363	 0.092926
H	-1.1965694484	-0.194652484	-0.2753556119	 0.105075
H	 0.4434024234	-0.0090537197	-2.1430500768	 0.07856
H	 2.7783435208	 0.0073624373	-1.8375195171	 0.106499
H	 2.6739993579	-0.3082229704	-0.093670665	 0.096582
H	 2.9171989748	-2.6155083627	-2.0137323882	 0.100113
H	 1.3572120079	-3.86942888	-0.4377844849	 0.125708
H	 1.3391629941	-2.4204905432	 0.6719570994	 0.110129
H	-1.5885295671	-3.6932770923	-3.8593190914	 0.182174
