15
gdb 1220	8.07012	1.10244	1.00954	3.4013	59.61	-0.2524	-0.0239	0.2285	1105.0328	0.121452	-345.688382	-345.680001	-345.679057	-345.722452	27.576	
C	-0.0257494328	 1.5214638988	 0.0290660633	-0.474901
C	 0.0606879096	 0.0109653987	 0.1320252601	 0.388878
O	 1.0994945052	-0.5622661268	 0.3609898204	-0.286177
C	-1.2522583201	-0.7495632493	-0.0565285114	-0.318469
C	-1.0496016211	-2.2519935502	-0.2789671985	-0.265144
C	-2.3145943229	-3.0354375343	-0.0272796208	 0.157111
O	-2.8224408538	-3.8051689345	-0.8003742562	-0.237605
H	 0.9180796503	 1.971575763	 0.3382766756	 0.148142
H	-0.2394170194	 1.8063030697	-1.0079880012	 0.147499
H	-0.8474529964	 1.9100476806	 0.6401075903	 0.137895
H	-1.8488658606	-0.5706287481	 0.8516570498	 0.131024
H	-1.8259009597	-0.2944003626	-0.8725097967	 0.129295
H	-0.6891048413	-2.4668268784	-1.2878168187	 0.128509
H	-0.2831467324	-2.5954061964	 0.4287536832	 0.146662
H	-2.7713985547	-2.8471759402	 0.9750147606	 0.067283
