16
gdb 27563	3.54371	1.18701	0.89408	1.4865	89.47	-0.2536	-0.0483	0.2053	1258.0679	0.124678	-363.650651	-363.642487	-363.641543	-363.68383	30.444	
C	-0.0227926109	 1.510033891	 0.031142376	-0.468832
C	 0.0210672117	 0.0047290429	-0.0085318519	 0.343665
C	-0.0336801941	-0.6932560776	-1.2142508373	-0.261414
C	 0.0098233529	-2.0936737168	-1.2085471301	 0.174605
C	 0.1080423721	-2.7364988081	 0.0314496373	-0.219602
C	 0.1563590901	-1.9524995273	 1.1774245941	 0.005152
N	 0.1152045195	-0.6194656744	 1.1759983861	-0.321535
C	-0.0441573701	-2.8352759278	-2.4233803799	 0.216729
C	-0.0897956845	-3.4619278268	-3.4503009047	-0.396407
H	 0.8773088015	 1.9026816307	 0.5146312522	 0.14216
H	-0.0995292411	 1.9410699112	-0.9697943708	 0.118826
H	-0.8770591055	 1.8486245272	 0.6258648505	 0.142161
H	-0.1095766057	-0.1607795042	-2.1549628249	 0.105771
H	 0.145169868	-3.8171891568	 0.0921361185	 0.109057
H	 0.23268502	-2.426234291	 2.1536491533	 0.110412
H	-0.130025644	-4.0151889521	-4.3559488583	 0.199251
