16
gdb 8448	4.05357	1.9466	1.66427	4.4569	64.52	-0.2605	0.0159	0.2765	815.1509	0.131602	-383.768635	-383.762068	-383.761124	-383.799026	26.12	
C	-0.1032935537	 1.4977227864	 0.0074876929	-0.49114
C	 0.0845291037	 0.0098996891	 0.0355534232	 0.433763
C	 1.0071855303	-0.80464925	-0.9084444531	-0.268594
C	 0.6598859099	-1.9329677979	 0.1218134691	-0.191953
C	 0.68876963	-0.8049205807	 1.2089437826	-0.268578
C	-0.8448527417	-2.000066681	-0.1045809666	 0.457664
O	-1.6054771549	-2.9124722074	-0.2186866157	-0.35224
O	-1.2047388476	-0.674792109	-0.1583647512	-0.281033
H	 0.8569982884	 2.0008153061	 0.1523240045	 0.12431
H	-0.5217669627	 1.8155374855	-0.9520086725	 0.138379
H	-0.7860274795	 1.8152327927	 0.8010995701	 0.13839
H	 0.6822813907	-0.9281306468	-1.9438292518	 0.119056
H	 2.0536856906	-0.4976217554	-0.8572192946	 0.111667
H	 1.1903285783	-2.877096977	 0.2014703527	 0.099574
H	 1.7040349871	-0.497902821	 1.4678440104	 0.111669
H	 0.0737312212	-0.9286584435	 2.1029509699	 0.119065
