14
gdb 123469	5.13118	0.94357	0.86547	3.8566	63.38	-0.2842	-0.072	0.2122	1277.1235	0.100091	-469.921435	-469.913866	-469.912922	-469.955498	26.39	
C	-0.0743793645	 1.5918617198	 0.1591058631	-0.33526
C	-0.1725545083	 0.0819427637	 0.2992209678	 0.091694
C	-1.3095793609	-0.6641212436	-0.2503155877	-0.178869
O	-0.0338267143	-0.6798697024	-0.8945152728	-0.216841
C	 1.3380061305	 2.0569832464	 0.0361957893	 0.409677
N	 2.069254625	 2.50172381	 1.0184805098	-0.143272
O	 3.2685304741	 2.7791539374	 0.4600103908	-0.137883
N	 3.2084184277	 2.4803383355	-0.9018077958	 0.050272
N	 2.0565569409	 2.0488223309	-1.1501752772	-0.187539
H	-0.6287852443	 1.9071605914	-0.7289901161	 0.144099
H	-0.5211486466	 2.066755656	 1.0377637682	 0.145131
H	 0.3525666677	-0.3312310837	 1.1614358539	 0.1125
H	-1.6147091566	-1.6011707726	 0.211901777	 0.125554
H	-2.0950669104	-0.1294362589	-0.7829129302	 0.120737
