21
gdb 38294	3.33522	1.6699	1.46145	0.1004	85.88	-0.2348	0.0286	0.2634	980.9572	0.18735	-349.960048	-349.953549	-349.952604	-349.990529	28.425	
C	-0.147434741	 1.5075254978	 0.1171886644	-0.228661
C	 1.405731243	 1.4551794918	 0.0283158896	-0.024648
C	 1.3016999732	 0.1792935951	 0.9182467358	-0.22803
C	-0.0033781563	-0.0400505538	 0.0953615838	-0.024207
C	 0.5821060701	-0.3135903312	-1.3162978487	-0.034805
C	-0.2991107997	-0.0340334798	-2.5028185945	-0.089873
C	 0.0826488681	 1.0461008092	-3.1845063027	-0.059072
C	 1.3069639111	 1.7113086711	-2.5979122557	-0.292216
C	 1.6590086477	 0.8391876954	-1.3645608995	 0.004479
H	-0.4915709276	 1.8764033899	 1.0863124399	 0.091269
H	-0.7076761137	 1.9887178755	-0.6873787255	 0.096343
H	 2.0253414408	 2.3072047381	 0.312859861	 0.05366
H	 2.0941604581	-0.5721240995	 0.8373242636	 0.083471
H	 1.1064290849	 0.4100187709	 1.9684142649	 0.091637
H	-0.8014228609	-0.6987344965	 0.440822689	 0.053566
H	 1.0137721528	-1.3210221311	-1.3561578836	 0.066652
H	-1.1535441089	-0.6546499378	-2.7535360621	 0.085671
H	-0.4156007916	 1.4315616807	-4.0686522242	 0.087668
H	 2.1293330132	 1.7500197751	-3.3235247945	 0.100411
H	 1.1031583754	 2.7545817862	-2.3186537243	 0.101876
H	 2.6791326812	 0.4531759332	-1.4351025167	 0.064808
