18
gdb 109259	3.74711	1.1982	0.99318	3.9111	72.9	-0.2531	0.0223	0.2754	1197.2279	0.148773	-439.08173	-439.073683	-439.072739	-439.114725	30.488	
O	 0.0514397458	 1.1851900101	-0.6840839838	-0.42391
C	-0.0037645443	-0.1070317378	-0.1512961589	-0.113348
C	-1.4210966646	-0.5037623696	 0.1986597084	 0.373878
N	-2.3665886314	 0.3069839265	-0.0260298122	-0.338917
C	-3.738242639	-0.0113323568	 0.3382761031	-0.183786
C	-3.963366847	-1.4335945634	 0.8242162478	-0.075295
C	-3.6822886794	-2.6025131045	-0.1003426947	-0.317059
C	-2.7455687574	-2.2807433836	 1.0285365718	 0.105256
O	-1.4724697159	-1.7473524841	 0.7284584935	-0.248379
H	-0.8722376555	 1.4869682371	-0.6958075916	 0.28873
H	 0.3937061344	-0.8499881159	-0.8607720902	 0.112113
H	 0.6089770005	-0.1888989251	 0.760108529	 0.113115
H	-4.0376918491	 0.6863665881	 1.1306965051	 0.122649
H	-4.3816422916	 0.2156916196	-0.5214477369	 0.116839
H	-4.7691276781	-1.5553669565	 1.5411018428	 0.099183
H	-4.2946755891	-3.4936204566	-0.0212718997	 0.123061
H	-3.3375805312	-2.3740085919	-1.1040811421	 0.132504
H	-2.6662952172	-2.9486338758	 1.8773402689	 0.113366
