18
gdb 36674	3.18544	0.83068	0.69614	0.9713	85.16	-0.2353	0.0293	0.2646	1588.4464	0.144576	-364.709572	-364.699947	-364.699003	-364.744703	35.284	
C	-0.2648986919	-1.2022058928	 0.0365607688	-0.442212
C	-0.1530866948	-0.0095540053	 0.1349389976	 0.295462
C	 0.0142985103	 1.4338748271	 0.239264119	-0.351161
C	 1.3837846956	 1.903294543	-0.2830081914	-0.135874
N	 1.461941978	 3.3568995046	-0.177475078	-0.081282
C	 2.0243742132	 3.9038785892	 1.046112622	-0.247641
C	 2.7930419574	 3.9887904449	-0.2401755768	-0.183575
C	 3.9920486497	 3.2159425394	-0.4185756645	 0.341829
C	 5.0007037518	 2.5884774973	-0.6085656058	-0.46775
H	-0.3766510179	-2.2547193373	-0.0461542909	 0.194615
H	-0.773336872	 1.9503480602	-0.3215474971	 0.141799
H	-0.098370926	 1.7455358721	 1.2856859348	 0.130964
H	 2.1866120639	 1.3891284907	 0.2653350839	 0.111628
H	 1.4862849728	 1.6312267968	-1.3379934948	 0.123321
H	 1.5433143173	 4.7935601516	 1.4430251372	 0.123768
H	 2.4065663187	 3.208757487	 1.7919242615	 0.123245
H	 2.7873015208	 4.9362440415	-0.7743686324	 0.120442
H	 5.8920081029	 2.0330001399	-0.766100223	 0.202421
