21
gdb 120341	3.89945	0.92009	0.82625	1.7587	83.44	-0.2438	0.0004	0.2442	1472.0557	0.182794	-387.081708	-387.072979	-387.072035	-387.115604	33.156	
C	-0.1020609424	 1.6157394148	 0.0451033736	-0.380242
C	 0.0264729997	 0.0911330072	-0.0203862299	-0.172954
C	 0.7109165129	-0.4975968021	 1.2182383031	-0.166568
C	 0.8022865194	-2.0364126886	 1.2281042874	-0.077241
C	 1.6584333528	-2.6391853438	 0.1234501018	-0.078443
C	 2.6200669191	-3.4384791876	 0.5923039279	-0.093149
C	 2.5886193472	-3.4563718702	 2.0857401921	-0.004164
O	 2.8252935029	-2.1529028686	 2.6740645686	-0.258961
C	 1.4742634199	-2.5848907436	 2.489363684	 0.019913
H	 0.8812993608	 2.0914554138	 0.1277013644	 0.117695
H	-0.5913925623	 2.0142795432	-0.8491109184	 0.110743
H	-0.6920319829	 1.9262472919	 0.9146496574	 0.113947
H	-0.9704588937	-0.3559937482	-0.1340255737	 0.092033
H	 0.5880082401	-0.1847240418	-0.9213933108	 0.098191
H	 1.7241633951	-0.0927599642	 1.3187957026	 0.115825
H	 0.1599359447	-0.1797755696	 2.1137333491	 0.092076
H	-0.2191037835	-2.4421202799	 1.1658533292	 0.080306
H	 1.5017455813	-2.4033856903	-0.9229753245	 0.102826
H	 3.3485879437	-3.9787621911	 0.0004552458	 0.100873
H	 2.9501828939	-4.2956769312	 2.6718081481	 0.095636
H	 0.9021196613	-2.7238274001	 3.4034134721	 0.091658
