16
gdb 53139	2.95681	1.09738	0.93325	2.3234	79.72	-0.2404	0.0088	0.2492	1299.7311	0.122947	-400.690631	-400.68199	-400.681045	-400.7259	30.81	
C	-0.0256388129	 1.489141506	 0.0195998401	-0.500455
C	-0.0252937747	 0.0346999181	 0.0508902024	 0.116956
C	-0.0313221427	-1.1689644945	 0.0803957412	 0.077533
C	-0.0301766834	-2.602678547	 0.1044201985	-0.256232
C	-0.5363610037	-3.4258048876	 1.2519346464	 0.072075
O	-1.6226135345	-2.7477403219	 1.9202417422	-0.265413
C	-2.3983026146	-2.84897	 0.7589501078	 0.457915
N	-3.5986862485	-2.5613415115	 0.557889306	-0.551981
C	-1.3037099953	-3.473778594	-0.0441822647	-0.222981
H	 0.8696730167	 1.8738939329	-0.4809558769	 0.150031
H	-0.8988023416	 1.8738920438	-0.5186292101	 0.15402
H	-0.0466073237	 1.9079220983	 1.0316909223	 0.152237
H	 0.8097915033	-3.0765143597	-0.402027265	 0.126132
H	 0.0088070592	-4.1728178517	 1.8126840213	 0.12887
H	-4.0317024804	-2.1718876551	 1.3968507281	 0.233524
H	-1.4038374731	-4.229263106	-0.8089076197	 0.12777
