17
gdb 28909	2.43382	1.79068	1.04502	3.0025	78.48	-0.2381	-0.0269	0.2112	1118.7492	0.136003	-418.079481	-418.070817	-418.069873	-418.112749	31.844	
C	 0.0240882647	 1.5156480243	-0.030325672	-0.477896
C	 0.0072560155	 0.014387436	-0.0146202647	 0.259955
N	-0.0814106928	-0.641913391	-1.1752380929	-0.299225
C	-0.0933583837	-1.9735314229	-1.1209969283	 0.041024
N	-0.0261767171	-2.7301491395	-0.0287564569	-0.300754
C	 0.0630576832	-2.0906235514	 1.1437643148	 0.233447
C	 0.1406299589	-2.9186277811	 2.3997303257	-0.525601
C	 0.0829180954	-0.6945958912	 1.1906461625	 0.242975
O	 0.1722412932	 0.0197039012	 2.3481050845	-0.434159
H	 0.9450243376	 1.9010811622	 0.4206650295	 0.139261
H	-0.0523452807	 1.8691267617	-1.0588760542	 0.140408
H	-0.8046255289	 1.9224481825	 0.5592073059	 0.139195
H	-0.1655154229	-2.4973040509	-2.0706607611	 0.111727
H	 1.0692707226	-2.730737941	 2.9544349795	 0.134601
H	-0.6983720531	-2.7108451931	 3.076703847	 0.134621
H	 0.1102631696	-3.9754006992	 2.1332154596	 0.158586
H	 0.2161772185	-0.5844439068	 3.0963948911	 0.301833
