15
gdb 131389	3.12551	1.09575	0.8684	2.9507	68.47	-0.2276	-0.017	0.2106	1264.5484	0.112819	-453.974752	-453.966334	-453.96539	-454.009796	29.872	
O	 0.2746542273	 1.3232894838	 0.0190646166	-0.429836
C	 0.1548748156	-0.0211077531	 0.014001133	 0.356233
N	 0.1532957957	-0.7256425555	-1.1062615839	-0.330776
N	 0.0164790538	-2.0053755846	-0.6748986438	-0.194378
C	-0.0658342348	-2.1029594155	 0.668957011	-0.098325
C	 0.026526386	-0.8187568317	 1.1773369354	 0.09348
C	-0.0286819038	-0.3586905525	 2.6040618875	-0.3984
C	-1.4578853992	-0.3468858393	 3.125400929	 0.163043
O	-1.8266891894	-0.9071066414	 4.1243599759	-0.240689
H	 0.3700039691	 1.6074624559	-0.8985366975	 0.306793
H	-0.007594819	-2.7460634996	-1.3530948862	 0.279339
H	-0.1737387561	-3.0547927684	 1.1659023617	 0.146168
H	 0.5731345904	-0.9821790961	 3.2710539896	 0.125288
H	 0.3537688022	 0.6686250811	 2.6582470209	 0.140505
H	-2.1671929678	 0.2233752368	 2.4834699209	 0.081555
