22
gdb 108102	3.35016	1.35685	1.31786	1.5419	84.32	-0.2311	0.0887	0.3198	1110.8973	0.197405	-367.223599	-367.215886	-367.214941	-367.255744	31.523	
C	 0.2539862163	 1.4946869171	-0.1639318799	-0.381274
C	-0.0970387497	 0.0305108463	 0.1285580829	-0.290015
C	 0.5839755092	-0.5136746453	 1.3579930329	 0.372876
C	 0.3241639843	 0.0212056642	 2.7689362899	-0.284398
C	 1.3906955129	-0.8323369102	 3.4873169915	-0.059554
C	 1.0268649744	-2.2557975173	 3.0113433946	-0.235666
C	 1.0234861346	-1.9312564888	 1.5224756131	-0.090892
N	 2.0297109523	-0.864545522	 1.2537426278	-0.162179
C	 2.6060508273	-0.5497464975	 2.5841665098	-0.153837
H	 1.3361580323	 1.61138231	-0.2766655422	 0.13079
H	-0.223225833	 1.834674699	-1.0880597155	 0.109419
H	-0.0760851288	 2.1586485156	 0.641858961	 0.111771
H	-1.1838096923	-0.0785201685	 0.2430904038	 0.092202
H	 0.1903855676	-0.5883691669	-0.7285476174	 0.104048
H	 0.5074942299	 1.0963288811	 2.8622403877	 0.098252
H	-0.6955348636	-0.1885944287	 3.1091061004	 0.095438
H	 1.5114179124	-0.6816761185	 4.5590446793	 0.065239
H	 1.7761467862	-3.0050026211	 3.2869357117	 0.099043
H	 0.048440502	-2.5913950949	 3.370132399	 0.097835
H	 0.8925124226	-2.6848979641	 0.7546202951	 0.083194
H	 2.9389242249	 0.4924855257	 2.6107447614	 0.098941
H	 3.463355688	-1.1997234152	 2.7857771131	 0.098765
