17
gdb 85372	2.18299	1.74592	1.13196	3.6789	79.38	-0.245	-0.0811	0.1639	1080.6613	0.137024	-421.850621	-421.842496	-421.841552	-421.883887	30.628	
O	 0.4380489712	 1.1772761363	 0.6484444504	-0.423659
C	 0.0443225216	-0.0864947929	 0.1128821866	 0.065118
C	-1.4755765209	-0.2989201524	 0.1520810191	-0.32714
C	-2.338144109	 0.689649095	-0.6185371047	 0.330359
O	-3.2198360524	 1.3123737766	-0.0556969476	-0.31442
C	-2.1555141423	 0.8395217474	-2.0761002076	-0.165593
C	-1.092501934	 0.4870563688	-2.8258556498	-0.066861
C	 0.196261676	-0.0777858314	-2.4464636122	-0.069889
C	 0.7001498132	-0.3191020325	-1.2251399129	-0.108209
H	 0.199435663	 1.8590116157	 0.0101232221	 0.290189
H	 0.4707479972	-0.8118086204	 0.8148187097	 0.104024
H	-1.6864242005	-1.304009869	-0.239972241	 0.122484
H	-1.8114350168	-0.2599051467	 1.1909318525	 0.130598
H	-2.9951501098	 1.3323363285	-2.557981345	 0.113093
H	-1.174320062	 0.6959888533	-3.8907991549	 0.109345
H	 0.8524357938	-0.2754443101	-3.2909092335	 0.101265
H	 1.7288220817	-0.6663798961	-1.169045831	 0.109294
