20
gdb 39034	2.98437	1.69188	1.26377	1.787	84.74	-0.2161	0.0202	0.2363	1045.1581	0.17446	-366.009362	-366.002235	-366.00129	-366.04057	29.699	
C	 0.2020805695	 1.4022719847	-0.4545605071	-0.204729
C	 1.410542229	 2.0195522937	 0.3105770646	-0.338401
C	 2.1503599463	 0.7873123533	 0.7280050306	 0.364345
C	 3.4019056151	 0.3302656895	 0.7573662918	-0.260175
C	 3.4345971747	-1.1760909686	 0.9853454327	-0.253003
C	 1.9560319938	-1.5598421122	 1.0967828924	-0.134025
N	 1.2922474646	-0.963775428	 2.2855135702	-0.382604
C	 1.1614230474	-0.3116154047	 0.9558195795	 0.314824
C	-0.1529970317	 0.0884304484	 0.3026203672	-0.350989
H	-0.6480927161	 2.0856774962	-0.5260918969	 0.098186
H	 0.5162533048	 1.1615628037	-1.4757571554	 0.10768
H	 1.9927366018	 2.7144569655	-0.2999117178	 0.105634
H	 1.0482162238	 2.5721927152	 1.1885286488	 0.112439
H	 4.3045157933	 0.9128163216	 0.6098312961	 0.08757
H	 3.9210815934	-1.6893433349	 0.1449488215	 0.100825
H	 3.9840237803	-1.4574996231	 1.8920627065	 0.118169
H	 1.6130659025	-2.5269410139	 0.7439011721	 0.084432
H	 0.4380480397	-1.4969042074	 2.4548244037	 0.218046
H	-0.9027548623	 0.2897118023	 1.0773997016	 0.107179
H	-0.5700990401	-0.6728771714	-0.3629936622	 0.104599
