20
gdb 107294	3.3126	1.30968	1.21257	1.8153	77.71	-0.226	0.0673	0.2933	1114.4724	0.172207	-403.073247	-403.065345	-403.064401	-403.105601	31.62	
O	-0.0726645431	 1.4465957576	 0.1044738156	-0.416559
C	 0.0365917342	 0.041966926	-0.064129147	-0.165166
C	-1.2948789128	-0.6373236051	 0.0755838804	 0.30017
C	-1.7776718468	-1.6882610301	-0.8357217107	-0.300589
N	-2.3941567336	-0.3512432556	-0.9624951282	-0.202628
C	-3.3535327012	-0.1358148693	 0.1988438159	 0.041752
C	-4.1704664288	-1.323477129	 0.7767286815	-0.242713
C	-3.0524176415	-1.5605223423	 1.8471634638	-0.252209
C	-2.2506554477	-0.3657643309	 1.2553978713	-0.078187
H	-0.7282598479	 1.7400562008	-0.5397815239	 0.290299
H	 0.4779290098	-0.2129699205	-1.0402789754	 0.090981
H	 0.7264227642	-0.3062153581	 0.7139156056	 0.11213
H	-1.1524735397	-1.9272481985	-1.6916165024	 0.119795
H	-2.3563910772	-2.5311142097	-0.4729248217	 0.118173
H	-3.870387365	 0.81481033	 0.0677114272	 0.078231
H	-5.1190416383	-0.997312507	 1.2102453462	 0.105753
H	-4.3835420935	-2.1459586205	 0.089094376	 0.108553
H	-3.3923775215	-1.3843187944	 2.8701567482	 0.105379
H	-2.5510385526	-2.5320966512	 1.8189100935	 0.100817
H	-1.9122986169	 0.4228907578	 1.9246490541	 0.086019
