17
gdb 36387	6.02693	0.67147	0.65576	2.0567	81.24	-0.2617	0.0425	0.3043	1686.8708	0.132029	-384.595845	-384.586183	-384.585238	-384.631437	34.745	
C	 0.1481830595	-1.0315022105	-0.8768418044	-0.423378
C	 0.0480837091	 0.0374340227	-0.3380577796	 0.290279
C	-0.0467659383	 1.3328480097	 0.3270554254	-0.386429
C	 1.309020336	 2.0106536788	 0.460940821	 0.060061
O	 1.7830824193	 2.7694952491	-0.6517808807	-0.242456
C	 1.5038807762	 3.4650198863	 0.5635409404	 0.060098
C	 0.3757869657	 4.4861345638	 0.5495103943	-0.386467
C	 0.8186133002	 5.7897765774	 0.0658730973	 0.290379
C	 1.2047778868	 6.8584265544	-0.3237388396	-0.423434
H	 0.2287184085	-1.9724194113	-1.3622253981	 0.199341
H	-0.7340071683	 1.9807958992	-0.2258288409	 0.139813
H	-0.4727491484	 1.1980311385	 1.3307658741	 0.136955
H	 2.068067161	 1.3734133435	 0.9173144475	 0.104596
H	 2.3947959411	 3.8119100636	 1.0893248197	 0.104579
H	-0.4476272164	 4.1229602844	-0.0733098003	 0.139764
H	-0.017314006	 4.5892239712	 1.5702538505	 0.136954
H	 1.5376425241	 7.8025910793	-0.6775205065	 0.199344
