15
gdb 32046	3.77988	1.26494	0.95347	3.0687	74.13	-0.2269	-0.0403	0.1866	1176.7739	0.113689	-453.984261	-453.976451	-453.975506	-454.016892	28.536	
C	-0.05465481	 1.3496809086	-0.0540582172	-0.230432
O	 0.0407204517	-0.0779007855	 0.0588514307	-0.233513
C	 0.6736946088	-0.5400515628	 1.1231069619	 0.525221
N	 1.1890627865	 0.2122300663	 2.0285894564	-0.415294
C	 1.8110052653	-0.4619713978	 3.0662317291	-0.010733
C	 1.8881372772	-1.8051387998	 3.1509014711	-0.158133
C	 1.2990693486	-2.621823233	 2.1171564475	 0.383426
N	 1.2967621437	-3.8851452122	 2.0690507924	-0.533544
O	 0.6771096538	-1.8784050623	 1.0820645867	-0.246435
H	 0.9409011255	 1.7964101946	-0.0992762862	 0.149278
H	-0.6012712887	 1.5266322481	-0.9798099669	 0.142763
H	-0.5930463614	 1.7650978297	 0.8005127423	 0.1493
H	 2.2449379993	 0.1763575081	 3.8289681517	 0.122954
H	 2.3774719767	-2.315766727	 3.9680174044	 0.126933
H	 0.8155590831	-4.223365405	 1.2361775759	 0.228208
