18
gdb 52608	2.26911	1.02667	0.96292	3.4465	77.62	-0.2349	0.018	0.2528	1383.7563	0.143671	-439.097914	-439.086761	-439.085817	-439.135743	38.702	
C	 0.2601222566	 1.4049789012	-0.0926440167	-0.498938
C	 0.1464221322	-0.0451728282	-0.0470765972	-0.02309
C	 0.0522807967	-1.2446256507	 0.0121445215	 0.134601
C	-0.0614188636	-2.7047798842	 0.0316223192	 0.093245
C	-1.5297833402	-3.1541764655	 0.029557046	-0.401204
O	 0.6373722694	-3.2702052178	-1.0932088733	-0.467394
C	 0.6240033154	-3.2299930329	 1.331236677	 0.388353
N	 1.8684776195	-3.7240515247	 1.1342521025	-0.520773
O	 0.0670107471	-3.1603427242	 2.4075562088	-0.375166
H	 1.2255392979	 1.7155303898	-0.5066388752	 0.151089
H	-0.528073057	 1.8494720481	-0.7099067778	 0.150757
H	 0.1770453397	 1.8325670893	 0.9123670654	 0.160018
H	-2.0542366338	-2.7167290042	-0.8238301636	 0.109455
H	-1.5735905958	-4.2440835189	-0.0454797938	 0.123861
H	-2.0120894434	-2.8401974196	 0.9559048649	 0.153406
H	 0.5653367043	-2.6427748298	-1.8192735957	 0.287917
H	 2.2081429657	-3.8437471861	 0.195334537	 0.273242
H	 2.3565439992	-4.1246078116	 1.917453541	 0.260621
