13
gdb 18845	4.08611	2.56163	2.08019	3.8861	60.91	-0.2243	-0.0238	0.2005	661.0239	0.097044	-361.431674	-361.426221	-361.425277	-361.461015	22.082	
O	 0.0493735266	 0.0701195209	 0.2185754088	-0.310081
C	-0.0496643147	 1.2467641267	 0.0753396651	 0.443667
C	-1.1322517605	 2.2490169296	-0.0793031656	-0.235795
C	-0.6986128777	 3.5809144449	 0.6491053404	-0.086102
C	 0.3644789317	 3.4729239828	 1.7052990435	-0.095618
C	 1.3547984899	 2.7340364438	 1.2044198553	-0.085069
N	 1.0288171855	 2.2654688196	-0.1408179229	-0.207389
C	-0.0603067667	 3.1890573996	-0.6218664422	-0.023925
H	-2.1599670317	 2.0930816507	-0.3767803167	 0.121439
H	-1.471444981	 4.3400413518	 0.6790158102	 0.110863
H	 0.3093715071	 3.9277326185	 2.683711084	 0.118146
H	 2.2621558799	 2.3795743429	 1.6712593641	 0.130302
H	 0.0006054118	 3.6922668983	-1.5778376141	 0.119561
