19
gdb 23273	2.68135	1.43825	1.14786	1.6821	78.81	-0.2319	0.0083	0.2401	1120.941	0.160349	-419.157078	-419.148748	-419.147803	-419.189703	32.583	
C	 0.8902847278	 1.509332353	-0.2927036539	-0.40105
C	 0.1414638959	 0.2098248332	 0.0518590358	-0.081896
C	 0.1859608603	-0.8640288719	-1.0789779031	-0.238254
C	 1.177981252	-1.9204818183	-0.6150325278	-0.030673
N	 2.4893719588	-1.3551357593	-0.2576220959	-0.336215
C	 1.5076408971	-1.68916985	 0.8181403964	-0.143906
C	 0.7458779756	-0.4955672373	 1.2574496616	 0.468705
N	 0.6093133356	-0.2291246979	 2.4954898818	-0.258258
O	-0.2068401517	 0.9027603411	 2.6895610144	-0.393966
H	 1.9340034944	 1.2965251195	-0.5348867727	 0.142364
H	 0.4242762716	 1.9959417702	-1.156204618	 0.105618
H	 0.8564219609	 2.2027473968	 0.5512317624	 0.130745
H	-0.8936976723	 0.4686939474	 0.294041538	 0.1003
H	-0.7976981237	-1.3285938168	-1.2067952539	 0.102352
H	 0.4744714882	-0.4294888734	-2.0410764889	 0.107207
H	 1.1319250986	-2.9237274936	-1.0266871488	 0.088762
H	 3.191170697	-2.0918158798	-0.2806494494	 0.235118
H	 1.7362714591	-2.4784270893	 1.5236131263	 0.097285
H	-0.2385760752	 0.9655387467	 3.6498757156	 0.30576
