22
gdb 104342	3.05945	1.20233	1.09135	2.2493	81.52	-0.243	0.0278	0.2708	1230.373	0.194908	-404.370357	-404.361072	-404.360127	-404.40406	35.327	
C	-0.087503219	 1.5524639413	-0.1519505503	-0.404132
C	-0.0051092599	 0.0338805349	 0.0494743374	-0.206843
C	 0.7892256498	-0.4606552635	 1.2784042125	 0.207657
C	 2.2342933847	 0.0703851579	 1.2690324005	-0.421223
C	 0.0760054842	-0.0480862745	 2.5730875745	-0.085225
O	 0.6776829737	-0.6373458704	 3.7367303674	-0.229179
C	 1.0957985696	-1.9178240119	 3.5923839954	 0.121451
N	 1.1729122742	-2.6211880603	 2.5457966753	-0.272968
C	 0.8008289556	-2.0065916855	 1.2741992496	-0.176318
H	 0.8997772295	 1.9994319142	-0.2992151322	 0.123731
H	-0.6863503087	 1.7833035901	-1.0382824183	 0.11824
H	-0.5589163092	 2.0574980468	 0.6975391562	 0.118341
H	-1.0235231854	-0.3730375826	 0.1090507735	 0.094946
H	 0.4451378999	-0.4187000714	-0.844057305	 0.099709
H	 2.2688856421	 1.1554035249	 1.4057032244	 0.113559
H	 2.8293090105	-0.3817628874	 2.0666377875	 0.132736
H	 2.721312952	-0.1652308016	 0.3167475703	 0.113286
H	 0.1161290964	 1.0298843564	 2.7445364792	 0.114628
H	-0.9785867391	-0.3536394225	 2.5389455422	 0.105543
H	 1.399572151	-2.31751352	 4.5585158365	 0.12135
H	-0.1874009598	-2.3896351606	 0.9841428763	 0.103888
H	 1.4997372677	-2.3696087344	 0.5106874171	 0.106825
