20
gdb 60440	4.63107	0.60265	0.55812	3.8058	72.87	-0.2618	0.0594	0.3212	1973.5231	0.168667	-477.470281	-477.459425	-477.458481	-477.508228	38.066	
C	-0.0769327751	 1.5429321211	 0.0280163117	-0.403904
C	-0.0286316327	 0.0152728257	 0.0270908051	 0.136003
O	 0.7221177116	-0.4810314307	 1.1344065709	-0.427598
C	-1.429844144	-0.607859974	-0.0251432885	-0.217172
C	-1.3840336337	-2.1257402396	-0.1037445091	-0.054082
O	-2.7420839492	-2.5974971244	-0.0914488212	-0.263703
C	-2.8882004334	-3.9343608714	-0.2586913096	 0.489213
N	-4.2186507256	-4.2572736795	-0.2744441135	-0.563252
O	-1.9789575189	-4.7163736055	-0.4061195158	-0.395127
H	 0.9348390387	 1.952348984	 0.0889127237	 0.126581
H	-0.5550380724	 1.9262749403	-0.8789907743	 0.118487
H	-0.6495416856	 1.9132294708	 0.8879344246	 0.106904
H	 0.5393372875	-0.3205300686	-0.8501113183	 0.094046
H	 0.3074334579	-0.150484144	 1.939520151	 0.276696
H	-1.9948600685	-0.3067042965	 0.8680274415	 0.092487
H	-1.9761018298	-0.2126857535	-0.8897163934	 0.105462
H	-0.8909791413	-2.4681191705	-1.0192800006	 0.121093
H	-0.836977363	-2.5488963643	 0.7423355765	 0.129426
H	-4.8798999718	-3.590618435	 0.0862486335	 0.261426
H	-4.4339855809	-5.2339744143	-0.1714332243	 0.267012
