19
gdb 72157	2.68697	1.936	1.79882	2.2544	72.64	-0.2534	0.09	0.3434	889.0476	0.162483	-423.022769	-423.016273	-423.015329	-423.0532	27.935	
C	-0.010757365	 1.4896650301	 0.0164282627	-0.507644
C	-0.0298781403	-0.021762084	-0.0531720079	 0.261101
C	 0.6312565932	-0.7453541337	-1.2579215196	-0.242504
C	 0.6779975262	-2.085175254	-0.5078875258	 0.033068
O	 1.5970012496	-1.7055027259	 0.5296953986	-0.243029
C	 0.6892296252	-0.8263608224	 1.1687621152	 0.133889
O	-0.298109226	-1.7319282142	 1.627527331	-0.243036
C	-0.7331502541	-2.1048711738	 0.3095887368	 0.03306
C	-1.388450645	-0.7735583127	-0.0879166225	-0.242495
H	 1.0153095355	 1.8735693652	 0.0284137529	 0.120744
H	-0.5193196283	 1.9332516347	-0.8466055836	 0.119059
H	-0.5151734319	 1.8518697409	 0.9190507032	 0.120745
H	 0.0101007636	-0.711546651	-2.1559400718	 0.094188
H	 1.6436397465	-0.4163667757	-1.4980006227	 0.104705
H	 0.9985688568	-2.997037057	-1.0063276065	 0.084053
H	 1.152094745	-0.2703738821	 1.9811682974	 0.091143
H	-1.3058157614	-3.0292045047	 0.3286286727	 0.084055
H	-2.1070117094	-0.4687465632	 0.6746772385	 0.104708
H	-1.8591225302	-0.7376035764	-1.0731019586	 0.09419
