14
gdb 1110	5.12958	1.82838	1.62036	2.203	55.55	-0.2761	-0.008	0.2681	802.9087	0.110816	-361.758902	-361.750809	-361.749864	-361.792213	26.97	
C	 0.2921837976	 1.1137830627	-0.1105609794	-0.477316
C	-0.4987701959	-0.1122199232	 0.2483365366	 0.387896
N	-1.0892671388	-0.4093631155	 1.318459197	-0.435113
O	-0.6732354334	-1.0106186792	-0.8116045976	-0.235596
C	 0.4100703412	-1.6789937602	-1.3015789666	 0.434554
C	-0.0114060337	-2.5846035285	-2.429736821	-0.476447
O	 1.5244058012	-1.5565208326	-0.8690592307	-0.343943
H	 1.3225577002	 0.8320581604	-0.3395009363	 0.17672
H	-0.1340380082	 1.5860306687	-1.001746565	 0.144372
H	 0.2860025977	 1.8315914749	 0.7116757583	 0.129236
H	-0.9651602628	 0.3317979139	 2.0079336564	 0.231061
H	-0.5162558431	-2.0068175769	-3.208762731	 0.151683
H	 0.8647419754	-3.0855967334	-2.8389681287	 0.150914
H	-0.7267052271	-3.3243948814	-2.0592614021	 0.161979
