16
gdb 117741	2.07318	1.21722	1.0057	4.0846	66.6	-0.2821	-0.0619	0.2202	1257.3951	0.120223	-475.015789	-475.005656	-475.004712	-475.051708	34.275	
C	 0.0206575572	 1.3581667583	-0.1054486833	-0.235264
O	-0.0324175371	-0.0550468896	-0.1311579544	-0.259327
C	 0.8605501746	-0.6347779114	-1.0530116042	-0.09396
C	 0.5963262541	-2.144762802	-0.9876275186	 0.113838
O	-0.7688175953	-2.4324275891	-1.185265016	-0.445831
C	 1.3458270321	-2.8902248196	-2.114708608	 0.148323
O	 2.3213750165	-2.4567103468	-2.6582366517	-0.229677
C	 1.0686821868	-2.6974251334	 0.3057091605	 0.258224
N	 1.4446734755	-3.1613976735	 1.2951070599	-0.322284
H	 1.0174408995	 1.714245326	 0.1897729487	 0.124386
H	-0.2302067085	 1.787049094	-1.0865607037	 0.118199
H	-0.7113389179	 1.6936824116	 0.6315065253	 0.141983
H	 0.6597346895	-0.2879057171	-2.077537608	 0.115216
H	 1.9083393563	-0.4145379196	-0.8111473961	 0.131184
H	-1.2554969813	-1.778131045	-0.6638386885	 0.307634
H	 0.8735553382	-3.8575740728	-2.3775969518	 0.127357
