17
gdb 36222	3.62325	1.076	0.96147	1.5958	79.13	-0.2424	0.0003	0.2427	1249.5798	0.135131	-384.643215	-384.63515	-384.634206	-384.676306	30.804	
C	-0.0577448286	-1.1683739419	 0.4263629296	-0.458513
C	-0.0335579936	-0.0014634708	 0.1399941032	 0.306319
C	 0.0224311351	 1.4212926391	-0.1952676535	-0.466751
C	 1.4239787503	 1.9745879266	-0.1556467541	 0.348094
C	 2.0641041119	 2.6364983374	-1.1244807023	-0.19017
C	 3.464131595	 3.0516785367	-0.7199135065	-0.286773
C	 3.5533880484	 2.5832397433	 0.7286466112	 0.046854
O	 2.6107646849	 3.2014078207	 1.6065148355	-0.259184
C	 2.2944641542	 1.8977639446	 1.0621942632	-0.063149
H	-0.0903563046	-2.2005323416	 0.6734664466	 0.19899
H	-0.4100391841	 1.5850980163	-1.1891958464	 0.137297
H	-0.6116315599	 1.9753521753	 0.5121851006	 0.147154
H	 1.6371037063	 2.8920067555	-2.0885967916	 0.097223
H	 4.2287364004	 2.5663460294	-1.3403083742	 0.114193
H	 3.6217015069	 4.1335325649	-0.8072430448	 0.125743
H	 4.5103837156	 2.3281470182	 1.1755276756	 0.096511
H	 2.1992437915	 1.0980545765	 1.7897662877	 0.106161
