19
gdb 5967	3.35733	1.1567	1.05486	3.4555	72.16	-0.297	0.0194	0.3164	1213.5754	0.16292	-365.085162	-365.075395	-365.074451	-365.119522	35.076	
C	-0.0461207061	 1.6139923949	 0.1251143005	-0.387348
C	 0.0181804974	 0.0894666814	-0.0080329675	-0.184875
C	-1.3758168241	-0.541068476	-0.1010873455	-0.192642
C	-1.3823669498	-2.088658054	-0.0395638448	 0.187271
C	-0.5982170444	-2.7456003677	-1.1819036974	-0.399587
O	-0.7903064999	-2.5661531306	 1.164522053	-0.437208
C	-2.7963437602	-2.5418741138	-0.097891712	 0.25151
N	-3.9031343932	-2.8746628	-0.1150937377	-0.336962
H	 0.9571919536	 2.0464383967	 0.1822545341	 0.118355
H	-0.5565976908	 2.0681317928	-0.7312616875	 0.118711
H	-0.5894772262	 1.9113070762	 1.0287350766	 0.117049
H	 0.6049909427	-0.1705021228	-0.8962681797	 0.104691
H	 0.546449711	-0.3408381881	 0.8493940589	 0.113667
H	-1.999374993	-0.1732412124	 0.7252584855	 0.102739
H	-1.8802814565	-0.224878763	-1.0220453937	 0.116456
H	 0.4565567627	-2.4767421637	-1.0997597932	 0.138618
H	-0.6845503465	-3.8318732309	-1.1152441465	 0.145097
H	-0.9798523665	-2.4179707977	-2.1517141711	 0.132709
H	-1.2946254202	-2.220579041	 1.910208988	 0.291751
