17
gdb 36164	3.64851	1.21905	1.10834	1.6457	77.25	-0.2343	0.0506	0.2849	1123.6504	0.134479	-384.559556	-384.551859	-384.550915	-384.592075	30.07	
C	-0.0577406728	-1.2128321404	 0.0934282292	-0.451977
C	-0.0278736505	-0.0133371574	 0.0240991839	 0.302012
C	 0.0472825878	 1.4413320162	-0.062122336	-0.493944
C	 1.4709493687	 1.9498571758	-0.1104069631	 0.321438
C	 2.6069682952	 1.6880206966	-1.1231111274	-0.319646
C	 3.2653842901	 2.6407532318	-0.1003117243	-0.100476
C	 1.9382537323	 3.4246409223	 0.1335607316	 0.037035
O	 1.967043592	 3.2996955266	 1.5861687715	-0.329862
C	 2.4724825324	 2.0228499136	 1.0903677488	 0.063559
H	-0.1004616994	-2.2718287403	 0.1561454226	 0.197156
H	-0.5003850531	 1.7877018472	-0.9485567532	 0.133006
H	-0.4444915559	 1.8965202625	 0.8078685852	 0.147603
H	 2.9942896304	 0.6668809514	-1.1624427214	 0.110748
H	 2.4604815834	 2.0807525768	-2.133535591	 0.099636
H	 4.2745084934	 3.0489571465	-0.0676444795	 0.087613
H	 1.582514648	 4.3558031896	-0.3081857596	 0.094601
H	 2.760117518	 1.2542819313	 1.8069613228	 0.101499
