15
gdb 47150	3.40984	1.13031	0.85789	2.9723	73.65	-0.2613	-0.0419	0.2193	1255.4228	0.113637	-416.849909	-416.841976	-416.841032	-416.883269	28.664	
N	 0.1493582675	 1.2293697984	-0.7777246502	-0.554715
C	 0.0989792452	 0.0403635118	-0.3461944374	 0.360239
O	 1.0874690693	-0.9012545752	-0.4467919997	-0.244584
C	 0.6477098564	-2.1210988809	 0.1628470584	-0.139551
C	-0.7370410045	-1.8283368556	 0.6575488888	-0.210128
C	-1.0453174608	-0.5668609508	 0.3553068975	 0.256208
C	-2.286674265	 0.2355913516	 0.6126363493	-0.452212
C	-3.3205954734	-0.517923693	 1.317084653	 0.272115
N	-4.1251704641	-1.1312035202	 1.874561048	-0.309394
H	 1.0438724476	 1.4229267396	-1.229201805	 0.230218
H	 0.6739583768	-2.9248728235	-0.5843947272	 0.138584
H	 1.3423329203	-2.389229803	 0.9695175552	 0.138584
H	-1.3568231762	-2.5498075284	 1.1728269951	 0.148219
H	-2.0303948365	 1.134047217	 1.1870911966	 0.183209
H	-2.6864764927	 0.6082632922	-0.3382444423	 0.183208
