14
gdb 45972	3.06505	1.5059	1.17519	1.4073	62.57	-0.2614	-0.0544	0.207	1000.5335	0.101837	-473.850699	-473.843395	-473.842451	-473.882819	27.199	
O	 0.0478219794	-0.0216574748	 0.2106487511	-0.298814
C	 0.0037610159	 1.1716165513	 0.04290018	 0.404215
C	-1.3133179377	 1.9471140409	-0.0389161387	-0.268352
N	-1.2871584978	 2.9679422736	-1.0773154421	-0.348494
C	-0.1878268378	 3.6184531075	-1.5552630762	 0.436836
O	-0.2246706291	 4.4227566073	-2.465286724	-0.364514
C	 1.1147798511	 3.2656797026	-0.8751956583	-0.078809
O	 1.1163907776	 3.3026287393	 0.5476972087	-0.230073
C	 1.2318133968	 2.0199135139	-0.0751361228	-0.074176
H	-2.1058630262	 1.2262682405	-0.248872374	 0.146863
H	-1.502416677	 2.383493835	 0.9532334865	 0.150227
H	-2.1601945929	 3.2456169047	-1.5005364416	 0.261544
H	 1.9942968097	 3.6787801946	-1.3613387899	 0.136743
H	 2.189110858	 1.5146676633	 0.0231504213	 0.126805
