18
gdb 33095	6.30963	0.77436	0.69573	0.965	75.8	-0.1734	0.0702	0.2435	1594.6136	0.146747	-439.108984	-439.099522	-439.098578	-439.143382	34.49	
C	 0.0313702428	 1.5275152759	-0.0555250055	-0.391665
C	 0.0360418835	 0.0102651735	-0.0089896081	-0.038106
O	 0.6458031543	-0.4685940702	-1.1968500754	-0.273469
C	 0.7289551481	-1.8189089879	-1.3097525504	 0.378593
C	 0.3054655734	-2.7941411951	-0.4373622938	-0.236645
N	 0.6281217959	-4.0169098545	-1.0281027317	-0.312553
C	 1.2305083675	-3.7979678397	-2.2247885325	 0.416302
O	 1.6159709999	-4.8829969314	-2.9440485496	-0.436379
C	 1.3197738134	-2.4451450481	-2.4518518582	-0.442161
H	 1.0521888853	 1.913859026	-0.123694799	 0.12837
H	-0.5296255796	 1.8844743494	-0.9237657173	 0.128372
H	-0.4334630571	 1.9319859756	 0.8486131735	 0.114579
H	 0.5942511781	-0.355848854	 0.8664189123	 0.095892
H	-0.9886582547	-0.3852114068	 0.0657546305	 0.095876
H	-0.1807378036	-2.7502158845	 0.5198533419	 0.111898
H	 0.4508201378	-4.9269534825	-0.6431528213	 0.262858
H	 2.0221549294	-4.5735241829	-3.75889931	 0.307303
H	 1.7446297257	-1.9480389228	-3.3087128956	 0.090935
