19
gdb 120082	5.676	0.79522	0.79034	2.4656	75.09	-0.2312	0.0728	0.304	1468.3908	0.158521	-422.917401	-422.90922	-422.908275	-422.950864	30.986	
O	-0.0137772153	 1.4793382924	-0.0221562164	-0.42008
C	 0.0378958671	 0.0663734287	 0.1011371658	-0.067981
C	-1.3580512289	-0.4793211954	-0.1778309689	-0.202679
C	-1.4254142214	-1.9992300679	-0.1062306154	-0.040021
C	-1.4573074956	-2.697215738	 1.2778192649	-0.096663
C	-2.9925014465	-2.4530383194	 1.451856958	 0.089819
O	-3.304949559	-3.8461969573	 1.7479117055	-0.329715
C	-2.272677356	-3.9037076349	 0.7196560886	 0.084479
C	-2.8133658068	-2.6818322115	-0.0844509092	-0.109645
H	 0.8623108174	 1.8304568574	 0.1614346568	 0.285694
H	 0.7555617861	-0.3708946923	-0.6129158633	 0.08386
H	 0.3617024296	-0.2343812	 1.1108986604	 0.086745
H	-2.0569994024	-0.0274883912	 0.5363644603	 0.103403
H	-1.6662347163	-0.1385938274	-1.1741036664	 0.106991
H	-0.7210531474	-2.454074336	-0.8144011532	 0.067662
H	-0.71077684	-2.7322421045	 2.0717648719	 0.081373
H	-3.5289845213	-1.6757614126	 1.9939142094	 0.09904
H	-1.930585677	-4.8768571376	 0.3682819312	 0.095164
H	-3.6009142764	-2.6929849725	-0.8384338498	 0.082553
