19
gdb 61466	4.34261	0.84637	0.76209	4.7101	72.7	-0.2349	0.0116	0.2465	1487.8092	0.159631	-456.35366	-456.344235	-456.343291	-456.388658	34.565	
N	-0.1414085759	 1.2994372561	-0.1878929114	-0.51435
C	-0.0289598814	 0.0111691796	 0.222037407	 0.425614
O	 1.0366154089	-0.4429354175	 0.62362433	-0.381549
C	-1.302124014	-0.8222310883	 0.1631676656	-0.33552
C	-1.0059453008	-2.3094487037	-0.1297687284	 0.102273
O	-0.1715340438	-2.8594588502	 0.8658689735	-0.446331
C	-2.2936159923	-3.1119667824	-0.1733913638	 0.010333
C	-2.2840589617	-4.5622377801	 0.1190511097	-0.247026
N	-2.8747336727	-3.6090194005	 1.0826074105	-0.328793
H	 0.6642383776	 1.8997401422	-0.1144151958	 0.267186
H	-1.0126470849	 1.6894289178	-0.5005049894	 0.266545
H	-1.7952483095	-0.7516747179	 1.1408805133	 0.146093
H	-1.9970744146	-0.4187941988	-0.5814941682	 0.10336
H	-0.5232199716	-2.3724204969	-1.1212104338	 0.07319
H	 0.5543697939	-2.2202521163	 0.9770257037	 0.302349
H	-3.026364171	-2.7277751043	-0.8816062091	 0.078978
H	-2.996129398	-5.2177861567	-0.3742634915	 0.109317
H	-1.3297088526	-5.0114130763	 0.3729353679	 0.129737
H	-2.1811481656	-3.4534878557	 1.8134298402	 0.238595
