15
gdb 8020	3.37141	2.13202	1.58743	5.1998	60.75	-0.2383	0.0028	0.2411	819.0905	0.119033	-399.79434	-399.787329	-399.786385	-399.825415	26.462	
C	-0.1598359742	 1.5815677235	 0.0262731621	-0.480082
C	 0.0510944139	 0.0969079368	 0.0989715819	 0.436378
C	-1.1284558784	-0.8997406392	 0.1817637054	-0.220207
N	-0.3612970909	-1.7498480263	 1.1397880716	-0.31694
C	 0.727324192	-0.7370863686	 1.2177664035	-0.265289
C	 1.7759567193	-1.0440000013	 0.1389356267	 0.484366
O	 2.8034767612	-1.62632612	 0.0253710403	-0.323239
O	 1.0816387279	-0.3641651134	-0.8442974865	-0.291669
H	 0.7878146668	 2.1142512283	 0.1454956727	 0.137883
H	-0.585754111	 1.8592083975	-0.9438615785	 0.142113
H	-0.8493925069	 1.9119068267	 0.8086274263	 0.127039
H	-2.0278662038	-0.4425079991	 0.6101656829	 0.107234
H	-1.3886870432	-1.4039670237	-0.7533831828	 0.125809
H	-0.8330075608	-1.8865857707	 2.0247114828	 0.233456
H	 1.050679758	-0.3896075406	 2.1986093716	 0.103149
