25
gdb 68592	1.97831	1.79481	1.50824	0.0857	91.69	-0.2685	0.0787	0.3472	1108.335	0.229817	-352.360549	-352.351359	-352.350415	-352.393301	37.654	
C	 0.1002903157	 1.476332961	-0.06436258	-0.50659
C	 0.0298926466	-0.0341133384	-0.0561048984	 0.333311
C	 0.3933535942	-0.9017209903	-1.3017435051	-0.280855
C	-0.4268288473	-1.9851302514	-0.545380852	-0.046634
C	 0.5077803155	-2.2561509776	 0.6507388967	-0.228365
C	 0.8535937422	-0.7762202529	 1.0240461827	-0.254335
C	-1.3473470895	-0.8213527911	-0.0259512042	 0.322805
C	-2.0771317972	-0.9856810766	 1.3113548808	-0.47049
C	-2.3830066534	-0.3348735199	-1.0500203668	-0.4626
H	 1.1327718854	 1.820673547	-0.1970999326	 0.112906
H	-0.4985937134	 1.9066536122	-0.873850422	 0.11254
H	-0.2647838824	 1.8962442583	 0.8807281501	 0.112275
H	-0.0535241206	-0.5589865459	-2.2331932558	 0.093485
H	 1.4554288844	-1.1093761121	-1.4674009287	 0.080385
H	-0.8494844236	-2.85096556	-1.0590957056	 0.048494
H	 0.0242662018	-2.8043912356	 1.4631469478	 0.093456
H	 1.3908153807	-2.8275485072	 0.3500598105	 0.091291
H	 1.9213064948	-0.5566932776	 0.9242490825	 0.089096
H	 0.5596202537	-0.5065728279	 2.0422052761	 0.091411
H	-1.4422682721	-1.3405312459	 2.12394768	 0.113726
H	-2.5120885985	-0.0302877405	 1.6282177097	 0.110233
H	-2.9057881411	-1.6962440026	 1.2084334028	 0.110063
H	-3.1947104762	-1.0662433632	-1.1388554073	 0.110206
H	-2.835416406	 0.6073636817	-0.7197893548	 0.111248
H	-1.9823348637	-0.1712035436	-2.0512096764	 0.112939
