17
gdb 5612	3.14715	1.78002	1.15322	0.3657	70.99	-0.1938	0.058	0.2518	1015.7961	0.14248	-363.895693	-363.887232	-363.886288	-363.92914	30.504	
C	-0.0273906946	 1.5140364538	 0.0227305626	-0.508417
C	-0.0094287479	 0.0152723661	 0.01452288	 0.179296
C	-0.0245957197	-0.8007060874	-1.0940538615	-0.16377
N	 0.0013560199	-2.1050507435	-0.6681732327	-0.252125
C	 0.0328212039	-2.1424638103	 0.7028011364	-0.157659
C	 0.0275689197	-0.8455787054	 1.1584007465	 0.197515
C	 0.0558986989	-0.4171868693	 2.5910618759	-0.195672
O	 0.0774422873	-1.5731516337	 3.4169732447	-0.418923
H	 0.8618617972	 1.9334529481	 0.5104748924	 0.119296
H	-0.0604130764	 1.9133518185	-0.9952199928	 0.117024
H	-0.8983292543	 1.9118371352	 0.5591466413	 0.119341
H	-0.0516684004	-0.5541831871	-2.1439499521	 0.110913
H	-0.0037077775	-2.9104092279	-1.2676256477	 0.257093
H	 0.0560237406	-3.0708743731	 1.2471335501	 0.129558
H	 0.9404623354	 0.2165688618	 2.7799186871	 0.090137
H	-0.824712508	 0.2101041775	 2.8163937062	 0.090053
H	 0.1026108259	-1.2826406633	 4.3326375837	 0.28634
