19
gdb 81228	2.54445	1.8763	1.45851	0.8385	74.94	-0.2328	0.0599	0.2927	961.747	0.161	-422.953435	-422.946343	-422.945399	-422.984382	29.938	
O	-0.0585568073	 1.4188619123	-0.0836742161	-0.444116
C	 0.0225178669	 0.0149278984	 0.0111188325	 0.107842
C	 0.0056220035	-0.6241781602	 1.4241254601	 0.047455
C	-1.5134677988	-0.2026952072	 1.4928018349	-0.355717
C	-1.4024095837	-0.621815912	-0.0039233824	 0.272254
C	-2.0727210358	-0.9589742516	-1.3561759419	-0.356198
C	-1.1015692107	-2.2073774105	-1.4156352151	-0.292913
C	-1.0324269508	-2.0792381137	 0.1427692952	 0.143785
O	 0.0675482202	-2.0298547108	 1.0713702681	-0.302215
H	 0.8157877122	 1.7785006545	 0.0962312818	 0.286641
H	 0.7822618445	-0.3957721174	-0.6635425267	 0.069981
H	 0.7239764703	-0.4034995051	 2.2130295225	 0.079054
H	-2.1809375783	-0.7909251951	 2.1261839982	 0.098331
H	-1.6134995191	 0.8645701393	 1.6810152999	 0.12092
H	-3.1163455873	-1.2688255739	-1.2578787782	 0.111797
H	-1.9929779989	-0.2119766173	-2.1474590041	 0.115965
H	-1.5076530481	-3.1403102479	-1.8105332757	 0.101519
H	-0.1663948513	-1.9765307782	-1.9263138077	 0.118272
H	-1.8321906673	-2.6924650435	 0.5766589147	 0.077344
