19
gdb 47520	2.50063	1.78004	1.3024	3.0399	74.09	-0.2314	-0.0184	0.213	1016.2334	0.16166	-423.042669	-423.035298	-423.034354	-423.07436	29.531	
O	 0.0488652169	 0.0328721077	-0.535130206	-0.310708
C	 0.0218917013	 1.1501882252	-0.0733683223	 0.374818
C	-1.2693028379	 1.9050896887	 0.2133894463	-0.289595
C	-1.3705817548	 3.2602913779	-0.5263950536	-0.225523
C	-0.4282170957	 4.3699656082	-0.0223641318	-0.201569
C	 1.0285924916	 3.9565102735	 0.1666485626	 0.11592
C	 1.623854418	 2.977332903	-0.8703212013	-0.287545
C	 1.3175453338	 1.907901554	 0.2100850259	 0.010807
O	 1.1380430299	 2.9391173954	 1.203057201	-0.290268
H	-2.0939296959	 1.2500721916	-0.077765849	 0.116026
H	-1.3266193605	 2.0788975221	 1.2947669947	 0.130536
H	-1.2127574842	 3.0911368819	-1.5985031941	 0.110283
H	-2.4005405806	 3.6201948927	-0.4333685435	 0.11028
H	-0.4738922778	 5.222893692	-0.7116316107	 0.099933
H	-0.7795560311	 4.7351149465	 0.9509226157	 0.113712
H	 1.6434601773	 4.828786454	 0.4124136622	 0.082343
H	 1.133897035	 2.8839963914	-1.840596717	 0.118462
H	 2.6960730051	 3.1137426618	-1.0151449134	 0.121358
H	 2.1126897796	 1.2014113826	 0.4608395343	 0.100729
