14
gdb 3053	10.35111	1.17363	1.12739	4.49	56.09	-0.2613	0.0041	0.2654	1003.5229	0.113143	-361.698635	-361.691457	-361.690513	-361.731108	24.221	
O	 0.0611196097	 0.1401902669	 0.510901866	-0.269574
C	 0.1838885539	 1.2286446648	 0.0383992545	 0.175972
O	 0.6488577453	 2.2811098122	 0.7386191489	-0.173107
C	 0.7751749918	 3.5429901918	 0.065888119	-0.118049
C	 2.2216317556	 3.9189088216	-0.1031319342	 0.028106
C	 2.6107800037	 5.3486648119	 0.0100653189	-0.243769
N	 3.0078228035	 4.3849143255	 1.0445219655	-0.298126
H	-0.0722755816	 1.4902400524	-1.0079583199	 0.076126
H	 0.2695020148	 3.4971897633	-0.9080965673	 0.117869
H	 0.2539310882	 4.2808097589	 0.6856527627	 0.1172
H	 2.7797857034	 3.2753760015	-0.7805231212	 0.104583
H	 3.4238019742	 5.7364030801	-0.5961357775	 0.129415
H	 1.8303262073	 6.0723186249	 0.2342188165	 0.115099
H	 2.4139700401	 4.4734774642	 1.866069528	 0.238254
