18
gdb 90477	2.72394	1.36139	1.19931	2.2628	72.	-0.2509	0.0034	0.2542	1089.7356	0.14846	-439.088543	-439.080399	-439.079455	-439.121362	30.77	
O	 0.077553309	 1.2193009372	-0.1141194331	-0.439479
C	 0.1132698844	-0.1984370618	-0.0691016261	 0.107833
C	 0.7074412664	-0.7680067969	 1.2484257701	-0.264164
C	-0.1035419094	-2.0126305795	 1.5546985968	-0.03439
C	-1.355943775	-1.9907332524	 0.7034939094	-0.060282
C	-1.3388768415	-0.7241613844	-0.1334181098	-0.236176
N	-0.3024317532	-2.963888467	 0.4871625185	-0.060866
C	 0.4769004059	-3.2178307044	-0.6155735792	 0.146068
O	 1.6861033041	-3.2559296777	-0.6187930386	-0.308978
H	 0.9768351132	 1.5373871321	-0.2408746202	 0.285615
H	 0.6880341745	-0.582114722	-0.9212053435	 0.092544
H	 1.7780725202	-0.9731043063	 1.1677303151	 0.127703
H	 0.5500711005	-0.0352253712	 2.0476479147	 0.113641
H	-0.1000058452	-2.4253714873	 2.5592605751	 0.10552
H	-2.3030133297	-2.3859457722	 1.059388784	 0.103645
H	-1.9952101543	 0.0192238263	 0.3330912661	 0.126028
H	-1.6861472782	-0.8681565734	-1.1603478153	 0.113927
H	-0.1382027615	-3.4576638991	-1.505316824	 0.08181
