15
gdb 1801	3.94033	2.5484	1.79123	2.3978	57.9	-0.2381	-0.0129	0.2252	725.8809	0.122687	-345.660927	-345.653313	-345.652368	-345.69255	27.792	
C	-0.0289639657	 1.4782000888	 0.1353463513	-0.481354
C	 0.0190135581	-0.0291986909	-0.0112304709	 0.328436
O	 1.0624337891	-0.6400317843	-0.1145366662	-0.321809
C	-1.2995066287	-0.7531355431	-0.0154236068	 0.272451
O	-2.456208252	 0.0269412302	 0.107618476	-0.4581
C	-1.3720363704	-2.0552016085	-0.7953696096	-0.303374
C	-1.3347308854	-2.0869968083	 0.7014442711	-0.268187
H	 0.9873506522	 1.8661981242	 0.2074270947	 0.138673
H	-0.5306313912	 1.9293674366	-0.7289531703	 0.128361
H	-0.6162175314	 1.7604606721	 1.0139965252	 0.152189
H	-2.6890028596	 0.3651305491	-0.763675181	 0.286427
H	-2.3181598578	-2.2620202731	-1.2830563404	 0.117221
H	-0.4768451365	-2.3434321317	-1.3334699591	 0.140413
H	-0.4161838819	-2.4021083441	 1.1813210584	 0.139685
H	-2.2563449388	-2.3003038969	 1.2296460374	 0.128969
