18
gdb 18295	3.08873	2.09868	1.8624	1.7755	66.94	-0.2471	0.0807	0.3278	822.4379	0.155611	-384.923618	-384.916452	-384.915508	-384.954788	27.607	
C	-0.2131738445	 1.5323122636	 0.1061995242	-0.413715
C	-0.0044963919	 0.0384245993	-0.0084743344	-0.039683
C	 0.7031752608	-0.6070747092	-1.1866713115	-0.109527
C	 1.380221657	 0.187833261	-2.2893175001	-0.105603
O	 2.3632502998	 1.0979146563	-1.7969729015	-0.229847
C	 3.16741985	 0.4989830612	-0.8198252997	 0.013084
O	 2.4584925835	 0.2550902207	 0.3700733564	-0.239382
C	 1.3554113263	-0.5917337932	 0.1794325016	 0.075453
H	 0.6501023316	 2.084820931	-0.266201338	 0.145405
H	-1.0935439966	 1.8457617894	-0.4654184371	 0.111043
H	-0.3758253602	 1.8183882682	 1.1507434536	 0.117248
H	-0.8230656625	-0.5574974224	 0.3889131458	 0.083286
H	 0.3069819116	-1.5595052007	-1.5263701166	 0.090738
H	 1.8588685132	-0.516266641	-2.989095256	 0.097169
H	 0.668098395	 0.7941810777	-2.8575030595	 0.116306
H	 3.5983520608	-0.4417094504	-1.2084194476	 0.078549
H	 3.9595982529	 1.2075977016	-0.5714517461	 0.117686
H	 1.4371090932	-1.5148129931	 0.7485890165	 0.091791
