17
gdb 26954	3.03019	1.27598	0.95954	2.6243	76.27	-0.1992	0.0413	0.2405	1203.9694	0.137233	-418.011771	-418.00329	-418.002346	-418.045744	31.229	
N	 0.3177951655	 1.4244767851	 0.3708366899	-0.619037
C	 0.065691848	 0.0555150797	 0.1138419832	 0.143759
C	-1.0708353626	-0.6692086195	-0.2019217967	 0.280273
C	-0.6725586565	-2.031592652	-0.3512311397	-0.268478
C	 0.6803848664	-2.0960464661	-0.1235324867	-0.080403
N	 1.1179336685	-0.8259545289	 0.1509497073	-0.248144
C	-2.4286185613	-0.1168995237	-0.3438178585	-0.044412
C	-3.3814849187	-0.564905945	-1.3762810469	-0.186569
O	-3.5318214292	-0.9815738324	-0.0213343254	-0.239075
H	-0.0794984739	 2.0238552737	-0.3432390877	 0.246021
H	-0.0585652063	 1.723547413	 1.2652519577	 0.24641
H	-1.3250451311	-2.8633977875	-0.5663513619	 0.103877
H	 1.3599123174	-2.9327011811	-0.1256165076	 0.11893
H	 2.0636034847	-0.5397587603	 0.3382011484	 0.259961
H	-2.5504076944	 0.9028333516	 0.0259146522	 0.067396
H	-4.1458341377	 0.1188826033	-1.7464320079	 0.108058
H	-3.0726805888	-1.34139836	-2.0749083999	 0.111434
