19
gdb 116965	4.61168	0.51952	0.48033	1.1569	81.66	-0.2469	0.0543	0.3012	2236.5055	0.156988	-422.967793	-422.957479	-422.956534	-423.005826	35.2	
O	-0.136062518	 1.1653023918	 0.63398186	-0.416368
C	-0.3849792068	-0.2299729432	 0.6696368808	-0.063247
C	-0.978312387	-0.6125898694	-0.6909116683	-0.324643
C	-1.2836162548	-2.0342211414	-0.7853200612	 0.054159
C	-1.5174841549	-3.214362799	-0.8339903663	 0.071903
C	-1.8351526037	-4.6383352585	-0.8834866279	-0.380964
C	-2.8711497203	-5.0463753944	 0.1502908827	 0.112158
C	-2.8975999538	-6.3983032743	 0.7184807892	-0.182022
O	-2.3959482692	-5.2911152406	 1.4711787676	-0.225912
H	 0.2288306454	 1.4280813297	 1.4837046196	 0.288923
H	 0.5371010056	-0.8051660539	 0.8401972865	 0.098886
H	-1.0950870158	-0.4983874393	 1.4656228667	 0.101136
H	-1.8819494529	-0.0126927149	-0.8545782697	 0.135092
H	-0.267662813	-0.3191334466	-1.4733268694	 0.13575
H	-2.2141163794	-4.9001365842	-1.8812175547	 0.131272
H	-0.9307010306	-5.2377222567	-0.7227028904	 0.133235
H	-3.8044357256	-4.4839244242	 0.1088607156	 0.101318
H	-3.8368119125	-6.8212420766	 1.0718848882	 0.116147
H	-2.1500678826	-7.1273306042	 0.4066762409	 0.113177
