17
gdb 84406	2.5338	1.36381	1.10325	2.6291	74.68	-0.2472	-0.0406	0.2066	1146.0551	0.134234	-421.866789	-421.858116	-421.857171	-421.900958	31.288	
C	-0.0776365922	 1.5966636345	-0.1166854965	-0.393343
C	 0.01712573	 0.0625162242	-0.0727258412	-0.145604
C	 0.853022292	-0.5731217403	-1.1550281008	-0.083583
C	 1.8391385351	-1.3377958534	-0.6852027546	-0.069643
C	 1.8635018436	-1.3753442854	 0.816635773	-0.264378
C	 3.1679543118	-0.944133941	 1.4752282035	 0.151557
O	 4.1905103616	-0.7407242646	 0.8768190821	-0.234658
C	 0.7019729709	-0.432128922	 1.2130066152	 0.379305
O	 0.4147299423	-0.1212088642	 2.3386316085	-0.31409
H	 0.9181327547	 2.0490802246	-0.150058205	 0.128571
H	-0.6298442921	 1.9251596904	-1.0018176358	 0.121374
H	-0.5941871168	 1.9631124784	 0.774147321	 0.141868
H	-1.0061147416	-0.3424134627	-0.0725917392	 0.114454
H	 0.6524005636	-0.4019675887	-2.2068643846	 0.107557
H	 2.5655968265	-1.8693185445	-1.285962565	 0.12009
H	 1.633706643	-2.3664129358	 1.2408587166	 0.134193
H	 3.0929548974	-0.8275712895	 2.5769629029	 0.10633
