16
gdb 45362	3.15601	1.69345	1.48372	4.3085	65.14	-0.2504	0.0479	0.2983	913.1023	0.127187	-475.045313	-475.038662	-475.037717	-475.07672	26.274	
N	-0.0429304377	 1.2668887087	-0.5876069968	-0.547917
C	 0.0172180495	 0.1332243043	-0.0421732887	 0.466315
O	-1.1428150053	-0.5007538033	 0.2693751078	-0.258942
C	-1.0958549163	-1.7762852242	 0.9250101149	 0.08715
C	-0.6140987566	-1.6183334404	 2.3702739835	-0.097275
O	 0.8245143002	-1.61024435	 2.2677669043	-0.255943
C	 1.1596842713	-1.7690408817	 0.9167880982	 0.217455
C	 0.0352042964	-2.6052065315	 0.3192566306	-0.290604
O	 1.1951190621	-0.5022456622	 0.2388176162	-0.279074
H	 0.8986622903	 1.6103147356	-0.7632659941	 0.228933
H	-2.0995332839	-2.1897936748	 0.8349413377	 0.10812
H	-0.9624991474	-0.682410401	 2.8147780091	 0.136334
H	-0.9275186456	-2.4598556236	 2.9992531263	 0.114602
H	 2.176014953	-2.1538606365	 0.85077838	 0.108926
H	 0.0492879543	-3.622670413	 0.7166752892	 0.125773
H	 0.0281570156	-2.6244255064	-0.7706414084	 0.136147
