19
gdb 13103	3.98002	1.2142	1.02123	2.077	75.59	-0.246	0.0314	0.2773	1221.7737	0.164668	-365.067045	-365.058096	-365.057152	-365.101711	31.459	
C	-0.6135321867	 0.0638953155	 0.8016622092	-0.359366
C	 0.3751620955	 0.5276239756	-0.268443364	-0.148081
N	 0.6492385828	-0.5571965774	-1.2080439883	-0.333838
C	 1.830303045	-0.830975907	-1.5098039764	 0.462271
O	 3.0269122151	-0.2557995396	-1.0992826645	-0.269272
C	 3.7981190627	-1.2299058617	-1.8641119345	-0.089521
C	 2.4939273054	-1.8756747369	-2.3885296224	-0.144547
C	 2.212019231	-3.3354214184	-2.0559580468	-0.402488
H	-1.5307437339	-0.3119521708	 0.3392305757	 0.122939
H	-0.1846884311	-0.743715466	 1.4032497882	 0.115106
H	-0.8723993851	 0.8894170292	 1.4724204388	 0.106697
H	-0.0705333843	 1.354763591	-0.8364206185	 0.106384
H	 1.2892687269	 0.9152806822	 0.2002969603	 0.1086
H	 4.4364253795	-0.7345415583	-2.5999403923	 0.117731
H	 4.401008102	-1.8576746862	-1.2010699063	 0.116146
H	 2.3243267314	-1.6816380756	-3.4517537307	 0.106392
H	 2.4040648659	-3.5428153083	-0.9984083519	 0.123767
H	 1.1641219814	-3.5727301338	-2.2587630809	 0.142376
H	 2.8376895964	-4.0038424136	-2.6559392349	 0.118705
