20
gdb 121296	4.48702	0.89792	0.7836	2.1964	77.47	-0.2505	0.0264	0.2769	1491.1067	0.171465	-440.302587	-440.293569	-440.292625	-440.337255	32.706	
C	-0.1194383318	 1.5165549798	-0.0521652553	-0.385868
C	-0.0159332109	 0.0022973018	-0.0413766396	-0.049242
O	-1.3391724039	-0.5321464785	-0.0824279455	-0.241544
C	-1.4164150239	-1.9047701718	 0.0132815799	 0.241353
C	-2.8654573851	-2.3317467956	 0.1580028417	-0.265025
C	-2.9556657702	-3.858880876	 0.0650198143	-0.164997
N	-2.2085022808	-4.412879067	-1.0603619771	-0.263025
C	-1.2915781053	-3.7030770942	-1.56170278	 0.133174
O	-0.8437266749	-2.4780810599	-1.1858569765	-0.248361
H	 0.8786264453	 1.9633328693	-0.019709336	 0.118482
H	-0.6231170044	 1.8597795872	-0.9600850871	 0.131771
H	-0.6886078145	 1.8720986742	 0.8113927981	 0.126493
H	 0.5576637378	-0.3589944494	-0.9033534029	 0.116045
H	 0.4922597651	-0.3505301683	 0.8700734176	 0.091035
H	-0.8017029145	-2.2752374177	 0.8519218211	 0.072471
H	-3.2621624499	-1.9569505002	 1.1056676682	 0.111147
H	-3.4338249298	-1.8637481346	-0.6525492738	 0.124763
H	-2.5892953884	-4.3269390977	 0.989188057	 0.112269
H	-4.0010732569	-4.1684518388	-0.0347606457	 0.116029
H	-0.7253669229	-4.0514702728	-2.4238526684	 0.12303
