21
gdb 72911	2.61338	1.73738	1.37821	1.144	80.23	-0.252	0.078	0.33	1022.9579	0.18431	-387.076879	-387.069143	-387.068199	-387.108576	32.228	
O	 0.0415072322	 1.2754434882	-0.378327389	-0.484591
C	 0.037578655	-0.0771360355	 0.0440516023	 0.42275
C	 0.3374649585	-1.07998768	-1.116797734	-0.289024
C	-1.1705921337	-1.4602528756	-1.1664331747	-0.2306
C	-1.4179053072	-0.6321488413	 0.1317745969	-0.044263
C	-1.5131073633	-1.3712873519	 1.4567087737	-0.04653
C	-0.5722771368	-2.5255249208	 1.7191674598	-0.296456
C	-0.2288558214	-1.1554870317	 2.242191143	-0.02514
C	 0.7156635814	-0.2849771281	 1.4212405297	-0.315117
H	 0.9486936042	 1.5129473189	-0.60008694	 0.272844
H	 0.7331074716	-0.602062919	-2.0168028356	 0.091566
H	 1.0029716518	-1.9014047717	-0.8371414893	 0.095473
H	-1.6838999946	-1.0498533016	-2.0384744507	 0.102668
H	-1.401937311	-2.5252195263	-1.096777408	 0.098703
H	-2.1891188612	 0.1368252192	 0.0533734339	 0.075606
H	-2.4724863159	-1.3898814832	 1.9616945372	 0.079891
H	-0.8953007035	-3.2670146346	 2.4422631508	 0.107575
H	 0.007080679	-2.9430929228	 0.9019689778	 0.10971
H	-0.2543253075	-1.001035469	 3.3154282672	 0.080906
H	 1.7205981236	-0.7154921626	 1.3309215836	 0.090601
H	 0.8160387886	 0.6972312694	 1.8950532552	 0.103428
