13
gdb 21821	6.06971	1.43848	1.16288	4.1651	62.91	-0.2228	-0.0102	0.2126	940.3557	0.097937	-394.819343	-394.812466	-394.811521	-394.850957	24.717	
O	-0.3529096272	 0.0859122969	 0.0048535925	-0.290951
C	-0.1001886552	 1.2665934444	 0.0089418011	 0.150579
N	 1.1614927582	 1.8098606848	-0.0004409437	-0.418147
C	 2.3506912093	 1.0835675564	-0.0163122087	 0.496028
C	 2.6135883764	-0.2720286071	-0.0301695713	-0.295705
C	 4.0243984658	-0.3414679584	-0.0423094856	 0.007075
N	 4.5991689738	 0.8547435051	-0.036324716	-0.228215
N	 3.5538560629	 1.7170098153	-0.020520535	-0.288465
H	-0.8713780485	 2.0599563311	 0.0209627801	 0.08921
H	 1.2226561119	 2.8165575793	 0.0035606894	 0.255287
H	 1.8864034454	-1.0625309101	-0.0309375518	 0.140843
H	 4.6422121874	-1.2275433539	-0.0550722012	 0.114599
H	 3.7395811898	 2.7054315763	-0.0132235397	 0.267859
