18
gdb 106586	2.7637	1.4292	1.27448	1.4298	71.62	-0.2424	-0.0084	0.234	1053.1435	0.148583	-439.022897	-439.015019	-439.014074	-439.055174	31.376	
O	 0.0168031155	 1.3960819121	-0.0403941175	-0.419618
C	 0.0531118237	-0.0212503054	 0.0061492123	-0.183474
C	-1.3376131512	-0.5993235074	-0.021347346	 0.206769
N	-2.2467217812	-0.2720803248	 1.1607856169	-0.351309
C	-3.0857952323	-1.3906549699	 0.5648948903	-0.114703
C	-3.4513027559	-0.7504924851	-0.7763092858	-0.087765
C	-2.2884350128	-0.2189122353	-1.166063817	-0.10665
C	-1.7353759477	-2.1153908052	 0.1895729871	 0.106047
O	-1.6446081064	-3.0581649907	-0.8235032305	-0.429712
H	-0.6741190697	 1.6738083354	 0.5732255559	 0.294627
H	 0.6205513754	-0.3545903386	-0.8698114341	 0.116872
H	 0.5900715796	-0.382651943	 0.8991891297	 0.084981
H	-1.7942231063	-0.6504221903	 2.0006920835	 0.209133
H	-3.8647265917	-1.8377204804	 1.1810000355	 0.073947
H	-4.4233843708	-0.7405306518	-1.2471561263	 0.114242
H	-2.0283345192	 0.360198639	-2.0396992538	 0.121599
H	-1.2443324332	-2.5468909402	 1.0678109696	 0.089952
H	-2.0862030559	-2.6783666284	-1.5961448997	 0.275063
