19
gdb 76428	2.99968	1.04259	0.9595	4.7139	76.18	-0.2322	0.0275	0.2597	1301.0589	0.157781	-419.19722	-419.187027	-419.186082	-419.232399	36.764	
C	-0.038596891	 1.4543272934	-0.2909240216	-0.422579
C	 0.0540803665	-0.0273047238	 0.0052771515	-0.109785
C	 1.3916919916	-0.7646442027	-0.0289318601	 0.024976
O	 2.5687028515	-0.0233275663	-0.1685532063	-0.420537
C	 0.671890694	-0.5507276935	 1.2853775701	 0.299554
N	 1.1771169314	 0.3921870762	 2.2568547728	-0.574108
C	-0.0136661206	-1.7415892327	 1.9420610082	-0.39039
C	 0.9045015681	-2.5296812689	 2.7687619119	 0.263428
N	 1.6462287292	-3.128136941	 3.4225303794	-0.312228
H	 0.9158443941	 1.9612233742	-0.1300890339	 0.122315
H	-0.3284463629	 1.6195484719	-1.3340354165	 0.118139
H	-0.7847597761	 1.9388434333	 0.3458639493	 0.134511
H	-0.7910938696	-0.6054589815	-0.3623393517	 0.083589
H	 1.4264249287	-1.7634479683	-0.4647651484	 0.088236
H	 2.6436266753	 0.2594541984	-1.0861978406	 0.294805
H	 1.7466108998	-0.1120805117	 2.9346609695	 0.244462
H	 1.8215167372	 1.0261147553	 1.7931679901	 0.246221
H	-0.8335648828	-1.3852813555	 2.5767881725	 0.161707
H	-0.4484911143	-2.398551217	 1.1826588037	 0.147682
