21
gdb 66230	4.42466	0.62701	0.61038	0.9487	85.21	-0.2574	0.0529	0.3103	1871.688	0.179683	-387.043759	-387.033501	-387.032557	-387.079579	38.077	
O	-0.3252536787	 1.3827862544	-0.2041435224	-0.471471
C	-0.0458462811	 0.0130950908	-0.0454570069	 0.419587
C	 1.0950184792	-0.5012850646	-0.9031930993	-0.245458
C	 2.4432299948	 0.1495239313	-0.5722721498	-0.186056
C	 3.5897008067	-0.3899792787	-1.450732115	-0.355378
C	 4.8769520485	 0.2245486581	-1.1496983612	 0.289915
C	 5.9256694353	 0.746937985	-0.8807058356	-0.435502
C	-0.2999177656	-0.5893223009	 1.3160013639	-0.320385
C	-1.2620708541	-0.8330499724	 0.1673077559	-0.304445
H	 0.3554224859	 1.8811974382	 0.2603166541	 0.28348
H	 1.1710469917	-1.5886545862	-0.7778609261	 0.093429
H	 0.8484373968	-0.3191181186	-1.9575076369	 0.104765
H	 2.377484069	 1.2343707945	-0.714558258	 0.105804
H	 2.6917453523	-0.0177347306	 0.482326998	 0.110209
H	 3.6659707291	-1.4780158544	-1.3229714068	 0.128994
H	 3.3453218465	-0.2271574073	-2.5087042078	 0.131835
H	 6.8579005745	 1.2010831833	-0.6531362085	 0.193221
H	 0.3263539702	-1.4096267699	 1.6511013279	 0.109583
H	-0.6287885356	 0.0826866157	 2.1008679792	 0.11333
H	-2.2119076135	-0.3122950094	 0.1973839717	 0.123508
H	-1.2934100617	-1.8191615481	-0.2832309564	 0.111033
