19
gdb 36895	3.61011	1.19969	1.10803	1.5494	75.09	-0.2272	0.0722	0.2994	1166.6538	0.15894	-422.943677	-422.935724	-422.93478	-422.976627	30.604	
C	-0.4614964865	 1.0173351982	 0.6415081182	-0.289475
C	 1.0177889683	 0.8772041168	 0.3377851366	-0.289876
C	 0.0747449188	-0.2259517661	-0.0139110696	 0.136693
O	 0.195265132	-1.3995822344	 0.7447334464	-0.250966
C	-0.9893757567	-2.1166394155	 0.867034402	 0.111427
C	-1.2027191571	-2.9846819644	 2.0712366681	-0.203801
C	-0.740905001	-2.2241849287	 3.3122165391	-0.081925
O	-1.5631604404	-1.072387567	 2.9757942699	-0.277732
C	-2.077612933	-1.7515370247	 1.8342817581	 0.05006
H	-0.7660438878	 0.9131190377	 1.6760281849	 0.145919
H	-1.0532709764	 1.7034480099	 0.0450358407	 0.106492
H	 1.450263806	 1.4627218945	-0.4656722908	 0.111087
H	 1.6797282456	 0.6943038063	 1.1764440859	 0.124177
H	-0.1546019313	-0.4036871739	-1.0647169166	 0.081978
H	-1.3619826214	-2.5540427351	-0.062295237	 0.089414
H	-1.4124774071	-4.0447311811	 2.0215676138	 0.102191
H	-1.0856439587	-2.6715542988	 4.2499201439	 0.110024
H	 0.3215437644	-1.9712409156	 3.3748338235	 0.120451
H	-3.1260317976	-1.612827168	 1.5928442428	 0.103862
