22
gdb 9917	4.61402	0.91296	0.8608	1.0231	79.42	-0.2495	0.0852	0.3348	1444.1361	0.198669	-350.186278	-350.176595	-350.175651	-350.221046	35.044	
C	 0.1155190259	 1.3100519952	-0.2095813365	-0.226841
O	 0.0240047834	-0.0585079873	 0.0977351052	-0.228406
C	-1.2827792641	-0.570895795	-0.0577486102	-0.049977
C	-1.2617876083	-2.0515713788	 0.3111147482	-0.278735
C	-2.5927772804	-2.758819784	 0.1060971911	 0.384094
C	-3.7345467608	-2.2892866556	 0.9905432629	-0.46183
C	-2.9325296128	-3.2200742146	-1.2936209564	-0.295029
C	-2.5459963276	-4.2288079894	-0.2371934582	-0.31401
H	 1.1554595222	 1.6120901892	-0.0614173039	 0.124563
H	-0.168218487	 1.5162969951	-1.2544608786	 0.100649
H	-0.5277679192	 1.921865729	 0.4436777466	 0.100611
H	-1.9859703247	-0.0127743068	 0.5831449355	 0.08335
H	-1.6259593137	-0.4421608313	-1.0990255296	 0.084849
H	-0.4880831821	-2.5347974943	-0.2963401063	 0.101332
H	-0.9421756926	-2.1469140993	 1.3568785551	 0.101523
H	-3.9969569526	-1.2425041663	 0.8011047406	 0.116464
H	-4.6351057078	-2.8872764829	 0.8190350937	 0.111579
H	-3.473402225	-2.3789131803	 2.0519217621	 0.114686
H	-3.969703049	-3.1830992359	-1.6101927336	 0.106566
H	-2.2214832952	-3.019023489	-2.0884446493	 0.108725
H	-1.5758947519	-4.7077631692	-0.3196598633	 0.109055
H	-3.3236637868	-4.8710309282	 0.163073675	 0.106781
