19
gdb 81016	2.56141	1.81039	1.35228	1.1527	75.13	-0.2359	0.0037	0.2396	1002.538	0.159556	-423.016215	-423.008317	-423.007372	-423.047947	32.049	
C	-0.017382591	 1.5396839422	 0.0647928013	-0.469581
C	-0.0614075432	 0.0333463794	-0.0090833766	 0.335947
C	 0.8801510381	-0.5672343066	-1.0722801698	-0.2942
C	 0.8829039476	-2.075924021	-0.9678086681	-0.073748
C	 0.1422048282	-2.6533524085	-0.0227589584	-0.054013
C	-0.6339452099	-1.7164527946	 0.8693027739	-0.020811
O	 0.2372119618	-0.610326381	 1.2808315716	-0.347339
C	-1.4378554985	-0.7072962798	 0.01097402	 0.14558
O	-2.4514946784	-0.0270484066	 0.703632432	-0.453734
H	 0.9644546578	 1.8667287141	 0.4225958715	 0.128493
H	-0.1839387358	 1.9763118689	-0.9253941384	 0.121535
H	-0.7826840123	 1.9278481971	 0.7402984547	 0.117701
H	 0.5589828285	-0.2481499422	-2.0734461346	 0.109649
H	 1.895135205	-0.1685683772	-0.9353912809	 0.113589
H	 1.499567401	-2.6464930559	-1.6559413019	 0.097054
H	 0.0761801899	-3.7273126319	 0.111873341	 0.094739
H	-1.1340740964	-2.1873573048	 1.718561747	 0.074001
H	-1.8636954372	-1.0535074255	-0.9324752609	 0.088039
H	-2.0866718552	 0.2216960839	 1.5622288367	 0.287099
