15
gdb 45961	3.12041	1.55408	1.18805	2.03	68.05	-0.2559	-0.0462	0.2097	1003.5188	0.113299	-453.933411	-453.926037	-453.925093	-453.965825	27.656	
N	-0.1695359328	 1.3349978852	-0.0990505447	-0.483567
C	-0.0974677313	 0.0781435587	-0.0643840973	 0.397384
O	 1.1009319339	-0.5931637547	 0.0450865323	-0.256119
C	 1.3091310935	-1.7506320943	-0.7655704233	-0.189755
C	 0.0877317435	-2.6396259485	-0.9532198669	 0.361499
O	 0.1679977416	-3.6809432502	-1.5607809679	-0.306994
C	-1.1973292704	-2.1138858515	-0.4210150971	-0.123563
C	-1.2992080117	-1.7318090592	 1.0201579621	-0.246439
N	-1.2922599546	-0.6914686097	-0.0112057109	-0.125758
H	 0.7724085617	 1.7288911305	-0.1128691555	 0.232424
H	 1.6560086516	-1.4522644695	-1.764990683	 0.151211
H	 2.1104240087	-2.3263642173	-0.295462198	 0.157135
H	-2.0812776169	-2.5011433894	-0.9182610641	 0.135419
H	-2.2513776383	-1.8705509044	 1.5211494707	 0.149706
H	-0.4154697287	-1.8367103958	 1.6421523936	 0.147416
