21
gdb 54824	2.55074	1.34956	1.09386	2.6723	84.48	-0.2274	-0.0088	0.2186	1224.9233	0.181154	-387.09121	-387.081853	-387.080908	-387.125653	35.147	
C	-0.1056341999	 1.4848202549	 0.0982883232	-0.480942
C	 0.1111529328	-0.0147729138	-0.0433605796	 0.377481
O	 1.2287570806	-0.4779473296	-0.1532301644	-0.326824
C	-1.1351452487	-0.8390109009	-0.0294489465	-0.157295
C	-1.3883501248	-2.0980316591	-0.8542831557	-0.122988
C	-0.1327570998	-2.9655392326	-1.00173465	-0.217602
C	-0.0409634175	-3.047893664	 0.5547036899	-0.273942
C	-1.3166634864	-2.1908256479	 0.6596892657	 0.32467
C	-2.3942960843	-2.3936550662	 1.6872034679	-0.492684
H	 0.8550744589	 2.0005809576	 0.0841077712	 0.137791
H	-0.7376263274	 1.8568610648	-0.7165228627	 0.137497
H	-0.6316811783	 1.7070087071	 1.0341084485	 0.136619
H	-2.0376353488	-0.2377318961	 0.0552052875	 0.079889
H	-2.2582709078	-2.1241807574	-1.5021651278	 0.084865
H	-0.3657279245	-3.9329551893	-1.4530874321	 0.096449
H	 0.7164038748	-2.5181575008	-1.5179766893	 0.122826
H	-0.2154436805	-4.0608358223	 0.9276064034	 0.094181
H	 0.8617411047	-2.6432517883	 1.0124532741	 0.120155
H	-2.0592698272	-2.0788457187	 2.6828796891	 0.123246
H	-3.2957119857	-1.8218314181	 1.4433466778	 0.116479
H	-2.6757647603	-3.4510103094	 1.7533220896	 0.120129
