21
gdb 84913	2.3725	1.68827	1.15249	1.5451	84.03	-0.2392	0.0251	0.2644	1136.5573	0.184235	-387.084557	-387.07623	-387.075285	-387.117609	32.589	
C	 0.7584729498	 1.4792432798	-0.0313444502	-0.383143
C	-0.0988311348	 0.1932847013	 0.0451552508	-0.077877
C	-0.0881896793	-0.493624603	-1.2977451631	-0.037658
C	 0.3124530451	-1.7032967493	-1.6866540704	-0.076197
C	 0.8807522648	-2.8296552784	-0.8653670329	-0.249784
C	 0.185426577	-3.0923196367	 0.4753576399	-0.242281
C	 0.3975864057	-2.0139677924	 1.5153743732	 0.040742
O	 1.5701885928	-1.1941605916	 1.3941972857	-0.260875
C	 0.2837106772	-0.5659695442	 1.3006712644	 0.074189
H	 1.8128673395	 1.2200913634	-0.1615915194	 0.137437
H	 0.4514304373	 2.1058176256	-0.873810009	 0.112294
H	 0.6606395607	 2.0707752646	 0.8849205921	 0.111324
H	-1.1374352993	 0.5186689816	 0.2213317354	 0.086381
H	-0.4594118274	 0.1655866812	-2.082751254	 0.08239
H	 0.2335012968	-1.91308838	-2.7519371022	 0.081884
H	 0.8357664144	-3.7496319843	-1.4576559628	 0.094101
H	 1.9439153837	-2.6416507224	-0.6695744402	 0.131463
H	-0.8923935807	-3.23591025	 0.3263377413	 0.106851
H	 0.5687904001	-4.0342958074	 0.8875686385	 0.102314
H	 0.2146171909	-2.3522778235	 2.5384176517	 0.083103
H	 0.0461132457	 0.0204869156	 2.1936355009	 0.083341
