19
gdb 60861	2.40418	1.44931	1.12108	1.5211	71.12	-0.2505	-0.0411	0.2094	1140.5913	0.15655	-460.155401	-460.145999	-460.145055	-460.189966	34.306	
C	-0.2449663227	 1.3163289576	-1.1806903773	-0.44633
C	-0.0388009336	 0.2812060523	-0.0897009294	 0.402507
C	 0.9220724471	-0.8878524159	-0.41915135	-0.325232
C	 1.8052883222	-0.2952518999	 0.6955944122	-0.077729
O	 0.8548660842	 0.7651140828	 0.9536442339	-0.329965
C	-1.3945755475	-0.1383826657	 0.524453392	 0.005372
O	-2.1909022062	-0.7619088976	-0.4458475282	-0.435316
C	-1.225989004	-1.0444447912	 1.7274717641	 0.123509
O	-1.7398021215	-2.1390776388	 1.7614384934	-0.272397
H	 0.7110144105	 1.5866204339	-1.6379722305	 0.115774
H	-0.9121778654	 0.9204026248	-1.9512039068	 0.145178
H	-0.6940332186	 2.2230196824	-0.7618373935	 0.123454
H	 0.5201836445	-1.8850383843	-0.233656735	 0.12171
H	 1.3479407455	-0.8579752302	-1.4226571028	 0.115201
H	 1.9570851771	-0.9299747697	 1.5771488388	 0.106016
H	 2.7753012423	 0.1025342956	 0.3774158079	 0.111376
H	-1.876407029	 0.7830689483	 0.9024831253	 0.097938
H	-2.437730054	-1.6196556632	-0.0628171386	 0.296235
H	-0.6232027109	-0.6484552113	 2.5638002646	 0.122698
