16
gdb 25997	4.88176	0.99781	0.83789	2.0966	73.28	-0.2117	0.0116	0.2233	1326.046	0.124123	-437.911158	-437.902855	-437.901911	-437.945986	30.021	
C	-0.1098772346	 1.3948487489	-2.3597678395	-0.466964
C	 0.043505487	-0.087830406	-2.5831591975	 0.3833
N	 0.3741581713	-0.6997634943	-3.6411436506	-0.500293
O	-0.241081971	-0.7317448905	-1.420848679	-0.267499
C	-0.1826189066	-2.0944510839	-1.2738190472	 0.302761
C	-0.185506756	-2.664882213	-0.03671497	-0.101776
O	-0.1761571145	-4.0182604063	-0.1582999676	-0.140351
C	-0.1667777606	-4.2991548449	-1.4862003717	 0.009252
C	-0.1713843865	-3.1632515664	-2.2313473267	-0.295314
H	-1.1298662451	 1.6233386829	-2.0362310127	 0.150821
H	 0.5642553547	 1.7281947952	-1.5650287316	 0.150116
H	 0.1093574169	 1.9502537767	-3.2726374532	 0.128635
H	 0.54480205	-0.0352080984	-4.3920453757	 0.224735
H	-0.2016924206	-2.2612102421	 0.9603969415	 0.137216
H	-0.152193281	-5.3453653184	-1.7429531496	 0.136127
H	-0.1495804035	-3.0720956395	-3.3005571188	 0.149234
