20
gdb 69304	2.37578	1.55496	1.30426	1.8466	80.11	-0.2339	-0.0176	0.2164	1105.4968	0.168271	-403.139479	-403.129829	-403.128885	-403.173397	35.896	
C	 0.1642625769	 1.5629683217	 0.0902886	-0.496502
C	-0.0126288334	 0.080626765	-0.043233365	 0.207752
C	-0.9489938268	-0.7406812661	 0.7796390538	-0.288227
N	 0.4810200793	-0.9733479983	 0.959372821	-0.177705
C	 0.9352885019	-1.8709800157	-0.1863667707	 0.183953
C	 2.465431898	-1.9154681204	-0.1879897021	-0.416102
C	 0.3463526761	-3.2738719321	-0.2372581565	-0.44793
C	 0.4678449742	-0.7752869322	-1.1802891214	 0.333384
O	 0.6590361448	-0.5752926668	-2.3470163719	-0.324053
H	 1.1685170507	 1.8703660634	-0.2165423433	 0.134847
H	-0.5562545742	 2.0898912458	-0.5440166851	 0.138822
H	 0.0053966607	 1.8794116524	 1.1248803456	 0.133591
H	-1.4128581762	-0.2289227544	 1.6186730321	 0.129787
H	-1.5791715647	-1.4944941206	 0.3172307517	 0.121079
H	 2.8230214946	-2.5232543776	 0.6487375954	 0.124584
H	 2.8275589389	-2.3490484378	-1.124201183	 0.131729
H	 2.8887764371	-0.9128459716	-0.0841161462	 0.124924
H	-0.7453252164	-3.2858845471	-0.2660761491	 0.119967
H	 0.7030300442	-3.7874475375	-1.1350322868	 0.137069
H	 0.6720612243	-3.8500037701	 0.6356358714	 0.129029
