24
gdb 6053	2.86929	1.41949	1.23554	1.3356	80.98	-0.2584	0.0667	0.3251	1162.9722	0.22038	-351.420741	-351.410008	-351.409064	-351.455426	40.298	
C	 0.1062224111	 1.5811786816	 0.1996621155	-0.389485
C	-0.0715149553	 0.0816699349	-0.0610958698	-0.208599
C	 0.6408902515	-0.4475263537	-1.3298633392	 0.366736
C	 0.0769816279	 0.1975904375	-2.5990256565	-0.410235
O	 2.019359989	-0.040633921	-1.2974459536	-0.46233
C	 0.5895842096	-2.0069491333	-1.3707992747	 0.018375
C	-0.8280716414	-2.6008767473	-1.3666882341	-0.405523
C	 1.4056585082	-2.5926828745	-2.5339027156	-0.402339
H	 1.1638575605	 1.8557959704	 0.1819217022	 0.124255
H	-0.4079503983	 2.1888423223	-0.5509576821	 0.116396
H	-0.3055694674	 1.8519220097	 1.1767824931	 0.10609
H	 0.3170713258	-0.4806921947	 0.8006905251	 0.07929
H	-1.1396319824	-0.1540898898	-0.1167407769	 0.098843
H	 0.2140072853	 1.2804847895	-2.5630846416	 0.124321
H	 0.5974083276	-0.1696862571	-3.4860918491	 0.122263
H	-0.9907672513	-0.0104082766	-2.7084859067	 0.111739
H	 2.4216690035	-0.4387336717	-0.5170737001	 0.271284
H	 1.0771787652	-2.3303925101	-0.4366839892	 0.054153
H	-0.7747019282	-3.6944868951	-1.3757321445	 0.111801
H	-1.4051699675	-2.309451872	-0.4855479539	 0.114412
H	-1.3912839786	-2.2977111709	-2.2560183578	 0.117203
H	 2.3866060393	-2.1181812371	-2.6044496616	 0.124061
H	 1.5482620759	-3.669093917	-2.3930794063	 0.104291
H	 0.8928221199	-2.4577797938	-3.4921507827	 0.112997
