15
gdb 131619	2.34096	1.4664	0.90922	3.6624	76.69	-0.2205	0.0038	0.2243	1204.4426	0.112958	-416.793314	-416.784755	-416.783811	-416.827183	30.95	
O	-0.1605799472	 1.4500204703	-0.2399383811	-0.427211
C	 0.0088319335	 0.0689602783	 0.0489713043	-0.213646
C	-1.3444229048	-0.5622998607	 0.03336101	 0.294481
C	-1.7502867003	-1.8935393092	 0.0082793782	-0.01338
C	-3.1708071612	-1.8185238923	 0.0362847438	-0.102599
N	-3.6030515957	-0.5667207847	 0.0709765925	-0.224043
N	-2.4733393211	 0.1722082011	 0.0760051325	-0.230355
C	-0.9216973628	-3.0352881419	-0.0360734661	 0.237318
C	-0.210489794	-4.0074239961	-0.0746052294	-0.462125
H	 0.6723001588	 1.8998274991	-0.0744147258	 0.300313
H	 0.653499482	-0.4310935021	-0.6887781629	 0.127247
H	 0.4759368695	-0.0773466159	 1.0356404964	 0.122624
H	-3.8714687059	-2.6397312323	 0.0283888405	 0.120856
H	-2.5155967288	 1.1779889506	 0.0657354087	 0.285517
H	 0.4104304781	-4.8675983942	-0.1094654515	 0.185004
