17
gdb 78787	2.651	1.73123	1.31653	3.4734	72.02	-0.2359	0.0042	0.2401	986.5612	0.135001	-421.797163	-421.789181	-421.788237	-421.829354	30.939	
C	-0.006328145	 1.6304384188	 0.0332175068	-0.509993
C	-0.0770901063	 0.1317183632	 0.0503090395	 0.12643
C	-1.2107458181	-0.8217663685	 0.6532250837	-0.161707
C	-0.8497838576	-1.7933883376	-0.425683833	-0.112692
C	-0.093008448	-1.8538589952	 0.9101869459	-0.203122
C	 0.8907963258	-0.7256077879	 0.8868743162	 0.419142
O	 1.9146689369	-0.4860887679	 1.4636985604	-0.345427
C	-0.1988081092	-0.7010531545	-1.2775682666	 0.112341
O	-1.0525744784	-0.1455242258	-2.2456496037	-0.433788
H	 0.9869111491	 1.9506948325	-0.2982776427	 0.141913
H	-0.7428274543	 2.053369869	-0.6567857601	 0.120731
H	-0.1733366518	 2.0505554885	 1.0294870605	 0.12906
H	-2.0853087787	-0.6434860258	 1.2599747752	 0.11648
H	-1.4010263258	-2.6611456251	-0.7686859897	 0.106022
H	-0.1281864713	-2.7303922775	 1.5430631181	 0.116176
H	 0.7365247436	-0.9301818257	-1.7983481858	 0.096321
H	-1.9176602909	-0.0128231806	-1.8384433348	 0.282113
