20
gdb 119494	4.11332	1.00426	0.9379	1.2175	79.54	-0.2074	0.0789	0.2863	1340.7523	0.169748	-403.048528	-403.039924	-403.038979	-403.082218	33.157	
C	-0.1172960182	 1.5280975575	-0.0528043348	-0.387751
C	-0.060643602	 0.01739479	-0.1916604531	-0.058545
O	-1.3194197044	-0.5149436225	 0.2183182886	-0.288459
C	-1.3889098477	-1.8850883603	 0.1377225857	 0.451617
C	-1.5923710231	-2.6484149172	-1.1431811614	-0.352834
C	-2.6228900135	-2.7379185724	-0.0282714387	-0.163565
C	-2.1348835763	-3.6322500256	 1.1502025196	-0.04671
N	-0.7990657824	-4.1997869027	 0.8190636941	-0.337339
C	-0.9256329432	-2.8075903957	 1.3201248942	-0.136756
H	 0.8325024197	 1.9745905518	-0.3620607773	 0.115183
H	-0.9150378761	 1.9407604199	-0.6770344374	 0.12694
H	-0.3136521912	 1.8131051708	 0.9847671425	 0.125747
H	 0.1434807811	-0.277290047	-1.2314149591	 0.097302
H	 0.745299209	-0.4015152323	 0.4302072339	 0.092217
H	-1.9168264011	-2.0162821894	-1.9645687573	 0.109456
H	-0.9832623056	-3.5013885945	-1.4133145812	 0.138675
H	-3.6510480329	-2.4292586401	-0.160498049	 0.097999
H	-2.7722589936	-4.0969084968	 1.8909678478	 0.094244
H	-0.5167918166	-4.7792294804	 1.6098496682	 0.228409
H	-0.427851022	-2.4665536929	 2.2188142347	 0.094172
