15
gdb 77209	3.47236	1.05788	0.91065	2.5613	71.06	-0.2978	-0.004	0.2938	1231.253	0.112562	-416.819569	-416.810984	-416.81004	-416.8533	30.636	
O	 0.353387233	 0.9727424006	-0.5932840128	-0.402781
C	-0.0851050089	-0.27963463	-0.1898895669	 0.134061
C	-0.1102020559	-0.6252244229	 1.3419436243	-0.173701
C	-1.4980371792	-1.2948209683	 1.1090505341	-0.249951
C	-1.632236777	-0.4818497517	-0.2217493264	-0.223833
C	-2.3873317509	 0.7524502193	-0.0620518317	 0.299203
N	-3.0093090013	 1.7156821384	 0.0822272899	-0.318271
C	 0.9751857392	-1.4195069188	 1.8827759759	 0.251909
N	 1.8498566611	-2.0664007105	 2.2751221591	-0.314293
H	 1.3108176038	 0.9607341926	-0.6956733348	 0.305357
H	 0.3924481428	-1.0974323279	-0.7436801374	 0.109004
H	-0.2218772122	 0.3033361638	 1.9085832208	 0.152751
H	-1.4089682994	-2.3632179355	 0.9096075186	 0.141528
H	-2.2567293793	-1.1229459124	 1.8702047036	 0.15119
H	-2.0142794459	-1.0263638667	-1.0871611964	 0.137827
