16
gdb 14085	3.4605	1.696	1.38584	2.8257	66.82	-0.2356	-0.018	0.2177	919.5746	0.12903	-383.72988	-383.722038	-383.721094	-383.762256	28.885	
O	-0.0682012216	 1.381184996	-0.0184439689	-0.41677
C	-0.0399315199	-0.0088455997	 0.0786321779	 0.054018
C	-0.5806876125	-0.6871517947	 1.2969870167	-0.384328
C	-1.3930416976	-0.6805518778	 0.0174590875	 0.225011
C	-2.7362576928	-0.0147968412	-0.3169744422	-0.320848
C	-3.049809885	-1.1918728067	-1.3005504253	-0.343019
C	-1.7200788429	-1.8468677874	-0.8702595613	 0.340854
O	-1.1635792238	-2.8782559238	-1.1266696904	-0.31548
H	 0.6141764574	 1.7370647788	 0.560510449	 0.294585
H	 0.7645621967	-0.5032894952	-0.465996444	 0.108318
H	-0.1482119612	-1.6349216738	 1.6015517402	 0.134341
H	-0.9469577814	-0.0525892883	 2.0977566602	 0.123494
H	-3.4279965854	 0.0523643486	 0.5255132332	 0.109419
H	-2.6443055795	 0.9679280784	-0.7814301672	 0.126652
H	-3.9369801997	-1.7894717144	-1.0741454534	 0.130076
H	-3.0760421006	-0.9207147688	-2.3597384922	 0.133677
