20
gdb 70661	2.53232	1.5222	1.10296	4.1644	80.57	-0.2237	0.0328	0.2565	1146.9379	0.172024	-403.177447	-403.168951	-403.168007	-403.210615	32.55	
C	-0.2675749606	 1.4638247143	 0.0153932412	-0.48401
C	-0.0243783449	-0.0239714742	 0.0179116319	 0.373336
C	-0.7924203956	-0.9467934623	 0.944595334	-0.338327
C	 0.6999630567	-0.7520090134	 1.1219664086	-0.092441
C	 1.6432821649	-1.7596471608	 0.4831951253	-0.240752
C	 1.1625109944	-1.8784781228	-0.9792727978	-0.181143
N	 0.411885788	-0.642345737	-1.2203689361	-0.081554
C	 0.0907202545	-0.2540043335	-2.4788060185	 0.127324
O	 0.4311532956	-0.8447016599	-3.4870881393	-0.351673
H	 0.5903975835	 2.0034133869	-0.399096474	 0.130233
H	-1.1555331622	 1.7376181306	-0.563929224	 0.131913
H	-0.4281486376	 1.8111744128	 1.0397753828	 0.124496
H	-1.4425035493	-0.4846440356	 1.6798072788	 0.11664
H	-1.1609726428	-1.889045092	 0.5526614235	 0.118979
H	 1.0432422623	-0.207575957	 1.9947542537	 0.09285
H	 2.6649513558	-1.3676005555	 0.5193794476	 0.113462
H	 1.6466364001	-2.731455819	 0.9852568462	 0.111051
H	 1.9717780787	-1.9623726537	-1.7068285108	 0.138973
H	 0.5134440401	-2.7508949495	-1.1225179195	 0.118921
H	-0.5058689215	 0.6762179716	-2.5026162235	 0.071722
