15
gdb 129768	3.45745	1.58678	1.09608	4.2262	75.16	-0.2101	-0.0199	0.1902	1034.3544	0.115179	-416.810357	-416.803409	-416.802465	-416.841453	27.592	
N	 0.065392214	 1.3932242185	 0.1467681821	-0.598145
C	-0.0790754408	 0.0281044201	 0.0474011277	 0.300515
C	-1.1382681693	-0.8237641436	 0.0239243001	 0.091193
C	-2.6286604119	-0.9863380973	 0.0304483084	-0.438286
C	-2.7517000592	-2.5068908524	-0.0086865462	-0.066899
C	-1.5577263394	-3.1279002353	-0.0303021675	-0.181669
C	-0.5193776712	-2.1018068627	-0.0088442027	 0.395489
N	 0.7887184146	-2.0765109603	-0.0071132484	-0.284526
O	 1.0743733002	-0.6777760895	 0.0270258932	-0.225972
H	 0.966865609	 1.7296109168	-0.162462792	 0.266323
H	-0.6985763835	 1.9243670476	-0.2437706435	 0.262198
H	-3.1172493844	-0.5751123675	 0.9244742355	 0.130526
H	-3.1340741094	-0.5296304465	-0.8320301837	 0.124119
H	-3.7149740774	-3.002698661	-0.0169058425	 0.107633
H	-1.3843273513	-4.1947584268	-0.0572087705	 0.1175
