24
gdb 61583	3.80605	0.81537	0.71217	1.0173	90.37	-0.2292	0.0927	0.3219	1666.5069	0.21686	-368.369056	-368.359157	-368.358213	-368.40437	37.237	
C	-0.0086987226	 1.3769715284	 0.0927102705	-0.396231
C	-0.0927249404	-0.1517098672	-0.015775385	 0.004883
C	-1.5407139678	-0.6671491226	-0.0041940261	-0.137763
N	-2.2317284345	-0.3610268759	 1.2456402863	-0.067065
C	-3.1202379747	 0.7974418208	 1.2517749996	-0.217452
C	-3.6732038996	-0.5832953334	 1.248698624	-0.222595
C	 0.62539174	-0.6527693105	-1.2567684908	 0.043041
C	 2.1198665335	-0.8461315028	-1.2525925697	-0.277787
C	 1.2032504741	-2.0449757997	-1.3048089923	-0.275177
H	 1.034282267	 1.7080726096	 0.073787468	 0.112687
H	-0.5243937886	 1.8598794961	-0.7465962561	 0.103534
H	-0.4625771775	 1.7360280476	 1.0197923269	 0.124401
H	 0.4048771248	-0.5847644953	 0.8627116355	 0.076399
H	-2.0838159093	-0.2664047245	-0.8824308742	 0.071067
H	-1.5249891419	-1.7579595051	-0.1123202783	 0.102301
H	-3.1204574301	 1.392423524	 2.1608962517	 0.114553
H	-3.2159712775	 1.3722001144	 0.3317173272	 0.108999
H	-4.1371728841	-0.9286146203	 0.3255333588	 0.106047
H	-4.0846278586	-1.0191249483	 2.1549152845	 0.113927
H	 0.203208277	-0.285668928	-2.1907037464	 0.075038
H	 2.6808818171	-0.5861113952	-2.1435205484	 0.108133
H	 2.6509096383	-0.6581511327	-0.3246698057	 0.109984
H	 1.1231512719	-2.6561747583	-0.4112585942	 0.111087
H	 1.1382969234	-2.605214941	-2.2311157658	 0.107985
