14
gdb 62347	4.00876	1.14255	1.0899	0.7059	67.19	-0.2994	-0.0404	0.2589	1093.3505	0.099854	-436.691179	-436.683331	-436.682387	-436.723637	28.796	
C	 0.0062521915	 1.5318898872	 0.0552969536	-0.47295
C	 0.0590471944	 0.0134151613	 0.0485913941	 0.10431
C	-1.1157043834	-0.6297183118	-0.4991436634	 0.24394
N	-2.0540439753	-1.1357385826	-0.9470717912	-0.319747
C	 1.3250042917	-0.7780218998	-0.165375884	 0.070081
O	 2.453981468	-0.0334003561	 0.340113054	-0.259979
C	 1.950477863	-0.1405199421	 1.6405947535	 0.466752
O	 2.4691374839	 0.204642624	 2.6462811304	-0.303069
C	 0.6881886777	-0.839548522	 1.1927445637	-0.308132
H	 0.9640744073	 1.9483032178	 0.3692167205	 0.16295
H	-0.216460481	 1.9011094956	-0.949398355	 0.150136
H	-0.7751070594	 1.884626586	 0.7329291383	 0.150979
H	 1.507484128	-1.5289560346	-0.9202771635	 0.158121
H	 0.1391727637	-1.6117211529	 1.7102584091	 0.156608
