18
gdb 38479	3.65526	1.68783	1.54248	1.3415	75.22	-0.2346	0.0622	0.2968	909.6068	0.150429	-401.814628	-401.808433	-401.807489	-401.844715	27.101	
C	 0.0236081435	 1.5069837098	-0.154064502	-0.326626
C	 1.3375089956	 0.818395034	 0.0296676053	 0.09648
O	 1.8781902917	 0.7235582555	 1.3450333465	-0.304213
C	 0.9116174219	-0.0010800789	 2.0631492872	 0.338952
C	 0.7930714324	-1.14771822	 3.0989502267	-0.240037
N	-0.6470580125	-1.0007112042	 2.5469572442	-0.182795
C	-0.4213634496	 0.5006924253	 2.6951102436	-0.230332
C	 0.1012076681	-0.855724461	 1.1390315647	 0.040687
C	 0.026419907	-0.0173230169	-0.1129020156	-0.163583
H	-0.3702779289	 2.1138932647	 0.648809882	 0.129316
H	-0.1671638092	 1.9181553479	-1.1406123961	 0.120699
H	 2.1130288964	 0.8492451247	-0.725699713	 0.105831
H	 1.2664594378	-2.1028547797	 2.8629011889	 0.111955
H	 0.85521986	-0.9037840172	 4.1611819713	 0.109821
H	-0.3938606546	 0.8330824982	 3.7357255686	 0.099365
H	-1.1224695953	 1.0908077284	 2.1109406814	 0.114271
H	 0.5032487092	-1.8373008583	 0.873238365	 0.079881
H	-0.1831020834	-0.5201882822	-1.0497827785	 0.100327
