17
gdb 76479	3.28367	1.09217	1.01215	4.931	69.48	-0.2666	0.0119	0.2785	1219.4176	0.134021	-458.967541	-458.958805	-458.957861	-459.00097	32.356	
C	 0.0489434813	 1.6331503486	-0.2306929854	-0.420713
C	 0.0367390872	 0.1300948389	-0.0597988954	-0.143497
C	 1.3391225787	-0.6847824312	-0.059521073	-0.008461
O	 2.5772477557	-0.0392173933	-0.0867374908	-0.415598
C	 0.5574565028	-0.5054129665	 1.1877583877	 0.419084
C	 0.9920146264	 0.0806807943	 2.5188369456	-0.487816
C	 0.2494456913	-1.1347434804	 3.0848125985	 0.430884
O	-0.0011393411	-1.6094496204	 4.1432996607	-0.310711
O	-0.1160631743	-1.61054676	 1.8425039877	-0.265052
H	 0.9726140049	 2.0638290402	 0.1646486042	 0.13319
H	-0.0212444549	 1.9062158569	-1.2890354072	 0.122257
H	-0.7957819481	 2.0985054258	 0.2873658729	 0.12879
H	-0.8029184619	-0.3913113361	-0.5132582413	 0.108395
H	 1.3033786591	-1.6666279187	-0.531108256	 0.107706
H	 2.7585464144	 0.2309055683	-0.9935445074	 0.295958
H	 2.0662685931	 0.0884472211	 2.7081301709	 0.160239
H	 0.5563003055	 1.0414019126	 2.7987762881	 0.145347
