23
gdb 68398	2.1542	1.77425	1.51527	1.2842	84.24	-0.2534	0.0725	0.326	1054.1308	0.206378	-388.290939	-388.282169	-388.281225	-388.323196	36.313	
C	-0.0257798848	 1.5187909444	 0.0588594892	-0.451021
C	 0.0222343116	-0.0163348832	 0.0243316524	 0.322963
C	-1.4189441932	-0.5366003845	-0.0869062483	-0.450929
C	 0.9796816341	-0.5868144987	-1.0842205977	-0.262474
C	 1.9990132974	-1.3413798726	-0.2015062861	-0.017453
C	 2.2726604417	-0.3184666799	 0.9338436756	-0.299266
C	 0.7695502108	-0.610083807	 1.252396814	 0.404198
O	 0.1558397778	-0.2790529374	 2.4585434107	-0.500864
C	 1.0787219233	-2.0776009892	 0.8091684781	-0.299288
H	 0.9681520365	 1.9712458334	 0.1054800351	 0.107927
H	-0.5193018922	 1.9042170694	-0.8399673499	 0.105888
H	-0.5915218545	 1.8643491517	 0.9296540445	 0.125285
H	-1.9004053795	-0.1341281121	-0.9848037075	 0.105892
H	-1.4704960299	-1.6266901591	-0.1490838012	 0.107943
H	-2.0069260407	-0.2231582008	 0.7813023758	 0.125259
H	 0.4587537334	-1.2549770337	-1.7771854822	 0.092116
H	 1.4503875818	 0.2067406876	-1.6730487652	 0.09214
H	 2.8141438327	-1.8588766103	-0.7054812836	 0.060993
H	 2.937949121	-0.7197666412	 1.7042337071	 0.083532
H	 2.5786972562	 0.6954642975	 0.6688755753	 0.092611
H	 0.6597204865	-0.6728119654	 3.1774429136	 0.278409
H	 0.2707314987	-2.7050431751	 0.4278257913	 0.092625
H	 1.6468671712	-2.6219490337	 1.569468219	 0.083516
