15
gdb 26899	3.11805	1.39346	0.96664	4.898	74.77	-0.1897	-0.0237	0.166	1131.8794	0.114087	-454.012349	-454.004332	-454.003388	-454.04454	30.969	
N	-0.0155092655	 1.3842881963	 0.1445404624	-0.576539
C	-0.0463542834	 0.0069897659	 0.0407092498	 0.373496
C	-1.2204221721	-0.7106769148	-0.0103330667	 0.185408
O	-2.4163858341	-0.0073254257	-0.0881143167	-0.465794
C	-1.1504167224	-2.1186726712	-0.0676303051	-0.113041
C	 0.0410996427	-2.7914101295	-0.0586940113	-0.279481
C	 1.2971903545	-2.0842492332	-0.0018257957	 0.421221
O	 2.4262916973	-2.5491793928	 0.0173212594	-0.41018
N	 1.1338056748	-0.6732424714	 0.0354429886	-0.432919
H	 0.7360104357	 1.8437635488	-0.3514288099	 0.25683
H	-0.9188208089	 1.7900075041	-0.06216691	 0.269027
H	-2.9011025483	-0.1183343194	 0.7371268962	 0.300262
H	-2.0869419165	-2.6665272282	-0.1288444537	 0.108244
H	 0.0914112431	-3.8712854676	-0.0975072685	 0.110514
H	 2.0056958132	-0.1674704914	 0.1166398013	 0.252951
