20
gdb 15187	9.06463	0.67544	0.65869	2.3215	73.41	-0.2554	0.0858	0.3411	1745.5864	0.174995	-386.109162	-386.099712	-386.098768	-386.144522	32.537	
C	-0.140582826	 1.4719003182	 0.0209394138	-0.38299
C	-0.027106904	-0.053618449	 0.0685391138	-0.18231
C	 0.8144569399	-0.5379040179	 1.2409165291	-0.027311
O	 0.8564923146	-1.9496552676	 1.2185281693	-0.249139
C	 1.6185162888	-2.5024683717	 2.2654857018	-0.074872
C	 1.5845867773	-4.0009563054	 2.1458327825	 0.083283
C	 1.8054767048	-4.8624946155	 3.3123178167	-0.181798
O	 0.496623502	-4.6794746395	 2.7752693958	-0.226322
H	 0.8431381674	 1.9439929758	-0.0795788038	 0.115396
H	-0.7501014182	 1.793809209	-0.8281896949	 0.118157
H	-0.6053980507	 1.8665808588	 0.9312143902	 0.116812
H	-1.0213909777	-0.5078002762	 0.1459943494	 0.111107
H	 0.4175636396	-0.4318679512	-0.8590637932	 0.106184
H	 1.8366747848	-0.1234389016	 1.1785154737	 0.080655
H	 0.3841853438	-0.1838477375	 2.194110712	 0.084818
H	 2.6650172702	-2.1512717852	 2.2107892781	 0.08612
H	 1.2186650939	-2.2079558443	 3.2497580207	 0.093226
H	 1.8393873626	-4.3835573998	 1.1571600021	 0.100547
H	 2.2397521523	-5.8519341146	 3.1770423811	 0.116182
H	 1.9764082045	-4.4131835948	 4.2903908619	 0.112253
