20
gdb 55780	4.29635	0.92126	0.77538	3.0028	86.21	-0.2053	0.0067	0.2121	1494.224	0.171249	-403.207667	-403.19816	-403.197216	-403.246384	33.828	
C	-2.2039048985	 1.5181566272	-0.176346903	-0.498891
C	-2.4799029148	 0.0375864601	 0.0521836137	 0.392735
O	-3.596404975	-0.4021248964	 0.2378384928	-0.348498
N	-1.3405710536	-0.7390751024	 0.0235863605	-0.426628
C	-1.2296710118	-2.1235690981	 0.1883385039	 0.435872
C	-0.0687093028	-2.7911163079	 0.1963709444	-0.216071
C	-0.2687304987	-4.2633403209	 0.4508549732	-0.235234
C	-1.7988353612	-4.4437573884	 0.2700951999	-0.215946
C	-2.417663098	-3.0315433043	 0.4210142322	-0.280215
H	-3.1449438372	 2.0610662011	-0.0996150361	 0.153583
H	-1.4995247301	 1.9095839759	 0.5653574885	 0.136687
H	-1.7717999294	 1.6865261423	-1.1686684812	 0.139917
H	-0.4697792347	-0.2505953428	-0.1216130321	 0.246232
H	 0.9098565028	-2.3348114538	 0.0881702808	 0.0703
H	 0.305042883	-4.8993455373	-0.23351427	 0.097755
H	 0.057587352	-4.5371682561	 1.4652170631	 0.099962
H	-2.0018957982	-4.8199806522	-0.7373956654	 0.104928
H	-2.2258542938	-5.1627383672	 0.9735027025	 0.096978
H	-2.8343933151	-2.8578053044	 1.4204580074	 0.117482
H	-3.234497565	-2.8422618942	-0.2766684151	 0.129051
