16
gdb 17503	3.1213	2.4024	1.64876	3.3992	63.92	-0.2433	0.0513	0.2946	815.3243	0.127557	-383.656387	-383.648872	-383.647928	-383.687655	28.764	
C	-0.101888295	 1.5573739576	 0.1712586565	-0.511815
C	 0.1150989082	 0.0847725407	 0.0619156586	 0.370574
O	-0.8044846075	-0.8159029534	 0.681238477	-0.259371
C	 0.5843720694	-0.9420159568	 0.9945937053	-0.107856
C	 1.2851717496	-1.7158340023	-0.1877805294	-0.107808
O	 0.2910292573	-2.0252290942	-1.1670593619	-0.259364
C	 0.8276672196	-0.7017166328	-1.1399729962	 0.370513
C	 1.4113410908	-0.11278679	-2.3809724404	-0.511815
H	 0.8118546685	 2.1079804786	-0.0755598881	 0.125757
H	-0.8893633332	 1.8887602122	-0.5151192854	 0.135495
H	-0.4034326813	 1.8211363776	 1.1884695585	 0.139033
H	 0.8888092522	-0.8903430365	 2.0330358229	 0.108187
H	 2.1836484426	-2.3201064348	-0.1515664934	 0.108182
H	 0.6221301859	 0.2205655846	-3.0643980131	 0.135496
H	 2.0397707798	 0.7527298487	-2.1465166494	 0.125757
H	 2.0216312233	-0.8554669592	-2.9017320315	 0.139034
