25
gdb 121913	4.04842	0.59729	0.57775	2.3065	86.47	-0.2558	0.0626	0.3184	2086.357	0.226184	-426.639112	-426.627358	-426.626414	-426.676604	42.491	
C	 0.0605158995	 1.6296732023	 0.0495400308	-0.378613
C	 0.0280337252	 0.099062193	 0.0746770142	-0.164498
C	-1.3919002476	-0.4733786764	 0.0177212123	-0.16075
C	-1.431230325	-2.0037321931	 0.0442471965	-0.203311
C	-2.8523485932	-2.5718540824	-0.073717968	 0.136695
O	-3.5042716986	-2.125885098	-1.2565773746	-0.44244
C	-2.868059528	-4.1105381057	-0.0295701441	 0.11812
C	-4.2812141264	-4.6759381006	 0.0790888831	-0.41817
O	-2.2353460753	-4.5204071809	-1.2485704742	-0.452409
H	 1.0863593532	 2.0103853356	 0.0829858207	 0.107412
H	-0.4106285818	 2.0194324391	-0.8596978448	 0.113805
H	-0.4789412775	 2.0513586458	 0.9051759695	 0.111364
H	 0.6095928755	-0.2934690074	-0.7702868088	 0.092326
H	 0.53236825	-0.263351019	 0.9807795323	 0.088948
H	-1.9762373345	-0.0792595833	 0.8619019417	 0.083812
H	-1.8985081506	-0.1244534265	-0.8893320925	 0.108972
H	-0.8244572794	-2.4113957003	-0.7741827062	 0.104237
H	-0.9814431498	-2.3729785452	 0.9766083846	 0.083496
H	-3.458801991	-2.1973812982	 0.7611357966	 0.075522
H	-3.1316503265	-2.6657321779	-1.9664727052	 0.284025
H	-2.2682810636	-4.4468466564	 0.830864086	 0.066125
H	-4.9092694159	-4.2740550278	-0.720014427	 0.137173
H	-4.2726676328	-5.7704302912	 0.0107605079	 0.100904
H	-4.7311419839	-4.4108430396	 1.0412382465	 0.120196
H	-2.4303973818	-5.4505165158	-1.3944592073	 0.287056
