20
gdb 40248	2.69889	1.62734	1.21723	2.7161	78.49	-0.2307	0.0683	0.299	1072.534	0.173593	-403.106509	-403.098946	-403.098002	-403.138408	30.606	
C	 0.0240048031	 1.5014051088	 0.0034768968	-0.289309
N	 1.2623525216	 0.6983604023	 0.037424344	-0.353754
C	-0.0468349633	 0.0196533478	 0.0022725965	 0.334217
C	-0.3835493279	-0.7302788204	 1.279466929	-0.152433
O	 0.012320259	-2.0850195353	 1.1898468322	-0.236175
C	-0.7653013485	-2.8057723271	 0.250092386	-0.095511
C	-0.7993604456	-2.1725783867	-1.1425578268	-0.058369
C	-1.8692763522	-1.1616068924	-1.476170176	-0.30543
C	-0.4485937676	-0.7029491479	-1.251220712	-0.084751
H	-0.1800400158	 2.0638253295	 0.9118519649	 0.113181
H	-0.243215908	 2.0198297264	-0.9143879205	 0.107638
H	 1.6916758784	 0.6828104183	-0.8852913569	 0.225471
H	 0.1721606911	-0.289487295	 2.1099917154	 0.11969
H	-1.4633016942	-0.6586569669	 1.5008928958	 0.080653
H	-0.3140928108	-3.8000633489	 0.1969206632	 0.111503
H	-1.791970509	-2.9259983595	 0.6363042946	 0.088128
H	-0.4648278435	-2.8162981501	-1.9491449289	 0.09161
H	-2.2567002816	-1.1288548325	-2.4884716507	 0.11201
H	-2.6083907567	-0.9430353514	-0.7110753562	 0.114548
H	 0.0966051416	-0.3910631291	-2.1389329003	 0.077083
