19
gdb 96990	2.83309	1.35141	1.14173	3.1999	79.44	-0.2242	0.0202	0.2443	1165.3451	0.158261	-419.174455	-419.165384	-419.16444	-419.2083	33.256	
C	-0.2183583059	 1.4212330902	-0.0411832827	-0.340606
N	-0.2631548738	-0.0271964618	-0.169922666	-0.329136
C	 0.4888271218	-0.5682187151	-1.0219735251	 0.392868
N	 1.389015163	-0.1122510548	-2.0089936217	-0.358397
C	 1.8249688948	-1.459350406	-2.3885577249	-0.085188
C	 2.8601546181	-2.1179337593	-1.4606763949	-0.095786
O	 1.8379044689	-2.5514516334	-0.5390666537	-0.315466
C	 0.7698859582	-2.0296340241	-1.3789982846	 0.322852
C	-0.3498716344	-3.0004043254	-1.6081203508	-0.486103
H	 0.5175020052	 1.7191947473	 0.7181527782	 0.121482
H	 0.0325855325	 1.9405745384	-0.9789401064	 0.10158
H	-1.193027342	 1.7848682148	 0.2972340293	 0.126396
H	 2.0108970231	 0.6792092125	-1.9092585978	 0.240437
H	 1.8615380037	-1.6570257491	-3.4598519002	 0.09393
H	 3.3828501862	-2.9752933627	-1.9035847811	 0.107066
H	 3.5922358425	-1.4443355788	-0.998852529	 0.099961
H	-0.8726605718	-3.1768152233	-0.6628040239	 0.151749
H	-1.0718716704	-2.5938996583	-2.3222775323	 0.129763
H	 0.0291390704	-3.9558201712	-1.9809273224	 0.122598
