21
gdb 107871	3.154	1.24845	1.06066	1.3847	83.61	-0.2618	0.0732	0.335	1222.1624	0.18213	-387.012312	-387.003693	-387.002749	-387.045461	33.482	
C	-0.1615392535	 1.5705920536	-0.0356960376	-0.42403
C	-0.029275715	 0.0548799111	-0.0130262645	 0.000026
C	 1.1957705134	-0.6170309577	-0.6746473695	-0.077173
C	 2.1345665696	-0.3104194904	 0.5444319396	-0.054352
C	 2.5984125827	-1.7746124036	 0.6543829395	-0.314402
C	 1.1085028159	-1.8728793446	 0.2716153309	 0.39071
C	 0.2856676942	-3.1072251871	 0.0500862449	-0.231031
O	 0.850248149	-3.818566313	-1.0452462624	-0.421044
C	 0.7220864201	-0.6299648819	 1.1528775143	-0.106306
H	 0.7821010913	 2.0652268771	 0.2160356403	 0.113659
H	-0.467946189	 1.9232018403	-1.0269909956	 0.113448
H	-0.9172756647	 1.9107851553	 0.6814151547	 0.111734
H	-0.9883269875	-0.4152096719	-0.2656689574	 0.058111
H	 1.4922421243	-0.6363816134	-1.7248789089	 0.070301
H	 2.714153163	 0.5991926385	 0.7018373075	 0.068937
H	 3.3179758343	-2.1245209089	-0.0916776643	 0.099207
H	 2.8731639729	-2.1312645772	 1.6535477867	 0.08302
H	 0.2909349022	-3.7194381351	 0.9671823094	 0.084981
H	-0.7620301771	-2.8289400944	-0.1503591698	 0.086479
H	 0.3539741804	-4.6344090497	-1.1591350561	 0.287136
H	 0.4738697036	-0.655349587	 2.2170773384	 0.060588
