19
gdb 114228	4.66707	0.91596	0.83833	1.5357	78.52	-0.2392	0.0111	0.2504	1384.9911	0.159	-423.010451	-423.001838	-423.000894	-423.044327	32.438	
O	 0.1158040153	 1.3555282257	 0.2002326745	-0.42329
C	 0.0458109635	-0.0546206661	 0.0529298447	-0.084163
C	-1.4303440839	-0.4442302982	-0.0161232815	-0.034679
C	-1.6544584478	-1.9664709702	-0.2215976217	-0.353159
C	-2.722266123	-2.3618727464	 0.8046898138	 0.436595
C	-3.7725138844	-3.3649239715	 0.5655430481	-0.249596
O	-2.6473644067	-3.672203404	 1.3900892304	-0.282479
C	-2.8886627538	-1.1873486014	 1.6992175197	-0.157289
C	-2.1890212999	-0.1426483436	 1.2587245038	-0.070364
H	 1.0381253372	 1.6041039861	 0.3089352812	 0.288682
H	 0.5567026149	-0.3869997991	-0.8653871765	 0.087204
H	 0.5189207852	-0.572259897	 0.90288478	 0.090162
H	-1.8672955596	 0.1283643141	-0.8455015288	 0.092097
H	-1.9427923017	-2.2149757444	-1.2455084767	 0.107459
H	-0.741022249	-2.5278280658	 0.0050673224	 0.119137
H	-4.7287349262	-3.290118437	 1.0838938204	 0.109575
H	-3.8082806818	-3.8820311065	-0.3936905232	 0.10936
H	-3.5165715154	-1.2217321759	 2.5817444609	 0.101651
H	-2.147180913	 0.8360356511	 1.7207557186	 0.113098
