21
gdb 64506	3.3001	1.23607	1.11037	1.4816	82.2	-0.25	0.0874	0.3374	1191.5893	0.182384	-387.036701	-387.028166	-387.027222	-387.069685	33.235	
C	-0.0550631266	 1.6801500263	 0.3427556134	-0.474906
C	 0.0092725813	 0.1892583199	 0.060528205	 0.286968
C	-1.2839589231	-0.3104471097	-0.5305481759	 0.017868
C	-1.5271303742	-0.3818670606	-1.9781395353	-0.180675
O	-1.2868390113	-1.5654243893	-1.2102652496	-0.236335
C	 1.2443708478	-0.5310714596	-0.4175100697	-0.087068
C	 2.5238917056	 0.0451806118	 0.2040063643	-0.252553
C	 1.9463850519	-0.2463718621	 1.6289384943	-0.248597
C	 0.6757517076	-0.8097467832	 0.9805371164	-0.082554
H	 0.8482369521	 2.0543595902	 0.8277100303	 0.12503
H	-0.193494503	 2.2467574617	-0.5851360778	 0.116265
H	-0.8998208863	 1.9143531498	 1.0016832061	 0.115178
H	-2.155885876	-0.1601418151	 0.1109517724	 0.089807
H	-2.538947356	-0.2781942519	-2.3670860583	 0.114279
H	-0.7294294865	-0.1066975116	-2.66618312	 0.113722
H	 1.2065378089	-1.1801666799	-1.2831122337	 0.096891
H	 3.401496735	-0.5672558127	-0.0133925972	 0.104562
H	 2.7657743483	 1.0853231528	-0.0374948952	 0.093894
H	 2.5208410868	-1.014751144	 2.1508662859	 0.104509
H	 1.8212340391	 0.6044445392	 2.3067636559	 0.09391
H	 0.1392466088	-1.6896174021	 1.3169513487	 0.089804
