19
gdb 39965	4.76027	0.97131	0.94451	1.0515	75.33	-0.2478	0.0619	0.3097	1280.5652	0.1585	-422.966145	-422.958003	-422.957058	-422.999762	30.779	
C	-0.7302341527	 1.3343729121	-0.0509884297	-0.267373
O	 0.7064017267	 1.3252898374	-0.0406597152	-0.270666
C	 0.0314516197	 0.0856527778	-0.0080509146	 0.470518
C	 0.1317319538	-0.9441380756	 1.1192121117	-0.391875
C	-0.1297630314	-2.0463496857	 0.0550303663	 0.30094
C	 0.5281734765	-3.4354192835	 0.1014652219	-0.139262
O	-0.752279755	-4.0986053175	 0.1124568693	-0.273159
C	-1.4532569463	-2.8406685942	 0.0696855442	-0.123084
C	 0.1470542448	-1.0100639818	-1.0697887576	-0.391874
H	-1.1996243695	 1.7159492339	 0.8551710695	 0.116614
H	-1.1867450771	 1.6605330005	-0.984942416	 0.116614
H	 1.1480824433	-0.9961398329	 1.523809419	 0.116874
H	-0.5770406195	-0.8684667741	 1.9482441007	 0.109281
H	 1.1247234039	-3.7046059026	-0.7805880714	 0.100932
H	 1.1121953777	-3.6508007224	 1.0063856652	 0.100931
H	-2.0858913703	-2.6923470848	 0.9552142541	 0.099216
H	-2.0733958377	-2.7461477085	-0.8319128696	 0.099217
H	-0.5500205376	-0.9847166627	-1.9117049904	 0.109281
H	 1.1689428006	-1.0858907354	-1.4562673775	 0.116874
