20
gdb 6017	2.56352	1.73126	1.38266	4.4962	74.64	-0.2584	0.031	0.2893	1016.8878	0.175299	-345.202239	-345.192368	-345.191424	-345.236034	36.526	
C	-0.0577021864	 1.554984614	-0.0272690884	-0.419942
C	 0.0277552012	 0.0224075117	-0.0225788599	 0.03572
C	 0.6416640591	-0.4846913386	-1.3347391976	-0.420009
C	 0.789204822	-0.5238993551	 1.2417039216	 0.078706
C	 0.8002351162	-2.0662874097	 1.2766935075	-0.406067
N	 2.17781683	-0.0647519377	 1.3941701998	-0.525076
C	 0.0499429976	-0.0613715535	 2.4381317988	 0.311763
N	-0.5540188085	 0.2992238241	 3.3549677506	-0.351972
H	 0.9298870063	 2.0114136139	-0.1614234078	 0.108655
H	-0.6837835008	 1.8952996485	-0.8572236143	 0.120654
H	-0.4908852862	 1.9407518359	 0.8996153493	 0.144987
H	-0.9948417863	-0.370525479	 0.0489539557	 0.092059
H	 1.6871796358	-0.171082372	-1.4359585335	 0.109589
H	 0.6018205574	-1.5729201264	-1.4262012462	 0.122273
H	 0.0973983378	-0.0643219063	-2.1856234324	 0.123961
H	 1.4248446039	-2.4562015485	 0.4687312533	 0.121231
H	 1.2156406675	-2.4121503137	 2.2246828258	 0.147239
H	-0.2090602748	-2.4687508733	 1.1605553831	 0.131584
H	 2.7302189106	-0.3927010184	 0.6079898165	 0.234076
H	 2.2250805575	 0.949136284	 1.3967983182	 0.240568
