18
gdb 103038	2.49235	1.65128	1.16599	1.3993	78.71	-0.2365	0.0174	0.2539	1075.7227	0.147198	-401.814892	-401.806615	-401.805671	-401.847693	32.32	
O	 0.5308113462	 0.561968628	-0.7860587508	-0.417283
C	-0.1319882074	 0.3671623067	 0.4474375486	-0.153266
C	-1.4434416908	-0.4219748589	 0.2666615433	 0.158741
C	-2.2640953556	 0.3379399671	-0.6718219232	 0.251119
C	-2.8477762522	 1.0302729671	-1.4655035716	-0.427317
C	-1.4629063522	-1.98182981	 0.1560633777	-0.090086
C	-1.1264142871	-1.9842346608	 1.6591814316	-0.185796
N	-2.1876679054	-0.8646237388	 1.5761549766	-0.182551
C	-2.9200276277	-1.8656838866	 0.6526331328	-0.184193
H	-0.0816799471	 1.0293026341	-1.3671411993	 0.286205
H	 0.5787536567	-0.1621952682	 1.0810524947	 0.113083
H	-0.3776942615	 1.3186565299	 0.9428701857	 0.108254
H	-3.3978258502	 1.6202836979	-2.1571977614	 0.200644
H	-1.0503526741	-2.5943777745	-0.6515808227	 0.080203
H	-1.4739203358	-2.84031593	 2.2413584599	 0.10682
H	-0.144164003	-1.6664493154	 2.003926378	 0.108498
H	-3.6617163307	-1.4047151014	 0.0005509213	 0.123866
H	-3.3358200522	-2.7141500962	 1.2001375088	 0.103059
