21
gdb 26258	2.50547	1.38047	1.05981	3.5992	85.04	-0.2097	0.0364	0.246	1238.399	0.182914	-383.320765	-383.310999	-383.310055	-383.356407	35.173	
C	 0.21614935	 1.6718400806	-0.0696307263	-0.376456
C	-0.0186505996	 0.166311393	 0.1195484038	-0.087059
C	 0.4082400703	-0.6218181059	-1.1365114506	-0.381603
C	 0.7099182126	-0.3379802433	 1.3354698879	 0.345679
N	 1.8902379069	 0.0832351343	 1.7444228957	-0.314952
C	 2.1992290705	-0.6740458723	 2.8478331839	-0.102473
C	 1.195975797	-1.564904832	 3.10992998	-0.139787
N	 0.240608888	-1.3493824701	 2.1359457297	-0.036655
C	-1.021865435	-2.0543313421	 2.020560777	-0.347338
H	 1.2842808229	 1.877829363	-0.1710992728	 0.144282
H	-0.2997197203	 2.0290924968	-0.966608179	 0.100867
H	-0.1496706051	 2.2404364832	 0.7899303954	 0.114782
H	-1.0937916265	 0.0019895842	 0.2705173589	 0.071627
H	 1.4777070708	-0.482524307	-1.3214555098	 0.135681
H	 0.2263582449	-1.6956974877	-1.0237966641	 0.108062
H	-0.1430873282	-0.2757076956	-2.0170561616	 0.110325
H	 3.122140864	-0.5328242363	 3.3897432723	 0.102188
H	 1.0592888971	-2.3119207413	 3.8746839636	 0.119644
H	-1.8706087039	-1.3768564964	 2.1586184618	 0.144777
H	-1.1176829989	-2.5396649699	 1.0448451503	 0.145033
H	-1.0678430875	-2.8238763752	 2.792496444	 0.143375
