20
gdb 8522	4.27682	1.87579	1.58586	0.0935	79.06	-0.2813	0.0891	0.3705	892.4346	0.176965	-311.800079	-311.792765	-311.791821	-311.830888	29.828	
C	-0.1215269193	 1.562328284	-0.0054779801	-0.457151
C	-0.0608410916	 0.0357231	-0.005415369	 0.327904
C	-1.4244569671	-0.5578255253	-0.3553556412	-0.457153
C	 1.1820853337	-0.6183066443	-0.6707711668	-0.068557
C	 2.1195857286	-0.2765539084	 0.541539643	-0.047179
C	 2.6271151239	-1.725094086	 0.6551078027	-0.279926
C	 1.1415865719	-1.8680517203	 0.2789110407	-0.047183
C	 0.7208615115	-0.6365728719	 1.1574603557	-0.068558
H	 0.8414501459	 2.0172829759	 0.242057471	 0.111635
H	-0.4260973439	 1.9403372257	-0.9886464193	 0.110148
H	-0.8578559285	 1.9232474608	 0.7224164442	 0.110148
H	-1.7540804735	-0.2204455113	-1.3452023447	 0.110147
H	-1.4129575761	-1.6511616978	-0.3634119875	 0.111634
H	-2.1857274933	-0.2375931333	 0.3658876712	 0.110148
H	 1.4740054768	-0.6238526876	-1.7242453071	 0.059145
H	 2.6744515916	 0.6498764341	 0.6907754104	 0.069236
H	 3.3587844449	-2.0515080503	-0.0915060271	 0.088591
H	 2.9186431925	-2.0689389865	 1.6531560925	 0.088591
H	 0.5661344173	-2.7809963905	 0.1246161896	 0.069236
H	 0.4781904448	-0.6632906268	 2.2230365517	 0.059145
