17
gdb 17619	4.10142	1.40273	1.13836	4.576	67.41	-0.2419	0.0101	0.252	1064.1152	0.14052	-400.99275	-400.983673	-400.982729	-401.028077	30.526	
C	-0.0064511464	 1.4734491548	 0.0985333884	-0.345608
N	 0.1671716705	 0.0292531024	 0.0761956994	-0.105009
C	 1.5048982648	-0.4408329577	-0.238824173	-0.337662
C	-0.9221157499	-0.766371493	 0.3249370522	 0.410962
O	-2.0065610251	-0.3196608379	 0.6543827312	-0.378788
C	-0.7394532221	-2.2669502533	 0.186263363	-0.057178
C	-1.3281163401	-3.132486358	 1.2277931744	-0.161548
O	-1.9475074184	-2.9855225462	-0.0376362822	-0.202624
H	 0.270440855	 1.9083182699	-0.8700140475	 0.12265
H	-1.0520642965	 1.6885720028	 0.3107058478	 0.174225
H	 0.6246097843	 1.9283036539	 0.8721254413	 0.121798
H	 2.2355630951	 0.2104936929	 0.2529128537	 0.132894
H	 1.6751782326	-1.4505994133	 0.132376913	 0.143148
H	 1.7113821719	-0.4200713759	-1.3180679731	 0.129229
H	 0.1017964211	-2.6455076418	-0.3870119058	 0.101703
H	-0.8790192423	-4.1038257192	 1.4315417764	 0.115707
H	-1.8507559246	-2.6536035203	 2.0532415608	 0.136103
