14
gdb 49870	3.65379	1.2555	0.93994	3.7585	67.18	-0.2652	-0.0295	0.2357	1147.4294	0.102146	-470.08199	-470.074123	-470.073178	-470.115019	28.093	
N	-0.158023024	 1.2775449873	 0.0081879887	-0.528698
C	-0.0172691207	 0.0198168633	 0.0008222374	 0.398851
C	-1.1855926022	-0.9537067672	 0.0018455824	-0.251766
N	-0.5372739939	-2.2657216788	-0.0084854235	-0.17434
C	-1.2600925015	-3.4529571188	-0.010941682	 0.166608
O	-0.8048258048	-4.5623764633	-0.0190829248	-0.263551
C	 0.8691022148	-2.1508590852	-0.015318535	 0.510035
O	 1.693212675	-3.0192943112	-0.0241595089	-0.351232
N	 1.1180611162	-0.7750894011	-0.0093026693	-0.415491
H	 0.7368848132	 1.7682026348	 0.0060851153	 0.221835
H	-1.8020687419	-0.8058059021	 0.893580672	 0.161922
H	-1.8114347712	-0.7964522273	-0.8817264731	 0.16192
H	-2.34806629	-3.2367213559	-0.0039623841	 0.089309
H	 2.0661169912	-0.4334079946	-0.0124754051	 0.274598
