20
gdb 91116	2.72003	1.80415	1.45002	1.8985	76.11	-0.2232	0.0657	0.2888	971.2928	0.174842	-403.142816	-403.135623	-403.134679	-403.174239	29.68	
O	 0.0438137341	 1.4245062448	-0.1215639046	-0.432434
C	 0.0293329123	 0.0147340806	 0.0049812619	 0.139132
C	 0.6713130667	-0.5445557004	 1.2993308841	-0.292471
C	-0.1377263999	-1.8046759349	 1.5606367232	-0.027144
C	-1.5235750476	-1.6968444098	 2.0930720853	-0.018023
C	-2.1108510341	-0.3245397081	 2.3954699807	-0.251103
C	-2.3346448527	 0.2986412656	 0.9958305123	-0.205891
C	-1.420975183	-0.5102802754	 0.05454873	-0.026617
N	-1.3097224147	-1.8837731393	 0.6367637489	-0.131952
H	 0.9539979766	 1.7082226965	-0.247857598	 0.286325
H	 0.524661013	-0.450992899	-0.8601647529	 0.07381
H	 1.7334516747	-0.7712244412	 1.1723136885	 0.095528
H	 0.5868466224	 0.1977846651	 2.1012615206	 0.108759
H	 0.3999526411	-2.7390992334	 1.6962828944	 0.084298
H	-1.942101547	-2.5581911772	 2.6072681344	 0.08416
H	-3.0460963457	-0.4192458444	 2.9529576285	 0.101646
H	-1.4369998905	 0.2828756342	 3.0095063631	 0.107267
H	-3.3754324874	 0.1566066674	 0.6904139172	 0.101549
H	-2.1153187489	 1.3668866474	 0.9550110081	 0.123384
H	-1.8402636696	-0.5807497084	-0.9512764758	 0.079777
