20
gdb 88375	2.10439	1.40679	1.19289	3.8599	79.37	-0.2598	0.0344	0.2942	1182.2608	0.170275	-399.313465	-399.303403	-399.302459	-399.348292	37.162	
C	-1.5226963064	-1.3119935806	 2.7381474947	-0.423286
C	-0.6855861331	-1.2984409399	 1.4806722378	-0.010028
N	-0.6852341793	-0.0843583135	 0.6437803225	-0.347991
C	 0.5746057731	-0.5425270038	 1.2347000724	 0.001578
C	 1.3332465977	 0.410300018	 2.1577500883	 0.067188
C	 2.3363222908	-0.3810266856	 3.0167844593	-0.39522
N	 2.0813338323	 1.3199188555	 1.2716960077	-0.520151
C	 0.4473772486	 1.1892509337	 3.0553180365	 0.278395
N	-0.1589202711	 1.8650395895	 3.7717891855	-0.362273
H	-1.5439293957	-0.3403035914	 3.2296518263	 0.167214
H	-2.5530684968	-1.5878582573	 2.4894784627	 0.121582
H	-1.1416207352	-2.0573941812	 3.4449152444	 0.115769
H	-0.7183273875	-2.244466134	 0.9384325948	 0.08693
H	-0.7324134298	-0.3099861307	-0.3453469034	 0.235698
H	 1.2915385126	-1.0255770543	 0.5716512392	 0.096936
H	 3.0089348792	-0.9362711118	 2.3583377461	 0.133075
H	 2.9341859688	 0.2952746319	 3.6341706308	 0.130196
H	 1.8166354948	-1.0795498524	 3.6766042313	 0.137391
H	 1.4175519167	 1.8491841277	 0.7110996727	 0.248202
H	 2.5947000104	 1.9985038704	 1.8283309803	 0.238793
