19
gdb 66248	2.63356	1.47854	1.27617	2.5519	70.52	-0.2467	0.0819	0.3286	1076.1518	0.158115	-460.140996	-460.132284	-460.13134	-460.175051	32.082	
C	-0.2342266417	 1.4884434944	 0.438919713	-0.424957
C	 0.0585766262	 0.0339377988	 0.1028227135	 0.402364
O	 0.8955480681	-0.0218797929	-1.0464442851	-0.283048
C	 1.8128388582	-1.0865931605	-0.8387229725	-0.109095
C	 2.0297290307	-1.0374130245	 0.6727966731	-0.093244
O	 0.7728682456	-0.5879988244	 1.1679827693	-0.295971
C	-1.2313221929	-0.7334078811	-0.1886519315	 0.062135
C	-1.5154661656	-2.0684656336	 0.3481128204	-0.182066
O	-2.1326728815	-0.9024830302	 0.9009501108	-0.238335
H	 0.7013451932	 2.0151302222	 0.6394960719	 0.120578
H	-0.7444247373	 1.9766818303	-0.396067058	 0.123386
H	-0.8759044743	 1.5333311278	 1.3214590039	 0.146067
H	 1.3861226239	-2.0494014076	-1.1535155388	 0.102024
H	 2.7130098696	-0.8857420895	-1.4239777871	 0.117745
H	 2.2620331065	-2.0101416976	 1.1159770814	 0.112031
H	 2.8227094656	-0.3256377851	 0.940394331	 0.106543
H	-1.6999938693	-0.4322976397	-1.1269154003	 0.097935
H	-2.1818918472	-2.7334470618	-0.1998602496	 0.111823
H	-0.785648778	-2.5480915648	 0.9944075847	 0.124086
