20
gdb 31701	4.86087	0.81144	0.73511	2.1083	84.67	-0.1923	0.0409	0.2332	1587.7444	0.171432	-403.186919	-403.177358	-403.176413	-403.222115	34.926	
C	 0.2255027023	 1.7127115541	-0.0586381082	-0.359832
C	 0.0370247737	 0.1859291541	-0.0491257847	-0.294401
C	 0.5582270464	-0.4735400977	 1.1956429089	 0.295965
C	 1.6796527543	-1.2679186903	 1.296525249	-0.190291
N	 1.8295099941	-1.6390332405	 2.6093179366	-0.286987
C	 0.8032094181	-1.1221065671	 3.3572670373	 0.350615
C	 0.7552357672	-1.3509735008	 4.8293552114	-0.202068
O	 1.2061358125	-2.6818907688	 5.0876237491	-0.425903
C	 0.0031401522	-0.3893151385	 2.5100105191	-0.359453
H	 1.2860082494	 1.9738596365	 0.0145553075	 0.11427
H	-0.1737823995	 2.1550786205	-0.9776003891	 0.103106
H	-0.2872144572	 2.1771633484	 0.7898081227	 0.114825
H	-1.0304034913	-0.040395655	-0.1706467534	 0.098903
H	 0.5394057008	-0.2448891259	-0.923383543	 0.093299
H	 2.3678264103	-1.6070957188	 0.5379979711	 0.109209
H	 2.484726704	-2.3098347993	 2.9723185128	 0.26278
H	 1.3999062852	-0.630147954	 5.36058844	 0.097972
H	-0.2724828974	-1.189989162	 5.1862540826	 0.105255
H	 1.3504480967	-2.7671768	 6.0348292861	 0.289424
H	-0.8850068119	 0.154660685	 2.7982071242	 0.08331
