21
gdb 92901	2.11718	1.70539	1.31447	3.164	79.2	-0.2397	0.0188	0.2586	1089.082	0.183354	-424.242898	-424.233976	-424.233032	-424.275736	35.236	
C	 0.0127614948	 1.5749632297	 0.0324238038	-0.402382
C	 0.0656846884	 0.0451619305	 0.0169251576	-0.017663
C	 0.7803943554	-0.5103845787	-1.2231127122	 0.110421
O	 2.1523923556	-0.095671235	-1.1376900558	-0.440241
C	 0.6543086787	-2.0389940183	-1.2801989494	-0.296375
C	 0.9228783745	-2.6913152446	 0.050757275	-0.048586
C	 0.9329314033	-2.0206855796	 1.2009397541	-0.073028
C	 0.7059993567	-0.5298677171	 1.3032397026	 0.089383
O	 1.919380041	 0.1297049026	 1.6606181373	-0.440277
H	 1.0174784226	 1.9982268812	 0.070085381	 0.137556
H	-0.4928090565	 1.9547863849	-0.8619109026	 0.10033
H	-0.5352213905	 1.9352634105	 0.9089013351	 0.110543
H	-0.9613415573	-0.3428588901	-0.0260091613	 0.075005
H	 0.3317485325	-0.0770642952	-2.1300120921	 0.063872
H	 2.6454407163	-0.5231344275	-1.8444530937	 0.285895
H	-0.3536379654	-2.3003925315	-1.6351864868	 0.113278
H	 1.3378817671	-2.4372591952	-2.0442257541	 0.090231
H	 1.1148913164	-3.7618837527	 0.0424680484	 0.087209
H	 1.1629842274	-2.5309871041	 2.1325720218	 0.090284
H	 0.0252774618	-0.3276049318	 2.1398429061	 0.079117
H	 2.4941299072	 0.034419632	 0.8885400252	 0.285429
