17
gdb 70416	2.31224	1.56436	1.41689	1.4438	68.41	-0.2563	-0.0378	0.2185	1013.6089	0.13272	-458.936992	-458.92821	-458.927265	-458.970373	32.713	
C	 0.0382030037	 1.5058985507	 0.0599429724	-0.526129
C	 0.2097659103	 0.0260826703	-0.0216231714	 0.363546
O	-0.7688791869	-0.825599014	 0.5935694883	-0.307352
C	 0.6262533634	-1.0119589272	 0.9312601371	-0.024701
C	 1.2419223739	-1.8872977169	-0.1544079051	-0.318096
C	 0.7264574228	-0.8471167004	-1.2230375719	 0.264831
O	-0.2713361994	-1.2537381429	-2.1152981056	-0.492139
C	 1.8215052366	-0.1825614275	-2.0269068012	 0.12226
O	 2.9266274104	 0.0464609878	-1.6041435266	-0.263125
H	 0.9728892758	 2.0148289288	-0.193406674	 0.146615
H	-0.7370385047	 1.8443594867	-0.6361185168	 0.138371
H	-0.2584242857	 1.796321821	 1.0711568239	 0.140587
H	 0.8854577495	-0.9280597405	 1.9797128105	 0.114149
H	 2.3333080784	-1.9033155687	-0.1193595411	 0.138138
H	 0.8380880055	-2.8969413754	-0.2556624217	 0.113242
H	-1.0303435353	-1.4966655135	-1.567969615	 0.292132
H	 1.5046103617	 0.1046153315	-3.0525210718	 0.097672
