14
gdb 13468	3.2861	1.82748	1.31834	3.1469	58.3	-0.2661	-0.0375	0.2286	902.9264	0.105766	-419.721632	-419.713951	-419.713007	-419.754372	26.695	
C	-0.4023134527	 1.416281669	-0.0737025104	-0.487916
C	 0.0739826283	-0.0050583411	 0.1163653289	 0.372966
O	 0.36593053	-0.4793995488	 1.187482687	-0.284911
C	 0.1319865142	-0.8414727781	-1.160562963	-0.297606
C	 0.3728128431	-2.3464586979	-1.0212367672	-0.099701
O	-0.978613459	-2.6175141999	-1.5419691099	-0.231126
C	-1.2495472779	-1.2903589065	-1.6838516328	 0.458209
O	-2.2457101076	-0.76836293	-2.0676046407	-0.317588
H	 0.3257645304	 1.9773686398	-0.6713938799	 0.144502
H	-1.3438362333	 1.4179509611	-0.6344922189	 0.173232
H	-0.5304544594	 1.9012497212	 0.894247819	 0.149257
H	 0.7098746769	-0.3262874719	-1.9322373599	 0.133367
H	 1.1275749676	-2.7855070578	-1.6741710938	 0.131115
H	 0.4710836292	-2.6965474892	 0.0059020915	 0.1562
