19
gdb 100844	2.03109	1.18509	0.7875	3.0189	78.86	-0.2516	-0.0319	0.2197	1423.6621	0.154687	-422.994079	-422.983248	-422.982304	-423.030752	37.87	
C	-0.0021806344	 1.5727011906	 0.0433464286	-0.411684
C	 0.0212123239	 0.039556085	 0.054898273	 0.015034
C	 0.8075682068	-0.4904821776	 1.2564632299	-0.088581
O	 2.1395872604	-0.0119257364	 1.143281464	-0.421669
C	-1.4216715888	-0.5490489162	 0.0436994531	-0.250723
C	-2.1615816714	-0.0780698683	-1.2155274839	 0.164368
O	-3.0974047659	 0.6730602533	-1.212108793	-0.244143
C	-1.4484232347	-2.0087054288	 0.0440755181	 0.290092
C	-1.4990801776	-3.2084344074	-0.0242985934	-0.43248
H	 1.0188970329	 1.9542401756	 0.0955360631	 0.141698
H	-0.4768577089	 1.9700143268	-0.858048524	 0.125519
H	-0.5562714297	 1.9599223643	 0.9065789646	 0.118204
H	 0.5367798968	-0.3198421063	-0.8453886369	 0.097219
H	 0.3331799492	-0.1360315262	 2.1873813901	 0.085621
H	 0.7783356685	-1.5882838858	 1.263054717	 0.105195
H	 2.6421865836	-0.3408627316	 1.8938087	 0.289924
H	-1.9792952876	-0.1576173568	 0.9031858793	 0.121168
H	-1.7455742358	-0.5000065374	-2.1572900318	 0.091935
H	-1.5418360674	-4.269189687	-0.0593960777	 0.203303
