14
gdb 68105	3.18216	1.33102	1.09904	5.2039	69.78	-0.2772	-0.0387	0.2385	1085.7091	0.098556	-436.643926	-436.635762	-436.634817	-436.67669	29.693	
C	 0.0895684905	 1.471009579	 0.1074260629	-0.517285
C	-0.0470357845	 0.0009310993	-0.0891163626	 0.253284
C	 0.5630265675	-0.9456241637	-1.1601531681	-0.291979
C	-0.007455417	-1.872060633	-0.0603978286	 0.180459
O	 0.5086406866	-0.9255210618	 0.956873444	-0.340502
C	 0.1669697577	-3.2805817182	 0.1339141274	 0.184759
N	 0.2674005928	-4.425420915	 0.2592894459	-0.333929
C	-1.2825359998	-0.9410986121	-0.0303040648	 0.420162
O	-2.4539868303	-0.9620558374	 0.1102661352	-0.284727
H	 1.1429572195	 1.7621933548	 0.1419711518	 0.149597
H	-0.3918601739	 2.0007288961	-0.7199875287	 0.14939
H	-0.3927442208	 1.7760369655	 1.0399082221	 0.158212
H	 0.1156546107	-0.9814015378	-2.1558486917	 0.132031
H	 1.6537934408	-0.9297668556	-1.1683678149	 0.140527
