23
gdb 59051	3.02303	1.00965	0.91828	1.6172	88.08	-0.2314	0.0274	0.2587	1418.3508	0.206588	-388.315716	-388.306177	-388.305233	-388.350036	36.573	
C	 0.0889425159	 1.5228908269	-0.109310405	-0.406293
C	 0.0244615435	-0.0018849891	 0.0438977055	 0.022873
O	 0.7159039529	-0.425173784	 1.2225750114	-0.431857
C	-1.3944430189	-0.5403898536	 0.0035007803	 0.347812
C	-1.8616771625	-1.1744241752	-1.0743922885	-0.160865
C	-3.2517851871	-1.741704943	-1.2011853853	-0.242361
C	-3.9670375646	-1.8318315559	 0.1541770498	-0.193917
C	-3.7408595757	-0.5557217054	 0.9716179515	-0.202977
C	-2.2452526027	-0.3384668476	 1.2404560958	-0.30797
H	 1.1293891001	 1.8579778316	-0.064081646	 0.122057
H	-0.3424293232	 1.8369646138	-1.0643631514	 0.121277
H	-0.4665660578	 2.0290651858	 0.6894250278	 0.108636
H	 0.5858293333	-0.4554253968	-0.7801678051	 0.086669
H	 0.3799996432	 0.0924107154	 1.9618714863	 0.278859
H	-1.2069140253	-1.2990671043	-1.9361239249	 0.072593
H	-3.8374925653	-1.1206535838	-1.8964213849	 0.103996
H	-3.2034582709	-2.7324013532	-1.6708963193	 0.101243
H	-5.0369840178	-2.0144983731	 0.0078837915	 0.089794
H	-3.5732048345	-2.6899667019	 0.713986856	 0.099738
H	-4.13734789	 0.3042406206	 0.415931231	 0.096463
H	-4.2900232187	-0.5989777004	 1.9184593435	 0.090021
H	-1.9007122655	-1.0299678547	 2.0226222494	 0.114552
H	-2.0877492084	 0.6692207181	 1.6487533205	 0.089656
