15
gdb 27432	2.56283	1.67312	1.08472	4.4654	80.32	-0.2256	-0.0806	0.145	1067.9705	0.114926	-412.997866	-412.990253	-412.989309	-413.029902	29.183	
N	 0.0790734361	 1.3706554047	-0.1037242283	-0.574936
C	-0.055268276	-0.0138182437	-0.0297816429	 0.283314
C	-1.2394745777	-0.6487053287	-0.2132871428	-0.173118
C	-1.4774789959	-2.0766405909	 0.0299251294	 0.286459
N	-2.5810451242	-2.4542365903	 0.5494567532	-0.507964
N	-0.5341579663	-2.9911736548	-0.483105953	-0.249731
C	 0.7286897336	-2.8628537044	-0.3513341036	 0.066745
N	 1.4876412391	-1.9314843727	 0.3496301366	-0.233191
C	 1.1377231568	-0.703609372	 0.4702544872	 0.000286
H	 0.9736166701	 1.7072625319	-0.4290503226	 0.257766
H	-0.6891403445	 1.8533504381	-0.5467606132	 0.258853
H	-2.1233021802	-0.0644886127	-0.4573789956	 0.113341
H	-2.6098780927	-3.4769750693	 0.5653952871	 0.218241
H	 1.3521935606	-3.6354332087	-0.8039297702	 0.126827
H	 1.8331292511	-0.0570648665	 1.0145534786	 0.127108
