15
gdb 77838	3.4551	1.28706	1.06239	2.2439	72.13	-0.2704	-0.023	0.2474	1097.6155	0.111857	-416.753867	-416.745972	-416.745028	-416.786321	29.247	
C	 0.0170522161	 1.515058553	-0.0956439445	-0.347649
N	-0.0045942016	 0.059248876	 0.0660737627	-0.084849
C	-1.156771311	-0.5824210768	 0.8189384035	-0.138497
C	-0.211112989	-1.8076530657	 1.0160230554	-0.170462
C	 0.0828780629	-2.6020279256	-0.1664333705	 0.281611
N	 0.3066744856	-3.2979210653	-1.0613494903	-0.318596
C	 0.6929538004	-0.5604919665	 1.2641604884	-0.138496
C	-0.4909005704	 0.0279190667	 2.0880492384	 0.410166
O	-0.7130726616	 0.7874755828	 2.9736865861	-0.300917
H	 1.0097002998	 1.8012580684	-0.4534719454	 0.142433
H	-0.7104407797	 1.7808662867	-0.8672677561	 0.142432
H	-0.2092797276	 2.0851599284	 0.8170980913	 0.1361
H	-2.1777789478	-0.5743842833	 0.4446445927	 0.123613
H	-0.4123195504	-2.4389257804	 1.8830671205	 0.139496
H	 1.7719927042	-0.5275614185	 1.3953389879	 0.123615
