19
gdb 52147	5.78975	0.73787	0.72957	2.7472	77.37	-0.2576	-0.0286	0.229	1572.6596	0.158095	-422.968442	-422.959946	-422.959001	-423.003145	30.861	
O	-0.11445817	 0.0643688729	 0.3860701988	-0.23757
C	 0.0405350939	 1.1868622692	-0.0143663818	 0.138563
C	 1.3979354827	 1.7839329085	-0.3432041447	-0.160323
O	 1.1934858531	 3.0598685634	-0.8972887005	-0.272828
C	 2.3761933635	 3.7850109595	-1.1051821926	 0.20041
C	 3.2341632063	 3.5330898796	-2.3884538358	-0.090622
C	 2.0673868853	 4.1736677184	-3.200109704	-0.217162
C	 2.2375683525	 5.0775033546	-1.9395299075	-0.088786
C	 3.7741025357	 4.974335846	-2.1680716286	-0.223345
H	-0.8048171771	 1.8922407075	-0.172983838	 0.097396
H	 1.9901901427	 1.8328851431	 0.5871060524	 0.122499
H	 1.9310822959	 1.1068916897	-1.0287915428	 0.127248
H	 2.9419108636	 3.8672825335	-0.1651238844	 0.063725
H	 3.8153388188	 2.6455966078	-2.6418866671	 0.072606
H	 2.3398207393	 4.6261043277	-4.1568878741	 0.090878
H	 1.1426362908	 3.6017208869	-3.2677035864	 0.107759
H	 1.6643719095	 5.9658696507	-1.6733348473	 0.076586
H	 4.419988672	 5.1402655065	-1.300774993	 0.092341
H	 4.1578352414	 5.4798483247	-3.0561307126	 0.100626
