18
gdb 38623	2.6265	2.26832	1.64535	1.3888	73.45	-0.2312	0.0749	0.3061	865.449	0.150705	-401.89105	-401.884787	-401.883843	-401.92125	26.834	
C	 0.0005034306	 1.4845391743	-0.0566686282	-0.154178
C	 1.4884871511	 1.9522840822	 0.0505840894	-0.308808
C	 1.896929103	 0.8593287282	 1.0176343918	 0.368883
O	 2.8248419433	 0.7567973566	 2.080594722	-0.318361
C	 1.4274178566	 0.9923979831	 2.3989015172	 0.000164
C	 0.4370070615	-0.1220106727	 2.7030847897	-0.285789
C	 0.2086030611	-0.7674120348	 1.333338205	-0.016426
C	 1.3399990284	-0.4283713862	 0.441761706	-0.120676
N	-0.0023582242	-0.0155427394	 0.0463311246	-0.121887
H	-0.6052008645	 1.9408700164	 0.7339279315	 0.107389
H	-0.4527835948	 1.7428709801	-1.0171587907	 0.113108
H	 1.9950401563	 1.8946052742	-0.9181420955	 0.108273
H	 1.5924887592	 2.9641192044	 0.4475735201	 0.112137
H	 1.2574584881	 1.9776593565	 2.82578048	 0.097509
H	 0.8149608485	-0.8803691394	 3.3990504715	 0.123115
H	-0.468536084	 0.3046889046	 3.1496517298	 0.110497
H	-0.2741313076	-1.7404054174	 1.3013458448	 0.096597
H	 1.9261404575	-1.1070286707	-0.171655409	 0.088453
