15
gdb 29416	4.65821	0.95374	0.79261	2.5699	72.68	-0.1858	0.0075	0.1933	1363.3516	0.114	-450.157181	-450.148688	-450.147744	-450.190922	30.711	
N	 0.0120365355	 1.393889879	 0.1580155849	-0.595277
C	-0.0323823026	 0.0038318287	 0.0468481038	 0.295475
C	-1.110992221	-0.8409817924	 0.0373609604	-0.190786
N	-0.555261366	-2.1261334045	-0.0121881372	-0.336095
C	 0.7804476255	-1.9630972863	-0.0304994487	 0.50694
O	 1.5609366923	-3.0671162046	-0.0867986129	-0.228172
C	 2.9163633827	-2.8947195569	-0.005430935	 0.110446
N	 3.6459252722	-3.9162550944	-0.0907638597	-0.432764
N	 1.1521645405	-0.7091236292	-0.0001297467	-0.404756
H	 0.878544383	 1.7612789386	-0.2127834063	 0.249352
H	-0.7790821678	 1.8587757514	-0.2659756286	 0.2435
H	-2.1736416756	-0.6795191667	 0.0666612809	 0.121589
H	-1.0413256121	-3.0058835825	-0.0306409174	 0.273438
H	 3.2002220681	-1.8500878182	 0.1293724788	 0.149537
H	 4.6241405952	-3.645412892	-0.0084671463	 0.237575
