19
gdb 109560	2.48783	1.3054	0.97776	2.4561	71.77	-0.251	-0.0365	0.2145	1239.1576	0.157065	-460.161549	-460.151687	-460.150742	-460.196674	35.443	
C	 0.1410447062	 1.6687885217	 0.1180763695	-0.407902
C	 0.1310061696	 0.1508774777	 0.0252331836	-0.120143
C	 0.6862524372	-0.5913420039	-1.2516850901	 0.06888
O	 1.555404383	 0.1663707087	-2.0618118748	-0.414998
C	 1.3722175041	-1.6572759606	-0.3228234628	-0.15177
C	 2.8213872951	-2.1035757057	-0.5225948756	-0.077797
O	 3.2928124859	-2.7798312284	 0.6258949537	-0.422237
C	 1.1493461803	-0.669718233	 0.8266646525	 0.359421
O	 1.729157352	-0.4994193075	 1.8678988536	-0.324436
H	 1.1117117556	 2.0848871902	-0.1667862546	 0.114377
H	-0.6143878818	 2.1083532144	-0.5391595974	 0.130951
H	-0.065796866	 1.9859494427	 1.1440173711	 0.139362
H	-0.8692428219	-0.242739472	 0.2482895415	 0.112478
H	-0.0735335244	-0.9828099214	-1.928764768	 0.099631
H	 2.2468876242	 0.5583314267	-1.5176488064	 0.286895
H	 0.7315045941	-2.5371621629	-0.196808678	 0.11403
H	 2.9018818862	-2.7997090964	-1.3630817812	 0.119397
H	 3.4542423333	-1.2353520619	-0.7659115773	 0.076386
H	 3.1596815273	-2.1835582284	 1.3749033308	 0.297476
