16
gdb 33773	3.86013	1.43063	1.2428	2.1546	74.46	-0.2478	0.005	0.2528	1000.8002	0.125345	-400.705326	-400.698267	-400.697323	-400.736497	28.632	
C	-0.0158579863	-1.192435663	-0.0321441484	-0.341448
C	-0.0355009631	 0.009064286	-0.0312497624	 0.155769
C	-0.0167496797	 1.4554718181	 0.0170223335	 0.150572
C	-0.2399843574	 2.1900089783	 1.3865254571	-0.26773
C	 0.628468101	 3.3125485023	 0.7731752911	 0.090339
C	 1.3550383199	 2.2169248755	-0.0405795705	-0.267727
O	-0.1814261212	 4.1077923166	-0.1170344985	-0.236095
C	-0.9149650511	 3.3330344885	-0.9514674806	 0.108991
N	-0.9191578394	 2.0652315545	-0.9800450032	-0.291675
H	-0.0103303311	-2.2541868891	-0.045771608	 0.184112
H	-1.2700706414	 2.422483308	 1.6607658054	 0.119969
H	 0.2791413215	 1.6873984871	 2.2034737774	 0.120961
H	 1.1775074192	 4.0123158899	 1.4000235748	 0.097432
H	 2.1188279773	 1.7184396951	 0.5574569358	 0.120961
H	 1.7371297457	 2.4732365297	-1.0298427183	 0.11997
H	-1.5258059542	 3.9303159325	-1.6229044351	 0.135598
