15
gdb 19804	4.15786	2.01457	1.8093	1.2118	63.76	-0.2339	-0.0325	0.2014	758.0921	0.11939	-362.600722	-362.594552	-362.593608	-362.630918	24.586	
O	-0.0440963993	 0.0036241848	-0.1210225264	-0.290502
C	-0.0434843103	 1.196039772	-0.044147456	 0.391578
C	-1.1585045651	 2.2645148313	 0.0991201847	-0.373932
C	-0.0553519705	 3.3564917907	 0.0826806554	 0.021946
C	 1.0582867103	 2.2790012698	-0.0024003623	-0.165973
C	 1.4291052497	 2.913560485	-1.3608996666	-0.022317
C	 0.3059412407	 2.9970677562	-2.3104441998	-0.256484
N	 0.3757020702	 4.0005002061	-1.2286340904	-0.143438
H	-1.94344604	 2.2801499636	-0.6612480986	 0.138576
H	-1.636907004	 2.1900159997	 1.0823135217	 0.139441
H	-0.0896822145	 4.1061386953	 0.8700917873	 0.095675
H	 1.8694433458	 2.1714485056	 0.7160566781	 0.09971
H	 2.4503907351	 3.146476609	-1.6438647113	 0.106992
H	 0.5159443817	 3.4389886547	-3.279907697	 0.129771
H	-0.4776823897	 2.2462080463	-2.334261499	 0.128959
