21
gdb 68488	2.61146	1.66563	1.26998	0.5375	77.45	-0.2441	0.0736	0.3177	1057.2721	0.184695	-424.218841	-424.211049	-424.210105	-424.250395	32.404	
O	-0.0040914559	 1.4344587797	-0.0681206624	-0.478034
C	 0.0003074145	 0.026539656	 0.0413106375	 0.388106
C	 0.24255944	-0.627559398	 1.4325290692	-0.28451
C	-0.9376945968	-1.5961459528	 1.1163350419	-0.003156
C	-1.4299618423	-0.5567814958	 0.0670850418	-0.275263
C	-0.4994824722	-2.940126059	 0.5204728629	-0.213003
C	 0.2203619524	-2.8486346999	-0.8335781498	-0.071461
O	 1.2938283985	-1.9201484504	-0.8432873262	-0.24159
C	 0.912688346	-0.5746834332	-1.0464321782	-0.141987
H	 0.9042738339	 1.7489285217	 0.0037761674	 0.275035
H	 1.2238359015	-1.0681992326	 1.623301181	 0.099522
H	-0.0162488349	 0.0765310702	 2.2273223834	 0.097549
H	-1.6187562127	-1.7782094503	 1.9508329767	 0.069084
H	-2.1077903293	 0.1740232447	 0.5142837514	 0.108676
H	-1.8619309311	-0.9131995898	-0.8724413792	 0.092016
H	 0.1559162817	-3.4475202531	 1.2394677791	 0.102702
H	-1.3759397847	-3.5874059415	 0.3830854364	 0.094345
H	 0.6584096388	-3.8213637804	-1.0801614032	 0.104242
H	-0.4928373115	-2.6023051195	-1.6355738904	 0.091274
H	 0.4318419385	-0.4458122286	-2.0303518932	 0.095855
H	 1.8543809756	-0.0113122574	-1.0592441162	 0.0906
