18
gdb 118397	3.29429	0.81309	0.70491	6.0378	73.87	-0.264	-0.0376	0.2264	1592.436	0.144725	-439.094204	-439.083876	-439.082932	-439.131228	34.405	
C	 0.039991462	 1.426907069	-0.0612684212	-0.235042
O	-0.0440599768	 0.0178435106	-0.0616516527	-0.240424
C	 0.6902414892	-0.5777030928	-1.1024515909	-0.076814
C	 0.5406594294	-2.1038633748	-0.980698701	-0.112476
C	 1.3022132483	-2.8186599467	-2.1128043979	-0.352797
C	 0.8919901736	-4.2117245278	-2.271149176	 0.267199
N	 0.5436036022	-5.3051310907	-2.4037085277	-0.303904
C	 1.0383150412	-2.5527512981	 0.3899767473	 0.168212
O	 2.0423357896	-3.19758796	 0.5539956655	-0.243216
H	 1.0766572363	 1.7711044803	 0.0721927356	 0.114497
H	-0.350121737	 1.8548541165	-0.9972452569	 0.112593
H	-0.5648474798	 1.7870282225	 0.7733431499	 0.138295
H	 0.3185807176	-0.2461761404	-2.086887959	 0.100976
H	 1.7563349503	-0.2971945372	-1.0434676601	 0.104218
H	-0.5313835148	-2.3276558735	-1.0360186209	 0.125028
H	 1.1378361827	-2.3025597138	-3.0648795194	 0.147888
H	 2.3748859698	-2.7957881493	-1.897060343	 0.171934
H	 0.4160352864	-2.2170048039	 1.2416849183	 0.113833
