18
gdb 52044	2.6301	1.12983	0.89353	3.3761	80.81	-0.252	0.0258	0.2778	1329.7897	0.145583	-401.894509	-401.885058	-401.884114	-401.929569	34.357	
N	-0.3725037356	 1.1843636094	-0.3049904773	-0.444915
C	-0.6020885259	 0.0700238507	 0.2399724953	 0.135581
O	-0.5637587055	-1.058714976	-0.4991218342	-0.178207
C	-0.9068772351	-2.2799885488	 0.1466968518	-0.163706
C	-2.3732563682	-2.6378226571	-0.0324375383	 0.159041
C	-2.7982455734	-3.1748282529	-1.3903436288	-0.279468
C	-2.7086268784	-4.112938463	-0.2254756102	-0.300769
C	-3.3015439513	-1.8203182639	 0.70117966	 0.262558
C	-4.0585297044	-1.1273505898	 1.3293205345	-0.460825
H	-0.4211692801	 1.9246269738	 0.3918612591	 0.227344
H	-0.8298468064	-0.1088468443	 1.2987515546	 0.091619
H	-0.2837587609	-3.0486381829	-0.3191627328	 0.115137
H	-0.6538288515	-2.2318080582	 1.2134975978	 0.114667
H	-3.7800644052	-2.8894546195	-1.746852084	 0.135555
H	-2.0322276282	-3.2186702772	-2.1564098847	 0.133238
H	-1.8833763237	-4.8162339213	-0.1860523502	 0.121919
H	-3.6274407205	-4.4689454999	 0.2238265006	 0.133515
H	-4.7358722255	-0.5154116592	 1.8717503567	 0.197718
