13
gdb 27970	3.85108	1.21307	0.92249	0.5293	68.82	-0.2671	-0.0935	0.1737	1149.0239	0.090989	-452.820321	-452.813284	-452.81234	-452.85216	25.931	
O	 0.4823752622	 1.3072296845	 0.3359623034	-0.385867
C	 0.2259207419	 0.0099527388	 0.1357555975	 0.458644
N	 0.2977634853	-0.4410168008	-1.1184179335	-0.395317
C	 0.0361419009	-1.7419962178	-1.2852506234	 0.217471
C	 0.1164038786	-2.2487305123	-2.6914588847	 0.11325
O	-0.0922214101	-3.3950460386	-2.9997484276	-0.242327
C	-0.2909741885	-2.5806098017	-0.2261868446	-0.18432
C	-0.3312644436	-1.9836582153	 1.0307504936	 0.019647
N	-0.0759228987	-0.6918670269	 1.2290347027	-0.280565
H	 0.6830278542	 1.6866205945	-0.5306062385	 0.310004
H	 0.3876099138	-1.465789285	-3.428716751	 0.097528
H	-0.4976429624	-3.6291401858	-0.3914474286	 0.137696
H	-0.5782500836	-2.5627227835	 1.9173946148	 0.134155
