14
gdb 33366	4.48025	0.77442	0.76455	4.498	74.8	-0.2835	-0.0527	0.2308	1466.0144	0.10145	-436.658716	-436.650513	-436.649569	-436.693655	27.92	
N	 0.3882707712	-3.6172926265	-0.0271523032	-0.328911
C	 0.2556993464	-2.4635120211	-0.0144295988	 0.207496
C	 0.1019672053	-1.1065229014	 0.0025579837	 0.030457
C	-0.0320254333	 0.0937927914	 0.021366267	 0.158594
C	-0.1999889879	 1.5667061982	 0.0370507072	-0.049132
O	-0.7532418893	 1.9945640833	 1.2591293281	-0.235377
C	 0.3352641554	 2.3708245652	 2.1128330449	-0.095519
C	 1.5800723579	 2.2930529631	 1.2023603406	-0.119738
O	 1.0287625355	 2.224422661	-0.1136556175	-0.216669
H	-0.8610522952	 1.8719682261	-0.7805011542	 0.139436
H	 0.1399510575	 3.3831287203	 2.4778156159	 0.12784
H	 0.4040072026	 1.6885207179	 2.966106185	 0.124117
H	 2.2179536748	 3.1767542661	 1.2506331966	 0.134506
H	 2.1809019291	 1.4003060765	 1.4155797148	 0.122899
