20
gdb 46498	3.67149	1.21105	1.04231	3.2631	80.89	-0.2527	0.0237	0.2764	1195.4376	0.173042	-403.158904	-403.150847	-403.149903	-403.191569	31.698	
N	-0.0541912678	 1.2817541804	-0.3155577204	-0.501357
C	-0.0107051539	 0.0588861349	 0.0103862897	 0.380804
C	-1.2712985479	-0.7706504472	 0.1176784822	-0.264126
C	-1.2055330098	-1.8295342922	 1.2281451691	-0.304941
C	 0.0908318867	-2.5990704507	 1.0857140673	 0.364042
C	 0.25178109	-3.9693738528	 1.684649133	-0.333436
C	 0.141787905	-3.8096184033	 0.1860584646	-0.29992
C	 1.2744611822	-1.6663358735	 1.1218992821	-0.144299
O	 1.1832013903	-0.5929628762	 0.1685575523	-0.255591
H	 0.8962599821	 1.6552713427	-0.3736904104	 0.215535
H	-2.1127807916	-0.0871178917	 0.2387711498	 0.129039
H	-1.400470389	-1.281509092	-0.8457171369	 0.126991
H	-1.2424782278	-1.3444079852	 2.2129228553	 0.105781
H	-2.0711442443	-2.4970548738	 1.1682724721	 0.099806
H	 1.2169092533	-4.2419853657	 2.0999859709	 0.114549
H	-0.5936572569	-4.3887184527	 2.2200131327	 0.116164
H	-0.7782855706	-4.1273657267	-0.2937260182	 0.115457
H	 1.032002189	-3.9717708698	-0.4125192576	 0.118095
H	 1.3759931512	-1.2258174539	 2.124987003	 0.105702
H	 2.2069937698	-2.1853509705	 0.8849570793	 0.111705
