19
gdb 93062	2.61222	1.44383	1.02585	1.3388	88.69	-0.2195	-0.0405	0.179	1176.2819	0.161303	-385.894935	-385.886868	-385.885923	-385.927353	31.9	
O	 0.0702719132	 1.4748481926	-0.1090510315	-0.432018
C	 0.054746612	 0.0594666456	 0.1057052341	 0.082007
C	-1.3822646879	-0.45732941	 0.3096703166	-0.289989
C	-1.4248928993	-1.8315037203	 0.9004877651	-0.069361
C	-1.4596791162	-2.9759121552	 0.2034331117	-0.071587
C	-1.4091102416	-3.1012674271	-1.2411928523	-0.100426
C	-0.6210419157	-2.4442529132	-2.1197328532	-0.097003
C	 0.4962334589	-1.5248035057	-1.9276175107	-0.076674
C	 0.8195134616	-0.5915078141	-1.0137345262	-0.094405
H	-0.2894934203	 1.63113364	-0.9898835392	 0.275869
H	 0.6057987482	-0.0667309824	 1.0450593191	 0.096699
H	-1.8823515314	 0.2546330463	 0.9730247807	 0.10946
H	-1.9002529092	-0.440198793	-0.6559727581	 0.106184
H	-1.4496170792	-1.8908031404	 1.986707338	 0.093027
H	-1.5884931186	-3.9082971309	 0.7512456813	 0.092624
H	-2.0497446675	-3.8755803715	-1.6612792499	 0.093525
H	-0.7337790374	-2.7468776505	-3.1598777835	 0.091069
H	 1.2361637407	-1.6393276468	-2.7208670731	 0.092896
H	 1.7744822297	-0.0911306335	-1.1685551589	 0.098102
