16
gdb 50895	4.43949	0.61689	0.57206	2.7939	71.95	-0.2667	-0.0552	0.2114	1829.2954	0.120953	-437.927734	-437.91795	-437.917006	-437.964974	32.549	
O	 0.7918546788	-0.2593063463	-0.2563162546	-0.223026
C	 0.3619294116	 0.8496661125	-0.4189680725	 0.163011
C	 1.0822126668	 2.1115391616	 0.0485878979	-0.379302
C	 1.0605142487	 3.1810622184	-1.0394132665	 0.364392
O	 0.0193787112	 3.5319341752	-1.5455168368	-0.299983
C	 2.4028723945	 3.7520789724	-1.462162427	-0.310007
C	 2.2561122113	 4.8076493345	-2.5684856828	-0.338424
C	 3.5447571586	 5.3688175466	-2.9635908836	 0.255304
N	 4.5724662546	 5.803452553	-3.2633776671	-0.298953
H	-0.6038149256	 1.0469752591	-0.9275419151	 0.114119
H	 0.5058993439	 2.5099068538	 0.8947331351	 0.165345
H	 2.086034526	 1.8560616999	 0.3928036533	 0.13531
H	 2.8988069645	 4.173567997	-0.5786430071	 0.153968
H	 3.0462711571	 2.9247238374	-1.7881421678	 0.157058
H	 1.7689236104	 4.3670970313	-3.4436498916	 0.170913
H	 1.5983978975	 5.6143014835	-2.2305048437	 0.170278
