20
gdb 10989	2.73888	2.37186	1.70219	1.5394	74.45	-0.23	0.0889	0.3189	873.271	0.177654	-348.994057	-348.986457	-348.985513	-349.025246	30.413	
C	-0.1683730081	 1.5591912292	-0.0765317093	-0.437829
C	 0.0100662986	 0.048993649	 0.001100754	 0.007227
C	 1.1575205443	-0.602994161	-0.8470893188	-0.080552
C	 2.1294971497	-0.2209395837	 0.3119111874	-0.283108
C	 0.8710651026	-0.5573081952	 1.156595051	 0.449852
C	 0.6967057353	-0.2452836813	 2.6152180063	-0.49715
O	 0.7191347468	-1.9774666833	 0.923194508	-0.316645
C	 0.9185742804	-2.0765926798	-0.5054346701	-0.084223
H	 0.7720783986	 2.1115005216	 0.0023986851	 0.117128
H	-0.6336005314	 1.8411957383	-1.0274842918	 0.11756
H	-0.8265752471	 1.9125218659	 0.7251050977	 0.119024
H	-0.9646719739	-0.4423214897	-0.0987389154	 0.067954
H	 1.3440239424	-0.342093677	-1.8888662617	 0.065553
H	 3.0095709314	-0.8490213615	 0.4733632745	 0.094953
H	 2.4072710235	 0.8322620334	 0.3209242121	 0.100122
H	 0.7881047006	 0.8299335437	 2.7938456809	 0.116984
H	-0.2884431379	-0.5737337954	 2.9616929508	 0.126208
H	 1.4548496516	-0.7617462441	 3.212166197	 0.127158
H	 0.0259157687	-2.4975558628	-0.9840079569	 0.095101
H	 1.7770969737	-2.7239143463	-0.7226511007	 0.094682
