17
gdb 52569	4.38774	0.56414	0.51	4.7691	82.27	-0.2521	-0.0566	0.1956	2083.0772	0.131257	-421.830364	-421.81964	-421.818696	-421.870256	34.618	
C	 0.0363524953	 1.4710305072	-0.0016912922	-0.505363
C	 0.011972822	 0.0202202011	-0.06236431	 0.17411
C	-0.0293252442	-1.1849853101	-0.1171304932	-0.025474
C	-0.0580137139	-2.6298202785	-0.1741190757	 0.209545
O	-1.0685564692	-3.2498587487	-0.430085513	-0.29143
C	 1.2796477799	-3.3143757849	 0.0925577878	-0.319437
C	 1.1508527191	-4.8345144394	 0.2360592875	-0.276064
C	 2.4867374213	-5.5242093756	 0.0975173942	 0.155714
O	 2.9598308471	-6.2904033064	 0.8956036638	-0.237921
H	 1.0362660535	 1.8475888307	 0.2364071356	 0.159835
H	-0.2719867192	 1.9033379634	-0.9597229557	 0.166595
H	-0.65661931	 1.8365773937	 0.7638329086	 0.167272
H	 1.9432688873	-3.0519161913	-0.7450532385	 0.136931
H	 1.7382413294	-2.8603428331	 0.9784514749	 0.140156
H	 0.6985801033	-5.1138342822	 1.1904577012	 0.131708
H	 0.4916148094	-5.1986026409	-0.5631290722	 0.145653
H	 3.0337724489	-5.267313625	-0.8421290233	 0.068169
