23
gdb 104309	2.82956	1.26056	1.17424	1.2439	84.37	-0.2566	0.0692	0.3258	1213.6653	0.206257	-388.299226	-388.290117	-388.289173	-388.332497	36.315	
C	 0.0758646038	 1.575458172	 0.0303821299	-0.407966
C	-0.0014091851	 0.0444306216	 0.0070065308	-0.2057
C	-1.4271087803	-0.5282264732	-0.0303694868	 0.390251
O	-2.1514864944	-0.1572548785	 1.1527644963	-0.488323
C	-2.241184219	-0.144100866	-1.2954703602	-0.276524
C	-3.29282519	-1.2647184155	-1.4563306298	-0.217911
C	-2.6176025195	-2.5054294666	-0.8893421661	-0.031572
C	-1.1969058977	-2.7800554016	-1.3176943077	-0.311451
C	-1.4659212276	-2.0503542584	-0.0247536433	-0.023434
H	 1.1165845347	 1.9113319552	 0.0622787109	 0.118049
H	-0.3871648403	 2.0219493697	-0.8559594527	 0.118381
H	-0.4181248011	 1.9913047448	 0.9162263513	 0.108057
H	 0.5499663025	-0.3371872299	-0.8603924764	 0.094077
H	 0.4965913897	-0.356426716	 0.8977516699	 0.098894
H	-2.2310422954	 0.802012694	 1.1603035047	 0.273916
H	-2.6961625271	 0.845490031	-1.1935522417	 0.087582
H	-1.5829370503	-0.0982512208	-2.1696362151	 0.098152
H	-4.1791077242	-1.0348740446	-0.8556759063	 0.10718
H	-3.6195218409	-1.3808159826	-2.4954687087	 0.090817
H	-3.2369747963	-3.3457193768	-0.5963858021	 0.079014
H	-0.8436673184	-3.8019432324	-1.2324540983	 0.108334
H	-0.7772497652	-2.245092398	-2.1640128958	 0.104992
H	-1.2271669779	-2.5331920073	 0.9159417372	 0.085184
