20
gdb 112547	2.77771	1.10636	1.00109	2.553	77.5	-0.2377	0.0298	0.2675	1318.3336	0.168831	-440.313366	-440.303113	-440.302169	-440.348997	36.481	
C	-0.0678164919	 1.564301734	 0.2297532487	-0.378697
C	-0.1116649349	 0.086008789	-0.1680996646	-0.158925
N	-1.4356877666	-0.4897355532	-0.0922087113	-0.084859
C	-2.3478749594	-0.7279020712	 1.0358033739	-0.209202
C	-3.380141992	-1.2709737718	 0.0015340981	 0.258586
C	-3.7358260801	-2.7469283927	 0.0897855369	-0.446695
O	-4.5268610945	-0.4445808683	-0.0551241004	-0.472934
C	-2.3074768707	-0.8998586962	-1.0632502279	 0.359146
O	-2.2497096783	-0.9229439078	-2.2684444203	-0.394519
H	 0.9543994864	 1.9467507703	 0.1506962228	 0.122155
H	-0.7114746153	 2.160911817	-0.4228341896	 0.135211
H	-0.3999515714	 1.7086818681	 1.2627253307	 0.122844
H	 0.2132622457	-0.0415228643	-1.2053802001	 0.140837
H	 0.5731911497	-0.4950002092	 0.4641054487	 0.109305
H	-1.974066484	-1.4533392009	 1.766700664	 0.105753
H	-2.6886530539	 0.1800556611	 1.5412536888	 0.121779
H	-4.4044818609	-2.9239028569	 0.9375350458	 0.127379
H	-4.2454292393	-3.0641048943	-0.8260824506	 0.128597
H	-2.8413051307	-3.3666928753	 0.2068515421	 0.121788
H	-4.8811473578	-0.5095326175	-0.9497851056	 0.292451
