22
gdb 57493	3.36437	1.01145	0.9518	2.192	85.86	-0.2429	0.028	0.2709	1385.4975	0.192194	-404.355294	-404.345309	-404.344365	-404.389947	37.447	
C	-0.2033961302	 1.5387507028	 0.0369756283	-0.403523
C	 0.0048821262	 0.0117583115	 0.0464507507	 0.263118
C	 0.8040096991	-0.4155274225	 1.2930405278	-0.403526
C	-1.3603268673	-0.6942988837	 0.0428638352	-0.386341
N	 0.6976732831	-0.4216593269	-1.1835109916	-0.347296
C	 1.8399660654	-0.034953165	-1.4978017328	 0.462736
C	 2.7705819157	-0.3055325356	-2.6651133899	-0.368451
C	 3.718842723	 0.6584388488	-1.9254631417	-0.078643
O	 2.7329983293	 0.8320390612	-0.8647990503	-0.267154
H	 0.752662206	 2.0666954565	 0.0591481154	 0.128515
H	-0.7468064284	 1.8433155491	-0.863061277	 0.110646
H	-0.7902964242	 1.8476005256	 0.9083870404	 0.105735
H	 0.2486447217	-0.1677442186	 2.2037371934	 0.10573
H	 0.9748559387	-1.4966597667	 1.2836587706	 0.110642
H	 1.7729018423	 0.0875254331	 1.3311490937	 0.128525
H	-1.9326655046	-0.415753532	-0.8469148677	 0.110846
H	-1.2292181641	-1.7803528047	 0.0301340597	 0.110846
H	-1.9427242811	-0.4243134497	 0.9300505468	 0.099866
H	 3.1081345746	-1.3398502438	-2.7495828718	 0.1371
H	 2.3995577319	 0.0351952425	-3.6331727953	 0.137099
H	 4.6426933049	 0.2253122584	-1.5339849594	 0.121765
H	 3.929987648	 1.6084019997	-2.4227960145	 0.121765
