19
gdb 65580	2.81805	1.35248	1.21762	3.0973	78.39	-0.2537	0.0369	0.2905	1107.0007	0.160959	-382.075755	-382.067525	-382.066581	-382.108643	31.904	
C	 0.05183804	 1.5004452978	 0.0135189885	-0.440961
C	 0.0149156989	-0.0364164056	 0.0035277852	 0.123538
C	 0.7880226805	-0.666410671	-1.2070652074	-0.248671
C	 1.3252070453	-1.99417616	-0.6903834387	-0.034845
N	 2.5563868468	-1.8363607503	 0.1115134144	-0.333948
C	 1.2564497304	-2.0021774402	 0.7944603317	-0.034845
C	 0.6731560285	-0.6797778418	 1.2735386302	-0.248671
C	-1.3846694235	-0.4870821136	-0.0637072543	 0.26601
N	-2.4836018713	-0.8434970955	-0.1165457669	-0.350355
H	 1.0912110799	 1.8377413994	 0.0634644969	 0.129451
H	-0.4040957676	 1.9121267672	-0.8912231714	 0.134179
H	-0.4859561724	 1.9026000556	 0.8766323553	 0.134179
H	 0.1357808327	-0.7871503979	-2.0746504178	 0.121043
H	 1.6161552685	-0.0099435448	-1.4900515227	 0.118112
H	 1.190760793	-2.8971508209	-1.2757829386	 0.096955
H	 3.0628441095	-2.7190854335	 0.1302084352	 0.232718
H	 1.0689305805	-2.9113283144	 1.3551855488	 0.096955
H	 1.4712666898	-0.0268038564	 1.6388855981	 0.118112
H	-0.0564090195	-0.8095158742	 2.0757881533	 0.121043
