21
gdb 115318	2.29728	1.41865	1.0893	1.761	79.21	-0.2238	-0.0237	0.2002	1223.9216	0.181736	-424.253483	-424.243959	-424.243015	-424.288093	35.003	
C	 0.1017676938	 1.2084124306	 0.3191246956	-0.242458
O	-0.034378371	-0.1523632466	-0.0533396637	-0.256235
C	-1.3820287127	-0.6030225904	-0.1506361566	 0.024981
C	-1.3613637713	-1.9982719017	-0.769718598	-0.247592
C	-1.0306459258	-2.9327733972	 0.4144024075	-0.224961
C	-1.8329936473	-2.3486450342	 1.5915941692	-0.068438
C	-1.3373931451	-2.6629155259	 3.0014554438	-0.406046
C	-1.8927074052	-0.8453688934	 1.2910341276	 0.400529
O	-2.2232410534	 0.0177919422	 2.0666211659	-0.331817
H	 1.1729000235	 1.4241927092	 0.3235937933	 0.124932
H	-0.3948503716	 1.8681687038	-0.408611211	 0.105824
H	-0.316725369	 1.4099248732	 1.3117089422	 0.138832
H	-1.9975633823	 0.1308425887	-0.6885426349	 0.075027
H	-2.3547692424	-2.2300131615	-1.1714513838	 0.101751
H	-0.6404974285	-2.0589262988	-1.5878893048	 0.113922
H	-1.2746987715	-3.9783306199	 0.2105868253	 0.098551
H	 0.0405869793	-2.8777216167	 0.6359452444	 0.117887
H	-2.8778461366	-2.6876893462	 1.5002781924	 0.10273
H	-0.2842294363	-2.3845152703	 3.1128136539	 0.122567
H	-1.9141208595	-2.0983402807	 3.7389448347	 0.136354
H	-1.4312551071	-3.7294993343	 3.226079487	 0.113659
