23
gdb 115745	3.42065	0.85224	0.73199	0.8384	92.03	-0.2561	0.058	0.3141	1621.4959	0.204466	-351.118506	-351.108374	-351.10743	-351.153847	37.883	
C	-0.0177368196	 1.7244550511	 0.1582770391	-0.390557
C	 0.4315916945	 0.2825635356	-0.1049994948	-0.192267
C	 0.6654042607	-0.5022773168	 1.1809829215	 0.046465
C	-0.5426095301	-0.8699112107	 2.0896242423	-0.228815
C	 0.1394863419	-2.2327150549	 2.3859203864	-0.222016
C	 1.0565421512	-2.0187622996	 1.1476152233	-0.015436
C	 0.5938211912	-2.7901991418	-0.102453428	-0.380291
C	 0.8317569053	-4.2245862428	 0.0142300502	 0.295929
C	 1.0396794895	-5.4025019208	 0.1363839136	-0.429229
H	 0.7371357809	 2.2753168859	 0.7303744952	 0.113927
H	-0.1883397554	 2.2659168449	-0.7773073454	 0.111503
H	-0.9502845909	 1.7498549341	 0.7322653871	 0.119575
H	-0.3247147245	-0.2222641536	-0.7194729286	 0.092977
H	 1.3544642867	 0.2916657285	-0.7007037527	 0.093808
H	 1.4153924091	 0.0265381414	 1.7826373241	 0.068448
H	-0.7561136688	-0.2159369016	 2.9383506441	 0.095224
H	-1.4647003141	-0.9874494217	 1.5104099209	 0.096434
H	 0.7053358551	-2.2148709174	 3.3209735782	 0.10026
H	-0.4876506321	-3.1276356176	 2.3806376512	 0.10478
H	 2.1183846202	-2.2272713707	 1.3047384431	 0.073567
H	-0.4757750787	-2.6173962103	-0.2794063238	 0.126493
H	 1.1139134859	-2.4064166258	-0.9893678516	 0.128214
H	 1.2195871419	-6.4443709156	 0.2317107445	 0.191007
