14
gdb 64637	2.35382	1.62788	1.42351	1.5834	67.57	-0.2711	-0.0359	0.2351	972.7868	0.099257	-436.692845	-436.684701	-436.683757	-436.725552	29.935	
C	-0.0220532312	 1.5482165422	-0.0060195391	-0.408671
C	-0.0128752681	 0.0069556934	-0.0236130195	-0.086774
N	 0.8104314995	-0.4979343052	-1.1459637921	-0.252042
C	 1.7500665683	-1.1521710121	-0.6085354159	 0.117268
O	 1.8059014347	-1.2494066681	 0.7613182825	-0.20468
C	 0.7140108552	-0.5276344302	 1.2363677447	 0.429079
O	 0.4873077164	-0.3826785636	 2.3917282456	-0.308035
C	-1.3657099158	-0.5373299542	-0.0896004433	 0.370769
C	-2.4809154525	-0.9796876038	-0.1281566741	-0.46699
H	 1.0019190819	 1.9298896445	 0.0229925032	 0.132215
H	-0.5127790687	 1.9154613941	-0.9086944023	 0.149687
H	-0.5628184135	 1.899556333	 0.8751446528	 0.153523
H	 2.553853446	-1.6624936453	-1.1253842276	 0.164029
H	-3.4677165422	-1.3713530748	-0.1643978249	 0.210623
