23
gdb 104606	2.13169	1.24954	1.00577	1.6284	82.3	-0.2395	0.0774	0.3169	1342.6778	0.202639	-425.404551	-425.393859	-425.392914	-425.4407	39.697	
C	-0.8715870739	-1.4136606192	-0.7929649291	-0.4042
C	 0.0011736639	-1.2200252208	-2.0342367645	 0.139209
C	-0.7567897185	-0.5480548015	-3.1747139818	-0.385236
O	 1.1299012422	-0.3800656253	-1.7756520594	-0.327513
C	 2.2000112081	-0.8476068887	-0.9851433464	 0.405973
C	 2.4661713157	 0.1332044872	 0.1370161767	-0.110294
O	 1.3557034405	 0.2841929867	 1.0023052669	-0.420383
C	 2.479682716	-2.309848009	-0.7675220349	-0.325399
C	 3.3818626313	-1.4866579949	-1.6650528439	-0.307982
H	-0.286842696	-1.7827326739	 0.0524035707	 0.14178
H	-1.3359195301	-0.464463132	-0.5004067324	 0.110474
H	-1.6753717473	-2.1282474708	-0.9991152045	 0.111263
H	 0.3467984023	-2.2033155387	-2.3835035646	 0.071352
H	-1.0925715987	 0.448726187	-2.8714520553	 0.120069
H	-0.1141844478	-0.4396779041	-4.0521847802	 0.121263
H	-1.6347562636	-1.1387097518	-3.4526704861	 0.113397
H	 3.300101578	-0.2192538975	 0.7519595793	 0.101587
H	 2.7583797149	 1.0998366601	-0.3032021932	 0.092354
H	 0.626970421	 0.5800047812	 0.4455318153	 0.284312
H	 2.8420083191	-2.6035570343	 0.2121576474	 0.12099
H	 1.8486074729	-3.0523153623	-1.2406354787	 0.119476
H	 3.2934648502	-1.6476247645	-2.7338815163	 0.116451
H	 4.38256282	-1.2386272829	-1.3262298052	 0.111057
