19
gdb 64868	3.494	0.91185	0.8209	2.4841	83.55	-0.2493	-0.0275	0.2219	1424.1448	0.156392	-385.859599	-385.850125	-385.849181	-385.89416	35.233	
C	-0.2124172446	 1.5788399212	-0.0140935827	-0.445988
C	-0.0255654304	 0.0542254808	-0.0021488981	 0.147951
C	 1.1733543719	-0.4070602286	-0.9018779829	-0.281856
C	 2.0922615607	-0.4560152003	 0.3568497735	-0.06825
C	 0.8042408178	-0.4355510666	 1.2352838221	-0.281872
C	 2.9656028409	-1.6712974556	 0.4913122736	 0.157766
O	 4.1519549554	-1.6597355052	 0.6957375726	-0.251475
C	-1.2891897687	-0.6264666348	-0.2294783602	 0.260185
C	-2.3308755926	-1.1982325386	-0.4170122627	-0.44328
H	 0.7414688316	 2.0878934903	 0.1574386397	 0.119071
H	-0.6104924581	 1.9105532344	-0.9774534451	 0.129675
H	-0.9119845301	 1.8872768681	 0.7682322201	 0.129674
H	 1.0006958485	-1.4026529793	-1.3190087687	 0.117922
H	 1.4720222154	 0.2694755837	-1.705261307	 0.117438
H	 2.7072237223	 0.437486019	 0.4749323232	 0.09499
H	 0.813111735	 0.2186252565	 2.1095302823	 0.117427
H	 0.5061442518	-1.4408257187	 1.5444417025	 0.117916
H	 2.4098140187	-2.6348814802	 0.3830408354	 0.0684
H	-3.2510070655	-1.701887426	-0.5826038275	 0.194305
