18
gdb 13854	4.10016	1.42601	1.20779	1.9492	67.72	-0.2469	-0.0157	0.2312	1031.2574	0.153797	-384.965944	-384.95763	-384.956685	-385.000404	29.208	
C	-0.2299854888	 1.4379360351	 0.0807362512	-0.479882
C	-0.0697938143	-0.0713912342	 0.0770193093	 0.365154
O	-0.0906905951	-0.7168779003	 1.0999999148	-0.296935
C	 0.0781778626	-0.7246078413	-1.2942707606	-0.090537
C	 0.6318884768	-2.1684432268	-1.2650499438	-0.256017
C	-0.4440459761	-2.9931877482	-2.0042655458	-0.07836
O	-1.1875404445	-2.0592433366	-2.7790882533	-0.236238
C	-1.31394276	-0.9063270071	-1.9774793171	-0.097803
H	 0.6858070489	 1.9091341233	-0.2952188499	 0.142991
H	-1.0394123578	 1.7441965467	-0.5919359848	 0.140433
H	-0.4338746092	 1.7912763917	 1.0919808567	 0.143498
H	 0.6911915778	-0.0794083798	-1.9305790811	 0.085055
H	 1.5939884432	-2.2205654139	-1.779154247	 0.106707
H	 0.7674654192	-2.5041908769	-0.2356193906	 0.132739
H	-0.0385291474	-3.743530738	-2.6868493609	 0.109908
H	-1.105356062	-3.4989081165	-1.2835961949	 0.098354
H	-2.0948210301	-1.0454330937	-1.2103294968	 0.098819
H	-1.5996948832	-0.0707505436	-2.6208992252	 0.112112
