15
gdb 30534	6.9004	0.84541	0.75398	3.4315	80.07	-0.179	-0.0152	0.1638	1436.1696	0.113735	-450.16516	-450.156536	-450.155591	-450.198681	31.381	
N	-0.0102752626	 1.2990266182	 0.0918875542	-0.494798
C	-0.0468394519	-0.0519140166	 0.0116229607	 0.121112
N	-1.1606554816	-0.691617075	 0.0216864237	-0.354059
C	-1.1521398349	-2.0558872916	-0.0062460266	 0.486576
N	-2.2074692883	-2.821622645	-0.0510280174	-0.380631
C	-1.7098156617	-4.1119845291	-0.0648640611	 0.269601
N	-2.587606519	-5.186343321	-0.1744980063	-0.599814
C	-0.3515217268	-4.0767295796	-0.0238655562	-0.138049
O	 0.0211811185	-2.7438050042	 0.0156142172	-0.197423
H	 0.8390937381	 1.7950145272	-0.1100373757	 0.2679
H	-0.8814322769	 1.8020155383	 0.0271840632	 0.271683
H	 0.9348248303	-0.5309937962	-0.0337172327	 0.129734
H	-3.5102477573	-4.9358297036	 0.1556706186	 0.252959
H	-2.2613162315	-6.0318014396	 0.2723140334	 0.24323
H	 0.4401644657	-4.803749862	-0.0176137452	 0.121978
