19
gdb 38774	3.03841	1.68498	1.2297	1.0886	81.43	-0.2268	0.0185	0.2453	1036.1135	0.161241	-385.859038	-385.851915	-385.850971	-385.8902	29.614	
C	 0.0537549829	 1.5483737012	 0.0473551798	-0.319981
C	 1.3106546493	 0.7372154727	 0.0111627425	 0.105232
O	 2.0713485182	 0.7554286847	 1.1827866937	-0.245488
C	 2.6424411423	-0.4830475515	 1.4856435589	 0.105232
C	 2.6644112382	-0.8436610789	 2.9377313555	-0.319981
C	 1.7478819119	-1.5933130211	 1.9750115035	-0.095676
C	 0.2730644696	-1.4278349642	 2.0556582267	-0.070478
C	-0.4893712147	-0.7292467127	 1.2115288635	-0.070478
C	-0.0174874961	 0.0242227157	 0.0204860223	-0.095677
H	-0.1637434147	 2.0303525254	 0.9938796069	 0.127057
H	-0.2424071839	 2.1039027101	-0.8353268007	 0.111371
H	 1.8982885186	 0.7157112486	-0.9072262561	 0.083349
H	 3.4972261799	-0.7493336234	 0.8630295827	 0.08335
H	 3.5312181694	-1.3537166267	 3.3426276072	 0.111371
H	 2.193222176	-0.1292285544	 3.6033773246	 0.127057
H	 2.0751286411	-2.6034745737	 1.7333170478	 0.094906
H	-0.2125226272	-1.9451011974	 2.8824769943	 0.086965
H	-1.5646371178	-0.7062135231	 1.3854865041	 0.086965
H	-0.333061263	-0.396946251	-0.9329093672	 0.094906
