18
gdb 127082	2.65191	1.32451	1.06436	3.7143	75.67	-0.2076	0.0134	0.221	1187.5017	0.147445	-435.243202	-435.234096	-435.233152	-435.277414	33.415	
C	 0.0053539048	 1.4978791332	 0.0583676834	-0.326853
N	-0.0447465895	 0.0391600003	 0.0440533121	-0.181147
C	 0.7890634622	-0.5550189701	 1.0880385042	-0.329011
C	-1.3533342649	-0.4962975452	-0.0248504421	 0.048619
C	-1.7887192314	-1.3801285866	-0.9819373276	 0.435835
N	-1.1114190927	-1.9905908609	-2.0036152629	-0.591632
O	-3.0679317828	-1.6984370841	-0.7897603674	-0.218216
N	-3.5500323225	-0.9953975859	 0.3511843008	-0.171703
C	-2.517049835	-0.3127243087	 0.7759563833	-0.009953
H	 1.0414145127	 1.8286540251	-0.0719167891	 0.117803
H	-0.5918195523	 1.8940196161	-0.7665672711	 0.125237
H	-0.370440897	 1.9390341039	 0.9988618305	 0.100234
H	 0.4676501549	-0.2790207547	 2.10795353	 0.10063
H	 0.7597351655	-1.6439271894	 1.0045870437	 0.130161
H	 1.8256547978	-0.2244913813	 0.9602879736	 0.115554
H	-0.2555111351	-1.5043767721	-2.2358089758	 0.263799
H	-1.6729523034	-2.234735745	-2.8068614775	 0.265613
H	-2.6416125813	 0.3120544754	 1.650505602	 0.125031
