19
gdb 73017	2.77674	1.48282	1.17567	2.3079	75.63	-0.2246	0.0597	0.2842	1100.1439	0.158574	-422.95779	-422.949445	-422.948501	-422.990733	31.964	
O	-0.0300792871	 1.462657116	 0.1546250728	-0.447953
C	 0.0084304512	 0.0849409471	 0.0872866572	 0.214324
C	-0.8689648261	-0.7675380969	-0.8295981094	-0.143439
O	-1.0277062087	-1.7708807548	 0.2128999217	-0.286616
C	-0.3002463987	-0.9583419719	 1.138814485	-0.041503
C	 1.1127118788	-0.7610527755	 0.6678741783	 0.28522
C	 2.0572025072	-1.8124921322	 0.0736410017	-0.303111
C	 3.0459115471	-1.4957230665	 1.2372239938	-0.206767
C	 2.2127969248	-0.2277137472	 1.59611361	-0.302641
H	 0.7641000736	 1.8122584023	-0.2646389566	 0.290508
H	-1.8289375178	-0.2904622526	-1.0566969782	 0.114436
H	-0.4241450813	-1.1802585382	-1.7428314123	 0.101629
H	-0.6371241054	-0.9162636717	 2.1687823595	 0.108179
H	 1.6625586152	-2.8289681237	 0.0150859965	 0.1162
H	 2.4535297411	-1.5335049909	-0.9084319277	 0.094967
H	 3.0098830817	-2.2493019414	 2.0270907675	 0.110073
H	 4.0896535423	-1.32988215	 0.963102157	 0.099622
H	 2.6697509648	 0.697452156	 1.2274576973	 0.090073
H	 1.9519721673	-0.079838488	 2.6474855659	 0.106798
