13
gdb 2254	3.88863	3.11379	2.03647	2.7448	54.44	-0.2423	-0.0253	0.217	641.8881	0.10012	-344.434906	-344.428428	-344.427484	-344.465167	23.608	
C	-0.082871574	 1.5670765091	 0.0674676979	-0.513139
C	 0.1498916902	 0.0963924298	-0.0036978038	 0.284316
O	-0.754292134	-0.7985829881	 0.6934071032	-0.272675
C	 0.6384165095	-0.930153204	 0.9593922429	-0.03574
C	 1.1882758741	-1.856028318	-0.1329063789	-0.370874
C	 0.709435854	-0.7643140616	-1.1419333894	 0.385439
O	 0.8775184324	-0.5847813209	-2.3104380216	-0.293957
H	 0.8007767384	 2.1119134265	-0.2779903052	 0.138981
H	-0.9247560645	 1.8522376055	-0.57133793	 0.148335
H	-0.3102693086	 1.8695571324	 1.0928592508	 0.139158
H	 0.9836295133	-0.7835617647	 1.975578482	 0.119723
H	 2.2779035854	-1.9528421588	-0.1640585579	 0.132395
H	 0.7204128238	-2.8403250573	-0.1924742601	 0.138037
