24
gdb 117538	2.1404	0.98581	0.71038	3.8627	90.26	-0.3075	0.0372	0.3448	1687.9268	0.215539	-368.449339	-368.438008	-368.437064	-368.486357	40.633	
C	-0.0370013766	 1.6002966633	-0.0710632711	-0.383799
C	 0.0502543729	 0.0717443598	-0.0713945457	-0.183617
C	 0.687971772	-0.4795538448	 1.2090993513	-0.188043
C	 0.7693864458	-2.0240388513	 1.2609167556	-0.137221
C	 1.5189196059	-2.5157121312	 0.0972438665	 0.289534
N	 2.1250966422	-2.888318418	-0.8143379546	-0.348905
C	 1.3902982048	-2.5912635864	 2.5731376393	 0.02982
C	 0.6136821781	-2.1260800354	 3.8128069378	-0.405054
C	 1.4620052737	-4.1243592058	 2.5359453501	-0.406753
H	 0.9573663071	 2.0533018364	 0.0076780202	 0.118725
H	-0.4979401486	 1.9695507088	-0.9919677587	 0.118128
H	-0.6351481116	 1.9661829471	 0.7710692772	 0.113228
H	-0.9557480323	-0.3537038091	-0.1852892138	 0.096896
H	 0.6252576307	-0.2646630454	-0.9414413544	 0.127609
H	 1.6984186422	-0.0681831413	 1.3282104761	 0.110106
H	 0.1057271499	-0.1404613521	 2.071339311	 0.10684
H	-0.2509045326	-2.4253693839	 1.172661116	 0.117196
H	 2.4145972672	-2.2010634507	 2.6386034559	 0.091629
H	-0.4426354009	-2.4134303559	 3.7461977561	 0.115824
H	 1.0260258609	-2.5977154945	 4.7099741448	 0.119969
H	 0.6620983149	-1.0447162685	 3.9606914878	 0.122273
H	 2.0320262162	-4.4842072994	 1.6756715364	 0.144618
H	 1.940884095	-4.5058245322	 3.4427620408	 0.116482
H	 0.4575257332	-4.5613620397	 2.4828880354	 0.114515
