15
gdb 28241	4.82202	1.28689	1.03264	2.613	68.7	-0.182	0.0275	0.2095	1096.82	0.115438	-453.961206	-453.953965	-453.953021	-453.992908	27.489	
N	 0.03780733	 1.3034030696	 0.0604235067	-0.582551
C	-0.0423095995	-0.062535889	 0.0216037445	 0.433942
N	-1.1351145441	-0.7841042161	-0.0320373493	-0.426798
C	-0.6216908032	-2.0507201076	 0.0944556931	 0.375801
C	 0.7100204711	-2.0617995696	 0.2337775854	 0.13146
C	 1.2679448813	-3.4259157952	 0.0431159706	-0.361278
C	-0.1019823531	-4.1944713939	 0.1959010565	-0.087021
O	-1.2099990091	-3.2622620496	-0.0234149217	-0.278913
O	 1.1310226754	-0.7380951913	 0.1475208294	-0.225002
H	 0.8889412963	 1.692364008	-0.3181172298	 0.266159
H	-0.8022182478	 1.7574381322	-0.2658549704	 0.273963
H	 1.7250166125	-3.5843177742	-0.9446708238	 0.113556
H	 1.981286146	-3.77507258	 0.7972113022	 0.117632
H	-0.2200975177	-5.0127691003	-0.5155378748	 0.124798
H	-0.198865308	-4.5816721829	 1.2149984715	 0.124252
