16
gdb 9321	6.47681	0.78674	0.71072	4.038	68.81	-0.2652	-0.0564	0.2088	1500.3671	0.126978	-383.713153	-383.703738	-383.702794	-383.748292	32.089	
O	 0.0138789627	 1.4143700493	 0.0095780919	-0.418423
C	 0.0394876277	-0.0033788763	 0.0017275247	-0.083366
C	-1.4026078642	-0.4926296042	 0.012693222	-0.166806
C	-1.4955866535	-2.0164387444	 0.0054653655	-0.310879
C	-2.92361463	-2.5346434322	 0.0162951412	 0.225803
O	-3.8970613041	-1.8141661523	 0.0297321017	-0.283541
C	-3.0531824223	-3.9850686382	 0.009635195	 0.246928
C	-3.1412333428	-5.1855688573	 0.0040093634	-0.38974
H	 0.9210797685	 1.7328260331	 0.0023542516	 0.286482
H	 0.558514536	-0.3890343483	-0.8920102835	 0.083248
H	 0.5752203301	-0.3985457149	 0.8813454006	 0.083246
H	-1.911086772	-0.0913107048	 0.8947765571	 0.124634
H	-1.9275498865	-0.0819927123	-0.8553483254	 0.124614
H	-0.9955473016	-2.449117866	-0.8729321103	 0.131959
H	-0.979026093	-2.458361894	 0.8695934648	 0.131976
H	-3.2386229051	-6.244151527	-0.0003608004	 0.213865
