19
gdb 39931	2.87757	1.57338	1.24123	0.1157	90.66	-0.2065	-0.033	0.1736	1067.7451	0.161139	-348.759604	-348.75208	-348.751136	-348.791358	30.696	
C	 0.1267385802	 1.5681894613	 0.0091353504	-0.277324
C	 1.383489982	 0.7385072692	-0.0070432479	-0.327693
C	 0.0460027659	 0.0468645957	 0.0019054301	 0.29035
C	-0.3995347455	-0.6559297495	 1.2402659876	-0.176766
C	-1.6932110975	-0.8678640422	 1.5495222815	-0.052499
C	-2.8312619115	-0.5918363634	 0.7047463173	-0.106874
C	-2.8440368339	-0.5847031116	-0.6533572494	-0.106873
C	-1.722105617	-0.8517301958	-1.5222440153	-0.052499
C	-0.4228198189	-0.642928213	-1.2351685519	-0.176766
H	-0.1417155041	 2.0763374697	 0.928907054	 0.113188
H	-0.1589192471	 2.0859420855	-0.9000366954	 0.113188
H	 1.9630823809	 0.706089783	-0.9243005928	 0.108672
H	 1.980229978	 0.6965165262	 0.898758868	 0.108672
H	 0.3709548866	-1.003745809	 1.9257184863	 0.092289
H	-1.918460854	-1.3080505839	 2.5191751804	 0.090349
H	-3.7886283966	-0.4921047451	 1.2114326156	 0.088973
H	-3.8107552094	-0.4797494982	-1.1408696564	 0.088973
H	-1.9655990777	-1.2817301024	-2.4920581401	 0.090349
H	 0.3346051495	-0.9834496664	-1.938608652	 0.092289
