14
gdb 30484	3.84436	1.23743	0.94155	4.9103	69.71	-0.2611	-0.0606	0.2006	1175.0918	0.100106	-473.866504	-473.858344	-473.857399	-473.900748	28.328	
C	-0.3378524811	 1.4634785308	-0.1215331261	-0.332325
N	-0.1849767516	 0.0226325537	-0.1424309151	-0.308272
C	 0.7029530005	-0.5326375755	-0.8180972073	 0.499174
O	 1.6126301273	 0.1668876978	-1.600279051	-0.228268
C	 2.5499523182	-0.4933740822	-2.3083403944	 0.091133
C	 2.6759791663	-1.8227290267	-2.3154980009	-0.309106
C	 1.7601430671	-2.624687753	-1.5209341571	 0.441827
O	 1.7364740696	-3.8144909723	-1.4172987384	-0.311923
O	 0.8103065998	-1.8864285613	-0.808452395	-0.246272
H	 0.3822197033	 2.0098385913	-0.74029251	 0.122262
H	-1.3502783933	 1.7153579646	-0.4548791201	 0.138248
H	-0.2486862305	 1.8124069311	 0.9128110136	 0.138248
H	 3.1786769253	 0.1928596227	-2.8634052934	 0.158737
H	 3.4372010391	-2.325203921	-2.8929073949	 0.146539
