21
gdb 114655	2.44847	1.36583	1.18072	2.9743	77.49	-0.2392	0.0709	0.3101	1163.1067	0.18352	-424.196932	-424.188299	-424.187355	-424.230232	33.404	
C	-0.037781389	 1.7423875823	-0.6692779624	-0.444105
C	 0.2282760287	 0.2611316125	-0.4438975807	 0.051714
C	 1.4714440927	-0.4871190942	-0.9858823233	 0.057148
C	 2.6845412056	 0.2452515397	-0.3651597272	-0.275921
C	 2.1872770204	 0.2417154374	 1.1161518998	 0.062514
C	 2.2308128126	 1.5608775515	 1.8709836842	-0.121886
O	 1.6798471056	 1.3235626907	 3.1618902247	-0.424379
C	 0.8012643733	-0.393124655	 0.8473355814	 0.030334
O	 1.2049264958	-1.525933167	 0.0059834354	-0.300123
H	 0.8608573185	 2.3599248637	-0.6087969329	 0.119446
H	-0.4703932651	 1.8955621096	-1.6641349621	 0.117682
H	-0.7578607287	 2.1272301081	 0.0610483048	 0.122986
H	-0.6524111229	-0.3237801286	-0.722295139	 0.088635
H	 1.5507427545	-0.8539376901	-2.0100161519	 0.073641
H	 3.6073784578	-0.3216780124	-0.5018555475	 0.107825
H	 2.8358075897	 1.2486932657	-0.7770986494	 0.094905
H	 2.7597418661	-0.4822461693	 1.7032543852	 0.092902
H	 3.2767151472	 1.9013213886	 1.9416737394	 0.08763
H	 1.6699979229	 2.3459034231	 1.3463327926	 0.086772
H	 1.7062291457	 2.1472844228	 3.6572708594	 0.286832
H	 0.1843574787	-0.6644684591	 1.7024784894	 0.085449
