16
gdb 65304	2.72836	1.33094	1.11262	3.8889	70.06	-0.2586	0.0038	0.2624	1108.8444	0.123025	-437.847127	-437.838646	-437.837702	-437.880459	31.063	
O	-0.0572921064	 1.3669864532	-0.0488641755	-0.44112
C	 0.0138833285	-0.0240770804	 0.0024022867	 0.199537
C	-0.4917570322	-0.7456931999	 1.2485263905	-0.414732
C	-1.3159310384	-0.7295353991	 0.0045019117	 0.244085
C	-2.6587499147	-0.0677228635	-0.2792847014	-0.131573
O	-3.0189596111	-1.1497695654	-1.1668243221	-0.271936
C	-1.7915874896	-1.8617696346	-0.8978766748	-0.140836
C	 1.1074137692	-0.61990331	-0.7352625297	 0.245213
N	 1.984344179	-1.0957580869	-1.3208904815	-0.344646
H	 0.6898179469	 1.7323483543	 0.4395130757	 0.301144
H	-0.001193127	-1.6688228116	 1.5393052425	 0.142916
H	-0.7942194696	-0.0979522573	 2.0653601226	 0.135646
H	-3.3364372892	 0.0033036796	 0.581016953	 0.108569
H	-2.6114031367	 0.8990239967	-0.7913189612	 0.129136
H	-1.1992318927	-2.0359393563	-1.8039478977	 0.12806
H	-1.9723063558	-2.817869489	-0.3902710688	 0.110538
