17
gdb 45223	3.18964	1.79126	1.42599	2.7727	70.71	-0.2204	0.0217	0.2421	916.0557	0.139795	-418.00254	-417.996062	-417.995118	-418.033379	26.502	
O	 0.0017654083	-0.0393698172	 0.0309412588	-0.375854
C	 0.0040066323	 1.169197373	-0.0290545356	 0.397455
N	-1.1115979777	 1.9769102358	-0.0554443204	-0.304843
C	-0.846874358	 3.3965422748	 0.0109614308	-0.030358
C	-0.4814824268	 3.9805377143	 1.4121705589	-0.185725
N	 0.9861773097	 3.9650215388	 1.1008013438	-0.137669
C	 1.6168279846	 2.6267861695	 1.360184171	-0.18272
C	 1.2206666433	 2.0944969486	-0.0556091042	-0.160611
C	 0.6695459769	 3.5103281254	-0.310719931	 0.005096
H	-2.0204209408	 1.5748579575	 0.1155314216	 0.251219
H	-1.5595604387	 3.9697780321	-0.5852521149	 0.09008
H	-0.8276938716	 5.0085226704	 1.5583160404	 0.111426
H	-0.778346125	 3.3771384733	 2.2762134908	 0.106225
H	 2.697090155	 2.7318636267	 1.4909338242	 0.118733
H	 1.2124832974	 2.0813207367	 2.2190780474	 0.11555
H	 2.0223392238	 1.6906143128	-0.6714964685	 0.099802
H	 1.0094346975	 4.1132074476	-1.1532833431	 0.082194
