21
gdb 101403	2.99081	1.00426	0.80307	4.0451	78.51	-0.2691	0.0109	0.28	1461.5159	0.181691	-424.263545	-424.253857	-424.252912	-424.298521	35.207	
C	 0.093959904	 1.6093370109	-0.0895494757	-0.393185
C	 0.0200171828	 0.0795011297	-0.0582579024	-0.172307
C	-1.410884938	-0.4891858458	-0.0039163592	 0.015829
C	-2.2348521293	-0.1562698682	-1.2568386001	-0.408944
C	-1.3684905709	-2.0085642522	 0.2059125675	-0.192168
C	-0.9027747364	-2.5740030103	 1.5630009815	-0.110049
O	-2.2124927098	-3.1976595082	 1.7660005286	-0.238444
C	-2.6875370501	-2.6963933822	 0.5801493553	 0.456159
O	-3.7824308324	-2.8158596446	 0.1299886667	-0.327383
H	 1.1341193321	 1.9480650839	-0.0652840859	 0.116684
H	-0.3646331131	 2.0216874277	-0.9928354485	 0.124502
H	-0.4182077066	 2.0477018272	 0.7743113643	 0.117286
H	 0.5303397175	-0.3324960588	-0.9398994779	 0.096975
H	 0.58088217	-0.2826743467	 0.8132944023	 0.093835
H	-1.9174709867	-0.048449944	 0.867775591	 0.079743
H	-3.2182660905	-0.6308849896	-1.2127294215	 0.151212
H	-2.3809265823	 0.9217717839	-1.3622323698	 0.118033
H	-1.7283258756	-0.5158609944	-2.1608033698	 0.11235
H	-0.8927039434	-2.4966938613	-0.6514894626	 0.110082
H	-0.1145082872	-3.328729578	 1.542523748	 0.125712
H	-0.7075331442	-1.836017919	 2.3449316282	 0.124079
