23
gdb 122811	7.10125	0.47985	0.45707	3.4144	84.53	-0.2434	-0.0078	0.2356	2444.5326	0.201941	-425.444502	-425.432803	-425.431859	-425.483803	39.359	
C	-0.0955277215	 1.5207604155	-0.1286310222	-0.37423
C	 0.0289223668	 0.0089143825	 0.0432209149	-0.274479
C	 0.7809769121	-0.402028875	 1.3043468578	 0.371769
O	 1.2262730475	 0.4144171637	 2.0781103704	-0.293162
C	 0.9394083985	-1.9019199969	 1.5339118593	-0.304208
C	 1.7002239782	-2.2499068703	 2.8118252338	-0.190639
C	 1.8395083995	-3.7528984875	 3.0086881472	-0.054082
O	 2.5498738996	-3.9857481702	 4.2040436691	-0.228756
C	 2.7318053815	-5.3527303728	 4.4772539759	-0.226813
H	 0.8903479888	 1.9898545929	-0.1774035801	 0.131414
H	-0.6409095538	 1.762496518	-1.0451769468	 0.10852
H	-0.6239296458	 1.966958038	 0.717585541	 0.131403
H	-0.9597420007	-0.4700632701	 0.0702597602	 0.118883
H	 0.5393441067	-0.4474392443	-0.8163254709	 0.118883
H	-0.0648603812	-2.3499864112	 1.5363064498	 0.118103
H	 1.4353705849	-2.3272397098	 0.6493467854	 0.118111
H	 2.6953443118	-1.795545031	 2.7879137589	 0.121332
H	 1.189635801	-1.8184816851	 3.6781131054	 0.121319
H	 0.844264071	-4.2315515181	 3.0546751084	 0.078997
H	 2.3699299386	-4.2083187111	 2.1525430741	 0.078999
H	 3.3052959135	-5.8576195622	 3.6828942765	 0.100839
H	 3.2875566532	-5.4292575942	 5.415067499	 0.126956
H	 1.7708083501	-5.8804625204	 4.5903587131	 0.100841
