21
gdb 98844	3.03643	1.09945	0.98991	2.8537	81.24	-0.2017	0.0224	0.2241	1321.904	0.182375	-420.412265	-420.402226	-420.401281	-420.448122	35.653	
C	-0.1876398415	 1.6497701113	 0.7470146439	-0.333971
N	-0.1483407068	 0.2016429059	 0.7968653742	-0.32017
C	 1.0159180624	-0.5025475551	 0.8888077953	 0.415561
O	 2.1151992424	 0.028911432	 0.9443299287	-0.387583
C	 0.8466535712	-2.0221471826	 0.9520873555	-0.09071
C	 1.9003804064	-2.7688914839	 0.0843824351	-0.237053
C	 2.6594762725	-3.0399462774	 1.404689008	-0.155069
N	 1.4411098514	-2.661493935	 2.1473371191	-0.054595
C	 1.5560935232	-1.9514535099	 3.4038573224	-0.333429
H	 0.8432045882	 2.0015262739	 0.8041520373	 0.172089
H	-0.6377970132	 2.0061161372	-0.1862805425	 0.126039
H	-0.7547380276	 2.0622486821	 1.5889535779	 0.126073
H	-1.0144798785	-0.3093684322	 0.7630246231	 0.247245
H	-0.2052806693	-2.3004959142	 0.7962272523	 0.052518
H	 1.4960504012	-3.6671606174	-0.3839827061	 0.10511
H	 2.4194886793	-2.157940126	-0.6524306589	 0.120538
H	 3.0030262546	-4.0629432406	 1.597973561	 0.090358
H	 3.4947389426	-2.3417349805	 1.548458884	 0.110043
H	 2.1441531339	-1.0221922109	 3.3345104755	 0.120665
H	 0.5571010792	-1.7038047202	 3.7812384995	 0.10951
H	 2.0320220783	-2.6086144265	 4.1398827746	 0.11683
