13
gdb 129918	3.39543	1.69019	1.1301	5.3043	68.37	-0.2051	-0.0379	0.1672	972.4026	0.09083	-448.898876	-448.891474	-448.89053	-448.930646	27.536	
N	 0.0169498785	 1.4468059505	 0.1703034145	-0.611728
C	 0.0250898957	 0.0492298245	 0.0459860045	 0.082994
C	-1.0626797769	-0.8158816155	 0.0096283149	-0.115901
N	-0.648201128	-2.1443533356	-0.0242534503	-0.396131
C	 0.7155471759	-2.1173304988	-0.0172132382	 0.324116
C	 1.153350854	-0.8110205783	 0.0296920552	 0.347224
O	 2.4845363684	-0.8141138398	 0.0292377015	-0.268537
N	 2.848788496	-2.2566305305	-0.0228857863	-0.048865
N	 1.7874464513	-2.9412417023	-0.046988269	-0.219259
H	 0.797893972	 1.879544107	-0.3063523721	 0.255455
H	-0.8443604085	 1.8643783238	-0.1575509014	 0.246095
H	-2.1143976883	-0.5758994607	 0.0147440326	 0.125949
H	-1.2478202698	-2.9481247942	-0.0525050758	 0.278586
