19
gdb 31123	2.04126	1.61931	0.94543	1.2441	79.25	-0.2086	0.0197	0.2284	1250.7078	0.158211	-423.063397	-423.053783	-423.052839	-423.098081	34.695	
C	-0.0147200639	 1.4635162219	-0.1455570517	-0.501782
C	-0.1274388124	-0.017517656	-0.0654683451	 0.288274
C	-1.1890418683	-0.8788368748	-0.0404250514	 0.007639
C	-2.647485688	-0.5226271076	-0.1131597361	-0.174872
O	-2.9470323392	 0.4829211053	-1.0792673184	-0.407284
C	-0.632032022	-2.2093971762	 0.0660643385	 0.176944
C	-1.3772499944	-3.506888979	 0.1306070126	-0.504072
C	 0.7139470827	-2.0376486079	 0.0969953491	-0.128682
O	 1.0390016979	-0.7174406728	 0.0138832666	-0.182918
H	 0.6903076606	 1.7639092783	-0.9285862385	 0.132898
H	-0.9937196642	 1.887263181	-0.3725540897	 0.155852
H	 0.3468721186	 1.8911632388	 0.7975307089	 0.133698
H	-3.2351665	-1.4338834188	-0.3021354787	 0.093999
H	-3.0061762472	-0.1126281028	 0.8383274065	 0.12002
H	-2.5410548369	 0.2062464854	-1.9078510139	 0.279609
H	-2.0246795863	-3.6484692067	-0.742954888	 0.126956
H	-0.6850917749	-4.3526819701	 0.1680062053	 0.124797
H	-2.0199735415	-3.5662106632	 1.0166477213	 0.129639
H	 1.5428314893	-2.7235556248	 0.1642998228	 0.129283
