16
gdb 128678	3.36981	1.32628	0.9633	3.4812	67.25	-0.2101	0.0472	0.2572	1173.4091	0.124612	-471.243826	-471.234652	-471.233708	-471.278222	31.4	
C	-0.0087499505	 1.3784569847	 0.0227585538	-0.239907
O	 0.0260111913	-0.0533903909	-0.0151163451	-0.26497
C	 0.6412804588	-0.5736776638	-1.0732089577	 0.523192
N	 1.1982346312	 0.0718179931	-2.0496101286	-0.340817
N	 1.6762583693	-0.9549390718	-2.8604915478	-0.32967
C	 1.4142859283	-2.2131059666	-2.3865255855	 0.466122
O	 1.6871982147	-3.3039424924	-2.8424750424	-0.430969
N	 0.7217929042	-1.9344543384	-1.189974023	-0.203687
C	 0.2149830644	-2.9518191922	-0.2959145972	-0.348166
H	 1.0063209521	 1.7850372298	 0.0374685507	 0.146993
H	-0.5362792306	 1.7711033323	-0.8509958392	 0.146963
H	-0.5389167379	 1.6360766724	 0.9391499417	 0.139589
H	 2.1628345272	-0.7377867409	-3.7109569497	 0.2782
H	 0.4803162019	-3.9131398462	-0.7398748009	 0.17177
H	 0.6696934168	-2.8674757408	 0.6950401809	 0.142682
H	-0.8716703113	-2.8818865083	-0.1950298998	 0.142677
