17
gdb 9180	7.75278	0.78878	0.72866	3.907	69.76	-0.2643	-0.0283	0.236	1501.8111	0.139779	-363.909007	-363.899568	-363.898624	-363.945353	31.576	
C	 0.0965182278	 1.5396451269	 0.0089295729	-0.37636
C	-0.0477351168	 0.0197544075	 0.0026798881	-0.279305
C	-1.4925317625	-0.4547543968	 0.0139237292	 0.373515
O	-2.4294409275	 0.3108728161	 0.026904465	-0.292749
C	-1.7070174992	-1.9660423343	 0.0079648249	-0.299755
C	-3.1994203525	-2.3314532869	 0.020507919	-0.336479
C	-3.4106053406	-3.7762416087	 0.0147581275	 0.253404
N	-3.5600670162	-4.9221339994	 0.0100094316	-0.304517
H	 1.1517532908	 1.8251871672	 0.0005459958	 0.115487
H	-0.3891853777	 1.9814876635	-0.864579609	 0.134346
H	-0.3728348148	 1.9726864452	 0.8956811408	 0.134362
H	 0.4433752323	-0.4233958892	-0.8748819075	 0.12674
H	 0.459707144	-0.4320767841	 0.8664200685	 0.126756
H	-1.2108970207	-2.3929294574	-0.8720349266	 0.144748
H	-1.1939329449	-2.4022419261	 0.8735511147	 0.144737
H	-3.6834275647	-1.8985390761	 0.901170973	 0.167531
H	-3.7004136769	-1.8890814371	-0.845840888	 0.167542
