17
gdb 16434	3.34169	2.2599	1.70268	1.7815	68.4	-0.2406	0.0699	0.3106	815.3242	0.141881	-363.768899	-363.761791	-363.760847	-363.799683	28.026	
C	-0.129802383	 1.5842552088	-0.0438837507	-0.430184
C	-0.0189586204	 0.0762064736	 0.0563433544	 0.002083
N	 1.1814731194	-0.5643866099	-0.6456650193	-0.167545
C	 2.0992408253	-0.2785721827	 0.5694368416	-0.079411
C	 2.569867881	-1.7357000105	 0.6163947052	-0.268458
C	 1.0739474819	-1.7935060971	 0.295310406	-0.0261
C	 0.7049770681	-0.6080164881	 1.2198438869	 0.335547
O	 0.3634058754	-0.7399318953	 2.5546204305	-0.467401
H	 0.7858900304	 2.0867566918	 0.2835965635	 0.11456
H	-0.325918201	 1.8850204101	-1.0780124892	 0.132859
H	-0.9574446812	 1.9519204255	 0.5727038101	 0.117399
H	-0.9537378716	-0.4082365859	-0.2540685067	 0.072424
H	 2.6841914569	 0.6401850992	 0.6229507054	 0.080584
H	 3.2477244845	-2.0490230892	-0.1813545725	 0.106974
H	 2.8761655405	-2.1215847021	 1.5905246759	 0.109133
H	 0.4383803019	-2.6365540002	 0.0196519222	 0.083684
H	 0.3389823318	 0.1360431623	 2.9557153465	 0.283851
