18
gdb 9766	2.61452	2.1658	1.69022	1.8121	63.32	-0.2445	0.0787	0.3231	868.774	0.153372	-422.080093	-422.071946	-422.071002	-422.112483	30.354	
C	-0.0907236899	 1.5692631012	 0.2818881605	-0.424619
C	-0.016997841	 0.0751072691	-0.0044992834	 0.437321
C	-1.3992302663	-0.5455783174	-0.2640431414	-0.087101
O	-1.3358022212	-1.9524899848	-0.3460670696	-0.424612
O	 0.8492661013	-0.1331152345	-1.1132084806	-0.291035
C	 1.7372812604	-1.1949230852	-0.7948071898	-0.097412
C	 1.8568477279	-1.0709845657	 0.7217896346	-0.104763
O	 0.5539007785	-0.6391050542	 1.1020262371	-0.311822
H	 0.9126497069	 1.9598992593	 0.4662395987	 0.123472
H	-0.5139645925	 2.0978552186	-0.5772759826	 0.128292
H	-0.7144612218	 1.7616372761	 1.1582862592	 0.124585
H	-2.0943359157	-0.2144682066	 0.5239128888	 0.086013
H	-1.772372482	-0.1799010769	-1.2247908823	 0.118262
H	-0.9120319115	-2.2347594266	 0.4737488114	 0.283909
H	 1.311778089	-2.1628302515	-1.0874812044	 0.112285
H	 2.6797474752	-1.0324475348	-1.3244488204	 0.110409
H	 2.0759066486	-2.0123529755	 1.2325329827	 0.112623
H	 2.6127261438	-0.3253189906	 1.0056866813	 0.104193
