18
gdb 5615	3.1437	1.78748	1.2424	1.7951	74.86	-0.1749	0.0565	0.2314	1004.142	0.155158	-344.019692	-344.011179	-344.010235	-344.052477	31.768	
C	 0.0747663299	 1.546308966	-0.0514657383	-0.363838
C	-0.0046135806	 0.0111274087	 0.0410737339	-0.311628
C	-1.4059151391	-0.5271085599	 0.0332351845	 0.245386
C	-2.1538335515	-0.9260688117	 1.1209532629	-0.173423
N	-3.3743619473	-1.3524041333	 0.6777259432	-0.243335
C	-3.4390135927	-1.2268934539	-0.6952420443	-0.162025
C	-2.2301127418	-0.72200276	-1.1218663373	 0.149835
N	-1.8045293331	-0.5185686213	-2.4536992877	-0.608996
H	 1.1147100663	 1.8901343248	-0.0593232592	 0.105919
H	-0.4060095136	 1.9212495785	-0.9622280714	 0.105457
H	-0.434471058	 2.0134747213	 0.7973377446	 0.116136
H	 0.5561201485	-0.4272442264	-0.7946436723	 0.106568
H	 0.505456245	-0.3149038756	 0.9550251836	 0.095999
H	-1.9014737385	-0.9448992698	 2.1697266464	 0.108795
H	-4.1110776771	-1.7081261066	 1.2584967979	 0.256517
H	-4.3195425967	-1.5171176419	-1.2454620372	 0.100627
H	-2.5756633605	-0.5633395872	-3.1084037363	 0.233491
H	-1.3404902993	 0.3739808882	-2.5745735329	 0.238515
