17
gdb 53339	3.60164	1.00725	0.97212	1.2805	75.74	-0.2356	0.0363	0.2718	1303.6617	0.134552	-421.769123	-421.760494	-421.75955	-421.80407	31.005	
C	-0.3069713788	 1.1371071588	 0.4895714519	-0.501635
C	-0.1740078168	-0.2801958079	 0.1885900146	 0.069473
C	-0.067124224	-1.4547492457	-0.0534017764	 0.141428
C	 0.0897650496	-2.8715735322	-0.4079013098	-0.0676
O	 0.9397290308	-3.5566814988	 0.5098578677	-0.245351
C	 0.1226525744	-4.3449640859	 1.3406076717	 0.072811
C	-1.0202382378	-3.6714065228	 2.0761560856	-0.357495
C	-1.2365594498	-4.3436155504	 0.7336767486	 0.07281
O	-1.1620904851	-3.5545968149	-0.4286708688	-0.245352
H	 0.2605963646	 1.4048388692	 1.3873317802	 0.154395
H	 0.0639680374	 1.7538100476	-0.3361255086	 0.153433
H	-1.3541817032	 1.4070492167	 0.6635536593	 0.1544
H	 0.5356646756	-2.9543424169	-1.4066680434	 0.118877
H	 0.644540166	-5.208560258	 1.7324426982	 0.112056
H	-1.4088904631	-4.1929303819	 2.9453776527	 0.115788
H	-1.0446935736	-2.5898524734	 2.1333283144	 0.139903
H	-1.8781136563	-5.2060574736	 0.6059988018	 0.112057
