20
gdb 105632	2.02711	1.45404	1.15547	3.7872	79.66	-0.2488	0.0242	0.273	1193.1774	0.17147	-399.316791	-399.30708	-399.306136	-399.351323	35.811	
C	-0.0298716041	 1.6300039116	 0.0234267029	-0.404414
C	-0.3547027142	 0.1476434376	-0.180870065	-0.211728
C	 0.6018705863	-0.541215991	-1.156390523	 0.153099
N	 2.0228977171	-0.5950402146	-0.7186589646	-0.33793
C	 2.1757500835	-1.9824810972	-1.2152048837	-0.192357
C	 0.6240458006	-2.1251142858	-1.2236112697	-0.023433
N	-0.0208911171	-2.7651308638	-0.0984437794	-0.513134
C	 0.4535643147	 0.0202126494	-2.5105536039	 0.262517
N	 0.3707979176	 0.4648434341	-3.5758140811	-0.355083
H	 0.9883241584	 1.7540903353	 0.4059332147	 0.124539
H	-0.1153268951	 2.1928886864	-0.911635485	 0.135997
H	-0.7158833847	 2.0775655258	 0.7479941392	 0.119323
H	-0.295961104	-0.3862689307	 0.7705252991	 0.105804
H	-1.3787309725	 0.0227028773	-0.5498747219	 0.114911
H	 2.6371836883	 0.0978658184	-1.132554207	 0.23198
H	 2.6128699764	-2.0652204576	-2.2188861098	 0.110728
H	 2.7199609903	-2.6436117386	-0.5317437923	 0.0989
H	 0.2000152568	-2.5306176406	-2.1423578123	 0.103427
H	-0.0748008894	-3.7666239286	-0.2489101538	 0.23768
H	 0.5103136311	-2.6196976375	 0.7546400567	 0.239171
