22
gdb 17887	3.46053	1.83384	1.62051	0.0778	80.68	-0.2678	0.0845	0.3523	935.0977	0.203814	-313.077874	-313.070587	-313.069643	-313.108771	30.03	
C	-0.1436954312	 1.4843933449	-0.0111036558	-0.432543
C	 0.036410068	-0.0298566826	 0.0135963795	 0.067057
C	 1.2134063652	-0.5842802084	-0.8457092248	 0.000196
C	 2.117679604	-0.4224378868	 0.4128412369	-0.24187
C	 0.8102845494	-0.598171722	 1.2421111079	 0.000196
C	 0.4660929116	-2.0894267889	 1.399741484	-0.210765
C	 0.9510406094	-2.8992241201	 0.1711043348	-0.193209
C	 0.9563294737	-2.0725334739	-1.1392580859	-0.210765
H	 0.7953209515	 2.0162597367	 0.1737436079	 0.113996
H	-0.5241873564	 1.8175420529	-0.9833519527	 0.110659
H	-0.8596033734	 1.8059836025	 0.7538044473	 0.110659
H	-0.9318358981	-0.5108567474	-0.1765554229	 0.049682
H	 1.4819197771	-0.0304517345	-1.7504365712	 0.050507
H	 2.9318875831	-1.1363295115	 0.5653006295	 0.086707
H	 2.5245570793	 0.5869340609	 0.4981183228	 0.095113
H	 0.7213228603	-0.0566611736	 2.188794338	 0.050507
H	 0.9251017786	-2.4999903183	 2.3068339495	 0.087967
H	-0.6191911142	-2.1878498465	 1.5297397952	 0.092359
H	 1.9743621775	-3.2356561804	 0.3664514129	 0.103022
H	 0.358152581	-3.8112207684	 0.0505600549	 0.090199
H	-0.0023072254	-2.1665921537	-1.6651826547	 0.092359
H	 1.7210456791	-2.4725626408	-1.8154637633	 0.087967
