21
gdb 88098	2.33961	1.52861	1.16106	1.46	85.86	-0.2101	0.0355	0.2456	1160.9166	0.18237	-387.092488	-387.083521	-387.082577	-387.125736	34.94	
C	-0.0314187765	 1.5022515577	-0.0376034241	-0.511423
C	 0.0187282629	 0.0059050343	-0.0451694017	 0.29471
C	 0.0847320908	-0.7813443891	-1.1239477484	-0.175154
C	 0.1113008514	-2.2516015545	-0.7858467556	-0.261457
C	 0.3827888037	-2.2474057126	 0.7397594185	-0.292439
C	 0.0017222084	-0.8346217196	 1.1992250442	 0.248708
C	 0.4171868359	-0.3145721488	 2.5650333231	-0.395697
C	-1.0259415468	-0.6483001446	 2.2917097024	 0.061328
O	-1.9704043584	 0.375116129	 2.1523255484	-0.416932
H	 0.8308599469	 1.9256375193	 0.4937361047	 0.117133
H	-0.0225102942	 1.8984187923	-1.0566579111	 0.115486
H	-0.9290204404	 1.8594410583	 0.4750759456	 0.144997
H	 0.0847666985	-0.4153316976	-2.1453863355	 0.081019
H	-0.8490338583	-2.7287374489	-1.028342257	 0.104288
H	 0.8765966038	-2.8059080874	-1.3409558827	 0.098414
H	-0.1630459937	-3.0292851498	 1.2761635317	 0.093612
H	 1.4506365735	-2.4123845278	 0.9242185006	 0.102693
H	 0.9947279213	-0.9668242564	 3.2134960512	 0.107598
H	 0.6660458915	 0.7392179597	 2.6405496079	 0.112031
H	-1.4209094339	-1.5633219089	 2.7361910765	 0.084376
H	-2.1057148765	 0.7723943755	 3.0192587015	 0.28671
