21
gdb 70740	2.4838	1.6036	1.20946	1.8294	77.95	-0.2525	0.0837	0.3362	1107.5442	0.184414	-424.214646	-424.20655	-424.205606	-424.246786	32.495	
C	-0.0067331237	 1.5009111091	 0.042445984	-0.469879
C	-0.0035490071	-0.0142282391	-0.0114684431	 0.36645
C	-0.8460891195	-0.7907498457	 0.9740819946	-0.361047
C	 0.6593562666	-0.7568356605	 1.1248284062	-0.041585
C	 1.5171151542	-1.9713009542	 0.8299976616	-0.119819
O	 2.629170929	-1.6605668175	-0.0051913687	-0.230735
C	 2.3352876258	-1.627610355	-1.3753109657	 0.016567
O	 1.5639757206	-0.5390064668	-1.8113584335	-0.233732
C	 0.199574558	-0.5878331793	-1.4058657354	-0.168207
H	 0.9151242486	 1.8980493354	-0.3952793103	 0.134857
H	-0.8530518883	 1.9165582965	-0.5174913301	 0.112228
H	-0.0769743213	 1.864220297	 1.0723369243	 0.111057
H	-1.4486024428	-0.237406659	 1.6869187498	 0.11248
H	-1.2992278313	-1.7207290754	 0.6426759153	 0.108534
H	 1.047760382	-0.1244863885	 1.9185231911	 0.088607
H	 1.9387705344	-2.3731521119	 1.7566653304	 0.109482
H	 0.9196193251	-2.7732783547	 0.3694029026	 0.086701
H	 3.2959186463	-1.5401508299	-1.8879129818	 0.114584
H	 1.8311486761	-2.5697938854	-1.6648888663	 0.072663
H	-0.1697456734	-1.6223751971	-1.4678623132	 0.085535
H	-0.3579814192	 0.003248192	-2.1406986619	 0.105259
