17
gdb 23594	3.08851	1.5025	1.15653	0.9151	75.97	-0.2363	-0.0059	0.2304	1055.5286	0.137206	-417.919853	-417.912577	-417.911633	-417.951397	29.351	
O	-0.1613553469	 1.3204365976	 0.1159177962	-0.390914
N	 0.0040578592	-0.0739844839	 0.0724460522	-0.239587
C	-1.1223332171	-0.670311546	 0.0435939483	 0.39976
C	-1.2221242639	-2.1538344381	-0.0907036271	-0.121669
C	-2.0071673825	-2.9154440208	 0.9633572442	-0.309435
C	-2.7018225266	-2.4250674789	-0.2775184085	 0.003997
N	-3.4518468934	-1.1592099537	-0.3143851291	-0.11263
C	-3.5376542357	-0.3921236123	 0.9298051937	-0.251989
C	-2.4846659632	-0.0643628651	-0.074881708	-0.107003
H	 0.7482924458	 1.6347609542	 0.080244363	 0.308386
H	-0.4415168666	-2.6675132266	-0.6377914094	 0.1081
H	-1.8162021268	-3.9823433346	 1.0122671422	 0.121602
H	-2.1883745705	-2.4638085629	 1.9302893193	 0.124912
H	-3.0640133236	-3.1526643234	-0.9938081208	 0.104965
H	-4.408255473	 0.2544800332	 0.9984361368	 0.124314
H	-3.2477964954	-0.8454689679	 1.8708252278	 0.121289
H	-2.5717190696	 0.8366474492	-0.6736327208	 0.1159
