11
gdb 35153	2.62093	1.34172	1.01452	1.0194	67.83	-0.3098	-0.0629	0.2468	1101.2554	0.063056	-414.350003	-414.34173	-414.340785	-414.383232	28.968	
C	-0.089599342	-1.2046993378	 0.0111973419	-0.36463
C	-0.0374523627	-0.0060277098	 0.0017752043	 0.278627
C	 0.0145327087	 1.4288253464	-0.0272932975	 0.109151
O	 0.5074808646	 2.1022829907	 1.1395916428	-0.230255
C	 1.3235920741	 2.1647005826	-0.0195059632	-0.153461
C	 2.5706484413	 1.4345992685	 0.0005875677	 0.331147
N	 3.5817027326	 0.8764104572	-0.0093175887	-0.304244
C	-1.1031738994	 2.0900506793	-0.682948142	 0.245188
N	-1.9823565652	 2.6161128238	-1.2155688365	-0.309915
H	-0.1280663928	-2.2672371857	 0.0245565567	 0.22827
H	 1.3630935107	 3.1341651849	-0.5123933556	 0.170122
