15
gdb 129473	4.27156	1.00698	0.89245	2.944	67.35	-0.2441	-0.0277	0.2164	1251.2879	0.113406	-453.976456	-453.968371	-453.967427	-454.010814	29.157	
N	 0.4629118671	 0.1314819438	-0.6984091385	-0.507549
C	-0.2817783809	 0.2045297421	 0.4337498155	 0.382934
O	-0.113608208	 1.0324192153	 1.3059872365	-0.355064
C	-1.435521007	-0.8198783893	 0.5175460831	-0.405191
C	-1.0904281891	-2.2160390005	 0.0939785032	 0.369053
N	-0.8820589384	-2.4955530971	-1.1748310739	-0.213512
O	-0.5488149405	-3.8438880059	-1.2249438922	-0.157499
C	-0.578292275	-4.3388321331	 0.019079885	 0.088423
C	-0.9100235328	-3.3707179965	 0.9093668556	-0.330187
H	 1.2241297245	 0.7801059491	-0.809623375	 0.261347
H	 0.3278006551	-0.6079884958	-1.3703724154	 0.279537
H	-1.7827703524	-0.8069370594	 1.5503974483	 0.141537
H	-2.2466557071	-0.4397586082	-0.1134315596	 0.154187
H	-0.346104452	-5.3884852156	 0.1117786789	 0.159177
H	-1.0136271437	-3.4524639588	 1.9782541786	 0.132807
