18
gdb 56618	2.26047	1.1849	1.09542	1.8471	83.14	-0.2356	-0.011	0.2246	1242.2607	0.14625	-398.09426	-398.084424	-398.08348	-398.129082	35.549	
C	-0.3282673401	 1.5778719027	-0.0126916534	-0.389438
C	-0.2202812606	 0.0438266319	 0.0605658505	-0.181074
C	 0.5487179803	-0.4044301068	 1.2253014648	 0.389129
C	 1.2360032352	-0.7690327919	 2.1399851922	-0.479881
N	-1.5300694297	-0.6307864668	-0.0362259952	-0.02684
C	-1.7599747804	-1.5009792679	-1.0953409481	 0.10162
N	-2.86113032	-2.1115557271	-1.2722108307	-0.478985
C	-2.5077318467	-0.465887507	 0.9386282105	 0.089277
N	-2.3496684525	 0.3174494326	 1.9280742222	-0.462205
H	 0.6765525481	 2.0060418339	-0.0575685662	 0.125341
H	-0.87489481	 1.8659755337	-0.9153967467	 0.114834
H	-0.8461343743	 1.9631177338	 0.863663299	 0.171053
H	 0.3281683638	-0.2864375795	-0.8297027596	 0.115105
H	 1.8218147476	-1.0886301139	 2.9660947894	 0.200425
H	-0.8837381666	-1.5847729871	-1.7473171393	 0.102158
H	-2.8116060496	-2.6972500403	-2.1016891705	 0.230887
H	-3.3806391532	-1.0851639669	 0.728016604	 0.148869
H	-3.1711733113	 0.2832594268	 2.5286592271	 0.229727
