19
gdb 95453	2.86911	1.39745	1.0137	1.8145	77.79	-0.2107	0.0156	0.2263	1191.5777	0.160132	-419.189104	-419.180395	-419.179451	-419.223102	31.406	
C	 0.2845558696	 1.3002251909	 0.1974134367	-0.333848
N	-0.2031837622	-0.0571599811	 0.0552229448	-0.112835
C	 0.179322133	-0.8155896049	-1.1403253129	-0.185266
C	-0.0806424549	-2.2707402596	-0.6778265777	-0.17161
N	-0.1557419418	-2.214818084	 0.7929507491	-0.318735
C	-0.2134070129	-0.9724170833	 1.1001586252	 0.389604
C	-0.3488311827	-0.4880260178	 2.5028168273	-0.060425
C	 0.2639001218	-1.2303560235	 3.6025499904	-0.152468
O	 0.8624837049	-0.0211716344	 3.1214218464	-0.237729
H	 1.3821117386	 1.3573110516	 0.1223256192	 0.119934
H	-0.1454161713	 1.9334433131	-0.5853271467	 0.124849
H	-0.0091517502	 1.709165872	 1.1653745453	 0.146712
H	-0.4118973765	-0.5175000312	-2.0115935387	 0.109345
H	 1.2416822605	-0.6404887837	-1.3756959976	 0.09794
H	-1.034990659	-2.6491672459	-1.0662909107	 0.111549
H	 0.6979329575	-2.9671895943	-1.0012626584	 0.112123
H	-1.2190888462	 0.137591406	 2.7035200846	 0.107178
H	-0.1734563571	-1.1670282108	 4.5972977284	 0.114048
H	 0.8017135088	-2.1453916291	 3.370667325	 0.139634
