18
gdb 68808	2.70378	1.31178	1.1459	5.0175	76.94	-0.2622	0.0312	0.2933	1133.2096	0.146572	-401.937864	-401.928981	-401.928037	-401.971147	33.493	
C	 0.0758966051	 1.5723874966	 0.0867788644	-0.500839
C	 0.0030932	 0.0745233413	 0.106131708	 0.284746
C	 1.133848967	-0.8254585229	-0.3559132182	-0.402071
C	 0.6155902274	-0.9545485118	 1.0497064054	 0.374639
O	 1.3922658695	-0.7052696343	 2.1629435707	-0.460118
C	-0.6749330173	-1.77662753	 1.0765677558	-0.3094
C	-1.3007109053	-0.7659155646	 0.0409662061	-0.207148
C	-2.4941060363	-0.0876038233	 0.5208220689	 0.276468
N	-3.4358015122	 0.4627484286	 0.9052407617	-0.334986
H	 1.0601016263	 1.9067495701	 0.427906044	 0.130533
H	-0.084653131	 1.9689645677	-0.9222449981	 0.125583
H	-0.6783495526	 2.0140196379	 0.7454226183	 0.145634
H	 0.9731326408	-1.6058010062	-1.0980819821	 0.105792
H	 2.0894357909	-0.3160315149	-0.4340969054	 0.120381
H	 2.1221445017	-1.3339414242	 2.1799215421	 0.290227
H	-0.6197022073	-2.8217618746	 0.7566198226	 0.104546
H	-1.176766702	-1.7144812173	 2.0430910199	 0.139013
H	-1.5106632447	-1.1913927882	-0.9459254239	 0.116998
