19
gdb 37127	3.59275	1.59762	1.51328	1.2859	76.89	-0.1904	0.0774	0.2678	953.1068	0.161011	-385.804691	-385.797838	-385.796894	-385.835414	29.1	
C	-0.00584202	 1.466978161	-0.0852315164	-0.295756
C	 1.3333826173	 0.7951144811	 0.0311001969	-0.113169
C	 0.0434197221	-0.0254696698	 0.0704753421	-0.12346
C	 0.4850191992	-0.732247539	-1.233860918	 0.376126
C	 0.8020254473	 0.1138285016	-2.4326654372	-0.426037
C	 1.7788226083	 0.0556832308	-1.2677352162	 0.195493
C	 2.8589023495	-1.0051075502	-1.2558737181	-0.308601
C	 2.0874178424	-2.3112325331	-1.61432748	-0.097074
O	 0.7186654899	-2.102576895	-1.2313214086	-0.288397
H	-0.3115119989	 1.9921213398	 0.8152599827	 0.115241
H	-0.3464880797	 1.9491148659	-0.9950832941	 0.112634
H	 2.0266731423	 1.0401929039	 0.8265920216	 0.087309
H	-0.4354550436	-0.5533706836	 0.8843746573	 0.09573
H	 1.1050091947	-0.4395284237	-3.3157770531	 0.120935
H	 0.2574367413	 1.0200606264	-2.6703813498	 0.119055
H	 3.6891257	-0.8331078942	-1.948098462	 0.106518
H	 3.2797642811	-1.0772548876	-0.2476438919	 0.110638
H	 2.1456606792	-2.511701513	-2.6929723335	 0.101586
H	 2.4540262676	-3.1980757511	-1.0890278617	 0.111231
