17
gdb 33603	5.03583	1.27697	1.2641	0.9471	84.47	-0.2219	0.0391	0.2609	1031.569	0.136857	-347.450259	-347.443553	-347.442608	-347.481069	28.181	
C	 0.1088458891	-1.2079613598	 0.0831711815	-0.370954
C	 0.0387262801	-0.0058666069	 0.0382939786	-0.010683
C	-0.058905667	 1.4006983696	-0.0291963218	 0.358491
C	-0.0517280171	 2.4793743811	 1.0525796599	-0.136119
C	 1.0019759082	 2.4998366877	-0.0452661967	-0.13612
C	 0.2747779919	 3.3482515594	-1.1142683422	-0.053474
C	-0.4648673364	 4.4826462494	-0.3613953897	-0.248127
C	-1.1653850935	 3.3202868743	 0.3862280972	-0.053474
C	-0.9468362481	 2.385719245	-0.8630647174	-0.13261
H	 0.1729757323	-2.2665100461	 0.1249693456	 0.171792
H	 0.1854010652	 2.3583153122	 2.1008211518	 0.097887
H	 2.0611671188	 2.3947422122	 0.146475391	 0.097887
H	 0.7498928411	 3.4855573266	-2.0840881684	 0.070824
H	 0.1244177271	 5.2004618249	 0.2175728185	 0.09503
H	-1.1599945529	 5.0150384978	-1.0186507719	 0.100066
H	-2.1172000121	 3.429885318	 0.9031168469	 0.070824
H	-1.7060344468	 2.1294023448	-1.596513503	 0.078761
