20
gdb 108836	3.37757	1.11717	0.95548	2.7999	80.89	-0.2302	0.008	0.2382	1299.4939	0.17201	-403.131552	-403.122927	-403.121983	-403.165066	33.17	
C	 0.0685325625	 1.5303822368	 0.2837454465	-0.375594
C	-0.0347878944	 0.0479544519	-0.1175863261	-0.295336
C	-1.4423369515	-0.4688472596	-0.1301711617	 0.372968
C	-2.1451188306	-0.9203146529	-1.174029012	-0.246278
C	-3.5304361844	-1.4269412163	-0.7967620654	 0.109708
O	-3.7287483695	-2.7930218033	-1.1237345621	-0.439039
C	-3.5726400577	-1.1703238934	 0.7155867678	-0.072666
N	-2.5945239492	-2.0343344873	 1.4191795714	-0.352191
C	-2.2703887988	-0.603255437	 1.118875559	-0.149582
H	 1.111899415	 1.8599606942	 0.28347412	 0.116267
H	-0.4891870795	 2.1632980247	-0.4133865067	 0.122781
H	-0.3329895991	 1.70565238	 1.2873117689	 0.116211
H	 0.4102341923	-0.0931930089	-1.1084151102	 0.105886
H	 0.5615505268	-0.5524076197	 0.5834559554	 0.110465
H	-1.7702003748	-1.0194318456	-2.1871410216	 0.094873
H	-4.3259732545	-0.8811581258	-1.3171684271	 0.084414
H	-3.1466720272	-3.2759197166	-0.5201097205	 0.285633
H	-4.5059219242	-0.9236846484	 1.2083633031	 0.089839
H	-2.8776157854	-2.1132255597	 2.3947383472	 0.230913
H	-2.1621564358	 0.083403267	 1.9514650141	 0.090727
