17
gdb 28569	3.77212	1.11635	0.91848	2.0655	78.39	-0.2114	0.0055	0.217	1273.6249	0.13568	-421.839852	-421.831638	-421.830694	-421.873282	30.078	
C	 0.1806266835	 1.3886928576	-0.2637692376	-0.493566
C	-0.0389940341	-0.0651714417	-0.0485359518	 0.350428
C	-1.0771147158	-0.7959948113	 0.4430321678	-0.256314
C	-0.6652484844	-2.1668244011	 0.4057109537	-0.274278
C	 0.5944961712	-2.1747068336	-0.1096563191	 0.372927
O	 0.9855799844	-0.897821168	-0.3937319046	-0.213213
C	 1.5330312756	-3.2629984674	-0.3982456099	-0.050003
C	 2.671161112	-3.1194987064	-1.3200085624	-0.178881
O	 2.883027611	-3.1370276095	 0.0890709287	-0.233656
H	 1.0367840149	 1.7541295296	 0.3144791193	 0.142753
H	 0.3778042056	 1.6144751369	-1.3179564357	 0.13826
H	-0.7054931763	 1.9468703862	 0.0459551811	 0.136274
H	-2.0193496179	-0.4044927574	 0.7935495542	 0.10876
H	-1.2284099392	-3.0308207727	 0.7229749195	 0.111407
H	 1.101265323	-4.2531581803	-0.2592821773	 0.100365
H	 3.0315469045	-3.9918609376	-1.8646752732	 0.113703
H	 2.8376814718	-2.1594643133	-1.8044100128	 0.125034
