20
gdb 112201	2.5845	1.3071	0.9651	2.7243	81.68	-0.2181	-0.021	0.1971	1273.3184	0.169225	-403.128025	-403.11889	-403.117946	-403.162052	34.169	
C	-0.0085496014	 1.5650323952	 0.0658407237	-0.385184
C	-0.1868799882	 0.0514281615	-0.030371142	-0.128827
N	 0.5902492356	-0.5053385596	-1.1261489302	-0.142441
C	 0.1067855617	-0.234697472	-2.5086751861	-0.300844
C	 0.2498319584	-1.7393136374	-2.8022457874	 0.336048
O	 0.1543605123	-2.4390968637	-3.7683173975	-0.310329
C	 0.5567063096	-1.9602732671	-1.3518989308	 0.241655
C	 1.4400069464	-3.01241717	-0.7443776552	-0.304809
C	-0.0428306807	-3.0511941086	-0.4889666157	-0.325514
H	 1.0472391737	 1.8191723251	 0.1949512417	 0.127603
H	-0.3681763434	 2.0653131847	-0.839441221	 0.120877
H	-0.5733156036	 1.9652407328	 0.913217241	 0.1155
H	 0.1626129605	-0.4129300007	 0.8995253479	 0.102551
H	-1.2628432825	-0.1939183409	-0.122891063	 0.079385
H	-0.9432201687	 0.0916294762	-2.5670744586	 0.119779
H	 0.7292627344	 0.448061963	-3.0944411251	 0.132217
H	 1.8732409195	-3.742006831	-1.4205099796	 0.134039
H	 2.0853027349	-2.6917600057	 0.0667837692	 0.12638
H	-0.3951500122	-2.7681085585	 0.4968834857	 0.126175
H	-0.6425211065	-3.8037212035	-0.9900958172	 0.135738
