17
gdb 39988	4.35246	1.40276	1.32678	1.4979	71.73	-0.2352	0.0698	0.305	985.6129	0.136334	-421.73603	-421.72949	-421.728545	-421.7668	27.294	
C	-0.0337171606	 1.5082230423	 0.0419521978	-0.33533
C	 1.2995270028	 0.773120073	 0.053387986	-0.335329
C	 0.0140075179	 0.0166036108	-0.0541631773	 0.457512
O	-0.4195961234	-0.7522311964	 1.0763211245	-0.306598
C	-1.0256963372	-1.8610309359	 0.4643877184	 0.066503
C	-0.2373516101	-2.3164692195	-0.8021617272	 0.030486
O	-1.481941316	-2.7184623107	-1.4604712733	-0.317678
C	-1.8148592719	-1.446691479	-0.8156920942	 0.030486
C	-0.4383027862	-0.821814788	-1.2156224338	-0.169623
H	-0.3782340831	 1.9237397333	 0.9822449121	 0.128643
H	-0.3069983605	 2.0793179373	-0.8391535994	 0.117031
H	 1.9398741289	 0.8404705477	-0.8198810583	 0.117031
H	 1.8223706157	 0.7104068944	 1.0011210483	 0.128643
H	-1.4246135907	-2.5733750183	 1.1824506161	 0.103049
H	 0.636566096	-2.9581117629	-0.9063450309	 0.097993
H	-2.8224329763	-1.0509526489	-0.9360144236	 0.097993
H	-0.2526469552	-0.5010032992	-2.238227285	 0.089185
