19
gdb 128778	4.44233	0.88026	0.84479	1.9959	79.05	-0.2343	0.0217	0.256	1449.2702	0.159734	-419.225284	-419.215899	-419.214955	-419.260427	33.19	
C	 0.7433427606	 0.7422468213	 0.2177183101	-0.241923
O	 0.8753101793	 0.3705847098	-1.1413567237	-0.23254
C	-0.1106661666	-0.552914142	-1.5700745719	-0.195518
C	 0.1251666133	-1.9359489127	-1.0391823736	 0.373082
C	-0.7175712151	-2.9325254707	-0.5919049857	-0.400527
C	 0.1297997425	-4.0233624943	-0.2709597873	 0.354719
C	-0.2480282092	-5.3711521165	 0.2582573907	-0.489551
N	 1.4070125695	-3.7171128424	-0.4946310418	-0.285652
N	 1.3767181766	-2.4549233247	-0.9688658874	-0.236964
H	-0.222298981	 1.236416234	 0.4035965404	 0.109177
H	 0.8274716336	-0.1206581247	 0.8923491841	 0.122015
H	 1.5493822089	 1.4464750893	 0.435660229	 0.130807
H	-1.1215279191	-0.2213970876	-1.2892244224	 0.105893
H	-0.0538422449	-0.5451291775	-2.6650473665	 0.125519
H	-1.7922183788	-2.8820612871	-0.5113099237	 0.096029
H	-0.901114531	-5.9075189241	-0.4391090693	 0.126543
H	 0.6499347644	-5.9714995577	 0.4186004793	 0.138987
H	-0.7857660346	-5.2924228306	 1.2095491268	 0.125502
H	 2.2361241915	-1.9729307518	-1.1728445869	 0.274401
