17
gdb 70714	2.28404	1.93879	1.26529	3.514	68.21	-0.2535	-0.0038	0.2496	1001.4531	0.136801	-458.987097	-458.979339	-458.978395	-459.01926	30.169	
O	-0.1218290406	 1.401619363	 0.0732256268	-0.468183
C	-0.0668256627	 0.0143808253	 0.0322292422	 0.295476
C	-0.4311336911	-0.6898617672	-1.2695879971	-0.334729
C	-1.3533271117	-0.7553527082	-0.0761130759	-0.104969
C	-1.4480023602	-2.0704768726	 0.6945117147	-0.243001
C	-0.391531516	-2.1372845794	 1.7897667061	-0.083281
O	 0.933722693	-1.7950830717	 1.3188341215	-0.232493
C	 1.0875042974	-0.5595963283	 0.7929295159	 0.370741
O	 2.1317594993	 0.0341688192	 0.8861811847	-0.353715
H	 0.8006926487	 1.6927982539	 0.1104094982	 0.296594
H	-0.695226098	-0.0210508606	-2.0803604674	 0.130836
H	 0.105051232	-1.5893218322	-1.5554287214	 0.125648
H	-2.2469334026	-0.1429317847	-0.1272353442	 0.112102
H	-2.4323763092	-2.1720228067	 1.1629067782	 0.117813
H	-1.3321902662	-2.9194079217	 0.0118319192	 0.118421
H	-0.6446684565	-1.4573692042	 2.6120257086	 0.124272
H	-0.2897017257	-3.1442436142	 2.1988303198	 0.128469
