18
gdb 90370	2.37403	1.5683	1.31503	5.0788	71.7	-0.2366	0.0048	0.2414	1061.6969	0.146851	-439.089779	-439.081295	-439.080351	-439.122639	32.154	
C	 0.3630295794	 1.5127959165	-0.0106172779	-0.391473
C	 0.1168320448	 0.0170360302	 0.0525492163	-0.009456
N	 0.9752028387	-0.8109263755	-0.8530435282	-0.333619
C	 1.3336051126	-1.7305305415	 0.2607560183	-0.267495
C	 2.6264987347	-1.2286172555	 0.9163422225	 0.48366
O	 3.7968966187	-1.4140616952	 0.8560170442	-0.324889
O	 1.9592621167	-0.3274670835	 1.7267259888	-0.291994
C	 0.6369691854	-0.790695196	 1.2744754275	 0.426726
C	-0.2571604842	-1.1450307625	 2.4275883291	-0.483034
H	 1.4139623758	 1.7365823672	 0.1839851454	 0.143614
H	 0.105916895	 1.8980284119	-1.0022416183	 0.120931
H	-0.2522190581	 2.038807611	 0.7275128684	 0.115406
H	-0.9519251063	-0.2017594789	-0.0806667889	 0.074467
H	 0.4667744536	-1.2674395681	-1.6002420119	 0.229821
H	 1.1698660735	-2.8003874665	 0.1348177794	 0.103035
H	-0.505024416	-0.2494290737	 3.0077010604	 0.140771
H	-1.190904977	-1.5881985927	 2.0693413891	 0.126784
H	 0.2343396927	-1.8562166371	 3.0974816259	 0.136744
