19
gdb 42054	2.38367	1.72443	1.13715	1.5225	91.14	-0.2093	-0.0394	0.1699	1097.8565	0.16175	-348.728084	-348.720215	-348.71927	-348.759953	31.45	
C	-0.0871382217	 1.5435503465	 0.0117818734	-0.190583
C	 1.285286635	 2.2643605098	 0.1063577867	-0.245186
C	 2.1229592743	 2.0293514984	 1.3457725771	-0.04747
C	 2.9995500572	 1.0152127249	 1.4902750047	-0.181298
C	 3.0294164563	 0.031077848	 0.4698526985	 0.044179
C	 2.6576650608	-0.5503471367	-0.5286662514	 0.044098
C	 1.7450321457	-0.9545782912	-1.5358374075	-0.181283
C	 0.4478750559	-0.6312433909	-1.3608171195	-0.047474
C	-0.114117235	-0.0051430116	-0.1017532685	-0.245189
H	-0.6843416708	 1.8119971199	 0.8915101645	 0.099069
H	-0.6137337721	 1.9666097321	-0.8521354503	 0.099069
H	 1.8801036955	 2.0023725269	-0.774293515	 0.127754
H	 1.0793247142	 3.3393019271	 0.0381099945	 0.095857
H	 2.0339051282	 2.7533442771	 2.153118253	 0.096086
H	 3.6168475871	 0.9266908898	 2.3783089353	 0.106338
H	 2.0840908923	-1.4543598552	-2.4373648234	 0.106337
H	-0.254826032	-0.8679128538	-2.1571220177	 0.096085
H	 0.4055569035	-0.4290123487	 0.7632641484	 0.12775
H	-1.1649502244	-0.3067528224	-0.0159562028	 0.095861
