17
gdb 82702	2.79436	1.5536	1.21224	2.504	73.05	-0.2463	-0.0277	0.2186	1034.1084	0.135745	-421.785	-421.777261	-421.776317	-421.81725	29.731	
O	 0.3928558466	 1.399417712	 0.0532046678	-0.440316
C	 0.0549572622	 0.0375149959	 0.0573113692	 0.091505
C	 0.2098016981	-0.8223500214	 1.3474465784	-0.11774
C	-0.7308528113	-0.1419961285	 2.3826183605	-0.257531
C	-1.8806311347	-0.5980018651	 1.4837842922	-0.101245
C	-1.0356450203	-1.6572907795	 0.8648147881	-0.094031
C	-1.401576283	-0.4155793954	 0.0223970722	 0.181675
C	-2.3552831546	-0.4176714949	-1.0950027129	 0.032093
O	-3.4875021243	-0.8424527861	-1.0309580112	-0.274912
H	-0.1805678733	 1.8593504753	 0.6745181355	 0.285892
H	 0.6164139876	-0.4143794791	-0.7659027925	 0.09699
H	 1.1800488086	-1.2155228563	 1.6402885819	 0.082592
H	-0.7387008292	-0.686120586	 3.3299238308	 0.116453
H	-0.5886535865	 0.9268683785	 2.5843338231	 0.08556
H	-2.9447753887	-0.6247525742	 1.6743535928	 0.118705
H	-1.2104546261	-2.6918440049	 0.6117034321	 0.116967
H	-1.9508049411	-0.0026047903	-2.0455199078	 0.077344
