11
gdb 123298	2.03075	1.88953	0.9788	3.9319	73.98	-0.2717	-0.0883	0.1834	1077.6844	0.065633	-414.375706	-414.368435	-414.36749	-414.407823	26.312	
C	 0.0862484149	-1.2220146659	-0.0050493838	-0.382203
C	 0.02754502	-0.0204473538	 0.0023631568	 0.19679
C	-0.0177357578	 1.3863486516	 0.0108818917	-0.066969
C	-1.1125068647	 2.2179991768	 0.0309540278	 0.297312
O	-0.7202875094	 3.5072501387	 0.0326593924	-0.204633
N	 0.6614678783	 3.5561745455	 0.0134702922	-0.107327
C	 1.0693677928	 2.3147277496	 0.0007519685	-0.031783
C	-2.498209787	 1.9431623877	 0.0489266655	 0.250708
N	-3.6294696472	 1.6996484469	 0.0634943739	-0.324303
H	 0.1260492045	-2.2835573481	-0.0112710251	 0.209501
H	 2.1267728955	 2.0954445511	-0.0153817701	 0.162906
