19
gdb 53329	3.02114	0.98321	0.87518	1.5668	85.33	-0.2332	0.0524	0.2856	1432.5061	0.156717	-385.837271	-385.827603	-385.826659	-385.873749	34.462	
C	-0.0469969317	 1.4863134252	-0.1076208281	-0.498144
C	-0.0024827483	 0.0323285173	-0.0528655323	 0.063176
C	 0.0317591342	-1.170840974	-0.0021994384	 0.094659
C	 0.0591976052	-2.6179572835	 0.0599458877	-0.253654
C	 0.3396396048	-3.332444903	 1.44399299	-0.260042
C	-1.0037607877	-4.0497872076	 1.2871959384	-0.043917
O	-2.0097817311	-3.0292356508	 1.2038643689	-0.280792
C	-1.3010688495	-3.3746728097	 0.011441203	 0.419701
C	-2.083419376	-3.7485082218	-1.203460879	-0.503429
H	 0.6661734111	 1.9328499955	 0.5944581479	 0.146468
H	 0.1995622321	 1.8575086305	-1.10875369	 0.144519
H	-1.0430179532	 1.8634622327	 0.1498389796	 0.149138
H	 0.7343284633	-3.0241055554	-0.7017113518	 0.098124
H	 1.2098521837	-3.9909032747	 1.4011679497	 0.106102
H	 0.4091113748	-2.6741064482	 2.3114357811	 0.119022
H	-1.312777723	-5.0182516018	 1.6643079987	 0.102392
H	-2.4968912393	-2.8535333086	-1.6816445837	 0.139071
H	-1.4492444254	-4.2594159137	-1.9350905738	 0.123149
H	-2.9134805439	-4.4070320781	-0.9343310379	 0.134456
