18
gdb 15670	3.28042	1.88575	1.33395	1.4122	69.13	-0.245	0.0179	0.2629	945.3933	0.154025	-384.935798	-384.927794	-384.92685	-384.968507	29.844	
C	-0.4483184417	 0.8322834483	 0.2507046747	-0.25117
O	 0.5940647804	-0.1223371868	 0.1398379287	-0.256643
C	 0.9066382925	-0.4828468847	-1.1992762812	 0.075732
C	 2.3926690812	-0.9070138098	-1.2582429333	-0.278333
C	 2.3464498191	-2.4079496499	-1.3941753749	-0.06487
C	 1.1134642751	-2.8640140694	-1.5982245739	-0.099872
C	 0.0842711122	-1.7590274058	-1.6292666727	 0.082682
O	-1.034452397	-1.999191693	-0.7938995057	-0.430337
H	-0.1828007061	 1.7683219107	-0.262935628	 0.108314
H	-1.3920637375	 0.4547712977	-0.1605176124	 0.128982
H	-0.5766016402	 1.0404322041	 1.3161999988	 0.12501
H	 0.699190176	 0.3677609335	-1.8595627381	 0.066127
H	 2.9040604152	-0.4433169103	-2.1113745268	 0.108371
H	 2.9147741453	-0.5709952474	-0.355820426	 0.120315
H	 3.2414223549	-3.0191397117	-1.3464867227	 0.095527
H	 0.8276209728	-3.9010752902	-1.7321181735	 0.098406
H	-0.3295247689	-1.6314719916	-2.6370102604	 0.088253
H	-0.7072406934	-1.8828807436	 0.1078035875	 0.283508
