15
gdb 44724	2.55164	1.62302	1.15907	6.4965	69.69	-0.2568	-0.0423	0.2145	1032.819	0.112858	-416.788458	-416.780878	-416.779934	-416.821104	28.346	
O	 0.0454314154	 0.0088050341	-0.3941120568	-0.277506
C	-0.0028204381	 1.154115384	-0.0660180403	 0.420743
C	-1.1160600443	 2.0835818604	 0.4655797524	-0.333609
C	-0.038791314	 3.1821128212	 0.6373346906	-0.013546
N	 0.7020240826	 3.0186473451	 1.9161975818	-0.310003
C	 1.8863399649	 2.4578292921	 1.2235812247	-0.13918
C	 2.4805858389	 1.2712294207	 1.8434415388	 0.314039
N	 2.9712757508	 0.3487131215	 2.3363598994	-0.316754
C	 1.0410169611	 2.3008209692	-0.0762622373	-0.190881
H	-1.8437120057	 2.3026070809	-0.3250887868	 0.134338
H	-1.6401283879	 1.7605959486	 1.3669691647	 0.145415
H	-0.2732537074	 4.2020039342	 0.3320672687	 0.088473
H	 0.8812984927	 3.8658283941	 2.4406029045	 0.236729
H	 2.6896625876	 3.1866557679	 1.0548711039	 0.126147
H	 1.5319632534	 2.515135176	-1.0238909184	 0.115596
