17
gdb 74181	2.41253	1.65289	1.08362	3.9546	76.56	-0.2411	-0.0574	0.1837	1110.1825	0.135851	-421.848967	-421.84104	-421.840096	-421.881615	30.027	
C	-0.3641082339	 1.47746367	 0.1179803452	-0.493587
C	-0.0446785908	 0.0136357538	 0.044336662	 0.362301
C	-0.0968201528	-0.695331681	-1.0957953134	-0.281104
C	 0.192881784	-2.1384847989	-1.1767323564	 0.381971
O	 0.3213379126	-2.7039907741	-2.2442366694	-0.333343
C	 0.2531905112	-2.9282169183	 0.1334593822	-0.370603
C	 0.5504379047	-2.1055903017	 1.360198736	 0.046577
O	 1.6903944466	-1.2537398706	 1.3056797982	-0.248763
C	 0.3831977315	-0.6422727382	 1.3126654659	-0.066822
H	 0.5070805243	 2.0462600595	 0.4664110205	 0.147357
H	-0.6742963591	 1.8738811206	-0.8509302057	 0.136672
H	-1.1671667722	 1.6645066207	 0.8421422523	 0.137508
H	-0.3439072944	-0.2224061593	-2.0417669552	 0.107069
H	-0.7251479565	-3.4120690442	 0.2591201496	 0.135831
H	 0.9822948056	-3.7351450814	 0.0120892138	 0.144631
H	 0.4133755971	-2.6071312977	 2.3188148763	 0.099586
H	 0.1584615521	-0.1033779793	 2.2318641579	 0.094721
