18
gdb 12787	3.52853	1.64609	1.34569	2.5739	68.59	-0.2444	0.0802	0.3246	983.4814	0.15175	-384.89443	-384.886132	-384.885188	-384.92708	30.37	
C	 0.1599198523	 1.3503562363	 0.1368783629	-0.234467
O	-0.2776850564	 0.0752121145	-0.2760741943	-0.242367
C	 0.5719147799	-0.5296766075	-1.2036633049	 0.09504
C	 1.9404785948	-1.1598920441	-0.7304746073	-0.293033
C	 1.4291281134	-2.4910779522	-1.2910846428	-0.043216
O	 0.2458270695	-2.8062860919	-0.550470132	-0.280431
C	 0.1193805483	-1.9206250562	-1.6719314382	 0.389174
C	-0.8832444085	-2.2528711482	-2.7279585904	-0.510309
H	 1.1346642263	 1.306238097	 0.6453298166	 0.109332
H	 0.2463151476	 2.0460613717	-0.7131529686	 0.101974
H	-0.5840568463	 1.7381204751	 0.8365785691	 0.129697
H	 0.7433186368	 0.1320718872	-2.0687791498	 0.065109
H	 2.8099368724	-0.7425960874	-1.243165757	 0.101228
H	 2.104447233	-1.1714148381	 0.3492987908	 0.115329
H	 1.9835282904	-3.3151524428	-1.7255969978	 0.101854
H	-1.8949221184	-2.0105382224	-2.3849551311	 0.140606
H	-0.6910478107	-1.6820054378	-3.6422238607	 0.121271
H	-0.8491350445	-3.3194849932	-2.9647347447	 0.133209
