24
gdb 100806	3.61592	0.752	0.65542	4.2238	90.49	-0.3082	0.0376	0.3458	1762.8654	0.215517	-368.444545	-368.433206	-368.432262	-368.482405	40.615	
C	-0.0445340737	 1.6051305747	 0.0573063058	-0.39372
C	-0.0323612734	 0.0756797327	-0.0534137878	-0.183378
C	 0.7524167668	-0.485306291	-1.2598905646	 0.039154
C	 2.2174315113	-0.0174080351	-1.2199879967	-0.410913
C	 0.63857261	-2.033226666	-1.3397598884	 0.034168
C	-0.8111865588	-2.542347665	-1.3084632336	-0.420809
C	 1.3455784632	-2.5702147697	-2.6142461473	-0.357581
C	 1.3655135741	-4.029596184	-2.688316114	 0.266598
N	 1.3829462011	-5.1846083904	-2.7322432731	-0.317284
H	 0.9423389351	 2.0177440874	 0.2841564313	 0.121037
H	-0.3936119366	 2.0667752501	-0.8735774544	 0.114453
H	-0.7206442012	 1.9240378438	 0.8565652024	 0.115556
H	 0.3780541038	-0.3551464063	 0.8708579139	 0.095136
H	-1.0700836177	-0.263736184	-0.1128329205	 0.103135
H	 0.2876517945	-0.0760458488	-2.171343059	 0.068952
H	 2.7345319335	-0.4288178619	-0.3445448422	 0.117327
H	 2.7802716753	-0.3119195145	-2.1093925519	 0.114666
H	 2.2819912765	 1.0713639073	-1.1600642146	 0.122821
H	 1.170575742	-2.4529550546	-0.4749039648	 0.091011
H	-1.288317776	-2.3564895158	-0.3446796119	 0.12628
H	-1.4152521996	-2.056017414	-2.0841514469	 0.11434
H	-0.8461543222	-3.6209708151	-1.4853026502	 0.142916
H	 0.8396978897	-2.1851841832	-3.5089169827	 0.14588
H	 2.3818584426	-2.2270636568	-2.665051269	 0.150255
