21
gdb 101275	2.54044	1.13196	0.9451	3.1446	84.04	-0.2545	0.0137	0.2682	1343.1662	0.181227	-383.26173	-383.251776	-383.250831	-383.296648	36.495	
C	-0.401372338	 1.3040330589	 0.2259819729	-0.396611
C	-0.2061067872	-0.1981433074	 0.0006914904	-0.164238
C	 0.7054085108	-0.5844576056	-1.17471298	 0.05483
C	 0.9139517689	-2.0995876399	-1.2257297624	-0.400279
N	 0.0844943221	-0.1507973716	-2.4382824987	-0.072383
C	 0.3714373024	 1.1754540442	-2.9430410257	-0.237497
C	 0.9183770294	-0.0337021029	-3.6418223091	-0.156044
C	 2.343339623	-0.2643502655	-3.5990729135	 0.290788
N	 3.4812538542	-0.4739694038	-3.5824367079	-0.34375
H	 0.5585860096	 1.8194990392	 0.3438674982	 0.113879
H	-0.939073456	 1.7749390551	-0.6016269557	 0.125714
H	-0.9833450989	 1.4819829319	 1.1354662252	 0.117055
H	 0.2280210925	-0.6422798593	 0.9044149899	 0.099624
H	-1.1793891542	-0.6810693066	-0.1480565012	 0.106701
H	 1.6848630702	-0.0934202397	-1.0374839293	 0.080421
H	-0.0427423845	-2.6095987463	-1.3762107284	 0.123582
H	 1.5887252264	-2.3844217806	-2.0369103614	 0.132758
H	 1.3518537985	-2.4528986317	-0.2878451506	 0.119314
H	-0.4576929446	 1.715115412	-3.3920622749	 0.131744
H	 1.0937028463	 1.7905374045	-2.4098296283	 0.135845
H	 0.4490963391	-0.3855550049	-4.5562285794	 0.138546
