20
gdb 12966	2.24694	2.20453	1.70169	1.683	75.09	-0.2268	0.0834	0.3102	933.5897	0.175605	-348.973088	-348.964468	-348.963523	-349.005448	32.667	
C	 0.034143324	 1.6380520159	-0.3116458827	-0.42579
C	 0.1608788647	 0.137551518	-0.1503939876	-0.069977
C	 1.4254762431	-0.6215440363	-0.4100047312	 0.036489
O	 2.5679506983	 0.1294426295	 0.0164909967	-0.309052
C	 2.151987663	-0.012621737	 1.4081033903	 0.119731
C	 2.2452187612	 1.2509789513	 2.2410459577	-0.41903
C	 0.8220006435	-0.6468450914	 0.9828190406	 0.21996
C	 0.1196921911	-1.7241162493	 1.7583683543	-0.496865
H	 1.0141005913	 2.1165642162	-0.2676839148	 0.13846
H	-0.4054691218	 1.8730541402	-1.2871869923	 0.112126
H	-0.6089135425	 2.0823199835	 0.455758897	 0.111938
H	-0.7102243504	-0.4175682807	-0.4987662107	 0.082809
H	 1.5809098581	-1.3873757947	-1.1628280778	 0.095531
H	 2.7794876672	-0.7917053414	 1.8675076594	 0.075552
H	 3.2764620284	 1.6194838143	 2.247078073	 0.126681
H	 1.5961879753	 2.0459583163	 1.8723045668	 0.125839
H	 1.9649276561	 1.0280563379	 3.2766174021	 0.116798
H	-0.4396526989	-1.30920702	 2.6060485327	 0.120907
H	-0.5965791428	-2.2631892619	 1.1300281865	 0.120426
H	 0.8308744009	-2.4573072104	 2.1567096499	 0.117466
