14
gdb 5155	5.41924	1.31188	1.2468	3.2316	67.91	-0.2207	0.0069	0.2276	969.223	0.109062	-341.622653	-341.615678	-341.614734	-341.65489	25.277	
N	-0.0442802669	-1.1718556388	-0.006137121	-0.292968
C	-0.0132751743	-0.0175226852	 0.0010803888	 0.277772
C	 0.0137173419	 1.455752289	 0.0104317641	-0.313505
N	 1.3469155076	 2.0102188916	 0.0005125967	 0.036222
C	 2.1155707712	 2.2552003945	 1.1173716976	-0.092183
C	 3.3469636887	 2.6915994414	 0.696563582	-0.16044
C	 3.3316532864	 2.7028963335	-0.7274990721	-0.16047
C	 2.0914268532	 2.2730084132	-1.1285924522	-0.092185
H	-0.5376736115	 1.8207390529	-0.8618416534	 0.170909
H	-0.5200097609	 1.8092421093	 0.8983067967	 0.170903
H	 1.7128006738	 2.0964930597	 2.1052076911	 0.124712
H	 4.1647394009	 2.9827924144	 1.3373321145	 0.103268
H	 4.1354982306	 3.0043755615	-1.3810110615	 0.103267
H	 1.6674710494	 2.129913073	-2.1099277414	 0.124697
