15
gdb 10678	2.60844	2.31437	1.35362	1.7548	63.16	-0.2529	-0.0354	0.2176	884.3023	0.118417	-399.841964	-399.834217	-399.833273	-399.874102	28.748	
N	 0.1082928852	 1.2235388559	 0.4216046368	-0.554237
C	 0.0371485062	 0.0039481469	-0.1553019225	 0.357334
O	 0.9530563041	-0.510531261	-0.7771573431	-0.38712
C	-1.2828342035	-0.7256338655	 0.0102121227	 0.12471
C	-1.6618902309	-1.6441402807	-1.167638254	-0.282822
C	-1.1648864206	-2.260968335	 0.0750214788	-0.28273
C	-2.4302004421	-0.1612862541	 0.7498866512	 0.11501
O	-2.4805173572	 0.915324443	 1.3057958379	-0.299566
H	 0.9696480886	 1.7366378112	 0.3325604148	 0.258478
H	-0.685380946	 1.5967630851	 0.9250625231	 0.282282
H	-2.7156829707	-1.7177845048	-1.4128632206	 0.127652
H	-0.9789133921	-1.5742940305	-2.0050308788	 0.162293
H	-0.141257499	-2.6138218381	 0.0894743657	 0.162315
H	-1.8606393834	-2.778869747	 0.7259614424	 0.12766
H	-3.3156580787	-0.8350765756	 0.7686401656	 0.08874
