13
gdb 28928	2.51258	1.88213	1.07607	1.286	63.97	-0.226	-0.009	0.217	1005.1342	0.09121	-489.95634	-489.949111	-489.948167	-489.987808	27.878	
O	 0.1075520444	 1.3255133369	 0.1252073508	-0.437022
C	 0.0941158574	-0.0257836516	 0.0667455538	 0.331927
N	 0.0656154867	-0.6192759768	-1.121268783	-0.352582
C	 0.0541889185	-1.9507338827	-1.0993773305	 0.049821
N	 0.0685548295	-2.7205337782	-0.0156311305	-0.353344
C	 0.0972584787	-2.1014194808	 1.1648512942	 0.371518
O	 0.1123549375	-2.8487990924	 2.2787689671	-0.401571
C	 0.1117932957	-0.7101787182	 1.279550398	 0.183999
O	 0.140781107	-0.0944491797	 2.4886523746	-0.439178
H	 0.0924872821	 1.6435814426	-0.7876502038	 0.308508
H	 0.0306732045	-2.4563669719	-2.0600980411	 0.12207
H	 0.0982675456	-3.7695360455	 1.9810373949	 0.303834
H	 0.1475937325	 0.8578984782	 2.3315450852	 0.312021
