18
gdb 14358	4.19917	2.20583	1.91859	0.3155	76.93	-0.2391	0.018	0.257	768.4299	0.156875	-310.603204	-310.597441	-310.596497	-310.632551	25.069	
C	-0.0508533573	 1.5297082862	 0.0561431122	-0.236732
C	 1.4701170692	 1.2829188461	 0.0740060234	-0.084403
C	 1.1794041954	 0.067978427	 1.0399191891	-0.311998
C	 0.1229033612	-0.0195803499	-0.1031919664	 0.341547
C	-0.9160453152	-0.8640546499	-0.8207225437	-0.406409
C	-0.6464330667	-0.3827565776	-2.2556176522	-0.035908
C	 0.5038748124	 0.2953791228	-2.4000613636	-0.153766
C	 1.2719921852	 0.2578017677	-1.101650706	-0.000938
H	-0.5012039235	 1.8652933104	 0.9947265168	 0.081531
H	-0.4577490484	 2.0698184157	-0.7997137066	 0.095954
H	 2.2632138882	 2.022701973	 0.1978298877	 0.066776
H	 1.9326355583	-0.7241292944	 1.0758401552	 0.090706
H	 0.8226297679	 0.3290360661	 2.0400583183	 0.089699
H	-0.7454414995	-1.946091309	-0.7322240193	 0.109302
H	-1.945253255	-0.6701069975	-0.4986028038	 0.105785
H	-1.3394264662	-0.5963879811	-3.0637088547	 0.091116
H	 0.8719469643	 0.680718662	-3.3448381534	 0.088649
H	 2.0688225798	-0.4978323876	-1.1411752732	 0.069088
