15
gdb 131218	4.31546	0.87983	0.7748	3.6588	68.77	-0.2279	-0.0203	0.2076	1394.0314	0.112419	-453.9723	-453.963813	-453.962869	-454.006808	30.152	
O	 0.4126693755	 1.3009295811	 0.0358281287	-0.425887
C	 0.1613517746	-0.0197902803	-0.0667728326	 0.467446
C	 0.3031151235	-0.9499021771	-1.0756393585	-0.44156
C	-0.16731512	-2.1569509001	-0.4952183911	 0.340388
C	-0.2106082056	-3.5163017254	-1.1266402777	-0.369051
C	 1.1846431656	-4.1106071918	-1.2451904178	 0.158843
O	 1.6711511683	-4.5205580041	-2.2662857724	-0.240569
N	-0.5574754062	-1.9880248477	 0.7634526377	-0.295327
N	-0.3461051851	-0.6669474291	 1.0042015243	-0.250856
H	 0.7735610371	 1.6145880915	-0.7992362807	 0.316819
H	 0.6797468881	-0.7885226344	-2.0726309598	 0.110436
H	-0.8013160961	-4.1736634067	-0.4771114848	 0.140244
H	-0.6636959265	-3.497415557	-2.1216246714	 0.124337
H	 1.7453224172	-4.1330360839	-0.2834122263	 0.084613
H	-0.5813774701	-0.269836455	 1.8977880225	 0.280125
