20
gdb 80290	2.33398	1.51731	1.25354	3.7766	79.26	-0.2321	0.0321	0.2643	1117.185	0.171258	-403.194242	-403.185415	-403.184471	-403.227369	34.012	
C	-0.1168503259	 1.562121782	 0.0591747662	-0.431114
C	 0.0310730337	 0.0575994823	 0.0548737095	-0.051376
C	 1.344043043	-0.664777058	-0.2188942583	-0.112015
C	 2.6582491606	 0.0822812235	-0.0761484734	-0.355012
C	 2.699551112	 0.5464654187	 1.3905537796	 0.384862
O	 3.5129263797	 1.2805786783	 1.9051210778	-0.377042
N	 1.6090974083	-0.0120877219	 2.0144890946	-0.341313
C	 0.7101740225	-0.7390068832	 1.1570239408	 0.317552
C	 0.0945625238	-1.9835321933	 1.7445484801	-0.468904
H	 0.714530031	 2.0647336762	 0.5591689888	 0.137702
H	-0.1708165479	 1.9501706589	-0.9638219661	 0.122646
H	-1.0369214167	 1.8593355191	 0.5740836798	 0.119437
H	-0.8248750922	-0.4595257751	-0.3740196048	 0.085234
H	 1.3135744111	-1.5331884842	-0.8671038933	 0.090141
H	 3.5188234668	-0.5653722045	-0.2715640769	 0.131348
H	 2.7612424242	 0.9555251685	-0.7271524271	 0.133105
H	 1.3582217834	 0.2903424439	 2.9434459335	 0.246209
H	-0.5843323815	-1.7432306467	 2.5717565578	 0.118782
H	-0.4874871006	-2.5174656286	 0.988130241	 0.123374
H	 0.8667185949	-2.659412386	 2.1270579304	 0.126385
