16
gdb 46960	3.18049	1.6772	1.24155	5.3669	70.07	-0.2384	0.0092	0.2475	975.7348	0.128105	-434.089627	-434.082631	-434.081687	-434.121579	26.733	
N	-0.114842958	 1.3064189854	 0.1797919341	-0.526589
C	-0.0259240695	 0.0782815736	-0.083679126	 0.414252
O	 1.0838480729	-0.5279082028	-0.6093781855	-0.23824
C	 0.8876851648	-1.9312924593	-0.803723017	-0.097367
C	-0.6318698893	-2.201870049	-0.6537001626	-0.04824
N	-0.9842305996	-3.263576489	 0.2879072596	-0.302139
C	-1.1819771549	-2.6352630044	 1.5098101399	 0.056095
N	-1.3044725748	-1.3644411004	 1.5100447004	-0.238003
C	-1.1335143294	-0.941560796	 0.1024511892	-0.068887
H	 0.7665142409	 1.7835033137	-0.0184702269	 0.222552
H	 1.2749160984	-2.1888535127	-1.7933585388	 0.119644
H	 1.4579795868	-2.4838296139	-0.0468504222	 0.109818
H	-1.107257268	-2.3597143868	-1.6231443539	 0.103449
H	-0.4796529858	-4.1381759613	 0.2607855572	 0.244116
H	-1.2744342527	-3.2419556377	 2.4061950172	 0.131902
H	-2.0756265417	-0.5289235093	-0.2664965745	 0.117636
