23
gdb 39412	2.23839	1.83274	1.27737	0.2604	87.93	-0.2419	0.0804	0.3222	1097.6319	0.209956	-351.136668	-351.128922	-351.127977	-351.168346	32.561	
C	-0.022337144	 1.4207224001	-0.1297878909	-0.317145
C	 1.3508240088	 0.8168760109	 0.0666386157	-0.007575
C	 2.1198277079	 1.0644923068	 1.3526554579	-0.232959
C	 2.7647935876	-0.182555765	 2.0106623465	-0.195524
C	 2.0823276593	-1.547528838	 1.7754281918	-0.205151
C	 0.5823181551	-1.6781278573	 2.02111547	-0.010156
C	-0.2584614618	-0.5798103365	 2.6296856395	-0.318674
C	-0.3892876673	-0.8977249732	 1.1569856501	-0.021971
C	 0.1279320305	-0.0756067612	 0.0121180034	-0.004788
H	-0.4423596097	 1.9582576224	 0.7152081366	 0.108485
H	-0.293439566	 1.8304736666	-1.0970767231	 0.104003
H	 1.9743454687	 0.7684046064	-0.8227552711	 0.077792
H	 2.9053239732	 1.8035543218	 1.1537900294	 0.09382
H	 1.4556090521	 1.5520895998	 2.0709198246	 0.103885
H	 3.7978731662	-0.2863648612	 1.6573602709	 0.093227
H	 2.8401617203	 0.001953617	 3.0891181883	 0.095852
H	 2.283550185	-1.8658604122	 0.7438428862	 0.098609
H	 2.5996177453	-2.2751061069	 2.4127946386	 0.09109
H	 0.2798158965	-2.6911343787	 2.2743268265	 0.076511
H	-1.0877231083	-0.8738112718	 3.2649947916	 0.10354
H	 0.2201900472	 0.3334632231	 2.9535176901	 0.110873
H	-1.3090609467	-1.4200111019	 0.9037372806	 0.077164
H	 0.0377338501	-0.6194189412	-0.9262884832	 0.079089
