20
gdb 99870	2.06628	1.4177	1.0483	4.8975	75.29	-0.2923	0.0285	0.3208	1239.398	0.167779	-440.302071	-440.291391	-440.290447	-440.337197	39.044	
C	 0.0007289057	 1.6060801879	 0.0558085915	-0.402495
C	-0.0457757113	 0.0779558557	-0.0215742609	-0.215711
C	 0.6751897474	-0.4989182448	-1.2519872993	 0.219394
O	 0.0172311368	-0.0142087973	-2.4063445061	-0.456078
C	 2.0938521163	-0.0416033311	-1.2508910908	 0.287731
N	 3.1891453879	 0.3259865677	-1.2318413147	-0.353639
C	 0.6892138364	-2.0534993206	-1.277424208	 0.104999
C	-0.6981660546	-2.6770920378	-1.1549498697	-0.430526
O	 1.2806315567	-2.3565821304	-2.5404304523	-0.449165
H	 1.0274937433	 1.9690925931	 0.1555115599	 0.143593
H	-0.4320313459	 2.0497053114	-0.8439261082	 0.142441
H	-0.568521282	 1.9573384566	 0.920907302	 0.114355
H	 0.3950008024	-0.3656004603	 0.8786763929	 0.110121
H	-1.0858583377	-0.255206125	-0.0783119512	 0.116778
H	 0.3738448964	-0.5244749808	-3.147196702	 0.298305
H	 1.3364597503	-2.4051162047	-0.4608217237	 0.091022
H	-1.3816665743	-2.2363597982	-1.8849783496	 0.141622
H	-0.6356383163	-3.7554232731	-1.3398669418	 0.11097
H	-1.1136267853	-2.5448586127	-0.1527849018	 0.131901
H	 1.2113989077	-3.3025442658	-2.6989933465	 0.294383
