21
gdb 87703	2.87503	1.12397	1.04266	1.8777	79.27	-0.2417	0.0722	0.3139	1262.2197	0.180578	-424.192925	-424.183216	-424.182272	-424.227216	36.86	
C	-0.1857591009	 1.4725289176	-0.0151635206	-0.385317
C	 0.0050164581	-0.0413415125	-0.0481932598	-0.096531
C	 1.191952731	-0.5330582513	-0.9310925959	 0.137591
O	 1.6237132992	 0.4051309038	-1.8892405405	-0.430897
C	 2.0547064305	-0.7416342355	 0.3494822181	-0.35958
C	 0.7583432274	-0.6334449381	 1.157279163	 0.35949
C	 0.5623664162	-0.3338198192	 2.6207933586	-0.402794
C	 0.2015472757	-1.6889156114	 2.0559276273	 0.035448
O	-1.1431114712	-2.0241593869	 1.8666384588	-0.419717
H	 0.7464616094	 1.9952799518	 0.217483782	 0.11636
H	-0.5371589011	 1.8400735335	-0.9833634152	 0.122144
H	-0.9263148121	 1.7458838737	 0.743758594	 0.105394
H	-0.9467063512	-0.5341851462	-0.2616825384	 0.086226
H	 0.9510395915	-1.4963427941	-1.4015196184	 0.068813
H	 2.3805536497	 0.0348335676	-2.3539194704	 0.282417
H	 2.6290926282	-1.6694580137	 0.4317958045	 0.090625
H	 2.7218977908	 0.1113548487	 0.5107838547	 0.10363
H	 1.4348399551	-0.2515510505	 3.2621788385	 0.107568
H	-0.2620058079	 0.3218382415	 2.8853022507	 0.112424
H	 0.8515598633	-2.5290944847	 2.3075087259	 0.079018
H	-1.5427823816	-2.1563023041	 2.7324954532	 0.28769
