18
gdb 11939	3.05204	1.97607	1.52846	2.8815	74.1	-0.2401	-0.0224	0.2177	896.8382	0.152913	-347.799962	-347.792046	-347.791102	-347.83189	29.83	
C	 0.0001074027	 1.4581330018	 0.2954283149	-0.493835
C	 0.0224094229	-0.021506089	 0.0504126847	 0.316312
C	-0.8492066412	-0.9731725891	 0.7853212895	-0.361009
C	 0.6446130563	-1.1370422194	 0.9805229959	 0.218957
C	 1.2708573528	-1.8125494972	-0.241730864	-0.303892
C	 0.6548789642	-0.7145272053	-1.1667714172	-0.274762
C	 1.2787997878	-0.8756296543	 2.2736985444	 0.052732
O	 0.771513816	-0.2450919071	 3.1779698841	-0.284408
H	 0.9386096755	 1.9299835862	-0.0148298976	 0.117597
H	-0.8136292104	 1.9329876516	-0.2663032234	 0.124367
H	-0.1532684857	 1.6693487726	 1.3577882534	 0.150224
H	-1.357975465	-0.5687511365	 1.6540145694	 0.14054
H	-1.3839838921	-1.7611322254	 0.2587339045	 0.10981
H	 2.3635193013	-1.7822951304	-0.2311073221	 0.109429
H	 0.9536831667	-2.8437648415	-0.427514713	 0.10183
H	-0.0509403068	-1.0563295401	-1.9309047334	 0.102615
H	 1.4188828437	-0.1013110107	-1.6500958182	 0.108485
H	 2.3153998113	-1.2742530661	 2.3695339483	 0.065009
