19
gdb 104227	2.69277	1.29163	1.1768	3.8652	71.6	-0.2532	0.0531	0.3063	1139.0982	0.157172	-460.117246	-460.1081	-460.107156	-460.151076	34.548	
O	-0.1151361858	 1.4386277638	-0.2603106956	-0.434547
C	-0.0038864221	 0.0176821443	-0.296510809	-0.140873
C	-1.3816171905	-0.5265750699	 0.0711494761	 0.353261
O	-1.7648389829	-0.0425912612	 1.3281341022	-0.479602
C	-2.4190576653	-0.4183101331	-1.0975970321	-0.288065
C	-2.2119066692	-1.931636078	-1.4090194424	-0.31583
C	-1.469861414	-2.0595620316	-0.0749219894	 0.398269
C	-0.6373401102	-3.1219962979	 0.4941810197	-0.274656
O	-1.9648037873	-2.8704609983	 0.9711438612	-0.258398
H	 0.7676288268	 1.8185671606	-0.2676095365	 0.295822
H	 0.3043030941	-0.3354574194	-1.291647624	 0.091883
H	 0.7295281365	-0.3386984915	 0.4408189008	 0.096923
H	-1.4969203118	 0.885975287	 1.3427205277	 0.284791
H	-3.4129238341	-0.2134679745	-0.6959517425	 0.117458
H	-2.1905417746	 0.2967973624	-1.8899124493	 0.103631
H	-3.1136532481	-2.5419309134	-1.4862524948	 0.119838
H	-1.5781760733	-2.1228908855	-2.2796838952	 0.104732
H	-0.5033955268	-4.0545070417	-0.0536283906	 0.111992
H	 0.1595251486	-2.8759389919	 1.1954200837	 0.11337
