14
gdb 129552	3.25515	1.23726	0.99619	1.5344	67.53	-0.258	-0.0322	0.2258	1145.9252	0.100986	-432.814548	-432.806401	-432.805456	-432.848042	29.247	
N	-0.1602336913	 1.5548959894	 0.0278336765	-0.495036
C	 0.0010231424	 0.1022354868	-0.0379857397	-0.257528
C	-1.2902433061	-0.5654347563	 0.1481483196	 0.36576
C	-2.3545227871	-1.1051774108	 0.277660181	-0.462401
C	 0.6586325678	-0.4143986355	-1.3063332703	 0.362268
N	 0.9006729964	 0.3600166215	-2.3293137824	-0.182744
O	 1.5138348259	-0.499438284	-3.2513939382	-0.151279
C	 1.5687107103	-1.6928096676	-2.6585359175	 0.107944
N	 1.0691516745	-1.7229218596	-1.46614296	-0.29557
H	 0.7334747009	 1.995172508	-0.174604979	 0.242152
H	-0.7918347857	 1.8525339937	-0.7106758554	 0.246684
H	 0.6588107974	-0.2004792634	 0.7891104887	 0.142602
H	-3.2933221874	-1.5856196426	 0.4038516276	 0.206138
H	 2.0175655918	-2.5000937697	-3.2190045609	 0.17101
