16
gdb 62442	3.87391	1.23166	1.21926	5.3974	75.12	-0.2503	-0.0199	0.2304	1055.6814	0.124689	-400.751656	-400.743943	-400.742999	-400.7836	29.841	
O	 0.0097142014	 1.3818261475	 0.0655160688	-0.456549
C	-0.0243449965	-0.0074782422	-0.0062479225	 0.250023
C	 1.0612620011	-0.6144734592	 0.7283967198	 0.271468
N	 1.9155668756	-1.1329085839	 1.3103850038	-0.341489
C	-1.3445411383	-0.760201835	-0.016447087	-0.113846
C	-2.5773626627	 0.0906192033	-0.3253659475	-0.281041
C	-2.3407300133	 0.5726881687	-1.7411847109	-0.086598
C	-1.206495189	 0.0843507629	-2.2573660709	-0.112766
C	-0.4777403579	-0.7596840437	-1.2693241228	-0.143253
H	-0.2955316054	 1.7238632249	-0.7855576692	 0.291672
H	-1.4383403444	-1.6384277276	 0.6098024357	 0.117049
H	-3.4995320707	-0.497357484	-0.2488027713	 0.123964
H	-2.6751870958	 0.9283852553	 0.3763719127	 0.136689
H	-3.0227371316	 1.2451423041	-2.2489280123	 0.11352
H	-0.8275834113	 0.2782987479	-3.2536641902	 0.113585
H	 0.1104936588	-1.6120173991	-1.5869101861	 0.117572
