21
gdb 57335	2.00414	1.46063	1.30659	4.4279	78.03	-0.2542	0.0303	0.2845	1143.7902	0.179229	-420.421668	-420.410657	-420.409713	-420.456494	41.354	
C	-0.0364683456	 1.53936716	 0.0840352977	-0.445937
C	 0.0159416672	 0.0058584095	 0.0576235896	 0.340841
C	 0.6982277971	-0.520137044	 1.3281045527	-0.436813
O	-1.3107687374	-0.5238866471	-0.0464009728	-0.477641
C	 0.7058315907	-0.5270105167	-1.2657237364	 0.08965
C	 0.7663224825	-2.0706506654	-1.2849781962	-0.411007
N	 0.0076881035	-0.1039322684	-2.4896261144	-0.535085
C	 2.0814914689	 0.0013171368	-1.32714128	 0.299013
N	 3.1583705184	 0.4196730591	-1.3538995645	-0.356505
H	 0.9664795044	 1.9746125566	 0.100760272	 0.147749
H	-0.5784715576	 1.9322325427	-0.7793647267	 0.115665
H	-0.5586961904	 1.8754471624	 0.9867296776	 0.110266
H	 0.2257653699	-0.0804097199	 2.2135559129	 0.108367
H	 0.6053145833	-1.6049508559	 1.4030565948	 0.130673
H	 1.7586657215	-0.2525504947	 1.3522174013	 0.143782
H	-1.8303306678	-0.1723795874	 0.6833937485	 0.283864
H	-0.241583308	-2.465516387	-1.1434792348	 0.140015
H	 1.1459210261	-2.394714933	-2.2548537986	 0.141616
H	 1.414347164	-2.4652837997	-0.5010567465	 0.129066
H	-0.9798445349	-0.307744657	-2.3568758843	 0.245071
H	 0.087627474	 0.8995911988	-2.6189217921	 0.237349
