17
gdb 85987	2.22961	1.38428	1.17312	1.178	70.39	-0.2445	-0.0547	0.1898	1128.5932	0.132039	-458.975507	-458.965713	-458.964769	-459.01084	33.983	
C	-0.4419489876	 1.8212044002	 0.4464724894	-0.466101
C	-0.0524950138	 0.3891797345	 0.0881366856	 0.076444
C	 0.7495551233	 0.099111029	-1.2174942556	-0.298877
C	 1.7561162461	-0.7900944977	-0.4367329976	 0.047186
O	 3.1090277051	-0.6032781197	-0.7407116261	-0.428545
C	 1.2109666348	-0.1489675991	 0.8461458207	 0.326107
O	 1.6656818003	 0.0727952024	 1.9282422751	-0.296796
C	-1.2080287314	-0.5722625446	 0.2886677983	 0.118432
O	-1.4170732412	-1.5489333676	-0.3856190996	-0.250503
H	 0.4307808386	 2.478314905	 0.4156190017	 0.137279
H	-1.1918852229	 2.2120967189	-0.2486185329	 0.132466
H	-0.854959484	 1.8657091849	 1.4591482071	 0.139728
H	 0.1889645694	-0.4040804564	-2.0039220917	 0.133279
H	 1.2423134768	 0.9961096046	-1.5967604911	 0.124732
H	 1.4439020063	-1.8452602365	-0.4897149972	 0.115024
H	 3.6314000477	-0.9623651101	-0.0147063124	 0.2982
H	-1.8629105975	-0.3159695779	 1.1503835964	 0.091944
