16
gdb 125914	4.54745	1.29183	1.05458	5.8759	70.74	-0.2145	-0.0041	0.2104	1102.2781	0.126779	-434.055672	-434.048405	-434.047461	-434.087802	27.613	
C	 0.1900390535	 1.5126815546	 0.1014461736	-0.398338
C	 0.0556589534	 0.0082242249	-0.0210162134	 0.130719
C	 0.7567491323	-0.6125229103	-1.2972479507	-0.396346
C	 1.4378654069	-1.7673793802	-0.6457795662	 0.260821
C	 1.3407488739	-1.6722193273	 0.7106324596	 0.404804
O	 0.6386413741	-0.6130452757	 1.1739740814	-0.283511
N	 2.0093621294	-2.6601465165	 1.3282809708	-0.30321
N	 2.5490535192	-3.4016520128	 0.3797632712	-0.128115
N	 2.2141863644	-2.8592066095	-0.8181845605	-0.317369
H	 1.244651342	 1.8035574358	 0.1212862565	 0.132095
H	-0.2924856107	 2.0055723107	-0.7487794877	 0.122273
H	-0.2838405221	 1.8669747059	 1.0204014171	 0.139536
H	-1.0013514128	-0.2826118757	-0.0265752164	 0.102228
H	 0.0148815211	-0.8743522896	-2.0575066317	 0.128478
H	 1.4601871127	 0.0977552219	-1.7510988748	 0.125724
H	 2.5367797227	-3.3138804061	-1.6566148989	 0.280209
