19
gdb 36089	3.58702	1.19597	1.10155	1.8963	80.06	-0.2447	0.0508	0.2955	1166.0799	0.159333	-385.841231	-385.833192	-385.832248	-385.873886	31.877	
C	-0.0685183448	-1.2170711244	-0.2450276273	-0.45378
C	-0.0307038018	-0.0245167427	-0.1035687162	 0.317551
C	 0.0193884939	 1.4228413936	 0.0727652122	-0.46553
C	 1.4257838955	 1.990868977	 0.0848558998	 0.430465
C	 1.7102765655	 3.512510126	 0.1250159949	-0.281115
C	 2.9599188474	 2.982873555	-0.6093922761	 0.078541
C	 3.721292562	 2.1928461301	 0.4755146732	-0.216572
C	 2.4962348101	 1.4029598437	 1.0351517296	-0.255756
O	 2.1198397353	 1.9465494882	-1.2065503458	-0.325925
H	-0.1040979523	-2.2699242131	-0.3772518347	 0.196772
H	-0.5470364173	 1.9148608196	-0.7267484158	 0.139514
H	-0.4676253654	 1.6975640087	 1.0181937287	 0.133806
H	 1.047941624	 4.0676640584	-0.54084283	 0.10693
H	 1.8235534034	 4.0113867584	 1.0915492777	 0.092007
H	 3.5217234716	 3.5707363115	-1.3346315187	 0.078917
H	 4.4772832297	 1.540410465	 0.0342765745	 0.109904
H	 4.2033795158	 2.8382655714	 1.2148936828	 0.097067
H	 2.2852937196	 1.6099753842	 2.0880430312	 0.095832
H	 2.5835075079	 0.3241678493	 0.8998557299	 0.121372
