21
gdb 70791	2.81297	1.65331	1.41371	1.3488	81.74	-0.239	0.0803	0.3192	1023.5032	0.183808	-387.06699	-387.059268	-387.058324	-387.098356	32.581	
C	-0.0315432187	 1.492544807	 0.056572906	-0.499285
C	 0.0374349134	-0.0158387235	 0.0454427009	 0.331484
C	 0.9404951391	-0.78618844	-0.9691203661	-0.347657
C	 0.8375339005	-1.9036691077	 0.0721034035	 0.438923
O	 1.6111685472	-3.0570253231	 0.0940419335	-0.490708
C	-0.6811805941	-2.1391885702	 0.4682783903	-0.071702
C	-0.3140274629	-1.728766203	 1.9213527843	-0.248659
C	 0.7287377768	-0.8437166547	 1.2250468352	-0.139888
C	-1.2760305452	-0.8278920192	-0.0792214035	-0.24594
H	 0.9630249579	 1.9410002608	 0.1551488374	 0.110628
H	-0.4763038841	 1.8732817267	-0.870679932	 0.114619
H	-0.6448693203	 1.8542218356	 0.8898282537	 0.114799
H	 0.5678100014	-0.9384492096	-1.9880270833	 0.088305
H	 1.9576241268	-0.3770757275	-1.0019503121	 0.07997
H	 2.537985981	-2.800743146	 0.0404643446	 0.278219
H	-1.1761965747	-3.0828689301	 0.2417891496	 0.065424
H	-1.0967496663	-1.2741194168	 2.537193187	 0.083193
H	 0.170969805	-2.5395276193	 2.4705934956	 0.105453
H	 1.5906823487	-0.3890618218	 1.7154657072	 0.055032
H	-2.0923184229	-0.4477303068	 0.5438450984	 0.088294
H	-1.6277353885	-0.8863287007	-1.1137808104	 0.089497
