19
gdb 102522	2.34864	1.2084	0.95397	1.8795	72.75	-0.2594	0.0208	0.2802	1280.5992	0.15881	-456.331838	-456.32177	-456.320826	-456.367033	35.88	
C	 0.3052287698	 1.2477380396	 0.3273433131	-0.245071
O	-0.1195504549	-0.0317352916	-0.1015530673	-0.251534
C	 0.5959661519	-0.5798896441	-1.1870343724	 0.111159
C	 2.1187687735	-0.6738225262	-0.957703253	-0.093769
O	 2.475028829	-1.2191220952	 0.2875285866	-0.419448
C	-0.0310289457	-1.9737898195	-1.4042213211	-0.151871
N	 0.1200269916	-2.7708062953	-0.1790559778	-0.511235
C	-1.4361534069	-1.85738852	-1.8493640028	 0.277314
N	-2.5394604474	-1.8126825934	-2.1907598495	-0.320318
H	 1.2853536925	 1.2034363541	 0.816335735	 0.137597
H	 0.3456292717	 1.9603680529	-0.5096125537	 0.109627
H	-0.4376946184	 1.5972827251	 1.0475628625	 0.134199
H	 0.4316927866	 0.0169254461	-2.1010091829	 0.084703
H	 2.5481887193	-1.2341107661	-1.807377486	 0.085528
H	 2.5505042368	 0.3316525422	-1.0014916022	 0.110123
H	 1.9489290635	-2.0288884283	 0.3860365439	 0.291417
H	 0.5234471158	-2.4704092044	-2.2080414028	 0.134382
H	-0.3973847309	-2.3102676393	 0.5647570048	 0.265298
H	-0.2733294177	-3.6979770766	-0.3041808444	 0.251899
