18
gdb 31490	3.20939	1.11786	0.84369	2.3836	77.49	-0.1745	0.0376	0.2121	1349.9858	0.148087	-435.306124	-435.296371	-435.295426	-435.341048	34.67	
C	-0.0951354644	 1.5139948126	 0.1416589587	-0.51639
C	-0.0410204724	 0.0320278875	 0.004179125	 0.253356
C	-0.0102772862	-0.7925866162	-1.0978774182	 0.183314
N	-0.0699154878	-0.425114045	-2.4542798396	-0.604015
N	 0.0331272253	-2.1163332459	-0.7277850053	-0.369538
C	 0.0277598696	-2.1073640263	 0.5897695478	 0.342495
C	 0.0114550033	-3.3027637618	 1.4862116443	-0.193643
O	 0.4503694956	-2.8815252757	 2.7742876326	-0.429668
N	-0.0117760608	-0.8455483759	 1.0808094978	-0.322569
H	 0.8611678918	 1.9575149024	 0.4517469095	 0.122101
H	-0.3672175887	 1.9566584704	-0.8207144054	 0.140245
H	-0.8511168585	 1.8312976959	 0.8705689022	 0.122997
H	 0.6530157238	 0.2353366874	-2.7137569474	 0.237057
H	 0.0284255974	-1.2545339734	-3.0276636064	 0.242918
H	-1.0062572251	-3.7223856934	 1.5388503333	 0.110397
H	 0.6611579067	-4.0795081215	 1.0591551444	 0.120492
H	 0.2538907766	-3.5824280935	 3.4016241235	 0.295032
H	 0.0332011638	-0.6196889073	 2.0604945431	 0.265417
