20
gdb 69092	2.49288	1.56648	1.15942	2.036	85.65	-0.2375	0.0432	0.2807	1131.0101	0.170937	-365.980856	-365.972139	-365.971195	-366.013607	34.441	
C	-0.0421245769	 1.5200336454	-0.0433357202	-0.46322
C	-0.0459769069	 0.0163321212	 0.0435308509	 0.282263
C	-1.307504407	-0.745307473	-0.3486321531	-0.268912
C	-1.112837365	-2.1774992575	 0.1975731631	-0.249573
C	-0.1924047007	-2.0173342633	 1.4283911327	-0.285737
C	 0.6340616361	-0.7634011925	 1.1406328504	 0.095878
N	 1.2381866553	-0.6496833845	-0.2103258089	-0.401629
C	 1.354224495	-0.1576452524	 2.2252866772	 0.252465
C	 1.9262463742	 0.334755913	 3.1618229264	-0.392123
H	 0.8927110868	 1.9239764242	 0.3503147859	 0.139849
H	-0.1441877546	 1.8459131329	-1.0845989744	 0.117502
H	-0.8751767488	 1.9453061609	 0.5268040826	 0.114831
H	-2.1709521553	-0.2620398287	 0.1246633985	 0.106661
H	-1.4856978646	-0.7268402899	-1.4301063027	 0.10247
H	-2.0603534742	-2.6583039561	 0.4516829906	 0.107133
H	-0.6395873113	-2.81549501	-0.5558538725	 0.105842
H	-0.7771281085	-1.8459362661	 2.3388828609	 0.11562
H	 0.4343415236	-2.8967597528	 1.6094144149	 0.109072
H	 1.1234079759	-1.5205911748	-0.7243773113	 0.225252
H	 2.4442603069	 0.7733084639	 3.9782677687	 0.186356
