21
gdb 106644	2.743	1.21568	1.00374	3.4183	84.54	-0.2342	-0.0014	0.2327	1284.8533	0.18084	-387.100283	-387.090673	-387.089729	-387.134765	35.741	
C	 0.0814065798	 1.4928722179	-0.235974264	-0.373784
C	-0.0114350931	 0.0107937062	 0.1554127104	-0.293452
C	-1.4226508466	-0.5084597361	 0.1433410306	 0.326306
C	-2.1291941918	-0.999055834	-1.0722040852	-0.369088
C	-1.9122740258	-1.9988287106	 0.0631977925	 0.151668
C	-1.1923870056	-3.3037170692	-0.1220574576	-0.497609
C	-2.8739248055	-1.6835951412	 1.164697363	 0.379204
O	-3.5176612263	-2.3768102672	 1.904134237	-0.324964
C	-2.4883525889	-0.1816050552	 1.2066452066	-0.422883
H	 1.1189600412	 1.8393911755	-0.2128511567	 0.115814
H	-0.309064784	 1.6575824332	-1.2453337315	 0.120606
H	-0.496521039	 2.1198203239	 0.4508916579	 0.122886
H	 0.5995845013	-0.5870159186	-0.5323700359	 0.100574
H	 0.4197664173	-0.1306344204	 1.1549910468	 0.103078
H	-3.1277762036	-0.6481249246	-1.3212429976	 0.115659
H	-1.506530529	-1.2030275734	-1.9394284093	 0.118101
H	-0.3198981142	-3.1856441555	-0.7726657716	 0.119009
H	-0.8534935052	-3.7062517666	 0.8375325953	 0.132362
H	-1.8487510047	-4.0509100052	-0.5810736566	 0.136248
H	-2.0811210659	 0.0695665714	 2.1913820425	 0.125241
H	-3.2522865005	 0.5536416797	 0.9361099433	 0.115023
