22
gdb 13373	5.32924	0.97491	0.89143	0.224	85.35	-0.2232	0.0356	0.2588	1397.1073	0.201198	-313.098183	-313.089323	-313.088379	-313.132213	32.619	
C	 0.0771286231	 1.5330493807	-0.1102809156	-0.37799
C	 0.0097843374	 0.0061654765	-0.1933592723	-0.156976
C	-1.3729904423	-0.5507416001	 0.1984267683	-0.298206
C	-1.4709938947	-2.0461973935	 0.1230649421	 0.354115
C	-1.6489282397	-2.8899594177	 1.1426052203	-0.173579
C	-1.756459657	-4.3302382697	 0.7051075719	-0.241873
C	-1.2850268625	-4.2787394985	-0.7713728947	-0.202079
C	-1.4351685638	-2.7973466689	-1.1966604137	-0.297715
H	 1.0683823513	 1.9047234296	-0.3882432606	 0.110657
H	-0.6535783823	 1.9989787361	-0.781048372	 0.112972
H	-0.1377094067	 1.8845335572	 0.905155052	 0.113624
H	 0.2605751676	-0.3156890044	-1.211366362	 0.098443
H	 0.7685735619	-0.4370213668	 0.4630944884	 0.099146
H	-1.6159246946	-0.2189717885	 1.2153974003	 0.095672
H	-2.1281878717	-0.1000054535	-0.4631787799	 0.095123
H	-1.7553424454	-2.584900648	 2.1791138969	 0.07739
H	-1.1506991073	-5.0121725403	 1.3132963234	 0.097478
H	-2.7935616305	-4.6866296266	 0.7914872284	 0.100337
H	-0.229691928	-4.5649781458	-0.8240049192	 0.102299
H	-1.8366138457	-4.9651369392	-1.4189844991	 0.09318
H	-2.3688085754	-2.6214976555	-1.7519946895	 0.099172
H	-0.6252588339	-2.4704810732	-1.8586148734	 0.098809
