16
gdb 79617	2.67358	1.60204	1.15787	1.9202	68.82	-0.2439	-0.0344	0.2095	1036.8802	0.124601	-437.844833	-437.837502	-437.836558	-437.876467	28.889	
O	-0.1417676725	 1.4612205082	-0.0521551965	-0.421039
C	 0.0267722143	 0.0793357219	-0.0408032349	 0.06916
C	-1.2439283821	-0.6890244238	 0.0903027507	-0.032005
C	-0.5290685539	-0.6856869772	-1.246418575	-0.216853
C	-0.1063642307	-2.1137782083	-1.4921903975	 0.398196
O	 0.3818827112	-2.5515834157	-2.5031121877	-0.321112
C	-0.5728487658	-2.939006097	-0.3060087539	-0.140248
C	-0.0116385631	-2.6565760902	 1.0476109719	-0.249594
N	-1.2824875637	-2.0599493016	 0.6374741862	-0.106383
H	 0.546419091	 1.8455662027	-0.606300388	 0.295415
H	 0.9444385725	-0.2624998892	 0.4303191544	 0.101904
H	-2.1512846057	-0.1203885192	 0.2556647689	 0.122846
H	-0.844597591	-0.0985059131	-2.1000178043	 0.121096
H	-0.9999139952	-3.9113041586	-0.5330020545	 0.119088
H	-0.1003642263	-3.4209575255	 1.8143525247	 0.132087
H	 0.8804567809	-2.0470900736	 1.1374228156	 0.127441
