20
gdb 51633	4.00404	1.00272	0.99624	3.8053	80.62	-0.2458	0.0341	0.28	1275.5625	0.173873	-403.167295	-403.15944	-403.158496	-403.200685	30.537	
O	-0.0314210572	 0.0454640368	 0.7118472646	-0.324623
C	-0.0096577709	 1.1541243104	 0.2200244419	 0.150492
N	 1.0932967175	 1.7818331521	-0.2699915181	-0.29556
C	 2.422035724	 1.1984215426	-0.2524783875	 0.06539
C	 3.1409928143	 1.1734437848	-1.6463572733	-0.244376
C	 4.4180658021	 1.9533202149	-1.2809489945	-0.007186
C	 4.7899205579	 1.3258736506	 0.0956613368	-0.222974
C	 3.4673029603	 2.0140536644	 0.5409654273	-0.027384
C	 3.8495716595	 3.1460333206	-0.4593656086	-0.232925
H	-0.9162799948	 1.7836145905	 0.1142643606	 0.069883
H	 0.9753553249	 2.7094835645	-0.646318769	 0.242749
H	 2.2914244371	 0.2002985429	 0.1664028157	 0.119816
H	 3.3467491682	 0.1561991352	-1.9901743993	 0.107651
H	 2.5451695044	 1.6744922147	-2.4156538793	 0.094171
H	 5.1574698877	 2.0987150567	-2.0685620291	 0.063318
H	 4.852756241	 0.2357250577	 0.166832639	 0.09492
H	 5.6721888832	 1.7851452507	 0.546721237	 0.09984
H	 3.2348328324	 2.2122190264	 1.5871780196	 0.068825
H	 4.6319827921	 3.7987801601	-0.0663717695	 0.10296
H	 3.0562042764	 3.7560712933	-0.9060783742	 0.075014
