17
gdb 77165	2.88546	1.26111	1.0376	4.3387	68.53	-0.2723	0.0092	0.2815	1182.2082	0.134978	-458.968078	-458.959624	-458.95868	-459.001826	30.444	
C	-0.4529743323	 1.2593734219	 0.1675530929	-0.417348
C	 0.0497670542	-0.171233861	 0.0292006081	-0.20308
C	 0.9642098597	-0.5490290725	-1.16460224	 0.088009
O	 2.0421991353	-0.8941162785	-0.2341112695	-0.259366
C	 1.2776063683	-0.5512252408	 0.8591168953	 0.464447
O	 1.6027896165	-0.5646794582	 2.0007825675	-0.321384
C	 0.5394765665	-1.7142058174	-2.0152384431	 0.048192
C	 1.3453559858	-2.935829288	-2.1274383323	-0.169589
O	 0.1675095898	-2.8963178242	-1.3134006068	-0.232793
H	 0.3513190411	 1.9839948635	 0.006011214	 0.129752
H	-1.2497861352	 1.4656921406	-0.5533417427	 0.127443
H	-0.8542173408	 1.4218028099	 1.1717716794	 0.14674
H	-0.7549449071	-0.8973951738	 0.172184856	 0.134288
H	 1.2696898231	 0.2970000328	-1.7886511349	 0.098668
H	-0.1232206187	-1.4440419708	-2.8396262769	 0.102372
H	 1.2707686877	-3.5460019493	-3.0257411	 0.120931
H	 2.280592566	-2.9986626441	-1.577880877	 0.142717
