17
gdb 128366	6.47107	0.87765	0.78177	4.5607	75.26	-0.2058	0.036	0.2418	1456.7392	0.135646	-451.310676	-451.301231	-451.300287	-451.345564	32.959	
C	 0.0448342659	 1.3994464699	 0.0792015034	-0.324763
N	-0.0003664255	-0.0599284212	 0.0948880884	-0.398382
C	-1.22578971	-0.659666015	-0.0043833037	 0.517988
N	-2.3617911574	-0.0326062043	 0.021523584	-0.228764
O	-3.3466713188	-1.0841104135	-0.0036339835	-0.260523
C	-2.7278574958	-2.3029940373	-0.0446229425	 0.537351
N	-1.3642394268	-2.021136966	-0.1124345788	-0.444254
N	-3.2471164994	-3.4496823175	-0.0247374538	-0.391773
C	-4.6972079136	-3.5402369698	 0.061117789	-0.322612
H	 1.0731237187	 1.7168530732	 0.2615343028	 0.129406
H	-0.308723466	 1.8272956066	-0.867260075	 0.137156
H	-0.5919678873	 1.7802651447	 0.8799917475	 0.165318
H	 0.7194685834	-0.5111222981	-0.45176368	 0.25027
H	-0.667452687	-2.7107578875	 0.1110066882	 0.277347
H	-5.1339251246	-2.816745493	 0.7623629222	 0.120536
H	-5.1671268228	-3.3721547232	-0.917468363	 0.119545
H	-4.9697028232	-4.547166008	 0.3884461148	 0.116151
