19
gdb 82476	2.66033	1.70578	1.53385	2.4229	74.27	-0.2401	0.0758	0.3159	957.6443	0.160797	-422.98697	-422.979639	-422.978695	-423.018076	30.835	
O	-0.1103406093	 1.3946503239	 0.0395859349	-0.447513
C	-0.04815284	-0.0191727132	 0.0590700454	 0.165831
C	 0.3734428238	-0.6589393188	 1.4073180377	-0.113939
C	-0.6335664452	 0.0004787807	 2.3925849721	-0.303298
C	-1.6444240218	-0.8519831744	 1.6169616347	 0.439193
O	-2.9590338996	-1.0851257085	 1.9935568131	-0.490001
C	-0.5483410103	-1.9529823411	 1.3630315718	-0.102088
C	-1.10492652	-2.1519350179	-0.0564642785	-0.256811
C	-1.4531846652	-0.6434267078	 0.0551962919	-0.091917
H	 0.779706496	 1.7353439935	 0.1771507452	 0.279295
H	 0.5568419948	-0.3833663708	-0.7829942211	 0.061367
H	 1.4355425103	-0.7250050945	 1.6415853142	 0.058959
H	-0.5060487758	-0.3794070795	 3.4124944387	 0.079811
H	-0.7207606012	 1.0881897758	 2.3913195504	 0.10743
H	-2.9646612588	-1.3670160073	 2.914499628	 0.279222
H	-0.3229741357	-2.7592258016	 2.0615765774	 0.062157
H	-0.4467438818	-2.4698748134	-0.8708675764	 0.086307
H	-1.9968968313	-2.7818381234	-0.030846834	 0.109741
H	-2.2181057489	-0.1642174317	-0.5531769853	 0.076255
