21
gdb 61522	2.37287	1.21055	1.02522	0.9042	84.45	-0.2452	0.0399	0.2852	1305.6992	0.178602	-387.037143	-387.026887	-387.025943	-387.072556	38.479	
C	 0.7261234557	-2.1916174501	 0.8954863951	-0.390574
C	 0.7110139992	-2.1927045545	-0.6352660106	-0.049654
O	 0.1908406451	-0.9247054082	-1.0241878607	-0.291913
C	-0.0352726507	-0.7079134538	-2.3985938001	 0.456793
C	-0.999788416	-1.6656797468	-3.063053268	-0.464674
C	-0.07837803	 0.7509784868	-2.743059688	-0.316849
C	 1.0945905728	-0.0981524558	-3.1911793855	-0.30453
C	 2.0465370317	-2.4740296749	-1.1812581041	 0.354922
C	 3.1448230119	-2.7364641605	-1.593985681	-0.500199
H	 1.3893628659	-1.4044434781	 1.2617678887	 0.134519
H	-0.283928047	-2.0039973811	 1.2679999104	 0.124454
H	 1.0779486004	-3.1544743307	 1.2735689846	 0.124872
H	 0.0338132564	-2.9899563247	-0.9767424513	 0.098555
H	-1.9396377509	-1.7189989566	-2.5027291256	 0.121786
H	-1.2265238077	-1.3262482894	-4.0773168847	 0.118966
H	-0.5870764466	-2.6769300772	-3.144407787	 0.123798
H	-0.7995069888	 1.083653511	-3.4815290931	 0.107905
H	 0.0938009911	 1.443736403	-1.927515125	 0.121248
H	 2.0349223461	 0.0418425323	-2.6740512634	 0.12461
H	 1.184617545	-0.352215855	-4.2420896924	 0.107137
H	 4.1116573362	-2.9628972655	-1.9708039583	 0.198829
