18
gdb 52156	3.63162	1.02829	0.9264	4.3503	73.69	-0.2492	0.0288	0.278	1287.447	0.147872	-439.0253	-439.016992	-439.016048	-439.059257	30.455	
N	-0.3335548	 0.769505174	 0.6973471983	-0.446377
C	-0.4377641419	-0.4719243638	 0.4909000357	 0.114489
O	-0.7735458886	-0.9194371701	-0.7386279673	-0.184934
C	-0.9559045497	-2.3324326897	-0.8614629509	-0.127995
C	-2.321576976	-2.7580662747	-0.3805926436	-0.03801
C	-2.6780649344	-4.1613672277	 0.08419496	-0.160737
C	-1.5647074255	-4.7388772818	 0.9532965912	-0.096867
O	-1.5205592134	-3.5350499318	 1.7698912158	-0.282564
C	-2.6468851653	-3.0050389864	 1.0617207218	 0.081553
H	-0.0555514596	 0.9324103256	 1.6630859639	 0.226205
H	-0.2747765487	-1.2761350772	 1.2200485284	 0.110679
H	-0.8381451996	-2.5460679753	-1.9267659975	 0.121808
H	-0.1654535342	-2.8605424736	-0.3181701327	 0.118053
H	-3.1430788863	-2.2873332302	-0.9163677686	 0.11012
H	-3.5109130669	-4.718318338	-0.3222188703	 0.108478
H	-1.897162901	-5.5899416714	 1.5570077911	 0.119315
H	-0.5986057143	-4.9714945757	 0.4916236602	 0.111541
H	-3.4130223245	-2.4977629922	 1.6360355746	 0.115242
