17
gdb 125026	3.02291	1.27197	0.94495	2.9298	72.61	-0.206	-0.0028	0.2032	1225.5549	0.135841	-455.138347	-455.129183	-455.128239	-455.172527	33.15	
C	 0.0201331958	 1.4714122339	-0.0866799264	-0.499156
C	-0.0522127471	-0.0129984501	-0.0909516172	 0.375711
C	-1.0778181838	-0.9081803577	-0.003347124	-0.017258
N	-2.4532206583	-0.7258936953	 0.1758115785	-0.619248
C	-0.4228025318	-2.1769019357	-0.0564512197	 0.331059
C	-1.0877674875	-3.5169506617	-0.0117255603	-0.190351
O	-2.1588831557	-3.5995356252	-0.9556234971	-0.414324
N	 0.8771148437	-2.0502211812	-0.1803200319	-0.218067
O	 1.1236115665	-0.6907615034	-0.1889457816	-0.221532
H	 0.3803994512	 1.8615255969	 0.8725767994	 0.148516
H	 0.698573905	 1.8315147411	-0.866424373	 0.148264
H	-0.9686281412	 1.9019660197	-0.2696287078	 0.126564
H	-2.7814100561	 0.1889436357	-0.1042829455	 0.240367
H	-2.9793384465	-1.4513415401	-0.2983156737	 0.258362
H	-0.3415183619	-4.3064758968	-0.1623693575	 0.126019
H	-1.5572132798	-3.6751062058	 0.9648256521	 0.133705
H	-1.7732585524	-3.5152257743	-1.8345493644	 0.291371
