21
gdb 118030	3.26872	0.68743	0.67654	3.1385	75.89	-0.2411	-0.0199	0.2212	1742.5145	0.17867	-461.362466	-461.351129	-461.350185	-461.400374	39.12	
C	-0.0690420805	 1.563239921	-0.1221249355	-0.433777
C	-0.0120560388	 0.0294812645	 0.010534775	-0.064278
C	 0.6620593426	-0.5431335552	-1.2244847848	 0.146505
O	 0.086954849	-1.1283584371	-2.1068453515	-0.253362
C	 0.7392471093	-0.4515014331	 1.2796653777	 0.09263
O	 2.0715570617	 0.0586172595	 1.325692145	-0.435296
C	-0.0273400771	-0.1657071061	 2.5743207962	-0.204231
C	 0.632715867	-0.7885501133	 3.7996018679	-0.07753
O	-0.131414574	-0.4101771044	 4.9344216177	-0.422444
H	 0.9333780301	 1.993246531	-0.2244895231	 0.121906
H	-0.6396315332	 1.8472396943	-1.0104818478	 0.139947
H	-0.5533793011	 2.0218244998	 0.7447648653	 0.130762
H	-1.0306246261	-0.3726308773	 0.0301748793	 0.095656
H	 1.7604979578	-0.3718556139	-1.263461294	 0.090809
H	 0.874272418	-1.537929032	 1.193171473	 0.098015
H	 2.021343281	 0.9960423252	 1.5424414863	 0.284405
H	-0.1076041323	 0.9167611968	 2.7386496324	 0.102874
H	-1.051799995	-0.5456073946	 2.4891764611	 0.113844
H	 0.6640138683	-1.8844893846	 3.684254972	 0.088035
H	 1.672226984	-0.4391583517	 3.8746401101	 0.098089
H	 0.2923708892	-0.7745931688	 5.7168409375	 0.28744
