20
gdb 77313	3.13505	1.17936	0.92567	4.4282	83.07	-0.2331	0.0124	0.2455	1295.7558	0.170507	-403.197649	-403.188331	-403.187387	-403.23189	34.116	
C	 0.0000368016	 1.6318891136	 0.0176121538	-0.390376
C	 0.0217031613	 0.0949183929	 0.0096441876	-0.072076
N	 0.7818488809	-0.459152712	-1.120824303	-0.055274
C	 1.9424800845	-1.2445492212	-0.6961228594	-0.201145
C	 1.8000464432	-1.221432528	 0.7976507794	-0.19965
C	 0.7500706228	-0.5058814969	 1.1989739975	 0.332598
C	 0.2826003275	-0.2725176124	 2.6001553792	-0.494541
C	 0.3775683117	-0.4372882848	-2.4125103774	 0.141434
O	 0.97315011	-0.9629763641	-3.3326986669	-0.345293
H	 1.0179312533	 2.0295567884	 0.0698757009	 0.126247
H	-0.475223165	 2.018532772	-0.8884912617	 0.125518
H	-0.5669443865	 2.0058097801	 0.8760252732	 0.119991
H	-1.018877815	-0.2648106081	-0.0213987405	 0.093002
H	 1.9007780671	-2.2539944945	-1.1255201343	 0.132254
H	 2.8824800869	-0.7971166083	-1.0487780437	 0.125161
H	 2.488792907	-1.7444498416	 1.4502945439	 0.101835
H	 0.9063022134	-0.8101253634	 3.318603757	 0.13068
H	 0.3057757502	 0.7916604562	 2.8636686395	 0.133607
H	-0.7544196371	-0.6059780657	 2.7332112391	 0.130049
H	-0.5725089979	 0.1184874876	-2.5484176243	 0.065978
