14
gdb 53889	4.55807	0.8212	0.71669	4.5795	60.46	-0.2632	-0.0879	0.1753	1460.9833	0.098294	-511.019984	-511.010702	-511.009758	-511.055374	31.532	
N	-0.2914918613	 1.1422853666	-0.2461616828	-0.516509
C	 0.016104134	-0.1270901067	 0.0863185833	 0.338429
O	 1.1224803743	-0.5691366552	 0.3339926149	-0.347494
C	-1.2210752669	-1.0459248696	 0.1244236455	 0.279143
O	-2.3265998519	-0.6434840226	-0.1424519466	-0.286953
C	-0.923058203	-2.4926886216	 0.4879654372	-0.196725
O	-2.1025992832	-3.2174404519	 0.7763892552	-0.166567
C	-2.8810277777	-3.5727468019	-0.2736753995	 0.18766
O	-3.9239646605	-4.1303559224	-0.1323498995	-0.26589
H	 0.4325773634	 1.8385825401	-0.3046599593	 0.277419
H	-1.2524770634	 1.3821487411	-0.4308343647	 0.285933
H	-0.3438282445	-2.94392021	-0.3304986502	 0.155055
H	-0.2868470991	-2.5295409936	 1.3738730267	 0.176178
H	-2.4298123801	-3.3158732323	-1.2507217801	 0.08032
