15
gdb 47283	3.2487	1.30754	0.99668	2.3026	70.32	-0.268	-0.0951	0.173	1122.787	0.113359	-457.815158	-457.807566	-457.806622	-457.847914	28.056	
O	-0.0247146484	 0.8423303242	 1.5589328744	-0.306503
C	-0.0825945282	 1.4315401507	 0.4998980228	 0.362187
C	-1.39868229	 1.9938024538	-0.0158302536	-0.321629
C	-1.5133087189	 2.0432989425	-1.5343065435	-0.105767
O	-0.8661050486	 3.1886202778	-2.0994162899	-0.22133
C	 0.4766936645	 3.3156901679	-2.1050040068	 0.403766
O	 0.976607951	 4.2526133755	-2.6724660071	-0.320092
C	 1.3547651278	 2.3224380562	-1.4150084869	-0.180448
C	 1.150407934	 1.5810601585	-0.3172628134	-0.147616
H	-2.1958287901	 1.379571338	 0.412615424	 0.141524
H	-1.5317791061	 3.0085229856	 0.3811023693	 0.152122
H	-1.126625574	 1.1275137328	-1.9963169419	 0.125899
H	-2.5576771269	 2.1573385274	-1.8301565341	 0.139672
H	 2.3506530691	 2.3411514006	-1.8471923106	 0.146383
H	 1.9843420548	 1.0155210984	 0.0902815073	 0.131832
