15
gdb 32508	2.20178	1.49835	0.89657	4.958	74.57	-0.2297	-0.0055	0.2242	1208.3078	0.114153	-416.856936	-416.848536	-416.847592	-416.890847	30.15	
O	-0.0352144365	 1.397999993	 0.0080475697	-0.4199
C	 0.0059698156	-0.0199835063	 0.0018594232	-0.208257
C	-1.40017396	-0.5286206648	 0.0118274092	 0.179214
C	-2.5427023229	 0.2269112158	 0.023435236	-0.139854
N	-3.6216620492	-0.6298893474	 0.0294782761	-0.247698
C	-3.1996064987	-1.9214036158	 0.021701834	-0.160186
C	-1.8145989741	-1.903255352	 0.0112664848	 0.075176
C	-0.9652085724	-3.0351036048	 0.0012578391	 0.190789
N	-0.246068079	-3.9443532835	-0.0076339544	-0.362488
H	 0.8695014184	 1.7222776869	 0.0019885482	 0.293529
H	 0.5335615796	-0.4024075126	-0.8871750545	 0.11257
H	 0.5487121028	-0.4097689636	 0.8784720401	 0.112583
H	-2.6656973346	 1.2958478949	 0.0278266992	 0.151181
H	-4.5847774157	-0.3419495985	 0.0381982516	 0.27371
H	-3.8858968833	-2.7516741314	 0.0244153576	 0.149631
