17
gdb 85195	2.53738	1.22334	0.88365	7.1775	73.59	-0.2593	0.0171	0.2765	1282.0794	0.135571	-418.046928	-418.037826	-418.036882	-418.081624	32.374	
C	-0.0782451473	 1.5761376119	-0.1324315421	-0.401351
C	 0.028973884	 0.0634965835	-0.0011179061	 0.037295
N	 1.0703843826	-0.5678511341	-0.8239006226	-0.333825
C	 1.7617357946	-1.1487064275	 0.2109407789	 0.436499
O	 2.7451015177	-1.8337375419	 0.260987265	-0.346902
C	 0.7635568418	-0.5533875079	 1.24246063	-0.177282
C	 1.3493522352	 0.3960646372	 2.2956724061	-0.36459
C	 2.0040538856	-0.3232919585	 3.3874813947	 0.2758
N	 2.4997134783	-0.8853170646	 4.2664120436	-0.298173
H	 0.891217561	 2.0641164766	 0.0011068498	 0.126975
H	-0.4528998549	 1.8454099913	-1.125231441	 0.126773
H	-0.7813497534	 1.9808073717	 0.6029949492	 0.128629
H	-0.9572144495	-0.3917049536	-0.1529172396	 0.095011
H	 1.1696191592	-0.6641386857	-1.8242482092	 0.253239
H	 0.1741815664	-1.3335879048	 1.7295115338	 0.124887
H	 2.0761418046	 1.0803479761	 1.8458888362	 0.160771
H	 0.5545414341	 1.0147189801	 2.7290054935	 0.156243
