21
gdb 89309	2.61125	1.51786	1.18925	1.7163	78.11	-0.2465	0.0735	0.32	1112.802	0.182271	-424.222559	-424.213765	-424.212821	-424.255056	35.492	
C	-0.0518012172	 1.4984378791	 0.0395525043	-0.502639
C	 0.0210634317	-0.0099909506	 0.052924894	 0.338008
C	 0.9710825221	-0.8189604585	-0.8853412768	-0.305953
C	 0.71823913	-1.939949502	 0.1480867366	 0.420511
O	 1.6158436718	-3.0056928959	 0.1946115049	-0.486921
C	 0.6619596717	-0.8129765521	 1.2268680895	-0.329738
C	-0.7767198954	-2.2450863106	-0.0787909075	-0.323925
C	-1.3042211556	-0.7762238485	-0.1492546668	 0.103142
O	-2.2101877654	-0.4232928505	 0.8841257218	-0.445075
H	 0.9309223327	 1.9470362133	 0.2163735492	 0.109837
H	-0.4184761104	 1.865487065	-0.9267896293	 0.109452
H	-0.7375163577	 1.8566550865	 0.8132298974	 0.133146
H	 0.6634285134	-0.9923556841	-1.9217419448	 0.085662
H	 1.9976491835	-0.4476391787	-0.8492071735	 0.102071
H	 1.3151145423	-3.6256068042	 0.8678289741	 0.27638
H	 1.6592632247	-0.4471443994	 1.4811377857	 0.094406
H	 0.0586553321	-0.9694986583	 2.1240660003	 0.096217
H	-0.9442394046	-2.8171510317	-0.9963055645	 0.09667
H	-1.2300770931	-2.7817228855	 0.7621885365	 0.085529
H	-1.7408566719	-0.5460657126	-1.1323736583	 0.06066
H	-3.0293403948	-0.9078352804	 0.7448599272	 0.282559
