20
gdb 116250	1.96877	1.53788	0.98071	4.6971	79.11	-0.2264	0.0329	0.2594	1255.6706	0.172814	-399.328532	-399.319249	-399.318305	-399.363111	33.916	
C	 0.7011965537	 1.2264899444	 0.5108008462	-0.322012
N	-0.1918294161	 0.6156378923	-0.4644594298	-0.297453
C	 0.4485803036	-0.2808074485	-1.397721576	 0.051741
C	 1.0551106621	-1.6127857741	-0.8981486107	-0.230226
C	 1.2360954093	-2.3936846239	-2.200082524	-0.159274
N	 0.0304925009	-2.055550344	-2.9748735467	-0.290664
C	-0.5097767278	-0.7683081193	-2.5305490012	-0.167122
C	-1.8922333486	-0.9353096111	-2.0303288077	 0.311256
N	-2.9658007994	-1.068576604	-1.6225564098	-0.343961
H	 1.2426270429	 0.5129546084	 1.1545998092	 0.100874
H	 1.4487473333	 1.8357391155	-0.0105893444	 0.121156
H	 0.12407333	 1.893416319	 1.157222243	 0.12697
H	-0.9650256552	 0.1500610608	-0.0002761786	 0.234389
H	 1.2481584479	 0.2859834377	-1.893637135	 0.088085
H	 1.9919600634	-1.4791770884	-0.3536414953	 0.106873
H	 0.3410908403	-2.1206647062	-0.2391468575	 0.116969
H	 2.1651057847	-2.0783208128	-2.701747346	 0.090304
H	 1.2989138006	-3.475513822	-2.0430240325	 0.112258
H	 0.1623303925	-2.1002722509	-3.9745021712	 0.230788
H	-0.5499314379	-0.0213547429	-3.3312894621	 0.119047
