17
gdb 73198	2.47096	1.501	1.31665	3.347	68.29	-0.2504	-0.0357	0.2147	1042.6422	0.133534	-458.927153	-458.918729	-458.917785	-458.960605	30.68	
C	-0.1091036069	 1.2678244457	-0.3729003963	-0.487145
C	 0.1067383812	-0.1597013713	 0.0356039181	 0.37543
O	-1.1244914683	-0.9061775944	 0.1987502027	-0.324818
C	-0.7130173593	-1.410297511	 1.4980309535	-0.102585
C	 0.6648012697	-0.7580017758	 1.3503243796	 0.020156
O	 1.5984708471	-1.5813225753	 0.6250318208	-0.311518
C	 1.2068657019	-1.0211973789	-0.6495021204	-0.010352
C	 0.7020085719	-2.0461044079	-1.644655597	 0.150379
O	 0.5932317144	-1.8140619939	-2.8202958816	-0.245211
H	 0.8374241367	 1.8155708038	-0.4008763033	 0.129456
H	-0.5549891429	 1.3014902944	-1.3728534621	 0.151316
H	-0.7902660122	 1.7682282505	 0.3209450218	 0.132594
H	-1.3400668139	-0.9963799482	 2.2974099012	 0.110582
H	-0.7102829851	-2.5035385194	 1.5503961128	 0.118971
H	 1.12097834	-0.2257375896	 2.1861129886	 0.096174
H	 2.0151494303	-0.4333813264	-1.10171025	 0.104974
H	 0.4278009554	-3.0244944823	-1.1961670684	 0.091597
