17
gdb 74185	2.54372	1.6831	1.10379	6.0804	79.79	-0.2067	-0.0075	0.1992	1081.5461	0.138212	-418.01431	-418.006665	-418.005721	-418.046326	30.539	
N	 0.0249592421	 1.3174028731	 0.0838809321	-0.576618
C	-0.0092480978	-0.0585489843	 0.0017042331	 0.356754
C	-1.140485854	-0.7846581187	-0.139331398	-0.301117
C	-1.1834597828	-2.2388740861	-0.0594948335	 0.383832
N	-2.2042852988	-2.9884942637	-0.2066666899	-0.521814
O	-0.0202858861	-2.904744022	 0.2392415754	-0.239083
C	 1.2093642941	-2.2506357461	 0.2237920069	 0.131952
C	 1.7678381663	-1.628194757	-1.016984016	-0.329587
C	 1.2897428607	-0.7478935488	 0.1424361395	-0.180967
H	 0.8642288757	 1.7663894665	-0.2506264275	 0.255794
H	-0.8200933599	 1.805868691	-0.1733329027	 0.254898
H	-2.0948701889	-0.2909654331	-0.2907437218	 0.078058
H	-3.0235932892	-2.4134333096	-0.3944879064	 0.209876
H	 1.8958845005	-2.7611982074	 0.8893020642	 0.116233
H	 2.8355981799	-1.7050464478	-1.1906994974	 0.122311
H	 1.1480974942	-1.6315818083	-1.9064065544	 0.13751
H	 2.036976764	-0.2363670576	 0.7410366965	 0.101967
