16
gdb 33836	4.06479	1.18308	1.05688	4.6681	75.78	-0.2536	-0.0052	0.2484	1138.431	0.123554	-400.697879	-400.690242	-400.689297	-400.730003	29.628	
N	 0.0694385699	-1.0779017224	 0.1033423064	-0.345102
C	 0.0633720951	 0.0788140806	 0.0802069281	 0.220723
C	 0.0643907235	 1.5046922282	 0.0320912096	 0.334037
C	 0.2521085307	 2.3408073025	-1.2055611738	-0.334528
C	 1.2016855251	 2.5184544181	-0.0445012771	-0.259607
C	 0.4760992308	 3.1839821179	 1.096920596	 0.459059
C	 1.0136361412	 3.6722082676	 2.3957307104	-0.338524
C	 0.2684892839	 4.6137940278	 1.4534514022	-0.339668
O	-0.6177076596	 2.2396233663	 1.051547787	-0.332548
H	 0.6672121258	 1.8200104059	-2.061910866	 0.143409
H	-0.4995766709	 3.0925257989	-1.4252382399	 0.136815
H	 2.2664445022	 2.3436138226	-0.1100396627	 0.130185
H	 0.4983164551	 3.3499030861	 3.2935479044	 0.138584
H	 2.0880862685	 3.7839212775	 2.498856697	 0.124905
H	 0.8299462875	 5.3718357435	 0.9178065723	 0.125659
H	-0.7359901089	 4.9063596389	 1.7389569459	 0.136601
