18
gdb 75043	2.54166	1.60998	1.0867	3.5075	83.	-0.2306	-0.0446	0.186	1123.6809	0.149156	-401.998861	-401.990525	-401.989581	-402.031723	31.731	
C	-0.0567817793	 1.5395503921	 0.0244885934	-0.464298
C	 0.0811381767	 0.0412584206	-0.012478448	 0.15292
C	-0.0292069564	-0.644259728	-1.1719294676	-0.155411
C	 0.0365133947	-2.0797932511	-1.4046819638	-0.05692
C	 0.7535809515	-2.9423137883	-0.6738884638	-0.081579
C	 1.5754199391	-2.4564355012	 0.4913118151	-0.235733
N	 0.7596693288	-1.7890431751	 1.4953617686	-0.308885
C	 0.1353744122	-0.5824430714	 1.3544057122	 0.345162
O	-0.3835108855	-0.0240959981	 2.3116180668	-0.380027
H	 0.8412889234	 2.0063625493	 0.4461201311	 0.130802
H	-0.2235343452	 1.9494939459	-0.9743035619	 0.111317
H	-0.8840611027	 1.820340365	 0.6821857418	 0.157268
H	-0.2367377599	-0.0511255057	-2.0619385527	 0.094825
H	-0.51227422	-2.444565375	-2.269716864	 0.097963
H	 0.7588612898	-4.0002991917	-0.9158746031	 0.102033
H	 2.0885062734	-3.2850758541	 0.9831284231	 0.117002
H	 2.3504676067	-1.7646514027	 0.1285998685	 0.125959
H	 0.7234014827	-2.1618979005	 2.4322745841	 0.247602
