17
gdb 84301	2.0916	1.83094	1.06766	3.661	80.64	-0.2378	-0.051	0.1867	1115.5734	0.134814	-384.691971	-384.683397	-384.682453	-384.725497	32.241	
C	-0.0003432597	 1.5935210459	-0.1862311699	-0.392641
C	 0.0008142531	 0.0692865674	 0.0142746512	-0.058632
C	 0.6461713957	-0.6408611118	-1.1521275542	-0.046229
C	 1.7673253729	-1.2989406493	-0.8416341428	-0.185008
C	 2.0576884245	-1.1777158541	 0.6023334765	 0.378156
O	 3.0202125339	-1.5834205568	 1.2010837369	-0.317048
C	 0.8318615711	-0.4413005989	 1.2357617495	-0.324098
C	 1.2007186184	 0.5402284948	 2.2373694416	 0.351376
C	 1.5128752708	 1.3509968718	 3.0676989653	-0.460687
H	 1.0192585872	 1.97741306	-0.2818514827	 0.132386
H	-0.5527284598	 1.8565995567	-1.0940068265	 0.112758
H	-0.4708441836	 2.0943208439	 0.6627960834	 0.135915
H	-1.0422605157	-0.2563614243	 0.1125554707	 0.096656
H	 0.2216429064	-0.5688954412	-2.1488693202	 0.118824
H	 2.4167782332	-1.8439752757	-1.514391896	 0.122102
H	 0.2610570321	-1.2415997484	 1.7274766709	 0.137961
H	 1.7972564496	 2.06051634	 3.8047015265	 0.19821
