17
gdb 11430	4.45932	1.39496	1.26346	4.0208	66.41	-0.253	0.0317	0.2847	1008.6906	0.142601	-401.00871	-401.000908	-400.999964	-401.041302	28.294	
C	-0.4173757596	 0.987712439	-0.0849262189	-0.240621
O	 0.1501514148	-0.2963527318	 0.0447753267	-0.242063
C	 0.9500824435	-0.4646327569	 1.1981973335	 0.102719
C	 0.1116235856	-0.7343055651	 2.4627766247	-0.101322
O	-0.128205892	-2.1465753511	 2.4796485107	-0.236923
C	 0.7767754885	-2.7993684231	 1.685090957	 0.42791
N	 0.8214807595	-4.0493941181	 1.5251286828	-0.544199
C	 1.7052717984	-1.7860919592	 1.0526471197	-0.322816
H	 0.3574157517	 1.7698720932	-0.1108079656	 0.108499
H	-0.966512661	 1.0012439623	-1.028913474	 0.136787
H	-1.1188957789	 1.2259734832	 0.728478047	 0.107039
H	 1.6120673196	 0.4025477736	 1.331717856	 0.072117
H	 0.6551501424	-0.4444521709	 3.3713925848	 0.108973
H	-0.8550737569	-0.225641653	 2.4527075	 0.121801
H	 0.0933147222	-4.5066875282	 2.0766345943	 0.221228
H	 1.924872767	-2.0280499093	 0.0135698654	 0.149872
H	 2.6471733451	-1.7596206348	 1.6104658461	 0.131001
