19
gdb 100618	2.08609	1.20994	0.80909	4.683	80.41	-0.3327	-0.0086	0.3241	1415.3659	0.157751	-382.102684	-382.092457	-382.091512	-382.138321	36.077	
C	 0.0805225567	 1.559434242	 0.0284453275	-0.398777
C	-0.0076151187	 0.0305146105	-0.0131469983	-0.1964
C	-1.4492627226	-0.5095901547	-0.0170159108	 0.02827
C	-2.2231233009	-0.1276079822	-1.2839596582	-0.423501
C	-1.4318674662	-2.0698706809	 0.1439141344	-0.297131
C	-0.7272140728	-2.494881035	 1.3624274736	 0.304736
N	-0.1585570625	-2.8090318743	 2.3169375732	-0.312354
C	-2.7864833806	-2.6409063895	 0.13794204	 0.30168
N	-3.8588816273	-3.0681142675	 0.1146310674	-0.311015
H	 1.1243438826	 1.877472943	 0.1017051684	 0.126791
H	-0.3414253154	 2.0233892901	-0.8675558258	 0.124668
H	-0.4501714001	 1.9618165005	 0.8980817937	 0.125243
H	 0.5152873826	-0.3456952117	-0.9033847099	 0.101323
H	 0.5251958504	-0.375464381	 0.8533963075	 0.132734
H	-1.9767505501	-0.1106436098	 0.857924902	 0.111916
H	-1.7164961868	-0.5035601234	-2.180813482	 0.122171
H	-3.2399566755	-0.5280125791	-1.2737836953	 0.151626
H	-2.2963523021	 0.958264392	-1.3731470327	 0.134846
H	-0.8922733408	-2.494318239	-0.7142222148	 0.173172
