15
gdb 125773	5.78183	0.94749	0.81822	5.9532	73.55	-0.2354	-0.024	0.2114	1343.8861	0.112247	-453.967566	-453.959188	-453.958244	-454.001664	29.583	
C	-0.0176595339	 1.5444111697	 0.0197726553	-0.494098
C	-0.0021653564	 0.0496817052	 0.0332359275	 0.414775
N	-0.0586736018	-0.6135962668	-1.0979073824	-0.199817
O	-0.0254460727	-1.9767526156	-0.7438929762	-0.191244
C	 0.0494032182	-2.062697824	 0.584022522	 0.581265
N	 0.0947802911	-3.3116781051	 1.176629598	-0.417581
C	 0.0736589449	-4.558604207	 0.5734768575	 0.149794
O	 0.0102456813	-4.7771870244	-0.6060110859	-0.266393
C	 0.0689082271	-0.8231153108	 1.1548965507	-0.47677
H	 0.8885124829	 1.9488505897	 0.4822220002	 0.138335
H	-0.0784301048	 1.90710125	-1.0078168015	 0.153929
H	-0.8747056933	 1.9314522818	 0.5803524699	 0.138337
H	 0.1507077565	-3.3025631993	 2.1837082934	 0.268116
H	 0.1245604504	-5.3494007956	 1.3473880153	 0.08886
H	 0.1246593604	-0.5706163478	 2.2005489862	 0.112492
