16
gdb 51495	3.39978	1.2464	1.13846	5.5367	70.27	-0.2465	-0.0211	0.2255	1089.8988	0.125232	-437.875544	-437.868026	-437.867082	-437.907998	28.246	
O	 0.5028598985	 0.1213983157	-0.0122375252	-0.285202
C	 0.7803847237	 1.2535641157	 0.2539142299	 0.1705
O	 0.3509167434	 2.2806868855	-0.5172110769	-0.212257
C	 0.8000670699	 3.6155238137	-0.2320450117	 0.096225
C	 0.8114351942	 4.0237422304	 1.2340134923	-0.148682
C	 1.9732750846	 4.5712763592	 1.5909842106	-0.03681
C	 2.94700408	 4.5300870687	 0.4523051224	-0.086855
N	 3.2488103115	 3.1300263327	 0.048028943	-0.327865
C	 2.2308435488	 3.9075460836	-0.6876381981	-0.06602
H	 1.3774386087	 1.5714753866	 1.1202922744	 0.108978
H	 0.0945946251	 4.2356314022	-0.7959513589	 0.109292
H	-0.0487179916	 3.8650242365	 1.8737495968	 0.118442
H	 2.2182567565	 4.9622863167	 2.5709494176	 0.11471
H	 3.7049108843	 5.2938396676	 0.3221623443	 0.102488
H	 4.1032134971	 3.1123377059	-0.5057674972	 0.239822
H	 2.4164464952	 4.1811015891	-1.7192534735	 0.103235
