25
gdb 117078	2.82857	0.85621	0.78093	2.3976	89.46	-0.2351	-0.0062	0.2288	1668.8207	0.225005	-389.530115	-389.518361	-389.517417	-389.567549	42.682	
C	-0.0151689515	 1.5845493453	 0.135843528	-0.38755
C	-0.0262953909	 0.0864386804	-0.1767301397	-0.15971
C	-1.3474097105	-0.5851647927	 0.2021279166	-0.290648
C	-1.3599616396	-2.0913973722	-0.04804132	 0.365037
O	-0.3329565723	-2.6835484182	-0.2961791331	-0.317023
C	-2.7143841649	-2.8350880625	-0.0037963188	 0.161759
C	-2.4587120902	-4.3409465498	 0.1634286805	-0.396477
C	-3.6074152816	-2.3234105999	 1.143042503	-0.420498
C	-3.4153695511	-2.5810645244	-1.3601827658	-0.409587
H	 0.9393733112	 2.0395535865	-0.1459811203	 0.114802
H	-0.8073837439	 2.1139191341	-0.4059852582	 0.110784
H	-0.1682542862	 1.7703690504	 1.2051429742	 0.111887
H	 0.1648537619	-0.0761800711	-1.2436347006	 0.105334
H	 0.7900395314	-0.4187250154	 0.3483948776	 0.116996
H	-1.5587614487	-0.4286857549	 1.2700493513	 0.124317
H	-2.1904256525	-0.1178131941	-0.3227434025	 0.113679
H	-1.9764792273	-4.5548409756	 1.122167813	 0.113581
H	-3.405219084	-4.890158856	 0.1269789117	 0.101338
H	-1.8022533195	-4.7160472789	-0.6236109816	 0.131216
H	-3.8647719485	-1.2665442283	 1.0309352403	 0.115401
H	-4.54496675	-2.8890008774	 1.1618958062	 0.116524
H	-3.1235818707	-2.4548704041	 2.11685367	 0.117528
H	-2.8023537622	-2.9410848385	-2.1920978881	 0.128291
H	-4.3715117403	-3.1143929772	-1.3887809087	 0.118703
H	-3.6240190581	-1.5190916455	-1.523791755	 0.114317
