17
gdb 4783	6.60103	1.23754	1.07047	1.4289	73.34	-0.1751	0.046	0.2211	1121.5928	0.142296	-363.889257	-363.880918	-363.879974	-363.922291	30.072	
C	-0.1326188927	 1.4458378026	 0.1833712897	-0.328613
N	-0.0352409584	 0.0619678425	-0.2709389085	-0.384763
C	-1.1395960896	-0.7603778404	-0.1426313858	 0.445692
C	-1.2844211739	-2.1029488475	 0.0579308135	-0.414117
C	-2.7003305911	-2.3672099251	-0.0130979296	 0.284794
C	-3.3756337339	-3.6937179403	 0.141625361	-0.499532
C	-3.2920649618	-1.1688506634	-0.2380205527	-0.133635
O	-2.3445683564	-0.1703907107	-0.321438377	-0.184332
H	 0.809395137	 1.9522896917	-0.0391807354	 0.123204
H	-0.9295002954	 1.9517796206	-0.3647269121	 0.151492
H	-0.342255555	 1.5433355366	 1.2594621902	 0.113947
H	 0.8056841211	-0.4029960859	 0.0389355033	 0.241917
H	-0.4951097391	-2.8169323312	 0.2343881048	 0.088071
H	-3.1602061229	-4.142386738	 1.1184347478	 0.125382
H	-4.4612855968	-3.5983060497	 0.0505884135	 0.121442
H	-3.0378983474	-4.4070200047	-0.619203094	 0.126606
H	-4.3139103935	-0.848301457	-0.3481608788	 0.122444
