21
gdb 97922	3.63323	0.65207	0.63253	1.3287	88.33	-0.2421	0.0363	0.2784	1872.9366	0.179992	-387.044323	-387.033674	-387.03273	-387.082212	37.894	
C	 0.2604781712	 1.5577851831	 0.3070236406	-0.458813
C	-0.0053580301	 0.0852330696	 0.0685544502	 0.391501
C	-1.4662472625	-0.263204697	-0.2209989736	-0.435367
C	-1.9871351692	 0.3427868877	-1.4442063721	 0.078703
C	-2.400045849	 0.8424349643	-2.4589043041	 0.099175
C	-2.9177894922	 1.4593348936	-3.6728997751	-0.2155
O	-2.6473315478	 0.6219398539	-4.792274887	-0.409565
C	 1.0520295204	-0.7360168343	-0.6235096946	-0.286401
C	 0.7923628854	-0.926605406	 0.8542908296	-0.317556
H	 1.3224949123	 1.7403229494	 0.4969009341	 0.110901
H	-0.0359294821	 2.1539709463	-0.5623411242	 0.127769
H	-0.3018519655	 1.9264256263	 1.1736804862	 0.110629
H	-1.5733314037	-1.3532532086	-0.289156311	 0.125172
H	-2.0893322793	 0.0478269609	 0.6297064708	 0.124208
H	-4.0011572645	 1.6287965233	-3.5575567137	 0.1137
H	-2.4544224564	 2.4517254222	-3.7996402236	 0.11324
H	-3.0042052982	 1.0621517308	-5.5705051826	 0.287854
H	 0.7311575552	-1.5173100916	-1.3043800923	 0.115574
H	 1.969398183	-0.2400712726	-0.9221967112	 0.109018
H	 1.5321947184	-0.5568301062	 1.5565314334	 0.108653
H	 0.3001342448	-1.8401138251	 1.1724831102	 0.107106
