17
gdb 68337	3.46461	1.03163	0.93169	2.7177	70.85	-0.2707	0.0031	0.2737	1269.5411	0.135034	-458.93299	-458.924766	-458.923821	-458.966908	30.56	
O	-0.0230019743	 1.2825882682	-0.0582124925	-0.4663
C	 0.0173017303	-0.0900963794	 0.0148632516	 0.369127
C	 0.6383269354	-0.9955100346	-1.0737831971	-0.262983
C	 0.0964836282	-1.9678101088	 0.0189523849	-0.104608
C	 0.7092326309	-1.0075939534	 1.0823631478	-0.297017
C	-1.1765038841	-1.0859904582	 0.0222182147	 0.101785
O	-1.9772436882	-1.0674797049	 1.1992319544	-0.214211
C	-3.2446328861	-1.515428414	 1.1181238931	 0.161386
O	-3.9784075957	-1.5470846834	 2.0594403686	-0.274764
H	-0.4523214649	 1.6176065793	 0.7374038316	 0.293926
H	 0.1450822275	-1.010073579	-2.0494807554	 0.100283
H	 1.7241204517	-0.9483137236	-1.1662427095	 0.110302
H	 0.1373998589	-3.0533846502	 0.0093580202	 0.09353
H	 1.799830952	-0.9600876926	 1.1123493613	 0.100712
H	 0.2685749472	-1.0318419878	 2.078614388	 0.120005
H	-1.8071088165	-1.1137708963	-0.8722061618	 0.088418
H	-3.5231063024	-1.8373986712	 0.0962442203	 0.080409
