19
gdb 80024	3.24228	1.49951	1.30072	1.8196	79.76	-0.2292	0.0103	0.2395	1042.6626	0.159596	-385.832456	-385.82493	-385.823986	-385.863917	30.754	
C	-0.073313001	 1.6531428309	 0.0071345701	-0.432133
C	 0.021595333	 0.1380288762	 0.0179236729	 0.059039
C	 1.1592707169	-0.6215768358	-0.7727530864	-0.20087
C	 2.4176511321	-0.0859171326	-0.0797436227	-0.079843
C	 2.0966372763	-0.0975212354	 1.2184107579	-0.07979
C	 0.6621357468	-0.6384557075	 1.2358873185	-0.2009
C	 0.8211992946	-1.7851409112	 0.1997475125	 0.539232
C	 0.0888605145	-3.0307351596	 0.0080852346	-0.307149
O	 1.4942737386	-2.996794737	 0.3561597891	-0.290596
H	 0.8833203941	 2.1220964103	 0.2477894886	 0.123324
H	-0.3918576564	 2.0106191628	-0.9781745405	 0.114091
H	-0.8159635737	 1.9962525186	 0.7357228884	 0.11409
H	-0.954094529	-0.2980599264	-0.2272812235	 0.073417
H	 1.1476129009	-0.7317342063	-1.8564067656	 0.064471
H	 3.3423274273	 0.1942018559	-0.5627512499	 0.102
H	 2.6884341223	 0.1706931213	 2.081329459	 0.102004
H	 0.1468203821	-0.7656677644	 2.1871199733	 0.064477
H	-0.5697654741	-3.4073400646	 0.7895677481	 0.117569
H	-0.1278582153	-3.392353465	-0.9962043643	 0.117567
