16
gdb 28166	5.05297	1.2758	1.03166	1.6848	78.06	-0.2021	-0.0103	0.1917	1128.6424	0.125727	-400.79054	-400.783207	-400.782263	-400.822441	27.876	
C	-0.0160165984	 1.4358343294	 0.1006491907	-0.494233
C	-0.0076718427	-0.0401943331	-0.0618381716	 0.337648
N	-0.0839983258	-0.7348482357	-1.1593617221	-0.385069
C	-0.0304624908	-2.0477010996	-0.7157621575	 0.240721
C	 0.0756790521	-2.0689094258	 0.6313343037	 0.283119
C	 0.1383715878	-3.4507323765	 1.1773621485	-0.418077
C	 0.04680316	-4.2411961089	-0.1323436224	-0.089802
C	-0.0491282848	-3.4259002904	-1.2045965822	-0.189892
O	 0.0937506983	-0.7936461695	 1.0928070341	-0.22552
H	 0.9027493908	 1.787358696	 0.5819958305	 0.144374
H	-0.0998950252	 1.8962023024	-0.8840446018	 0.157716
H	-0.8580015997	 1.7622454999	 0.7202593426	 0.144376
H	 1.0678517371	-3.6726837604	 1.7171058118	 0.140382
H	-0.6886865436	-3.6978913297	 1.8551552517	 0.14038
H	 0.0609698891	-5.3224118424	-0.148906337	 0.103691
H	-0.1259691741	-3.7331405858	-2.2386201991	 0.110186
