21
gdb 94575	3.12284	1.13565	0.90798	2.3258	79.09	-0.2415	0.0586	0.3001	1329.8412	0.182489	-424.188456	-424.179355	-424.17841	-424.223319	33.45	
O	 0.1087783739	 1.2843415664	-0.3932659401	-0.422413
C	 0.088172002	-0.0560685744	 0.0389504068	 0.045886
C	-0.0222191673	-0.3159425436	 1.5583998945	-0.098595
O	-1.2975602486	-0.9656416344	 1.3976924149	-0.294962
C	-1.3200129858	-0.6977425699	-0.0304616981	 0.086549
C	-2.4726774151	 0.1852210304	-0.444856774	 0.071436
C	-2.6995760336	 0.437273206	-1.9623230621	-0.232257
C	-4.2268345109	 0.2986102106	-1.7177880985	-0.211431
C	-3.908781853	-0.4086409631	-0.3717103189	-0.237038
H	 1.0110857024	 1.6119815157	-0.3313889392	 0.288926
H	 0.8670878876	-0.6468274281	-0.4582959246	 0.075765
H	 0.7285862677	-0.9832569512	 1.9999290691	 0.095387
H	-0.0922412611	 0.6033154031	 2.154694198	 0.09972
H	-1.3508202531	-1.641965225	-0.5931812147	 0.065941
H	-2.4175056412	 1.1338488695	 0.0948955238	 0.078926
H	-2.3205536812	 1.3739631018	-2.3747883108	 0.103756
H	-2.3126687751	-0.3900612702	-2.5677616743	 0.092279
H	-4.7013034249	 1.271859789	-1.5620390171	 0.101294
H	-4.8116369788	-0.2550512412	-2.4563089429	 0.092979
H	-3.8953742636	-1.4984024374	-0.479840058	 0.097516
H	-4.51578886	-0.156258184	 0.5000451164	 0.100336
