13
gdb 27708	3.0565	1.30653	0.91593	4.2611	70.3	-0.2025	-0.005	0.1975	1157.1789	0.091436	-448.990828	-448.982847	-448.981903	-449.023225	29.751	
N	 0.0734266967	 1.3573206059	-0.1664534853	-0.596537
C	-0.0062494816	-0.0088768382	-0.0843189257	 0.246465
C	-1.1429800681	-0.8053986772	-0.0242078647	 0.144077
N	-0.6420534349	-2.1276637672	-0.0292131208	-0.393847
C	 0.6940662908	-2.021444998	-0.0832508466	 0.466821
O	 1.4573024066	-3.1163831628	-0.0965272614	-0.415034
N	 1.1277125256	-0.7788490748	-0.1164872082	-0.401234
C	-2.4985183022	-0.4747191988	 0.038299788	 0.177097
N	-3.621319562	-0.1762659099	 0.0954431574	-0.367147
H	 0.9597863009	 1.7386055208	 0.1277383594	 0.26313
H	-0.7269140974	 1.8705312569	 0.1704869172	 0.267859
H	-1.1803571637	-2.976412531	 0.0025633303	 0.286465
H	 2.3741199593	-2.8159823156	-0.1467972595	 0.321884
