21
gdb 92225	2.79726	1.68438	1.35157	1.6157	80.87	-0.24	0.0806	0.3206	1036.8779	0.184774	-387.076949	-387.069348	-387.068403	-387.108606	31.149	
C	-0.1449612661	 1.5432326059	-0.2039902939	-0.420998
C	 0.0170261429	 0.061841433	 0.0612785389	 0.157577
O	 0.9216575657	-0.6244270028	-0.8495602508	-0.319512
C	 1.3530186395	-1.5043681963	 0.2250474115	 0.122851
C	 2.8667179869	-1.6449854993	 0.4116741871	-0.252313
C	 3.2813709424	-0.4959629769	 1.3257543231	-0.042332
C	 2.9905280024	 0.89041198	 0.8303347578	-0.286703
C	 2.0240769388	 0.2269294596	 1.7941997302	-0.046553
C	 0.7964205517	-0.5101833419	 1.2729111546	-0.094109
H	 0.7782611027	 2.1006610287	-0.0438084148	 0.13192
H	-0.4727551328	 1.6994872908	-1.2371564424	 0.12619
H	-0.9161592432	 1.9532408387	 0.4573916333	 0.114428
H	-0.9732130063	-0.4188589939	 0.0039625192	 0.066499
H	 0.8404270527	-2.4716719548	 0.1466778429	 0.069374
H	 3.0810902539	-2.607114312	 0.8910154974	 0.098429
H	 3.3815257745	-1.6389472796	-0.5553951953	 0.113888
H	 4.1195179433	-0.648012438	 1.9970240062	 0.079313
H	 3.5857656568	 1.7054244152	 1.2294527134	 0.104279
H	 2.7111053714	 1.0010735477	-0.2097672902	 0.132407
H	 1.9729604109	 0.6381002563	 2.7961220193	 0.08027
H	 0.1908798318	-0.9031067104	 2.0925699625	 0.065095
