13
gdb 20422	6.31947	1.51227	1.3481	2.6627	60.59	-0.2618	-0.0408	0.221	875.0871	0.09594	-394.718291	-394.711889	-394.710944	-394.749724	23.305	
C	 0.2107864605	 1.5922347825	 0.0720747073	-0.222842
C	 1.2487952982	 0.5754864088	-0.2216047269	-0.222825
N	-0.1368463722	 0.1587651894	 0.0647210219	-0.193606
C	-0.3787817029	-0.4453993363	 1.3014297501	 0.296618
C	-1.2646637029	-1.4337494108	 1.5972244172	-0.034622
O	-1.1771454754	-1.7192353529	 2.8939806956	-0.161988
N	-0.174035598	-0.8526991583	 3.4298663456	-0.003523
N	 0.2590057626	-0.1389870346	 2.4900847355	-0.177202
H	 0.2582288696	 2.0869609992	 1.0376891753	 0.144617
H	-0.2383428599	 2.167735954	-0.7313764956	 0.12831
H	 1.5699540618	 0.3964690423	-1.2430083122	 0.128301
H	 1.9928511887	 0.3879083298	 0.5469030281	 0.144657
H	-1.97367986	-1.9845079232	 1.0032051481	 0.174106
