18
gdb 39827	2.83221	1.59619	1.52833	0.5386	70.99	-0.2366	0.076	0.3126	957.7119	0.149721	-439.022006	-439.014884	-439.01394	-439.053368	28.495	
C	-0.0322485922	 1.5270493121	 0.0109167156	-0.288289
O	 1.1327599507	 0.673283931	-0.0053410135	-0.304405
C	-0.1496576607	 0.0753877612	 0.0038137548	 0.531775
C	-0.524105927	-0.9949420996	 1.0341534649	-0.148018
C	-2.0420557686	-1.0079591938	 1.2180461542	-0.049325
O	-2.6968716618	-0.5877019107	 0.0249806171	-0.270631
C	-2.0655848337	-0.9942987106	-1.1853752063	-0.049324
C	-0.5443243504	-0.983200322	-1.0311001446	-0.148018
N	-0.2266630378	-2.053731468	-0.0075379102	-0.333499
H	-0.1859961774	 2.0823410533	 0.9349502359	 0.118438
H	-0.2039932153	 2.0927915079	-0.9035584668	 0.118438
H	 0.027662969	-1.0635827813	 1.9738979766	 0.085992
H	-2.3526762075	-2.02220909	 1.5081396797	 0.104541
H	-2.3570237604	-0.3038512993	 1.9955528614	 0.106539
H	-2.3819375045	-2.0052205546	-1.4808417358	 0.104541
H	-2.3956357225	-0.2814345737	-1.9485138518	 0.106539
H	-0.0110681465	-1.0410910649	-1.9821873274	 0.085992
H	 0.7829270165	-2.194419887	-0.0182234439	 0.228716
