17
gdb 71467	4.01692	1.29028	1.14022	1.953	80.75	-0.2258	0.0204	0.2461	1101.5933	0.133891	-384.59721	-384.589298	-384.588354	-384.629174	31.527	
C	 0.10303153	 1.4871497004	-0.0524228139	-0.506658
C	 0.0326752706	 0.0021732974	 0.1070682596	 0.395518
C	-1.2890422465	-0.8051208734	 0.2701342788	-0.267468
C	-0.3995135581	-1.90809527	 0.8343017826	-0.165004
C	 0.6845375509	-0.9173296087	 1.2171520146	-0.257725
C	 0.9177060324	-1.7853054757	 0.0168530099	 0.388379
O	 0.7287244207	-0.7424408841	-0.9438351661	-0.363163
C	 1.8206705909	-2.851757371	-0.222466454	 0.145833
C	 2.5840472949	-3.7608341112	-0.4172805843	-0.373174
H	 1.1424945498	 1.825970815	-0.0741098443	 0.135571
H	-0.3749254975	 1.7852670116	-0.99184086	 0.13679
H	-0.4143420402	 1.987747577	 0.7714071048	 0.124359
H	-1.9296742901	-0.3783237229	 1.0467348198	 0.104692
H	-1.8575585066	-0.9914231592	-0.6458611707	 0.104776
H	-0.6713120414	-2.8302541471	 1.3302923448	 0.103761
H	 1.2586753428	-0.7452588262	 2.1169374671	 0.108236
H	 3.2593295672	-4.5610300419	-0.5936542586	 0.185277
