15
gdb 97013	3.7388	1.05332	0.83032	2.952	76.98	-0.2498	-0.0681	0.1817	1311.454	0.112599	-413.015419	-413.006691	-413.005747	-413.049635	30.285	
C	 0.0077978098	 1.4237527885	 0.0092802914	-0.345914
N	 0.034549209	-0.0306902363	 0.0051215108	-0.320201
C	-1.0677050588	-0.6463997065	 0.0110850577	 0.405834
C	-1.2844544643	-2.1569676273	 0.0083269474	-0.267836
N	-2.7369894599	-2.3771833475	 0.0182066341	-0.291445
C	-3.2586194909	-1.2086757831	 0.025123482	 0.302795
N	-2.3774653824	-0.1363617119	 0.0215863577	-0.405179
C	-4.6727470478	-0.9563870595	 0.0361098375	 0.263138
N	-5.8004683187	-0.7052780014	 0.045049399	-0.309041
H	 1.030495243	 1.8064791533	 0.0002409863	 0.13717
H	-0.5076672695	 1.8325029997	-0.8735055198	 0.115005
H	-0.489958734	 1.8273517534	 0.9044816605	 0.115224
H	-0.8404326786	-2.6261645461	-0.8761976516	 0.159953
H	-0.82766981	-2.6312793126	 0.8835733422	 0.159946
H	-2.6397174067	 0.8342353873	 0.0272936447	 0.280549
