21
gdb 92840	2.72869	1.52204	1.27422	1.1117	84.73	-0.2327	0.0167	0.2495	1098.5899	0.183731	-387.08379	-387.075609	-387.074665	-387.116292	32.567	
C	 0.9193205841	 1.0640613731	 0.2581914311	-0.389705
C	-0.1785361661	 0.0323851485	-0.0203458677	 0.1304
C	 0.0225649109	-0.707948558	-1.3671692032	-0.266457
C	 1.1929637444	-1.6618159169	-1.2664262974	-0.253616
C	 1.300245736	-2.321562172	-0.1222648451	 0.305897
C	 2.3593643413	-2.9974386827	 0.7237284225	-0.321885
C	 1.7297141106	-2.2303502643	 1.9386507083	-0.257919
C	 0.4320400358	-2.0504350047	 1.0743114735	 0.093927
O	-0.3345823312	-0.8696226528	 1.0855086505	-0.290613
H	 1.9145418412	 0.6118872335	 0.221549466	 0.117534
H	 0.8841590116	 1.8714581951	-0.4815921464	 0.107581
H	 0.7741055926	 1.5003183961	 1.2501272751	 0.120768
H	-1.1396754394	 0.5580054361	-0.0594928194	 0.079101
H	-0.9044720132	-1.2376358828	-1.6212206216	 0.111647
H	 0.1842414551	 0.0337001144	-2.1559478722	 0.102099
H	 1.9373173052	-1.711788925	-2.0555568423	 0.086856
H	 2.2222577362	-4.0805159007	 0.810097328	 0.111881
H	 3.4046416162	-2.7959456013	 0.4799504522	 0.112247
H	 1.6301440137	-2.7662937154	 2.8849366439	 0.099469
H	 2.2262053419	-1.2725899887	 2.1052074739	 0.115249
H	-0.2550641069	-2.8809954013	 1.2902087004	 0.085542
