27
gdb 117661	2.59555	0.94681	0.84147	1.0123	92.87	-0.251	0.0769	0.3279	1586.8085	0.248681	-390.692068	-390.679956	-390.679012	-390.729121	44.53	
C	-0.0293946651	 1.4092687976	-0.0137249507	-0.226573
O	-0.0809985932	 0.005046405	-0.0164828233	-0.236887
C	 0.6828763047	-0.5732859899	-1.056633371	-0.076117
C	 0.6150615527	-2.1113902602	-0.9634829112	 0.250469
C	 1.2636723359	-2.5544799198	 0.3624915558	-0.420919
C	-0.8724603425	-2.5223058565	-0.962782854	-0.420318
C	 1.330889564	-2.7199113555	-2.2165599886	 0.031459
C	 2.7662444595	-2.211736265	-2.4446445639	-0.40892
C	 1.3388808194	-4.2581763392	-2.2240376192	-0.407719
H	 0.9994198297	 1.7817163191	 0.1179204039	 0.101719
H	-0.4281442402	 1.8363445351	-0.9480540134	 0.101933
H	-0.6404108732	 1.759449242	 0.8221782984	 0.124805
H	 0.2991011998	-0.2376331034	-2.0368947942	 0.076706
H	 1.7241219075	-0.2250477353	-0.9760414169	 0.082819
H	 0.7862962316	-2.0359507996	 1.1976133288	 0.128714
H	 1.1526213259	-3.6302901905	 0.5247986907	 0.108671
H	 2.3320608351	-2.3170666407	 0.3942567617	 0.105123
H	-1.3482594705	-2.2825995647	-1.9210425339	 0.100501
H	-0.9959165823	-3.5936869171	-0.7847555628	 0.108019
H	-1.4110057312	-1.986507647	-0.178914975	 0.131335
H	 0.7363401534	-2.3976917783	-3.0842252258	 0.067371
H	 2.8121929785	-1.1328281479	-2.6133361302	 0.113495
H	 3.4211880141	-2.4484385431	-1.5992514197	 0.116481
H	 3.1944246009	-2.6946121987	-3.3293535455	 0.109028
H	 0.3386311551	-4.6838886326	-2.1145615525	 0.114226
H	 1.7489072597	-4.6249642353	-3.1707584899	 0.108878
H	 1.9665068907	-4.6603530584	-1.4216750075	 0.115702
