15
gdb 33478	2.216	1.73836	1.18416	3.6689	75.54	-0.2557	0.0098	0.2655	1041.6111	0.111885	-379.591916	-379.583899	-379.582955	-379.624423	30.409	
C	 0.0442149026	-1.2292736218	-0.0728098638	-0.421358
C	 0.0293214299	-0.0296063202	-0.0299741008	 0.30417
C	 0.0097357729	 1.422946941	 0.0288858464	-0.015475
C	-0.2330325931	 2.1079232236	 1.4549353039	-0.270931
C	 1.1208696085	 2.8033504944	 1.3096864492	-0.03102
N	 2.1196176888	 1.716356548	 1.1910122717	-0.325247
C	 1.3831873493	 2.1616226819	-0.0021969183	-0.090622
C	-0.898604553	 1.9816936733	-0.9749921522	 0.236591
N	-1.6014272585	 2.4513802313	-1.7628944307	-0.337208
H	 0.0622804982	-2.2906018578	-0.111607996	 0.204518
H	-1.0917263235	 2.7783905559	 1.4313893912	 0.140689
H	-0.3133138167	 1.4007597735	 2.2808926263	 0.133934
H	 1.3961460058	 3.7873783805	 1.6646980013	 0.110763
H	 3.045038884	 2.1414239496	 1.1450323363	 0.241063
H	 1.8794325749	 2.5157414367	-0.8960306645	 0.120131
