18
gdb 45897	2.63952	1.53796	1.0644	2.8939	81.03	-0.2195	-0.0085	0.2111	1124.0801	0.150266	-401.982876	-401.974936	-401.973992	-402.015649	30.563	
O	-0.0171486631	-0.1778280602	-0.0049754937	-0.34887
C	-0.0177680479	 1.0335395423	 0.0742049772	 0.38179
C	-1.2846146132	 1.8714331408	-0.0385728682	-0.357433
C	-1.6363742234	 2.4233935679	 1.3166198689	-0.056938
C	-1.2378124334	 3.6215748924	 1.7364690985	-0.043721
C	-0.4669081606	 4.5956676482	 0.8780995273	-0.339461
C	 0.9645047275	 4.2111740717	 0.5664966262	-0.065018
C	 1.5808519657	 3.0414892686	 0.3474519516	 0.012645
N	 1.1756014462	 1.7011233337	 0.3027577568	-0.320499
H	-1.1233518288	 2.676346465	-0.7627722293	 0.122797
H	-2.058202209	 1.2035765371	-0.4206477342	 0.130748
H	-2.1716078688	 1.7564466151	 1.9867328179	 0.103119
H	-1.4633496737	 3.9327724486	 2.752780002	 0.096057
H	-1.0112976994	 4.7810002236	-0.0609936247	 0.123848
H	-0.4386185853	 5.5667756254	 1.3819430964	 0.109098
H	 1.6383505589	 5.0606587609	 0.4902892733	 0.093442
H	 2.6505426995	 3.1010999092	 0.1651541841	 0.10626
H	 1.9362357287	 1.0360456096	 0.3219970798	 0.252136
