16
gdb 32129	3.14852	1.27785	0.91418	2.5057	76.33	-0.2229	-0.0022	0.2208	1223.1666	0.126832	-434.144111	-434.135967	-434.135023	-434.177334	29.896	
C	 0.1232107913	 1.4377346988	-0.0266833022	-0.323398
N	-0.0414965633	 0.0043019831	-0.0191003307	-0.349568
C	-1.2335091922	-0.6412404976	 0.0159050756	 0.448942
N	-1.1617810143	-1.9938262416	 0.0028087962	-0.348387
C	-2.316866517	-2.6365411994	 0.0384659784	 0.071889
N	-3.545587737	-2.1152574768	 0.0853345057	-0.371003
C	-3.5892747607	-0.7807507762	 0.0966676276	 0.450249
O	-4.8059352023	-0.210746745	 0.1431624015	-0.414697
C	-2.4628216905	 0.0296930795	 0.0632238099	-0.335437
H	 1.1891915329	 1.6694486518	-0.0552809284	 0.134719
H	-0.3494319595	 1.9007346928	-0.9029716476	 0.13411
H	-0.3009185328	 1.9017872033	 0.8731997031	 0.134961
H	 0.7642974664	-0.5968412813	-0.0625972848	 0.253157
H	-2.2619593463	-3.7234305003	 0.0276078407	 0.112726
H	-5.4374341876	-0.9442898467	 0.1596200351	 0.298777
H	-2.5540353272	 1.1064174059	 0.0736813099	 0.102962
