18
gdb 85303	2.47059	1.8599	1.33521	3.3909	73.13	-0.2536	0.0154	0.269	1000.0364	0.14923	-439.083674	-439.076167	-439.075223	-439.115538	29.611	
C	-0.2624940065	 1.5567807628	 0.1618763503	-0.401745
C	 0.0662581434	 0.0784120347	 0.0131226811	 0.127218
O	 0.9028297706	-0.0858416291	-1.1655682283	-0.285456
C	 2.1780386508	-0.552184476	-1.0242165138	 0.437435
N	 2.9895595663	-0.6524249254	-1.9879425217	-0.535305
C	 2.527443968	-0.9754611104	 0.3773459353	 0.003618
C	 1.3984422309	-1.8720524777	 0.9304148674	-0.267438
C	 0.776874216	-0.496791997	 1.2354822967	 0.069147
O	 2.1062049023	 0.0939746196	 1.2794152139	-0.291824
H	 0.6392470869	 2.1117963831	 0.4324517726	 0.14601
H	-0.6551332372	 1.9529748746	-0.7775582822	 0.130748
H	-1.0163967388	 1.7037761703	 0.9421594792	 0.11619
H	-0.8450228829	-0.5001518697	-0.184865964	 0.092331
H	 2.5531012956	-0.3322769262	-2.8557237998	 0.220083
H	 3.5765993975	-1.2481715351	 0.4736229963	 0.110028
H	 0.881600519	-2.5461287367	 0.2446130413	 0.118314
H	 1.7040799036	-2.3945725404	 1.8371064224	 0.121355
H	 0.2062661248	-0.3396590015	 2.1545818834	 0.089291
