18
gdb 22389	2.71354	1.51804	1.15197	1.2738	75.52	-0.2411	0.0133	0.2544	1082.479	0.148248	-439.03727	-439.02939	-439.028446	-439.069297	31.65	
O	-0.0748765579	 1.2498593906	-0.0144723212	-0.395054
N	-0.0050703203	-0.1544467086	 0.0213390635	-0.311416
C	-1.1512598585	-0.6915909311	 0.0269080093	 0.41592
C	-2.5725890699	-0.1665652213	 0.0038682267	-0.315925
C	-3.2769748262	-1.5473816604	 0.0336826164	-0.041571
C	-2.4563889877	-2.3603455003	-1.0094337332	-0.281715
C	-1.3221823688	-2.1876539535	 0.063194237	 0.363077
O	-0.1819460955	-2.9620074065	 0.0904527102	-0.491844
C	-2.471089919	-2.3067600673	 1.1274263287	-0.281717
H	 0.8544518738	 1.5033314865	-0.0144636574	 0.30653
H	-2.7943917106	 0.4615455486	 0.8724140616	 0.12563
H	-2.7821267336	 0.4170674365	-0.8981077293	 0.125635
H	-4.364417161	-1.5511945043	 0.0262914601	 0.07513
H	-2.775832714	-3.4017857676	-1.0817523912	 0.109539
H	-2.2989581352	-1.9322284808	-2.0032341988	 0.098323
H	 0.5710545989	-2.3551218902	 0.0804580619	 0.291599
H	-2.3271963888	-1.8293146997	 2.1005903667	 0.098323
H	-2.7918328858	-3.3433839706	 1.2474493489	 0.109537
