23
gdb 63136	2.29878	1.93125	1.54723	0.2287	88.35	-0.2306	0.0243	0.2549	1019.1413	0.207932	-351.170428	-351.162336	-351.161391	-351.20207	34.217	
C	-0.0853517798	 1.5242217777	 0.004273053	-0.455512
C	 0.0082523995	-0.0097208718	 0.0059575389	 0.333635
C	-1.4186082845	-0.5484939453	-0.1797121221	-0.449991
C	 1.0539245683	-0.6066185537	-0.9981040197	-0.07723
C	 2.3921934323	 0.0179247251	-0.4761625511	-0.213488
C	 2.194707824	 0.0075677686	 1.0715569539	-0.213484
C	 0.7693071739	-0.6215364185	 1.2324735468	-0.077229
C	 0.9342150311	-2.0649287584	 0.7839405985	-0.083005
C	 1.1033592463	-2.0560639977	-0.5415615759	-0.083005
H	 0.8710519852	 2.0323330139	 0.1295876921	 0.114177
H	-0.5227434997	 1.8743193589	-0.9377963672	 0.110486
H	-0.7456814668	 1.8626382924	 0.8110038271	 0.110487
H	-1.8456825096	-0.181921204	-1.1203442217	 0.104853
H	-1.4576461594	-1.6376457854	-0.1918995849	 0.118748
H	-2.068844758	-0.1934869003	 0.6281978353	 0.104852
H	 0.8614577949	-0.4393421403	-2.0598786614	 0.050692
H	 3.2540179669	-0.5733687201	-0.7938626377	 0.094626
H	 2.5357712812	 1.0317098074	-0.85975813	 0.094766
H	 2.9501471054	-0.5892922624	 1.5876696908	 0.094627
H	 2.2356478382	 1.0159753243	 1.492221079	 0.094764
H	 0.3161161863	-0.4679210485	 2.2140082657	 0.050692
H	 1.0035703667	-2.9134403069	 1.4537909704	 0.08777
H	 1.3401231176	-2.8958030252	-1.1836384198	 0.087771
