20
gdb 116712	4.03042	0.87641	0.786	2.8726	83.04	-0.2388	0.0247	0.2635	1505.7762	0.17038	-403.106962	-403.097861	-403.096917	-403.141839	33.028	
C	 0.3982863923	 0.8832726309	-0.4183700257	-0.248537
O	-0.2016338066	 0.0894630463	 0.5964623764	-0.193257
C	 0.5888506073	-0.8665431161	 1.1287025902	 0.133075
N	 0.1334787745	-1.660431389	 1.9912579094	-0.243142
C	 1.0189534664	-2.6435769459	 2.5700210585	 0.047952
C	 0.5666422968	-4.1430730326	 2.4886141468	-0.24389
C	 1.9538648446	-4.5026867306	 1.943654354	-0.041416
C	 2.1929406065	-3.7840465949	 0.6500984607	-0.276003
C	 2.3753126804	-3.0301750669	 1.943918107	-0.087078
H	 0.6511917328	 0.2842345705	-1.3019973886	 0.125656
H	-0.3401245728	 1.6358119778	-0.6979057056	 0.144598
H	 1.3025597483	 1.387410246	-0.0551832945	 0.124595
H	 1.6201441436	-0.8693224824	 0.7481675358	 0.081728
H	 1.1596086415	-2.3785924125	 3.6235808507	 0.088647
H	 0.3386570038	-4.5683852405	 3.4678415116	 0.101936
H	-0.2702061422	-4.3395229441	 1.8122755278	 0.10268
H	 2.5423763218	-5.3617685263	 2.2406687935	 0.085421
H	 3.1144939873	-4.0335688185	 0.1336718106	 0.10805
H	 1.3583254258	-3.5623416851	-0.0105792013	 0.109339
H	 3.3344010278	-2.6041249763	 2.2154489926	 0.079644
