17
gdb 24685	3.67087	1.55589	1.11068	1.4899	82.31	-0.2075	0.0006	0.2081	1058.59	0.140003	-384.771147	-384.764441	-384.763496	-384.802325	26.833	
C	 0.0197549726	 1.3903778662	-0.0996649472	-0.093638
C	 1.5021050097	 1.8219958139	 0.0165763731	-0.355543
C	 2.118078272	 0.5959722446	 0.6505536907	 0.2126
C	 3.3775735139	 0.350088551	 1.1725095296	-0.248344
C	 3.6747088756	-0.9285511906	 1.6558143174	-0.116256
C	 2.7158539975	-1.9391985231	 1.6037972288	-0.093951
C	 1.4426112909	-1.7045937573	 1.0791049167	-0.258612
C	 1.1699594073	-0.4273505893	 0.6119371356	 0.381285
O	-0.0181918468	-0.0453768504	 0.0664764744	-0.282792
H	-0.5908190805	 1.839664581	 0.6928963058	 0.113391
H	-0.433148418	 1.6253722506	-1.0651183521	 0.118995
H	 1.9422699455	 2.0259757728	-0.9670925999	 0.122378
H	 1.6142964798	 2.7295389162	 0.616502446	 0.119955
H	 4.1255288779	 1.1362567875	 1.2067685646	 0.0924
H	 4.6547609729	-1.133743743	 2.0718939816	 0.090206
H	 2.9573176832	-2.92757992	 1.9811467075	 0.095155
H	 0.6888829567	-2.4817800601	 1.0383766874	 0.102773
