16
gdb 68002	3.02008	1.85921	1.36634	4.9937	67.54	-0.254	0.009	0.2629	934.4435	0.125152	-437.874001	-437.867057	-437.866113	-437.905158	27.491	
C	 0.0017837061	 1.4258824861	-0.0730693292	-0.480643
C	-0.022665833	-0.0667570763	 0.0447661615	 0.431571
O	 0.0230538967	-0.7366326725	-1.2113118478	-0.261895
C	-0.5008248958	-1.9942249342	-1.0322143206	 0.42933
O	-0.6341066603	-2.779795201	-1.9146277324	-0.33182
N	-0.7571601902	-2.2082435715	 0.3806084104	-0.220389
C	 0.6509377385	-2.2687475267	 0.9926058778	-0.206671
C	 0.5948200905	-0.7744131821	 1.254312946	-0.148982
C	-0.9014729911	-0.8331965075	 0.9560777872	-0.110293
H	 0.9481216673	 1.7689620306	-0.5013856567	 0.142884
H	-0.8129048812	 1.7717450052	-0.7157061293	 0.142232
H	-0.1135117331	 1.8845139449	 0.9130573185	 0.130494
H	 0.6072303769	-2.8672388966	 1.9040483696	 0.134209
H	 1.4239886374	-2.6649477472	 0.3264231405	 0.135591
H	 1.1233230203	-0.2203905038	 2.0207460632	 0.102784
H	-1.793419699	-0.5206526674	 1.4840980913	 0.111597
