11
gdb 132039	2.38193	1.84906	1.04097	4.187	56.74	-0.2569	-0.0519	0.205	989.7019	0.064644	-541.776407	-541.76957	-541.768625	-541.807971	25.17	
F	 0.0904093581	 0.0497258887	 0.0023812491	-0.014733
C	-0.0393748153	 1.3517350201	 0.010894177	 0.277342
C	-1.2224367438	 1.9971960377	 0.0306201379	-0.085828
F	-2.351813294	 1.3036410605	 0.0426311416	-0.037038
C	-1.2838384915	 3.4624197173	 0.039191929	 0.304915
O	-2.3283738365	 4.0886145372	 0.056340347	-0.363353
C	 0.0566788255	 4.066819588	 0.0234049199	-0.267917
C	 1.1682703761	 3.3201013932	 0.0041763107	 0.076482
O	 1.1519850277	 1.9586174572	-0.002498721	-0.194169
H	 0.1295627132	 5.1469940532	 0.0277663167	 0.141903
H	 2.1846559004	 3.6885228169	-0.0081411878	 0.162396
