23
gdb 94728	2.61887	1.46323	1.23145	1.7145	84.66	-0.2414	0.0781	0.3196	1161.8922	0.206721	-388.302995	-388.294171	-388.293227	-388.335913	34.827	
C	 0.1342959986	 1.6031248978	-0.0049689027	-0.409056
C	 0.0976759479	 0.0766685419	-0.0516765454	 0.024646
C	 0.9285672343	-0.565136185	-1.1839167647	-0.228125
C	 1.0826026634	-2.0347591265	-0.7482951698	-0.276454
C	 1.2257139372	-1.9901633234	 0.7867188791	 0.294062
C	 0.7461113493	-3.2415970526	 1.5031958764	-0.486886
C	 2.5695776749	-1.3951285029	 1.2728566885	-0.111836
O	 1.9657611267	-0.1202638745	 1.5690135157	-0.301
C	 0.6482764887	-0.6026848638	 1.2051336412	 0.094515
H	 1.151903945	 1.9491848245	 0.1968159895	 0.134128
H	-0.1958573967	 2.0351602432	-0.9552798283	 0.108087
H	-0.5168135155	 1.9950538024	 0.7837906724	 0.109446
H	-0.9447794856	-0.2598509614	-0.1575391982	 0.065436
H	 0.4603229392	-0.4583432706	-2.1665273211	 0.091949
H	 1.9083835932	-0.07581927	-1.2365435784	 0.107994
H	 0.1781122102	-2.5981795544	-1.0102450003	 0.093714
H	 1.9255831055	-2.5423626623	-1.2293599726	 0.09381
H	 1.3319401249	-4.1178669578	 1.2010212371	 0.11682
H	 0.8357037182	-3.1412856927	 2.5899982306	 0.117674
H	-0.3036489938	-3.452576019	 1.2701309295	 0.115055
H	 2.9840045673	-1.8665009694	 2.1742037393	 0.092502
H	 3.3644913044	-1.3106714259	 0.520031928	 0.094146
H	-0.0348092372	-0.5662019475	 2.0628001642	 0.059372
