16
gdb 125094	2.65635	1.56728	0.99342	10.0073	78.16	-0.2275	-0.0461	0.1814	1132.5903	0.12528	-430.257444	-430.248717	-430.247773	-430.2906	32.316	
C	 0.8892958139	 1.4161905983	 0.0540615345	-0.534007
C	 0.3216968138	 0.0365160371	-0.0424792957	 0.208229
C	-0.1260329882	-0.7045082473	-1.1616743476	 0.275006
N	-0.5532320574	-1.924671858	-0.6895707595	-0.302408
N	-0.3821222489	-1.9230609555	 0.595052356	-0.135762
N	 0.1538404035	-0.7331801799	 1.0221362131	-0.266538
C	-0.2197100147	-0.4415238204	-2.5350004264	 0.316676
N	 0.2789400149	 0.6772039865	-3.1031088048	-0.55912
N	-0.8316296971	-1.344509678	-3.322882029	-0.524475
H	-0.6698894095	-1.3641142113	-4.3157681172	 0.266133
H	-1.0796454511	-2.2056311176	-2.8498446259	 0.298581
H	 1.8416899	 1.5103635986	-0.4850069317	 0.123704
H	 0.2012407184	 2.1746742943	-0.3434369542	 0.119464
H	 1.078123126	 1.6561108475	 1.1022507734	 0.157515
H	 0.6365124007	 1.4016010464	-2.5041335681	 0.285483
H	-0.0166207742	 0.954251279	-4.0243860669	 0.271521
