19
gdb 124506	4.08888	0.91509	0.89365	2.4818	78.19	-0.2143	0.0312	0.2455	1391.0361	0.159837	-419.242643	-419.233412	-419.232468	-419.277188	34.383	
C	 0.1946753381	 1.4996703876	 0.1077766108	-0.382978
C	-0.0607322205	-0.0140987811	-0.020942088	-0.088784
C	-1.5687977808	-0.3228565951	-0.0817799393	-0.383002
C	 0.6792213382	-0.6087859682	-1.1867701769	 0.429585
C	 1.6752193976	-1.5669023018	-1.2343512407	-0.436378
C	 1.9656215164	-1.705162998	-2.6093753895	 0.435323
O	 2.8857537882	-2.5402067078	-3.1368139714	-0.431418
N	 1.2279852462	-0.9129085438	-3.3711803085	-0.340123
N	 0.4464706172	-0.250133419	-2.4746464222	-0.275694
H	 1.264309926	 1.7148064574	 0.1796472351	 0.127755
H	-0.1984320727	 2.0454567083	-0.757480063	 0.108394
H	-0.2986347557	 1.8982529324	 0.9999858224	 0.116309
H	 0.3453448522	-0.5000581575	 0.8734351793	 0.094257
H	-2.0369089611	 0.1455512987	-0.9550190171	 0.108383
H	-1.7491069742	-1.3994904741	-0.1443518863	 0.127756
H	-2.0760612379	 0.0612237946	 0.8089646109	 0.116318
H	 2.1251860331	-2.0878678758	-0.4060336303	 0.105609
H	 2.8602778101	-2.4163150991	-4.0939449387	 0.300786
H	-0.2137775603	 0.4238388723	-2.8189214366	 0.267902
