18
gdb 125228	4.44309	0.99046	0.87002	3.0567	80.15	-0.2444	0.0005	0.2449	1361.4804	0.147801	-401.945607	-401.937233	-401.936289	-401.979274	30.923	
C	 0.0845986162	 1.4979179561	-0.1021467966	-0.491368
C	-0.0342586589	 0.0148558238	-0.0984285147	 0.446485
C	-1.0507981609	-0.8427568686	-0.3777910945	-0.447324
C	-0.4814345957	-2.1370808238	-0.1744502006	 0.418938
N	 0.7761724311	-2.0492016617	 0.1968609546	-0.226815
O	 1.0626518851	-0.6821210598	 0.2458585229	-0.214726
C	-1.1032397866	-3.4646266969	-0.3240834988	-0.089086
C	-2.561193601	-3.6752604329	 0.0336094542	-0.268296
C	-2.1365524747	-3.712153623	-1.405174141	-0.268374
H	 0.3574327426	 1.8713832775	 0.8903290504	 0.150734
H	 0.8602024007	 1.8270057882	-0.8014130196	 0.150733
H	-0.8636119444	 1.9520275883	-0.3956482916	 0.139347
H	-2.0532591771	-0.5909058883	-0.6822555234	 0.112934
H	-0.4230186666	-4.2788814745	-0.1023525846	 0.105165
H	-2.8260679122	-4.6060198293	 0.5222081208	 0.121512
H	-3.1196167127	-2.8134932953	 0.3822421889	 0.119332
H	-2.4044198794	-2.8756385418	-2.0411850574	 0.119314
H	-2.1068724256	-4.668502198	-1.9147967388	 0.121496
