20
gdb 91032	2.07508	1.93459	1.58863	3.1734	77.71	-0.2251	0.0681	0.2932	986.8123	0.171872	-403.083585	-403.075765	-403.074821	-403.115245	32.203	
C	-0.0520668228	 1.5389414324	-0.0140395739	-0.507472
C	 0.0133425373	 0.0293224415	 0.0111713484	 0.343601
C	-1.3134141957	-0.681712597	 0.3776684761	-0.111667
N	-1.1083088169	-2.1496771364	 0.2627814028	-0.360132
C	-0.648393383	-1.4320584186	 1.4805989973	-0.055748
C	 0.7132018792	-0.7730079863	 1.1649850469	-0.086167
C	 1.6333994213	-1.4864152207	 0.1394899463	-0.275885
C	 0.9360822286	-0.7084060533	-1.0327906194	 0.083082
O	 0.3315090599	-1.4442791583	-2.0558325542	-0.439872
H	 0.9516529152	 1.9767684472	-0.0395984898	 0.11711
H	-0.5920629045	 1.8911030378	-0.9016666086	 0.124125
H	-0.5667102966	 1.9367268769	 0.868793358	 0.112563
H	-2.3129846438	-0.2681722845	 0.3025648974	 0.091633
H	-1.9928548008	-2.5996499528	 0.4922571118	 0.235431
H	-1.0259206069	-1.738605518	 2.448925208	 0.094209
H	 1.1692928283	-0.2491497423	 2.0053262359	 0.067041
H	 2.6924577947	-1.244404986	 0.259634232	 0.094705
H	 1.5199015232	-2.5704547497	 0.0801135347	 0.105962
H	 1.616017308	-0.0014782165	-1.5195232597	 0.076481
H	-0.2446740245	-2.0748417455	-1.5964810999	 0.290999
