18
gdb 32085	2.80065	1.28264	0.93564	1.0421	82.65	-0.228	-0.018	0.21	1264.8048	0.149533	-402.033884	-402.025732	-402.024787	-402.067137	31.087	
C	 0.0283312952	 1.518108585	-0.1472713867	-0.367277
C	-0.0164773821	 0.0022996549	 0.1039588867	-0.265508
C	-1.4180106865	-0.5529839316	 0.0265845425	 0.329573
C	-1.8237062129	-1.4005123635	-1.000260769	-0.198257
C	-3.1426900909	-1.8589638556	-1.0126410178	-0.054563
C	-4.0155779954	-1.4673414496	-0.0133272698	-0.222652
C	-3.5088248766	-0.6134880564	 0.9731081662	 0.430479
O	-4.3311320742	-0.2113536111	 1.9662218478	-0.419444
N	-2.2611065674	-0.1680035184	 1.0012869086	-0.408602
H	 1.0475471926	 1.9010993041	-0.039151437	 0.111405
H	-0.3206461918	 1.7603026441	-1.1563387224	 0.116033
H	-0.6150659393	 2.0390223579	 0.5666955115	 0.132596
H	 0.622855612	-0.5178203278	-0.6168810945	 0.09868
H	 0.384278778	-0.2071639633	 1.1025365393	 0.114858
H	-1.1234772772	-1.6964084031	-1.7724752121	 0.092654
H	-3.4832987645	-2.5215716224	-1.801920266	 0.106655
H	-5.0468957267	-1.7934950219	 0.0264996913	 0.108756
H	-3.7962011223	 0.3619525686	 2.5329388813	 0.294613
