14
gdb 3396	4.91914	2.42132	2.20833	2.709	58.76	-0.259	0.0189	0.2779	653.6273	0.113668	-324.548021	-324.541788	-324.540844	-324.577947	23.514	
C	 0.0091496278	 1.5601169587	 0.0487234693	-0.416604
C	 0.0881153662	 0.0513191264	 0.0708161701	-0.028066
C	 1.3329186562	-0.7333996408	-0.1483565798	 0.070259
O	 2.4822592485	-0.0214722665	 0.3833441607	-0.272464
C	 1.9551211386	-0.1384858658	 1.6735587724	 0.451743
N	 2.4600455446	 0.1589891657	 2.780440065	-0.554223
C	 0.6855650658	-0.7799441062	 1.2211102005	-0.223024
H	 0.9437160353	 2.0105343085	 0.3886675446	 0.143827
H	-0.1867842791	 1.9165077133	-0.9679708876	 0.122939
H	-0.7993530545	 1.9163825928	 0.6941029647	 0.127883
H	-0.7867759669	-0.4558109766	-0.3342815357	 0.1036
H	 1.5308414166	-1.5015214	-0.8836545266	 0.122314
H	 3.3937348959	 0.556772128	 2.6650748989	 0.230381
H	 0.141735185	-1.5572559775	 1.7370442635	 0.121434
