15
gdb 43197	2.57313	1.76566	1.24155	2.1033	65.95	-0.2495	-0.0541	0.1954	984.4626	0.111672	-457.705439	-457.698032	-457.697088	-457.737805	27.379	
O	-0.0251856621	 0.070415233	-0.6572097805	-0.293947
C	-0.0657924294	 1.1938635256	-0.2526376462	 0.337178
C	-1.2044198339	 2.1778268198	 0.0943359491	-0.22313
C	-1.4765515391	 2.3518271804	 1.6091627898	-0.089575
O	-0.4402755346	 3.3534460333	 1.7387669218	-0.280139
C	-0.1294163058	 3.2854972177	 0.3336574886	-0.019657
C	 0.9863543885	 2.2699515599	 0.0326806099	 0.327754
C	 2.3265349671	 2.1445539445	 0.6197276085	-0.240011
O	 2.1423437192	 2.4973669698	-0.7500563335	-0.25688
H	-2.0422912402	 2.2394759403	-0.5973753	 0.115106
H	-2.462769137	 2.7735858349	 1.8308878185	 0.121772
H	-1.3042673484	 1.4773146712	 2.2460514859	 0.121493
H	-0.0877902749	 4.2562830234	-0.162297893	 0.10319
H	 2.6832813949	 2.9404760512	 1.2707486619	 0.138044
H	 2.7355784557	 1.151459195	 0.7950043593	 0.138802
