19
gdb 72094	2.92631	1.71055	1.5706	2.2873	73.33	-0.23	0.0868	0.3169	949.7975	0.161701	-423.030602	-423.023432	-423.022488	-423.061868	29.096	
C	-0.0489513374	 1.5182687801	 0.0154096695	-0.494266
C	 0.0048676747	 0.0129348755	 0.0251766435	 0.274635
C	 1.1659426097	-0.7294446071	-0.6237091539	-0.304748
C	 0.9417505696	-2.1478693354	-0.0673237023	 0.169552
O	 0.5469170449	-1.9494941966	 1.2837303355	-0.254083
C	-0.3212596454	-0.8356844139	 1.2310428926	 0.064075
C	-1.2631651373	-0.8362600327	 0.0547274565	-0.164807
C	-1.317900556	-2.1026645135	-0.7826403512	-0.089618
O	-0.0712979554	-2.8086308793	-0.7869000488	-0.265331
H	 0.8774405008	 1.9478759519	 0.4144250494	 0.120042
H	-0.186447557	 1.9090953627	-0.9996286374	 0.12047
H	-0.8787044083	 1.8906149243	 0.6253023137	 0.116237
H	 1.1505957583	-0.7343619549	-1.7168129849	 0.109683
H	 2.122749558	-0.3171906355	-0.2842542142	 0.104598
H	 1.8079987671	-2.8091611071	-0.0789505487	 0.093265
H	-0.5834995124	-0.4524815177	 2.2093975836	 0.100239
H	-2.2075111898	-0.3097905534	 0.1578992736	 0.087681
H	-2.0836870605	-2.7816840316	-0.3855412315	 0.111461
H	-1.5928155035	-1.8685171858	-1.8211483949	 0.100915
