23
gdb 59338	2.76126	1.08347	0.84876	2.524	86.85	-0.2329	-0.0154	0.2175	1463.1351	0.203491	-388.317567	-388.307161	-388.306217	-388.353067	38.333	
C	-0.1514393403	 1.6107563062	-0.0113582296	-0.391398
C	-0.0106426018	 0.0843826692	 0.0618650823	 0.021094
C	-1.376647764	-0.5999640925	 0.2130900242	-0.397557
C	 0.7362832734	-0.4599073776	-1.1595116006	-0.077918
C	 2.225655573	-0.0633925127	-1.4262974511	-0.282607
C	 2.577967885	-1.5477306585	-1.7643652362	-0.079964
C	 3.8344037292	-2.1995964207	-1.2047784037	-0.406214
C	 1.2253696807	-1.920451186	-1.1357097319	 0.375016
O	 0.7973618558	-2.9322775613	-0.6532327838	-0.312073
H	 0.821929445	 2.1057629494	-0.0895143524	 0.113523
H	-0.7479671604	 1.9064666089	-0.8827649144	 0.111134
H	-0.6539002974	 1.9981269491	 0.881189335	 0.113115
H	 0.5908860736	-0.1598904316	 0.9494099094	 0.072776
H	-2.022325891	-0.3712622984	-0.6437385089	 0.10628
H	-1.2650567627	-1.68500927	 0.2737941121	 0.14586
H	-1.8885253511	-0.2499582151	 1.1155805735	 0.106653
H	 0.1331432533	-0.298257482	-2.0642786129	 0.093858
H	 2.4061540649	 0.6737253934	-2.2096378264	 0.105416
H	 2.7230599585	 0.2646531201	-0.508149023	 0.108394
H	 2.5134249441	-1.7092768527	-2.8484724619	 0.101342
H	 3.9144156693	-2.0348592015	-0.1252835731	 0.120101
H	 3.8143370367	-3.2801356546	-1.3751039413	 0.134768
H	 4.7354043763	-1.7954253212	-1.6769048054	 0.118401
