14
gdb 73743	2.16356	1.80235	0.98962	7.0167	75.52	-0.2211	-0.0287	0.1923	1109.0585	0.100385	-436.713012	-436.70465	-436.703706	-436.74584	30.978	
N	 0.0281256993	 1.3141140998	 0.0950029158	-0.603571
C	-0.021262867	-0.0319996724	 0.0262805915	 0.2406
C	-1.11166956	-0.8451635399	 0.010002379	-0.076252
C	-2.4590492012	-0.4350692117	 0.01895934	 0.198212
C	-3.5959163621	-0.0339932244	 0.0240650337	-0.412762
C	-0.6433132389	-2.2425551871	-0.0241843003	 0.376002
O	-1.2525172999	-3.270553903	-0.0490756843	-0.341623
O	 0.747439016	-2.2231516015	-0.0293259234	-0.239823
C	 1.2165261597	-0.8882135255	 0.0064919254	-0.15045
H	 0.8815812656	 1.8043810922	-0.1108145121	 0.269167
H	-0.8316375498	 1.8283693868	-0.0179071746	 0.277104
H	-4.6080805555	 0.2861938746	 0.0326033557	 0.191524
H	 1.8393905305	-0.6898756482	-0.8763511816	 0.132447
H	 1.8327132231	-0.7330369097	 0.9017748451	 0.139426
