14
gdb 27226	3.50222	1.62018	1.11143	3.5828	70.83	-0.1753	0.016	0.1914	995.7664	0.103899	-432.896974	-432.889779	-432.888835	-432.928218	27.95	
O	-0.0392075968	 1.3943090034	 0.1176597752	-0.430526
C	 0.0301354061	 0.0394381424	-0.039726437	 0.160829
C	 0.0169382849	-0.7944505882	-1.1308473468	 0.233262
N	 0.0268206114	-0.8884897986	-2.5121888974	-0.45097
C	 0.0119145205	-2.2453843384	-2.7943163228	 0.003556
N	 0.0240991947	-3.0259760493	-1.7496948587	-0.353689
C	 0.0263790088	-2.1468190382	-0.6716075491	 0.270679
C	 0.0327954141	-2.1311092875	 0.7096403683	-0.228182
N	 0.0388979482	-0.7966209126	 1.063713762	-0.277872
H	 0.8459966415	 1.771537042	 0.0488900888	 0.30147
H	-0.0790885005	-0.1468213218	-3.1808172758	 0.261734
H	-0.0005134045	-2.5879669483	-3.8204040615	 0.124401
H	 0.0321261866	-2.9100474725	 1.4522018389	 0.123126
H	-0.013308285	-0.4456559025	 2.0047003859	 0.262182
