17
gdb 23522	2.80664	1.29876	1.04363	1.6037	73.86	-0.2387	0.009	0.2477	1159.5775	0.134575	-455.008826	-455.000444	-454.9995	-455.041589	32.292	
C	 0.0741543589	 1.4288650986	-0.1404140775	-0.336481
N	 0.0367658971	-0.0200062134	 0.0585358467	-0.145936
C	-1.1442200753	-0.6005287181	 0.8543409548	-0.177995
C	-0.2067035321	-1.846307602	 1.0654123884	 0.204119
O	 0.0949863885	-2.6350366519	-0.0289812427	-0.449345
C	 0.6785955002	-0.5760953844	 1.341375625	-0.170775
C	-0.5016489024	-0.0165473025	 2.1017911719	 0.495611
N	-0.6929473724	 0.7038332428	 3.1185357585	-0.311534
O	-2.0628633837	 1.0252477006	 3.2639847588	-0.401185
H	 1.0705525924	 1.7030969052	-0.5003451612	 0.127573
H	-0.6490983277	 1.6916592758	-0.918354119	 0.128443
H	-0.1479942071	 2.0168577293	 0.7616030949	 0.127965
H	-2.1690831608	-0.5502094047	 0.4937113078	 0.104936
H	-0.4259237634	-2.4816678014	 1.9226714083	 0.109134
H	 0.2751809189	-2.0035171793	-0.7431297107	 0.288222
H	 1.746460396	-0.498160265	 1.5372534167	 0.099987
H	-2.0573336772	 1.5515990007	 4.0706975092	 0.307261
