21
gdb 100994	2.67022	1.0354	1.00168	2.8942	73.8	-0.2502	0.0481	0.2983	1317.3022	0.180914	-461.330061	-461.320085	-461.319141	-461.365273	36.651	
C	-0.0149320754	 1.6513185597	 0.1298088039	-0.494568
C	 0.0108491561	 0.1300495825	 0.0023135094	 0.272093
C	 1.0205096012	-0.45078386	-1.0244540227	-0.115522
O	 1.6747573547	-1.2353333698	-0.0117487114	-0.273155
C	 0.895549677	-0.6180182873	 1.033437152	-0.114199
C	-1.3774887592	-0.5161162965	-0.1124170298	 0.041646
O	-2.1384792104	-0.3785507486	 1.0949086961	-0.451118
C	-2.2346435476	-0.0471302757	-1.2911389054	-0.080217
O	-3.4528001985	-0.7596169458	-1.3298117248	-0.421556
H	 0.9980070529	 2.0394881197	 0.2724041272	 0.128871
H	-0.430402486	 2.1327109062	-0.7610998436	 0.129423
H	-0.6042062245	 1.97927969	 0.9948905331	 0.110244
H	 0.6058130464	-1.075648512	-1.8253653974	 0.104298
H	 1.6932208079	 0.2950825947	-1.469678159	 0.094582
H	 1.5080994668	 0.0360843349	 1.6687427688	 0.091554
H	 0.3823787966	-1.3525177231	 1.6629967162	 0.116037
H	-1.2407658981	-1.5991510227	-0.2158099117	 0.106014
H	-2.2744010469	 0.5627748029	 1.2548264009	 0.283442
H	-2.4131346681	 1.0399334259	-1.2127605047	 0.076305
H	-1.7202408062	-0.2250045365	-2.241940817	 0.110275
H	-3.7434068886	-0.8222209785	-0.4105974003	 0.285549
