15
gdb 45673	3.23247	1.69736	1.12841	2.9351	74.1	-0.2197	-0.0268	0.1929	1007.141	0.115128	-416.862952	-416.856146	-416.855202	-416.894308	26.162	
O	 0.0136785214	-0.0279673524	 0.0027843489	-0.353613
C	-0.0336708329	 1.1761412212	 0.0096710481	 0.401725
C	-1.2601667055	 2.1127396811	 0.0326940912	-0.391771
C	-0.6749034927	 3.5106686466	 0.0309235969	-0.304237
C	 0.6551517783	 3.4034838781	 0.0104354473	 0.379286
C	 1.953693068	 4.1769589901	-0.005246287	-0.291586
N	 3.0185692189	 3.1416906654	-0.0265063625	-0.25872
C	 2.4436489238	 2.0016478202	-0.0235820441	 0.069496
N	 1.0546863312	 2.0489548437	-0.0023234108	-0.124983
H	-1.893339643	 1.897654924	-0.8363937828	 0.151869
H	-1.8670516073	 1.8888831321	 0.9181681073	 0.151859
H	-1.2553659526	 4.4203111187	 0.0441588954	 0.115277
H	 2.0541199126	 4.8251022007	-0.8831500242	 0.145185
H	 2.0806381861	 4.816253959	 0.8757056629	 0.145183
H	 2.9525472037	 1.0456882715	-0.0360432767	 0.165031
