17
gdb 43091	3.28326	1.70848	1.62118	3.684	70.78	-0.2264	-0.0209	0.2055	885.7217	0.139166	-421.84085	-421.834632	-421.833687	-421.871304	25.965	
O	 0.0100526268	 0.0175280414	-0.0198635987	-0.319071
C	-0.0105104929	 1.2125438473	 0.0333344128	 0.440723
C	-1.1106356223	 2.2774375184	-0.0026896993	-0.174845
C	-1.2052473783	 2.9384502671	 1.4108723318	-0.23864
C	 0.0708411688	 3.7994481105	 1.4153732001	 0.094336
C	-0.0024463477	 4.5183465046	 0.061726182	-0.234351
C	-0.0518082447	 3.2131086937	-0.7278570448	-0.068353
C	 1.0531493721	 2.3254258275	-0.0472975616	-0.025761
O	 1.2018649622	 2.9248074182	 1.2551979612	-0.282071
H	-2.067240152	 2.0324320776	-0.4633427232	 0.089908
H	-2.1026540687	 3.5601504561	 1.4962536175	 0.1079
H	-1.2187905109	 2.2034125602	 2.2190196311	 0.124226
H	 0.237129349	 4.4031540917	 2.3072061889	 0.085885
H	-0.8978963631	 5.1341603168	-0.0542243105	 0.106431
H	 0.8881542778	 5.1170764532	-0.1433621542	 0.113072
H	-0.0669345595	 3.2322653694	-1.8147723505	 0.088289
H	 2.0353610733	 2.1418652663	-0.4847496525	 0.092324
