20
gdb 42401	3.43842	0.93033	0.84446	2.2709	81.35	-0.2384	-0.0129	0.2255	1447.8416	0.170179	-403.119257	-403.110117	-403.109173	-403.154699	33.25	
O	-0.4605089352	 1.3504849105	-2.0649399931	-0.336079
C	-0.0522491351	 1.6114773341	-0.9513886001	 0.364062
C	 1.3506331713	 2.1971182671	-0.767170753	-0.256302
N	 1.994706782	 1.7516015112	 0.4600805976	-0.064994
C	 2.8075389926	 0.5413982247	 0.3585188551	-0.22029
C	 3.4471991239	 1.8776817538	 0.5076003602	-0.218319
C	-0.8846634268	 1.429713694	 0.2676779602	-0.093835
C	-2.3829288314	 1.6695097648	 0.1195404789	-0.252306
C	-1.8804297856	 0.276363043	 0.2592210038	-0.248612
H	 1.9239351072	 1.9705135054	-1.6800982037	 0.106859
H	 1.2376922173	 3.2896967798	-0.7141585301	 0.127508
H	 2.7477189814	-0.1394288519	 1.2023486562	 0.120961
H	 2.8822050411	 0.0592385854	-0.6146908508	 0.120759
H	 3.9517142127	 2.2872892058	-0.3657932408	 0.114367
H	 3.862407385	 2.1887192379	 1.4618764214	 0.121026
H	-0.4136178289	 1.6855793049	 1.2071042753	 0.109448
H	-2.8895818511	 2.1342961035	 0.9575260894	 0.116976
H	-2.7116242859	 1.9852157135	-0.8639551474	 0.136013
H	-1.8705361505	-0.3413298325	-0.6315181966	 0.135774
H	-2.0312735539	-0.248331895	 1.1955378575	 0.116985
