15
gdb 71083	2.6526	1.56124	1.34029	1.5069	66.1	-0.2398	0.0009	0.2407	977.0136	0.11111	-457.713948	-457.706227	-457.705283	-457.745819	30.15	
O	-0.1823770118	 1.2872397637	-0.07198117	-0.456871
C	-0.0067701258	-0.0708774232	-0.0673095295	 0.35076
C	 0.9870093282	-0.9013114903	-0.8786724814	-0.298629
C	 0.0974891767	-2.126254241	-0.487591406	-0.269164
C	 0.3019496581	-2.2396890233	 1.0443350069	 0.443559
O	 0.6648447002	-3.1226175258	 1.7704467257	-0.340858
C	-0.3373818026	-0.9067439394	 1.2345521346	-0.368625
C	-1.0659882754	-1.0969418202	-0.1351335391	 0.3473
O	-2.3842769348	-1.0219262254	-0.4569926969	-0.4421
H	 0.5276508415	 1.6936576862	 0.4383981479	 0.294199
H	 0.9258807696	-0.6683691862	-1.9452140502	 0.120609
H	 2.0320778784	-0.9293984111	-0.550216354	 0.105415
H	 0.0215795886	-3.0006277709	-1.1276141877	 0.099724
H	-0.7024553173	-0.3940928612	 2.1146248714	 0.112582
H	-2.8703106936	-1.6930188619	 0.0368745984	 0.3021
