17
gdb 3566	4.98019	2.80404	2.60945	0.243	66.22	-0.2325	0.0846	0.3171	620.5174	0.150727	-272.526778	-272.521262	-272.520318	-272.555607	23.181	
C	 0.0150908384	 1.4682566076	-0.0652669999	-0.286936
C	 1.3339585865	 0.757447602	 0.0471940603	-0.053902
C	 0.0134280661	-0.0293027204	 0.0556483857	-0.053901
C	 0.4132088643	-0.7328841567	-1.2626070133	-0.008263
C	 0.0154894498	-0.0893850106	-2.6261833716	-0.240459
C	 1.3604791688	 0.7119308897	-2.6347930379	-0.240459
C	 1.7499197522	 0.0635009047	-1.2711626725	-0.008263
H	-0.2913750588	 1.9923212924	 0.8350029619	 0.108107
H	-0.2900636668	 1.9706389321	-0.9777900651	 0.109631
H	 2.0106708434	 0.9646849096	 0.8682148146	 0.079654
H	-0.4831802554	-0.5211116012	 0.8841808565	 0.079653
H	 0.4110442647	-1.8216631827	-1.2054436366	 0.062938
H	-0.059217659	-0.8157676684	-3.4392578658	 0.096
H	-0.9008722681	 0.5070630251	-2.6211028956	 0.098629
H	 2.0271277793	 0.4272387606	-3.4526149221	 0.096
H	 1.2722268157	 1.8017503111	-2.6350072692	 0.098629
H	 2.708943599	-0.4526220949	-1.2201493693	 0.062939
