15
gdb 98946	4.38945	0.81463	0.69007	4.9926	72.95	-0.2667	-0.0662	0.2005	1524.42	0.110805	-453.936862	-453.927567	-453.926623	-453.971676	32.863	
O	 0.1814585981	 1.4768130444	-0.0467261598	-0.416541
C	 0.0453077361	 0.0916700565	-0.0466616713	-0.117317
C	-1.4201526078	-0.3157163036	-0.0346785307	 0.38008
N	-2.2993196603	 0.5960184351	-0.0264636038	-0.527467
N	-1.623667224	-1.7031631746	-0.0338867453	-0.38926
C	-2.8447708554	-2.3509392305	-0.0255440308	 0.306877
O	-3.9189136944	-1.7844712232	-0.0157999277	-0.336126
C	-2.7157002908	-3.7982916446	-0.0295363423	 0.200469
C	-2.6333022207	-4.9975431051	-0.0327464653	-0.37069
H	-0.7318002188	 1.8159240841	-0.0387105521	 0.300215
H	 0.5243373897	-0.3545519304	-0.9357841155	 0.107502
H	 0.5389962956	-0.3561476098	 0.8336672927	 0.107509
H	-3.2480043137	 0.2262267534	-0.0187345424	 0.261426
H	-0.8037493149	-2.2930419303	-0.0420199804	 0.270416
H	-2.5761363686	-6.0594313614	-0.0355180053	 0.222907
