19
gdb 83775	2.8419	1.81382	1.6131	2.2249	73.28	-0.2265	0.0737	0.3002	926.6463	0.161407	-422.981995	-422.974975	-422.974031	-423.01317	28.631	
C	-0.0816142003	 1.6515528596	-0.0422379164	-0.430609
C	 0.0830590698	 0.1415175797	 0.0610042002	 0.009977
C	 1.119761921	-0.6224110028	-0.8160033944	 0.041722
O	 2.3537719993	 0.0686133873	-0.907436331	-0.262334
C	 2.8903198618	 0.4223082148	 0.3704964078	-0.084662
C	 2.2709505731	-0.4787950866	 1.4221688754	 0.061334
O	 2.4661919677	-1.8384525203	 0.9270288047	-0.295545
C	 1.1751606349	-1.7310739029	 0.3270747315	 0.118094
C	 0.7077993718	-0.6017535362	 1.2660400942	-0.125969
H	 0.8695414071	 2.1848797118	-0.0110963975	 0.128601
H	-0.5710759426	 1.9177950738	-0.9852779569	 0.120877
H	-0.7095430113	 2.0292896634	 0.7723023208	 0.115562
H	-0.8957922894	-0.3306326618	-0.1001783216	 0.078553
H	 0.8493132231	-0.9112499496	-1.8325479868	 0.077583
H	 3.9715015171	 0.2518690148	 0.3262187609	 0.117707
H	 2.7175674881	 1.483851323	 0.5954855937	 0.092024
H	 2.6817553798	-0.3335603482	 2.4243040749	 0.083468
H	 0.6718664936	-2.6830641664	 0.1508139625	 0.080996
H	 0.1536947253	-0.7616799834	 2.191441328	 0.07262
