18
gdb 71675	2.80147	2.06083	1.79669	2.7304	72.84	-0.2378	0.0704	0.3082	848.9401	0.150979	-401.917531	-401.91131	-401.910366	-401.947597	27.182	
O	-0.0938071947	 1.4041192935	 0.0354120267	-0.494157
C	 0.0595613355	 0.0221630725	 0.0044899723	 0.404394
C	 0.9378813278	-0.7970244362	 0.9997551906	-0.300531
C	 0.7448716432	-1.9037773474	-0.0788934775	-0.069157
C	-0.7807248021	-2.1470249857	-0.0694651803	-0.039446
C	-1.276187466	-0.7464977164	-0.0063857596	-0.07968
N	-1.4442848364	-1.5367461911	-1.2455217764	-0.131311
C	-0.3686549824	-1.1122123792	-2.1604915202	-0.182803
C	 0.7280963139	-0.7798542128	-1.1668565573	-0.114009
H	 0.7793464669	 1.8072470322	 0.0755764755	 0.280594
H	 1.9705291386	-0.4342722128	 1.0545467077	 0.086722
H	 0.5499305171	-0.9779345177	 2.0060677528	 0.098788
H	 1.4057567438	-2.7655615708	-0.1463579554	 0.070032
H	-1.2483271784	-3.0073756151	 0.3918025391	 0.09215
H	-2.154389075	-0.3847010265	 0.5123784206	 0.095924
H	-0.1159322816	-1.9287961508	-2.8447754277	 0.103236
H	-0.698073661	-0.2461088958	-2.7439635386	 0.111604
H	 1.6967589309	-0.4228185199	-1.5140616123	 0.067651
