17
gdb 69755	2.90862	1.59143	1.29022	3.7923	72.11	-0.2334	-0.0205	0.213	1014.3919	0.134364	-421.789221	-421.781516	-421.780571	-421.821332	30.019	
C	-0.1030762098	 1.5297834169	 0.0469697631	-0.505572
C	 0.1580150759	 0.0612977421	 0.0010825977	 0.420993
O	-0.7635014613	-0.817156407	 0.6697668575	-0.280958
C	 0.6327352026	-0.9283589093	 0.9859104695	-0.052307
C	 1.2911434601	-1.802724189	-0.1105721855	-0.066893
C	 0.3949185635	-2.9049397769	-0.7463681815	-0.362126
C	-0.1023033609	-1.8594324758	-1.7712843426	 0.430198
O	-0.8418763156	-1.9044414161	-2.7080612659	-0.299341
C	 0.7959652215	-0.7526043612	-1.1693225979	-0.249654
H	 0.7939805672	 2.0926496351	-0.2294113666	 0.128135
H	-0.9016605655	 1.8006100684	-0.6524379187	 0.143448
H	-0.4123721404	 1.8273020845	 1.0525637306	 0.138089
H	 0.9073242593	-0.8260878281	 2.0304968999	 0.106065
H	 2.3519884126	-2.0087490108	 0.0152083981	 0.085542
H	 0.9599671232	-3.7072645579	-1.2314111858	 0.128318
H	-0.3833234824	-3.3408480041	-0.1170852693	 0.140749
H	 1.4677677999	-0.203025281	-1.8288389626	 0.095314
