13
gdb 132153	3.31042	1.38543	0.98256	4.6133	62.18	-0.2649	-0.0491	0.2158	1089.7862	0.088692	-497.906173	-497.898707	-497.897763	-497.938508	27.054	
C	-0.0309449835	 1.4990047296	-0.0094896521	-0.474812
C	-0.0071951978	 0.0021727622	-0.0275945736	 0.100514
C	-0.0403660441	-0.7215151385	-1.1509083539	-0.019911
O	-0.0176284556	-2.0968199072	-1.1479449784	-0.189287
C	 0.0399764933	-2.6669135507	 0.0592444207	 0.40998
F	 0.05669786	-3.9654980252	-0.0896518608	-0.033634
N	 0.0772574845	-2.1288992171	 1.1997985372	-0.402209
C	 0.05664898	-0.7147218425	 1.2692687717	 0.347649
O	 0.089802984	-0.1360734403	 2.330217386	-0.326636
H	 0.8618049813	 1.8844042867	 0.4926054893	 0.155911
H	-0.0818550143	 1.9172246624	-1.0178527789	 0.121286
H	-0.8885359924	 1.8554638654	 0.569307955	 0.156028
H	-0.0872643855	-0.3416385248	-2.1625123523	 0.155123
