21
gdb 114677	3.21632	1.34812	1.27759	1.0953	82.36	-0.2274	0.025	0.2524	1109.9373	0.184943	-387.088655	-387.080881	-387.079936	-387.12082	31.236	
C	-0.0249270593	 1.370087676	-0.1069066236	-0.237624
O	-0.0213576141	 0.0026084953	 0.2245586927	-0.247434
C	-1.2808892558	-0.6206199341	 0.0898439328	 0.168411
C	-1.7272020802	-0.9132527031	-1.3812437192	-0.246624
C	-1.9050174624	-2.4702358173	-1.3809754919	-0.055949
C	-2.465457647	-2.6829298082	 0.0465907429	-0.216366
C	-1.2355447649	-2.0423490907	 0.7294722359	-0.099717
C	-0.1097935366	-2.7937164814	 0.0334028037	-0.053619
C	-0.5115087458	-3.0561831323	-1.2134954557	-0.078983
H	 0.9837100049	 1.7509438579	 0.0730931156	 0.123999
H	-0.2824825506	 1.5451938079	-1.1625797247	 0.104207
H	-0.7347093171	 1.9384782743	 0.5159731423	 0.100265
H	-2.0407049166	-0.0105657531	 0.6037028238	 0.059372
H	-2.6678844953	-0.4096692763	-1.6242279886	 0.090981
H	-0.9698884353	-0.5856987449	-2.0973781942	 0.104412
H	-2.4951541914	-2.8552817007	-2.213365706	 0.056639
H	-3.4022417115	-2.1452676577	 0.2325838539	 0.085953
H	-2.5878256766	-3.7368916432	 0.3064208063	 0.096919
H	-1.2090967378	-2.0271763326	 1.8190237958	 0.059343
H	 0.867481436	-2.9677638807	 0.4631649185	 0.096452
H	 0.0726521073	-3.4893519451	-2.0160681302	 0.089364
