21
gdb 39158	2.95449	1.67147	1.24541	0.3119	89.01	-0.2096	0.0323	0.242	1070.5819	0.185953	-349.971915	-349.964564	-349.96362	-350.00344	30.53	
C	-0.0620321395	 1.4944745116	 0.0238434841	-0.352492
C	 1.2970468875	 0.8386341378	 0.0155241005	-0.098685
C	 1.9646722126	 0.5798252532	 1.3696542886	-0.214219
C	 0.8835264437	-0.123889934	 2.2499368647	-0.359525
C	-0.0151652858	-0.7673514125	 1.2325320006	 0.358842
C	-0.7084459707	-1.8973786469	 1.108352827	-0.264999
C	-1.2870739494	-2.0339633576	-0.2900001713	-0.248897
C	-0.5436201538	-0.9337722821	-1.116305404	-0.341533
C	 0.0425247092	-0.0138520461	-0.0492323585	 0.323003
H	-0.430944195	 1.9722657317	 0.9274702507	 0.103838
H	-0.3608940748	 1.9959381801	-0.891724776	 0.107354
H	 1.9322618746	 0.9864359312	-0.8518742522	 0.080124
H	 2.8161297517	-0.0948855999	 1.2239679387	 0.102737
H	 2.351108957	 1.4910357015	 1.8388867279	 0.096044
H	 1.314844131	-0.832020777	 2.9618858957	 0.109051
H	 0.3331848102	 0.6195974379	 2.8400233197	 0.113195
H	-0.8506347133	-2.649229085	 1.8765964358	 0.083534
H	-1.130081893	-3.0350919414	-0.707828834	 0.098922
H	-2.3742567616	-1.8718422566	-0.2920058291	 0.103099
H	 0.2537202738	-1.3928889392	-1.7116215292	 0.103024
H	-1.2090119244	-0.4141618465	-1.8107327999	 0.097583
