15
gdb 106035	2.71987	1.586	1.23767	2.9844	64.48	-0.2343	-0.0121	0.2222	1003.2384	0.111561	-457.694349	-457.686657	-457.685712	-457.727536	28.495	
O	 0.1158351702	 1.3940457848	 0.4357431052	-0.407943
C	-0.0054493867	 0.073935379	-0.0670430286	-0.201319
C	-1.4195730973	-0.4216274061	 0.0021646233	 0.128247
C	-2.1108905964	-1.0561764562	 1.2090072314	 0.056861
O	-3.521618857	-0.833502152	 1.1099375574	-0.287863
C	-3.4002344694	-1.2067065063	-0.2913618302	-0.082388
C	-2.0083012408	-1.8861509564	-0.0112818518	-0.190998
C	-2.5632975649	-0.0496499042	-0.890968159	 0.424225
O	-2.6652654454	 0.6774292987	-1.8392763345	-0.343903
H	-0.3822818654	 1.9727516098	-0.1519446527	 0.29896
H	 0.3545868431	 0.0050378456	-1.1045345023	 0.110316
H	 0.6503962136	-0.551394245	 0.5484884481	 0.116259
H	-1.6486410258	-1.1213960708	 2.1855734286	 0.133976
H	-4.2975688005	-1.6240039977	-0.7389254883	 0.111993
H	-1.5332633873	-2.8098404132	-0.3062822865	 0.133577
