17
gdb 124753	2.58728	1.5037	0.98684	4.1538	71.26	-0.213	0.0145	0.2276	1161.265	0.137053	-451.323759	-451.315023	-451.314079	-451.357128	32.866	
C	 0.1362881277	 1.3295081645	 0.9929030753	-0.392948
C	-0.1612593953	 0.4769847034	-0.2359560624	 0.000631
O	 0.8582942798	-0.5190900787	-0.4560610531	-0.430316
C	-1.5115545834	-0.17908618	-0.1816950264	 0.245769
C	-1.9369149541	-1.2782286022	-0.9120306541	 0.273692
N	-1.2986507964	-2.0224580958	-1.8891485446	-0.607283
N	-3.2184116389	-1.4511554894	-0.5164165588	-0.24021
N	-3.5845151763	-0.519329656	 0.4139422978	-0.138386
N	-2.5488617411	 0.2365430034	 0.6004777754	-0.264171
H	 1.1240838956	 1.7872103054	 0.8967031597	 0.116379
H	-0.618232763	 2.1108857608	 1.1084651055	 0.146793
H	 0.1122432774	 0.7186183625	 1.9021824708	 0.114607
H	-0.088186375	 1.1072783345	-1.1317229979	 0.106006
H	 0.9108766899	-1.044928661	 0.3511935034	 0.279051
H	-0.2963025231	-1.8748590031	-1.8344461747	 0.269346
H	-1.5265154696	-3.008031831	-1.8926254302	 0.248369
H	-3.8920321041	-2.1332191472	-0.8247437058	 0.27267
