17
gdb 24599	4.98969	0.96581	0.91705	3.8914	74.35	-0.2217	0.0238	0.2455	1272.7193	0.138807	-418.016724	-418.009076	-418.008132	-418.050957	27.835	
C	 0.0862404242	 1.568260044	-0.0456493158	-0.077973
O	 1.520620654	 1.4792698486	 0.037322242	-0.269668
C	 1.4576158473	 0.0741082058	 0.3436215104	-0.078008
C	-0.0620939466	 0.0227585888	 0.0227514908	-0.168846
C	-0.9982456376	-0.5803058573	 1.0061894632	 0.304565
C	-1.1846084626	-0.4014606064	 2.3576514543	-0.16458
N	-2.1952124173	-1.203744368	 2.8324489028	-0.249839
C	-2.6266617542	-1.8692378117	 1.7865476313	 0.008473
N	-1.9395381125	-1.5317984981	 0.6586863346	-0.312777
H	-0.3484685925	 2.0875801003	 0.8183303219	 0.10831
H	-0.2468596998	 2.0575903877	-0.9678183733	 0.105909
H	 2.1193592549	-0.5204818905	-0.2961818796	 0.105931
H	 1.6891978824	-0.1323637768	 1.3966558619	 0.108327
H	-0.2391520632	-0.3986032778	-0.970738121	 0.075101
H	-0.6441110941	 0.2633328408	 3.0150782369	 0.111213
H	-3.4223415872	-2.5991889309	 1.7806039046	 0.130532
H	-2.0853907751	-1.9042630786	-0.2650921052	 0.263331
