20
gdb 56292	4.83164	0.5413	0.53817	3.3607	83.56	-0.2444	0.0321	0.2765	2089.8309	0.168069	-403.156254	-403.145204	-403.14426	-403.195368	37.859	
C	-0.1655571337	 1.4138130366	 0.2997103623	-0.482162
C	-0.1497059856	-0.1071522276	 0.3287432274	 0.406374
O	 0.5385365309	-0.7319756868	 1.1153592686	-0.371789
N	-0.9634102058	-0.7139448177	-0.588862742	-0.317185
C	-1.1228055849	-2.1550315575	-0.6562911853	-0.165609
C	-2.4548212469	-2.6389101846	-0.0705478996	-0.179174
C	-2.5951263573	-4.1715351932	-0.1582961261	-0.350261
C	-3.8650417754	-4.6555785014	 0.3679201412	 0.289046
C	-4.9203102244	-5.0286991715	 0.8058975713	-0.431546
H	-0.6229105077	 1.7794787524	 1.2238217992	 0.152503
H	 0.8656427369	 1.7733701369	 0.2815869746	 0.153776
H	-0.7081539691	 1.833741554	-0.551486423	 0.109559
H	-1.5417537252	-0.1389713437	-1.1787213028	 0.242037
H	-1.0297204816	-2.4814932126	-1.7002824806	 0.102522
H	-0.2853723488	-2.5782227534	-0.0957944837	 0.150487
H	-2.5254156828	-2.3234754853	 0.9752409022	 0.127684
H	-3.2921230319	-2.1705380256	-0.6016075049	 0.102111
H	-2.4888117746	-4.4908689624	-1.2039521959	 0.128494
H	-1.7681057639	-4.6442819112	 0.3875093603	 0.138826
H	-5.8477558481	-5.3708210352	 1.1930213067	 0.194305
