23
gdb 87401	1.94598	1.5554	1.07235	1.6859	85.95	-0.2474	0.074	0.3214	1270.5389	0.203837	-388.277426	-388.267515	-388.266571	-388.311777	37.704	
C	-0.0909065663	 1.5225249357	-0.2654440564	-0.417657
C	-0.0572598444	 0.0408914104	 0.0089906769	-0.021286
O	 1.2211970552	-0.6102395653	-0.1022840198	-0.303692
C	 0.5823619559	-0.6050248434	 1.1651822205	 0.406047
C	 1.1825237454	-0.0434181659	 2.4692347986	-0.050366
C	 1.0355683255	 1.4135628948	 2.8844863559	-0.417887
C	 0.3398079821	-1.1153477246	 3.2243777531	-0.25544
C	 0.1333284343	-1.8855269159	 1.8879543278	-0.0381
C	-1.2237280418	-2.4994245983	 1.5805574155	-0.417971
H	 0.7671103963	 2.028422047	 0.1790310817	 0.128743
H	-0.0709656596	 1.7019880522	-1.3458201799	 0.124795
H	-1.0087854626	 1.9711609483	 0.1299827679	 0.118535
H	-0.8651189584	-0.5186900438	-0.4689033751	 0.084667
H	 2.241418882	-0.3288823046	 2.4948787402	 0.085619
H	-0.0040070067	 1.7494753361	 2.8096632665	 0.112754
H	 1.3505122336	 1.540362702	 3.9263837527	 0.114668
H	 1.6530967325	 2.0799099684	 2.2743883292	 0.121877
H	 0.8274312939	-1.6485657985	 4.0429380826	 0.097906
H	-0.6018116099	-0.6927368656	 3.59143498	 0.095664
H	 0.9212823488	-2.6389063805	 1.7678414063	 0.083248
H	-2.0269049125	-1.7625737683	 1.691889527	 0.110463
H	-1.261895185	-2.8886668639	 0.5571393513	 0.122226
H	-1.4398176283	-3.3328941063	 2.2577794375	 0.115188
