14
gdb 9819	2.95629	1.88051	1.45799	1.8604	58.59	-0.2539	-0.1049	0.149	878.8815	0.103562	-419.665059	-419.656738	-419.655794	-419.698699	28.479	
C	-0.3296894699	 1.4645093149	 0.0492439413	-0.495061
C	-0.0468437673	-0.0148539597	-0.0501333091	 0.322695
C	 0.9483815765	-0.5602912996	-0.979366701	-0.213603
O	 1.2350573146	-0.4648023911	 0.424598049	-0.265023
C	-1.1210302201	-0.9911757932	 0.3995512946	 0.233019
O	-1.5193337184	-1.9114919119	-0.2744966854	-0.269811
C	-1.6898876787	-0.863397112	 1.8224002955	 0.093684
O	-1.4161926397	 0.0145415413	 2.5955782164	-0.211888
H	 0.5402172858	 2.0276150394	-0.2980726008	 0.135536
H	-1.1884272456	 1.734735477	-0.5752472617	 0.129841
H	-0.5462522204	 1.746523355	 1.0807639994	 0.165506
H	 0.8258564499	-1.5686578076	-1.3659150045	 0.137523
H	 1.5081384057	 0.1282800093	-1.6094249001	 0.122574
H	-2.3955647725	-1.6885539619	 2.0555444863	 0.115008
