17
gdb 97822	5.21892	0.69138	0.66139	1.7091	77.98	-0.239	0.0172	0.2562	1688.0329	0.134643	-421.735393	-421.72657	-421.725626	-421.770523	31.668	
O	 0.1297085086	 1.4085318374	 0.4071503831	-0.400353
C	 0.0822207896	 0.0637582718	-0.0463147499	-0.195635
C	-1.2648831801	-0.504044795	-0.0612444011	 0.08304
C	-2.3926616813	-0.928478705	-0.0968747591	 0.072244
C	-3.7464617626	-1.4506790868	-0.1179314896	-0.074437
O	-4.3536182794	-1.5154632737	-1.4512999678	-0.292794
C	-4.6729810766	-2.8956722256	-1.249107898	 0.107933
C	-3.4312755565	-3.7142627632	-1.1007958444	-0.296532
C	-3.9793929342	-2.9542544819	 0.0886058338	-0.130106
H	-0.5033124319	 1.9115927963	-0.1159090947	 0.289512
H	 0.5253974244	-0.0397211886	-1.049872176	 0.122926
H	 0.7207074609	-0.5048413931	 0.6391017937	 0.143068
H	-4.3954761523	-0.8517990607	 0.5325324325	 0.111809
H	-5.6377702443	-3.246738248	-1.5944450833	 0.107819
H	-3.5805455165	-4.7882296937	-1.0466818824	 0.117062
H	-2.5154052418	-3.3940728023	-1.588502034	 0.126963
H	-4.2570156759	-3.4156274481	 1.0257032372	 0.107479
