16
gdb 34445	3.02631	1.78027	1.29593	5.7467	73.19	-0.2433	0.02	0.2633	952.5505	0.127631	-396.864446	-396.857768	-396.856824	-396.895411	26.846	
N	-0.0785689411	-1.1217127688	 0.0291574389	-0.33526
C	-0.0230259976	 0.032156612	 0.0265957217	 0.222364
C	-0.0066311582	 1.4801441855	 0.0353263265	 0.279835
N	-0.822679783	 2.1060695179	 1.0616221596	-0.379585
C	-0.6581441001	 3.5527247604	 0.7459105098	-0.200379
C	 0.3657734549	 3.4666173957	-0.3779822864	-0.072913
C	 1.3327235716	 2.2706239834	-0.0772207009	-0.064376
N	 1.4244889551	 1.8838554619	-1.5284713643	-0.321272
C	-0.0121813616	 2.2820827251	-1.3251759031	-0.091577
H	-1.7893449958	 1.8068842598	 0.99707149	 0.234053
H	-1.5958226727	 4.0192560982	 0.4224589821	 0.110854
H	-0.2878694808	 4.1027747029	 1.6178468862	 0.120243
H	 0.776397323	 4.3790902828	-0.810649903	 0.084382
H	 2.1772535091	 2.2222324482	 0.6099604015	 0.102256
H	 1.9098049716	 2.6240685185	-2.0420786616	 0.216419
H	-0.7564793546	 2.2431141965	-2.121420897	 0.094954
