12
gdb 45937	3.01356	1.50037	1.0101	2.9545	57.94	-0.2909	-0.0866	0.2043	1047.626	0.07797	-509.843815	-509.836328	-509.835384	-509.877142	26.148	
O	-0.0129015641	-0.0821852047	 0.0025534759	-0.320182
C	-0.0290354473	 1.1227492289	 0.0267690728	 0.390375
C	-1.3293897103	 1.9043786339	-0.0124373291	-0.183935
O	-1.2726435829	 3.3046524328	 0.2571500822	-0.231361
C	-0.1337152979	 4.0262135853	 0.2083067846	 0.353477
O	-0.1542758824	 5.2136818039	 0.3131176009	-0.271059
C	 1.2062536323	 3.2699218626	 0.0664029236	 0.297388
O	 2.2520536026	 3.8562136872	 0.0101358234	-0.283803
N	 1.12529541	 1.8851343409	 0.045967663	-0.378272
H	-1.7713111984	 1.7575488127	-1.005166748	 0.170276
H	-2.008042493	 1.4625102504	 0.7202642478	 0.176252
H	 2.0057038814	 1.3806719162	 0.0147593429	 0.280842
