18
gdb 67226	2.5972	2.0213	1.48625	2.7616	75.23	-0.2352	-0.0152	0.22	930.4133	0.149147	-401.908659	-401.901434	-401.90049	-401.940026	28.991	
C	-0.0656045833	 1.5444952873	 0.0959625997	-0.508072
C	-0.0448317193	 0.0513907897	-0.010703864	 0.222164
C	 0.6983077471	-0.8607276772	-1.091204757	-0.085854
C	 1.8890840779	-0.808582876	-0.1433958511	-0.197089
N	 0.8850924086	-0.6995964892	 0.9865692552	-0.172009
C	 0.2743580899	-2.0679788015	 0.8964483864	-0.174228
C	-0.2918493196	-1.9805253076	-0.5418035161	-0.188686
C	-1.260835169	-0.8183392091	-0.3070324056	 0.398152
O	-2.4111104404	-0.5833546801	-0.5416632624	-0.329019
H	 0.9355275315	 1.9748345864	-0.0043046428	 0.125717
H	-0.7098711461	 1.9721353376	-0.6777466748	 0.13614
H	-0.4590951572	 1.8426512129	 1.0726322556	 0.142298
H	 0.7021361787	-0.6613965526	-2.1617975865	 0.090292
H	 2.5779493118	-1.655687319	-0.0709694946	 0.104049
H	 2.4600360571	 0.1186687834	-0.227956991	 0.115859
H	 1.03934812	-2.8340867099	 1.0406091856	 0.11123
H	-0.5021904323	-2.1986551552	 1.6555509376	 0.118628
H	-0.5593410354	-2.8763140199	-1.0959317742	 0.090429
