22
gdb 120139	2.82542	1.00822	0.8993	1.7243	82.26	-0.2289	0.0587	0.2876	1429.2356	0.193956	-404.299497	-404.290017	-404.289073	-404.334164	35.651	
C	-0.3491414303	 1.6292208682	-1.1502679681	-0.381534
C	-0.4734756786	 0.1037452189	-1.1377497596	-0.156346
C	-1.5055496314	-0.4029618927	-0.1200153419	-0.221679
C	-1.5753156414	-1.9156294216	-0.076177995	 0.017234
C	-2.7426559327	-2.7551319817	 0.2723647893	-0.080218
C	-4.0651785633	-2.2226649839	-0.2510802462	 0.102499
O	-4.5478706326	-1.0696137199	 0.4076314174	-0.425451
C	-3.3857350403	-2.1163040929	-1.6452329377	-0.211514
N	-2.1330567371	-2.7821739718	-1.1383400357	-0.155118
H	 0.3911038684	 1.9639171169	-1.8837230778	 0.110951
H	-1.3050060597	 2.1024925716	-1.4018398119	 0.11258
H	-0.0427381307	 2.0102996279	-0.169619213	 0.11345
H	-0.7453532294	-0.2545444399	-2.138722286	 0.104367
H	 0.5040679296	-0.3444671926	-0.9163623459	 0.095028
H	-1.22625998	-0.0585389567	 0.8849105808	 0.097874
H	-2.4869492836	 0.0348277915	-0.3146780522	 0.117566
H	-0.6393621781	-2.3602505304	 0.2642743542	 0.092177
H	-2.6552209912	-3.6026721498	 0.9454868856	 0.089421
H	-4.8255124831	-3.013756686	-0.2522244932	 0.082592
H	-5.4277307247	-0.8746984839	 0.0693202571	 0.284646
H	-3.8479542186	-2.7403494805	-2.4130780052	 0.105568
H	-3.2423563513	-1.1070597105	-2.0406781752	 0.105907
