19
gdb 4036	3.65169	1.11496	1.08903	1.0096	71.98	-0.2441	0.0125	0.2567	1205.7672	0.161531	-402.153837	-402.143618	-402.142674	-402.189457	35.347	
C	-0.0971163726	 1.4311428051	-0.116088721	-0.232548
O	-0.2114902719	 0.0291534374	-0.1895931947	-0.250595
C	 0.6286110687	-0.584382976	-1.1632984019	 0.051298
C	 2.0774538735	-0.7071074011	-0.6694527154	-0.410391
C	 0.0253678472	-1.9400718917	-1.4597646061	 0.378729
C	-0.2877615979	-2.8766364897	-0.3268372453	-0.480578
N	-0.1624912525	-2.1926368238	-2.6975178241	-0.187285
O	-0.6733363521	-3.4857559805	-2.8959301168	-0.398117
H	 0.8933737117	 1.7598570457	 0.2310086333	 0.106067
H	-0.2960171814	 1.9054133413	-1.0895893477	 0.107977
H	-0.8454482068	 1.7756400122	 0.6021086733	 0.128359
H	 0.6082777216	-0.0038948571	-2.0962067403	 0.08295
H	 2.1246806401	-1.3031738321	 0.2466645408	 0.125162
H	 2.6950228318	-1.1881872736	-1.433587556	 0.12825
H	 2.5067140835	 0.2767942093	-0.4596778095	 0.119212
H	-0.3401916132	-2.3298567828	 0.6151178497	 0.140142
H	-1.237029267	-3.384390137	-0.5118063504	 0.148083
H	 0.4785656302	-3.656342192	-0.244602039	 0.138104
H	-0.8000503429	-3.5069459234	-3.850209029	 0.305181
