17
gdb 56340	4.73569	0.64277	0.60871	5.0156	67.42	-0.2544	0.0286	0.283	1770.4584	0.135483	-492.35096	-492.341091	-492.340147	-492.388131	33.75	
N	-0.009709764	 1.2365346254	-0.2284773428	-0.562909
C	 0.0841824981	-0.1246139605	-0.1478767787	 0.500017
O	 1.0944653252	-0.7696499126	-0.2881726	-0.388598
O	-1.145783477	-0.6596803181	 0.0803214698	-0.274714
C	-1.1821013209	-2.0968760072	 0.142746069	-0.062181
C	-2.6396485735	-2.4926128878	 0.2974248339	-0.174837
N	-3.439827582	-2.0594556234	-0.8332212575	-0.272385
C	-4.2118102759	-2.9072991401	-1.5640908501	 0.158815
O	-4.3494240803	-4.0923976127	-1.3467844094	-0.321867
H	 0.8601246628	 1.7397655658	-0.1887092745	 0.272089
H	-0.8293408247	 1.6890433481	 0.1392596112	 0.263576
H	-0.7470367579	-2.5115260661	-0.7704912551	 0.136073
H	-0.5886932571	-2.4427055232	 0.9948969869	 0.12493
H	-2.7272194195	-3.5800105405	 0.3502661454	 0.155678
H	-3.036026416	-2.07357082	 1.2311607449	 0.117576
H	-3.3739920234	-1.0938626138	-1.112815162	 0.252842
H	-4.7164738239	-2.3829004033	-2.399446111	 0.075894
