15
gdb 125386	3.19894	1.16681	0.87092	5.5532	69.6	-0.245	-0.0036	0.2414	1256.5821	0.112693	-453.989718	-453.981196	-453.980252	-454.024	29.576	
C	 0.0123665106	 1.5117409847	 0.091103791	-0.507397
C	-0.068663621	 0.0201356921	 0.0175258642	 0.093443
C	-0.0346940693	-0.8079338819	-1.0868767882	-0.09592
N	-0.1335251694	-2.0831121311	-0.6379840092	-0.1977
N	-0.2479522171	-2.1625240679	 0.7042279618	-0.304839
C	-0.1979362544	-0.8958832358	 1.0866279345	 0.380859
O	-0.3010957146	-0.5266964208	 2.3992664767	-0.219569
C	 0.2768178316	-1.3283192418	 3.3451653304	 0.163274
O	 0.1394620502	-1.1122418913	 4.5078628173	-0.261731
H	 0.8589190704	 1.8378278326	 0.7046379805	 0.138879
H	 0.1322859676	 1.9465562389	-0.9044763902	 0.125084
H	-0.8899547109	 1.9409906979	 0.5391665996	 0.143478
H	 0.0518606064	-0.5812489907	-2.1381924522	 0.142674
H	-0.157580512	-2.9312374987	-1.1765906658	 0.281591
H	 0.8586727319	-2.1480300261	 2.8974188797	 0.117874
