10
gdb 342	7.13566	2.54107	2.18191	3.3417	41.69	-0.2649	-0.0663	0.1986	555.1885	0.070094	-342.307696	-342.301481	-342.300537	-342.33778	20.624	
O	 0.0080446008	 1.4930092546	 0.1469332475	-0.402397
C	 0.0106351592	 0.1126130905	 0.084945064	-0.025387
C	 0.6857359952	-0.3900260912	-1.1844543661	 0.126628
O	 1.1599805453	 0.384666176	-1.9767349549	-0.243913
C	 0.6723466974	-0.5503581394	 1.3073047619	 0.133176
O	 1.2545572925	 0.0500895112	 2.1628999447	-0.206686
H	 0.509284405	 1.7982366346	-0.6260287499	 0.303226
H	-1.0188426224	-0.3002633415	 0.0641400453	 0.119594
H	 0.7169721839	-1.4860547017	-1.3386631701	 0.112161
H	 0.542582833	-1.6571405032	 1.3358255777	 0.083598
