16
gdb 46554	4.23565	1.12662	1.03917	3.1359	64.65	-0.2686	0.0438	0.3123	1136.2443	0.125646	-475.046278	-475.038682	-475.037737	-475.079174	27.943	
O	 0.12837903	-0.0248680985	 0.3089204926	-0.384335
C	 0.0512858358	 1.1579236454	 0.1434242482	 0.477514
N	-1.0640188931	 1.9024785698	-0.1943788867	-0.418248
C	-0.849164159	 3.3142922612	-0.0392111482	 0.248229
C	-1.5945662908	 4.3085535237	-0.9583033391	-0.125957
O	-2.0810983222	 5.0525195826	 0.1737731764	-0.264439
C	-1.5720692501	 4.080082699	 1.1039567006	-0.120517
C	 0.6916452662	 3.341663175	-0.0772125507	-0.136872
O	 1.1103802641	 2.0163118431	 0.2571765215	-0.23673
H	-1.9672555407	 1.4743054542	-0.0681244347	 0.263509
H	-0.9714515649	 4.9198999996	-1.6228409808	 0.112548
H	-2.4045942934	 3.8530056964	-1.543204604	 0.109181
H	-2.3736521413	 3.5035580981	 1.5862966782	 0.103536
H	-0.9379445061	 4.531049529	 1.8765531386	 0.114156
H	 1.0524864103	 3.5871591829	-1.0832358802	 0.124038
H	 1.1259428952	 4.0420938387	 0.6392714183	 0.134387
