22
gdb 105686	2.43754	1.14472	0.89993	3.5025	83.49	-0.2509	0.0295	0.2805	1375.4751	0.193862	-404.370204	-404.360204	-404.359259	-404.405572	36.859	
C	 1.7055129687	 0.4605402413	-0.9326744569	-0.40016
C	 0.4498645103	 0.2778560977	-0.0701156877	-0.250539
C	 0.653079589	-0.6101999099	 1.1502173005	 0.383954
C	 1.6890825412	-0.1425512278	 2.1616893008	-0.244215
N	 1.3774197754	 1.1518900783	 2.7533395963	-0.265123
C	 2.096007853	 2.278917641	 2.5105020469	 0.155889
O	 3.0860899081	 2.348355781	 1.8106143554	-0.323747
C	-0.551981876	-1.34343487	 1.6985109009	-0.324501
C	 0.5297109722	-2.1034586801	 0.9686023315	-0.304962
H	 2.1174995508	-0.5073311507	-1.2386879385	 0.109525
H	 1.4687641768	 1.0250538216	-1.8399218941	 0.108954
H	 2.4820336993	 1.0114438547	-0.3944090284	 0.155382
H	 0.0859132335	 1.2610449748	 0.2550747182	 0.09544
H	-0.3538410005	-0.1556519413	-0.6777059602	 0.089685
H	 1.7818748803	-0.8888513933	 2.9602268753	 0.100607
H	 2.6719085253	-0.0324944641	 1.6986226765	 0.151449
H	 0.5408291505	 1.2364617391	 3.3092519536	 0.24681
H	 1.6751470616	 3.1555414352	 3.0422899598	 0.075913
H	-0.6319738431	-1.4849630231	 2.7722640128	 0.101935
H	-1.5052138346	-1.2035807935	 1.1999020253	 0.112406
H	 0.3107291153	-2.4758784985	-0.0264167392	 0.115111
H	 1.1769815728	-2.7532559322	 1.5488211511	 0.110187
