19
gdb 106531	2.26677	1.51612	1.12977	3.0993	75.86	-0.2424	0.0058	0.2482	1147.7931	0.158642	-422.989239	-422.98036	-422.979416	-423.022994	33.252	
C	-0.1727452657	 1.5688655964	-0.0924149503	-0.443393
C	 0.0137817049	 0.0617298735	 0.0287440476	-0.017517
C	 1.1905246271	-0.6652054523	-0.7359282481	-0.189276
C	 2.1575909492	-0.1149194832	 0.3710485806	-0.280843
C	 0.8898730879	-0.5581965734	 1.191019691	 0.174294
C	 0.6731614378	-0.574246406	 2.6796830101	-0.20848
O	 1.5661906125	-1.4765135518	 3.314847624	-0.41768
C	 0.9481612915	-1.7874159818	 0.2754951946	 0.428458
O	 0.8761035618	-2.9781930398	 0.3601231823	-0.352247
H	 0.7497911402	 2.1416127592	 0.0211563933	 0.125543
H	-0.5966716527	 1.8143350539	-1.0716934245	 0.127846
H	-0.8782831367	 1.9225984039	 0.6666699458	 0.1274
H	-0.9559762064	-0.4321935768	-0.0941581705	 0.087113
H	 1.3603840132	-0.7118394914	-1.8093518631	 0.09321
H	 3.0797142021	-0.6694456592	 0.5499473787	 0.12265
H	 2.3435340217	 0.9574451119	 0.3409096895	 0.112012
H	 0.8637170838	 0.4095484467	 3.1219946938	 0.115235
H	-0.3788162372	-0.8274195564	 2.8906984885	 0.096262
H	 1.4089997951	-2.3483940234	 2.9335954267	 0.299412
