21
gdb 102729	2.80524	0.97101	0.76294	0.8878	85.58	-0.2601	0.0396	0.2997	1531.592	0.179787	-387.02887	-387.018613	-387.017669	-387.064768	37.197	
C	-0.2922072116	 1.2269791231	 0.0802571635	-0.237178
O	 0.1420796188	-0.1161567907	 0.1146470136	-0.223799
C	 0.71701311	-0.5693242509	-1.0996376592	-0.068318
C	 1.3667165973	-1.9374739483	-0.8269297085	-0.222719
C	 2.5571383428	-1.8639218293	 0.103246063	 0.02711
C	 2.3720413962	-1.865105872	 1.5979259686	-0.239177
C	 2.9592020405	-3.0731026515	 0.9128833903	-0.287377
C	-0.2783031066	-0.6559709551	-2.1792158573	 0.338174
C	-1.0959920831	-0.7393082459	-3.0567493456	-0.465301
H	 0.5389552159	 1.9139219798	-0.1437126609	 0.102805
H	-1.0832042351	 1.3819739279	-0.6660892245	 0.119178
H	-0.6855394158	 1.4592042298	 1.0724989202	 0.127186
H	 1.5035442657	 0.1391246329	-1.416359702	 0.088134
H	 0.595546001	-2.5945453126	-0.4092529481	 0.112611
H	 1.6638013851	-2.3668801198	-1.7906224219	 0.109197
H	 3.3772744304	-1.2562926934	-0.2735262587	 0.076915
H	 3.0272456689	-1.243622009	 2.1983673329	 0.106217
H	 1.3572649314	-1.9305068718	 1.9724786109	 0.121383
H	 2.3421039333	-3.9622707045	 0.8320326732	 0.109532
H	 4.0162048984	-3.279761111	 1.0397838517	 0.108327
H	-1.8156318333	-0.8098722077	-3.8347526712	 0.197102
