19
gdb 72021	2.80836	2.05164	1.82114	1.5801	76.24	-0.2422	0.0996	0.3418	869.012	0.162123	-385.872721	-385.866354	-385.86541	-385.902941	27.77	
C	 0.0004905525	 1.5029043775	 0.0029285314	-0.512031
C	-0.0029751955	-0.0052770259	-0.0748528754	 0.313927
C	 0.8630982695	-0.7301616964	-1.1205347164	-0.253673
C	 0.7110013528	-2.106481385	-0.4444897758	 0.036231
O	 1.2749833495	-1.8362126432	 0.852742051	-0.252416
C	 0.3362857301	-0.847887501	 1.2528851456	 0.015256
C	-1.0492096117	-1.5086516548	 1.1533567039	-0.087296
C	-0.8241644173	-2.1933276487	-0.1785916976	-0.076247
C	-1.3499232435	-0.7689042446	-0.1259869142	-0.129549
H	 1.0101639694	 1.8848307782	 0.189918116	 0.119321
H	-0.3572169586	 1.9515367874	-0.9309829071	 0.11685
H	-0.6484596526	 1.8612545747	 0.8099300423	 0.116705
H	 0.4239298296	-0.6821034049	-2.1218394609	 0.092758
H	 1.9073266726	-0.4070860917	-1.1483740839	 0.09768
H	 1.191693362	-2.9739855158	-0.8922519425	 0.072676
H	 0.6579949348	-0.3323538638	 2.155512491	 0.073528
H	-1.6945079531	-1.8765759175	 1.940552352	 0.087114
H	-1.4385434434	-3.0245965596	-0.4949232042	 0.089016
H	-2.2921355071	-0.4322700449	-0.5406947652	 0.08015
