20
gdb 95257	2.6149	1.85637	1.43247	0.9482	77.41	-0.2179	0.0817	0.2996	987.9594	0.173404	-403.102423	-403.095114	-403.094169	-403.133859	30.034	
C	-0.0223085276	 1.562056965	-0.0230660228	-0.39552
C	 0.00523317	 0.0363404503	-0.0300479854	 0.048207
C	 0.4189893458	-0.51154005	-1.4135976296	-0.100936
O	 0.8939057219	-1.849043956	-1.3712967782	-0.262725
C	 1.8643201676	-2.0468522801	-0.3636353486	 0.093974
C	 2.931095439	-0.9139241166	-0.1514336399	-0.295343
C	 2.243640095	-0.5736168077	 1.1788980515	-0.053688
C	 1.3500885963	-1.7875874387	 1.0675454056	-0.071041
N	 0.7952657116	-0.4568039694	 1.1096248364	-0.092259
H	 0.9803832302	 1.9711462734	-0.1895472545	 0.118097
H	-0.6778660594	 1.944892571	-0.8122985831	 0.114978
H	-0.384869607	 1.9332297691	 0.9389618301	 0.127747
H	-1.0064991569	-0.3357866482	 0.1779570533	 0.088279
H	-0.4513221668	-0.520481274	-2.0765501183	 0.10831
H	 1.1725694587	 0.1431298849	-1.8760064416	 0.089567
H	 2.2928419713	-3.0347100464	-0.5379551014	 0.08783
H	 3.9153055623	-1.358066657	 0.0208856102	 0.108182
H	 3.0328004488	-0.1305798191	-0.9045681289	 0.104171
H	 2.7321828098	-0.1695997734	 2.0584553863	 0.094806
H	 1.0474391395	-2.523843787	 1.8049321489	 0.087364
