14
gdb 81909	2.4088	1.93483	1.20444	3.3734	61.95	-0.2504	-0.1016	0.1487	967.3186	0.100407	-473.817914	-473.810282	-473.809338	-473.850604	28.145	
O	 0.0277917365	 1.4454397298	 0.2130301955	-0.42637
C	-0.0188984224	 0.048504267	 0.0474743173	 0.010968
C	-1.4290437514	-0.5013041899	-0.0451356807	-0.048249
C	-2.2650552628	-0.114595367	-1.1958686142	-0.247134
N	-1.5607507608	-1.432366782	-1.209748748	-0.143791
C	-0.3524769423	-1.3896234938	-1.9627902388	 0.305839
O	-0.1363527017	-1.9910767143	-2.9731875098	-0.272191
C	 0.616949988	-0.3910418328	-1.2717225033	 0.268903
O	 1.6279098443	 0.0550334088	-1.7394922832	-0.280436
H	 0.8920877091	 1.7326707309	-0.1128325851	 0.299456
H	 0.5130397671	-0.4743380241	 0.8620370245	 0.111677
H	-1.9055742458	-0.858509439	 0.861079235	 0.119903
H	-3.3445326888	-0.1983106038	-1.139231778	 0.151098
H	-1.8988019387	 0.6653136802	-1.8586119411	 0.150328
