13
gdb 8834	3.13445	1.47807	1.09056	2.6	55.09	-0.2972	-0.0703	0.2268	1019.7336	0.092652	-435.745727	-435.73712	-435.736176	-435.779897	29.096	
O	 0.1431020202	 1.3484312193	 0.1227040166	-0.41202
C	 0.028689783	-0.0398409506	 0.0426013463	-0.133759
C	-1.4126494008	-0.4914369987	 0.0446829929	 0.331572
O	-2.3250541009	 0.3020182923	 0.0867711824	-0.319111
C	-1.7572757369	-2.0014588341	 0.0125884676	-0.073887
O	-3.1326983683	-2.1932520881	 0.1137580743	-0.401554
C	-1.2003199983	-2.5987923839	-1.2201901051	 0.260444
N	-0.7482713584	-3.0539307853	-2.1810228939	-0.3075
H	-0.7574321894	 1.7024669496	 0.1313779689	 0.302797
H	 0.5066478316	-0.432404582	-0.8694932417	 0.158128
H	 0.5378922249	-0.5302089268	 0.8894651456	 0.132997
H	-1.2480062086	-2.4776066258	 0.8648379159	 0.15276
H	-3.530322138	-1.312421936	 0.0116540202	 0.309132
