19
gdb 115670	2.4187	1.19851	0.9846	3.276	71.62	-0.2521	-0.0284	0.2237	1270.2108	0.157417	-460.154836	-460.14518	-460.144236	-460.19056	34.033	
C	-0.3643297683	 1.4278241633	-0.0608317872	-0.4835
C	 0.3873817319	 0.1128958816	 0.0153297632	 0.376578
O	 1.0039388378	-0.2193117107	 1.0027044516	-0.29674
C	 0.317933468	-0.772627228	-1.2184738847	-0.181098
C	 1.2664150977	-1.9824449288	-1.2708093962	-0.0888
O	 0.165797213	-2.9142955317	-1.3990580784	-0.300977
C	-0.8118356272	-1.8576840966	-1.2602327602	 0.113874
C	-1.6603719455	-2.1106676917	-0.0218955868	-0.084182
O	-2.277971262	-3.3775959504	-0.1320757835	-0.423
H	 0.1206131922	 2.0859865272	-0.7918975091	 0.146207
H	-1.3910593915	 1.2728320055	-0.4105924555	 0.141905
H	-0.3699952249	 1.9135914297	 0.9153359686	 0.147892
H	 0.3172800941	-0.1571922453	-2.1207529002	 0.091542
H	 1.9366214696	-2.0287423982	-2.1351476524	 0.107751
H	 1.8310212105	-2.1330228315	-0.3457892121	 0.131487
H	-1.4552001453	-1.8062022098	-2.1468461175	 0.09043
H	-1.0355194937	-2.0408950051	 0.8803932975	 0.110739
H	-2.462150577	-1.3674702577	 0.0583828113	 0.104945
H	-1.5621714895	-4.0026484821	-0.3040275683	 0.294948
