19
gdb 87015	2.07203	1.53846	1.03675	2.1052	83.61	-0.2428	-0.0146	0.2282	1217.4169	0.155383	-385.877062	-385.867014	-385.86607	-385.911959	36.924	
C	-0.2104761273	 1.5270038644	 0.1366275164	-0.416155
C	-0.0333583453	 0.0297361791	 0.077766909	-0.010995
C	 1.2535604176	-0.5961169933	-0.3064836228	-0.306085
C	 0.7943266942	-0.7135339049	 1.1600746289	 0.035588
C	 1.4864684143	 0.05430651	 2.1539662123	 0.202101
C	 2.0644334312	 0.6973255107	 2.9917908601	-0.419848
C	 0.2447212693	-2.0703376327	 1.5391926565	 0.336281
C	 0.414466722	-2.5205159617	 2.9724073238	-0.503976
O	-0.3118397452	-2.7567737262	 0.7084798162	-0.316782
H	 0.7009447898	 2.0251225377	 0.4762004631	 0.131543
H	-0.4618531197	 1.9135490455	-0.856952269	 0.12451
H	-1.0197347681	 1.8047823148	 0.8194550412	 0.12583
H	-0.9140994753	-0.5419464975	-0.199479106	 0.119838
H	 1.2270446015	-1.525682307	-0.8630010047	 0.142753
H	 2.1110470785	 0.0447463872	-0.4784473978	 0.12812
H	 2.5771405279	 1.2612785662	 3.7310635768	 0.190754
H	 1.4771261291	-2.5591134511	 3.2337527784	 0.150161
H	-0.0438045326	-1.7977299842	 3.6555642322	 0.148603
H	-0.0408157718	-3.5027773571	 3.1002072255	 0.137759
