15
gdb 29406	5.73475	0.96898	0.8332	2.2342	72.75	-0.2229	-0.0173	0.2056	1324.0888	0.113051	-454.007335	-453.99908	-453.998136	-454.04105	29.195	
C	-0.0095470207	 1.5151064283	 0.078086485	-0.490781
C	-0.0018364152	 0.0287871822	-0.0289461987	 0.257915
C	-0.0474532596	-0.7590087509	-1.1275124179	-0.123339
O	-0.0165142816	-2.0785327683	-0.7171208624	-0.150724
C	 0.0466629554	-1.9903864222	 0.6167506819	 0.52449
N	 0.093211038	-3.1407702197	 1.3792022985	-0.407685
C	 0.0849464524	-4.457982012	 0.9644183436	 0.148614
O	 0.0339629014	-4.8441251891	-0.1741243898	-0.278639
N	 0.0591802041	-0.7884457628	 1.1033011369	-0.402496
H	 0.8940372696	 1.8743546429	 0.581714289	 0.140167
H	-0.0613210723	 1.9789647786	-0.9099885266	 0.126938
H	-0.8664303814	 1.8590554505	 0.6668147172	 0.140177
H	-0.0995268654	-0.596648833	-2.1893550417	 0.147757
H	 0.1389415867	-2.9560507453	 2.3705747619	 0.27735
H	 0.1328230787	-5.1305118894	 1.8425595732	 0.090257
