15
gdb 133638	3.30275	0.86376	0.81902	2.4692	59.67	-0.25	0.0336	0.2835	1372.0085	0.107854	-548.268774	-548.25962	-548.258676	-548.304125	32.51	
F	 0.4681849698	 0.9999993071	-0.5100135092	-0.070928
C	-0.3409966049	 1.6316679695	 0.3446195234	 0.306942
F	 0.2270246091	 2.8175314596	 0.6341719083	-0.08583
F	-1.4944475171	 1.8863580201	-0.2951306192	-0.080425
C	-0.6116101631	 0.8101883975	 1.5979518741	-0.3082
N	 0.6114652199	 0.5553815865	 2.3420937822	-0.279935
C	 0.9503110574	 1.5630948139	 3.3544499672	-0.320968
C	-0.0315574427	 1.7020330695	 4.4377087608	 0.308055
C	-0.8619506292	 1.7764340535	 5.3046725202	-0.463333
H	-1.3867498288	 1.3338203116	 2.1770512308	 0.128896
H	-1.0365507606	-0.1372267122	 1.2566130553	 0.13218
H	 0.5564401998	-0.3543477727	 2.7820029766	 0.235338
H	 1.9265707406	 1.2980487272	 3.7752955682	 0.139589
H	 1.0826777116	 2.524890671	 2.850859598	 0.155926
H	-1.5843931218	 1.8552219678	 6.0792701133	 0.202692
