16
gdb 112351	2.35871	1.50841	0.96273	5.8541	70.08	-0.2375	-0.0204	0.2171	1181.521	0.124437	-475.070956	-475.062457	-475.061513	-475.104303	31.199	
C	 0.063648588	 1.3128667882	 0.0603432279	-0.244381
O	-0.0269390805	-0.1013176106	-0.0636263351	-0.245349
C	 0.699665791	-0.6178220484	-1.1327438036	 0.148609
O	 2.0974299311	-0.4749026057	-0.9770498969	-0.255538
C	 2.7019914977	-1.7369257935	-0.9980481338	 0.450628
O	 3.8888862512	-1.8534657783	-0.8963784616	-0.35181
C	 1.6486976365	-2.7401792957	-1.1531932452	-0.410802
C	 0.4593337802	-2.1131935082	-1.1999342049	 0.353823
N	-0.817911886	-2.5582399948	-1.3269744275	-0.585695
H	 1.0912252438	 1.6235593751	 0.2746292569	 0.146755
H	-0.2783780988	 1.8120326468	-0.8579318992	 0.113184
H	-0.5863410734	 1.5982281453	 0.8892189522	 0.134153
H	 0.4132684174	-0.1074750607	-2.067955541	 0.091967
H	 1.8587006659	-3.7982648933	-1.1727492334	 0.11768
H	-0.9932205569	-3.5376855809	-1.1648605942	 0.266686
H	-1.5295348274	-1.9398015652	-0.9656534508	 0.27009
