21
gdb 64294	2.62326	1.57198	1.29769	1.7832	77.11	-0.2389	0.0658	0.3047	1076.5315	0.182592	-424.222213	-424.213578	-424.212634	-424.255177	33.933	
C	-0.1073381631	 1.5828994652	-0.0770132606	-0.446869
C	 0.041995733	 0.0652229393	-0.0022135698	 0.365157
O	-1.2452739686	-0.5605280942	 0.0015210604	-0.476741
C	 0.9228738546	-0.5355392737	-1.1167300452	-0.126688
O	 1.3039321063	-1.8245826357	-0.6679118664	-0.262988
C	 1.4246322452	-1.7961608388	 0.7483526607	 0.114503
C	 2.7875080526	-1.2785029492	 1.2894559876	-0.240724
C	 2.1186819043	 0.0752193692	 1.6675006604	-0.262103
C	 0.72973447	-0.4938175929	 1.2500040207	-0.039597
H	 0.8544142461	 2.0987772763	-0.0106365072	 0.118479
H	-0.5738174795	 1.8758126051	-1.0255702923	 0.106661
H	-0.7500371507	 1.9353069518	 0.7342450799	 0.128101
H	-1.6584076682	-0.4003820162	-0.8537258892	 0.274833
H	 0.3843237674	-0.647874101	-2.064417402	 0.094566
H	 1.8009380025	 0.1056937548	-1.3012901191	 0.083727
H	 1.0861654961	-2.7630186917	 1.1263372206	 0.080023
H	 3.1544614408	-1.8445075864	 2.1494185158	 0.101149
H	 3.5788907636	-1.2370303654	 0.5374422519	 0.105579
H	 2.1932102309	 0.3542455499	 2.7205911372	 0.103418
H	 2.4606070588	 0.9265729956	 1.0730589881	 0.098073
H	 0.0087919278	-0.6012648318	 2.0604624684	 0.081439
