23
gdb 103176	1.84031	1.45945	1.15389	1.2427	80.67	-0.2483	0.0574	0.3057	1241.1646	0.203923	-425.417054	-425.406689	-425.405745	-425.45142	39.785	
C	 0.2303712476	 1.3010891043	-0.3194373916	-0.403218
C	-0.0734113495	-0.1982290289	-0.1889807926	-0.249157
C	-1.5534427553	-0.5556864741	 0.0369229266	 0.251407
C	-2.1622764192	 0.2040021742	 1.2116262225	-0.474025
C	-2.4008086879	-0.5646773577	-1.2886378608	 0.124476
O	-2.0797016224	 0.2908849756	-2.3614474559	-0.426952
C	-2.1572615378	-2.087566585	-1.4328894584	-0.333604
C	-1.7648525278	-2.1156514454	 0.064202144	 0.123277
O	-0.7336068738	-2.9659230912	 0.5034967876	-0.430397
H	 1.2857884608	 1.4588257947	-0.5636110593	 0.108598
H	-0.3776542854	 1.7598173448	-1.1033625916	 0.133702
H	 0.0294658124	 1.8325868028	 0.6147941706	 0.12311
H	 0.2985569728	-0.7089826208	-1.0904533297	 0.066015
H	 0.5061367412	-0.6173042217	 0.6432751979	 0.10914
H	-2.2110105836	 1.2807478316	 1.0207058266	 0.123067
H	-3.1840152719	-0.140525521	 1.405388808	 0.109124
H	-1.5819516756	 0.0506016833	 2.1292432279	 0.117576
H	-3.4497394929	-0.3525165359	-1.0605587527	 0.088347
H	-1.2069677471	 0.0500655157	-2.6881115688	 0.280206
H	-2.9809598473	-2.7196986558	-1.7709170268	 0.107217
H	-1.2866204223	-2.2871340525	-2.0708266363	 0.085312
H	-2.6253616812	-2.3652736859	 0.6918286487	 0.087488
H	 0.0242531563	-2.8478876214	-0.0778302457	 0.279293
