13
gdb 5417	5.53177	1.59486	1.24752	1.9165	60.55	-0.2658	-0.0491	0.2167	898.5104	0.09733	-394.817185	-394.81031	-394.809366	-394.848992	23.938	
O	 0.2408518786	 0.9428957514	 0.9335883631	-0.396192
C	-0.1072265081	 0.2156995994	-0.2155998305	-0.15761
C	-1.4722355523	-0.409292977	-0.0629451527	 0.358364
N	-2.1653396979	-0.227167752	 1.0594384066	-0.251052
C	-3.3558438274	-0.8282738449	 1.075597296	 0.080517
N	-3.881612065	-1.5644928901	 0.0980052691	-0.240777
C	-3.0912399247	-1.6725882439	-0.973617299	 0.080571
N	-1.8894186953	-1.1263513341	-1.1166280286	-0.277204
H	 1.1133614741	 1.3201318381	 0.7892402507	 0.294931
H	-0.1400772353	 0.8408867897	-1.1230716839	 0.121883
H	 0.5982320637	-0.6032156115	-0.4327945735	 0.121879
H	-3.9541985981	-0.7038528559	 1.9759449034	 0.133166
H	-3.4680442825	-2.2632806693	-1.8061848405	 0.131524
