12
gdb 27919	2.06485	2.02195	1.02159	2.7396	58.66	-0.2825	-0.0167	0.2658	1037.6031	0.080861	-506.042677	-506.036022	-506.035078	-506.073878	25.508	
O	 0.1214879621	 1.2490780937	 0.0996017682	-0.378386
C	 0.1070025773	-0.0814315658	 0.0516444519	 0.455178
N	 0.1102754449	-0.6544351529	-1.1540806266	-0.455525
C	 0.0949043327	-1.9913107151	-1.1079924051	 0.456546
O	 0.0970082415	-2.6396527504	-2.2703649615	-0.375149
N	 0.0776307278	-2.7491442116	-0.0197167114	-0.329011
C	 0.0765118772	-2.0402378065	 1.1039919434	 0.459256
O	 0.0595752601	-2.7424525775	 2.233091127	-0.374706
N	 0.0905331244	-0.7080931326	 1.2205059215	-0.39277
H	 0.1323498567	 1.5599491227	-0.8164725148	 0.310855
H	 0.1101462126	-1.9667845754	-2.9652027254	 0.310491
H	 0.0609652128	-2.0992051885	 2.9564139427	 0.313219
