16
gdb 76281	2.40393	1.65775	1.12474	0.9851	66.15	-0.2828	-0.0242	0.2586	1064.2417	0.123998	-475.076294	-475.067918	-475.066974	-475.109402	30.966	
C	 0.1993126634	 1.6124317485	 0.0205479317	-0.395012
C	-0.026368802	 0.09188754	-0.0102519754	-0.126394
C	 0.7035226757	-0.604080131	-1.1734723371	 0.004974
O	 0.8609622262	 0.1679478575	-2.3291541528	-0.428557
C	 2.0413721418	-0.9715295857	-0.5424653785	 0.39766
O	 3.0815234902	-1.1445944327	-1.1035291636	-0.331697
O	 1.8825227726	-1.0706725905	 0.8135672758	-0.214391
C	 0.6222610301	-0.5766516664	 1.1863503994	 0.408894
N	 0.1623825173	-0.6663586253	 2.3486450596	-0.510508
H	 1.2646676308	 1.8597968007	 0.0636847929	 0.12923
H	-0.2119986339	 2.0673956663	-0.8819615506	 0.145346
H	-0.2895391597	 2.0387748747	 0.899110335	 0.140558
H	-1.0962580119	-0.1208071152	-0.002373939	 0.119985
H	 0.1944581432	-1.5580217046	-1.3981505459	 0.116555
H	 1.7215933326	-0.0640180148	-2.7042759217	 0.302827
H	 0.8117364436	-1.1440759715	 2.9753864102	 0.240531
