12
gdb 48189	1.65491	1.51592	1.37546	2.99	71.78	-0.2834	-0.066	0.2174	1066.1952	0.072425	-398.270833	-398.261486	-398.260541	-398.305272	32.392	
O	-0.1232086166	 0.0309444609	-0.0496398785	-0.202461
C	-0.015252127	 1.2127628741	 0.0199443414	 0.171936
C	 1.3840892422	 1.9691486328	 0.01713488	-0.381687
C	 2.5010341979	 1.0273230012	 0.0181768882	 0.351432
C	 3.4037870796	 0.2390883899	 0.0202576281	-0.394456
C	 1.3598824099	 2.8168412361	-1.1813477329	 0.313504
C	 1.2649576151	 3.4783103797	-2.1779600775	-0.410539
C	 1.3941540826	 2.806647868	 1.2354757057	 0.293943
N	 1.3457612887	 3.4427112017	 2.1981240766	-0.318752
H	-0.8636764754	 1.9212981292	 0.0697944457	 0.135211
H	 4.2059455153	-0.4580968581	 0.022232442	 0.218349
H	 1.2105655978	 4.0733786145	-3.0571449788	 0.22352
