25
gdb 101809	4.00072	0.56865	0.55585	2.4126	85.97	-0.2549	0.0622	0.3171	2123.3083	0.226588	-426.633358	-426.6218	-426.620856	-426.670886	42.084	
C	 0.0135349962	 1.5825467824	-0.1271010711	-0.382392
C	 0.0432094553	 0.0499768911	-0.0356041202	 0.040629
C	 0.7605753606	-0.5454272493	-1.2550863207	-0.389241
C	 0.6944884365	-0.4512862651	 1.2661236055	-0.16227
C	-0.0744601031	-0.1149904122	 2.5497125343	-0.225979
C	 0.5917708158	-0.658636115	 3.8132052206	 0.097128
O	 1.9114341518	-0.126859041	 4.0051764095	-0.43913
C	-0.2250119965	-0.4095466237	 5.0837655713	-0.061825
O	 0.4630782082	-0.8695392201	 6.2260085748	-0.425488
H	 1.0302801054	 1.9931182768	-0.0938443518	 0.110147
H	-0.4433374742	 1.9093343136	-1.0669722632	 0.112056
H	-0.55707885	 2.0361919543	 0.6888180374	 0.110629
H	-0.996516583	-0.3096148072	-0.0500729301	 0.069124
H	 1.8085747305	-0.2237795625	-1.2885085535	 0.112569
H	 0.7507062855	-1.6401794568	-1.2298565224	 0.11008
H	 0.286802132	-0.2264307128	-2.1893835253	 0.108857
H	 0.8034070732	-1.5424345871	 1.2065788123	 0.091421
H	 1.7140411722	-0.0525078898	 1.3424890194	 0.100107
H	-0.1906014743	 0.9729428798	 2.6582092204	 0.088858
H	-1.0926029323	-0.5230987176	 2.4897007023	 0.10077
H	 0.7531202696	-1.7392871594	 3.715604579	 0.095911
H	 1.844149193	 0.8351040979	 3.9661948296	 0.280915
H	-0.4535456355	 0.6707688999	 5.1574724236	 0.068292
H	-1.1817054904	-0.9416105148	 5.0346320078	 0.105076
H	 1.3880801234	-0.6349067315	 6.0726824807	 0.283755
