16
gdb 12296	3.00939	2.21163	1.33585	5.7919	67.69	-0.2337	-0.0472	0.1866	895.2947	0.132625	-379.950051	-379.942785	-379.941841	-379.982035	27.228	
N	-0.072304215	 1.2558538707	 0.3680437343	-0.487602
C	 0.0118966372	 0.0297626615	 0.018666362	 0.257428
N	 1.1751824282	-0.6871685229	-0.1964623634	-0.339757
C	 1.2629718393	-1.9692682537	-0.8855148594	-0.156312
C	 0.0641461218	-2.8422197535	-0.5325317588	-0.213427
C	-1.2300279975	-2.0873376438	-0.8510213544	-0.306375
C	-1.3025549022	-0.7517024344	-0.1263343823	 0.375304
O	-2.334793247	-0.3070056874	 0.3029372318	-0.272806
H	 0.8535962214	 1.6875896829	 0.4347740648	 0.199849
H	 2.0171791246	-0.1291675086	-0.2000249882	 0.234611
H	 1.3076085389	-1.8368465829	-1.9796059973	 0.104833
H	 2.1966249014	-2.4540213888	-0.5824602967	 0.114301
H	 0.1122650382	-3.7788273778	-1.0959676201	 0.111917
H	 0.0983170867	-3.0974672468	 0.5328933092	 0.120871
H	-1.2668002938	-1.8715478102	-1.9296124089	 0.12789
H	-2.1294651321	-2.6560951645	-0.6045605527	 0.129275
