16
gdb 14663	13.3441	0.52909	0.51378	1.3482	90.02	-0.2278	-0.0136	0.2142	2114.2247	0.128317	-346.553095	-346.543426	-346.542481	-346.589053	32.287	
C	-0.0347433602	 1.5584985123	-0.0254693809	-0.366966
C	 0.0094070957	 0.0186812704	 0.018140785	-0.343375
C	 0.7073325787	-0.4986781439	 1.1857820859	 0.296481
C	 1.2905643166	-0.9146528669	 2.1621848053	-0.227812
C	 1.9451482078	-1.3832022263	 3.2579233651	-0.210716
C	 2.5268479179	-1.8039357535	 4.2320576727	 0.3134
C	 3.2322215596	-2.2704587056	 5.4156797978	-0.244913
O	 3.2726053924	-3.6921971889	 5.423838143	-0.407975
H	 0.9754241459	 1.9754675778	-0.0478499308	 0.13263
H	-0.5683928166	 1.8948946507	-0.9190232294	 0.118456
H	-0.5464556686	 1.9573298488	 0.8542305435	 0.132621
H	-1.0139041504	-0.3788859179	 0.0029906799	 0.137004
H	 0.4945169835	-0.3609755204	-0.890684001	 0.137031
H	 4.2482601946	-1.8415430005	 5.4173922057	 0.121523
H	 2.7219128195	-1.8797707128	 6.3119483157	 0.121528
H	 3.7469476836	-3.9599264734	 6.2177979427	 0.291083
