17
gdb 56406	3.94411	0.67591	0.60957	2.0683	86.07	-0.2429	0.0116	0.2546	1813.6068	0.133448	-384.599571	-384.589865	-384.58892	-384.635289	34.845	
O	-0.6372182068	 0.8904752826	 0.1421530438	-0.391063
C	 0.0212512561	-0.3427694972	-0.141973788	-0.237747
C	 0.8859191236	-0.2399023926	-1.3288833529	 0.334409
C	 1.5846779133	-0.12620988	-2.2993754254	-0.458313
C	 0.7740178969	-0.8595446583	 1.0073703944	 0.091952
C	 1.3874836314	-1.2547536824	 1.9671550226	 0.070388
C	 2.1189860698	-1.7273835606	 3.1044665169	-0.160071
C	 1.5218389499	-1.6062999213	 4.4994851907	-0.251537
C	 1.6407869574	-2.957178305	 3.8628830271	-0.250541
H	 0.0461685529	 1.5252408773	 0.3872268808	 0.287607
H	-0.7989843993	-1.0355367119	-0.371492061	 0.145726
H	 2.2014872773	-0.0329887936	-3.15897149	 0.201772
H	 3.1959309489	-1.6025001287	 3.0396297611	 0.113857
H	 2.2002259444	-1.3486301668	 5.3048243576	 0.121133
H	 0.5367610962	-1.1619494557	 4.5744806452	 0.131175
H	 0.7368339929	-3.4344559284	 3.5044392579	 0.129779
H	 2.402130645	-3.6382850075	 4.2255463592	 0.121473
