24
gdb 121476	3.08993	0.65185	0.56828	2.7172	92.43	-0.245	0.0256	0.2707	2083.1601	0.214171	-405.561302	-405.549685	-405.548741	-405.599463	40.633	
C	-0.0256069833	 1.4874411382	 0.0510455854	-0.384167
C	-0.0228743723	-0.0293708259	 0.0149782409	-0.053649
O	-1.3834741561	-0.4694480792	-0.021131527	-0.206208
C	-1.5720782235	-1.8033846933	-0.0158875694	 0.124808
N	-2.7298327889	-2.292537234	-0.0687717391	-0.213641
C	-2.8598595534	-3.7427088823	-0.0353694431	 0.0565
C	-3.5884133825	-4.1446484047	 1.2528425545	-0.380801
C	-3.6276010752	-4.220774856	-1.2799183237	-0.150103
C	-2.9041302909	-3.9378962302	-2.5976264666	-0.390096
H	 1.0008661183	 1.8645176604	 0.0780167563	 0.120105
H	-0.5227772139	 1.8917105437	-0.8347098275	 0.136229
H	-0.5541408801	 1.8494668628	 0.9369358677	 0.135776
H	 0.5099954072	-0.3981380093	-0.8722485517	 0.107754
H	 0.4771160142	-0.4400416685	 0.9030043344	 0.106992
H	-0.6443153897	-2.3955417992	 0.0420421598	 0.070751
H	-1.865551231	-4.2296288955	-0.0393620644	 0.049118
H	-4.5750835756	-3.6729548781	 1.2936473197	 0.12526
H	-3.717921162	-5.2307082606	 1.3033495895	 0.106136
H	-3.0256112013	-3.8228799395	 2.1341971689	 0.108304
H	-3.806812576	-5.2984205209	-1.1782728712	 0.086941
H	-4.6100605194	-3.7335091834	-1.2827633239	 0.103959
H	-3.4811528627	-4.3060373834	-3.4516061506	 0.109039
H	-2.7471445202	-2.8641861878	-2.734564737	 0.127849
H	-1.9231016717	-4.4272255632	-2.6251373618	 0.103144
