21
gdb 38626	3.28839	1.91464	1.6141	0.0796	85.19	-0.2518	0.0983	0.3501	920.4326	0.187615	-349.925133	-349.919017	-349.918073	-349.955056	27.657	
C	-0.0382544725	 1.5594805467	 0.0974118135	-0.348911
C	 1.5145921963	 1.3583516475	-0.0290117178	-0.065669
C	 1.8882817597	 0.6925245263	 1.3046459248	-0.231624
C	 1.0032802581	-0.5416917706	 1.0878506743	-0.040361
C	 1.5396112956	-1.2813277062	-0.1611099037	-0.050286
C	 0.3274469157	-2.1669816902	-0.5740161258	-0.218539
C	-0.8827348395	-1.1692557508	-0.3788891475	-0.337428
C	-0.0490226914	 0.0265645956	 0.0331475468	 0.36016
C	 1.2234531266	 0.0513633128	-0.8706069664	-0.028193
H	-0.4215799732	 2.0721046655	 0.9863092818	 0.087295
H	-0.4687323088	 2.0085046656	-0.8028699244	 0.097066
H	 2.1523131183	 2.1547476835	-0.4117734429	 0.058637
H	 2.9522257381	 0.4485823061	 1.3897348878	 0.09068
H	 1.5980891875	 1.2894172994	 2.1751194856	 0.089727
H	 0.6636152328	-1.1069160151	 1.9584375084	 0.051842
H	 2.5175296313	-1.7710968639	-0.1728407813	 0.048326
H	 0.4052789163	-2.5140762965	-1.6089635427	 0.095287
H	 0.2427895157	-3.0509261772	 0.0655110392	 0.09484
H	-1.4427427248	-1.0083058178	-1.3048923908	 0.094972
H	-1.585714866	-1.5141998416	 0.3859487056	 0.093727
H	 1.1332592244	 0.1420595209	-1.9545295445	 0.058451
