16
gdb 68699	2.09501	1.7616	1.17766	3.0523	78.71	-0.2467	0.011	0.2578	1078.7521	0.122073	-400.69493	-400.686435	-400.68549	-400.727802	32.333	
C	-0.1023082207	 1.4631997056	 0.0702112203	-0.484128
C	 0.0371068447	-0.0185127575	 0.0509962891	 0.398894
C	 1.1825524359	-0.8591228796	-0.3656430863	-0.360451
C	 0.6077067497	-1.0242242683	 1.0648409187	-0.011215
C	 1.3783439437	-0.8569851031	 2.2428436275	 0.191315
C	 2.0366906739	-0.7047893634	 3.237882162	-0.40217
C	-0.729707627	-1.6879246098	 0.918168372	 0.387958
N	-1.3110216302	-2.6363464693	 1.4888091723	-0.549509
O	-1.1768497004	-0.8134652684	-0.0716435339	-0.303238
H	 0.854319842	 1.9254763687	 0.3279164308	 0.141831
H	-0.4082454572	 1.8337115519	-0.9140585333	 0.142827
H	-0.8510548117	 1.7714079797	 0.8050051737	 0.145469
H	 1.0415048749	-1.6543241629	-1.0906073839	 0.135151
H	 2.1549958038	-0.3776216965	-0.3746230823	 0.141054
H	 2.6099273921	-0.5799841467	 4.1228003905	 0.192682
H	-2.2572652835	-2.7637096005	 1.1264719828	 0.233529
