20
gdb 42070	2.05791	1.91517	1.14443	2.0242	81.66	-0.249	-0.0021	0.247	1105.5753	0.173128	-403.143824	-403.135761	-403.134816	-403.176214	31.66	
C	-0.1083352246	 1.501765246	 0.0350731614	-0.184948
C	 1.2844277993	 2.1741664457	 0.0170540712	-0.248214
C	 2.1475230156	 1.8210239946	 1.1963957537	-0.024014
C	 3.1188202343	 0.9058790901	 1.2383764785	-0.055797
C	 3.5389291961	 0.0109309228	 0.0969304837	-0.140408
O	 2.5394547201	-1.0049147198	-0.1630848715	-0.229616
C	 1.7673723829	-0.8173367597	-1.2789862583	 0.094177
N	 0.5622152749	-0.4508154496	-1.2963201283	-0.208329
C	-0.0662595082	-0.035029422	-0.0467864084	-0.154895
H	-0.6439039863	 1.7795059896	 0.9509832691	 0.096491
H	-0.6875613572	 1.8907621582	-0.809672828	 0.108573
H	 1.7839254741	 1.912698715	-0.9216057621	 0.108259
H	 1.1352944751	 3.2604176277	-0.0012597561	 0.102063
H	 1.9212073018	 2.3583340151	 2.1167328425	 0.091179
H	 3.6359456066	 0.7392256075	 2.1798195657	 0.092698
H	 3.7234059033	 0.5813461396	-0.8216912207	 0.114081
H	 4.4602314148	-0.5200507354	 0.3506268493	 0.116245
H	 2.274028224	-1.0595426712	-2.2177400599	 0.10645
H	 0.4477290679	-0.4372078506	 0.8332401028	 0.113521
H	-1.0948517247	-0.4103213134	-0.0491255848	 0.102484
