15
gdb 26636	3.28553	1.2755	0.92518	5.2297	75.77	-0.2084	-0.0207	0.1877	1186.073	0.112973	-416.858208	-416.849512	-416.848568	-416.891765	31.207	
C	-0.0136025575	 1.5241167041	 0.0774487182	-0.519101
C	 0.0252377038	 0.0298922025	 0.025409316	 0.050649
C	 0.0481349344	-0.7805953629	-1.070968031	 0.313909
N	 0.1224572878	-0.5390960523	-2.4319484625	-0.59518
O	 0.0818387005	-2.0945656355	-0.7153772863	-0.165611
C	 0.0800446378	-2.1490819084	 0.6416956059	-0.133638
C	 0.053907877	-0.8850198335	 1.1498511079	 0.104977
C	 0.0364838043	-0.5327017318	 2.5213918691	 0.203173
N	 0.0178106836	-0.2176043487	 3.6360067253	-0.351145
H	 0.983592694	 1.9627266935	 0.2031118521	 0.142931
H	-0.442645014	 1.9455040135	-0.8383129176	 0.114129
H	-0.6264494083	 1.8707771611	 0.9149573452	 0.149755
H	-0.1140331474	 0.4131896656	-2.6740716846	 0.260151
H	-0.4139326333	-1.1969517019	-2.9841892171	 0.261671
H	 0.0904043871	-3.1282462654	 1.0870557591	 0.16333
