17
gdb 78429	5.2176	1.21886	1.18846	1.9639	70.57	-0.231	0.0743	0.3053	1041.893	0.137007	-421.730101	-421.723529	-421.722585	-421.760723	27.589	
O	-0.0981004864	 1.4160983919	-0.0299916955	-0.431763
C	 0.0047509598	 0.0246240873	-0.0069806819	 0.077009
C	-0.4204131689	-0.6951710396	 1.2588248579	-0.13
C	-1.3141067467	-0.6940507772	 0.0195887127	-0.086736
C	-1.3196750481	-2.1660591294	-0.3386360181	-0.055453
C	 0.0801954262	-2.7892070378	-0.0464055286	 0.025079
O	-0.5199240065	-4.0552103937	 0.3843453935	-0.316333
C	-1.3526259902	-3.012258264	 0.9845890868	 0.052077
C	-0.0865740487	-2.168283516	 1.3759455998	-0.054
H	 0.6461647869	 1.7783252608	 0.4624546165	 0.288145
H	 0.8229655035	-0.3837099321	-0.6013842028	 0.087773
H	-0.6633505356	-0.1005475616	 2.1314891823	 0.093419
H	-2.2163784592	-0.0973253699	-0.0316493361	 0.101769
H	-1.8735622639	-2.5307629101	-1.2022314261	 0.082464
H	 0.9634314058	-2.8473030335	-0.6832022094	 0.094115
H	-2.2020015156	-3.3223424538	 1.5951719838	 0.09255
H	 0.5557865077	-2.5375072712	 2.1741305754	 0.079886
