20
gdb 121510	8.10633	0.42951	0.42417	2.571	82.98	-0.2591	-0.0403	0.2188	2561.574	0.166756	-440.286409	-440.27546	-440.274516	-440.325232	36.322	
C	 0.0015581467	 1.4889518551	 0.1272199393	-0.380749
C	 0.1452607678	-0.031384501	 0.0297411874	-0.152463
C	 0.5993168039	-0.4911381044	-1.3606645249	-0.138739
N	 0.8142336173	-1.9265019282	-1.3909723673	-0.205952
C	 0.12321127	-2.6045290885	-2.1883087217	 0.125082
O	 0.2473904612	-3.9528375406	-2.2323929043	-0.205965
C	-0.4473326584	-4.63498202	-3.2591524406	-0.164378
C	-0.8582287733	-6.0044662532	-2.7381792621	 0.141087
O	-1.2801987206	-6.8762370878	-3.4480648852	-0.228947
H	 0.9528441932	 1.9916444098	-0.0798937969	 0.116502
H	-0.7353580743	 1.868675801	-0.5895085876	 0.113018
H	-0.322726667	 1.7914955239	 1.127263532	 0.116327
H	 0.8687769164	-0.3949521372	 0.7677560261	 0.113129
H	-0.8090859429	-0.5167990296	 0.2683044965	 0.095531
H	-0.1323640657	-0.1580306612	-2.1189110877	 0.077984
H	 1.5527813927	-0.0023709738	-1.6013227659	 0.107667
H	-0.6231186446	-2.1985990737	-2.8899594095	 0.078658
H	-1.35728031	-4.0952347358	-3.5612937938	 0.137752
H	 0.1801952618	-4.7592798067	-4.1507809126	 0.146776
H	-0.7420686043	-6.1190504382	-1.638756971	 0.107683
