21
gdb 95937	1.99711	1.52608	1.19607	2.9954	78.03	-0.2451	-0.0182	0.2269	1161.1153	0.181782	-424.251946	-424.242494	-424.24155	-424.286599	35.546	
C	 0.0853608046	 1.7019173339	 0.3482816684	-0.469681
C	 0.0706306676	 0.188190355	 0.0740628846	 0.199006
C	 0.7822817549	-0.1905692748	-1.2510602627	-0.261921
C	 1.8363022951	-1.26022987	-0.8894274791	-0.213406
C	 2.2085163373	-0.9352828346	 0.5608475586	-0.241441
C	 0.8531588379	-0.6087202249	 1.2023978118	 0.09055
O	 0.9043181171	 0.0180976659	 2.4652170519	-0.42939
C	-1.3735411235	-0.2795672562	 0.1188165393	 0.117327
O	-1.9554309829	-0.8687474598	-0.7563033094	-0.259924
H	 1.1125626697	 2.0776493196	 0.4172974727	 0.111649
H	-0.4019754327	 2.2438960326	-0.4682433308	 0.130559
H	-0.4300345411	 1.9471555253	 1.2814833311	 0.131484
H	 0.0600884457	-0.5466261843	-1.9884655909	 0.12748
H	 1.272999085	 0.6939703929	-1.6698114246	 0.094085
H	 1.393106989	-2.2615746725	-0.9402171669	 0.111204
H	 2.6937772613	-1.2535583284	-1.5669019568	 0.100036
H	 2.7294190719	-1.7406096004	 1.0854102752	 0.106784
H	 2.8522073335	-0.0442577517	 0.5991430204	 0.087695
H	 0.3243667767	-1.5512078445	 1.3916861116	 0.100343
H	 1.4794717568	 0.7874562988	 2.3970883592	 0.281273
H	-1.883596424	-0.0455078921	 1.0823741665	 0.08629
