21
gdb 112582	3.65437	0.90665	0.86987	5.1252	83.58	-0.2414	0.0277	0.2692	1443.1154	0.181814	-383.273346	-383.263532	-383.262588	-383.308003	36.445	
C	-0.6045432631	 1.271600636	 0.0297963244	-0.383539
C	-0.1502167271	-0.1893003473	-0.0538294383	-0.200897
C	 0.9596661408	-0.4150069018	-1.0779173295	 0.091852
C	 1.3436424586	-1.8921071047	-1.3593278318	-0.322855
C	 0.7276211434	-1.7008270149	-2.7847616128	 0.182331
C	-0.5823992858	-2.4552566026	-3.0373182074	-0.451704
N	 0.5990029844	-0.2471504891	-2.5132845266	-0.349277
C	 1.6653593613	-1.9720753077	-3.8890530904	 0.27096
N	 2.4023427488	-2.2065711488	-4.7480938411	-0.346135
H	 0.2284129145	 1.927345678	 0.3045179969	 0.125111
H	-1.0010222518	 1.6283854148	-0.9273318354	 0.117351
H	-1.3924971954	 1.3976920913	 0.777968962	 0.12005
H	 0.2217647145	-0.5150618054	 0.9266640289	 0.104979
H	-1.0065922383	-0.8352359087	-0.288389799	 0.094513
H	 1.8144758805	 0.2203036368	-0.8139159955	 0.081791
H	 2.4140352572	-2.0965908696	-1.3586713694	 0.129451
H	 0.8315900301	-2.639348507	-0.7493802432	 0.113157
H	-1.2686890971	-2.3078363002	-2.1989563983	 0.125125
H	-1.0630381289	-2.0951003967	-3.9525200024	 0.138477
H	-0.3979320822	-3.5276850713	-3.1525402628	 0.1413
H	-0.3234455845	 0.133041919	-2.6992493182	 0.217958
