15
gdb 6014	2.9233	1.75379	1.45215	4.5806	57.94	-0.2484	-0.0345	0.2139	899.7156	0.115287	-436.974764	-436.965524	-436.96458	-437.008772	32.408	
C	-0.002903294	 1.588572969	 0.0361767695	-0.398618
C	 0.0451551952	 0.066733216	-0.0017905967	 0.165921
O	 0.7730677799	-0.376214204	 1.149344858	-0.46494
C	-1.3637322878	-0.5477786865	 0.0629642532	 0.150528
O	-2.3830586768	 0.0741505787	 0.1588651824	-0.230832
C	 0.693552177	-0.4132871445	-1.3165316365	 0.349651
N	 2.0034692122	-0.748420404	-1.2077072528	-0.531576
O	 0.0424518379	-0.4747446444	-2.3423516475	-0.361297
H	 1.0112834109	 1.9951823112	 0.0616130378	 0.121277
H	-0.519108977	 1.9615540422	-0.8498900313	 0.155141
H	-0.5451437573	 1.9190926064	 0.923901758	 0.141689
H	 0.6885305325	-1.3358618651	 1.2158131487	 0.28787
H	-1.3574650429	-1.6642605224	 0.0685052235	 0.076919
H	 2.4844961536	-0.6074239372	-0.3351422243	 0.270179
H	 2.5164920967	-0.9925044652	-2.0388014319	 0.268087
