18
gdb 63866	2.29849	1.60881	1.28242	1.2583	79.96	-0.2261	0.0252	0.2512	1065.8796	0.145317	-401.873696	-401.864736	-401.863792	-401.906685	34.899	
C	-0.0578326481	 1.5553895963	 0.0428373229	-0.453674
C	 0.0440445033	 0.0434044066	-0.0555906568	 0.331042
O	-1.1783673412	-0.5569298121	-0.433507299	-0.467911
C	 1.1706659136	-0.5778903019	-0.9502543499	-0.252935
C	 1.7266134029	-1.2931186088	 0.2823927482	-0.123821
N	 2.0904234131	-0.2384037693	 1.2482643313	-0.380047
C	 0.6728667528	-0.6980115034	 1.1655302465	 0.194114
C	-0.0416294406	-1.221164393	 2.2732944386	 0.15693
C	-0.6966078236	-1.6274860671	 3.1992692715	-0.421019
H	 0.898911996	 1.9843360594	 0.3484052762	 0.140892
H	-0.3499531781	 1.9763130314	-0.9241518457	 0.121918
H	-0.8160546349	 1.8413458268	 0.7818932067	 0.1076
H	-1.812204357	-0.4053513699	 0.2777865188	 0.280072
H	 0.7273135576	-1.2519190583	-1.6836590028	 0.122859
H	 1.8582408598	 0.1205050723	-1.4316274123	 0.107386
H	 2.1748974398	-2.2772863074	 0.3381685742	 0.107238
H	 2.4975218617	-0.6915141041	 2.0667509733	 0.237881
H	-1.261525677	-2.0021151077	 4.0166593683	 0.191477
