21
gdb 106307	3.49052	1.19608	1.0998	1.44	78.23	-0.2419	0.0756	0.3175	1191.3323	0.182556	-424.20965	-424.200959	-424.200015	-424.242611	34.326	
C	-0.1568743575	 1.3347115629	 0.0519106291	-0.262632
O	 0.1343090451	-0.0457238811	-0.0264202755	-0.297556
C	 0.7355122516	-0.5802125645	 1.1052259429	 0.459266
C	 0.0312142073	-0.6268360094	 2.5056302723	-0.329131
C	 1.0289154439	-1.7897207165	 2.7131869416	 0.421257
O	 0.7660902675	-2.7007324079	 3.7329500175	-0.483904
C	 0.837519048	-2.1200964834	 1.1969678412	-0.34995
C	 2.3904545074	-1.0620107234	 2.7142363011	-0.278675
C	 2.1714283283	-0.132061172	 1.4800474315	-0.279665
H	 0.7510836601	 1.9494097436	 0.1278657654	 0.109563
H	-0.6819090728	 1.6011566206	-0.8682255014	 0.127385
H	-0.8055128895	 1.564696437	 0.9095437967	 0.111457
H	 0.1078034496	 0.2366858648	 3.1720670757	 0.087645
H	-0.9996503704	-0.9783949056	 2.4337771022	 0.107197
H	 1.4927930576	-3.3323747047	 3.7683601903	 0.276812
H	-0.1194612951	-2.6062115059	 1.0003734202	 0.106241
H	 1.6501919926	-2.6148509085	 0.6567356246	 0.083703
H	 2.5528235287	-0.5126557188	 3.6459856905	 0.102379
H	 3.226705797	-1.7565523943	 2.5767048158	 0.088697
H	 2.8753301456	-0.3222249526	 0.6649683528	 0.10208
H	 2.2301325152	 0.9276707598	 1.7423370656	 0.09783
