18
gdb 95892	3.12426	1.18128	0.89857	3.9995	76.31	-0.2547	-0.0612	0.1935	1285.4147	0.147732	-439.114563	-439.106031	-439.105087	-439.148028	31.336	
C	 0.1080969823	 1.6601896619	-0.263877392	-0.38731
C	 0.0763156878	 0.1451619412	-0.0561183429	 0.052832
C	 0.6605712694	-0.6311015815	-1.2448720887	-0.234324
C	 0.8363960883	-2.0917901248	-0.8548770322	-0.08678
O	 1.6219135761	-2.2192841429	 0.3418683957	-0.24251
C	 1.45194422	-1.2509269254	 1.2609836247	 0.290844
C	 2.1999278755	-1.5060508103	 2.5405999737	 0.126146
O	 2.8915831954	-2.4668956729	 2.7485740178	-0.24593
N	 0.7698757831	-0.1790785433	 1.1923076277	-0.305433
H	 1.1381955011	 2.0089680004	-0.3897565196	 0.121389
H	-0.4633432469	 1.9428813914	-1.1537142188	 0.111204
H	-0.3170138986	 2.1694529818	 0.6044702008	 0.12958
H	-0.9734604545	-0.1553629708	 0.0798958117	 0.095498
H	 0.0124539465	-0.556598715	-2.1238901881	 0.109946
H	 1.6342279916	-0.2063060588	-1.5172610009	 0.116538
H	-0.1352859447	-2.5704458845	-0.677372605	 0.117737
H	 1.3674118389	-2.6665831772	-1.6164872937	 0.127128
H	 2.0389463086	-0.6921818893	 3.2746672796	 0.103446
