19
gdb 99264	4.21758	0.79587	0.74764	3.1512	69.2	-0.2709	-0.004	0.2668	1565.0786	0.156445	-497.33005	-497.3197	-497.318756	-497.366134	36.494	
C	 0.0728905635	 1.2666413097	 0.3808230536	-0.397546
C	-0.1663636619	-0.21662658	 0.0842764795	 0.134892
O	-0.1556915392	-1.0009510363	 1.2646413595	-0.432867
C	-1.4632275048	-0.3943613879	-0.7070312203	-0.11701
O	-1.7261179993	-1.7836016776	-0.9953738133	-0.231258
C	-2.4242843869	-2.4706517825	-0.0914023095	 0.430886
O	-2.8631035855	-2.025106414	 0.9483663369	-0.398088
C	-2.6355722316	-3.914163301	-0.5049356324	-0.140949
O	-3.4208399512	-4.5959251298	 0.4302242127	-0.418684
H	 0.9935720102	 1.3783191635	 0.9580492527	 0.135137
H	 0.1675923517	 1.8522107368	-0.5401572917	 0.114266
H	-0.750572309	 1.6847982408	 0.9708627357	 0.117918
H	 0.6627102096	-0.6005450663	-0.5237432851	 0.096017
H	-1.0402156428	-0.9849426331	 1.651092234	 0.292448
H	-2.3132980037	 0.0204458525	-0.1568124523	 0.131496
H	-1.3906041201	 0.0926354071	-1.6818697488	 0.126083
H	-3.103263595	-3.9250832186	-1.4999234717	 0.127989
H	-1.6426126823	-4.3762743158	-0.6175754294	 0.131933
H	-3.5808300218	-3.9674178875	 1.1490721999	 0.297338
