18
gdb 59162	2.78258	1.22369	1.08365	4.0101	72.18	-0.2453	0.0072	0.2525	1181.5078	0.146749	-439.071843	-439.06308	-439.062136	-439.105734	32.839	
C	 0.238188901	 1.305123285	 0.3170203824	-0.399301
C	-0.1378946152	-0.1452609243	 0.0020204892	 0.086244
O	-1.5218954485	-0.2678524278	-0.3106608157	-0.431928
C	 0.6023448437	-0.6579711921	-1.2142384013	 0.007063
C	 1.9942978211	-1.2105383149	-1.2238983215	-0.038248
N	 2.305726665	-2.0159953567	-0.0385960822	-0.343031
C	 1.1960156618	-2.8624737231	-0.2478352338	 0.414285
O	 0.763946597	-3.7755480975	 0.3945875713	-0.340706
C	 0.827427187	-2.1387535267	-1.5367148114	-0.246972
H	 1.3051077857	 1.3956899794	 0.5464756966	 0.11507
H	 0.0080570233	 1.9530462932	-0.5345813839	 0.126356
H	-0.3228567073	 1.6702379443	 1.1844877273	 0.109931
H	 0.1082621777	-0.7742826252	 0.8703244283	 0.07705
H	-2.0269021615	 0.0038972401	 0.4622502848	 0.284534
H	 0.3576211532	-0.0911241841	-2.1122971628	 0.105984
H	 2.7874595767	-0.8840529937	-1.8837384549	 0.113968
H	 2.5418729877	-1.6295664607	 0.868513776	 0.240724
H	 0.5196557117	-2.5807035851	-2.4730715983	 0.118979
