11
gdb 21379	5.67019	2.45435	1.71291	4.7734	56.14	-0.2537	-0.0105	0.2431	667.831	0.077156	-389.768221	-389.763148	-389.762204	-389.797278	19.432	
N	-0.0427288854	 1.3521850622	 0.0100710888	-0.412353
C	 1.2894505037	 1.7184584971	-0.0007043881	 0.052136
N	 2.1108282732	 0.6992922245	-0.0146681373	-0.229169
N	 1.2565127998	-0.3620774658	-0.0124017367	 0.115475
N	 1.3940497113	-1.7066705335	-0.021674481	-0.265756
C	 0.1098465932	-2.0717552405	-0.0109665439	 0.033404
N	-0.8361406743	-1.0761316791	 0.0039660288	-0.397941
C	-0.0490978199	-0.0180408928	 0.0023818457	 0.51047
H	-0.8409145175	 1.9623696973	 0.0217125392	 0.295718
H	 1.6097068494	 2.7473134345	 0.0020922096	 0.166346
H	-0.1632246435	-3.116367064	-0.0143750751	 0.13167
