19
gdb 69375	3.24344	1.34958	1.1747	1.1955	75.47	-0.2347	0.0785	0.3132	1115.3481	0.158114	-422.964573	-422.956295	-422.95535	-422.997454	31.736	
C	 0.2411604558	 1.3684360927	-0.3636450416	-0.493657
C	 0.1341988819	-0.0800129188	-0.0251481535	 0.48082
C	-0.8049382465	-0.7472988108	 0.9312694198	-0.34962
C	 0.6934014647	-0.9500892866	 1.0770994275	-0.171743
C	 1.1900163761	-1.8454281745	-0.0557373598	 0.069144
O	 0.5174442204	-1.0266445226	-1.0451050869	-0.329523
C	 2.6864963059	-1.8453723895	-0.2508184194	 0.058718
C	 3.2965086574	-1.4909525697	-1.5367673081	-0.171934
O	 3.3118302315	-0.5775405246	-0.433746158	-0.231425
H	 1.2591415839	 1.6036964238	-0.6866173733	 0.144481
H	-0.4527059208	 1.6287034266	-1.1710700099	 0.127667
H	-0.006698735	 1.9836959927	 0.5061262897	 0.121403
H	-1.2446151468	-0.1027736134	 1.6866367219	 0.114406
H	-1.4435810093	-1.5573864712	 0.5886115207	 0.110912
H	 1.2533408319	-0.6853070072	 1.9638886971	 0.104256
H	 0.82249521	-2.8815752711	-0.0661944298	 0.079079
H	 3.2240740625	-2.5235696503	 0.4158160617	 0.091513
H	 4.2635759536	-1.9112990024	-1.8079633302	 0.112024
H	 2.6453649826	-1.202153983	-2.3571778679	 0.133478
