11
gdb 15462	3.94143	1.85448	1.27118	6.1952	59.89	-0.2968	-0.089	0.2078	856.6513	0.073217	-397.456447	-397.450083	-397.449139	-397.487254	22.708	
O	-0.0274442798	-0.0112371937	 0.0040255105	-0.316567
C	 0.0137094044	 1.1799422531	 0.0095903704	 0.410383
O	-1.0998331428	 1.9783023785	 0.0276509404	-0.223195
C	-0.7302395685	 3.3526134714	 0.0300462124	-0.123081
C	 0.7655662261	 3.3615809837	 0.0113262138	-0.198966
C	 1.20176094	 2.0969428517	-0.0006142183	 0.054116
C	 2.538041636	 1.6227959504	-0.0197985374	 0.245036
N	 3.6272898671	 1.2337159367	-0.0354498216	-0.318071
H	-1.1616063974	 3.8475548868	-0.8493931297	 0.155584
H	-1.1393427122	 3.8384751198	 0.9250496324	 0.155585
H	 1.362194007	 4.2635639116	 0.0084585572	 0.159174
