20
gdb 119184	1.92238	1.16446	0.83886	3.4629	80.46	-0.2673	0.0334	0.3007	1434.9223	0.169535	-403.151559	-403.141372	-403.140428	-403.187089	36.552	
C	-0.0244803762	 1.5151662825	-0.0790962027	-0.418524
C	 0.0871269241	 0.0099621171	 0.0109182727	-0.037872
C	 1.4034069299	-0.7027783971	-0.0727926223	-0.315057
C	 0.6424025758	-0.699154735	 1.2519460783	 0.155602
C	 1.1999268575	 0.0709422166	 2.4436352349	-0.297109
C	 2.282396279	-0.7050668083	 3.205554506	-0.068334
O	 2.8272036711	 0.0527210317	 4.2719718714	-0.414429
C	-0.0289699266	-1.9267878758	 1.6063865578	 0.249324
N	-0.5734834818	-2.903733818	 1.9052652213	-0.357344
H	 0.8554990764	 2.0226800659	 0.323570685	 0.125895
H	-0.1240156729	 1.8171964998	-1.126996581	 0.130683
H	-0.9043973057	 1.8831510976	 0.4585562871	 0.130733
H	-0.7459847746	-0.518406903	-0.4436273697	 0.114334
H	 1.4689700785	-1.632368484	-0.6254072285	 0.13789
H	 2.305377915	-0.0989708364	-0.093488809	 0.126632
H	 1.6318650588	 1.0161756013	 2.1056201795	 0.114878
H	 0.3814157019	 0.3213186481	 3.1311504357	 0.105953
H	 1.8838320436	-1.669018278	 3.5536817854	 0.115504
H	 3.1193539579	-0.9254634653	 2.5343882988	 0.116008
H	 2.1564782584	 0.1238395602	 4.9584718096	 0.285231
