22
gdb 104687	2.39919	1.41624	1.14343	2.6209	81.42	-0.2354	0.0789	0.3143	1191.96	0.194793	-404.299745	-404.290625	-404.28968	-404.333331	35.293	
C	 0.7474373077	 0.687628151	-0.6391904092	-0.383237
C	 0.1188038264	-0.7091460696	-0.5186443918	-0.280613
C	-1.2976919535	-0.7125558283	 0.0365609554	 0.310555
C	-2.3492798989	-0.043614205	-0.8507690757	-0.1175
O	-2.3184062717	 1.3668641589	-0.7338969668	-0.416706
C	-1.8364512414	-1.7699781246	 0.9259305913	-0.080877
C	-0.8079493949	-2.3485898016	 1.8952641611	-0.269194
C	-0.5471312311	-0.890064626	 2.3452112218	-0.158845
N	-1.6271472328	-0.3487559286	 1.44302259	-0.189718
H	 1.7428665515	 0.6209884026	-1.0891216716	 0.10582
H	 0.128680247	 1.3505986667	-1.246310568	 0.147202
H	 0.8553313244	 1.1570768358	 0.3443435114	 0.115896
H	 0.0765325619	-1.1766086491	-1.5108383883	 0.100887
H	 0.7725249535	-1.3517509537	 0.0778840391	 0.098116
H	-2.1655707817	-0.2790344814	-1.9042639026	 0.103653
H	-3.345682531	-0.4327442656	-0.5904232147	 0.087413
H	-2.3318275413	 1.5323523995	 0.2184109747	 0.289747
H	-2.8339657278	-2.1766867978	 0.7820038521	 0.091683
H	-1.2680566053	-2.9519467199	 2.6796546725	 0.113661
H	 0.0203270895	-2.9156216141	 1.4609620677	 0.108089
H	-0.8187883708	-0.6981844485	 3.3848587461	 0.11366
H	 0.4457978905	-0.4713440605	 2.1594259955	 0.110307
