21
gdb 92150	2.88976	1.4889	1.42187	1.601	81.82	-0.231	0.0908	0.3218	1065.1893	0.18343	-387.074697	-387.066562	-387.065617	-387.106841	32.519	
C	-0.2663314771	 1.548289428	 0.0125755658	-0.397188
C	 0.0436750031	 0.054221726	-0.0373317224	 0.116242
O	 0.7295018279	-0.3035191986	-1.254107156	-0.284097
C	 2.0216591908	-0.7767179802	-0.905638867	 0.035432
C	 2.9013578911	 0.3466997727	-0.2738913427	-0.250477
C	 2.4249032419	-0.1413096335	 1.0954692316	-0.132939
C	 0.9362817759	-0.4856158312	 1.0738357267	-0.123219
C	 1.9188319833	-1.4528633239	 0.4946736633	 0.338101
C	 2.1316364408	-2.8906222309	 0.8576480958	-0.524163
H	 0.6446712106	 2.1476003397	 0.0829447877	 0.120788
H	-0.8135897904	 1.8514756656	-0.8846802314	 0.122579
H	-0.8905406453	 1.7724736317	 0.8847947143	 0.10871
H	-0.9089410199	-0.4963784731	-0.0306876729	 0.07338
H	 2.4271062047	-1.3333781269	-1.7505869379	 0.077307
H	 3.9687614869	 0.1455375544	-0.4104035301	 0.096708
H	 2.6837666604	 1.370028539	-0.5937846603	 0.0947
H	 2.9365405135	 0.0052935999	 2.0405059381	 0.080488
H	 0.4877079132	-0.7102899836	 2.0356683899	 0.083717
H	 1.3937846376	-3.5373485949	 0.3680163259	 0.125366
H	 3.1272029541	-3.2412583901	 0.5620314345	 0.118997
H	 2.0368623065	-3.0404522901	 1.9384742772	 0.119568
