24
gdb 5891	3.88352	0.93028	0.91649	0.926	82.62	-0.2439	0.081	0.3248	1466.7759	0.219822	-351.417561	-351.406634	-351.40569	-351.453662	39.508	
C	-0.106703306	 1.4874714091	-0.1428823375	-0.383121
C	 0.008682648	-0.0310867491	 0.0078530984	-0.17242
C	 0.7586799788	-0.4375147781	 1.2719341746	-0.048127
O	 0.8056643281	-1.8491832419	 1.3095928324	-0.288091
C	 1.4654139669	-2.4882541697	 2.412604433	 0.373507
C	 0.773031556	-2.1530009158	 3.7440819334	-0.412853
C	 1.3104399369	-3.980775977	 2.1021260504	-0.39491
C	 2.9558313305	-2.1129739944	 2.4619949202	-0.412918
H	 0.8804083639	 1.9605513081	-0.1936307775	 0.114377
H	-0.6478131259	 1.7527963293	-1.0558035999	 0.115542
H	-0.6435247292	 1.9336420111	 0.7018205057	 0.114379
H	-0.9869703342	-0.4886394149	 0.0329369243	 0.103177
H	 0.5267809004	-0.461917771	-0.8565931915	 0.103173
H	 1.7700951149	-0.0016454383	 1.2577207959	 0.081688
H	 0.2430177776	-0.0285263756	 2.1551076063	 0.081673
H	-0.2991524189	-2.3607141378	 3.6762589394	 0.117687
H	 1.1901183482	-2.7615211348	 4.552572494	 0.112251
H	 0.9043823518	-1.1037942338	 4.024475194	 0.11278
H	 1.7779178401	-4.216277269	 1.1420019137	 0.116673
H	 1.7775424267	-4.5929868754	 2.8790293406	 0.106079
H	 0.251002104	-4.2440749239	 2.0381324909	 0.116695
H	 3.1083004797	-1.0637217603	 2.7313115041	 0.112787
H	 3.4755866281	-2.7205512356	 3.2093994188	 0.11227
H	 3.4237680937	-2.2913150113	 1.4890820366	 0.1177
