19
gdb 51471	2.69443	1.46021	1.26032	3.5152	74.23	-0.2355	-0.0085	0.2271	1068.0382	0.159732	-423.017452	-423.00922	-423.008275	-423.050787	30.686	
O	 1.2945005678	-0.03857136	 0.055927488	-0.258311
C	 0.839343413	 0.9273503157	-0.50130779	 0.186418
C	 0.9470334923	 2.3468658825	 0.0334829845	-0.321469
C	 1.2366136842	 3.3961904732	-1.032024466	-0.078098
C	 2.6041375846	 4.0583392481	-1.2059191401	-0.09303
C	 3.8240817743	 3.4194371186	-0.5619519218	-0.254229
C	 3.8387800461	 1.9732623986	-1.1168970371	-0.092191
O	 2.8635762666	 1.9004219226	-2.1726024748	-0.254129
C	 2.1144101854	 3.082599008	-2.2266079448	 0.081556
H	 0.2610127527	 0.8327379603	-1.4468003715	 0.080455
H	-0.0274739846	 2.57261105	 0.4872880963	 0.127652
H	 1.6732457667	 2.344063575	 0.8521220346	 0.121529
H	 0.4105328676	 4.0658276718	-1.2525534882	 0.092688
H	 2.626649207	 5.1241614573	-1.399733344	 0.093713
H	 4.7181047486	 3.9711558653	-0.8669224048	 0.112974
H	 3.7955220608	 3.4275009997	 0.532406435	 0.11318
H	 4.8103784509	 1.6931730404	-1.5366425928	 0.110774
H	 3.5764023423	 1.2391586348	-0.3478053101	 0.128464
H	 1.8128350237	 3.3403150281	-3.2356409826	 0.102056
