22
gdb 63663	4.25723	0.66712	0.63294	4.3138	88.16	-0.2735	0.0388	0.3124	1816.4176	0.192677	-367.230367	-367.220014	-367.21907	-367.266182	37.785	
C	 0.0029504974	 1.5336876976	-0.1687959638	-0.455067
C	-0.0087170913	 0.0250090913	-0.00219206	 0.322859
C	-1.2100401762	-0.6451658121	-0.6449072747	-0.44709
C	 1.3086350614	-0.7180524899	-0.0381478831	-0.329344
C	 0.533054475	-0.6161108933	 1.2601436916	-0.026097
C	 1.0732029153	 0.1621566377	 2.4403387223	-0.222339
C	 2.0712555091	-0.6866083976	 3.2596608495	-0.331063
C	 2.6141855844	 0.0343957077	 4.408362017	 0.255088
N	 3.0323065021	 0.6228525717	 5.3109331436	-0.306524
H	 0.9020746496	 1.9961836417	 0.2456643506	 0.116628
H	-0.0374101651	 1.7974460823	-1.2319255341	 0.118329
H	-0.8656271547	 1.994458134	 0.3164700874	 0.117549
H	-1.2433514855	-0.4406695227	-1.7215374523	 0.116516
H	-1.1829819871	-1.7313617044	-0.5131312347	 0.111999
H	-2.14723407	-0.278617294	-0.2094343102	 0.116353
H	 1.3567479307	-1.6765308656	-0.5446739194	 0.109505
H	 2.2152022001	-0.1259120607	-0.1263721153	 0.107599
H	 0.0114323723	-1.5252076763	 1.5556122086	 0.080196
H	 1.5797376182	 1.0739184071	 2.1118312085	 0.119548
H	 0.2554406585	 0.479677547	 3.0976929504	 0.120691
H	 1.5844903507	-1.6000799133	 3.6209936846	 0.149764
H	 2.9015409851	-1.0066365281	 2.6201323335	 0.1549
