15
gdb 124161	6.40409	0.76509	0.68699	2.8906	81.58	-0.2147	0.0006	0.2152	1596.7647	0.113731	-412.99618	-412.987256	-412.986312	-413.032111	31.199	
C	-0.0004087524	 1.427160993	 0.0417497538	-0.511285
C	 0.0062053298	-0.0256719364	-0.0005685713	 0.283832
C	 0.013516515	-1.2297878653	-0.037247206	-0.073675
C	 0.005676565	-2.6472309017	-0.0768150789	 0.161711
N	 1.108712942	-3.3565408429	-0.2845328359	-0.284282
N	 0.6309619515	-4.6339626644	-0.2404629184	-0.244706
C	-0.7027348194	-4.6297885496	-0.0103725128	 0.381622
N	-1.4801022002	-5.7706317717	 0.0212266862	-0.613682
N	-1.1381369685	-3.3923720473	 0.1041113983	-0.359474
H	 0.69029113	 1.8049803998	 0.8039028062	 0.151972
H	 0.3024075936	 1.8537216774	-0.9211313865	 0.152305
H	-0.9993486088	 1.8099901847	 0.2769981863	 0.153013
H	 1.2503808469	-5.4046794283	-0.4254211198	 0.275762
H	-1.0710562555	-6.5557007508	 0.5093281383	 0.255636
H	-2.410047739	-5.5668431566	 0.3616352504	 0.27125
