16
gdb 130397	3.0728	1.21635	0.92833	3.337	68.7	-0.219	-0.0009	0.2181	1229.1423	0.124747	-471.18168	-471.172384	-471.17144	-471.217	32.762	
N	 0.0131340093	 1.526186131	 0.2679540829	-0.499262
C	-0.0106924744	 0.0752672169	 0.0216863755	-0.281126
C	-1.4013327904	-0.4450437156	-0.0963751116	 0.442511
C	-2.1287084669	-0.866576657	-1.1708629041	-0.05171
N	-1.753935755	-0.9595218195	-2.5261799514	-0.623699
C	-3.3649637566	-1.2591281511	-0.578746737	 0.418788
O	-4.4007345042	-1.7662545719	-1.2723542258	-0.430529
N	-3.3879423898	-1.0927140825	 0.7180933209	-0.259043
O	-2.1395084122	-0.5547353424	 1.0311680851	-0.22419
H	 0.9759710742	 1.8303058043	 0.3803135344	 0.230109
H	-0.3486874426	 2.0177626434	-0.5442074999	 0.223438
H	 0.5276626963	-0.2467936853	-0.8844194563	 0.108708
H	 0.4712616643	-0.4116034113	 0.8773115113	 0.131237
H	-1.6348436913	-0.052578557	-2.9625675918	 0.247349
H	-2.4534609334	-1.4682106373	-3.0539192283	 0.254606
H	-5.1023233972	-1.9786776249	-0.6428597339	 0.312814
