18
gdb 72151	2.5807	2.02485	1.78032	2.0119	69.03	-0.2085	0.0632	0.2716	864.5001	0.150678	-439.054784	-439.048235	-439.047291	-439.085201	27.885	
O	-0.0399643975	 1.3744597427	 0.0686816761	-0.498867
C	 0.0504690404	-0.0132962431	 0.0346882982	 0.401955
C	 0.8935012584	-0.7848930506	 1.0596645311	-0.262479
N	 0.5409790133	-2.1582258162	 0.6258340356	-0.119326
C	-0.9530178946	-2.0859450207	 0.6979842617	-0.189504
C	-1.3053826049	-0.773078871	-0.0314816762	 0.051806
O	-1.1681336106	-0.9836581646	-1.4594290839	-0.299308
C	 0.2591749134	-0.7790913155	-1.3194649318	 0.014162
C	 0.9033477973	-2.0892652017	-0.8260836615	-0.188288
H	 0.8408498392	 1.7431489169	-0.0588010257	 0.282463
H	 1.9710446906	-0.6104785634	 0.9686515946	 0.095557
H	 0.5870097704	-0.6041541197	 2.0937852471	 0.110676
H	-1.4132661259	-2.9515941915	 0.2173758948	 0.116157
H	-1.2477340728	-2.0627656633	 1.7524152593	 0.105473
H	-2.2385068413	-0.2759068524	 0.2405985394	 0.086258
H	 0.7077167819	-0.2932444448	-2.1896992343	 0.075731
H	 1.9955931355	-2.0685169547	-0.9086386225	 0.100793
H	 0.5224089872	-2.9580700965	-1.3670625418	 0.116741
