17
gdb 37776	3.36653	1.73181	1.30094	1.6791	79.52	-0.2211	-0.0425	0.1786	960.7416	0.138973	-384.626976	-384.62064	-384.619695	-384.657451	26.574	
O	-0.1025710114	 1.5464835527	 0.0114289674	-0.297713
C	 1.3379521501	 1.2308600765	-0.0043888835	 0.000016
C	 1.0747221308	 0.1795519944	 1.1211536683	-0.021261
C	 2.0128775137	-0.9132092332	 1.5003323782	-0.105614
C	 2.708064459	-1.7293822184	 0.6920832215	-0.094858
C	 2.6940765275	-1.7215347639	-0.7586775309	-0.094858
C	 1.9832898383	-0.8969361319	-1.5444950796	-0.105614
C	 1.05253764	 0.1913931543	-1.1354978062	-0.02126
C	-0.0114061431	 0.0745479609	 0.00281944	 0.000015
H	 2.0465693633	 2.0589794685	-0.0070160243	 0.099441
H	 0.6575509754	 0.6718950644	 2.0009880269	 0.085124
H	 2.1346165781	-1.0491479439	 2.5719301051	 0.095019
H	 3.3485545748	-2.4742885675	 1.1571750681	 0.090991
H	 3.3256127955	-2.4611194692	-1.2440638707	 0.090991
H	 2.0844446466	-1.0211625356	-2.619649387	 0.095019
H	 0.6181531623	 0.6928582517	-2.0017456241	 0.085124
H	-0.9382880408	-0.4988446097	 0.0089300505	 0.099441
