21
gdb 86659	2.59047	1.16105	0.87241	2.749	86.66	-0.2362	-0.0234	0.2128	1381.1649	0.181078	-387.126617	-387.116953	-387.116009	-387.161808	35.296	
C	 0.0202053739	 1.5908823841	-0.0781566005	-0.396153
C	 0.0241004032	 0.0617336299	 0.0366196288	-0.006929
C	 0.6887168177	-0.6537725086	-1.1706766623	-0.260361
C	 1.4711558358	-1.8619937562	-0.591271681	-0.151143
C	 2.8264050439	-2.0252984153	-1.2516115464	 0.158464
O	 3.263738753	-3.0488847354	-1.7087358441	-0.254264
C	 1.5960130671	-1.5135760437	 0.8916414022	 0.295902
C	 2.4476398305	-2.3286702755	 1.8146519003	-0.492
C	 0.8127017578	-0.4799084639	 1.2036819527	-0.176133
H	 1.0417519807	 1.9782840636	-0.1601331524	 0.115366
H	-0.5377860079	 1.9174744303	-0.9620795432	 0.115614
H	-0.4451710816	 2.0535008468	 0.7985304677	 0.114351
H	-1.0220706491	-0.2678013586	 0.1319430343	 0.08152
H	-0.0262494136	-0.955357863	-1.939651429	 0.109634
H	 1.3955934943	 0.0392255604	-1.6457345374	 0.101773
H	 0.9396582202	-2.8139634007	-0.717304509	 0.092534
H	 3.4228688711	-1.0806933338	-1.2775739984	 0.06947
H	 3.5020720674	-2.3166496195	 1.5123834268	 0.133949
H	 2.3844502195	-1.9632436847	 2.8428405948	 0.124945
H	 2.139166627	-3.3818103239	 1.8055040047	 0.134624
H	 0.7004383392	-0.0837386424	 2.2089028912	 0.088837
