19
gdb 39405	2.40616	2.16751	1.73501	2.4213	73.18	-0.2293	0.0697	0.299	888.7585	0.162739	-422.98234	-422.975783	-422.974839	-423.012956	27.572	
C	-0.1041054764	 1.5190469146	 0.0488033686	-0.290329
C	 1.4564697308	 1.4896420748	-0.0213026491	 0.065494
O	 2.1568782735	 1.6162089722	 1.1936373497	-0.247839
C	 1.4485051429	 1.319839055	 2.3881397845	-0.072885
C	 0.8439068557	-0.1033070919	 2.4896559175	-0.236911
C	 0.551927244	-0.7951480571	 1.1612818732	 0.10278
O	 1.7927013328	-0.9682281822	 0.4161318662	-0.290856
C	 1.353489678	-0.010940242	-0.5391223579	 0.124122
C	-0.1047747839	-0.0156879469	-0.0317994947	-0.101485
H	-0.5889068648	 2.0167380378	 0.8897084788	 0.105105
H	-0.5081915596	 1.9469340721	-0.8736069691	 0.10771
H	 1.9154520442	 2.1974209495	-0.7162208849	 0.08253
H	 2.1839021696	 1.4607977041	 3.1845496407	 0.111065
H	 0.6635348302	 2.0701792558	 2.5510358386	 0.095137
H	 1.5429771078	-0.7628754271	 3.0156279573	 0.120377
H	-0.0696654031	-0.0633448936	 3.0965897838	 0.097598
H	 0.0859679965	-1.7684882786	 1.3507843231	 0.082093
H	 1.6842009844	-0.2176790646	-1.559270203	 0.073535
H	-0.9241698427	-0.5380220619	-0.5255269531	 0.072757
