23
gdb 58560	2.07294	1.45277	1.19998	2.3254	81.39	-0.2414	0.0626	0.304	1211.1628	0.20286	-425.416073	-425.405405	-425.404461	-425.451402	39.64	
C	-0.0313255629	 1.4027744537	-0.3751106439	-0.410307
C	-0.0550524749	-0.0739214747	 0.0465101713	 0.021217
C	 0.7899121904	-0.3143235596	 1.3070521142	-0.409297
C	-1.5011412124	-0.5888619375	 0.1872887267	 0.408955
C	-2.2796214373	 0.0041684756	 1.3545017464	-0.450482
O	-2.2353304682	-0.3667570832	-1.0621582127	-0.326189
C	-2.3186362571	-1.7737926982	-1.341263481	-0.104755
C	-1.6781376022	-2.1291450018	 0.0148615903	 0.002067
O	-0.475831203	-2.863623915	-0.0040022546	-0.421382
H	 0.9898715555	 1.7066794845	-0.6270699841	 0.105829
H	-0.6661942287	 1.5668787358	-1.249040892	 0.132705
H	-0.3773477117	 2.0614715237	 0.4292738224	 0.10758
H	 0.391916182	-0.6581311755	-0.7655621343	 0.082743
H	 0.4462043718	 0.2995021675	 2.1467819895	 0.107986
H	 0.7640877051	-1.3642722621	 1.6077368545	 0.127824
H	 1.8336081466	-0.044538385	 1.1148473908	 0.108653
H	-2.3031858927	 1.0959905784	 1.3005258031	 0.127257
H	-3.3131759488	-0.3530264775	 1.3326689767	 0.114221
H	-1.8352441774	-0.2843594326	 2.3119705788	 0.121434
H	-3.3520642442	-2.1024558934	-1.5070946064	 0.094828
H	-1.6994262736	-2.0705790447	-2.19834566	 0.097837
H	-2.386053871	-2.5511488421	 0.7392006845	 0.071527
H	-0.6904374654	-3.7981097163	-0.0804932801	 0.289748
