17
gdb 41652	3.21314	2.088	1.71008	2.0047	68.81	-0.2486	0.0983	0.347	824.3632	0.139912	-421.777896	-421.772139	-421.771195	-421.807687	24.957	
C	-0.0006781275	 1.4139461335	-0.1577826835	 0.018263
O	 1.2853593038	 1.9741567699	-0.0330973275	-0.271039
C	 1.9453409337	 1.5512756146	 1.1423545633	 0.140369
C	 1.2092957028	 1.5331954568	 2.4871149156	-0.127496
C	 0.3623434473	 0.2569365089	 2.4886075194	-0.127492
C	 1.831830986	 0.2013295041	 2.8445410977	-0.108334
C	 2.1060262973	 0.0175670228	 1.3102081447	-0.133109
C	 0.6301843892	-0.4304716731	 1.1446594234	 0.140367
O	-0.0171395619	 0.0114919046	-0.0308135005	-0.271038
H	-0.6765807284	 1.8633681163	 0.5870008918	 0.090037
H	-0.3480513871	 1.6433023238	-1.1670275386	 0.117021
H	 2.8898899771	 2.0953989432	 1.1930374542	 0.087132
H	 0.9756011973	 2.3621473558	 3.1416533716	 0.09158
H	-0.491572788	 0.1512740742	 3.1442426123	 0.09158
H	 2.3385561967	-0.1339023551	 3.7351362775	 0.100885
H	 2.9198420815	-0.5230615711	 0.83468674	 0.074141
H	 0.4958047102	-1.5121323192	 1.1972253285	 0.087131
