15
gdb 24466	4.01623	1.6171	1.1529	6.6371	85.08	-0.1796	-0.0401	0.1395	984.8495	0.117825	-379.732276	-379.726149	-379.725205	-379.762539	25.305	
N	-0.0210223555	 1.3393653933	 0.0098010856	-0.312382
C	 1.1242116883	 2.1176006797	 0.0028145223	-0.018199
C	 2.3555458648	 1.5338388074	-0.0122111976	-0.250368
C	 2.4546860534	 0.1225992012	-0.0206314176	 0.231875
C	 3.4632160433	-0.8208715726	-0.0353090155	-0.181927
N	 2.9563217085	-2.0996779735	-0.0372956911	-0.244103
C	 1.6305238359	-2.0196139338	-0.0240307062	-0.168046
C	 1.2077391293	-0.6626139229	-0.0127033819	 0.201651
C	 0.0037623616	-0.0154760527	 0.0023941357	-0.095528
H	-0.9136585292	 1.8058507653	 0.0209268151	 0.270544
H	 0.9578873811	 3.1854288803	 0.0100871084	 0.129388
H	 3.2362267069	 2.1664194654	-0.0173693044	 0.11014
H	 4.5319406554	-0.6561454785	-0.0447311672	 0.090851
H	 1.0054216598	-2.9035071825	-0.0226993487	 0.09327
H	-0.9608597836	-0.509993526	 0.0091049729	 0.142835
