19
gdb 90964	2.78551	1.65055	1.38783	1.5561	74.5	-0.2306	0.0773	0.3079	1011.4314	0.158505	-422.972651	-422.964761	-422.963817	-423.004653	31.257	
C	-0.3189219277	 1.5829728115	 0.5573439369	-0.404993
C	-0.0967628537	 0.0808961649	 0.4738812305	 0.110764
O	 0.4420778573	-0.2863192208	-0.8280423362	-0.292583
C	 1.5950206705	-1.0155758918	-0.5001932417	 0.05196
C	 1.3857297486	-1.8778642127	 0.7763042581	 0.018131
O	 2.7811114901	-1.6869983091	 1.1678414005	-0.349613
C	 2.3637870386	-0.3570966844	 0.6910322606	 0.405035
C	 3.3655172822	 0.7530917758	 0.7205857953	-0.532885
C	 0.9643568367	-0.5132170815	 1.3925602171	-0.134928
H	 0.6225835406	 2.1324558953	 0.4721727652	 0.121835
H	-0.9795248614	 1.9100873425	-0.2505779485	 0.131051
H	-0.7885548918	 1.8466978426	 1.5108090379	 0.117099
H	-1.0580356362	-0.4370487219	 0.5997705495	 0.083258
H	 2.1151092542	-1.3979970504	-1.3763862287	 0.097153
H	 0.9422533562	-2.8643551723	 0.9062030848	 0.091683
H	 4.2760317949	 0.4475251389	 0.195565576	 0.137035
H	 2.9659122434	 1.6420389515	 0.2239637849	 0.135653
H	 3.6325421404	 1.017872325	 1.7482874234	 0.132488
H	 0.8825210571	-0.4055034932	 2.4731589745	 0.081855
