20
gdb 115754	3.31794	0.92853	0.77962	4.9891	80.11	-0.262	0.0395	0.3015	1476.8603	0.170309	-403.146353	-403.13679	-403.135846	-403.181596	34.136	
C	-0.0314579381	 1.5242088197	 0.2811632211	-0.24087
O	 0.6659181509	 0.3292045501	 0.0005224763	-0.243241
C	 0.7375077703	-0.5475582732	 1.0909659885	 0.14367
C	-0.5215237692	-1.3663489633	 1.4966255113	-0.259441
C	 0.3958270356	-2.6165508624	 1.6162852731	-0.233061
C	 1.489867425	-1.8722531895	 0.7960449405	-0.050415
C	 1.50841782	-2.2245347652	-0.7014423452	-0.341898
C	 2.047715768	-3.5622402194	-0.9366627086	 0.256787
N	 2.474052756	-4.6235104287	-1.1036685211	-0.311527
H	 0.4410110809	 2.081905078	 1.1044357302	 0.109192
H	-0.0047350072	 2.1361044543	-0.6232127202	 0.13184
H	-1.0806441864	 1.3339543666	 0.5501488134	 0.1133
H	 1.1724612792	-0.0366023858	 1.9642259064	 0.072642
H	-1.0701862404	-1.0520636505	 2.3866365589	 0.103008
H	-1.2213768433	-1.4450290148	 0.6598383773	 0.111805
H	 0.7133357999	-2.8053343433	 2.6440259227	 0.113184
H	 0.0238474673	-3.5527370864	 1.1947594952	 0.119913
H	 2.5079538208	-1.9321320685	 1.1873349901	 0.091442
H	 0.5007224787	-2.1727631598	-1.1266541699	 0.151833
H	 2.109737462	-1.4929406879	-1.2499785001	 0.161835
