18
gdb 69894	2.89156	1.54921	1.16142	3.9559	77.41	-0.2316	-0.0392	0.1924	1074.1156	0.146144	-401.871204	-401.86303	-401.862086	-401.903664	31.624	
C	-0.0720175168	 1.5401056705	 0.1283100383	-0.503098
C	-0.0723060658	 0.0414900054	 0.0382965037	 0.283762
C	-0.8487856254	-0.8681938885	 0.9523702203	-0.362236
C	 0.652471174	-0.9872361196	 0.8711402797	-0.04496
N	 1.2541642783	-1.6854504197	-0.3323782041	-0.146241
C	 0.2076931993	-2.1937016463	-1.2023322836	-0.274031
C	 0.442942572	-0.7183343353	-1.2131069449	 0.144249
C	 1.0783863927	-0.0859976283	-2.391495529	 0.081428
O	 1.674257284	-0.6982388973	-3.2467618938	-0.261854
H	 0.8856577017	 1.966340746	-0.1914140215	 0.12879
H	-0.8582657377	 1.9814170669	-0.49614354	 0.127273
H	-0.2501123505	 1.8610680885	 1.1590373582	 0.125097
H	-1.1731682957	-0.3817052303	 1.8681471353	 0.12142
H	-1.5448694633	-1.6231168206	 0.605610791	 0.117749
H	 1.3041237669	-0.8669505075	 1.7269660666	 0.109948
H	 0.6151363893	-2.7068942233	-2.0682147897	 0.152673
H	-0.7065316531	-2.6145028951	-0.8012305537	 0.126303
H	 0.9566043701	 1.0168381244	-2.4578536328	 0.073728
