23
gdb 108501	2.54523	1.46466	1.19359	1.2482	84.48	-0.2398	0.0782	0.318	1179.9822	0.206997	-388.300853	-388.292096	-388.291151	-388.334161	34.338	
C	 0.0876296619	 1.5327697781	 0.2148229088	-0.384519
C	 0.0461797559	 0.0016122717	 0.1773717537	-0.249875
C	-1.3385996205	-0.5567687241	-0.1037364607	 0.453962
C	-2.4097728374	-0.4167549347	 1.0285566417	-0.279235
C	-2.5910243541	-1.9607789337	 1.0508526626	-0.23083
C	-1.5527090078	-2.1114524067	-0.0985972191	-0.081086
C	-2.1107803322	-2.4119695771	-1.494333051	-0.233208
C	-2.6583211619	-1.0446128	-1.935523367	-0.092822
O	-1.7703476692	-0.0857839966	-1.3774407937	-0.300339
H	 1.1018642093	 1.8928308497	 0.4124137055	 0.106699
H	-0.2459621492	 1.9486218994	-0.7391251147	 0.13574
H	-0.5652530992	 1.9295674849	 0.9998815341	 0.11315
H	 0.7282870836	-0.3701898005	-0.5975034577	 0.095558
H	 0.3971908188	-0.4084856175	 1.1325155492	 0.089535
H	-2.0296156145	 0.0151335248	 1.9579253631	 0.096672
H	-3.2898409818	 0.1525463353	 0.7202302957	 0.104393
H	-2.2863143476	-2.4351319342	 1.9864663104	 0.099891
H	-3.5967381508	-2.3148338417	 0.8058146172	 0.094586
H	-0.678097493	-2.7177015914	 0.1454953933	 0.0645
H	-1.3043842748	-2.7238407358	-2.1657771647	 0.104222
H	-2.8757897218	-3.1941924154	-1.496013382	 0.098063
H	-2.6722904054	-0.8993719293	-3.0190887262	 0.106384
H	-3.683756608	-0.8947009052	-1.5604700384	 0.088561
