16
gdb 20237	4.22844	2.65626	2.30242	1.6274	65.54	-0.2349	0.0979	0.3327	660.0824	0.133889	-346.553667	-346.548484	-346.54754	-346.582609	22.271	
C	-0.0277125077	 1.5925498643	-0.0049144952	-0.085221
O	 1.3395277842	 2.0435431242	-0.0324450104	-0.281557
C	 2.1574494631	 0.8914158816	 0.0203700983	 0.131271
C	 2.1018571806	 0.0681353711	 1.3150165055	-0.098976
C	 0.6782933124	-0.5078554675	 1.3028592057	-0.072387
C	 1.7906608953	-1.2098802831	 0.5662117259	-0.112347
C	 1.4196117647	-0.297202379	-0.6530773877	-0.098922
C	 0.0567966865	 0.0643629375	 0.0169260149	-0.063034
H	-0.5325627411	 1.9906433555	 0.8848925934	 0.099104
H	-0.544589436	 1.9776073821	-0.8942804225	 0.095738
H	 3.1556193388	 1.1421254988	-0.3398975368	 0.078385
H	 2.6569265708	 0.1998057749	 2.2343924532	 0.086121
H	 0.1812812223	-0.7990502322	 2.2191243974	 0.086109
H	 2.2010087435	-2.2038801833	 0.6501889914	 0.093572
H	 1.5126224517	-0.5184018776	-1.713100767	 0.070829
H	-0.824326739	-0.4647479573	-0.3471284361	 0.071314
