13
gdb 132459	3.25783	1.39434	0.97679	0.7089	66.61	-0.203	-0.0367	0.1663	1076.5818	0.090443	-494.095393	-494.088043	-494.087099	-494.127068	28.311	
N	-0.0053027919	 1.3502401037	 0.1115089781	-0.546063
C	-0.0587072475	-0.0070732232	 0.0390251223	 0.290529
N	-1.1874251776	-0.6553101205	 0.0160344779	-0.333436
C	-1.17239789	-2.0293627925	-0.0056101139	-0.210183
C	-0.008240257	-2.70743794	-0.0135826186	 0.335423
F	 0.1118012141	-4.0292722495	-0.0323905901	-0.060758
N	 1.1871295447	-2.0341764573	-0.0057593777	-0.414012
C	 1.2775592871	-0.654234473	 0.0131969601	 0.391782
O	 2.3393198896	-0.052210465	-0.0022549941	-0.395723
H	 0.8903709698	 1.7707820777	-0.0788826525	 0.275423
H	-0.8446024581	 1.8688623875	-0.0841419288	 0.264102
H	-2.120402214	-2.5501262391	-0.0162588101	 0.126792
H	 2.0541999208	-2.5544940387	-0.0275693927	 0.276123
