19
gdb 102894	3.00014	0.79313	0.64966	1.4976	84.92	-0.2572	0.0321	0.2893	1700.3465	0.154868	-385.810223	-385.799574	-385.798629	-385.846505	37.838	
C	-0.2048851974	 1.3984694524	-0.1083589966	-0.238117
O	 0.1932933733	 0.0521309825	 0.0524006467	-0.234423
C	 0.7080332954	-0.5459942753	-1.1266843373	-0.079194
C	 1.3022096599	-1.9036443317	-0.7282618344	-0.192671
C	 2.4368894433	-1.7558952351	 0.3041435823	-0.363605
C	 3.0230570744	-3.0372047195	 0.6750934405	 0.286946
C	 3.4891158916	-4.1067007655	 0.9646641673	-0.433751
C	-0.3196415583	-0.7000101248	-2.1657109752	 0.329316
C	-1.1633857635	-0.8345451754	-3.0112883859	-0.443731
H	 0.6352333351	 2.0305753563	-0.4355693753	 0.104723
H	-1.0206058082	 1.4966796598	-0.8367206504	 0.122651
H	-0.5509745367	 1.745295463	 0.8677028086	 0.130552
H	 1.514688379	 0.0910809191	-1.5329463722	 0.090397
H	 0.5033881464	-2.5274078082	-0.316984237	 0.130576
H	 1.6742766898	-2.4014791001	-1.6281205364	 0.122149
H	 3.2190293495	-1.1007984398	-0.1033343758	 0.124353
H	 2.044633377	-1.2502210729	 1.1924327485	 0.15149
H	 3.9087216524	-5.0451138941	 1.2297939387	 0.19248
H	-1.9073192029	-0.9536052708	-3.7601257861	 0.199856
