22
gdb 60610	2.5509	1.08924	0.92137	2.581	83.42	-0.2323	-0.0046	0.2276	1391.1487	0.191796	-404.353613	-404.342996	-404.342052	-404.38969	38.261	
C	 2.2692463352	 0.0312000831	 0.6357505122	-0.39954
C	 2.0300319124	-1.4730512862	 0.4703543242	-0.091169
C	 1.7785036098	-1.8252515424	-0.9925743534	-0.008129
N	 1.1510192839	-3.1233345079	-1.2962001593	-0.345042
C	 0.4329313517	-1.8811830115	-1.6318580787	-0.006468
C	-0.8727498404	-1.6216079284	-0.9198414559	-0.396193
C	 3.2483646226	-2.2903676494	 0.9271999077	 0.390552
C	 2.9549159307	-3.6657232791	 1.48694205	-0.488251
O	 4.373753741	-1.8616890211	 0.8028684915	-0.316228
H	 3.1838275631	 0.3279430301	 0.1165531098	 0.138578
H	 1.4305335133	 0.605730076	 0.2318658527	 0.110921
H	 2.3900976016	 0.2949770673	 1.6904824449	 0.117369
H	 1.1612013288	-1.7917340261	 1.0542758877	 0.078951
H	 2.5973643849	-1.5118642136	-1.640098619	 0.093969
H	 1.5679521067	-3.5406937577	-2.1232277197	 0.233615
H	 0.4208606136	-1.6018965042	-2.6853511912	 0.085783
H	-0.8348623616	-1.9490838752	 0.1212120953	 0.128648
H	-1.1249271455	-0.5559562554	-0.942149149	 0.119465
H	-1.6856299973	-2.169491517	-1.4081969922	 0.122632
H	 2.4338017941	-3.5659694437	 2.4471908257	 0.135293
H	 2.2759693198	-4.1993349285	 0.8131107703	 0.16333
H	 3.8812747415	-4.2227967693	 1.6341872062	 0.131915
