17
gdb 95612	2.22285	1.68373	1.03938	3.5616	69.15	-0.2477	-0.0795	0.1682	1120.9648	0.135811	-459.003369	-458.995135	-458.994191	-459.036415	30.944	
O	 0.0499544823	 1.396957064	 0.1424493684	-0.439682
C	-0.0123734777	 0.0079840263	 0.0111631292	 0.051545
C	-1.4609968736	-0.5174016971	 0.011522986	-0.226663
C	-1.4886459066	-2.0445830588	-0.1225071679	-0.230581
C	-0.8231676827	-2.5175653646	-1.4307410357	-0.30906
C	 0.5749555768	-1.9502682307	-1.6030825081	 0.320768
O	 1.5340561913	-2.5745393472	-1.978861475	-0.275545
C	 0.6973019198	-0.44985628	-1.2543654859	 0.279858
O	 1.2994019744	 0.3299899862	-1.9549917403	-0.310485
H	 0.6183023973	 1.7055041111	-0.5812909845	 0.296536
H	 0.5173522181	-0.4847837727	 0.85070819	 0.101523
H	-1.9442478742	-0.1948477457	 0.9381416914	 0.123334
H	-2.0062185357	-0.0455737184	-0.815312258	 0.113586
H	-0.9743646477	-2.4999615485	 0.7331560914	 0.117034
H	-2.5205921347	-2.4060570615	-0.0927145948	 0.11866
H	-0.7714517695	-3.6062437822	-1.5120231284	 0.1328
H	-1.4167058275	-2.1509793706	-2.2822351581	 0.136371
