20
gdb 104080	2.34136	1.47957	1.21319	4.5429	81.6	-0.2138	-0.0238	0.19	1140.0328	0.170456	-403.19553	-403.186217	-403.185273	-403.229259	35.179	
C	-0.0499160231	 1.558157707	 0.1231920855	-0.407256
C	 0.0591463278	 0.0387941623	-0.0391965053	-0.185367
C	 0.7260387619	-0.454652578	-1.3409817621	 0.140096
C	 0.0092207045	 0.0164447386	-2.6094733949	-0.417757
N	 2.1607795599	-0.1338436389	-1.377363676	-0.307804
C	 2.8874450628	-1.2751785256	-1.2099580911	 0.009373
C	 2.1371905075	-2.409949683	-1.2106429788	-0.283341
C	 0.7434090005	-2.0162397456	-1.3067722524	 0.386213
O	-0.2698162642	-2.6872450546	-1.3541427975	-0.384793
H	 0.9305384158	 2.0492906035	 0.1002086856	 0.101386
H	-0.6676518658	 2.0120443909	-0.6567951141	 0.127889
H	-0.505575517	 1.8031233363	 1.0873288581	 0.123919
H	 0.6170229407	-0.3811973799	 0.8067720121	 0.103514
H	-0.9363875887	-0.4172891669	-0.0071876657	 0.127657
H	-0.040654976	 1.1071337878	-2.6733248229	 0.109479
H	 0.5301893475	-0.3514846165	-3.4975420462	 0.125657
H	-1.0059251945	-0.3899715445	-2.6149021723	 0.141761
H	 2.5030158785	 0.7513957484	-1.0404462262	 0.248601
H	 3.9650824826	-1.2011051302	-1.1178167677	 0.130934
H	 2.5009703692	-3.4239668911	-1.1616447783	 0.109839
