19
gdb 95696	3.03665	1.25523	0.96666	4.7422	72.56	-0.2522	0.0036	0.2558	1230.881	0.159575	-460.196266	-460.187775	-460.186831	-460.229442	32.094	
C	-0.0473613173	 1.5999376198	 0.0776769982	-0.399487
C	-0.0415307053	 0.0809786816	-0.0303911271	 0.129827
C	 0.3960600839	-0.404986635	-1.4151487552	-0.203312
C	 0.4197105097	-1.922957907	-1.5658337457	-0.097019
O	 1.545620465	-2.5624252826	-0.9479114997	-0.216954
C	 1.6807833468	-2.6338822121	 0.3974559997	 0.401206
O	 2.5237160604	-3.3481851473	 0.8664109258	-0.313655
C	 0.7569980734	-1.7751193187	 1.271132312	-0.212944
O	 0.8243711786	-0.3947914898	 0.9941447686	-0.250004
H	 0.956755921	 1.9973443873	-0.0989649607	 0.131403
H	-0.7283415353	 2.0367302734	-0.6586213125	 0.116657
H	-0.3665349698	 1.9080665382	 1.0762586856	 0.128459
H	-1.0590699718	-0.3028529851	 0.1662311314	 0.066891
H	-0.3003452388	-0.0044952395	-2.1623999774	 0.106601
H	 1.3907810845	-0.0082836489	-1.649174236	 0.122923
H	-0.5129734902	-2.3707183724	-1.1976196797	 0.110372
H	 0.5176660868	-2.1926164457	-2.619542877	 0.129872
H	-0.2784148524	-2.1481123775	 1.2016584416	 0.107104
H	 1.104022771	-1.9197083287	 2.295477948	 0.142059
