17
gdb 56732	2.43003	1.39867	1.06045	1.1691	72.88	-0.2662	-0.0435	0.2227	1145.7956	0.1346	-418.006916	-417.997756	-417.996812	-418.04104	32.932	
C	 0.4772712258	 1.6408243557	-0.1704639401	-0.402462
C	 0.0861626243	 0.1580599357	 0.0267408113	-0.235055
C	 0.3988560239	-0.6109701406	-1.1796223588	 0.266003
N	 0.6831022453	-1.2138403257	-2.1243986604	-0.329516
C	 0.7550497631	-0.4532951264	 1.2621399172	 0.205495
C	 1.2037749202	-1.8852060807	 1.299394406	-0.277035
N	 2.1890130362	-0.8083274046	 1.2791035746	-0.339584
C	 0.2743108708	 0.096824128	 2.5675115401	 0.145591
O	-0.712981382	 0.7770070182	 2.6947842126	-0.270197
H	 1.5575190088	 1.7450054377	-0.3032512313	 0.135376
H	-0.0181140513	 2.0510064016	-1.0531945021	 0.14168
H	 0.1677375298	 2.2150751045	 0.7035611593	 0.15726
H	-0.9964784199	 0.1083158231	 0.1916761806	 0.153405
H	 1.1453506243	-2.4400387346	 2.2317711506	 0.1326
H	 1.0390489348	-2.470354996	 0.39982682	 0.158372
H	 2.5743200139	-0.7087697185	 0.3412902832	 0.254613
H	 0.9109141718	-0.1980620775	 3.4286471871	 0.103456
