21
gdb 108581	2.58676	1.33172	1.19262	2.2303	77.61	-0.2328	0.0772	0.31	1173.0568	0.183298	-424.217731	-424.208977	-424.208033	-424.250998	33.835	
C	 0.1656097186	 1.5177387498	 0.17058881	-0.379185
C	-0.1075088361	 0.0337995652	-0.1117474288	-0.28424
C	 0.6617810606	-0.5029352424	-1.2982935633	 0.270478
C	 0.3512450162	 0.0432664105	-2.6848376044	-0.158341
O	 0.8573199779	-0.9174678274	-3.6182322081	-0.277012
C	 0.7456250837	-2.2160546587	-3.0196211231	-0.112847
C	 0.9312526306	-1.9909692863	-1.5331427292	-0.189621
C	 2.0596031098	-1.0606213754	-1.1555444375	 0.098353
O	 3.1170562271	-0.7510701865	-2.0115497514	-0.440709
H	 1.2317143803	 1.6935736362	 0.3468597712	 0.126455
H	-0.1397260681	 2.1488126226	-0.670788567	 0.118776
H	-0.3844139355	 1.8569077995	 1.0536239643	 0.113716
H	 0.1493033936	-0.557645891	 0.7753184935	 0.098637
H	-1.1837971387	-0.1176949535	-0.2757221753	 0.094615
H	-0.7362854056	 0.1745757059	-2.80488622	 0.098322
H	 0.841199303	 0.9944262629	-2.9163844733	 0.117493
H	-0.2383928421	-2.6622686371	-3.2284117235	 0.102369
H	 1.5156969695	-2.8431886608	-3.4808526538	 0.118419
H	 0.5850110728	-2.7528211658	-0.8427758552	 0.087253
H	 2.4290695422	-1.1491472761	-0.1381271926	 0.100325
H	 2.7510119205	-0.6855413718	-2.9049006825	 0.296744
