21
gdb 96221	2.38353	1.48558	0.96329	3.4884	86.21	-0.2378	-0.0452	0.1925	1255.0239	0.18376	-387.1295	-387.120681	-387.119736	-387.163435	33.605	
C	-0.074316563	 1.5950024012	-0.0531862432	-0.392133
C	 0.0083478921	 0.0649362316	-0.0098998459	-0.096025
C	 0.8901296126	-0.4866198767	-1.1470687427	-0.199437
C	 0.6801370319	-1.9705554937	-1.4685236144	-0.210447
C	 1.3879080677	-2.9526991753	-0.5336272607	-0.254506
C	 1.1334788933	-2.845938856	 0.9415624116	-0.039606
C	 0.7234922861	-1.825455924	 1.7061378584	-0.131516
C	 0.3932043481	-0.4092093672	 1.3958747243	 0.354862
O	 0.387936638	 0.376025865	 2.3275405723	-0.32707
H	 0.9179626187	 2.0428338443	 0.0627926121	 0.120035
H	-0.4882969668	 1.9246336926	-1.0110259154	 0.101406
H	-0.6987636944	 1.9777944097	 0.7548945648	 0.133481
H	-1.004866373	-0.338863613	-0.1697879996	 0.09667
H	 0.6533896166	 0.094982716	-2.045105365	 0.102294
H	 1.9491532187	-0.2887526197	-0.9323563273	 0.099494
H	-0.3961509534	-2.1860981162	-1.4754238382	 0.101447
H	 1.0357153136	-2.1705626806	-2.4859217181	 0.098245
H	 1.1443007974	-3.9771338733	-0.8433629808	 0.11104
H	 2.477510706	-2.8721999758	-0.6784376895	 0.123405
H	 1.386081639	-3.7581648831	 1.4822650431	 0.103328
H	 0.6916353105	-1.9865028256	 2.7810907842	 0.105033
