17
gdb 67087	2.52802	1.64427	1.37777	2.5592	72.78	-0.2411	-0.0421	0.1989	1000.8891	0.134071	-421.769133	-421.761025	-421.760081	-421.802152	30.251	
C	 0.0404800145	 1.5688849044	-0.0495981501	-0.52812
C	 0.0350854365	 0.0784350895	-0.0066388948	 0.239733
C	 0.5428735745	-1.0196571847	-0.9380648986	-0.173034
C	 1.3582604658	-1.6710089573	 0.1716209004	-0.264669
C	 0.3409803854	-0.9985001307	 1.1390899061	 0.289057
O	-0.9130503494	-1.6757709285	 0.8667746872	-0.335243
C	-0.9055624288	-1.0086970637	-0.3951040141	 0.047439
C	 0.6197492791	-0.7464279397	 2.5805559883	 0.042072
O	 1.6074962117	-0.172421094	 2.9680415186	-0.257751
H	 1.0378372461	 1.9695706302	 0.1603068469	 0.140054
H	-0.2571924787	 1.9186997987	-1.0440935919	 0.129698
H	-0.656063906	 1.9960874741	 0.6797556564	 0.132652
H	 0.7690452169	-0.9445845241	-1.9944040868	 0.096093
H	 1.4143034336	-2.7621408735	 0.2305999131	 0.106245
H	 2.3460309967	-1.2183190314	 0.2767517326	 0.126824
H	-1.8026789297	-1.0184659143	-1.0002747654	 0.112275
H	-0.166930988	-1.117213475	 3.2730139122	 0.096673
