19
gdb 57438	2.63669	1.29248	1.09565	5.7281	76.46	-0.2652	0.0118	0.2769	1181.4923	0.15746	-419.198875	-419.189263	-419.188319	-419.232999	36.04	
C	 0.2137622146	 1.6129800122	 0.3049367264	-0.403649
C	 0.0184211338	 0.1176475843	 0.0485457707	 0.338867
C	 0.6342206064	-0.7287759517	 1.1771466925	-0.412877
O	-1.3790608001	-0.1068876033	-0.0192740765	-0.456643
C	 0.6741815576	-0.28893795	-1.2732422901	-0.03362
N	 0.0308707567	-1.3970398834	-1.9781399668	-0.345819
C	 0.0591645801	-0.0650431324	-2.6193631802	-0.190242
C	-1.1990338767	 0.6052991816	-2.8530200576	 0.336896
N	-2.1658702454	 1.1741548619	-3.1318058991	-0.33829
H	 1.2766704994	 1.8692010023	 0.3557246993	 0.107506
H	-0.255934286	 2.1999975955	-0.4880929105	 0.139469
H	-0.2527309185	 1.8878420831	 1.2547330812	 0.130606
H	 0.136444333	-0.4931589352	 2.1211554262	 0.129671
H	 0.4965153594	-1.7962028261	 0.9746832192	 0.115756
H	 1.7065676239	-0.5361275143	 1.2917101794	 0.107801
H	-1.5049376933	-0.9670756604	-0.443935698	 0.291703
H	 1.7626876266	-0.2572997549	-1.2665619075	 0.096895
H	 0.6977933611	-2.0197126771	-2.4241867324	 0.250692
H	 0.7590021275	 0.0782767881	-3.4393822261	 0.135279
