15
gdb 129975	3.98418	0.99496	0.86859	3.7506	72.79	-0.2274	0.025	0.2524	1306.3094	0.113606	-412.983393	-412.974894	-412.973949	-413.017092	31.267	
N	-0.0510734389	 1.3566932721	-0.0311560967	-0.599935
C	-0.0445671153	-0.0229396476	-0.008446449	 0.411498
N	-1.094965477	-0.8042287718	-0.1763334694	-0.349291
C	-0.576550285	-2.0554038376	 0.0171120052	 0.351033
C	-1.4068564631	-3.3054897857	-0.0654385856	-0.438402
C	-1.915871729	-3.5771493552	-1.4080377612	 0.321835
C	-2.3329397579	-3.8105782793	-2.5099401856	-0.468732
N	 0.7127326307	-2.098936717	 0.2873718891	-0.271506
N	 1.0476998915	-0.7693648838	 0.2680261389	-0.250151
H	 0.7601458413	 1.7858861234	-0.4541674884	 0.256456
H	-0.9104394409	 1.7113724591	-0.4280467817	 0.272051
H	-0.790989328	-4.1429834118	 0.277975738	 0.15102
H	-2.251192331	-3.2163724258	 0.6296020018	 0.146318
H	-2.702547449	-4.0117757276	-3.4844106135	 0.193797
H	 1.9834042616	-0.4833311715	 0.4999334282	 0.274008
