17
gdb 129841	6.82781	0.73406	0.66867	2.7329	72.36	-0.2154	0.0191	0.2345	1610.823	0.135678	-455.138315	-455.129129	-455.128185	-455.174144	32.866	
N	 0.1114838132	 1.3882302701	 0.2754102258	-0.593965
C	-0.0778373892	 0.0447160205	 0.0579444152	 0.490994
C	-1.1567588293	-0.7846102199	 0.177084204	-0.436534
C	-0.6636720039	-2.0338752652	-0.2941898799	 0.399308
C	-1.4163891568	-3.326219286	-0.3953884356	-0.294144
C	-0.595680607	-4.4885959024	-0.943235355	-0.078696
O	-1.4574724103	-5.6189539705	-0.9675490062	-0.425567
N	 0.594821725	-1.965544486	-0.6606178896	-0.220578
O	 0.9744491139	-0.6221396977	-0.4319616991	-0.226128
H	 1.0776708436	 1.6514307977	 0.4091860759	 0.266737
H	-0.5030795059	 1.7958544856	 0.9634997479	 0.265016
H	-2.1444050733	-0.5466705684	 0.534005132	 0.103871
H	-1.8022936154	-3.601446589	 0.5938062737	 0.125802
H	-2.2981020752	-3.184968412	-1.0323134707	 0.127166
H	-0.2219448036	-4.2407095821	-1.9463945121	 0.105829
H	 0.2812930086	-4.659959668	-0.3035791595	 0.10476
H	-0.9591521243	-6.3637082568	-1.3153546069	 0.286129
