18
gdb 106756	2.22106	1.64524	1.14153	2.3449	74.84	-0.2534	0.0193	0.2727	1129.3362	0.145392	-439.048159	-439.03904	-439.038096	-439.082059	33.404	
C	 0.1463580159	 1.3556555678	 0.1872224884	-0.265153
O	-0.1417711972	-0.0218570307	-0.0502323485	-0.276902
C	 0.4989111531	-0.5258245875	-1.1430333352	 0.253305
C	 1.9630173096	-1.0083634519	-1.1266906133	-0.393509
C	 0.8581804654	-1.9489632966	-1.4935108453	 0.361091
C	 0.5120059616	-3.2820408412	-0.9284335907	-0.489122
O	 0.5188352111	-1.6952706347	-2.8987427125	-0.308445
C	 0.0709152542	-0.4151590987	-2.5760745954	 0.3865
N	-0.5231915254	 0.4444975691	-3.2665548484	-0.566914
H	 1.2195453483	 1.5083256852	 0.3636751144	 0.113607
H	-0.1724323196	 1.9736463291	-0.6593908216	 0.14898
H	-0.41252673	 1.6404398082	 1.0804046187	 0.131114
H	 2.6801100012	-0.6845219463	-1.8745976378	 0.126562
H	 2.3473658862	-1.1224502255	-0.1167537038	 0.128342
H	 0.6737558616	-3.280295526	 0.1529101408	 0.139422
H	-0.5363404722	-3.5240894023	-1.1246691081	 0.141943
H	 1.1380312464	-4.0658191413	-1.3676796656	 0.138426
H	-0.6760938202	 0.1157285234	-4.2215976961	 0.230751
