16
gdb 96822	2.84782	1.16285	0.98588	1.9328	74.67	-0.257	0.0038	0.2608	1238.9186	0.121569	-437.832458	-437.823063	-437.822119	-437.867203	33.177	
C	 0.0350986218	 1.4289517163	 0.2743192047	-0.340784
N	 0.001365901	-0.0263419506	 0.3272691514	-0.319955
C	-1.053710221	-0.6301267446	 0.0511567413	 0.403086
O	-2.3063192816	-0.1456039939	-0.3261457064	-0.264861
C	-2.7983106208	-1.488784339	-0.6405149859	-0.129405
C	-2.9758418083	-1.7039224603	-2.0608143367	 0.335744
C	-3.0688038265	-1.9138553937	-3.2409988379	-0.432668
C	-1.4693204284	-2.0944431999	-0.0432754671	-0.00214
O	-0.7215607187	-3.0014918675	-0.7739147285	-0.40375
H	 0.9244712515	 1.7419764573	-0.2816337284	 0.130406
H	-0.8524297596	 1.8789884222	-0.1851371902	 0.129336
H	 0.1389591375	 1.8216366409	 1.2920772568	 0.133893
H	-3.7112642519	-1.6980912767	-0.0773979867	 0.121647
H	-3.1817464177	-2.0876474724	-4.2832509043	 0.213977
H	-1.6407513405	-2.5395931971	 0.9398253561	 0.132367
H	-0.5758062669	-2.639184211	-1.6564751783	 0.293108
