23
gdb 86398	2.61048	1.30117	0.97809	1.8167	85.29	-0.2547	0.0745	0.3293	1307.7633	0.205551	-388.298262	-388.288971	-388.288027	-388.332339	36.023	
C	-0.0750978152	 1.5909213583	 0.0538073611	-0.406455
C	 0.0394935856	 0.0720448649	-0.0535194841	 0.036274
C	 1.0805557239	-0.4284387388	-1.0723699933	-0.221472
C	 1.2694843832	-1.9154256662	-0.7196488802	-0.059723
C	 2.5416780262	-2.5582247975	-1.2664529347	-0.403844
C	 1.157205412	-1.9235774683	 0.8156205494	 0.438674
C	 1.1476918769	-3.1573048837	 1.6071685199	-0.256914
O	 2.3099153487	-2.3240821126	 1.5714256288	-0.26793
C	 0.471830162	-0.6266213886	 1.2546157281	-0.305071
H	 0.8846910675	 2.034695155	 0.3431482038	 0.114421
H	-0.3746122233	 2.0361131446	-0.9010453548	 0.111673
H	-0.816940392	 1.8844783183	 0.8042985076	 0.112301
H	-0.9387192965	-0.3311817827	-0.3516124456	 0.069826
H	 0.7733312951	-0.2709113325	-2.1109517452	 0.091195
H	 2.0280197976	 0.109490485	-0.9261685947	 0.095592
H	 0.398734009	-2.4629591312	-1.1091412625	 0.075182
H	 3.4308873927	-2.0435586825	-0.892519139	 0.127586
H	 2.6231892204	-3.609095422	-0.9715983012	 0.115065
H	 2.5523393297	-2.5168280982	-2.3603781042	 0.107081
H	 0.6203623857	-3.1844100643	 2.5608313011	 0.107647
H	 1.2509591123	-4.1242448606	 1.1134810082	 0.10587
H	 1.2126495591	-0.0154333508	 1.7842558851	 0.114123
H	-0.3606929904	-0.7949561959	 1.9439453766	 0.098899
