23
gdb 117987	2.88137	0.8976	0.82201	1.4307	79.07	-0.2595	0.0716	0.3311	1545.9614	0.201658	-462.555243	-462.543784	-462.54284	-462.591545	41.854	
C	 0.0844995114	 1.3419779956	 0.094319686	-0.228836
O	 0.0040864213	-0.0635190927	 0.0452293833	-0.252797
C	-1.324814529	-0.546810248	-0.08119067	-0.095227
C	-1.2289172434	-2.0663228781	 0.0181709645	 0.101953
O	-0.6068701368	-2.4315070495	 1.2394030186	-0.450634
C	-2.5885888339	-2.7968113684	-0.0867583529	 0.341477
C	-2.354862438	-4.3109198774	-0.0440438286	-0.429161
C	-3.560412544	-2.3686944542	 1.0141538526	-0.402249
O	-3.204762559	-2.4228587382	-1.3260870302	-0.466494
H	 1.1391733833	 1.606943049	 0.202224832	 0.128047
H	-0.305698193	 1.8021762009	-0.8261688416	 0.109676
H	-0.4768559514	 1.7523692426	 0.9480078085	 0.108579
H	-1.9463339401	-0.14378677	 0.7326502665	 0.091859
H	-1.7693129327	-0.2473107996	-1.0395320064	 0.103377
H	-0.6106866441	-2.4055971287	-0.8337477922	 0.053394
H	 0.1235641988	-1.8104617626	 1.3526892103	 0.290661
H	-1.8978536418	-4.6072235135	 0.9025646691	 0.141722
H	-3.3039053033	-4.8400623284	-0.1683635416	 0.115372
H	-1.6774209141	-4.6210641112	-0.8496602696	 0.09854
H	-3.890327041	-1.337840098	 0.8618435305	 0.11894
H	-4.4478719453	-3.0070985278	 1.0016536509	 0.113433
H	-3.077631015	-2.4462506423	 1.9905130939	 0.133077
H	-2.7116154287	-2.8447330895	-2.0383409336	 0.275289
