16
gdb 61746	3.60677	0.91579	0.78776	1.4803	74.71	-0.2461	-0.0531	0.193	1392.0158	0.12195	-434.077258	-434.067289	-434.066345	-434.114121	33.138	
C	-0.0248354702	 1.3181923836	 0.116370442	-0.360834
N	 0.0303467433	-0.1212279108	-0.077627251	-0.095854
C	 0.0229722997	-0.9547957183	 1.109577933	-0.263218
C	-1.3805622184	-1.1801865352	 1.6669019399	 0.155341
O	-1.6137866516	-1.3493902066	 2.8329287489	-0.224588
C	 0.0020008535	-0.7326608459	-1.3016446271	 0.319535
N	-0.0543794594	-2.0087326018	-1.4303628147	-0.538825
C	 0.0555251465	 0.1463161782	-2.4601536645	 0.224501
N	 0.0939005708	 0.7744206282	-3.4306368368	-0.332919
H	 0.8229329612	 1.6507170345	 0.7264332498	 0.142856
H	 0.018349299	 1.8321208089	-0.8438492672	 0.17554
H	-0.9500735301	 1.6163314702	 0.6250504004	 0.142133
H	 0.4297325979	-1.9363270144	 0.8423358304	 0.181463
H	 0.6490890487	-0.5095827976	 1.8886140175	 0.134138
H	-2.1816725348	-1.1873537931	 0.8941187548	 0.095119
H	-0.0228746959	-2.2840517699	-2.4076418456	 0.24561
