20
gdb 118361	1.76094	1.47281	0.93281	3.6964	76.42	-0.242	-0.024	0.218	1314.6515	0.167992	-440.238365	-440.228238	-440.227293	-440.274643	35.03	
C	-0.5319545901	 0.7544069046	-0.4095562716	-0.236807
O	 0.7419919244	 0.1807160566	-0.1768601977	-0.238147
C	 1.1360363372	-0.8098623061	-1.0974666355	-0.091187
C	 0.632766729	-2.226952093	-0.7535578262	-0.065573
C	 0.9730785704	-2.5329133611	 0.7039789597	 0.176894
O	 2.0618823171	-2.8915491574	 1.0675494321	-0.255826
N	-0.8069310403	-2.3572604324	-0.9454468173	-0.068989
C	-1.2584855363	-2.6863220078	-2.2937657929	-0.222231
C	-1.3086514981	-3.7051649754	-1.2102033571	-0.228867
H	-0.6001632722	 1.1676689763	-1.427986569	 0.099782
H	-1.3412825723	 0.0297315364	-0.2690583618	 0.131245
H	-0.6422317249	 1.5724503574	 0.3068618782	 0.124804
H	 0.8215058837	-0.5520554637	-2.1213536171	 0.091887
H	 2.2304234039	-0.8381282767	-1.0709782908	 0.125967
H	 1.2087243777	-2.9341382693	-1.3785149066	 0.077857
H	 0.1284671144	-2.3894568254	 1.4110111281	 0.092429
H	-2.1645688483	-2.1873825482	-2.6244849163	 0.12365
H	-0.5033896875	-2.8197477071	-3.0667517856	 0.116816
H	-0.5835045181	-4.5160258412	-1.2574310308	 0.1212
H	-2.2505057197	-3.9604684166	-0.7344872518	 0.125097
