19
gdb 2337	6.06681	1.2573	1.15645	1.6906	68.37	-0.2566	0.0946	0.3511	1096.161	0.170159	-310.911406	-310.902926	-310.901982	-310.944548	30.111	
C	-0.2390908658	 1.518407795	 0.0161584433	-0.382954
C	-0.1379141287	 0.0007750662	-0.1513530622	-0.153945
C	 1.0633585224	-0.4297622172	-1.0057474632	-0.209987
C	 1.1484712505	-1.9299963438	-1.1483566799	 0.067992
O	 0.183155619	-2.567654931	-1.9977245808	-0.266224
C	 1.5660569654	-2.655383016	-2.3608793021	 0.076308
C	 1.9881896968	-2.0137442365	-3.658027497	-0.418721
H	 0.6554127837	 1.9258604706	 0.5009102653	 0.111907
H	-0.3446873979	 2.0179352248	-0.9534171228	 0.114794
H	-1.1036998476	 1.7945607423	 0.6276128483	 0.113274
H	-0.0692936743	-0.4752214487	 0.8357856587	 0.094022
H	-1.0522644388	-0.3870477853	-0.6153044669	 0.115788
H	 0.9953760449	 0.0414507387	-1.9915012439	 0.099804
H	 1.9936664779	-0.0696112429	-0.5444649612	 0.095545
H	 1.2922828082	-2.4534525554	-0.1986309307	 0.08148
H	 1.9893563979	-3.6506116976	-2.2028035856	 0.083164
H	 1.5444758429	-1.0251207186	-3.7887499275	 0.128441
H	 3.0787885992	-1.9175979127	-3.699399636	 0.120334
H	 1.6764384241	-2.6366485718	-4.5031352657	 0.128977
