20
gdb 58409	1.7854	1.1981	0.88566	3.745	77.5	-0.2469	-0.0349	0.212	1407.1149	0.167784	-440.318616	-440.308073	-440.307129	-440.355572	36.537	
C	 0.0578968926	 1.2845578645	-0.3837632794	-0.379306
C	-0.0675312661	-0.1613594119	 0.1171586717	 0.026502
C	 0.7482140009	-0.4063176672	 1.3935134721	-0.396599
N	-1.4817390013	-0.5671673908	 0.2568935522	-0.064795
C	-2.0960040785	-1.3162868465	-0.8260080229	-0.266307
C	-1.649832554	-2.7701480278	-0.8382762787	 0.158397
O	-1.412353264	-3.3975138279	-1.8360576249	-0.233582
C	-2.2810437273	-0.100907391	 1.2614583836	 0.152722
O	-3.4698492427	-0.3264768094	 1.3702561012	-0.341516
H	 1.1049710194	 1.5322802464	-0.5835497236	 0.124792
H	-0.5091668051	 1.4315986219	-1.3075531006	 0.127504
H	-0.320359924	 1.9903042028	 0.3628423976	 0.125905
H	 0.3378290798	-0.8230672276	-0.6558559779	 0.107653
H	 0.4710448705	 0.2786336355	 2.200002235	 0.129383
H	 0.6159018042	-1.4304678055	 1.7525856497	 0.128726
H	 1.8104305566	-0.2494539412	 1.1839274758	 0.12782
H	-3.1782222487	-1.2956089118	-0.6476722459	 0.172713
H	-1.8889564098	-0.8679686217	-1.8035273457	 0.129267
H	-1.5633301438	-3.2200947998	 0.1774298156	 0.087178
H	-1.7278507986	 0.5145242691	 1.9916281051	 0.083542
