19
gdb 127005	6.40636	0.78707	0.7104	1.145	80.99	-0.2031	0.0253	0.2284	1616.4916	0.159304	-419.218909	-419.209491	-419.208547	-419.254455	33.027	
C	-0.05318735	 1.5269377701	-0.0237148727	-0.391323
C	-0.0056134814	 0.0108721791	 0.0248479764	-0.047854
O	-1.3414931206	-0.472980727	-0.0487120333	-0.275807
C	-1.4826580091	-1.8205580758	-0.0144978539	 0.264006
C	-2.6971143551	-2.4798239671	-0.0777751133	-0.162725
N	-2.4095770088	-3.8083667456	-0.0254469421	 0.067107
C	-3.3480135542	-4.9086661185	 0.0012406164	-0.321217
N	-1.0950926068	-4.0506939057	 0.0739789515	-0.268796
C	-0.5160389798	-2.8464028132	 0.0787612616	-0.120757
H	 0.9592214543	 1.9377377241	 0.0305082611	 0.118511
H	-0.5173528319	 1.8678189514	-0.9533319134	 0.130161
H	-0.6336207146	 1.920853095	 0.8151901769	 0.130127
H	 0.5814387239	-0.3908986911	-0.814127272	 0.103093
H	 0.4647471501	-0.3379131019	 0.9559870211	 0.103135
H	-3.7041997753	-2.1057544389	-0.1570837667	 0.128112
H	-4.108502488	-4.7771974244	-0.7735185443	 0.137344
H	-2.7865237746	-5.8225671639	-0.1909571333	 0.160061
H	-3.8427864508	-4.9884892392	 0.9755561542	 0.138633
H	 0.5577919726	-2.7684287875	 0.1406988656	 0.108189
