19
gdb 62566	2.43714	1.46767	1.18245	2.6218	77.3	-0.2364	-0.0077	0.2287	1121.4568	0.156552	-423.020569	-423.011397	-423.010453	-423.053784	35.324	
C	-0.0214058554	 1.5296935809	 0.0362829989	-0.460156
C	 0.0522019526	 0.0118363106	 0.091125452	 0.261232
C	-1.1815195319	-0.6600165444	-0.4971864433	-0.446258
C	 1.3553620512	-0.7524367917	-0.2586267729	-0.316283
C	 2.5445360889	-0.0757441972	 0.3260804597	 0.421997
O	 3.6400353377	 0.1888559114	-0.088175761	-0.325237
C	 1.9377604471	-0.0276490461	 1.7574090801	-0.445462
C	 0.7051176744	-0.7406893589	 1.1874660318	 0.370054
O	 0.0156065378	-1.7276919826	 1.8501604932	-0.449003
H	 0.8705135902	 2.0179843905	 0.4339244777	 0.128839
H	-0.1434605485	 1.8619152808	-1.0001740125	 0.125765
H	-0.8859876229	 1.8911797647	 0.6045520932	 0.121682
H	-1.3192420082	-0.3543320029	-1.5393763294	 0.11916
H	-1.112380217	-1.7484507252	-0.4570179158	 0.129837
H	-2.0754340137	-0.3635584061	 0.0615452006	 0.126152
H	 1.3506539391	-1.4813302732	-1.060710541	 0.104925
H	 2.5229783805	-0.6848779003	 2.4112510877	 0.11917
H	 1.808705772	 0.9384807276	 2.2525478879	 0.122279
H	 0.6490091162	-2.3454277178	 2.233097873	 0.291308
