18
gdb 99691	2.45954	0.97571	0.72332	3.9777	77.56	-0.2357	0.0359	0.2716	1555.0867	0.145152	-439.089807	-439.079006	-439.078062	-439.127763	37.096	
C	-0.0674281936	 1.4653259515	 0.0795194588	-0.500726
C	-0.0377888257	 0.011040051	 0.0298967725	 0.118039
C	 0.0141106206	-1.1894675514	-0.0240737957	 0.079668
C	 0.0250358891	-2.6453512865	-0.0750194884	-0.333515
C	-1.4232000679	-3.1818236682	-0.1226215333	-0.096542
O	-1.4087164458	-4.5703101954	 0.210553114	-0.418612
C	 0.9073809497	-3.1663887225	-1.2450878258	 0.409545
N	 0.9097735616	-4.5240484248	-1.3636742761	-0.531585
O	 1.5615453274	-2.4318438411	-1.9535910282	-0.35253
H	 0.633714918	 1.8956096816	-0.6437930925	 0.156273
H	-1.06515324	 1.8530907959	-0.1542806097	 0.144055
H	 0.2083359261	 1.8373544438	 1.0724861586	 0.145746
H	 0.464205728	-3.0431836656	 0.8514425119	 0.134192
H	-2.0238772714	-2.6199563056	 0.6027974028	 0.116413
H	-1.8472339077	-3.013811272	-1.122147827	 0.113619
H	-2.2904992735	-4.9262808346	 0.0671951761	 0.296715
H	 0.2175974998	-5.0723747336	-0.8742868869	 0.266079
H	 1.3968367552	-4.9135360726	-2.1544736111	 0.253163
