18
gdb 86871	3.10933	1.10418	0.91607	2.9012	74.18	-0.2471	-0.032	0.2151	1280.117	0.147318	-439.141892	-439.132832	-439.131888	-439.176753	31.77	
C	-0.1242533088	 1.2856746162	 0.3180801274	-0.346555
N	-0.0586552702	-0.1199330601	-0.0078634885	-0.066039
C	-1.1786796584	-0.8305914912	-0.5858530699	-0.200035
C	-0.7195850274	-2.3166119965	-0.6227726623	-0.093166
C	 0.8196954738	-2.2320813034	-0.5033375498	-0.368401
C	 1.1149299972	-0.8284465875	 0.0261297685	 0.41157
O	 2.1878986465	-0.4042007495	 0.3983775895	-0.386215
C	-1.3044494483	-3.0692233558	 0.5545819122	 0.160039
O	-1.9640166597	-4.0711644542	 0.4703144458	-0.245914
H	 0.8547819068	 1.5799284758	 0.69991662	 0.16939
H	-0.3630002691	 1.8902405692	-0.5665772969	 0.125547
H	-0.8874968118	 1.4762956703	 1.0815978525	 0.127284
H	-2.0833689323	-0.6921148373	 0.0218476936	 0.118091
H	-1.4120140248	-0.4654529183	-1.596433931	 0.117129
H	-1.0497545535	-2.8176755583	-1.5334195009	 0.105722
H	 1.2549894829	-2.981442665	 0.1629894016	 0.142815
H	 1.3073746621	-2.3493364146	-1.475711479	 0.143955
H	-1.0703034349	-2.6127075498	 1.5459777272	 0.084784
