21
gdb 97565	2.94781	0.74829	0.67251	3.0132	88.47	-0.2328	-0.0125	0.2203	1776.1973	0.178737	-387.095961	-387.084595	-387.08365	-387.134539	39.09	
C	-0.0785805001	 1.3731649691	 0.2681769679	-0.364515
C	-0.7009669673	 0.5830235929	-0.8975516328	-0.314248
C	-1.7585478541	-0.3293367545	-0.4725922279	 0.061894
C	-2.6302889403	-1.0762640496	-0.1046965603	 0.066901
C	-3.6728898171	-1.9969241384	 0.3363898618	-0.258695
C	-3.1422339579	-3.0125760025	 1.3808113243	-0.388871
C	-4.9247650951	-1.3099046188	 0.9329922944	 0.395623
C	-4.7556881816	 0.0475978682	 1.5793981221	-0.477272
O	-5.9857442811	-1.8861421315	 0.8985214204	-0.302563
H	 0.7072213178	 2.0397103203	-0.0993045166	 0.116349
H	-0.8345582201	 1.9793072124	 0.7748961643	 0.125973
H	 0.3606063131	 0.6961278446	 1.0058829801	 0.127985
H	-1.1004328484	 1.2830324832	-1.6426768032	 0.129556
H	 0.0831607726	 0.0131492287	-1.412498971	 0.130918
H	-4.046613821	-2.5686154368	-0.5211516955	 0.127136
H	-3.9389653777	-3.7076094616	 1.6567475267	 0.137477
H	-2.3044538618	-3.5757249502	 0.9630508719	 0.130509
H	-2.7898295194	-2.5007389759	 2.2812675111	 0.124958
H	-4.5284623546	 0.7923821635	 0.8095902406	 0.153041
H	-5.6722089727	 0.321582213	 2.1026686987	 0.137305
H	-3.9046175034	 0.0490442539	 2.2681841233	 0.14054
