18
gdb 26923	2.25818	1.62689	0.95678	5.4062	83.66	-0.2139	-0.0218	0.1921	1211.1437	0.147138	-402.018459	-402.009134	-402.008189	-402.053192	33.337	
C	 0.0079126578	 1.5090220171	 0.0563661501	-0.506836
C	 0.0241752766	 0.0184797796	-0.0496113098	 0.245659
C	-0.0179195588	-0.8397416598	-1.1488732971	 0.040368
C	-0.0926987689	-0.4287525168	-2.5374480327	 0.063864
O	-0.129239653	-1.1787843412	-3.4946084679	-0.310237
C	 0.0262142617	-2.1957321847	-0.6550913831	 0.182811
C	 0.0037969208	-3.4490678288	-1.4727024495	-0.484519
C	 0.0924932858	-2.1062800139	 0.7072279549	-0.168822
N	 0.0905761346	-0.7667255822	 1.0591607561	-0.305459
H	 0.9126121955	 1.8877882211	 0.5471544772	 0.136729
H	-0.0487564142	 1.9699730051	-0.9303410064	 0.151332
H	-0.8531839515	 1.8621322699	 0.636577912	 0.136685
H	-0.1166094479	 0.6736696195	-2.6971311398	 0.051631
H	 0.8447229855	-3.4845788836	-2.1717769016	 0.139277
H	 0.0484703845	-4.3329874278	-0.8290603503	 0.103898
H	-0.9007632171	-3.5097925114	-2.0852451026	 0.139276
H	 0.1410642766	-2.8753209176	 1.4618680372	 0.123288
H	 0.1321988919	-0.4198312845	 2.0026664135	 0.261054
