17
gdb 78565	2.37039	1.67956	1.24977	2.587	73.08	-0.2349	0.0066	0.2414	1039.0783	0.135141	-421.79556	-421.787561	-421.786617	-421.827891	30.841	
C	 0.1186714545	 1.5799664643	 0.0700466019	-0.527632
C	-0.0204165969	 0.0971800114	-0.0070596699	 0.358586
C	 0.3724751324	-0.9563402967	-0.9872358795	-0.126113
C	 0.9633350934	-1.016741111	 0.4364470109	-0.256609
C	-0.1147562393	-1.5533950102	 1.3209480705	 0.434962
O	-0.1346751044	-2.0813026573	 2.3979350214	-0.346383
C	-1.1848928536	-0.8968519607	 0.4304936955	-0.288795
C	-0.9992587359	-1.6167755429	-0.9435363462	 0.124842
O	-1.7872473459	-1.0879276714	-1.9861868118	-0.439906
H	 1.1053809934	 1.8960612688	-0.2833390446	 0.1302
H	-0.6352462725	 2.0739652972	-0.5519177751	 0.138417
H	-0.0006282509	 1.9387960225	 1.0980360156	 0.133692
H	 1.0345027898	-0.8720081402	-1.8407352137	 0.104126
H	 2.0275350112	-0.9351158797	 0.613925505	 0.111102
H	-2.1697333155	-0.6393147879	 0.8123935121	 0.088201
H	-1.042994389	-2.7158908302	-0.9238221356	 0.0743
H	-2.683716511	-1.4230727858	-1.8819351465	 0.28701
