18
gdb 67341	2.80324	1.95458	1.34913	2.9821	76.01	-0.2396	-0.0231	0.2165	959.1864	0.14852	-401.908175	-401.900807	-401.899863	-401.939871	29.3	
C	-0.0988793197	 1.552283554	 0.0894303227	-0.51097
C	-0.0013012929	 0.0542700877	-0.0050178708	 0.235829
C	 0.7483095684	-0.7441865577	-1.1317164724	-0.114962
C	 2.0497604144	-0.367676877	-0.4192009604	-0.18119
N	 1.1395171353	-0.7039136999	 0.7686997408	-0.189793
C	 0.6475773279	-1.8955936066	-0.0935412297	 0.022069
C	-0.7870708835	-2.1752844231	 0.3068185896	-0.371906
C	-1.2660609889	-0.7234990599	 0.3244158589	 0.392086
O	-2.3660311966	-0.2805874109	 0.5237401108	-0.322151
H	 0.7800423563	 2.0679206927	-0.3027704943	 0.119684
H	-0.9789577664	 1.892203921	-0.4643749167	 0.140968
H	-0.2364200207	 1.8492845046	 1.1335814269	 0.1432
H	 0.5155881574	-0.7632185938	-2.2029773024	 0.071914
H	 2.8978715519	-1.0527620755	-0.5143320994	 0.102408
H	 2.3891019988	 0.6688187128	-0.4425397184	 0.108048
H	 1.3544775944	-2.7241224369	-0.1471229827	 0.084162
H	-1.3465513796	-2.7834069599	-0.4100745374	 0.130662
H	-0.8750175866	-2.6332644616	 1.2970671549	 0.139942
