16
gdb 9534	2.82786	1.92103	1.61577	3.3113	60.55	-0.2522	0.0015	0.2537	875.8489	0.128693	-420.889445	-420.881094	-420.880149	-420.922292	29.428	
C	-0.0604566418	 1.4361450177	 0.0002788291	-0.263912
O	 0.1450651709	 0.0289435238	 0.0426037787	-0.284591
C	 0.727509648	-0.5373460183	-1.106115345	 0.220189
C	 2.148250083	-0.0631365531	-1.3865379948	-0.464765
C	 0.485928161	-2.0603985868	-1.1312849407	-0.117554
O	-0.3368927986	-1.9277747379	-2.3374851231	-0.240052
C	-0.2091227067	-0.5645694506	-2.3448996974	 0.418314
O	-0.7131369151	 0.2145699522	-3.0897652374	-0.332087
H	 0.8857752495	 1.991483405	 0.0354350945	 0.114288
H	-0.6186381894	 1.7350832035	-0.8941963241	 0.145226
H	-0.6435150222	 1.6837686949	 0.8895513749	 0.134977
H	 2.7691218786	-0.2032502039	-0.4963108649	 0.133731
H	 2.5867119247	-0.6276368468	-2.2145036803	 0.133657
H	 2.1633259066	 0.9940327167	-1.6629532149	 0.142571
H	 1.3525605433	-2.6955822706	-1.3216263383	 0.12323
H	-0.1069406017	-2.4266751359	-0.2927458963	 0.136777
