18
gdb 99544	2.21766	1.21915	0.8398	3.4108	78.31	-0.2811	0.0098	0.2909	1368.2549	0.14451	-401.92677	-401.916373	-401.915429	-401.962465	36.867	
C	-0.046393788	 1.581489076	-0.0562009263	-0.405251
C	 0.0066938512	 0.0536968355	-0.0048291677	-0.182151
C	 0.7225069539	-0.4922190422	 1.2501462971	-0.155767
C	-0.0007811747	-0.1244736918	 2.4696223216	 0.286815
N	-0.6000545205	 0.1683836438	 3.4136270235	-0.329708
C	 0.9059858722	-2.0438224526	 1.174345163	-0.047423
O	 1.5786107002	-2.4045003191	-0.0231681863	-0.413704
C	 1.593729735	-2.5629852995	 2.3551142803	 0.275178
C	 2.2164252624	-2.968524459	 3.2993655627	-0.41809
H	 0.9602183353	 2.0139885069	-0.0614006537	 0.11784
H	-0.5567880133	 1.9165617418	-0.9635507858	 0.123445
H	-0.5837688027	 1.9924520063	 0.8038227276	 0.143353
H	-1.0084391256	-0.3595596924	-0.0357294153	 0.114722
H	 0.5392919298	-0.3443268582	-0.8722078792	 0.12766
H	 1.7257355998	-0.0503011668	 1.3139940783	 0.123112
H	-0.0913383525	-2.4936254864	 1.100925663	 0.13637
H	 2.5261142057	-2.3548304506	 0.1456406685	 0.292333
H	 2.7426922219	-3.3361194517	 4.1461475087	 0.211263
