19
gdb 24425	3.37061	1.53613	1.09846	1.6011	82.12	-0.1722	0.0552	0.2274	1097.511	0.164281	-382.116805	-382.109514	-382.10857	-382.148203	29.892	
C	 0.0169061077	 1.5488870907	-0.0371472294	-0.200051
C	 1.477382039	 2.0355991188	 0.0197878134	-0.162444
N	 2.1797318338	 1.6448904212	 1.2539970631	-0.401857
C	 1.8736477473	 0.3154352728	 1.599527825	 0.279645
C	 0.9022164382	-0.4986941171	 1.0626886747	 0.25772
C	-0.0614445714	 0.0093979318	 0.0280715136	-0.332832
C	 1.0497019983	-1.776739005	 1.684823369	-0.282072
C	 2.0909846403	-1.6907369488	 2.5760064417	-0.085719
N	 2.5947932162	-0.4063950662	 2.5156975257	-0.338299
H	-0.5303738764	 1.9819979097	 0.8101083018	 0.093314
H	-0.4607506852	 1.9204347099	-0.9503764072	 0.091626
H	 2.0339780337	 1.6155525537	-0.8277474125	 0.112039
H	 1.5292495244	 3.1249819982	-0.0668259073	 0.096984
H	 1.9488566092	 2.2889616456	 2.0059054515	 0.223707
H	-1.0888133422	-0.3016081011	 0.2532166521	 0.099565
H	 0.168996412	-0.4121986218	-0.9611604298	 0.100739
H	 0.4454136926	-2.6540657102	 1.5068223861	 0.083934
H	 2.5123275058	-2.4186411349	 3.2498305586	 0.11085
H	 3.4121788568	-0.0686055973	 2.9924871998	 0.253149
