19
gdb 65679	3.95117	1.00587	0.95307	4.2318	76.57	-0.2648	0.0063	0.2711	1290.2964	0.158007	-423.017183	-423.008526	-423.007582	-423.050468	32.614	
C	 0.0149047071	 1.6072223728	-0.3590611031	-0.466099
C	 0.0433430225	 0.1408663933	-0.0008437546	 0.411225
O	-1.1334496244	-0.5409632959	-0.4484761672	-0.233897
C	-2.2484456311	-0.399978303	 0.2982293566	 0.157932
O	-3.2957568375	-0.8806034462	-0.0161092729	-0.27581
C	 1.2209787435	-0.7770958426	-0.1508863487	-0.099168
C	 2.5333303592	-0.0912769571	 0.2405866265	-0.248945
C	 1.9359062166	 0.2198514522	 1.6538282898	-0.245275
C	 0.6335631876	-0.4773553147	 1.2424605554	-0.115768
H	 0.9524306359	 2.1038534564	-0.1028047509	 0.131894
H	-0.1501912137	 1.723073227	-1.4347679903	 0.138319
H	-0.792808645	 2.1284839836	 0.1659579701	 0.123227
H	-2.080827987	 0.1912505912	 1.2174500711	 0.0834
H	 1.1186709597	-1.669547518	-0.7556032376	 0.105025
H	 3.3652403209	-0.7956121057	 0.2972936715	 0.114729
H	 2.8456612679	 0.7586572059	-0.3740067335	 0.103173
H	 2.459864965	-0.317401142	 2.446511615	 0.114927
H	 1.8570132075	 1.2712421485	 1.9465442754	 0.10232
H	 0.0353027254	-1.1177584956	 1.8795174574	 0.098789
