17
gdb 73713	2.79853	1.97245	1.36543	0.9699	66.72	-0.2487	0.0574	0.3061	925.0494	0.137283	-458.896302	-458.889601	-458.888657	-458.927005	28.001	
O	 0.1577411223	 1.3956549907	 0.1270698801	-0.497034
C	 0.1000908674	 0.0120355076	 0.0402928533	 0.469892
C	 1.0782617194	-0.6419391223	 1.0019487	-0.306746
C	 1.3521315284	-2.0733651063	 0.5319768969	-0.077402
O	 0.1635074439	-2.7231104211	 0.0845813235	-0.267389
C	-0.6394664264	-1.8951483066	-0.6982881066	 0.126488
C	-1.3106669048	-0.6433589385	-0.0696381778	-0.059315
O	-1.4329726078	-0.0844915914	-1.438125146	-0.336665
C	-0.056861079	-0.6270618075	-1.3904477882	-0.092594
H	-0.51723047	 1.7199185583	-0.4867964237	 0.28819
H	 2.0109796538	-0.0694220327	 1.0222018588	 0.121054
H	 0.660299297	-0.6235582242	 2.0146430289	 0.117042
H	 2.0800833296	-2.0521236146	-0.2935689214	 0.101588
H	 1.7658198301	-2.6966291344	 1.3280541578	 0.116125
H	-1.3020781278	-2.4956975548	-1.3206068655	 0.107074
H	-2.1736368804	-0.5591294889	 0.5918913723	 0.094266
H	 0.5498202543	-0.5160290434	-2.2899425224	 0.095425
