16
gdb 34952	3.63419	1.54371	1.3401	4.9303	72.46	-0.2378	0.0317	0.2695	946.0354	0.128261	-396.872501	-396.866139	-396.865195	-396.903243	25.945	
N	-0.0657988865	-1.1372838346	-0.0774259713	-0.336029
C	-0.018072148	 0.0127118891	 0.0297779207	 0.291479
C	 0.0272308366	 1.4660648285	 0.0741025618	-0.142187
C	-0.3415603315	 2.0881962735	 1.4406067366	-0.065753
N	 0.6751742241	 1.4053503031	 2.3036225529	-0.31312
C	 1.6334295567	 2.3132137709	 1.6332873667	 0.004999
C	 0.5904676828	 3.4095452267	 1.3394868192	-0.033556
N	 1.1405176457	 3.5800506756	-0.0055125038	-0.300795
C	 1.448298296	 2.1312687242	 0.0642841744	-0.036095
H	-0.5690604316	 1.8605034604	-0.7546928933	 0.11278
H	-1.3820080316	 2.0800996911	 1.7583243141	 0.090164
H	 0.5619215189	 1.7200830549	 3.2663030453	 0.22616
H	 2.6333525623	 2.464693488	 2.0316315018	 0.096852
H	 0.359065394	 4.2762764038	 1.9584168389	 0.088282
H	 0.4856614436	 3.8473408934	-0.740197871	 0.216817
H	 2.2068300984	 1.7248311513	-0.6012061331	 0.100003
