19
gdb 57053	2.37597	1.39491	0.97105	3.523	75.66	-0.237	0.0323	0.2693	1227.8123	0.159303	-419.198219	-419.188834	-419.18789	-419.232813	34.264	
C	-0.0788538016	 1.5137782256	 0.0432255568	-0.412918
C	 0.0445808385	-0.0178218996	 0.012343248	-0.106412
C	 0.6802935638	-0.4985311148	-1.2179672947	 0.255127
N	 1.2031105398	-0.9186380838	-2.1605739695	-0.340806
C	 0.822306857	-0.5581001286	 1.2271705285	-0.012916
N	 0.0796874897	-0.3925997	 2.495770466	-0.323642
C	 0.2184185327	-1.8371337242	 2.8234114115	-0.175395
C	 0.8146351657	-2.1110644901	 1.4260224016	 0.098945
O	-0.0713543596	-2.8431717492	 0.6145647763	-0.428969
H	 0.9038348512	 1.9911024636	-0.0179640502	 0.128851
H	-0.688884918	 1.8789383804	-0.7864815909	 0.135655
H	-0.5561209343	 1.8053706945	 0.9822921616	 0.139183
H	-0.9539037407	-0.4651474226	 0.053737285	 0.140871
H	 1.8361598373	-0.1355569714	 1.2269156192	 0.073542
H	 0.5095828652	 0.2370390856	 3.1620100457	 0.22268
H	 0.9035737823	-2.0628672517	 3.6483037779	 0.101163
H	-0.7378313551	-2.3372325886	 3.0055875934	 0.120992
H	 1.8139411708	-2.5601124972	 1.4313385183	 0.082739
H	 0.3406966153	-2.9731578279	-0.2473773645	 0.301311
