22
gdb 6136	2.95017	1.66106	1.36952	1.3001	77.9	-0.2497	0.0706	0.3203	1041.5002	0.198259	-350.20793	-350.198455	-350.197511	-350.241066	36.364	
C	-0.8859946981	 0.9774642455	-0.1131145471	-0.41224
C	 0.166342085	-0.1160180589	 0.0026041268	 0.049479
C	 1.5273906997	 0.0797230007	-0.7200827797	-0.30227
C	 2.2361380253	-0.5765893018	 0.5010928435	 0.422004
C	 2.5506349364	-2.0564138251	 0.3024703846	-0.446532
O	 3.3621428721	 0.1070147949	 1.0240671208	-0.47576
C	 0.94628128	-0.3270617034	 1.3472091548	-0.042721
C	 1.0196183562	 0.8794897231	 2.2788572319	-0.394916
H	-0.4902649633	 1.9541271471	 0.1822762064	 0.115452
H	-1.2394818151	 1.0638823474	-1.1468407362	 0.111167
H	-1.7577139214	 0.7659828778	 0.516469227	 0.111837
H	-0.2791597188	-1.0684293348	-0.3050845489	 0.066974
H	 1.6608319686	-0.3868917485	-1.7009685974	 0.083598
H	 1.798627631	 1.137422274	-0.7886459123	 0.098769
H	 3.3514484427	-2.1887734706	-0.4368087152	 0.100881
H	 2.8768646684	-2.503985593	 1.246581467	 0.121217
H	 1.6770300784	-2.6081543205	-0.0588984731	 0.117673
H	 4.1132461319	-0.0720631105	 0.4484100111	 0.272119
H	 0.6217621139	-1.2019767016	 1.9214367011	 0.057422
H	 1.3630814884	 1.7801746053	 1.7630818523	 0.119743
H	 0.0380081838	 1.0893543195	 2.7165487908	 0.10411
H	 1.7231118949	 0.6892076133	 3.0938197418	 0.121994
