25
gdb 36928	4.19757	0.76651	0.71927	0.1045	92.79	-0.2694	0.0832	0.3526	1707.715	0.230982	-352.364478	-352.354963	-352.354019	-352.401159	35.716	
C	-0.174867187	 1.5040137183	-0.2318082862	-0.234334
C	-0.1952501371	-0.010496272	-0.1815400667	 0.036512
C	-0.151961984	-0.7276780936	 1.1457610115	-0.255033
C	-1.4140414201	-0.7432682822	 0.3169626299	-0.279295
C	 1.2288935887	 2.115341365	-0.1660822188	 0.061209
C	 2.1395536513	 1.8035657231	-1.3694294072	-0.198878
C	 3.2803355902	 2.8437247124	-1.2842211232	-0.206322
C	 2.7031303716	 4.0414463784	-0.4706608396	-0.206674
C	 1.2458686859	 3.6544280511	-0.1362810813	-0.211635
H	-0.6705599821	 1.8494128771	-1.1510413288	 0.089061
H	-0.7769196047	 1.8915656745	 0.6016978029	 0.084738
H	 0.3408169663	-0.4957195315	-0.9931600608	 0.08197
H	 0.4236342085	-1.6432177802	 1.2269805154	 0.107357
H	-0.1481150331	-0.1216529707	 2.0464030771	 0.107187
H	-2.253896646	-0.1494518743	 0.6637043921	 0.107459
H	-1.6991215707	-1.6692095313	-0.1705194038	 0.107656
H	 1.724106557	 1.7463579654	 0.7445377528	 0.066888
H	 2.5097762834	 0.7744949953	-1.3770740403	 0.092142
H	 1.5648010127	 1.9448953542	-2.2948474739	 0.08965
H	 4.1472611555	 2.4179737157	-0.7692655429	 0.09672
H	 3.6272039866	 3.1456224719	-2.2764516467	 0.094463
H	 3.2783918171	 4.1862238586	 0.4493594174	 0.096418
H	 2.7582989805	 4.9837929993	-1.0227639714	 0.094254
H	 0.5646602423	 4.0332678596	-0.9099894573	 0.090353
H	 0.9037832973	 4.0661314261	 0.8184163498	 0.088133
