15
gdb 50292	2.90801	1.41138	1.20229	3.3262	65.83	-0.2427	-0.0472	0.1955	1032.3409	0.111646	-457.747237	-457.739787	-457.738843	-457.779848	27.65	
O	-0.5743079255	 0.7821478822	 0.8233116578	-0.241246
C	 0.2829985261	 0.7365315463	-0.0179022445	 0.152049
C	 1.4649963684	 1.691476069	-0.0638625323	 0.025793
O	 2.6477223455	 0.996098062	-0.5429041903	-0.292447
C	 3.0170318752	 1.7390498549	-1.7194365708	-0.012085
C	 2.834757031	 3.2134670229	-1.2713004741	-0.260772
C	 1.3273143669	 2.7920259185	-1.1391918666	-0.203678
C	 1.6470034419	 1.9467128115	-2.4079978169	 0.430807
O	 1.1366939048	 1.7366884446	-3.4628372986	-0.303102
H	 0.2760921163	-0.0135820657	-0.8395196521	 0.099872
H	 1.6379756856	 2.0933231968	 0.939990145	 0.111451
H	 3.9088388317	 1.3216496016	-2.1772930712	 0.11248
H	 3.3455559892	 3.4902997608	-0.3476122339	 0.13024
H	 3.0072123943	 3.9419886599	-2.0653479509	 0.133844
H	 0.4980028088	 3.4898643946	-1.0666024207	 0.116797
