13
gdb 43501	2.07386	1.90907	1.02308	0.7653	62.24	-0.2846	-0.0466	0.238	1060.2704	0.090467	-489.974766	-489.967444	-489.9665	-490.007264	26.759	
N	-0.0693824685	 1.3355480164	 0.1500287904	-0.472191
C	-0.0460141211	 0.0962123135	-0.0500913771	 0.389058
C	-1.2821688489	-0.7515203208	-0.1089691763	-0.40641
C	-1.1893714475	-1.8889050123	-1.105039217	 0.423355
O	-2.1346620764	-2.4346970957	-1.6135057684	-0.324238
N	 0.1154367401	-2.2983732865	-1.3543880881	-0.412277
C	 1.2903925767	-1.7661902167	-0.8440198007	 0.494366
O	 2.363551352	-2.2691015316	-0.995801195	-0.339662
O	 1.1625796593	-0.5879965339	-0.1630362397	-0.242283
H	 0.8761833146	 1.7211161191	 0.1842572518	 0.245113
H	-1.4437307796	-1.2081932956	 0.877507901	 0.176414
H	-2.1506647604	-0.1333043171	-0.329755814	 0.183181
H	 0.2342793898	-3.123250399	-1.9280749969	 0.285575
