21
gdb 97673	3.0486	0.7912	0.73358	1.8274	88.61	-0.241	0.0398	0.2809	1691.088	0.180666	-387.058225	-387.047923	-387.046978	-387.095694	37.191	
C	 0.3372393486	 1.4220633406	 0.2828408906	-0.363852
C	-0.2986988687	 0.1384022082	-0.2810593844	-0.31542
C	 0.4453625321	-0.4328113062	-1.3991382057	 0.010968
C	 1.0726139581	-0.8989406639	-2.3177917253	 0.052736
C	 1.8231532384	-1.4251541528	-3.4539189553	 0.260912
O	 1.2107877917	-1.0830982968	-4.6855595544	-0.46609
C	 3.3664635724	-1.1642457771	-3.3331039478	-0.2646
C	 3.5282398539	-2.6001140483	-2.769944326	-0.209531
C	 2.1339754308	-2.947361563	-3.3536234404	-0.248948
H	 1.3511672095	 1.2276051701	 0.6428072478	 0.128326
H	 0.395906131	 2.197292196	-0.4860419981	 0.126256
H	-0.2568328086	 1.8078898185	 1.1166325791	 0.115382
H	-0.3818334026	-0.6111093398	 0.5165998227	 0.131632
H	-1.3274991207	 0.3478257043	-0.6013420767	 0.130837
H	 0.8538616021	-0.1927115183	-4.6006940911	 0.278012
H	 3.7835326923	-1.0698023128	-4.3391006797	 0.107884
H	 3.6903861796	-0.3225812837	-2.7180363867	 0.097604
H	 4.3781409996	-3.1844008222	-3.1264854895	 0.100088
H	 3.5274725488	-2.6119439662	-1.6774167215	 0.109471
H	 1.4518480033	-3.5587240257	-2.7611004423	 0.104284
H	 2.2042746385	-3.3535250211	-4.3659341454	 0.114051
