16
gdb 62410	2.45037	1.52181	1.38337	5.0749	74.49	-0.2701	-0.0211	0.2491	1016.425	0.12413	-396.898006	-396.889785	-396.888841	-396.93063	30.693	
C	-0.0734606258	 1.5946895373	-0.0212421497	-0.4452
C	 0.0283466623	 0.065242146	-0.0232650597	 0.045713
C	-1.2830909763	-0.5363279072	 0.2170180203	 0.265755
N	-2.3302160946	-0.9960035199	 0.3838386712	-0.331411
C	 0.7649862976	-0.6573814581	-1.1771895779	-0.044277
C	 2.1997694947	-0.3457521824	-1.1895101745	-0.26467
N	 1.7170832781	-1.3615266266	-0.2066694515	-0.162238
C	 1.1055872565	-0.5989060275	 0.8655148627	 0.34921
N	 1.3132438422	-0.5418578469	 2.097434195	-0.508641
H	 0.8959517721	 2.048737591	-0.2365146953	 0.12883
H	-0.7953313795	 1.9351219848	-0.7682159424	 0.142995
H	-0.400901211	 1.9381025503	 0.9629228819	 0.162566
H	 0.2656740259	-1.2161316955	-1.9587433185	 0.134964
H	 2.8013859864	-0.7912949571	-1.9747842554	 0.147781
H	 2.5710945087	 0.6035571771	-0.8153029645	 0.138113
H	 2.0933246425	-1.1467269655	 2.3674718782	 0.24051
