20
gdb 13712	5.80781	0.75955	0.72313	2.854	72.45	-0.2579	0.0785	0.3364	1588.7178	0.175072	-386.11956	-386.109929	-386.108985	-386.154798	33.734	
C	 0.1734859932	 1.4658060675	-0.3106668747	-0.419169
C	-0.0046035306	 0.0222732809	 0.0852403582	 0.075915
O	 1.1751300963	-0.7792603604	 0.2214437585	-0.264676
C	 0.3699533992	-0.5564423497	 1.3870062826	 0.069597
C	 1.001407654	 0.197178468	 2.5329201235	-0.233787
C	 1.9967932394	-0.6765111966	 3.3076325827	-0.157324
C	 2.6447506261	 0.0593173629	 4.4722979891	-0.076088
O	 3.5225037851	-0.8436412479	 5.1267144914	-0.42054
H	 0.9823601002	 1.9461020273	 0.2428902762	 0.127681
H	 0.4086955293	 1.5354883941	-1.3779678848	 0.12993
H	-0.7520034345	 2.0257073061	-0.136306705	 0.120609
H	-0.8093177659	-0.4862916366	-0.4516965428	 0.084328
H	-0.1852381106	-1.4450842116	 1.7004957771	 0.083984
H	 1.5098641207	 1.091174659	 2.1583506776	 0.102342
H	 0.2032110537	 0.5405022421	 3.205903746	 0.097962
H	 1.4922488369	-1.5687842591	 3.6982450493	 0.104849
H	 2.7807239873	-1.0291883227	 2.6286935847	 0.124521
H	 3.1875312752	 0.9432230972	 4.0978153044	 0.08415
H	 1.8648833932	 0.4268326798	 5.1606231509	 0.080658
H	 3.9490310721	-0.3772283103	 5.851263335	 0.285058
