20
gdb 79445	2.44198	1.93112	1.34801	1.7867	77.98	-0.2215	0.0748	0.2964	1013.0645	0.17294	-403.092331	-403.084827	-403.083883	-403.123722	30.944	
C	-0.1526918491	 1.5262594433	 0.0130712374	-0.420152
C	-0.0248638182	 0.0127699516	-0.0233051157	 0.083115
C	 0.8093085899	-0.6129634439	-1.1688755392	-0.094078
C	 2.0638314035	-0.3373628002	-0.2431313224	-0.007977
C	 2.7253693404	-1.6443297851	 0.1991493064	-0.248254
C	 1.2673136512	-1.9744628413	 0.5710082796	-0.057782
C	 0.630728765	-2.1042725246	-0.84354238	 0.144663
O	-0.7298046432	-2.4874735511	-0.9009782812	-0.447714
N	 1.059870125	-0.4811653235	 0.9068725671	-0.158725
H	 0.7984769574	 2.0345958191	-0.1699943851	 0.11438
H	-0.8655785837	 1.8624918795	-0.7471597607	 0.114851
H	-0.5207965767	 1.8487399365	 0.9918505631	 0.124696
H	-0.9978080868	-0.4502257169	 0.1516949394	 0.090972
H	 0.7365659145	-0.3023770047	-2.2123212195	 0.061699
H	 2.6059571917	 0.600839982	-0.3542771021	 0.079444
H	 3.2362530792	-2.2799454446	-0.5278245862	 0.094069
H	 3.3550373804	-1.4737719718	 1.0743817158	 0.114286
H	 0.9879915281	-2.7013258569	 1.3346634515	 0.066386
H	 1.2338481268	-2.7548617852	-1.4915051514	 0.063105
H	-0.7911757053	-3.4057120322	-0.621109567	 0.283016
