21
gdb 87226	4.28701	0.7136	0.68276	1.5585	85.47	-0.2529	0.0594	0.3124	1689.3241	0.179337	-387.043015	-387.032593	-387.031649	-387.078485	38.716	
C	-0.0165885821	 1.6848396981	 0.2187081309	-0.463663
C	-0.0647184468	 0.1743322507	 0.0817492775	 0.341754
C	-1.3764974534	-0.4056385358	-0.423378297	-0.259515
C	-1.6979369169	-0.0161720795	-1.884296184	-0.357883
C	-2.924433747	-0.6330322331	-2.3735113046	 0.296255
C	-3.9394288656	-1.1565086434	-2.7491523265	-0.438107
C	 1.2161475745	-0.5444827439	-0.3221103816	-0.367822
C	 0.6915930041	-0.650144428	 1.0903082195	 0.050627
O	 1.3427995695	 0.025417639	 2.1272949403	-0.423703
H	 0.8944500917	 1.9981283721	 0.7309003828	 0.132217
H	-0.0493229955	 2.1789913552	-0.7581154965	 0.113031
H	-0.8682491307	 2.0472008795	 0.8061912976	 0.116229
H	-1.3487782857	-1.4989486274	-0.3581167597	 0.104314
H	-2.2004737243	-0.0762487141	 0.2212566514	 0.110408
H	-1.783159969	 1.0738191795	-1.9689263653	 0.13306
H	-0.8573479411	-0.3061183253	-2.5279968401	 0.130407
H	-4.8346931556	-1.6113860024	-3.0934059546	 0.191626
H	 1.1531184806	-1.4148626132	-0.9680554495	 0.10812
H	 2.101210592	 0.0664901538	-0.4682922949	 0.110507
H	 0.2401687928	-1.5978736729	 1.3865378968	 0.083754
H	 2.1876198285	-0.410249319	 2.2795655276	 0.288383
