20
gdb 113962	5.16979	0.66561	0.63917	1.0376	76.31	-0.2493	0.0713	0.3207	1754.5517	0.170576	-440.225256	-440.2158	-440.214856	-440.261063	33.986	
O	-0.3043173387	 1.3132465978	-0.8812831771	-0.422111
C	 0.0355847717	 0.2813529472	 0.0298332475	-0.063642
C	-1.1898799259	-0.5099798535	 0.4243970859	-0.046297
N	-1.7647625564	-1.3356376394	-0.6597378459	-0.355452
C	-1.2512330197	-1.9897772296	 0.559507259	-0.00789
C	-0.0811367296	-2.9376681204	 0.393543909	-0.247991
C	-0.5545949299	-4.3005738479	-0.0561477874	 0.104031
C	 0.0530966154	-5.5453870757	 0.4256448685	-0.179347
O	-1.205519857	-5.1023683769	 0.9375142847	-0.241273
H	-0.7562462075	 0.876821664	-1.6134642965	 0.28845
H	 0.8029478943	-0.3819016692	-0.3928864683	 0.088148
H	 0.4683909726	 0.7731937874	 0.9074792828	 0.108826
H	-1.8959120286	 0.0549740185	 1.0313391196	 0.091044
H	-2.7795533241	-1.292880706	-0.6408440459	 0.235844
H	-1.9970563327	-2.3604888128	 1.2613085759	 0.102642
H	 0.6235446354	-2.5452263526	-0.3459610857	 0.110568
H	 0.4501119547	-3.0385070869	 1.3473672994	 0.105311
H	-1.05125748	-4.3163557148	-1.0273413264	 0.101835
H	 0.0185559707	-6.4425912193	-0.1908065013	 0.115051
H	 0.8853067454	-5.4984113099	 1.1274217121	 0.112255
