17
gdb 48176	6.25501	0.62616	0.59833	3.4413	78.76	-0.2407	-0.0737	0.167	1785.2249	0.133556	-417.982873	-417.972866	-417.971922	-418.018841	34.928	
N	-0.4309272217	 0.8874360514	 0.9437105389	-0.513297
C	-0.1887586288	-0.0409843976	 0.0980179409	 0.278557
N	-1.122636929	-0.5158100774	-0.7793266341	-0.313787
C	-2.4975905146	-0.0563323577	-0.7667914655	-0.15854
C	-3.3229666365	-0.6323166707	 0.409971184	-0.345807
C	-4.7100667439	-0.1934725849	 0.3613655145	 0.292776
C	-5.8475824169	 0.1865538644	 0.2809388887	-0.437527
C	 1.172303859	-0.6903527386	-0.0441921745	 0.110223
O	 2.1141857154	-0.3753986014	 0.6322884038	-0.231648
H	 0.4334760213	 1.0979033017	 1.4456247137	 0.236449
H	-0.9071379331	-1.3590149374	-1.2852184388	 0.246757
H	-2.4896232852	 1.0339454685	-0.6908463066	 0.154999
H	-2.9621577087	-0.3300835067	-1.7174977669	 0.118657
H	-3.2752030205	-1.7284144458	 0.384196871	 0.120126
H	-2.8529065684	-0.3101973803	 1.3450276762	 0.165344
H	-6.8548974916	 0.518350584	 0.2308067032	 0.196927
H	 1.2552365432	-1.4859058414	-0.8202901883	 0.079791
