21
gdb 100897	2.07741	1.17628	0.91412	3.9508	80.48	-0.225	0.0222	0.2472	1405.0575	0.180223	-420.397464	-420.386452	-420.385508	-420.433836	38.435	
C	-0.2377125479	 1.4033870012	-0.0404124086	-0.318199
N	 0.0866210133	-0.0134220754	-0.0012485031	-0.272652
C	 0.7113422221	-0.4901456774	 1.2230667185	 0.032644
C	-0.1716895905	-0.4608702726	 2.4841611158	-0.415325
C	 1.2216530784	-1.9225922669	 0.9680405062	-0.034316
O	 0.1060233202	-2.7275261927	 0.6580803884	-0.243591
C	 0.3897704942	-4.1115563545	 0.5470165524	-0.247777
C	 2.2278591886	-1.948550507	-0.1188625683	 0.294003
N	 3.0397914435	-2.0169098094	-0.9380243386	-0.332074
H	 0.681333594	 1.9897661928	 0.0723938529	 0.124935
H	-0.6632868649	 1.6452184283	-1.0185508151	 0.125319
H	-0.9492988325	 1.7455965589	 0.7301489214	 0.097288
H	-0.7245225726	-0.5836390832	-0.211183851	 0.22811
H	 1.5991762782	 0.1315749895	 1.3977979163	 0.097376
H	 0.3892389299	-0.7782296989	 3.3701016974	 0.113206
H	-0.538855237	 0.5512395977	 2.6723097259	 0.122983
H	-1.0305869163	-1.1269816466	 2.3660394311	 0.131993
H	 1.7198229644	-2.2969840572	 1.8777038407	 0.105794
H	 0.8091470627	-4.508320319	 1.4832731789	 0.113227
H	-0.5585698711	-4.6106724482	 0.3396321911	 0.13704
H	 1.0928669132	-4.3153077095	-0.2708144424	 0.140017
