16
gdb 69917	2.88968	1.73292	1.40648	2.69	68.54	-0.2387	0.0008	0.2396	931.5575	0.125482	-437.835445	-437.828438	-437.827494	-437.866582	28.482	
O	-0.1273866868	 1.3408049785	 0.0800771376	-0.465583
C	-0.0007902488	-0.0396186467	 0.0002451163	 0.414207
C	-0.3681366251	-0.8120580387	-1.2386850218	-0.361579
C	-1.2249753595	-0.9417093991	 0.0071780281	-0.087526
C	-0.8077785767	-1.9518555085	 1.0766964006	-0.14318
N	 0.6430987766	-2.1958752376	 0.7211335043	-0.322739
C	 0.8554012654	-0.7397345663	 1.0646644044	-0.214078
C	-0.2129530845	-1.0085553788	 2.1781296102	 0.423903
O	-0.3237530632	-0.8471875364	 3.3524856029	-0.318571
H	 0.6017984127	 1.7392062755	-0.4076713032	 0.288455
H	-0.8191232071	-0.2022385475	-2.0142279524	 0.117855
H	 0.23622417	-1.6409505301	-1.582694744	 0.134998
H	-2.226382524	-0.5321502163	 0.0262109571	 0.112146
H	-1.4357429537	-2.8137391163	 1.2922806925	 0.093238
H	 1.066795162	-2.76839437	 1.4512551146	 0.239901
H	 1.8685282227	-0.3915692117	 1.257165223	 0.088552
