22
gdb 8424	3.48688	1.65216	1.63951	0.1822	80.51	-0.261	0.0837	0.3446	957.2297	0.201462	-313.078918	-313.070899	-313.069955	-313.110531	32.468	
C	 0.502134107	 1.2730359139	 0.0337297095	-0.429295
C	-0.0721547908	-0.155859229	-0.0007429679	 0.323109
C	-1.6050721756	-0.0507146404	-0.070950539	-0.426436
C	 0.4785074355	-0.9669281824	-1.2223426062	-0.259097
C	 1.5152470194	-1.9456955987	-0.69442699	-0.020898
C	 2.6681723934	-1.4093286353	 0.1188240409	-0.293299
C	 1.4454857889	-1.954072177	 0.8163882306	-0.020895
C	 0.3639907873	-0.9807086224	 1.2573333908	-0.259095
H	 1.5940254538	 1.2879674349	 0.0842877133	 0.114994
H	 0.2071715784	 1.830951339	-0.862311337	 0.1086
H	 0.125492963	 1.8211369335	 0.904873472	 0.108599
H	-1.923587207	 0.4927438482	-0.9679250003	 0.108031
H	-2.0682389127	-1.0429617976	-0.097869575	 0.107845
H	-2.0051760643	 0.4829008233	 0.7988387595	 0.108031
H	-0.3365262301	-1.531920251	-1.6898364033	 0.090301
H	 0.878162111	-0.2992416406	-1.9950757304	 0.091703
H	 1.6763547116	-2.8627333643	-1.2513275001	 0.075876
H	 3.5658783885	-2.0176705719	 0.1569104778	 0.10521
H	 2.8659954183	-0.3434175131	 0.1338550559	 0.108837
H	 1.5550706869	-2.8773019689	 1.3755758348	 0.075876
H	 0.6903588944	-0.3218395524	 2.0709810593	 0.091703
H	-0.4903639169	-1.5504558178	 1.6414078449	 0.090301
