20
gdb 45547	3.37044	1.33607	1.13783	3.3502	79.35	-0.2502	0.0339	0.284	1132.9835	0.174648	-403.196258	-403.188726	-403.187781	-403.228726	29.804	
N	-0.0593378161	 1.0239395684	-0.6908559548	-0.5418
C	-0.052740147	-0.0726579143	-0.0641870538	 0.405857
C	-1.2753446934	-0.889393982	 0.3023011711	-0.328237
C	-0.7000432055	-2.2673611247	 0.638198958	-0.020445
C	-0.5597471531	-3.2511507875	-0.5398040385	-0.221664
C	 0.6589321435	-4.104543471	-0.1543893391	-0.204765
C	 1.6448671877	-3.0897393413	 0.4683214023	-0.231592
C	 0.7648731061	-1.9546372189	 1.0354709191	 0.115613
O	 1.0735829348	-0.6991040834	 0.3900862999	-0.253581
H	 0.8926578016	 1.379787269	-0.7951152986	 0.218266
H	-1.7586004695	-0.4298958901	 1.1716468706	 0.128359
H	-2.0011011904	-0.8883586513	-0.5126144615	 0.13433
H	-1.2297708963	-2.7512154196	 1.4633686901	 0.077262
H	-1.4668775272	-3.8375281675	-0.7095030425	 0.100292
H	-0.3523676929	-2.6962126171	-1.4637005409	 0.111242
H	 0.3651252804	-4.8513476798	 0.5929619547	 0.100842
H	 1.0895753745	-4.6484404622	-0.999272707	 0.102448
H	 2.2851095961	-3.5388484961	 1.2315762301	 0.102401
H	 2.2996559885	-2.658116824	-0.2939653469	 0.12207
H	 0.899327088	-1.8094626768	 2.1121438879	 0.083104
