16
gdb 4973	3.19933	2.34578	1.37642	0.8383	74.02	-0.2399	-0.0377	0.2022	884.6908	0.13163	-342.84953	-342.842185	-342.84124	-342.881018	27.219	
C	 0.0129682798	 1.5119206308	-0.0460471263	-0.486015
C	 0.0094161249	 0.0075904754	-0.0084081456	 0.282564
N	-0.0108660914	-0.6321252974	-1.1794072977	-0.289617
C	-0.0141723904	-1.9673335801	-1.1472596436	-0.026901
C	 0.0026931137	-2.667243107	 0.0499832868	-0.026901
N	 0.0231016991	-2.0400827505	 1.2289994185	-0.289617
C	 0.0266478896	-0.7057008436	 1.2117242762	 0.282564
C	 0.0495166311	-0.000341052	 2.5407777809	-0.486015
H	 0.9010546153	 1.9238069213	 0.4473915165	 0.13274
H	-0.0016280033	 1.8480708975	-1.083520778	 0.142855
H	-0.857844343	 1.9285088111	 0.4735727288	 0.132764
H	-0.0306828597	-2.4848241774	-2.1030028198	 0.111609
H	-0.0001100939	-3.7540629237	 0.0681169358	 0.111609
H	 0.9321449847	 0.6424213872	 2.6390475686	 0.132743
H	-0.8267263625	 0.6462475841	 2.6672006802	 0.132761
H	 0.0607037261	-0.7395016456	 3.3426994386	 0.142855
