16
gdb 43155	2.6606	1.75459	1.36948	2.9667	69.26	-0.2254	-0.0295	0.196	955.9175	0.125237	-437.825244	-437.818143	-437.817199	-437.85675	27.753	
O	 0.0046881983	-0.0424291922	 0.0767525133	-0.309154
C	 0.0006326858	 1.1483620343	 0.056541041	 0.453366
C	-1.0683586525	 2.2779673568	-0.0204513956	-0.314217
C	-0.6890823111	 3.0438107123	 1.2609402888	-0.078956
O	 0.7644497901	 3.0155689989	 1.1831477172	-0.276206
C	 1.0113954418	 2.3213761101	-0.0517828407	-0.118956
C	-0.043900315	 2.9045069295	-1.0020945114	 0.424637
C	-0.0948627693	 2.9718095303	-2.4710150297	-0.32993
N	-0.0223649017	 4.2028227926	-1.6395860979	-0.386287
H	-2.1167356228	 2.1049976769	-0.2512639673	 0.09825
H	-1.0360018831	 4.0838156503	 1.2656821969	 0.111962
H	-1.0253949886	 2.5457196428	 2.1764806678	 0.119747
H	 2.0747731352	 2.2436564133	-0.2563101133	 0.109369
H	 0.7947895354	 2.7735951127	-3.0619865498	 0.134592
H	-1.0331915908	 2.7289080987	-2.9633812616	 0.124068
H	-0.9381637016	 4.6448909526	-1.5862102277	 0.237714
