21
gdb 115902	3.31508	1.25915	1.09344	2.4954	77.86	-0.2365	0.0761	0.3126	1193.4389	0.184181	-424.205331	-424.197155	-424.19621	-424.238124	31.812	
C	 0.06488462	 1.5957501629	-0.3667523112	-0.237321
O	-0.3287487985	 0.2440953091	-0.4100851052	-0.252648
C	 0.6193403621	-0.6227914975	-1.0072982794	 0.144523
C	 1.8816269781	-0.8136268207	-0.1274179018	-0.215783
C	 2.541014566	-2.2053688287	-0.3067578501	-0.240165
C	 1.4575711444	-3.2279958303	-0.6737302699	 0.103943
C	 0.8402858112	-2.90874985	-2.049728526	-0.251438
C	-0.0498270032	-1.9895853178	-1.19461057	 0.064424
O	 0.2069198267	-2.831676114	-0.0335905246	-0.294095
H	 0.9268079375	 1.7641291529	 0.2948723967	 0.107263
H	 0.3212146479	 1.9758248523	-1.3691772562	 0.099381
H	-0.7837281814	 2.166528573	 0.0185868577	 0.127216
H	 0.8881590818	-0.2248066949	-2.0016677765	 0.058666
H	 2.6100198556	-0.0146521	-0.2899035588	 0.092158
H	 1.5279692111	-0.7324215376	 0.9035189762	 0.12812
H	 3.3103740244	-2.19654174	-1.0881878433	 0.098094
H	 3.0404874725	-2.4893172789	 0.6249116774	 0.105668
H	 1.7315197496	-4.2605914919	-0.4426286576	 0.075385
H	 1.4779684959	-2.4589665691	-2.815182713	 0.093487
H	 0.2846925472	-3.7514836215	-2.4637013517	 0.109363
H	-1.115503659	-1.8886293771	-1.4103683927	 0.083757
