15
gdb 25827	4.25939	1.10139	0.87664	2.7995	73.23	-0.2034	-0.0141	0.1893	1244.0123	0.114885	-450.205512	-450.196958	-450.196013	-450.23885	31.216	
N	-0.0291836534	 1.2976161915	 0.0343399929	-0.536369
C	 0.0224237123	-0.0574031031	-0.0085290359	 0.3324
O	 1.0528832218	-0.7173299249	-0.049057886	-0.402652
C	-1.2990644858	-0.7081896643	-0.0036364893	 0.269287
N	-2.4912057553	-0.1514798944	 0.0426361844	-0.319348
C	-3.3841047421	-1.1912826468	 0.0425868137	-0.163217
C	-2.7132421274	-2.4004334451	-0.0140772744	 0.314434
N	-3.1483584209	-3.7221278182	-0.1177258476	-0.60946
N	-1.3866374033	-2.0740297268	-0.0464947947	-0.316294
H	 0.8275630976	 1.8225836078	 0.0203425381	 0.26193
H	-0.9214338047	 1.763077773	 0.0569506604	 0.276707
H	-4.4511304814	-1.0315546653	 0.0820821519	 0.102452
H	-4.1565398122	-3.7851184244	-0.0650294972	 0.257277
H	-2.7427258952	-4.337415952	 0.578962647	 0.253308
H	-0.5855340599	-2.6805082371	-0.1272721632	 0.279544
