17
gdb 54214	2.62977	1.43851	1.33616	3.1438	67.9	-0.2451	0.0144	0.2595	1035.7291	0.136181	-455.200199	-455.191487	-455.190543	-455.23401	32.128	
C	 0.074755644	 1.4893725325	-0.0371767767	-0.433472
C	-0.0381087061	-0.031430404	-0.0204935338	 0.270311
C	 0.7973011744	-0.7421391004	-1.129025353	-0.221428
N	 1.7243312255	-1.6285658109	-0.4114124812	-0.251491
C	 1.5123326025	-1.4343832523	 0.8188179928	 0.103894
O	 0.5625731929	-0.540971468	 1.2120194908	-0.273061
C	-1.5207763971	-0.4357231694	-0.0942203703	 0.355245
N	-2.0397365345	-0.9660724272	 1.0389630196	-0.52458
O	-2.1501096056	-0.2485261684	-1.1185295311	-0.378198
H	 1.1266043025	 1.7883331282	-0.0355588263	 0.126261
H	-0.4071553173	 1.8725191186	-0.939834511	 0.153821
H	-0.4171687342	 1.9296471035	 0.8348098049	 0.129654
H	 0.1629961822	-1.3097931311	-1.81386303	 0.143989
H	 1.3658946786	-0.0230484828	-1.7285312777	 0.120116
H	 2.0327102526	-1.9203509851	 1.6368096018	 0.141537
H	-1.4565999009	-1.1248375301	 1.8419126393	 0.272151
H	-3.0055237094	-1.2489619531	 1.0431447619	 0.265252
