13
gdb 3754	7.13247	2.20447	1.7057	1.318	57.15	-0.2105	0.0095	0.22	706.6413	0.104073	-336.821088	-336.81443	-336.813486	-336.852076	23.372	
C	 0.0070258914	 1.3788341752	 0.077866405	-0.308012
N	 0.0019080541	-0.0651860187	 0.0235370197	 0.159596
N	-0.0661540525	-0.7335181904	-1.1142593412	-0.217582
C	-0.0701922902	-2.0142091784	-0.7366415755	-0.122796
C	 0.0021960224	-2.0627887339	 0.6691658723	 0.330246
N	-0.0394740469	-3.1635868058	 1.5175303452	-0.59203
N	 0.050734598	-0.8124877859	 1.1335278661	-0.322254
H	 0.8975200559	 1.7323886256	 0.6042434352	 0.147156
H	 0.0107030777	 1.7430501166	-0.9484332528	 0.160088
H	-0.8822011172	 1.7438154246	 0.5997810661	 0.147578
H	-0.1232365439	-2.8123200329	-1.4593196842	 0.113057
H	 0.4553028334	-3.9690653775	 1.1606683896	 0.250211
H	 0.2723985578	-2.9356765585	 2.4522836744	 0.254742
