17
gdb 126731	4.071	0.99513	0.84561	2.8823	86.32	-0.2251	-0.0027	0.2224	1368.9575	0.136165	-380.867188	-380.858566	-380.857621	-380.901143	31.812	
C	-0.0065012081	 1.4995853068	-0.1724422704	-0.373485
C	-0.0478576688	 0.0033365417	 0.1375280368	-0.143233
N	-1.391200572	-0.548384102	 0.0370980301	 0.052884
C	-1.8930065119	-1.3530655221	-0.934862971	-0.029678
C	-3.2163608683	-1.5730726467	-0.6293986172	-0.32811
C	-3.4299128107	-0.8449033076	 0.5678357697	 0.219528
N	-2.3065860855	-0.2232791403	 0.961442732	-0.327223
C	-4.6335142534	-0.7431149554	 1.3100642736	 0.265527
C	-5.6723838456	-0.6773822369	 1.9140676167	-0.430948
H	 1.0136973465	 1.8778017913	-0.0580481969	 0.121152
H	-0.3364533778	 1.6971112571	-1.1966104368	 0.126053
H	-0.6605822498	 2.0425891507	 0.5133152976	 0.153999
H	 0.5831802987	-0.5609101104	-0.5546966411	 0.119556
H	 0.3126014653	-0.1873750132	 1.1523985625	 0.136975
H	-1.2767197376	-1.7011328081	-1.7487971932	 0.133867
H	-3.93056864	-2.1697842567	-1.1713472556	 0.114621
H	-6.5834639712	-0.6129028683	 2.4550843033	 0.188516
