21
gdb 87520	2.90387	1.46162	1.27212	1.8206	81.81	-0.2382	0.083	0.3212	1099.9562	0.183713	-387.054884	-387.046918	-387.045973	-387.087077	32.023	
C	-0.0719982916	 1.5590830411	-0.0855585647	-0.407658
C	-0.0129325599	 0.0475018074	-0.0178287283	-0.097468
C	 1.3163798328	-0.6776456561	-0.1972076484	-0.38915
C	 0.6352645805	-0.6560730854	 1.1280613324	 0.449949
C	 1.197229101	-0.2026099903	 2.4792258901	-0.019703
C	-0.0707201476	 0.0625478653	 3.3224447227	-0.217613
C	-0.8392654137	-1.2475534906	 2.9435185165	-0.215827
C	 0.2368766417	-1.8422459569	 2.0083727921	-0.021262
O	 1.4617416578	-1.6119119221	 2.778409089	-0.301469
H	 0.8150925416	 2.0092783603	 0.3725364106	 0.114817
H	-0.1200483614	 1.9066599309	-1.1233441044	 0.119227
H	-0.9508896349	 1.9524923012	 0.4374441109	 0.118143
H	-0.8752437069	-0.4559924538	-0.4515460079	 0.082165
H	 1.3292144407	-1.6036429606	-0.763665128	 0.111744
H	 2.2063718094	-0.0679254174	-0.3260066832	 0.111107
H	 2.063660479	 0.449416747	 2.5905898253	 0.077363
H	 0.1647639607	 0.1201459413	 4.3871380903	 0.105632
H	-0.5944349588	 0.9753111254	 3.0269729958	 0.100012
H	-1.0223290511	-1.8941535504	 3.8041394439	 0.105512
H	-1.7884742279	-1.0627434134	 2.4332537047	 0.097265
H	 0.1242659685	-2.8606062328	 1.6354435007	 0.077213
