22
gdb 119229	1.87589	1.31549	0.89588	2.9467	84.09	-0.2367	-0.0217	0.215	1404.0763	0.191577	-404.335137	-404.324728	-404.323784	-404.37067	37.71	
C	 0.0243449468	 1.6735982448	-0.0483166721	-0.380614
C	 0.2681531201	 0.1650930562	 0.0427988091	-0.176455
C	 0.4753590409	-0.4759632642	-1.3388439996	-0.276977
C	 0.6710362535	-1.9811845509	-1.3060680995	 0.213967
C	 1.5557202597	-2.654103591	-2.3301363579	-0.291088
N	 1.93508062	-2.6518320072	-0.9388329237	-0.112844
C	 3.0936502104	-1.8646500363	-0.5404998415	-0.316895
C	-0.5140942697	-2.7930555849	-0.8809331236	 0.142895
O	-1.633354021	-2.3618474182	-0.7546831374	-0.269989
H	 0.8710379614	 2.1882009611	-0.5171130223	 0.109346
H	-0.8674875555	 1.8929659842	-0.6455378868	 0.119978
H	-0.1234371799	 2.1123375154	 0.9431605796	 0.113492
H	 1.1437129975	-0.0273665554	 0.6746143788	 0.094334
H	-0.5840667001	-0.3164003076	 0.5321739473	 0.125495
H	-0.4098095964	-0.2802382125	-1.9555743388	 0.119785
H	 1.3181948723	 0.0022422042	-1.849128358	 0.094142
H	 1.2878868386	-3.616985485	-2.7599186381	 0.12067
H	 2.0665536037	-1.9760666466	-3.0140878577	 0.116419
H	 3.2210796129	-0.9234020068	-1.0951483144	 0.107905
H	 3.0274947958	-1.6345809717	 0.5266383683	 0.133395
H	 3.9887382803	-2.4738368489	-0.7004968474	 0.130446
H	-0.2673965012	-3.8627134688	-0.6999479843	 0.082595
