20
gdb 114709	3.20766	1.28794	1.01543	3.6169	78.61	-0.2437	-0.0065	0.2372	1219.7825	0.171816	-403.164305	-403.155805	-403.154861	-403.197703	32.261	
C	 0.3684472382	 1.7186720117	 0.116538378	-0.392266
C	 0.1142473081	 0.2080095211	 0.1405841358	-0.182524
C	 0.4856080695	-0.5031780909	-1.1641521035	-0.069702
C	 0.5037445796	-2.0502717957	-1.1162299364	-0.283209
C	 0.1637522835	-2.4606648609	-2.5532160703	-0.023436
C	-1.2536089992	-2.4371500456	-3.0000161028	-0.245245
N	-0.3633835522	-1.2930063418	-3.2779355642	-0.11449
C	-0.4661206032	-0.2199198344	-2.3400654928	 0.362919
O	-1.195384334	 0.7250566479	-2.4802288861	-0.317869
H	 1.4279097563	 1.935368676	-0.0627527063	 0.107735
H	-0.2163467776	 2.1949739857	-0.6725711712	 0.152962
H	 0.094774775	 2.1736200576	 1.0734038413	 0.109572
H	 0.6887189388	-0.2489587709	 0.9561574316	 0.094647
H	-0.9428274204	 0.0135072787	 0.3609511337	 0.102364
H	 1.4786306028	-0.1608580213	-1.4912800811	 0.107031
H	 1.4751482513	-2.4414249062	-0.8076601248	 0.115355
H	-0.2391376166	-2.4257423728	-0.4032334615	 0.113114
H	 0.8787036342	-3.0662673661	-3.1025229005	 0.102687
H	-1.5674666965	-2.9923804712	-3.8790819094	 0.130771
H	-2.0286495375	-2.2984809109	-2.2496197796	 0.129584
