19
gdb 80523	2.18151	1.47206	1.21467	2.52	77.84	-0.2472	-0.0253	0.2219	1136.2957	0.157105	-423.002615	-422.993531	-422.992587	-423.036212	33.652	
C	 0.1453345807	 1.6337844097	-0.4014899909	-0.427658
C	 0.2390025946	 0.1326617907	-0.2274190762	-0.09332
C	 1.4905483237	-0.6421673797	-0.3657721552	 0.047143
O	 2.6240937724	 0.042726396	 0.1379333913	-0.298376
C	 2.105566822	-0.0356848418	 1.5094760924	 0.098864
C	 2.2040464517	 1.2441383063	 2.3101675019	-0.424807
C	 0.7751181148	-0.6008627058	 1.0116415223	 0.136701
C	 0.0297985202	-1.659456496	 1.692961999	 0.056929
O	 0.2916754311	-2.0661236708	 2.8028638424	-0.2762
H	 1.1257156651	 2.0985504057	-0.2880606673	 0.145126
H	-0.2197944856	 1.8644114337	-1.4076812939	 0.123031
H	-0.5460092754	 2.0843682242	 0.3170375124	 0.125078
H	-0.6155569791	-0.4196880708	-0.6197329961	 0.100489
H	 1.6576962424	-1.4796612154	-1.0349752687	 0.117473
H	 2.646439783	-0.8365109908	 2.0267432084	 0.108682
H	 1.62861823	 2.0615738251	 1.8743360299	 0.124197
H	 1.8316239917	 1.0567465258	 3.3225145885	 0.138914
H	 3.2507156173	 1.5555403741	 2.3866013714	 0.131127
H	-0.8192570105	-2.0838249402	 1.1085331884	 0.066608
