16
gdb 50142	3.93463	1.1618	0.96035	4.6598	75.56	-0.2399	-0.0244	0.2155	1195.8035	0.124513	-434.032804	-434.0246	-434.023656	-434.06598	29.826	
N	-0.1331736484	 1.2564942303	-0.5326718996	-0.450899
C	-0.0720535217	 0.0134565495	-0.2520790435	 0.069655
N	-1.1745205994	-0.6713087621	 0.1820882103	-0.102496
C	-1.3896986302	-2.0786281146	 0.5586479913	-0.266101
C	-2.8720634391	-1.6934003126	 0.7625699183	 0.352117
C	-4.107740152	-2.443381875	 0.5463626436	-0.252644
O	-3.6560803765	-2.0823565898	 1.860659226	-0.250957
C	-2.5148710428	-0.2690842087	 0.3929267847	 0.331599
N	-3.1565580358	 0.8075268366	 0.2975377051	-0.550998
H	 0.7750617759	 1.5987752746	-0.8374305931	 0.231527
H	 0.8208392966	-0.6199380504	-0.3196336011	 0.102104
H	-1.1841179492	-2.7956144213	-0.2421523439	 0.126788
H	-0.8794799488	-2.3789215209	 1.4790146021	 0.136081
H	-4.9902765062	-1.9118395829	 0.1969355076	 0.145552
H	-4.058406556	-3.505356833	 0.3110264977	 0.123363
H	-2.5381289863	 1.5651315004	 0.0014971143	 0.255309
