21
gdb 118358	2.34196	0.99768	0.74436	3.6416	80.82	-0.2401	-0.0143	0.2259	1568.7934	0.179757	-424.207394	-424.197026	-424.196082	-424.244035	36.042	
C	 0.0804734375	 1.3834603085	 0.0366474564	-0.228798
O	 0.0099069238	-0.0227656641	 0.0074502886	-0.233777
C	 0.7166393719	-0.5914573449	-1.0715352295	-0.071954
C	 0.5334332513	-2.1053048144	-1.010569737	-0.113815
C	-0.9433447582	-2.4616435008	-1.0908698207	 0.183098
O	-1.4885436808	-3.2857415659	-0.4059876795	-0.254111
C	 1.270049606	-2.7979757341	-2.1492700344	 0.00424
C	 2.7112716953	-3.215249773	-1.9766437915	-0.273591
C	 1.6244800314	-4.2583418987	-2.0386450989	-0.270296
H	 1.1187045297	 1.7366892105	 0.1380495241	 0.106072
H	-0.3471073593	 1.8327402709	-0.8736306931	 0.10552
H	-0.4944189315	 1.7214756596	 0.9017793699	 0.132833
H	 0.332647895	-0.2021293208	-2.0323809463	 0.08508
H	 1.7875721012	-0.3359611899	-1.0256963008	 0.09674
H	 0.9043436758	-2.4810009921	-0.0512246915	 0.099901
H	-1.5004705747	-1.9154406844	-1.8901020353	 0.065604
H	 0.9902370407	-2.4476580952	-3.1401893084	 0.087024
H	 3.379681839	-3.1133186922	-2.824369979	 0.115899
H	 3.1795810075	-3.0269004376	-1.0161713083	 0.117607
H	 1.3539774877	-4.769172827	-1.1210016569	 0.130318
H	 1.5488297508	-4.8731350143	-2.9283125077	 0.116405
