20
gdb 114215	2.81345	1.16621	1.00252	3.7862	74.81	-0.244	0.0616	0.3056	1250.4235	0.170855	-440.234942	-440.225866	-440.224921	-440.268919	34.474	
O	 0.3800917525	 1.0691277073	-0.6792951931	-0.424638
C	 0.0379369978	-0.2774618688	-0.3827021861	-0.063275
C	-1.3398016124	-0.404544775	 0.2561542471	-0.060884
C	-2.5364632217	-0.26551613	-0.7449808424	-0.349197
C	-2.693355967	-1.7868929501	-0.7012107171	 0.307504
C	-3.7303872894	-2.7023531487	-1.2081713279	-0.313401
N	-2.3756349619	-2.694414588	-1.8084847472	-0.367786
C	-1.7852387803	-1.8869199606	 0.5325270815	 0.084056
O	-0.8280939166	-2.9065735355	 0.5027299955	-0.434931
H	-0.2713258447	 1.4098527464	-1.3004840916	 0.278535
H	 0.1037478575	-0.9118617229	-1.2809297763	 0.080179
H	 0.7992844387	-0.6372146025	 0.314499578	 0.126409
H	-1.3891983019	 0.2599010432	 1.1223953628	 0.077419
H	-3.3946749907	 0.2686462052	-0.3283580926	 0.114421
H	-2.3103677627	 0.1638309837	-1.7286905505	 0.088291
H	-3.9776895061	-3.6061377058	-0.6576677663	 0.128753
H	-4.5494527097	-2.2842463121	-1.788297316	 0.117878
H	-2.3821459509	-2.2011744717	-2.6976569741	 0.234854
H	-2.3499874687	-1.9592049114	 1.469663461	 0.082564
H	-0.8586396915	-3.2595799426	-0.4009745346	 0.293248
