19
gdb 52885	1.92919	1.2079	0.84368	1.0437	93.01	-0.2241	0.0367	0.2608	1452.5363	0.155469	-348.689884	-348.679332	-348.678388	-348.726343	37.697	
C	 0.0537866575	 1.4867475526	 0.0522509781	-0.502565
C	 0.0330551607	 0.0312431951	 0.0363247753	 0.089707
C	 0.0271471207	-1.173328516	 0.0207851323	-0.010127
C	 0.0307137197	-2.6151113986	-0.0034055205	-0.00278
C	-0.4779960727	-3.3617887117	 1.2430117744	-0.313208
C	-1.3179030071	-3.3712854973	 0.0086546601	-0.021722
C	-2.625934108	-2.6219458405	-0.065397603	-0.413056
C	 1.1095792585	-3.2257593434	-0.7399325615	 0.256513
C	 2.0005518264	-3.750946751	-1.3535354124	-0.455674
H	 1.0332111539	 1.867623661	-0.2577374093	 0.152151
H	-0.6950760464	 1.9077360331	-0.6279445914	 0.147027
H	-0.1498729041	 1.8788721076	 1.0549897928	 0.1466
H	 0.0630758548	-4.2575968366	 1.5235361848	 0.129642
H	-0.7907593192	-2.7317931437	 2.0683301274	 0.126693
H	-1.2817352239	-4.2890593225	-0.5704720388	 0.105719
H	-2.569152777	-1.6727858949	 0.4731680275	 0.130116
H	-2.8963354117	-2.4019172094	-1.1031984521	 0.125432
H	-3.4322880427	-3.2187391771	 0.3748145137	 0.119062
H	 2.7914947606	-4.2037862167	-1.8977318075	 0.190471
