16
gdb 36167	3.74679	1.22633	1.12743	1.0066	73.52	-0.2395	0.0423	0.2818	1096.4678	0.122871	-400.59269	-400.585097	-400.584153	-400.625161	29.413	
C	 0.0061095697	-1.2062321526	 0.0674855785	-0.44685
C	 0.0047458489	-0.0069615295	-0.0101298841	 0.289304
C	 0.0500239406	 1.4485835632	-0.1057757687	-0.492535
C	 1.4618477981	 1.9780123479	-0.0752696668	 0.322272
N	 2.4944061538	 1.7137421581	-1.1287304253	-0.377005
C	 3.22508498	 2.5723728986	-0.1394893334	-0.079819
C	 1.964597778	 3.4434088212	 0.1270583082	 0.04871
O	 2.0412565442	 3.3457439406	 1.5771393974	-0.329047
C	 2.4768646291	 2.0312988506	 1.1217548527	 0.042395
H	-0.0135339811	-2.2657283189	 0.1358909977	 0.200647
H	-0.4377236582	 1.779886245	-1.0309511254	 0.1467
H	-0.4991096321	 1.9025933855	 0.7291673614	 0.151081
H	 2.8154505266	 0.7444259015	-1.0665112748	 0.218768
H	 4.2628356671	 2.8839861809	-0.2523191319	 0.096456
H	 1.6351245634	 4.3747598901	-0.3309425519	 0.10591
H	 2.7552599919	 1.2778203677	 1.8595637164	 0.103012
