23
gdb 96461	2.07208	1.76282	1.22437	1.7268	84.51	-0.2567	0.0644	0.3211	1134.849	0.208386	-388.292173	-388.28363	-388.282686	-388.324711	34.618	
O	 0.2679126241	 1.2828497161	-0.4537234934	-0.435513
C	 0.0270458151	-0.0690111133	-0.0745184051	 0.100692
C	 0.7832960353	-0.4560936641	 1.2130147082	-0.205494
C	 0.5745645405	 0.4713300189	 2.4257310941	-0.209914
C	-0.8454167961	 0.5804458554	 3.0084099606	-0.172982
C	-1.8969472124	 1.1700663321	 2.049257809	-0.231865
C	-2.389630342	 0.1664275464	 1.0220862692	 0.00639
C	-2.5415276435	 0.4978424752	-0.4438439277	-0.319889
C	-1.4544603659	-0.442010931	 0.0045620316	-0.016918
H	 0.2015089235	 1.8375410452	 0.3286861487	 0.279385
H	 0.4550014919	-0.651825419	-0.8995295194	 0.082358
H	 0.4942234515	-1.4801963711	 1.4817016449	 0.094658
H	 1.856456873	-0.4800733427	 0.9888771344	 0.097478
H	 1.2489230782	 0.1294689967	 3.2199756431	 0.099561
H	 0.9318932283	 1.4824571091	 2.1766232293	 0.08917
H	-1.1828121769	-0.4095662401	 3.3435248873	 0.093978
H	-0.7904961622	 1.2041275068	 3.9093622205	 0.090091
H	-2.7547804963	 1.5336598852	 2.6281093779	 0.096442
H	-1.4857062173	 2.0607845664	 1.555753	 0.081762
H	-3.1290461138	-0.5225103137	 1.4248357702	 0.077962
H	-3.3913151787	 0.0989221626	-0.9871440054	 0.104439
H	-2.2149529166	 1.4793737908	-0.7700400984	 0.120398
H	-1.6152916899	-1.4984079722	-0.1979885994	 0.077814
