19
gdb 128144	2.19362	1.44092	0.92526	2.7879	79.98	-0.1863	0.0462	0.2325	1293.7499	0.16124	-415.38406	-415.374592	-415.373648	-415.418975	33.918	
C	-0.1834579236	 1.1731692972	-0.0807848437	-0.337324
N	-0.2248344577	-0.2615779048	 0.1550703965	-0.385674
C	 0.7103451009	-0.8365148631	 0.9932473086	 0.429689
C	 1.2199949972	-2.129587974	 0.9605871606	 0.044052
N	 0.8667777339	-3.0802128034	-0.0335345365	-0.403957
C	-0.077561777	-4.1147437473	 0.4027628252	-0.321292
C	 2.0896465642	-2.1890660445	 2.0768856812	-0.056224
N	 2.1391194536	-1.0441627242	 2.7446798073	-0.253598
N	 1.2772474398	-0.2314326722	 2.0640174287	-0.278376
H	 0.8001153011	 1.540212903	-0.41342551	 0.119361
H	-0.9254949539	 1.4274623791	-0.8405558368	 0.134515
H	-0.4602740133	 1.7159439573	 0.8305311245	 0.126771
H	-0.3079008562	-0.8221634679	-0.6845109854	 0.247141
H	 1.6943342707	-3.5165405994	-0.4240545907	 0.225259
H	 0.2795291411	-4.7156336745	 1.2539899851	 0.104641
H	-1.0167172493	-3.6399932449	 0.7017621643	 0.129408
H	-0.2881060841	-4.7887616067	-0.4340293255	 0.110465
H	 2.6941656449	-3.0235431055	 2.4057900709	 0.098884
H	 1.1330449679	 0.7056650958	 2.3949396055	 0.26626
