20
gdb 69472	4.34564	0.87267	0.82367	4.048	82.25	-0.2436	0.033	0.2766	1453.7384	0.17086	-403.151323	-403.142327	-403.141383	-403.185857	33.658	
C	-0.1224475816	 1.5898759723	 0.1960522025	-0.498354
C	 0.0246189843	 0.1045653071	 0.0327064544	 0.36763
C	-0.8047504708	-0.892549562	 0.7924336252	-0.323467
C	 0.6946728336	-0.94387995	 0.9326092262	-0.123212
C	 1.2857257293	-1.6627259449	-0.2895221294	 0.063579
C	 0.6130401195	-0.5872055122	-1.2101407947	-0.316427
N	 2.730934152	-1.6819512777	-0.3446805314	-0.291053
C	 3.4662133325	-2.8065706572	-0.564053307	 0.152825
O	 3.0192892329	-3.9169571115	-0.7561765955	-0.322156
H	 0.8014533236	 2.1184631538	-0.0668500028	 0.110977
H	-0.9206540765	 1.9822105651	-0.4459409968	 0.123413
H	-0.374715496	 1.8499981243	 1.2293711995	 0.119606
H	-1.3348242619	-0.4959945186	 1.6532015631	 0.111095
H	-1.3331487127	-1.6922927604	 0.2767260593	 0.108016
H	 1.191900726	-0.832818362	 1.8900604564	 0.084715
H	 0.9641474991	-2.6956192952	-0.433594488	 0.119932
H	-0.0990978609	-0.9461248487	-1.9607854745	 0.102068
H	 1.3714630577	 0.0212873996	-1.7117257405	 0.09795
H	 3.2285110938	-0.8182717344	-0.1897786979	 0.242381
H	 4.5531920362	-2.5880595275	-0.5490091782	 0.070482
