16
gdb 48160	3.61328	0.8519	0.76668	0.6943	68.22	-0.2592	-0.0848	0.1744	1453.468	0.123432	-475.028877	-475.020117	-475.019172	-475.064027	30.117	
O	-0.6979919961	 1.2961764227	-0.3927546449	-0.245839
C	 0.3153896593	 0.9008079298	 0.1235368715	 0.102648
C	 1.5647216622	 1.7686709051	 0.3054105208	 0.302899
O	 2.5602993108	 1.3106129391	 0.8353192011	-0.355155
N	 1.4045992381	 3.024710096	-0.1759008131	-0.316981
C	 2.4239049335	 4.0335706046	-0.1285637359	-0.004564
C	 2.756927346	 4.8121673392	-1.424340541	-0.090762
O	 2.6034294305	 6.0718984937	-0.7436003739	-0.26493
C	 2.0576805903	 5.4318649382	 0.4253383486	-0.090757
H	 0.4452337946	-0.1259968284	 0.5170619476	 0.122352
H	 0.5015296106	 3.2268551859	-0.5852122402	 0.265346
H	 3.2941080849	 3.5860448954	 0.3503454462	 0.13604
H	 3.7613494136	 4.68130752	-1.8403642012	 0.119714
H	 2.0137342456	 4.6770366416	-2.2234439135	 0.100139
H	 0.9750989786	 5.5975158202	 0.524007446	 0.100137
H	 2.5563713977	 5.749209887	 1.3471095318	 0.119713
