17
gdb 94127	1.9041	1.51524	1.29973	4.8165	77.13	-0.3192	-0.0101	0.3091	1106.7821	0.135748	-380.889794	-380.880902	-380.879958	-380.923394	32.406	
C	-0.0416964828	 1.5969539767	-0.0574256839	-0.428168
C	 0.0565141269	 0.0851454516	 0.0023639464	 0.013556
C	 1.0194757975	-0.6784663826	-0.9436224978	-0.242267
C	 1.348740185	-1.6610328272	 0.2044543443	-0.248814
C	 0.7953757264	-0.6025387931	 1.2354394879	-0.023401
C	 1.8663228231	 0.228399157	 1.7823303183	 0.2785
N	 2.7279306685	 0.8937549011	 2.1697624605	-0.331505
C	-0.066184542	-1.1075444103	 2.2982930003	 0.249229
N	-0.7857071536	-1.5305869807	 3.0974035128	-0.327398
H	 0.9419991454	 2.0665628315	 0.0330515587	 0.146005
H	-0.477713164	 1.9016996246	-1.0143994413	 0.130539
H	-0.6808479244	 1.9864219752	 0.7413412398	 0.139042
H	-0.9387856192	-0.3661264953	-0.0427115431	 0.1127
H	 0.5886982295	-1.0997698293	-1.852699522	 0.120136
H	 1.8846117159	-0.0660207764	-1.2122162733	 0.129931
H	 0.7069392973	-2.5433037593	 0.2039375443	 0.140554
H	 2.3851942004	-1.9626391136	 0.352821108	 0.141358
