21
gdb 91813	2.34557	1.63994	1.21353	1.3525	77.11	-0.219	0.0694	0.2884	1110.9415	0.181618	-424.213347	-424.204296	-424.203351	-424.246471	35.588	
C	 0.6868862096	 1.4114790127	-0.3887493317	-0.393206
C	 0.0193107453	 0.099938854	 0.0214969493	 0.104432
O	 0.0622359738	-0.8317634958	-1.0833535742	-0.274333
C	 0.8842513524	-1.9176227196	-0.763586028	 0.019998
C	 2.3390730516	-1.6531093055	-0.4095919451	-0.359532
C	 1.3097032825	-1.8603788084	 0.6701827561	 0.37577
O	 1.4921066047	-2.9756732986	 1.4883306599	-0.471226
C	 0.613295515	-0.6372988157	 1.2637059246	-0.081618
C	 1.4815308639	 0.1910962377	 2.2123756115	-0.406213
H	 1.7600577442	 1.2995528454	-0.563634133	 0.120162
H	 0.2317043119	 1.7666622716	-1.3173377638	 0.126187
H	 0.5417055852	 2.1788337247	 0.3782111125	 0.113574
H	-1.0422657511	 0.3107726587	 0.1988292962	 0.082527
H	 0.6061913677	-2.8320512594	-1.2755724598	 0.101471
H	 3.0195397411	-2.4854874168	-0.5547425924	 0.122599
H	 2.7675464546	-0.6729904398	-0.5835155953	 0.115644
H	 0.6218162116	-3.3108078578	 1.734782435	 0.279353
H	-0.2306101609	-1.0361988551	 1.8448481609	 0.065085
H	 2.3467077661	 0.6206589553	 1.7002221266	 0.119927
H	 0.9168230578	 1.0101364486	 2.6689415209	 0.112553
H	 1.8550935031	-0.4495608264	 3.0168678597	 0.126845
