21
gdb 99105	2.82137	1.03376	0.8991	2.5627	79.12	-0.2403	-0.0123	0.228	1408.4677	0.179176	-424.236868	-424.226546	-424.225601	-424.272943	37.06	
C	-0.3791808272	 1.5028454885	-0.0963396984	-0.377664
C	-0.6045787913	 0.0381358171	 0.2653465673	-0.284642
C	-1.3549255359	-0.7474748587	-0.794556314	 0.388488
O	-1.6834821521	-0.2682437684	-1.8570391546	-0.310456
C	-1.7281595498	-2.1861259251	-0.4265116448	-0.363814
C	-3.1192328493	-2.2295038273	 0.2046577033	 0.414954
C	-4.2814467852	-1.9210013449	-0.7127581912	-0.457183
C	-3.330385662	-3.0438209737	 1.4109809945	-0.231178
O	-3.1864538686	-1.6236339158	 1.5090830606	-0.270988
H	 0.1713000455	 2.0174953797	 0.6960660602	 0.109355
H	 0.1863704015	 1.5934681614	-1.0273094025	 0.129258
H	-1.3318807766	 2.0179450601	-0.2449032025	 0.130102
H	 0.3491484101	-0.4803238855	 0.4434470346	 0.117716
H	-1.1665109466	-0.076927492	 1.2022693397	 0.148778
H	-1.726466305	-2.7860224561	-1.3414063442	 0.123559
H	-0.9999694228	-2.6013568987	 0.2760164249	 0.10497
H	-4.3807719064	-2.6986304817	-1.4775394205	 0.123964
H	-5.2106058369	-1.8704394251	-0.1403869523	 0.125154
H	-4.1298095205	-0.9690856396	-1.2284270497	 0.151834
H	-4.3258559548	-3.4252852986	 1.6350637953	 0.115472
H	-2.5084687759	-3.6283738352	 1.8226768443	 0.112322
