18
gdb 13542	2.74727	1.70802	1.28917	2.5569	71.89	-0.2669	0.025	0.2919	1009.6481	0.15409	-343.978519	-343.969748	-343.968804	-344.011928	31.968	
C	-0.141886721	 1.5179288449	-0.2128360724	-0.429598
C	-0.0397523468	 0.026256141	 0.027645637	-0.001324
C	 1.2442046285	-0.7355542907	-0.1999275729	-0.312326
C	 0.6834497978	-0.600738911	 1.1977715884	 0.001452
C	 1.3952445958	 0.1545334929	 2.3178805133	-0.135249
N	 2.0330179536	-0.8238308701	 3.2112789799	-0.497585
C	 2.3645848	 1.1613742173	 1.8332235349	 0.269411
N	 3.1730906113	 1.920532323	 1.5038122465	-0.34689
H	 0.7898230724	 2.0411893803	 0.0112500785	 0.149438
H	-0.3847812946	 1.7148543805	-1.2625349704	 0.121775
H	-0.9353666018	 1.9644498435	 0.3972881049	 0.116092
H	-0.9437099709	-0.5124458229	-0.2467920756	 0.090281
H	 1.2114991155	-1.7066809906	-0.6813148658	 0.113262
H	 2.1249586788	-0.147270348	-0.43893533	 0.135522
H	 0.2145393384	-1.4854858659	 1.6173822704	 0.107108
H	 0.6473592651	 0.6927701873	 2.9145246941	 0.133153
H	 2.7431529211	-1.3353470524	 2.693486558	 0.242569
H	 2.5147715469	-0.3438499789	 3.966352061	 0.242909
