15
gdb 48560	3.74671	1.4807	1.3909	2.997	69.16	-0.2444	-0.021	0.2233	934.1551	0.113286	-420.577374	-420.570979	-420.570035	-420.60837	25.462	
O	-0.1467731412	 0.0162282897	 0.0731007955	-0.275016
C	 0.0106751496	 1.2099511065	-0.0501556765	 0.021944
C	 1.2968156987	 1.8884290366	 0.020395757	 0.256649
C	 1.5159441847	 3.3133664551	 0.5923431235	 0.018631
O	 2.636902126	 3.3417927451	 1.4126900555	-0.21807
C	 3.4790181098	 2.4261346787	 0.7619134892	 0.076766
C	 3.254953989	 2.4247023474	-0.7385015457	-0.127562
C	 2.7024984329	 1.2920202365	 0.1282097215	-0.211051
C	 1.855458904	 3.0556235566	-0.8394228029	-0.186657
H	-0.8521040722	 1.8915842495	-0.2364428771	 0.061419
H	 0.6901640962	 3.9310204707	 0.9179123234	 0.127337
H	 4.4495978431	 2.3040975385	 1.2212757782	 0.121817
H	 4.0261880868	 2.4267620549	-1.4948302208	 0.105011
H	 2.9532889624	 0.2432348572	 0.1781551533	 0.117344
H	 1.4013401202	 3.5401183469	-1.6921393141	 0.111438
