16
gdb 60761	2.6375	1.16035	0.83205	4.636	68.99	-0.2542	-0.062	0.1921	1322.8856	0.121373	-475.08375	-475.07417	-475.073225	-475.119118	32.608	
C	-0.8546311709	 1.6464367412	-0.254004998	-0.404997
C	 0.1220504359	 0.4788760825	-0.1291727234	-0.210615
C	-0.5607122328	-0.7953389363	 0.3513635973	 0.149925
O	-0.0014055625	-1.8543698164	 0.5151421918	-0.2582
C	 0.9319265474	 0.2811078275	-1.4395166386	 0.424901
O	 0.853626542	 1.0622933242	-2.350282692	-0.297629
N	 1.7575045028	-0.8390195105	-1.4146094107	-0.354684
C	 2.6630726592	-1.2413578561	-2.3950441773	 0.164872
O	 2.9483053389	-0.6442580117	-3.3950282682	-0.252122
H	-0.3283811486	 2.5569514891	-0.5408735502	 0.152846
H	-1.6050314287	 1.4467219217	-1.0239907879	 0.14178
H	-1.3676976675	 1.8196071955	 0.6967011802	 0.118119
H	 0.8778841663	 0.6981426724	 0.6405561711	 0.147174
H	-1.6454545024	-0.6929158609	 0.5641449772	 0.112427
H	 1.6058969809	-1.4752633357	-0.6372078177	 0.274057
H	 3.1116863601	-2.2157421264	-2.1153488034	 0.092148
