20
gdb 111175	2.6928	1.23064	0.98078	1.6413	86.65	-0.2293	0.0263	0.2555	1281.6211	0.170527	-365.896754	-365.888059	-365.887115	-365.930214	33.663	
C	 0.4533629172	 1.521029397	-0.3806264372	-0.371243
C	 0.0037695871	 0.0737295227	-0.1415702144	-0.248947
C	 0.6900824178	-0.5334725118	 1.0694942364	 0.098495
C	 0.8259042239	-2.056635759	 1.3257679009	-0.100554
C	 1.9084113733	-2.0320161344	 0.2305743183	-0.182494
N	 2.2342063552	-0.7491307306	 1.0212751705	-0.16721
C	 2.001092034	-1.659491711	 2.2659875267	-0.160311
C	 1.7720592241	-1.0176840738	 3.5433819373	 0.33915
C	 1.6085046568	-0.5310950909	 4.6311137506	-0.435777
H	 1.5299594541	 1.5651018157	-0.5678610009	 0.138378
H	-0.0648086644	 1.9576346748	-1.2394946545	 0.109849
H	 0.2440460699	 2.148603083	 0.4923312907	 0.117466
H	-1.0773291901	 0.0478629829	 0.0492906037	 0.101967
H	 0.1622000211	-0.5154546909	-1.0498157965	 0.099298
H	 0.4232650404	 0.051053378	 1.9550641449	 0.08786
H	 0.0436195174	-2.8001712929	 1.5152541979	 0.069125
H	 2.7028602069	-2.7818677133	 0.2797272566	 0.100875
H	 1.6131653142	-1.8537464578	-0.801652946	 0.106844
H	 2.7982050257	-2.4035925484	 2.357391184	 0.100488
H	 1.4624528054	-0.0910540593	 5.586673681	 0.196743
