21
gdb 90486	2.90934	1.23098	1.04721	1.4837	82.97	-0.2277	0.0872	0.3149	1243.7464	0.182432	-387.031651	-387.023119	-387.022175	-387.06506	33.177	
C	-0.2561697515	 1.5424876483	 0.010932315	-0.413518
C	 0.0756955418	 0.0640559195	 0.0274209548	 0.154308
O	 1.0794611572	-0.3528726812	-0.9520692622	-0.306849
C	 1.7433497293	-1.1373154832	 0.0459117233	 0.06041
C	 2.3612169044	-0.2646065087	 1.0896868018	-0.033789
C	 2.9978931624	 1.0565977871	 0.7876047813	 0.008456
C	 3.2857147607	 2.047677099	 1.8903030745	-0.268801
C	 4.4209287917	 1.3143402564	 1.2205056414	-0.282442
C	 0.8694407642	-0.5919352685	 1.1572873178	-0.184883
H	-0.6118645598	 1.8360807713	-0.982302193	 0.125069
H	-1.0592901907	 1.7447356772	 0.7281758387	 0.116756
H	 0.602846799	 2.1611020948	 0.2734725749	 0.130846
H	-0.8365246419	-0.5188541567	-0.1625605649	 0.0813
H	 2.0513126663	-2.1405264705	-0.2278476622	 0.098548
H	 2.8920484995	-0.8482118519	 1.841952357	 0.084755
H	 2.7140979401	 1.4676633523	-0.1744465104	 0.101428
H	 3.158764554	 3.1050257511	 1.683395742	 0.109127
H	 3.0270953158	 1.7611373215	 2.9046013129	 0.108737
H	 4.9265856532	 0.5386938391	 1.7873421276	 0.107624
H	 5.0706996407	 1.8664233829	 0.5504715061	 0.111662
H	 0.4322145835	-1.0935558396	 2.0107207638	 0.091254
