18
gdb 23127	2.00463	1.63696	0.97208	0.7383	79.99	-0.227	-0.032	0.1951	1214.0171	0.146942	-439.046343	-439.037453	-439.036508	-439.080294	32.667	
C	-0.2168395961	 1.301782714	-0.0024518281	-0.238499
O	 0.1370761977	-0.0670358585	 0.0247259665	-0.246873
C	 0.720118546	-0.544073405	-1.1777839283	 0.031509
C	 1.2940728027	-1.9510715422	-0.8855657479	-0.29285
C	 0.3778104923	-2.8920564089	-1.625158169	-0.068177
C	-0.515959352	-2.2482112613	-2.3881106219	-0.141827
C	-0.320186741	-0.8056560442	-2.2704999076	 0.375044
N	-0.8501020059	 0.159246997	-2.92292137	-0.24235
O	-1.8011623908	-0.3042136866	-3.8480786414	-0.390644
H	 0.662169563	 1.9367886376	-0.1965211683	 0.099687
H	-0.9731371615	 1.5181774083	-0.7656586094	 0.130901
H	-0.6167322437	 1.5414866138	 0.9859342038	 0.120974
H	 1.4850210326	 0.1645556468	-1.5244410391	 0.078287
H	 2.3296969362	-2.0516191554	-1.2328676904	 0.116741
H	 1.2993315269	-2.1248713558	 0.1949325494	 0.131829
H	 0.4659253754	-3.9698526773	-1.5449627367	 0.107747
H	-1.2669397159	-2.6935474888	-3.024307871	 0.122384
H	-2.0947788357	 0.5129232664	-4.2642017607	 0.306114
