16
gdb 54730	4.12927	1.16661	1.05892	4.0153	70.31	-0.2374	0.01	0.2474	1141.1065	0.121668	-437.804128	-437.796047	-437.795103	-437.8377	29.664	
C	-0.0600715543	 1.4538247367	 0.0096113247	-0.476928
C	 0.0086238653	-0.0618737719	-0.0148731581	 0.366113
O	 0.9670372056	-0.6964349279	 0.3665755319	-0.340126
N	-1.1072679175	-0.6725358092	-0.583685019	-0.053005
C	-2.4656053341	-0.6243521675	-0.0670586573	-0.122378
C	-3.4310726395	-1.212376621	-1.1690764271	 0.002525
O	-2.6563220985	-1.5723790828	-2.3076793577	-0.209958
C	-2.664281245	-2.459867758	-1.191829465	 0.002457
C	-1.6810491962	-1.9012890809	-0.0928129797	-0.089516
H	 0.9525167642	 1.8535216865	-0.0577860377	 0.151439
H	-0.6790702636	 1.846202312	-0.7997794083	 0.140704
H	-0.488732772	 1.7858647213	 0.962212391	 0.140365
H	-2.7429012899	-0.011921075	 0.7809741093	 0.1182
H	-4.4844695796	-1.0004690168	-1.3031955763	 0.11973
H	-2.9564391626	-3.4899069353	-1.3520969358	 0.121309
H	-1.2216620725	-2.4474135503	 0.7194153852	 0.129069
