19
gdb 126687	3.0935	1.25583	0.97721	4.1536	78.07	-0.2033	0.0382	0.2415	1238.9855	0.160842	-415.41045	-415.401181	-415.400237	-415.445127	32.921	
C	-0.0943041035	 0.672658301	-0.6106346972	-0.385936
C	-0.1304436563	-0.5054364467	 0.3738354326	-0.171611
N	 0.7580297296	-0.3766540606	 1.5183243586	-0.162023
C	 0.318445692	 0.4369009581	 2.6416160615	-0.343086
C	 2.100080305	-0.5887708094	 1.3712084967	 0.528044
N	 3.0355812353	-0.3092175062	 2.2705820881	-0.375646
C	 4.1740654688	-0.7615335503	 1.6717302271	 0.034481
N	 4.0313191189	-1.2877445358	 0.4747588134	-0.234465
N	 2.6760686028	-1.1650208232	 0.284323314	-0.299616
H	 0.9066062492	 0.8091487977	-1.030860014	 0.130899
H	-0.7910984404	 0.4994594792	-1.4368446689	 0.122222
H	-0.381816843	 1.6056054659	-0.1170645384	 0.131502
H	-1.1451288084	-0.628539275	 0.7668332834	 0.117532
H	 0.1002548305	-1.4433309377	-0.1470452944	 0.106633
H	 0.9966837135	 0.2755400572	 3.4787623522	 0.172012
H	 0.3094292602	 1.5118352485	 2.4109602582	 0.119717
H	-0.6930206674	 0.1332666267	 2.9287462295	 0.1201
H	 5.1431436387	-0.6925032703	 2.1441290736	 0.118743
H	 2.2653793345	-1.4990451892	-0.568723186	 0.270497
