15
gdb 25758	2.91375	1.51626	0.99971	5.9188	74.84	-0.1837	-0.0181	0.1656	1104.0774	0.114166	-454.012997	-454.005123	-454.004178	-454.045115	30.672	
N	 0.0954009336	 1.389890094	-0.1458924923	-0.558973
C	-0.011047198	 0.0288207258	 0.0039147488	 0.276863
N	 1.1564271853	-0.6589558998	 0.1134240436	-0.556949
H	 1.9742828792	-0.2652322305	-0.3248367805	 0.253875
H	 1.0391570519	-1.6714838028	 0.0610576958	 0.293615
C	-1.2244191221	-0.6321830887	 0.0308572377	 0.099783
C	-1.2974788275	-2.078610303	 0.0247451885	 0.397522
O	-0.4267584031	-2.93254226	 0.0261299308	-0.423725
O	-2.6423197312	-2.4172699714	 0.0199020885	-0.212389
C	-3.3731797229	-1.247617831	 0.0321230415	 0.017123
C	-2.5922475179	-0.1543112558	 0.0410384002	-0.345966
H	 0.891866262	 1.8256695845	 0.295572961	 0.260062
H	-0.7585113749	 1.9134691326	-0.0387656999	 0.268562
H	-4.4433603665	-1.3754382736	 0.0360208198	 0.133209
H	-2.9447055078	 0.8664768898	 0.0500239164	 0.097387
