23
gdb 114236	3.52144	0.89552	0.86658	1.475	87.11	-0.2194	0.0833	0.3027	1518.4403	0.204071	-388.272184	-388.262289	-388.261345	-388.307432	37.085	
C	 0.0999000621	 1.2695405031	 0.5441147952	-0.380683
C	-0.0407416046	-0.1815361247	 0.0762598687	-0.186627
C	-1.4670128172	-0.5311618082	-0.3089446087	 0.159554
C	-1.8220125688	-2.023008117	-0.5103587475	-0.396203
C	-2.7877502161	-1.791072535	 0.6452494813	 0.46234
C	-4.2143376776	-2.2114961827	 0.8047442076	-0.366463
C	-3.1517260244	-2.6580137287	 1.8058390238	-0.069574
C	-2.7115134848	-4.102516946	 1.8808585571	-0.406218
O	-2.3836528823	-0.4311691947	 0.817613899	-0.324369
H	 1.1255560651	 1.488959757	 0.8550620945	 0.110176
H	-0.1653825225	 1.9714747876	-0.2544038598	 0.112124
H	-0.5637012637	 1.4602963708	 1.3922937746	 0.137302
H	 0.6061522559	-0.36990775	-0.7913282139	 0.093621
H	 0.2845730141	-0.8649312989	 0.8705584364	 0.097461
H	-1.8096703393	 0.1175044183	-1.1273150047	 0.072544
H	-2.2764070303	-2.2800035214	-1.4688995135	 0.108589
H	-1.0014421845	-2.7142803139	-0.3002515487	 0.107245
H	-4.9229258159	-1.4541614059	 1.1229777469	 0.118975
H	-4.6149129282	-2.9502803693	 0.1157842807	 0.10634
H	-3.1791621185	-2.1313975804	 2.7570118189	 0.093804
H	-2.6696885253	-4.5565320815	 0.8848113684	 0.113906
H	-1.7159236388	-4.1955376231	 2.329378795	 0.117056
H	-3.4059788545	-4.6985175355	 2.4833316387	 0.1191
