21
gdb 70793	2.79851	1.65505	1.41499	1.3208	81.8	-0.2456	0.0804	0.326	1023.1055	0.183597	-387.066416	-387.058586	-387.057642	-387.097927	32.727	
C	 0.015873585	 1.5426043931	-0.0421839189	-0.504499
C	 0.0029040063	 0.0360876449	-0.0723215954	 0.365903
C	 0.4553227628	-0.7909862885	-1.2882725835	-0.355517
C	-0.2938006552	-1.9382658938	-0.5540216407	 0.409011
O	-0.844898432	-3.0347528152	-1.2149907993	-0.494025
C	 0.6260784025	-2.1648722831	 0.6684262711	-0.281699
C	 0.3708333648	-0.7670468494	 1.2662000216	-0.074221
C	-1.1496356448	-0.8493699864	 1.5769159655	-0.24883
C	-1.2819198158	-0.8586025032	 0.0492731716	-0.099173
H	 1.0434932218	 1.9256328152	-0.0317834122	 0.115538
H	-0.4845652394	 1.9623511142	-0.9217548719	 0.115208
H	-0.4879620099	 1.9351238306	 0.8482061691	 0.116131
H	-0.0772140948	-0.4697582877	-2.189124416	 0.095111
H	 1.5225832631	-0.9162870962	-1.5058222935	 0.077461
H	-0.1284737094	-3.6249751066	-1.4730197789	 0.27617
H	 0.2856761124	-2.9727453849	 1.3230438183	 0.094182
H	 1.6655523691	-2.3531028307	 0.3802334133	 0.0824
H	 1.086596027	-0.372086909	 1.988447889	 0.057162
H	-1.5040268162	-1.7059479751	 2.1591547503	 0.090179
H	-1.550412114	 0.0733042471	 2.005528887	 0.095981
H	-2.2007694233	-0.6687861254	-0.5049421163	 0.067528
