21
gdb 70909	2.59494	1.68246	1.27414	1.1576	81.71	-0.2392	0.0773	0.3165	1074.9959	0.183305	-387.081075	-387.07291	-387.071966	-387.112994	33.443	
C	-0.0561298897	 1.512521255	 0.0224274127	-0.502802
C	 0.0250636379	 0.0132317063	-0.0181601784	 0.35636
C	 0.8638048127	-0.7888193462	-1.0204119821	-0.352227
C	-0.1346264358	-1.98326769	-0.8369004743	 0.423711
O	-0.6788757141	-2.5535684717	-1.9965866795	-0.500695
C	 0.3876917437	-2.970968432	 0.2182124176	-0.264177
C	 0.5523661694	-2.0940878394	 1.4865803896	-0.246262
C	-0.2996818348	-0.8552110812	 1.1912761588	-0.085827
C	-1.0878849931	-1.0230141277	-0.079057063	-0.170299
H	 0.8819972923	 1.953798771	 0.3811480099	 0.116141
H	-0.2565053329	 1.9251184982	-0.9732688919	 0.116331
H	-0.8561472624	 1.8495225791	 0.6903569261	 0.115639
H	 0.7610791608	-0.3771212238	-2.0286743635	 0.099139
H	 1.9251658353	-0.9616391233	-0.8004661502	 0.075059
H	 0.0036351998	-3.0890949143	-2.4153312245	 0.274762
H	-0.36399233	-3.7528006935	 0.3733854696	 0.101075
H	 1.321375311	-3.4554570529	-0.0911596003	 0.083526
H	 0.1906612638	-2.6119147137	 2.3797310876	 0.100107
H	 1.5998829739	-1.8333484811	 1.6734481597	 0.098395
H	-0.7599180288	-0.3243762274	 2.0182396204	 0.077655
H	-2.1575974088	-0.9257249015	-0.2098869042	 0.084389
