17
gdb 7074	6.45025	0.85589	0.80096	2.2544	69.61	-0.2642	-0.0372	0.2271	1358.0483	0.139848	-363.893886	-363.884724	-363.88378	-363.928674	31.345	
C	-0.0758447314	 1.6441016383	-0.0437760922	-0.401439
C	-0.0142040028	 0.1128112214	 0.0110196031	 0.00746
C	 0.7401202887	-0.3833641582	 1.260136774	-0.285301
C	 2.2053670296	-0.0009170841	 1.2361218197	 0.157995
O	 2.7868637953	 0.5597376832	 2.1270542929	-0.232907
C	-1.427805354	-0.5172423084	-0.0201456951	-0.345993
C	-2.1702696355	-0.1893455299	-1.2355572206	 0.265465
N	-2.7392331368	 0.0765684687	-2.2056387877	-0.306844
H	 0.9282329541	 2.0783259433	-0.0549582007	 0.133963
H	-0.6015058625	 1.9855528487	-0.9394626102	 0.148398
H	-0.5986060993	 2.0448343213	 0.832338187	 0.126199
H	 0.5217336263	-0.2479148567	-0.8769184245	 0.1036
H	 0.2931081805	 0.0027467182	 2.1819485248	 0.125589
H	 0.7005071223	-1.4822490534	 1.297595301	 0.121062
H	 2.7359473913	-0.2940134386	 0.2989953432	 0.077513
H	-1.3582208391	-1.6083183041	 0.0558715394	 0.150738
H	-2.0086878369	-0.1763726495	 0.8456665259	 0.154502
