16
gdb 11559	6.5146	1.01365	0.94359	2.9563	62.36	-0.2687	0.0032	0.2719	1222.6368	0.128707	-420.886652	-420.878223	-420.877278	-420.920844	29.467	
O	 0.2065530356	 1.2148943958	-0.264337643	-0.419263
C	 0.0224875528	-0.1260395044	 0.0882197042	-0.144949
C	-1.4435087864	-0.5091137636	-0.0060538434	 0.411193
O	-2.2998620931	 0.2734118067	-0.343433191	-0.369064
O	-1.6530588581	-1.7867879486	 0.3371858835	-0.238887
C	-2.9955533188	-2.2504592644	 0.2712386684	 0.146487
C	-3.358318544	-3.1644169095	-0.8585534053	-0.278846
C	-3.1745905508	-3.7051520948	 0.5470386386	-0.296898
H	-0.6765406805	 1.5505334497	-0.4794677884	 0.297013
H	 0.595767199	-0.7974535726	-0.5689052814	 0.124053
H	 0.3649214187	-0.3234625012	 1.1150911055	 0.126223
H	-3.7121433179	-1.5214244593	 0.626982363	 0.127827
H	-4.3571098207	-3.0910656499	-1.2731311764	 0.128114
H	-2.5796899998	-3.3889271056	-1.5783425201	 0.128694
H	-2.2765241881	-4.2800487587	 0.7414848509	 0.132136
H	-4.045179138	-4.0146189796	 1.1136104248	 0.126168
