21
gdb 86226	2.4025	1.20421	0.86823	1.9258	84.88	-0.2506	0.0584	0.309	1377.8869	0.181493	-387.07325	-387.063533	-387.062588	-387.108338	36.729	
C	-0.1056501246	 1.5596868388	-0.0063990543	-0.406697
C	 0.064194528	 0.0419940137	-0.0203134367	 0.047574
C	 0.8916494085	-0.508600322	-1.19100823	-0.257527
C	 1.2049967322	-1.947839297	-0.7616191746	 0.117568
O	 2.3156511705	-2.5433836968	-1.4063237294	-0.438907
C	 1.5223768148	-1.8237625522	 0.7553338153	-0.148354
C	 0.7897517068	-0.5234266441	 1.226696097	-0.242002
C	 1.1798412817	-3.0147530801	 1.5179273439	 0.318366
C	 0.8742498608	-3.9917431121	 2.1490824166	-0.473975
H	 0.8683301071	 2.0614727739	 0.031883	 0.113642
H	-0.6279682739	 1.911785293	-0.9023440394	 0.112469
H	-0.6832162931	 1.886676966	 0.8649352099	 0.11508
H	-0.9331426012	-0.4163774114	-0.0702734399	 0.075869
H	 0.3720170191	-0.4531352546	-2.1536094051	 0.086908
H	 1.837156213	 0.0415434416	-1.2876397988	 0.100892
H	 0.307052064	-2.5712808253	-0.8857523234	 0.077145
H	 2.0706442058	-2.7277348037	-2.3181288626	 0.283076
H	 2.6066444833	-1.6730325816	 0.8158372143	 0.115291
H	 1.5259956996	 0.1999289677	 1.5925124042	 0.101806
H	 0.1006126994	-0.7236216071	 2.0494983912	 0.111479
H	 0.6169703882	-4.8580598165	 2.7060078217	 0.190298
