13
gdb 937	5.89436	2.6957	1.87112	0.5825	61.88	-0.2438	-0.0469	0.1969	657.0932	0.103975	-303.553222	-303.547289	-303.546344	-303.583364	21.298	
C	 0.0134069178	 1.505624776	-0.0000892276	-0.470813
C	 0.0112860732	 0.0019966895	 0.0106664146	 0.319552
N	 0.1680007905	-0.6269224932	-1.1616753075	-0.288498
C	 0.1638395298	-1.9588475736	-1.1350512409	-0.017705
C	 0.005191701	-2.6773506842	 0.0472667996	-0.013129
N	-0.1517506992	-2.0644697088	 1.2212247741	-0.231335
C	-0.1472056349	-0.7320494827	 1.1916886904	-0.052132
H	 0.9560542966	 1.8830798638	-0.4087764877	 0.145025
H	-0.7882053408	 1.8838571875	-0.6423011027	 0.145025
H	-0.1208573577	 1.9148119037	 1.0041375864	 0.124845
H	 0.2909117245	-2.4715065791	-2.0856793494	 0.114373
H	 0.0045894559	-3.7641682925	 0.0481657459	 0.114919
H	-0.2744261366	-0.2208788364	 2.1433420148	 0.10987
