18
gdb 88143	2.51001	1.52936	1.13155	2.7624	72.91	-0.2391	0.0322	0.2713	1102.3014	0.148945	-439.117228	-439.108858	-439.107913	-439.150206	31.713	
O	-0.088348184	 1.3846526673	-0.122509739	-0.423241
C	-0.0687744714	-0.0064806958	-0.0036416928	 0.063715
C	-0.5246203971	-0.6579653205	 1.2681484859	-0.378016
C	-1.4227463173	-0.6801287422	 0.0526273357	 0.212764
C	-2.7294303711	 0.082087729	-0.0796532287	-0.31875
C	-3.4047085163	-0.5722171331	-1.3121903599	-0.169087
N	-2.768281336	-1.8807627541	-1.3799832835	-0.327401
C	-1.5705301577	-1.9627195618	-0.7199393738	 0.370847
O	-0.7816348819	-2.8855404436	-0.7628121217	-0.400458
H	 0.6229473115	 1.7403569714	 0.4201067734	 0.29275
H	 0.6979644876	-0.517962553	-0.583884213	 0.109166
H	-0.0666525026	-1.6003842244	 1.5499824169	 0.136612
H	-0.8224265032	-0.0039510155	 2.0814924092	 0.112619
H	-3.3519528248	-0.0658698947	 0.8085286782	 0.11221
H	-2.5750721081	 1.1537055408	-0.2129542285	 0.131673
H	-4.4880222017	-0.6642953243	-1.1886774968	 0.112862
H	-3.218945503	 0.0109606845	-2.2246523595	 0.112381
H	-2.9910043828	-2.5605778801	-2.0900239619	 0.249355
