16
gdb 14180	3.99656	1.72828	1.7019	1.1697	60.13	-0.2381	0.0703	0.3084	831.8939	0.129473	-420.84367	-420.836157	-420.835213	-420.875157	28.247	
C	-0.0733022872	 1.6044465526	 0.0103146542	-0.449963
C	 0.030699708	 0.1025687572	 0.0199357198	 0.308402
O	-1.0941152423	-0.5973275722	-0.4434788592	-0.459721
C	 1.3486144921	-0.6286842678	-0.2220650919	-0.031103
O	 2.5329270723	 0.1222928939	-0.0693677211	-0.251709
C	 2.8087562187	 0.0976629581	 1.3213586641	 0.02209
O	 1.5562439739	 0.0745811809	 1.9847475366	-0.253534
C	 0.7047277095	-0.6628258475	 1.137319605	 0.014336
H	 0.8226239347	 2.0660746225	 0.4251816531	 0.140666
H	-0.1998591264	 1.9723961992	-1.0148904668	 0.109001
H	-0.9390784809	 1.9229891534	 0.5985193732	 0.12868
H	-1.1852684734	-0.4195315799	-1.3869098076	 0.285386
H	 1.399911284	-1.4784014703	-0.8954232215	 0.105597
H	 3.3975003734	-0.7986249144	 1.5800395551	 0.094905
H	 3.3459886542	 1.0082020432	 1.5985426406	 0.123229
H	 0.2270351294	-1.5345384489	 1.5715331463	 0.113738
