19
gdb 95707	3.09796	1.25436	0.9643	3.4122	72.38	-0.2608	0.0101	0.2709	1226.265	0.159613	-460.200047	-460.191549	-460.190605	-460.233286	32.093	
C	 0.3051920904	 1.6505896206	 0.0436817362	-0.403406
C	-0.0272262107	 0.1629441776	 0.0896161112	 0.107945
C	 0.4451815255	-0.543697467	-1.1858066205	-0.086631
O	-0.2085879454	-1.7898859321	-1.4558219418	-0.225683
C	-0.0351800358	-2.882688743	-0.6685853781	 0.398938
O	-0.5631698293	-3.9122174215	-0.9892038596	-0.315983
C	 0.7973340668	-2.7309133711	 0.594786703	-0.343639
C	 0.2642336501	-1.6812305698	 1.5861967054	-0.087859
O	 0.6009540852	-0.3515855856	 1.2539447519	-0.249065
H	 1.3793279404	 1.8020423267	-0.1039683141	 0.128035
H	-0.2332166451	 2.1464166929	-0.7684905163	 0.122335
H	 0.024431673	 2.118824013	 0.9895542965	 0.134773
H	-1.1189741553	 0.0230225325	 0.1643288206	 0.084294
H	 0.2010896562	 0.0712972426	-2.0550567641	 0.125669
H	 1.5338109898	-0.6728737655	-1.1519859003	 0.1184
H	 0.7986259857	-3.7150076154	 1.0676760809	 0.135331
H	 1.8337329405	-2.4764001804	 0.3436651378	 0.130968
H	-0.8265004899	-1.791201142	 1.6985555726	 0.106115
H	 0.7191887478	-1.8600751225	 2.5643617087	 0.119463
