21
gdb 39301	2.51981	1.97736	1.74457	1.6979	78.97	-0.2314	0.076	0.3074	924.1932	0.187777	-387.098497	-387.091953	-387.091009	-387.129053	28.36	
C	-0.159256492	 1.4899392567	-0.1512060396	-0.250794
C	 1.2703666322	 2.0455955459	 0.1145262345	-0.207201
C	 2.0396974864	 0.8960292314	 0.8011593013	-0.048821
C	 1.6842454951	 0.7472358777	 2.2980745417	-0.193649
C	 0.2641068155	 0.155524444	 2.4943210981	-0.225612
C	-0.0249836392	-0.7700619529	 1.3120050106	 0.084807
O	 1.2178276154	-1.4594430133	 0.9745190994	-0.306113
C	 1.509098299	-0.3699875919	 0.0659039919	 0.096607
C	 0.0121826142	-0.0301810154	-0.0648800105	-0.017921
H	-0.8851206312	 1.8640090666	 0.5777147051	 0.102264
H	-0.5271276962	 1.7918004383	-1.135889514	 0.096648
H	 1.7502409011	 2.2923400593	-0.839625341	 0.097062
H	 1.2722395542	 2.9613094537	 0.7135597123	 0.095297
H	 3.1210687434	 1.0232162507	 0.6950006842	 0.064019
H	 2.4028042403	 0.0569204725	 2.7465809998	 0.112224
H	 1.7907875901	 1.7051599539	 2.8170708521	 0.087666
H	 0.2190788161	-0.4081878408	 3.4318345124	 0.100686
H	-0.5034370256	 0.935417898	 2.5607206489	 0.098624
H	-0.8434699262	-1.4726127596	 1.4916413546	 0.070573
H	 2.1081346396	-0.6899502456	-0.7904317133	 0.070232
H	-0.5205104119	-0.5991308191	-0.8279854386	 0.073402
