21
gdb 97955	5.57058	0.47177	0.45369	2.6595	89.7	-0.237	-0.0122	0.2248	2463.4381	0.178718	-387.098642	-387.087181	-387.086237	-387.138662	38.531	
C	 0.0545599825	 1.3104497287	 0.6091925108	-0.362624
C	-0.0699134821	 0.1555573684	-0.4014120668	-0.31392
C	-1.4107380555	-0.4193587953	-0.4525517194	 0.142914
C	-2.5295965109	-0.8654431696	-0.4843441935	-0.012135
C	-3.87085514	-1.4378099403	-0.5174733888	-0.359173
C	-3.9054365067	-2.8856281002	-0.0025875719	-0.287669
C	-5.3009321967	-3.4949776173	-0.0291739365	 0.37778
C	-5.4203793495	-4.921127541	 0.4790856596	-0.474296
O	-6.2598488505	-2.876481153	-0.4319568644	-0.288249
H	 1.0736076187	 1.7090681946	 0.6115455721	 0.112255
H	-0.6329469047	 2.1223260677	 0.3569171124	 0.128195
H	-0.1846647141	 0.9693809518	 1.6201933064	 0.125425
H	 0.2122721803	 0.5129260722	-1.400324376	 0.126815
H	 0.655233957	-0.6292683718	-0.1493107067	 0.124308
H	-4.560245405	-0.8308606586	 0.08047888	 0.139595
H	-4.273383707	-1.4120816208	-1.5364889736	 0.139898
H	-3.2347359773	-3.521495242	-0.5950494221	 0.129969
H	-3.517895303	-2.9397420475	 1.0229614132	 0.129061
H	-5.0854827687	-4.9833903567	 1.5206046178	 0.139241
H	-6.4560481517	-5.2548483706	 0.4062052543	 0.143746
H	-4.7749792951	-5.5899488287	-0.1013051669	 0.138865
