14
gdb 31220	2.36952	1.48646	0.92538	7.1688	70.95	-0.2416	-0.0168	0.2248	1167.0471	0.102832	-432.915429	-432.907374	-432.90643	-432.948871	28.575	
O	-0.1187660411	 1.4196798462	-0.3385998065	-0.428259
C	 0.0158557067	 0.0713591404	 0.0936922743	-0.211093
C	-1.3417622974	-0.5458097158	 0.039712335	 0.266087
C	-1.7920214796	-1.8487136306	-0.0407818029	 0.094857
N	-3.1743333893	-1.89059375	-0.0144997743	-0.309937
C	-3.5475096875	-0.6399292379	 0.074118456	 0.006812
N	-2.4761750398	 0.2093720828	 0.1191800496	-0.277133
C	-0.9782825763	-3.0071535534	-0.1371861821	 0.213924
N	-0.2728773193	-3.9225150122	-0.21589104	-0.353254
H	 0.7142471572	 1.8733127641	-0.180607763	 0.30269
H	 0.7031134963	-0.5043073495	-0.5419111403	 0.137693
H	 0.4091813518	 0.0262259743	 1.1217638653	 0.126235
H	-4.5665680453	-0.2855868115	 0.1043908228	 0.145537
H	-2.4720133263	 1.2172613832	 0.133225546	 0.28584
