16
gdb 123751	5.16694	1.04692	1.01008	5.2289	70.36	-0.3136	-0.0438	0.2698	1187.6614	0.126234	-430.187787	-430.18055	-430.179605	-430.220652	26.284	
C	-0.0531402917	 1.5317440457	-0.0634598598	-0.215267
C	 1.5010341042	 1.5147294446	-0.0436100409	-0.242286
C	 1.4178356277	 0.1028936227	 0.588871317	 0.086286
C	-0.0375165807	-0.016720199	 0.0712934644	-0.242282
N	 2.3835346058	-0.8989131965	 0.1672128942	 0.138701
N	 2.6167287497	-1.2275329079	-1.0930380741	-0.128375
N	 3.5344451802	-2.1458212595	-1.0428221298	-0.08138
N	 3.8559714298	-2.3726010173	 0.2443187655	-0.086902
N	 3.1407747564	-1.5973430113	 1.0014977137	-0.117278
H	-0.4689894605	 2.016055556	 0.8234306741	 0.117214
H	-0.5338314414	 1.9482225393	-0.9489843212	 0.119278
H	 1.916063997	 1.4588846567	-1.0521206414	 0.141792
H	 2.0284973872	 2.2819681082	 0.5253987732	 0.119792
H	 1.4803920647	 0.1216491546	 1.6765689775	 0.129129
H	-0.7609885952	-0.494638907	 0.7337329017	 0.119793
H	-0.0580497431	-0.5061147494	-0.9046856639	 0.141785
