15
gdb 46087	4.51953	1.0375	0.89	1.7739	72.73	-0.2405	-0.0761	0.1644	1226.0734	0.114099	-416.83129	-416.823539	-416.822595	-416.864061	28.686	
O	 0.0053835813	-0.0529954967	 0.1684289414	-0.312763
C	-0.0095125316	 1.1466365761	-0.0058338822	 0.369027
C	-1.3106059093	 1.9467754933	-0.0902861716	-0.289285
N	-1.223516811	 3.1657189993	-0.8983846565	-0.306025
C	-0.1084763271	 4.0165541198	-0.4777041528	-0.144966
C	 1.2047102021	 3.2750917639	-0.271455797	-0.042549
C	 1.232612649	 1.9505265401	-0.0933366313	-0.174669
C	 0.0686358668	 5.1141679073	-1.4401615495	 0.261154
N	 0.2327799698	 5.9665249508	-2.2015706298	-0.303499
H	-2.1007640468	 1.3023723366	-0.4818392835	 0.143919
H	-1.601468411	 2.2238364896	 0.9336946083	 0.138689
H	-1.0879905679	 2.9146145072	-1.8736193975	 0.240651
H	-0.3879400978	 4.4828609972	 0.4823685672	 0.154944
H	 2.1141793474	 3.8700649464	-0.2585692551	 0.138721
H	 2.1642694661	 1.410102659	 0.0423440199	 0.126651
