19
gdb 83802	2.42803	1.83637	1.63339	2.4699	73.42	-0.229	0.0731	0.3021	939.4071	0.161937	-422.988491	-422.981399	-422.980455	-423.019519	29.764	
O	 0.4582729702	 1.2934298038	-0.0087109695	-0.433122
C	 0.1035475174	-0.0559409218	 0.0112661324	 0.112566
C	-0.486912196	-0.7368261359	 1.2176083832	-0.12021
C	-0.9479287704	 0.1292317215	 2.3755206127	-0.10872
O	-1.4984724334	 1.376862611	 1.919574425	-0.278355
C	-2.6681903282	 1.2084441022	 1.1544292373	 0.078766
C	-2.6479851072	 1.7039997879	-0.2643818916	-0.336081
C	-2.577558263	 0.2162819239	 0.0259246203	-0.046751
C	-1.3146546542	-0.5996119895	-0.0647422181	-0.107705
H	-0.037015412	 1.7304033138	 0.6990178908	 0.29925
H	 0.8297739358	-0.6268778184	-0.5599941501	 0.103361
H	-0.1140071424	-1.7135465058	 1.5131693082	 0.086248
H	-1.6898813143	-0.4033986482	 2.9884652581	 0.104329
H	-0.1101187245	 0.4070918525	 3.0227169514	 0.120548
H	-3.5805256653	 1.2909488876	 1.741910047	 0.093031
H	-3.5763333608	 2.0935515396	-0.6672718167	 0.112215
H	-1.7505769927	 2.1925269852	-0.6202713872	 0.143483
H	-3.4770432024	-0.3540424384	-0.1838552774	 0.090404
H	-1.4179790565	-1.492355371	-0.6736189757	 0.086744
