15
gdb 24196	4.21988	1.6636	1.43927	1.4122	69.79	-0.2155	0.0007	0.2163	886.4413	0.116215	-416.737221	-416.731258	-416.730314	-416.768047	23.966	
C	-0.025172714	 1.5101602323	-0.0723767488	-0.16647
C	 1.5342967997	 1.3361941216	 0.0076561366	-0.173496
C	 1.1342886782	 0.1491073283	 0.9560140133	-0.166463
N	-0.0948212476	-0.0407045169	 0.0221040974	-0.249094
C	 0.6633990677	-0.3044842807	-1.1817687126	 0.37305
C	 1.7167097838	 0.5180681957	-1.2806022546	 0.236709
N	 2.415945062	 0.2389351787	-2.4377991115	-0.359615
C	 1.7266679806	-0.7392294793	-2.9575028977	 0.0025
O	 0.6169933975	-1.1405785631	-2.2354392343	-0.210344
H	-0.4842849757	 1.9530993354	 0.8160763301	 0.115649
H	-0.4568850519	 1.9200985178	-0.9867773004	 0.121093
H	 2.2203632396	 2.1325475165	 0.2881493658	 0.089777
H	 1.7920840568	-0.7198928005	 1.0079786161	 0.121099
H	 0.7959012445	 0.4503359745	 1.9515416166	 0.11561
H	 1.9076599488	-1.2765729103	-3.8734299061	 0.149993
