17
gdb 50949	2.97891	0.85172	0.70906	2.248	80.68	-0.2502	-0.0282	0.2221	1548.4059	0.131183	-384.627806	-384.617612	-384.616667	-384.664033	35.772	
O	-0.5573072167	 0.7583670704	 0.9074246766	-0.23939
C	 0.0886563441	 0.9559500683	-0.0896009875	 0.14879
C	 1.3286550388	 1.8257167053	-0.1348732532	-0.286635
C	 1.2996180072	 2.8789064369	-1.2718278091	-0.175072
C	 2.548531987	 3.8024229889	-1.1691820115	-0.362726
C	 2.5198296785	 4.9184847797	-2.1034161838	 0.299644
C	 2.4751293793	 5.8440896144	-2.8679160151	-0.424758
C	 1.2167770851	 2.2458056805	-2.5860232715	 0.346965
C	 1.175541754	 1.7035421221	-3.6578248187	-0.472173
H	-0.1913627208	 0.4945951234	-1.0609036952	 0.096271
H	 1.438733388	 2.3134517606	 0.837653739	 0.12444
H	 2.1942656224	 1.1669575134	-0.2913856554	 0.131607
H	 0.4150283426	 3.5133637609	-1.1322978001	 0.131038
H	 2.6081318249	 4.1834721321	-0.1423820099	 0.136263
H	 3.4479414813	 3.1967775263	-1.3335247721	 0.140907
H	 2.4445881637	 6.6594980073	-3.5473474637	 0.199512
H	 1.1271743506	 1.2399531597	-4.6122363887	 0.205317
