14
gdb 14565	7.49847	0.70015	0.68352	0.3546	76.56	-0.2543	0.0312	0.2856	1593.7731	0.103391	-308.163476	-308.154396	-308.153452	-308.19938	31.447	
C	-0.0717262234	-1.1065830287	-0.6768971283	-0.443981
C	-0.0182331046	-0.005601287	-0.2015503504	 0.3171
C	 0.0319141033	 1.3362950881	 0.3823650038	-0.490175
C	 1.3700411557	 1.9307940362	 0.372309065	 0.090302
C	 2.4646538098	 2.4261308904	 0.364529808	 0.090306
C	 3.8027903534	 3.020624469	 0.3554471493	-0.490175
C	 3.8419308604	 4.3687157043	-0.2148826993	 0.317104
C	 3.8864659682	 5.4747371153	-0.6793288576	-0.443985
H	-0.1146853806	-2.0797961546	-1.0992503058	 0.20097
H	-0.66184308	 1.9934551535	-0.1600114967	 0.164378
H	-0.3452415919	 1.2965950152	 1.4136163171	 0.161403
H	 4.1995465148	 3.0492928315	 1.3796857169	 0.161403
H	 4.4860115554	 2.3693943371	-0.2070819242	 0.164378
H	 3.9214626197	 6.4524308796	-1.0919564978	 0.200971
