18
gdb 64735	2.60602	1.28294	1.10959	3.7313	77.89	-0.2419	0.0332	0.2751	1168.3744	0.145575	-401.939608	-401.9301	-401.929156	-401.974026	34.763	
C	 0.0220916805	 1.5965070956	-0.0581222974	-0.448963
C	 0.0027611925	 0.0724587179	-0.0204107619	 0.147842
C	-1.4066867566	-0.5059379233	 0.2259541219	-0.414278
C	-2.0348710045	-0.0435431123	 1.4575645483	 0.323643
C	-2.56317243	 0.3444538971	 2.4644529941	-0.442185
C	 0.7594433263	-0.6441637207	-1.1896053657	-0.212311
N	 1.6822130837	-1.1734522479	-0.1852267249	-0.326508
C	 1.1048751343	-0.5491431556	 0.8938958974	 0.406212
O	 1.3810024914	-0.5095668244	 2.0617017373	-0.358035
H	 1.0303099511	 1.9724508964	-0.2570048161	 0.121083
H	-0.6455595219	 1.9775504983	-0.8392491269	 0.115666
H	-0.3097513121	 2.0003793306	 0.9014433458	 0.153364
H	-2.0450679487	-0.2387445885	-0.627598311	 0.130474
H	-1.3491360906	-1.6019188824	 0.2357325779	 0.134938
H	-3.0178485951	 0.6771652204	 3.3644190311	 0.19821
H	 0.1854028952	-1.4110517553	-1.7210574448	 0.10908
H	 1.2212108401	 0.03487403	-1.9139684589	 0.111106
H	 2.5289908946	-1.7163576561	-0.2674838361	 0.25066
