15
gdb 13650	5.96089	0.93415	0.85609	0.8257	86.37	-0.2271	-0.0227	0.2043	1309.4541	0.116809	-325.438372	-325.430045	-325.429101	-325.471276	30.265	
C	-0.1711750564	 1.4286517521	-0.2013457239	-0.313745
N	 0.0143918166	-0.0037057982	 0.0001203837	-0.07413
C	 1.3566387277	-0.5234384711	-0.16095375	-0.236545
C	 0.7387365219	-0.4479653241	 1.209122751	-0.225597
C	 1.2449238419	 0.4794470553	 2.1756172875	 0.482437
C	 1.6349712272	 1.2430614267	 3.0326748547	-0.312478
C	 2.0846157164	 2.1019505391	 3.9853196304	 0.298993
C	 2.482600482	 2.8654558235	 4.8327502371	-0.560736
H	 0.6873995653	 2.0383731065	 0.116174235	 0.117884
H	-0.3506587697	 1.6028908228	-1.2664028998	 0.127564
H	-1.0525961149	 1.75826231	 0.3560409279	 0.13272
H	 1.4453011968	-1.4898838147	-0.6499573197	 0.125322
H	 2.1617054248	 0.1797276589	-0.3682214987	 0.12268
H	 0.3333967718	-1.363526058	 1.6349116941	 0.123074
H	 2.8348309386	 3.5352763312	 5.5772644306	 0.192557
