21
gdb 120288	3.2607	1.02376	0.98021	0.9993	84.02	-0.2259	0.0217	0.2475	1341.5793	0.183089	-387.072439	-387.063692	-387.062748	-387.106645	32.829	
C	-0.1895318562	 1.3496540744	 0.0732839273	-0.222373
O	-0.2077735637	-0.0485828947	 0.2123157867	-0.233969
C	 0.843015803	-0.5293053863	 1.030930853	-0.080419
C	 0.7723582541	-2.0305125373	 1.0571952633	-0.026683
C	 1.4086355008	-2.8911258622	 2.1216889944	-0.085087
C	 1.7850536208	-2.2817150525	 3.4761773095	-0.272453
C	 0.4576771563	-1.8251516482	 4.0473637991	-0.077407
C	-0.5659249595	-2.1494304823	 3.2528501804	-0.06876
C	-0.11121681	-2.8289825437	 2.0076717039	-0.083668
H	 0.7447555841	 1.7050704849	-0.3919617946	 0.098765
H	-1.0291403338	 1.6276487483	-0.5690390715	 0.123292
H	-0.3007038993	 1.8619746753	 1.042907136	 0.100325
H	 1.8173553113	-0.2104946097	 0.6192267117	 0.079251
H	 0.7624073153	-0.1042769923	 2.0422665008	 0.091036
H	 0.825869596	-2.4579915151	 0.0588342318	 0.091087
H	 1.9557330888	-3.7653199296	 1.7884354063	 0.083473
H	 2.2632283859	-3.0295733764	 4.1228488761	 0.107047
H	 2.503469989	-1.4555447964	 3.3884820792	 0.107562
H	 0.382072431	-1.2793658657	 4.9813680928	 0.090983
H	-1.6086059301	-1.9288778886	 3.4512171089	 0.094392
H	-0.7001960437	-3.637689452	 1.5888279752	 0.083607
