23
gdb 41813	2.2201	1.89072	1.44293	1.1843	83.64	-0.2414	0.0723	0.3137	1043.2264	0.210688	-388.312129	-388.304552	-388.303607	-388.343858	31.409	
C	 0.4132250755	 1.6528981357	 0.3806411599	-0.204582
C	 1.5602190112	 2.079741047	-0.5705370022	-0.202285
C	 2.1582986353	 0.7618853799	-1.1051931376	 0.002848
C	 0.9123531706	-0.1396710079	-1.2186204896	-0.239881
C	 0.1065508258	 0.1520284856	 0.0698649742	 0.028245
C	 0.4767988413	-0.7849491989	 1.2400346467	-0.22283
C	 1.9737792255	-1.1125599557	 1.3666772196	-0.063874
O	 2.8322228874	-0.0006037897	 1.1698872257	-0.244314
C	 3.2395192358	 0.1959606645	-0.1748276524	-0.087779
H	 0.7124723054	 1.7693093204	 1.4246716693	 0.105465
H	-0.4742381525	 2.2751511547	 0.2314576149	 0.08691
H	 1.1619789869	 2.6623012501	-1.4082429644	 0.090268
H	 2.307414746	 2.704457382	-0.0721348837	 0.094601
H	 2.6352751211	 0.9056493514	-2.0827151708	 0.060402
H	 0.3304549291	 0.1660751922	-2.0956145372	 0.090927
H	 1.1512583327	-1.2004083944	-1.3505339454	 0.087035
H	-0.9638644112	 0.0234240023	-0.1181458496	 0.063651
H	 0.1201564106	-0.3329981947	 2.1732331364	 0.098947
H	-0.0559416605	-1.7398042421	 1.1378867526	 0.089196
H	 2.1797244387	-1.4909877886	 2.3745832256	 0.09941
H	 2.2477013147	-1.9130324557	 0.6621985196	 0.086479
H	 3.6260636307	-0.7516229232	-0.5876879688	 0.080635
H	 4.07712821	 0.9010830051	-0.1244114626	 0.100525
