16
gdb 85105	2.05414	1.60915	1.23646	1.4686	72.7	-0.2692	-0.0026	0.2665	1084.5145	0.121218	-437.844596	-437.835294	-437.83435	-437.878568	33.963	
C	 0.2590709768	 1.5181421742	-0.135956713	-0.404603
C	-0.0320081021	 0.057086623	 0.1003144739	 0.113637
O	 0.7039085558	-0.8212775739	-0.8285077493	-0.26902
C	 1.3503599629	-1.4620881954	 0.1941074076	 0.392723
N	 2.2277802741	-2.3546616173	 0.2104092351	-0.551766
C	 0.6704171253	-0.6523335995	 1.3044481215	 0.063355
O	 1.5438664503	 0.2111634139	 1.9973892765	-0.445191
C	-0.2006675118	-1.4095024878	 2.1927994482	 0.304032
C	-0.9163605499	-2.0333937387	 2.9292283083	-0.464853
H	 1.3255957176	 1.724432923	-0.0362363516	 0.144302
H	-0.0732836273	 1.8029308791	-1.1384519357	 0.131092
H	-0.2816789814	 2.1276129975	 0.5943275163	 0.136288
H	-1.0979688812	-0.1722626679	 0.0373805473	 0.107949
H	 2.4978194583	-2.6433244797	-0.7313717163	 0.233454
H	 2.193585702	-0.342623292	 2.4470582578	 0.301647
H	-1.5427198494	-2.5894721984	 3.5827886333	 0.206955
