23
gdb 96231	2.18538	1.4946	1.08324	1.4781	86.61	-0.2377	0.0217	0.2593	1225.9606	0.207099	-388.304374	-388.295078	-388.294134	-388.337948	36.359	
C	-0.292922848	 1.4976932657	 0.0879993439	-0.396114
C	-0.0408285207	-0.0231595372	 0.0180255011	-0.004685
C	 0.5314355309	-0.4239876199	-1.3242184457	-0.086592
C	 1.7927276777	-0.3445670153	-1.752261684	-0.049046
C	 3.0089421697	 0.1457463075	-0.9992924304	-0.246621
C	 3.2001645713	-0.4182067163	 0.417777719	-0.193918
C	 2.1503455007	 0.0233588045	 1.443572365	-0.216779
C	 0.7474208208	-0.5572956456	 1.2307669981	 0.123137
O	-0.0829218296	-0.2887439781	 2.3619318273	-0.445183
H	 0.6255871623	 2.0691735091	-0.0751373624	 0.113755
H	-1.0049393389	 1.7996114328	-0.6858800895	 0.109229
H	-0.7037857284	 1.7664932095	 1.0639675747	 0.131266
H	-1.0212925482	-0.5056314438	 0.1090506814	 0.083779
H	-0.2069590751	-0.7793891072	-2.0407558793	 0.082662
H	 1.9813606056	-0.6458605799	-2.7810594493	 0.082548
H	 3.9003486442	-0.0965031588	-1.5881559921	 0.097417
H	 2.9881486184	 1.2446076043	-0.9417892373	 0.109604
H	 3.221302458	-1.5145740186	 0.366991577	 0.096636
H	 4.187405942	-0.1059764002	 0.7788548707	 0.091729
H	 2.4886848473	-0.3017206543	 2.4381794117	 0.076924
H	 2.0953916277	 1.1178511148	 1.4868232603	 0.102691
H	 0.8489865656	-1.6474806479	 1.0968910732	 0.060415
H	 0.3983146767	-0.5516892151	 3.1525024169	 0.277147
