14
gdb 29115	3.12422	1.46981	0.99956	4.6271	69.63	-0.202	-0.033	0.169	1089.4212	0.101922	-470.020881	-470.012968	-470.012024	-470.053446	29.844	
O	-0.1260387787	 1.3606454834	-0.1894115876	-0.420549
C	 0.0631899008	 0.0249134399	-0.0507331331	 0.381559
C	 1.2037782187	-0.6011951001	 0.2548823152	-0.16176
O	 1.2514232375	-1.9870468294	 0.3646908502	-0.235212
C	 0.142728109	-2.7477565979	 0.165694827	 0.349257
N	 0.1627863139	-4.010343068	 0.26061599	-0.517619
C	-1.1583932716	-2.0660037467	-0.1805581589	 0.316457
N	-2.2542870457	-2.6751868921	-0.3874249756	-0.517415
N	-1.0945115797	-0.6883743747	-0.2647176273	-0.386164
H	 0.7056314477	 1.8191804338	-0.0313523697	 0.313566
H	 2.1564740981	-0.1326257487	 0.439554285	 0.123106
H	 1.0969868548	-4.344373082	 0.4980865911	 0.231707
H	-2.0908469262	-3.6765748521	-0.2783457494	 0.248623
H	-1.9442840985	-0.1951506156	-0.494390227	 0.274443
