18
gdb 40607	3.95221	1.21805	1.16777	1.6009	76.22	-0.2164	0.048	0.2644	1118.1632	0.146802	-401.817445	-401.809974	-401.80903	-401.85008	29.624	
C	 0.6922720746	 1.7703630908	 0.2146260241	-0.267446
C	 1.3371143879	 0.4700103632	-0.1921670826	-0.267443
C	-0.1633964085	 0.5661396221	-0.0851706827	 0.051957
N	-0.7389923424	-0.0790164472	 1.0646196019	-0.064277
C	-2.0590777267	-0.0285359084	 1.6137946372	-0.099425
C	-3.2244462624	-0.3142564645	 0.5837418145	-0.003642
O	-2.6722168454	-0.475388945	-0.7262899811	-0.227998
C	-2.6013695165	-1.5723054154	 0.18962257	-0.003651
C	-1.4129602629	-1.3331133319	 1.2051217541	-0.09944
H	 0.7784035652	 2.0629894776	 1.2545547299	 0.114162
H	 0.6763335503	 2.5920036605	-0.4925487574	 0.109464
H	 1.7701264363	 0.3862770396	-1.1825892247	 0.109452
H	 1.8478121611	-0.0935231465	 0.5799168622	 0.114162
H	-0.7308507456	 0.5726307494	-1.0054302462	 0.116506
H	-2.229364242	 0.3791330031	 2.6047587507	 0.097863
H	-4.2643612055	-0.0234571059	 0.6693245187	 0.110944
H	-3.0273726812	-2.5210711228	-0.1131568237	 0.110947
H	-0.9916349465	-2.1201031986	 1.8218329151	 0.097864
