19
gdb 77959	3.33456	1.19244	0.98753	1.2583	82.74	-0.2491	0.0443	0.2934	1223.4136	0.157768	-385.795676	-385.786679	-385.785735	-385.829174	34.447	
C	-0.2228659597	 1.64263939	-0.0045619808	-0.481389
C	 0.0057535088	 0.131489861	 0.0410254582	 0.043071
C	 1.1386792736	-0.565011864	-0.7820096588	-0.117017
C	 2.1752794196	-0.1513162804	 0.3252601632	 0.168701
O	 2.6991537516	 1.1412259287	 0.4491002873	-0.454449
C	 0.9067185497	-0.6050686857	 1.0995493308	-0.136592
C	 0.904909689	-1.8320504722	 0.1159385169	-0.180046
C	-0.2912123303	-2.629065153	-0.0484688124	 0.317303
C	-1.2571213176	-3.3337357724	-0.1825188233	-0.439361
H	 0.6567010291	 2.2170447734	-0.3017360401	 0.128988
H	-1.0012761867	 1.8705615243	-0.7402744712	 0.12563
H	-0.5811056511	 2.0203426164	 0.9606820979	 0.119557
H	-0.9606526669	-0.3672581666	-0.0670893916	 0.091535
H	 1.2743656253	-0.5664627363	-1.8643538599	 0.079414
H	 3.0321446566	-0.8293245169	 0.3951974163	 0.080351
H	 2.0476530504	 1.7157436264	 0.8563243425	 0.290146
H	 0.7653677346	-0.6554461919	 2.18138022	 0.076114
H	 1.7819733983	-2.4793430933	 0.214997207	 0.0973
H	-2.1135642243	-3.9499391875	-0.3015830321	 0.190741
