15
gdb 36538	4.57418	0.90022	0.87379	5.8752	73.04	-0.2754	-0.0059	0.2695	1327.2074	0.112518	-416.777744	-416.76987	-416.768926	-416.811937	28.426	
N	-1.9293812692	 0.9373552436	-0.5080127867	-0.306997
C	-0.8372521457	 1.0268809927	-0.1427404782	 0.27424
C	 0.553620647	 1.1280367422	 0.3164171191	-0.303395
N	 1.0340485305	 2.5070727979	 0.2294769632	-0.346163
C	 1.8495759259	 2.7763809408	-0.6839086619	 0.508401
O	 2.4192213419	 1.9467955485	-1.6509656196	-0.279424
C	 3.2871061831	 3.0388276471	-2.0653461732	 0.096576
C	 2.4605043851	 4.1363248008	-2.6202938721	-0.288386
C	 2.6108915535	 3.9863761052	-1.0992349262	-0.228688
H	 0.5845981608	 0.8160021076	 1.3662619439	 0.158339
H	 1.1582524425	 0.4177414956	-0.2620924285	 0.16209
H	 4.3251707732	 2.8032443451	-2.2511977588	 0.135015
H	 3.0040828866	 4.9824703185	-3.0290700474	 0.137175
H	 1.5162292689	 3.9082108377	-3.1036711163	 0.147522
H	 2.9943245458	 4.7647674066	-0.4575784371	 0.133694
