16
gdb 39090	3.66862	1.77991	1.55086	1.3211	66.78	-0.2513	-0.0013	0.25	859.0211	0.127579	-437.844181	-437.838285	-437.837341	-437.874125	24.976	
C	-0.0416476233	 1.6256019594	 0.2063230477	-0.298059
C	 1.456549114	 1.3813497431	-0.003792003	 0.056979
O	 1.7963932519	 0.5363475746	 1.1397046192	-0.2899
C	 0.6936896697	-0.4224471213	 1.2158189766	-0.153674
C	-0.0415000055	 0.071630354	-0.0105103439	 0.362342
O	-1.1058555556	-0.5170446952	-0.7321250208	-0.280736
C	-0.792120587	-0.1355660353	-2.0215546004	 0.0849
N	 0.3430120809	 0.3802408872	-2.2835617374	-0.290459
C	 1.1081660474	 0.2710189012	-1.029600743	 0.010582
H	-0.3543455035	 2.0107856126	 1.1777997121	 0.107414
H	-0.5198381124	 2.1598409925	-0.6131766494	 0.126272
H	 2.2196759551	 2.1483002832	-0.1108043087	 0.092674
H	 1.0738553837	-1.4444016272	 1.1239717691	 0.117329
H	 0.1644289542	-0.3059537987	 2.1669918442	 0.112403
H	-1.5854504312	-0.3140728201	-2.738630009	 0.145453
H	 1.8910975013	-0.4863651001	-1.1361014034	 0.096478
