14
gdb 123701	4.21735	1.63762	1.28783	5.7029	66.75	-0.219	-0.0069	0.212	914.8311	0.104375	-432.825859	-432.819848	-432.818904	-432.856151	24.317	
C	 0.0006427795	 1.4851990022	 0.0942306709	-0.318082
C	 1.2966092046	 0.7375339828	 0.0348429062	 0.094629
O	 1.9883173263	 0.4277468114	 1.2429190829	-0.258361
C	 1.1464573826	-0.4057122323	 1.9135683477	 0.388712
C	 0.0102305389	-0.7471665074	 1.2320038407	 0.298455
N	-0.6164750517	-1.5754166522	 2.0941271086	-0.336278
N	 0.1154223927	-1.7275041512	 3.2305563865	-0.12909
N	 1.2020031427	-0.9886777278	 3.1190018689	-0.297177
C	-0.0412670018	-0.0355783861	-0.0545856972	-0.228978
H	-0.3207296334	 1.9148358153	 1.0361546496	 0.139844
H	-0.246651095	 2.0681138384	-0.7864915467	 0.128981
H	 1.9759273814	 0.8618911835	-0.7982476309	 0.121817
H	-1.485537982	-2.0772172109	 2.0125304416	 0.282313
H	-0.4007630349	-0.4916436659	-0.9690409488	 0.113216
