17
gdb 103016	1.99174	1.46295	1.13287	3.5513	71.38	-0.2326	0.0262	0.2588	1144.5496	0.133034	-458.889734	-458.880109	-458.879164	-458.923776	36.037	
O	 0.2539676622	 1.1106120595	-0.5871605163	-0.424849
C	-0.0026619004	 0.0244522789	 0.2812069031	-0.130042
C	-1.4371919803	-0.4976424949	 0.1755786063	 0.002896
C	-2.4444476101	 0.2198347796	 0.9025510913	 0.270708
C	-3.2988991956	 0.7981265358	 1.522069339	-0.431619
C	-1.8754199037	-1.0827852667	-1.1631606703	-0.016177
O	-0.8647774339	-1.1077321938	-2.1485249838	-0.436608
C	-1.6695672224	-2.0208670601	-0.0112881083	 0.053834
O	-0.5931208195	-2.8921621169	-0.0654609532	-0.42279
H	 0.1495225909	 0.7730952252	-1.4839110058	 0.291429
H	 0.6951009632	-0.8058202358	 0.1162096931	 0.093669
H	 0.1608797427	 0.3930408231	 1.2969227398	 0.122402
H	-4.0421509384	 1.323085078	 2.068903658	 0.191956
H	-2.8709149118	-0.8423441662	-1.5247314663	 0.116578
H	-1.1922536495	-1.6025707146	-2.9072293053	 0.306782
H	-2.5271877983	-2.4457571705	 0.499220362	 0.121499
H	-0.1325843349	-2.7104021306	-0.8965751632	 0.290333
