16
gdb 35198	3.43601	1.20407	1.10251	4.8979	73.75	-0.2671	0.0266	0.2937	1115.3205	0.124169	-400.703334	-400.695761	-400.694816	-400.735681	28.891	
N	-0.0281506578	-1.1017654659	-0.1036263668	-0.340711
C	-0.0222584223	 0.0544906467	-0.0550195392	 0.294294
C	 0.0079581497	 1.4878306836	 0.006315196	-0.23568
C	 0.5273897837	 2.1686775094	 1.2709928672	-0.354366
C	 1.3500579962	 2.1931355229	 0.0300520932	 0.351232
C	 2.7640427597	 1.5945938358	-0.1729493907	-0.343691
C	 3.0956795687	 2.8612084782	-0.9860222867	 0.038708
O	 2.1671043828	 2.9304782444	-2.0713457606	-0.235819
C	 1.7417330776	 3.4091086736	-0.7903477407	-0.072812
H	-0.799340367	 1.978131404	-0.5277541783	 0.137237
H	 0.0142411076	 3.0745290469	 1.5765631292	 0.13213
H	 0.8435928955	 1.5271137432	 2.0859167604	 0.142879
H	 3.324182972	 1.5174613327	 0.762237275	 0.119145
H	 2.8259501954	 0.6552717847	-0.7262281389	 0.139113
H	 4.0472128543	 3.3642525917	-1.1058756869	 0.115976
H	 1.3760590338	 4.4273799881	-0.7239964321	 0.112365
