21
gdb 86027	3.13099	0.96251	0.87892	1.3847	83.91	-0.2574	0.0477	0.3051	1401.42	0.179919	-387.049193	-387.039339	-387.038395	-387.083628	37.803	
C	-0.4957646283	 1.8017427041	 0.2162217213	-0.455655
C	-0.0219308291	 0.358601075	 0.0858109436	 0.329395
C	-1.2058830497	-0.5867936851	-0.2336407037	-0.408373
C	-1.8434236075	-0.315449948	-1.517291991	 0.316233
C	-2.3484586734	-0.0839837713	-2.5837506373	-0.453727
C	 1.2006288322	 0.1020761277	-0.8515184295	-0.304504
C	 1.7994096278	-0.8326134921	 0.2322152916	 0.176696
O	 3.1827908159	-0.8264451649	 0.4772916572	-0.434863
C	 0.8295638856	-0.203897121	 1.2686583417	-0.315844
H	 0.3426434548	 2.4705274143	 0.4359762703	 0.104475
H	-0.9720495452	 2.1457369874	-0.7074742399	 0.132076
H	-1.2261915131	 1.9044734174	 1.0279268507	 0.111883
H	-0.8615962947	-1.6285503139	-0.221832672	 0.129904
H	-1.9498226709	-0.5052738083	 0.5703631945	 0.127056
H	-2.8042716993	 0.113673113	-3.5221290261	 0.195128
H	 1.0046070058	-0.309835414	-1.8442921734	 0.111288
H	 1.8084854702	 1.007098023	-0.9640031724	 0.087231
H	 1.5509044605	-1.8796339537	 0.0378334339	 0.092493
H	 3.4528081833	 0.0845429689	 0.6348622467	 0.274677
H	 1.3208810501	 0.6054186886	 1.8202935913	 0.087413
H	 0.3395410051	-0.8666590969	 1.9879387227	 0.097018
