13
gdb 131125	4.06193	1.05518	1.00455	3.6857	61.32	-0.2844	-0.0664	0.2181	1149.1985	0.087467	-489.854925	-489.84709	-489.846146	-489.888495	27.409	
O	-0.1346229477	 1.3956139072	 0.1498323899	-0.412507
C	 0.022415742	 0.0157536658	 0.0146453188	-0.074898
C	 0.8157615957	-0.3085928169	-1.2571971836	 0.139836
O	 1.1939122446	 0.5713907362	-1.9846795514	-0.242233
C	 0.6981066812	-0.598879399	 1.2062137771	 0.422833
C	 0.3130627609	-1.534284988	 2.114185529	-0.216897
N	 1.367646912	-1.7084934239	 2.9794733386	-0.104333
N	 2.3298771863	-0.967471459	 2.6628739264	 0.004461
O	 1.9424012849	-0.2200555405	 1.4983902881	-0.216619
H	 0.3581808928	 1.7891757257	-0.589515044	 0.305377
H	-0.9566153553	-0.4829134888	-0.0892655932	 0.122078
H	 1.006866616	-1.3789712498	-1.4623877212	 0.122526
H	-0.6133324034	-2.0720204289	 2.2202216356	 0.150375
