22
gdb 114617	2.16425	1.41735	0.99975	2.0641	83.29	-0.2217	0.0736	0.2953	1298.0776	0.193083	-404.297141	-404.287408	-404.286464	-404.332006	35.892	
C	 0.1437025214	 1.4402735895	 0.4758572817	-0.369872
C	 0.0783105064	 0.0096306986	-0.0808787615	-0.319636
C	-1.3266051142	-0.5108622665	-0.1611833195	 0.326364
N	-2.0796444202	-0.9255541814	 1.052660141	-0.36275
C	-1.9150858221	-1.8817041612	-0.0691347686	-0.128634
C	-3.043281426	-1.5428876876	-1.0463968652	-0.266503
C	-2.3689153299	-0.1263618119	-1.2130265556	 0.12248
O	-3.0937226663	 1.0386539956	-0.9423990968	-0.240702
C	-4.032477552	 1.3562059879	-1.9442007351	-0.23478
H	 1.1720670606	 1.8140342868	 0.4807480494	 0.106757
H	-0.4683507359	 2.1175548465	-0.1267665388	 0.135494
H	-0.2392813935	 1.4792571915	 1.500237662	 0.124018
H	 0.5272741074	-0.0165811158	-1.0823935019	 0.099368
H	 0.6796900089	-0.6654278089	 0.5428316175	 0.091787
H	-1.3732400379	-1.1609162985	 1.7514449103	 0.220871
H	-1.4174687935	-2.8331700107	 0.0744110191	 0.091264
H	-3.0513808145	-2.1290299435	-1.9674544393	 0.096506
H	-4.0357843247	-1.5348622558	-0.5901481524	 0.112181
H	-1.8916402775	-0.0592417625	-2.2048693105	 0.060791
H	-3.5499281508	 1.5006560707	-2.9246312766	 0.099232
H	-4.7999266811	 0.5750408628	-2.0516801146	 0.108696
H	-4.5201167947	 2.2887156146	-1.6502628347	 0.127069
