21
gdb 73203	2.45983	1.68838	1.39493	1.7132	82.28	-0.2359	0.0233	0.2592	1050.2035	0.183722	-387.097002	-387.088829	-387.087885	-387.129423	32.453	
C	-0.1928527717	 1.6341881739	 0.2483146276	-0.443421
C	 0.0119379468	 0.1348606926	 0.0876778045	 0.429169
C	-1.2937556049	-0.5887792912	-0.2634754119	-0.295025
C	-1.2317497553	-2.0789364206	-0.0525534996	-0.048166
C	-0.4981737608	-2.6331108377	 0.911068032	-0.064415
C	 0.3455068521	-1.8054542344	 1.8477484497	-0.28301
C	 0.9013667431	-0.5479014325	 1.1732686891	-0.103331
C	 1.8912148582	-0.7738094987	 0.012876285	-0.076595
O	 1.0152237521	-0.1387924374	-0.9346504005	-0.326167
H	 0.7641702866	 2.1367781729	 0.4151694101	 0.1166
H	-0.6469012611	 2.0586476599	-0.6535698354	 0.121418
H	-0.8516038799	 1.849239916	 1.0969784746	 0.111336
H	-2.1143472248	-0.1674257647	 0.3366949975	 0.103889
H	-1.5292189956	-0.3526486918	-1.3076227323	 0.113903
H	-1.8419980785	-2.702230539	-0.7004477537	 0.085871
H	-0.5060028132	-3.7101723507	 1.0538362546	 0.085023
H	-0.2516676609	-1.5179462777	 2.7261153356	 0.109771
H	 1.1777618639	-2.4009497274	 2.2434466983	 0.103829
H	 1.2672413514	 0.1560610205	 1.9249039407	 0.069284
H	 2.8544744678	-0.2548235283	 0.0979647107	 0.092532
H	 2.0728870949	-1.8258244838	-0.2419329366	 0.097504
