17
gdb 44453	4.15558	1.45436	1.32893	4.0048	74.45	-0.2471	0.0291	0.2762	978.6698	0.138714	-417.93059	-417.924088	-417.923144	-417.961346	27.062	
N	-0.0271733452	 1.1562773717	-0.4491233614	-0.532515
C	-0.0078654595	-0.0338887522	-0.044525811	 0.432164
C	-1.2552748544	-0.942697332	 0.0653848324	-0.439294
C	-0.5560378238	-2.2704983704	 0.1315896585	 0.298418
C	-0.4503554577	-3.7320181415	 0.6473019394	-0.332279
C	 0.9483474852	-3.321398713	 0.0354006587	-0.081083
N	 0.2509802727	-2.6563197626	-1.1178354412	-0.339307
C	 0.7756716503	-1.9876937805	 0.8201777463	 0.137591
O	 1.1406188214	-0.6973294001	 0.3719057921	-0.253841
H	 0.9103494177	 1.5608071959	-0.4293352155	 0.227338
H	-1.8060962145	-0.708929073	 0.9827062914	 0.134059
H	-1.909918578	-0.784615462	-0.791419758	 0.144579
H	-0.5290170806	-3.9052463285	 1.7259653022	 0.105719
H	-0.9875066155	-4.4926221062	 0.0761041011	 0.108883
H	 1.8305085904	-3.9494643807	-0.0950773157	 0.09391
H	-0.2781083849	-3.3590096706	-1.6424149459	 0.208464
H	 0.8390573064	-2.0519624742	 1.9086237064	 0.087194
