18
gdb 109182	4.24306	0.97999	0.82289	4.0426	69.95	-0.2566	0.018	0.2746	1356.089	0.148003	-476.229455	-476.22064	-476.219696	-476.263098	32.482	
O	 0.1295161405	 1.3700143374	-0.0140499687	-0.422871
C	 0.0203667935	-0.0207521575	-0.1151405616	-0.116293
C	-1.4222568906	-0.4705693693	-0.077562058	 0.386509
N	-2.3469334359	 0.3937324254	-0.02886161	-0.346268
C	-3.737365228	-0.0323396912	 0.0618362489	-0.162002
C	-3.8826985502	-1.4916359517	 0.4888024167	 0.061024
O	-5.2054429774	-1.9057492923	 0.196812409	-0.420257
C	-2.8633593005	-2.3220998276	-0.2929239622	-0.106414
O	-1.5334891454	-1.819891313	-0.1023836069	-0.252749
H	-0.78723144	 1.6910075206	 0.0017733097	 0.290474
H	 0.4679532229	-0.3921516584	-1.0511763537	 0.112069
H	 0.5573074117	-0.5216924616	 0.7051170842	 0.114462
H	-4.2607393049	 0.623881457	 0.7641518456	 0.121069
H	-4.22769119	 0.0984439133	-0.9115979903	 0.127576
H	-3.6621456568	-1.5789471992	 1.56325351	 0.08654
H	-5.3770799693	-2.7355642282	 0.6532059465	 0.290426
H	-2.8421631906	-3.3646490655	 0.0357685627	 0.112686
H	-3.1165027089	-2.2955511482	-1.360091572	 0.124017
