19
gdb 65367	3.27027	0.95103	0.9293	1.0546	84.18	-0.2363	0.0355	0.2718	1370.8086	0.15681	-385.821025	-385.811691	-385.810747	-385.855191	35.624	
O	-0.0329762322	 1.3837458267	-0.0388863539	-0.448716
C	 0.0054081673	-0.0190803589	-0.0120275115	 0.187949
C	-0.4719892653	-0.7082862779	 1.2600332436	-0.358783
C	-1.3555541193	-0.6891799915	 0.0350982746	-0.056884
C	-2.6030855374	 0.1315196792	-0.0133103009	 0.029954
C	-3.4922556067	 0.0839270698	-1.2309249358	-0.267171
C	-3.9503533236	-0.5473852137	 0.0602327893	-0.27875
C	 1.0673187836	-0.6194085262	-0.7771756177	 0.296847
C	 1.9748302879	-1.1030875463	-1.4020417972	-0.466113
H	 0.7838390899	 1.7051039027	 0.3590381274	 0.28775
H	 0.0032026354	-1.6357854671	 1.5576880071	 0.120679
H	-0.7387147483	-0.0381486417	 2.0707470583	 0.118599
H	-1.4105149843	-1.6243175977	-0.5154459286	 0.097365
H	-2.5193783103	 1.0948220248	 0.4766488716	 0.096368
H	-3.9649448411	 1.0037680462	-1.5563808221	 0.113367
H	-3.2038435157	-0.5763479589	-2.0423450388	 0.112358
H	-3.9698707406	-1.6310082344	 0.1152810924	 0.109439
H	-4.7391583565	-0.0622562294	 0.6246364201	 0.110726
H	 2.7665580371	-1.5311293459	-1.965286058	 0.195017
