16
gdb 23328	3.61402	1.29658	1.21399	1.0105	66.93	-0.2513	0.0003	0.2516	1040.7081	0.125715	-474.981751	-474.974666	-474.973722	-475.013366	27.824	
O	-0.1295592317	 1.3387358284	-0.005750289	-0.387804
N	 0.0051715761	-0.0595486492	-0.0294355841	-0.259187
C	-1.1273255194	-0.627562731	-0.0029162047	 0.456925
C	-2.5355853194	-0.0651453408	 0.0668615078	-0.334179
C	-3.303105858	-1.4044975936	 0.0319686716	 0.176672
O	-3.2376232071	-1.9411513388	-1.2883887908	-0.275307
C	-1.9213135374	-2.5140260713	-1.3842105604	-0.089064
C	-1.3165104061	-2.130778212	-0.0148547461	-0.065985
O	-2.4889947328	-2.2624875885	 0.8142897256	-0.250098
H	 0.787811538	 1.633156255	-0.0034286323	 0.3089
H	-2.7006922702	 0.4776038717	 1.00310451	 0.135264
H	-2.7739315913	 0.5960674447	-0.768771243	 0.138846
H	-4.3332750544	-1.4090561985	 0.3844633773	 0.101229
H	-1.9965791893	-3.6008832994	-1.5019584748	 0.113201
H	-1.3779949794	-2.0855048857	-2.2314414371	 0.120147
H	-0.4917345073	-2.7369763508	 0.3498493299	 0.11044
