12
gdb 99424	1.75606	1.53533	1.34849	3.5093	64.19	-0.3438	-0.0765	0.2673	1050.0694	0.074774	-431.647153	-431.637986	-431.637042	-431.681345	30.739	
C	-0.0451404646	 1.4021548153	 0.0641896694	-0.278188
O	 0.0105919808	-0.0299956183	-0.0110556039	-0.23703
C	 0.652667765	-0.549499394	-1.1382317601	-0.03272
C	-0.0235494531	-0.1454736989	-2.4052019659	 0.312181
N	-0.5741838921	 0.2001551049	-3.3586716188	-0.301111
C	 2.0810413143	-0.1258141989	-1.2154238349	 0.312148
N	 3.1768261112	 0.2354359508	-1.2381164464	-0.301104
C	 0.5995392892	-2.0254152399	-1.0198439773	 0.334808
N	 0.5632669575	-3.1748665898	-0.9371941279	-0.289426
H	 0.9611919824	 1.8331223093	 0.1018564226	 0.15678
H	-0.6003759234	 1.8189084106	-0.7831001866	 0.15677
H	-0.5733178273	 1.6158040587	 0.9926397899	 0.166891
