16
gdb 74351	3.00289	1.24473	0.99743	4.4295	73.31	-0.2513	-0.0481	0.2033	1186.6059	0.123397	-437.947226	-437.938622	-437.937678	-437.981034	30.805	
C	 0.0295685937	 1.5384426934	-0.0312688169	-0.488222
C	-0.037305919	 0.0502261068	-0.0147045567	 0.226027
C	-1.0842734962	-0.773746267	 0.0844129001	-0.224626
C	-0.624265089	-2.2166650148	 0.0503329828	-0.116171
N	 0.7939716309	-2.0971616904	-0.1561709702	-0.326188
C	 1.2144281679	-0.7767130145	-0.0863626747	 0.35398
O	 2.3588423123	-0.3822835535	-0.0800310444	-0.36646
C	-0.9946917222	-2.9750785522	 1.3230493516	 0.159316
O	-0.1940543589	-3.5025456813	 2.0468505	-0.23549
H	 0.7045606044	 1.8936049711	 0.7543344634	 0.153792
H	 0.449783815	 1.8929376651	-0.9789668702	 0.148337
H	-0.9536682143	 1.9930538483	 0.1094448402	 0.12311
H	-2.1301312656	-0.5037776643	 0.1590430046	 0.119274
H	-1.1257424054	-2.7524684913	-0.7761475214	 0.12069
H	 1.4144532687	-2.8301588219	 0.1528160931	 0.263408
H	-2.0888664324	-3.0251092835	 1.5178208987	 0.089223
