20
gdb 58158	3.23854	0.72955	0.66357	3.9434	88.04	-0.2192	-0.0587	0.1605	1747.8872	0.167275	-403.108642	-403.09766	-403.096716	-403.145862	37.74	
C	 0.0781354627	 1.6325839903	 0.1652216273	-0.399062
C	-0.0303845803	 0.0913630888	 0.0232019176	-0.16404
C	 0.7329726877	-0.5545551362	 1.0944541099	 0.097089
C	 1.3655887171	-1.0591794696	 1.9920285862	 0.073731
C	 2.152178448	-1.6564446602	 3.0386471022	 0.016453
O	 1.694776811	-2.2132621489	 4.0107347203	-0.230274
N	-1.3868200002	-0.4613208195	-0.0457267747	-0.040228
C	-2.2183037274	-0.2063899751	 1.1204587087	-0.332354
C	-2.0677318461	-0.1677256015	-1.294072662	-0.323209
H	 1.1251140218	 1.9434681935	 0.1190302043	 0.130558
H	-0.4625817845	 2.1241273885	-0.647983413	 0.125825
H	-0.3356985685	 1.9723678925	 1.1175758596	 0.135125
H	 0.4536692783	-0.1827757369	-0.9244981613	 0.11541
H	 3.2475787205	-1.5662921718	 2.8874396121	 0.097254
H	-2.5532854088	 0.842520139	 1.211941177	 0.095063
H	-3.1130147173	-0.8345114394	 1.0634953603	 0.123036
H	-1.6744075476	-0.4760701756	 2.0293682978	 0.140433
H	-1.4303523725	-0.4413584272	-2.1414158466	 0.117979
H	-2.980939211	-0.7686055215	-1.3530687338	 0.124534
H	-2.3620496327	 0.8913627407	-1.4145386019	 0.096676
