18
gdb 36046	2.52134	1.25179	0.99632	2.3518	75.38	-0.2844	0.0263	0.3107	1226.3819	0.146935	-401.930092	-401.92138	-401.920436	-401.964157	32.165	
N	-0.540004547	-0.0160702819	 1.7756378124	-0.311536
C	-0.2239029334	 0.378234648	 0.7364860704	 0.265274
C	 0.1982930693	 0.8912208747	-0.5651973294	-0.405303
C	 1.4176402473	 1.811148546	-0.4631135554	 0.386722
C	 2.7565363301	 1.2214753177	-0.599496824	-0.217557
O	 2.1349073134	 1.9186161774	-1.6910527031	-0.275826
C	 1.1972412232	 3.0890493656	 0.2911898407	-0.076574
C	 2.0620011959	 4.2902633638	 0.0255983205	-0.275505
C	 0.6251461359	 4.2866041452	-0.4319814182	-0.266867
H	 0.4296115352	 0.0520709903	-1.22807834	 0.159422
H	-0.6350250791	 1.443048577	-1.0151190994	 0.161392
H	 3.6062086034	 1.7310853624	-0.1510466613	 0.127271
H	 2.8705751062	 0.1480192434	-0.7406721944	 0.122315
H	 0.8640428972	 2.9344687588	 1.3133285657	 0.114064
H	 2.3388238893	 4.9126895124	 0.8685981438	 0.117018
H	 2.8187435303	 4.1952988869	-0.7445366047	 0.131028
H	 0.4511157067	 4.1904640966	-1.4983260559	 0.125189
H	-0.0937351739	 4.9058390356	 0.0919042623	 0.119473
