23
gdb 100652	2.42323	1.12564	1.00159	4.0747	86.58	-0.2242	0.0375	0.2617	1359.1558	0.203	-384.473766	-384.462546	-384.461602	-384.510038	40.929	
C	-0.1204775958	 1.6015316764	-0.0810670377	-0.389084
C	 0.0678955755	 0.0867496735	 0.0410297988	-0.123524
N	 0.7550365498	-0.4907249904	-1.1176274395	-0.081861
C	 2.1605196755	-0.0961823735	-1.1619955534	-0.351766
C	 0.5306619979	-1.9407183268	-1.3150321855	 0.115364
C	 1.128381842	-2.8453404688	-0.2053190376	-0.412345
C	-0.9760185807	-2.250614343	-1.4864214696	-0.419264
C	 1.1692039833	-2.314107228	-2.5995995517	 0.290888
N	 1.6520502621	-2.6488181298	-3.5946888441	-0.355007
H	 0.8269315948	 2.1453510003	-0.0406540434	 0.122978
H	-0.6170854809	 1.8490803257	-1.0235579674	 0.127405
H	-0.7393240591	 1.9645159244	 0.7454455483	 0.115244
H	 0.598756997	-0.1378798121	 0.9850693958	 0.082119
H	-0.9207664828	-0.3676210416	 0.1230958227	 0.103913
H	 2.7268098639	-0.3787783667	-0.2565290149	 0.09619
H	 2.6506973153	-0.5427047073	-2.0293303705	 0.150549
H	 2.2313885464	 0.9881447846	-1.2709145678	 0.128393
H	 0.6621960693	-2.6068691377	 0.7546253064	 0.124862
H	 0.9398790683	-3.8994742219	-0.4253498244	 0.133909
H	 2.2078247807	-2.7060949798	-0.1139283433	 0.13505
H	-1.4332023395	-1.5293800964	-2.1672665284	 0.141466
H	-1.1011606166	-3.2538949026	-1.8999510664	 0.137947
H	-1.4974112865	-2.2220326484	-0.5273430364	 0.126574
