17
gdb 94123	5.06649	0.85257	0.80459	4.1931	65.87	-0.2719	0.0056	0.2775	1395.2452	0.13515	-496.125788	-496.117016	-496.116072	-496.160868	30.888	
O	-0.2406198501	 1.2753988575	 0.6273137102	-0.434392
C	-0.0295177384	 0.0390297025	-0.0371677117	 0.122388
C	 0.7270621803	-0.9734519217	 0.8324864276	-0.12426
O	-0.2675022125	-1.5117285576	 1.7054323472	-0.237482
C	-1.4551033683	-1.6397940955	 0.9829516951	 0.217081
C	-1.4023894664	-0.6370421468	-0.1836794499	-0.283227
O	-1.5627726433	-2.957999338	 0.4097585642	-0.204426
C	-1.8882656235	-3.9589591336	 1.2551562373	 0.172758
O	-1.9187613068	-5.1028471123	 0.9146715086	-0.273817
H	 0.6154887731	 1.6855481785	 0.786968198	 0.285626
H	 0.4634357156	 0.1887855583	-1.0069965384	 0.078515
H	 1.1759502034	-1.764577422	 0.2152986694	 0.111918
H	 1.5049706015	-0.5200025785	 1.4523755637	 0.109833
H	-2.2841664152	-1.4940140461	 1.6816193987	 0.103085
H	-2.193205248	 0.1110422589	-0.122109468	 0.135659
H	-1.4932853104	-1.1747009142	-1.1282493208	 0.134681
H	-2.1314160311	-3.6036880395	 2.2741628188	 0.08606
