22
gdb 14747	10.55396	0.54553	0.52884	0.877	85.67	-0.2573	0.0592	0.3165	2105.7887	0.198067	-313.051537	-313.041211	-313.040266	-313.087405	36.587	
C	-0.0542110192	 1.5855451109	 0.0728206607	-0.379837
C	-0.0078217465	 0.0561625166	 0.0194819418	-0.163298
C	 0.7015802881	-0.4822549127	-1.2278309858	-0.165003
C	 0.75254625	-2.0124037772	-1.2892029299	-0.176874
C	 1.4624657827	-2.543937912	-2.5375821729	-0.174791
C	 1.5056511138	-4.0848860424	-2.5848689106	-0.355675
C	 2.1793582017	-4.6034434157	-3.7691724843	 0.293604
C	 2.7393916996	-5.0044408598	-4.7544743447	-0.4389
H	 0.9550651209	 2.0122246125	 0.07382496	 0.113494
H	-0.5836961638	 1.9958284131	-0.794364065	 0.113494
H	-0.5659513449	 1.9398386702	 0.9731270658	 0.110852
H	 0.4970721535	-0.3273715848	 0.916124791	 0.093854
H	-1.0300251264	-0.3436490876	 0.0546243188	 0.093854
H	 0.1970914318	-0.0990643257	-2.1258448644	 0.093021
H	 1.7247402907	-0.0827488572	-1.2640469635	 0.093021
H	 1.2577023714	-2.3958870576	-0.391481296	 0.093107
H	-0.2707008358	-2.4122166782	-1.2536852208	 0.093107
H	 0.9601630417	-2.175116541	-3.4397613755	 0.107978
H	 2.4882760643	-2.158753648	-2.5777248461	 0.107977
H	 2.008115783	-4.4631599637	-1.6845998674	 0.127716
H	 0.48154346	-4.479516398	-2.5458275182	 0.12772
H	 3.2320266936	-5.3698550218	-5.6208652529	 0.19158
