19
gdb 81397	4.03375	1.15106	1.09779	4.0468	79.99	-0.2273	0.0345	0.2619	1163.9585	0.161361	-382.053687	-382.045863	-382.044919	-382.085848	30.708	
C	-0.2425674598	 1.434085646	 0.008400934	-0.334652
N	 0.0325246922	 0.0040347472	 0.0429392663	-0.105062
C	 1.1438898861	-0.4819323618	-0.8631026452	 0.009063
C	 2.1851000791	-0.0853774207	 0.2171300181	-0.248697
C	 0.9820016647	-0.4528183802	 1.1202636154	-0.00227
C	 0.8432764519	-1.9882350964	 0.910404847	-0.135437
C	 0.9967603028	-2.0004146763	-0.6606867949	-0.22942
C	 1.8395291359	-2.7780583957	 1.6209589961	 0.262797
N	 2.6363865941	-3.3966590903	 2.1864222395	-0.335217
H	 0.6372114025	 2.0960170511	 0.0658665905	 0.099657
H	-0.7751094723	 1.6652545738	-0.9197333474	 0.125656
H	-0.9062239527	 1.6857772861	 0.841952402	 0.125546
H	 1.1697003351	-0.1054755135	-1.8858163016	 0.07644
H	 3.1095809044	-0.6627518713	 0.304920097	 0.117855
H	 2.4110094057	 0.9799271401	 0.227981427	 0.115688
H	 0.8420279772	-0.0741765768	 2.1324755699	 0.086515
H	-0.1535844275	-2.3169529463	 1.2117089255	 0.129352
H	 0.1030978827	-2.3972590958	-1.1432368905	 0.119744
H	 1.870333358	-2.5642651992	-0.9927672085	 0.122444
