18
gdb 36155	4.18696	1.15909	1.12169	1.3446	79.96	-0.2452	0.044	0.2892	1134.6378	0.14781	-364.723006	-364.715255	-364.714311	-364.755525	30.508	
C	-0.0584233476	-1.1938577589	 0.0284797707	-0.454483
C	-0.0548388982	 0.0078126368	 0.0071418759	 0.307655
C	-0.0113301713	 1.4659930666	-0.0180257517	-0.466307
C	 1.4074052265	 1.9914523239	-0.0151210054	 0.347085
C	 2.3215451605	 1.884550729	 1.2248521301	-0.273419
C	 2.8865538228	 3.2000527011	 0.7237018209	-0.040345
C	 2.8994016725	 3.1735409721	-0.7708099794	-0.040347
C	 2.3426929564	 1.8409178936	-1.2346226963	-0.27342
N	 1.6366875381	 3.5438404232	-0.0406875711	-0.197109
H	-0.076981102	-2.2553031011	 0.0467125008	 0.197933
H	-0.5314042671	 1.8438749973	-0.9076246395	 0.137941
H	-0.5464238076	 1.8746385035	 0.8487765423	 0.137937
H	 1.7539973037	 2.0272038319	 2.1486923832	 0.109645
H	 2.9729045352	 1.0103362671	 1.3185112753	 0.103246
H	 3.4173179544	 3.958099855	 1.2885190296	 0.095548
H	 3.4400249475	 3.9112432456	-1.3529495718	 0.095548
H	 2.9952974957	 0.9641295125	-1.2860045596	 0.103246
H	 1.7911541005	 1.9505340207	-2.1725619639	 0.109646
