19
gdb 6911	4.86021	1.06592	0.98756	1.843	78.35	-0.2399	0.0582	0.2981	1241.7256	0.162995	-327.876771	-327.867498	-327.866554	-327.910611	34.277	
C	 0.0346914734	 1.524371181	-0.1587062038	-0.436626
C	-0.0325755995	 0.0256578739	 0.0608170228	 0.319678
C	-1.2172590898	-0.6436599999	-0.6103601197	-0.457109
N	 1.2691783416	-0.6728245558	 0.0301067124	-0.360373
C	 0.5127752163	-0.6179820263	 1.2906109015	-0.043768
C	 1.1508179244	 0.1328833118	 2.4522704014	-0.360314
C	 1.9903117045	-0.7344885222	 3.2730328281	 0.299344
C	 2.6650559987	-1.4720561047	 3.9403146706	-0.446383
H	 0.9451836808	 1.9541954038	 0.2616125313	 0.127025
H	 0.0293532724	 1.7492971007	-1.2312479956	 0.117204
H	-0.8300492725	 2.0259659757	 0.2904540916	 0.113446
H	-1.1735777587	-0.5075118253	-1.6975766012	 0.121163
H	-1.2400411537	-1.7184469918	-0.4030669082	 0.112669
H	-2.1641775369	-0.2146954193	-0.2637271203	 0.122498
H	 1.178828742	-1.5891609545	-0.4017649726	 0.225622
H	 0.007464904	-1.5301804632	 1.6050528344	 0.086571
H	 1.7514136939	 0.9617084582	 2.0652372217	 0.138335
H	 0.3628377459	 0.5742544727	 3.0773103324	 0.127894
H	 3.2719967831	-2.1125313547	 4.530532793	 0.193124
