21
gdb 84540	2.78882	1.30712	1.17005	1.2096	84.2	-0.2165	0.0197	0.2362	1179.6364	0.181764	-387.091335	-387.082405	-387.081461	-387.124155	35.436	
C	-0.0125571061	 1.5810604367	 0.0439743102	-0.397828
C	 0.0144015998	 0.0454520536	-0.0120393916	-0.040722
C	 0.7984047091	-0.4848961864	-1.1995364758	-0.092934
C	 1.8542112965	-1.2169880073	-0.8307900504	-0.090512
C	 1.9421439654	-1.362193484	 0.6460018514	-0.16113
C	 0.7429316492	-0.5736682825	 1.1879174017	-0.089267
C	 0.7896041967	-2.059790847	 1.3753454135	 0.385627
C	-0.1555148394	-3.0327594051	 0.7132609988	-0.460438
O	 1.0744961393	-2.3822637892	 2.7167386081	-0.466204
H	 1.0030466112	 1.9835208751	 0.11519803	 0.120503
H	-0.4787792523	 1.9993917931	-0.8541359561	 0.109575
H	-0.580492686	 1.9307362994	 0.9128568948	 0.113305
H	-1.0260654706	-0.3083624439	-0.0579722062	 0.081014
H	 0.5005753435	-0.2805322241	-2.2225902026	 0.090186
H	 2.5593755464	-1.6833849923	-1.5102990122	 0.091944
H	 2.9019833663	-1.3650855893	 1.1517705119	 0.083933
H	 0.8415749693	 0.0123910266	 2.0949896619	 0.091203
H	-0.329842753	-2.7870766824	-0.3351315852	 0.129576
H	 0.2568376284	-4.0491775859	 0.7522515457	 0.10157
H	-1.1158966177	-3.0420059347	 1.2391228954	 0.12312
H	 1.5206458138	-3.2367946905	 2.7224592166	 0.277476
