19
gdb 93222	2.7723	1.31376	0.95298	2.4699	72.25	-0.2465	-0.0352	0.2113	1232.8401	0.158719	-460.189174	-460.180458	-460.179514	-460.222406	33.152	
C	-0.0033926276	 1.5363036973	 0.0627781402	-0.402206
C	 0.0121539931	 0.0178483481	-0.0249497405	 0.123485
C	 0.6876295847	-0.5044747437	-1.2978296916	-0.221915
C	 0.723483071	-2.0413151487	-1.2985495648	 0.035561
O	 1.4557668705	-2.5551340735	-2.3734705764	-0.441973
C	 1.2726082249	-2.5430797243	 0.0295975673	 0.360642
O	 2.1078835051	-3.4195339168	 0.0637710764	-0.324812
C	 0.7023309033	-1.8627108617	 1.2669011234	-0.179732
O	 0.7143474809	-0.4555752099	 1.127912106	-0.256224
H	 1.0174191913	 1.9291316056	 0.038895912	 0.130321
H	-0.5602246003	 1.9625524175	-0.7765264376	 0.120483
H	-0.474381924	 1.8584798534	 0.9948503338	 0.127704
H	-1.025398059	-0.360850863	 0.015055174	 0.067973
H	 0.1620328484	-0.1519346239	-2.1912605841	 0.112669
H	 1.7151601541	-0.1264087497	-1.3443574514	 0.117825
H	-0.3237951435	-2.4019992608	-1.3362301363	 0.090296
H	 2.0442988118	-3.2236780598	-1.9879838545	 0.292988
H	-0.323628469	-2.238171472	 1.4359514513	 0.108589
H	 1.3126122742	-2.1179001741	 2.1355600629	 0.138325
