14
gdb 30418	2.99924	1.45275	0.98462	3.0772	70.69	-0.2573	-0.0522	0.2051	1124.5932	0.101504	-470.066031	-470.057966	-470.057022	-470.100202	28.139	
C	-0.0126037092	 1.4578375873	-0.2184554915	-0.336686
N	-0.0664968766	 0.0148273449	-0.3198201647	-0.282701
C	-1.0594905717	-0.6441949822	 0.0714948639	 0.455424
O	-2.1857455191	 0.0297230012	 0.6391707827	-0.260407
C	-3.2954752793	-0.596255031	 1.0861021815	 0.49361
O	-4.2236525938	-0.0064836635	 1.5569234302	-0.356072
N	-3.2509699234	-1.9782540321	 0.9455768437	-0.370081
C	-2.164197846	-2.615428684	 0.3989489285	 0.100816
N	-1.1138101924	-2.0263396978	-0.0243881579	-0.288061
H	 0.8673554522	 1.731924794	 0.3744425826	 0.136381
H	 0.1465048355	 1.8709046417	-1.2209737284	 0.13638
H	-0.8988792831	 1.9237614661	 0.222566739	 0.1354
H	-4.0605650116	-2.4855239097	 1.2672181624	 0.284943
H	-2.2419676215	-3.6984435448	 0.3397250279	 0.151054
