14
gdb 33488	2.25283	1.73966	1.19505	5.6108	70.32	-0.2744	-0.0123	0.2621	1015.6222	0.101572	-395.695726	-395.688073	-395.687129	-395.72803	28.348	
N	 0.079009278	-1.1704077633	-0.0817958931	-0.323823
C	 0.0431295317	-0.0168926727	-0.0440770947	 0.287741
C	 0.002158095	 1.4433371341	 0.0134134077	 0.006203
C	-0.2379216563	 2.0996858938	 1.4508869027	-0.267659
C	 1.1249676019	 2.7814892881	 1.3211523664	-0.027748
N	 2.1058487451	 1.6847067807	 1.1759571698	-0.319294
C	 1.3810829824	 2.1686706554	-0.0066291668	-0.087169
C	-0.9143702831	 1.9845397268	-0.9875294344	 0.25172
N	-1.6222070541	 2.4537463487	-1.7704132787	-0.319662
H	-1.0889548133	 2.7794252788	 1.4292048375	 0.150183
H	-0.3327219056	 1.3813829647	 2.2656639497	 0.14785
H	 1.4110377188	 3.7535828381	 1.6986911608	 0.12081
H	 3.0418362605	 2.0864567457	 1.146265289	 0.249372
H	 1.8763975592	 2.5340899811	-0.895810446	 0.131478
