19
gdb 47422	2.72198	1.45806	1.08145	2.5389	77.03	-0.2416	0.0232	0.2648	1146.7879	0.161165	-419.193424	-419.185354	-419.18441	-419.226487	30.571	
N	-0.4701918274	 1.3167142186	-0.4916670296	-0.548839
C	-0.2353113994	 0.0895936474	-0.3088503515	 0.439566
O	 1.0000782937	-0.4626270003	-0.15497019	-0.24238
C	 0.8890033635	-1.8847318045	 0.0506145067	-0.076018
C	-0.4841230421	-2.2621505613	-0.5168789266	-0.249022
C	-1.2991834257	-0.9964740129	-0.2217655926	-0.061809
N	-1.8107676092	-1.0389371373	 1.1491999367	-0.078793
C	-2.8243872139	-0.0439229836	 1.4841659735	-0.211341
C	-3.1994046901	-1.4729145576	 1.3028729746	-0.233473
H	 0.3987988541	 1.8547056306	-0.4829988126	 0.22096
H	 1.7295401321	-2.3600480046	-0.4593191245	 0.116818
H	 0.9514469298	-2.0914920908	 1.1238766643	 0.12684
H	-0.4189230042	-2.4254102536	-1.5969795195	 0.112973
H	-0.906943251	-3.1534300565	-0.0499587909	 0.116196
H	-2.0911392781	-0.8033958289	-0.9591144947	 0.083742
H	-2.7478080956	 0.3822286483	 2.479961248	 0.119203
H	-3.1128586917	 0.6611489727	 0.7090950733	 0.136381
H	-3.7529374689	-1.7339284241	 0.4022009693	 0.111474
H	-3.403001216	-2.1065942816	 2.1611079261	 0.117526
