16
gdb 50195	2.85354	1.44879	1.21972	4.3926	68.92	-0.2469	-0.0389	0.208	1034.1571	0.124645	-437.897354	-437.889711	-437.888767	-437.929989	28.491	
O	-0.4804353589	 0.6819038208	 0.7305713798	-0.251855
C	 0.1619752895	 1.0525323016	-0.2210915097	 0.149888
C	 1.3175831346	 2.0134341914	-0.1543968337	-0.10436
C	 1.2185925687	 3.3473575121	-0.9766639252	-0.272767
C	 1.496270891	 4.1552441167	 0.3305210138	-0.185987
C	 1.5287071288	 2.8252582619	 1.1536506742	 0.004103
N	 0.3106276452	 3.2772666561	 1.8211732427	-0.309289
C	 0.1830660527	 4.4469366051	 1.0894444343	 0.414058
O	-0.6693861948	 5.2907059038	 1.0465963746	-0.353231
H	-0.076325152	 0.6881059283	-1.2465791269	 0.087823
H	 2.2192074598	 1.4588931559	-0.4424253947	 0.110251
H	 1.9990348066	 3.4464182607	-1.731768407	 0.122355
H	 0.2540927557	 3.5579603245	-1.4448560185	 0.12982
H	 2.286731504	 4.9016938194	 0.3251531554	 0.103889
H	 2.3391803047	 2.5297160855	 1.819693669	 0.092664
H	-0.4180485056	 2.7022152263	 2.2223889918	 0.262638
