21
gdb 37858	2.36436	2.02425	2.02362	0.0007	83.6	-0.2375	0.0798	0.3173	898.6983	0.188796	-349.970721	-349.964428	-349.963484	-350.000836	27.912	
C	 0.0543207355	 1.4637020184	 0.0100916622	-0.231448
C	 1.4702923417	 2.0130168133	-0.001006596	-0.05221
C	 2.5551957592	 1.2622710939	 0.7412829527	-0.05224
C	 2.1957160962	-0.0181256346	 1.4747903109	-0.231574
C	 1.1229640962	-0.8057555325	 0.7430001797	-0.05224
C	 0.0380589292	-0.0550122101	 0.0007107168	-0.05221
C	 1.1087065287	-0.7970065873	-0.7708847623	-0.05244
C	 2.1675303605	-0.0010869839	-1.5137769469	-0.231426
C	 2.540814914	 1.2708418046	-0.772601872	-0.05244
H	-0.4796822032	 1.8342670082	 0.8964773406	 0.094562
H	-0.4981407113	 1.8455918908	-0.8600127221	 0.094538
H	 1.5375075704	 3.0971840027	 0.0045802131	 0.073477
H	 3.3200201467	 1.863605222	 1.2243841834	 0.07349
H	 3.0938860454	-0.6400610107	 1.5961607973	 0.094556
H	 1.8513790194	 0.2211919557	 2.4908444409	 0.094555
H	 0.8293937847	-1.7326577961	 1.2273704377	 0.07349
H	-0.9532082273	-0.4992081169	 0.0075666846	 0.073477
H	 0.8059533625	-1.7184176638	-1.2600904706	 0.073486
H	 3.0631524569	-0.6214794663	-1.6592688466	 0.094541
H	 1.8041598468	 0.2497329718	-2.5203405404	 0.094571
H	 3.2965129178	 1.8777480109	-1.263076623	 0.073486
