20
gdb 22393	4.35677	0.75755	0.68665	1.3574	78.77	-0.2452	0.0084	0.2536	1623.6096	0.169135	-440.22312	-440.213218	-440.212274	-440.259374	34.922	
C	-0.1543252529	 1.5157975508	 0.0202670719	-0.478786
C	-0.033516751	 0.0168570236	-0.0438554506	 0.35726
C	 0.0634844938	-0.7804209607	 1.2336695622	-0.301586
C	 1.3556794291	-0.5310007966	 2.015921764	-0.013871
C	 1.5011359672	 0.7403271803	 2.8870624882	-0.083863
O	 1.8353399656	-0.0416382883	 4.0500178203	-0.271173
C	 1.5306159565	-1.2710208605	 3.3612970251	-0.09025
N	 0.0107151772	-0.6676283833	-1.1236673795	-0.163012
O	-0.043868333	 0.1353194741	-2.274623346	-0.398956
H	 0.8335340808	 1.9811550556	 0.1259378209	 0.142182
H	-0.6063236349	 1.9072632679	-0.8912107231	 0.153972
H	-0.7514437291	 1.8186346639	 0.88503574	 0.125963
H	-0.7957503638	-0.5481903532	 1.8786814927	 0.103638
H	 0.0022573429	-1.841571888	 0.9726116558	 0.120376
H	 2.2164566872	-0.6750516499	 1.3573491141	 0.091792
H	 2.2995917686	 1.4416045321	 2.6183220851	 0.104734
H	 0.5682800783	 1.303937204	 3.0320897642	 0.094282
H	 0.6101784558	-1.7369280251	 3.7424238709	 0.095975
H	 2.3493851964	-1.9964379428	 3.4275534741	 0.105412
H	-0.0572916145	-0.5238145437	-2.9762295201	 0.305913
