14
gdb 44979	3.67449	1.32962	1.11175	4.0612	70.33	-0.2495	0.0077	0.2573	1061.1026	0.099855	-436.643252	-436.635828	-436.634884	-436.675221	28.674	
N	-0.1717629783	 1.1624384238	-0.5240930458	-0.564838
C	-0.0529979874	 0.0398615813	 0.0202318594	 0.47425
O	 1.1164046693	-0.628355276	 0.2962231062	-0.247944
C	 0.8186821698	-1.8255885826	 0.9690100035	 0.016097
C	 0.1427946881	-1.7041795154	 2.3059022756	-0.365623
C	-0.6859442085	-1.889483309	 1.0421093039	 0.208387
O	-1.1261889151	-0.6819290513	 0.4438311178	-0.251022
C	-1.5014107187	-3.0326499147	 0.7944861536	 0.23156
C	-2.1787369736	-4.0075471988	 0.6093737011	-0.377952
H	 0.7411746342	 1.542043056	-0.7608181187	 0.237677
H	 1.4606717454	-2.6524636575	 0.6972206085	 0.140857
H	 0.2076800351	-2.5612940943	 2.9659810174	 0.145476
H	 0.1068279883	-0.7320965902	 2.7855815043	 0.148443
H	-2.7818152186	-4.8648296813	 0.4367512233	 0.204631
