13
gdb 129218	2.64945	1.82613	1.11965	2.9026	73.65	-0.2487	-0.1075	0.1412	992.1461	0.090632	-448.902534	-448.895225	-448.894281	-448.935246	26.61	
N	-0.0393252489	 1.1996628554	-0.6410863305	-0.463574
C	-0.0087285237	 0.0761081482	-0.0477084677	 0.281293
N	 1.1463119346	-0.4809996499	 0.5307266175	-0.298696
N	 1.5207140105	-1.7759075576	 0.6999266778	-0.186219
C	 0.6922598678	-2.696072787	 1.0646154529	 0.08302
N	-0.6132421981	-2.6269301915	 1.4958154698	-0.200605
C	-1.451456074	-1.7115514992	 1.191196197	-0.054179
C	-1.3367390682	-0.6323577229	 0.1625625095	 0.32764
O	-2.3257153058	-0.2828531604	-0.4334114349	-0.265075
H	 0.8817664149	 1.6397167019	-0.6996493251	 0.221413
H	 1.9696652927	 0.0827522917	 0.3603580573	 0.263814
H	 1.1405078806	-3.6797044616	 1.162479195	 0.142095
H	-2.4421303225	-1.7560237169	 1.6471230313	 0.149075
