15
gdb 18951	5.73846	1.68748	1.5549	1.1273	65.71	-0.2396	-0.0333	0.2063	819.7369	0.118978	-362.561535	-362.555208	-362.554263	-362.592259	23.937	
O	-0.6941048928	 0.8916991627	 0.5667296263	-0.251448
C	 0.1452157631	 0.9781297793	-0.2965525691	 0.125792
C	 1.3171021587	 1.9132630216	-0.2489855841	-0.10852
C	 1.0665299698	 3.3903838204	-0.6493777527	-0.01892
C	 0.4145974983	 3.7769102206	 0.711631024	-0.063786
C	 1.4220391667	 4.9131566892	 0.8409838989	-0.185379
N	 2.2942189022	 3.8490979183	 0.1766953606	-0.165362
C	 1.5571069359	 2.7581784564	 1.0063819641	-0.002234
H	 0.0786336417	 0.358015924	-1.2197615214	 0.081299
H	 2.2098171913	 1.4829258951	-0.7159690191	 0.099654
H	 0.8727205208	 3.8068031418	-1.6393346921	 0.092097
H	-0.6351292823	 3.7078279592	 1.0030393481	 0.092849
H	 1.2819022152	 5.8071879935	 0.2244813474	 0.103929
H	 1.7636945376	 5.1880713904	 1.8441040692	 0.10645
H	 1.9391564939	 2.4479913674	 1.9793768699	 0.093577
