15
gdb 18784	3.76188	2.49224	2.05942	4.0337	63.95	-0.2326	-0.0069	0.2257	698.1425	0.121394	-362.628396	-362.62271	-362.621766	-362.658013	22.889	
O	 0.0303923646	 0.0505747085	 0.2887230792	-0.318006
C	-0.0481455596	 1.2156365389	 0.0382288011	 0.40522
C	-1.166672332	 2.2483411944	-0.0719116461	-0.197494
C	-1.2605415359	 2.9255614192	 1.3457058846	-0.231859
C	 0.0547347912	 3.7137316439	 1.0937377916	-0.054694
C	 1.3274442357	 2.8404282975	 1.1921100675	-0.192555
N	 1.0026430363	 2.1954725763	-0.1409484025	-0.172129
C	-0.0323621878	 3.2659678821	-0.4007422006	 0.013192
H	-2.0872563203	 2.0523616406	-0.6190928872	 0.094265
H	-2.1087232979	 3.6141186264	 1.3554563831	 0.120711
H	-1.3246267266	 2.2671508958	 2.2165029065	 0.117733
H	 0.0984019861	 4.7429241568	 1.4487664935	 0.080208
H	 2.2510851504	 3.4196139257	 1.1093911068	 0.121176
H	 1.4179465352	 2.1288747629	 2.0182104084	 0.12663
H	 0.0590381704	 3.8816762011	-1.292004726	 0.087601
