21
gdb 87452	2.73247	1.3629	1.24558	1.2385	83.77	-0.2499	0.0784	0.3282	1144.1776	0.18189	-387.026237	-387.017582	-387.016637	-387.058983	34.445	
C	-0.0674237099	 1.5171208177	-0.0458731539	-0.404986
C	-0.0024670008	 0.0064346548	 0.0304812634	-0.122354
C	 1.3328569858	-0.7111067861	-0.198958118	-0.408908
C	 0.6932907069	-0.6896578641	 1.1458630828	 0.438776
C	 1.1777774113	-0.2529276235	 2.5443806665	-0.144991
C	-0.211186318	-0.7136282078	 3.0835414406	-0.285051
C	 0.262427524	-1.8216476782	 2.0835831549	 0.315272
O	-0.4129278456	-2.9428543205	 1.6449411524	-0.475619
C	 1.6795631107	-1.7165581136	 2.7403809207	-0.284759
H	 0.8340437519	 1.9707651122	 0.3793990254	 0.111118
H	-0.1531050035	 1.8593945634	-1.0833249931	 0.115619
H	-0.9278418457	 1.9114810459	 0.5065333873	 0.115025
H	-0.8715425745	-0.5068533662	-0.3764587709	 0.090209
H	 1.3237139856	-1.6370543982	-0.7658781183	 0.115547
H	 2.2063459482	-0.0883118235	-0.3726680807	 0.104718
H	 1.710132768	 0.6567713228	 2.8100332031	 0.081612
H	-0.2492500405	-0.9911439042	 4.1415698478	 0.080038
H	-1.0779160593	-0.1221091678	 2.781431455	 0.097041
H	-0.5778498477	-3.5186458981	 2.3990196678	 0.283936
H	 2.5258674294	-2.0314091071	 2.1265187826	 0.098007
H	 1.7680005736	-2.0603313381	 3.7756899748	 0.07975
