19
gdb 85689	2.33742	1.42792	1.0909	4.686	80.15	-0.2481	0.0157	0.2638	1176.7427	0.159395	-382.049309	-382.040532	-382.039588	-382.082851	33.162	
C	-0.8785056192	 1.2075098363	 0.0074722033	-0.393354
C	-0.0197090591	-0.0416687494	-0.0683709206	-0.018731
N	 1.2870866402	 0.1457787223	-0.7648591073	-0.322795
C	 2.0055478019	-0.6356314557	 0.2683107342	-0.205227
C	 3.2612111411	-0.0443086154	 0.737145292	 0.309682
N	 4.2459272295	 0.4040740966	 1.1438406176	-0.334973
C	 0.7647801589	-0.4993019047	 1.1724078113	 0.337692
C	 0.7252191823	 0.0789120008	 2.5520945945	-0.316255
C	 0.351772583	-1.367640894	 2.3154087141	-0.330147
H	-0.3060595751	 2.0422813385	 0.4200419432	 0.132005
H	-1.2290539293	 1.4924261132	-0.9900338763	 0.119897
H	-1.7614616838	 1.036884387	 0.6338508616	 0.113826
H	-0.6060448103	-0.8749873212	-0.4856684015	 0.070078
H	 1.34831553	-0.2407978581	-1.7003266068	 0.22582
H	 2.2023978115	-1.6828859688	-0.003108791	 0.109799
H	 1.671731554	 0.2933916482	 3.037517018	 0.140039
H	-0.0678390503	 0.7821805648	 2.782730868	 0.121628
H	-0.694933689	-1.6471464301	 2.3864268789	 0.118577
H	 1.0414635738	-2.1360951503	 2.6502775767	 0.122439
