20
gdb 122919	3.41725	0.66653	0.63976	4.5439	78.08	-0.2611	0.0205	0.2816	1832.6274	0.167632	-440.272826	-440.261965	-440.261021	-440.310801	36.701	
C	-0.0464449404	 1.3838064489	 0.118639651	-0.227265
O	 0.0555342875	-0.0202568914	 0.1052399873	-0.227539
C	 0.5034740843	-0.5242240899	-1.1294208943	-0.061496
C	 0.4951965455	-2.0376675441	-1.0740382336	-0.075698
O	-0.8499299179	-2.4825302784	-1.1318865348	-0.247862
C	-1.0057272818	-3.8785078969	-0.9644900545	-0.007034
C	-1.1410989377	-4.2769741498	 0.5117385913	-0.392349
C	-2.2025560806	-4.2820185023	-1.7260115747	 0.280686
N	-3.1370055426	-4.6287082716	-2.3092130206	-0.316879
H	 0.9258431474	 1.8671363688	-0.0697814627	 0.102805
H	-0.7619944726	 1.7480888131	-0.634831671	 0.110055
H	-0.3987309155	 1.6756912119	 1.1106641235	 0.130153
H	-0.1447849338	-0.1880213527	-1.954803562	 0.105063
H	 1.5292369933	-0.1791075833	-1.3471552224	 0.087325
H	 1.0670487731	-2.4407181435	-1.9251230918	 0.09708
H	 0.9852592166	-2.3624167643	-0.14500873	 0.106973
H	-0.1514977181	-4.412063946	-1.4115777385	 0.11523
H	-0.2353216796	-3.9982046923	 1.0559082544	 0.132161
H	-1.9933191575	-3.7606146997	 0.9583788701	 0.151718
H	-1.2865894397	-5.3564538564	 0.6075449133	 0.136871
