11
gdb 130103	5.78523	1.41563	1.1381	7.6548	58.38	-0.2664	-0.0244	0.242	944.9714	0.068239	-480.994829	-480.988576	-480.987632	-481.025401	23.585	
N	 0.0273850794	 1.2782860718	 0.1566045269	-0.583269
C	-0.0532970294	-0.0656730766	 0.0537286371	 0.504444
N	-1.1321842376	-0.7966500137	 0.0083827036	-0.313542
N	-0.5795866475	-2.064308257	-0.0049723969	 0.103401
N	-0.9961543761	-3.3397792512	-0.0546010593	-0.147642
N	 0.112385916	-4.0338615841	-0.0620132353	-0.101163
N	 1.24683893	-3.2524476403	-0.0224335464	-0.344163
C	 0.7510251066	-2.046384325	 0.0124024753	 0.519581
O	 1.1474781861	-0.7476736216	 0.0545318626	-0.224343
H	 0.8789371694	 1.7081931384	-0.1693074273	 0.290889
H	-0.8256260968	 1.7820705092	-0.0307445103	 0.295807
