17
gdb 48402	2.42167	1.56921	1.18525	3.6566	72.68	-0.2463	-0.0368	0.2095	1066.8457	0.134129	-421.808871	-421.800467	-421.799523	-421.84251	30.664	
O	-0.2060722382	 0.0659857323	-0.3471879257	-0.262613
C	-0.0503090487	 1.1870264274	 0.0692814882	 0.119228
C	 1.2664636379	 1.9275739998	 0.0242946924	 0.114327
C	 2.5355798438	 1.1540656984	-0.486378762	-0.301856
C	 2.6574251916	 2.1273002926	-1.6622240687	-0.03133
C	 1.4068498918	 2.1012509585	-2.4866288737	-0.288823
C	 1.4085622523	 2.8825616524	-1.2001113213	-0.108869
C	 1.5504701234	 2.6649230195	 1.3102094158	 0.118309
O	 0.8492423448	 2.6388915016	 2.2891956334	-0.257042
H	-0.8986775655	 1.7765252042	 0.4739930383	 0.099341
H	 3.3644080579	 1.2145396939	 0.2229470331	 0.115694
H	 2.3454368165	 0.1076349153	-0.7329844857	 0.137122
H	 3.5861827509	 2.539008289	-2.0355380405	 0.098239
H	 1.4239916681	 2.7194999476	-3.3782058889	 0.12232
H	 0.8250837549	 1.188676923	-2.5802224513	 0.138098
H	 1.2075674432	 3.9463228395	-1.1658709446	 0.102621
H	 2.4935618654	 3.258411645	 1.2878883614	 0.085233
