17
gdb 85103	2.02044	1.59201	1.24354	2.1818	76.33	-0.2569	0.0072	0.2641	1102.2956	0.134217	-417.965907	-417.956558	-417.955614	-417.999799	34.659	
C	 0.1802569186	 1.5283487749	-0.1905855222	-0.405376
C	-0.0696740148	 0.0691504118	 0.0914013846	 0.130709
O	 0.5857158931	-0.8083842424	-0.8977936008	-0.269984
C	 1.335518192	-1.4270611776	 0.0600420588	 0.424467
N	 2.2288555982	-2.3022378658	-0.0004525411	-0.549668
C	 0.7564061839	-0.6347893908	 1.2349020185	-0.025462
N	 1.7851475434	 0.1803013347	 1.8739095543	-0.563355
C	-0.0613277822	-1.4078763448	 2.1611914631	 0.296712
C	-0.7439679813	-2.0048446527	 2.9508304942	-0.471058
H	 1.2472525383	 1.7525703309	-0.152582565	 0.147307
H	-0.2159947431	 1.7892072262	-1.1764893607	 0.129904
H	-0.3293649569	 2.1450807469	 0.5570011471	 0.124465
H	-1.1337978196	-0.1751012156	 0.1283311173	 0.100243
H	 2.4095767988	-2.5973059542	-0.9611673358	 0.232553
H	 1.4684485897	 0.4838915657	 2.7894548038	 0.238054
H	 2.6060206576	-0.4010519696	 2.0191333402	 0.256814
H	-1.3345519557	-2.5509435775	 3.6446118139	 0.203674
