19
gdb 55297	2.3937	1.46505	1.12066	3.6344	75.76	-0.2334	-0.0178	0.2156	1157.597	0.156946	-423.003682	-422.994508	-422.993564	-423.038467	33.197	
C	 0.4310351034	 1.5150737794	-0.160004817	-0.49015
C	-0.0823835222	 0.0967942976	 0.0151320355	 0.373686
O	-0.4892041883	-0.3280435594	 1.0677394604	-0.293225
C	-0.0735969286	-0.7650111639	-1.2495556619	-0.047958
O	-0.1750606069	-2.1670300484	-0.9765007972	-0.273761
C	-1.4881281182	-2.2589668304	-1.5723147623	-0.13309
C	-1.4185058633	-0.7970330397	-2.0007408434	 0.302816
C	-2.5151063243	 0.2181193373	-2.0815824709	-0.326657
C	-1.7656125232	-0.2009174935	-3.3277820268	-0.326275
H	 1.5230183485	 1.4947712766	-0.2619052712	 0.148261
H	 0.0385356307	 1.9745095494	-1.0742760878	 0.131683
H	 0.1643333583	 2.1187847914	 0.7082332484	 0.146522
H	 0.8031023541	-0.5271596495	-1.8691319181	 0.08611
H	-1.5207459379	-2.9998692778	-2.380812558	 0.103863
H	-2.2549810102	-2.4950433643	-0.8242547381	 0.115625
H	-3.5336832086	-0.1329564698	-1.9502235327	 0.12364
H	-2.3388691134	 1.2130567016	-1.6863294095	 0.120846
H	-1.0718285319	 0.5078206805	-3.7696365467	 0.117005
H	-2.2759717082	-0.8316364669	-4.0491114428	 0.121062
