23
gdb 95773	3.05583	1.14317	0.88827	0.9816	89.14	-0.2231	0.0249	0.248	1395.0623	0.205775	-388.308827	-388.299335	-388.298391	-388.342918	36.416	
C	 0.0961819299	 1.5998438471	 0.0896709147	-0.39572
C	 0.0263182995	 0.076924315	 0.0292568677	 0.135916
C	 0.4592571612	-0.4575145656	-1.346948384	-0.246129
C	 0.2196502552	-1.9273259966	-1.6005800615	-0.167561
C	 0.5629807992	-2.9500401169	-0.8118069377	 0.327906
C	 0.2934192712	-4.3754236588	-1.2212103056	-0.476152
C	 1.2689045006	-2.7771429767	 0.5202655202	-0.301609
C	 0.6599934405	-1.7393715593	 1.4703044293	-0.066855
O	 0.8599483404	-0.3972357826	 1.0796799076	-0.255483
H	 1.1156528573	 1.9434285545	-0.1134596497	 0.120962
H	-0.5748151889	 2.0511487587	-0.6470547517	 0.110097
H	-0.1886442134	 1.9503440573	 1.0849517245	 0.11956
H	-1.0098484934	-0.2500115169	 0.2210025739	 0.062331
H	-0.0696769515	 0.1202870574	-2.113168387	 0.095449
H	 1.5263599034	-0.2176384931	-1.4674436621	 0.110537
H	-0.2618894491	-2.1649413488	-2.5472698282	 0.073853
H	-0.1818550548	-4.4361249196	-2.2038330618	 0.117422
H	 1.224416444	-4.9569000042	-1.2564606769	 0.121794
H	-0.3568440509	-4.8811439831	-0.4950072202	 0.119844
H	 1.2847022405	-3.7382676318	 1.0487007394	 0.094227
H	 2.3208336751	-2.5045163597	 0.3533395594	 0.116608
H	-0.4151940496	-1.9435812551	 1.6029640358	 0.084253
H	 1.1417059035	-1.8303526412	 2.4503270939	 0.098749
