19
gdb 69453	2.81827	1.32986	1.26359	3.0496	75.43	-0.2391	-0.0246	0.2145	1104.4768	0.158545	-423.029343	-423.020894	-423.01995	-423.062454	31.922	
C	 0.2342766195	 1.4693085894	 0.1115972604	-0.4907
C	 0.1636459298	-0.0356956603	 0.0411893524	 0.333852
C	-0.9093845824	-0.8125932732	 0.7651705275	-0.343562
C	 0.5331728462	-0.950895559	 1.1880059112	-0.110235
C	 1.2871904527	-2.1178863884	 0.5542283319	 0.002237
O	 0.9576155858	-2.0868337667	-0.8190353892	-0.252546
C	 0.7050461257	-0.7317875093	-1.2006130544	-0.141714
C	 2.7811077277	-1.9629947551	 0.8170564698	 0.1473
O	 3.5874576382	-1.611510399	-0.0018971559	-0.236996
H	 1.2575167891	 1.8263152215	-0.0508471869	 0.126755
H	-0.4045627055	 1.9318329183	-0.6496642623	 0.123903
H	-0.0997353799	 1.8363598122	 1.0867590191	 0.119136
H	-1.5641369429	-0.2568321646	 1.42807109	 0.11275
H	-1.3760823195	-1.6527864471	 0.2600882858	 0.124173
H	 0.8584681465	-0.5654605296	 2.147769747	 0.094219
H	 0.9740056831	-3.0952116789	 0.9497246872	 0.100312
H	-0.0016824305	-0.7612488056	-2.0369954476	 0.10693
H	 1.6305887184	-0.2438613981	-1.5352169537	 0.113696
H	 3.0777045381	-2.1903065565	 1.8698504276	 0.07049
