19
gdb 108851	2.93448	1.1306	0.88716	2.0274	79.34	-0.2403	-0.05	0.1904	1336.9597	0.158563	-423.068777	-423.059516	-423.058572	-423.103562	33.87	
C	-0.2300871376	 1.5389922361	-0.0383466486	-0.380195
C	 0.0758140682	 0.031706857	 0.0393055327	-0.291288
C	 0.7994264299	-0.4699870695	-1.1728565796	 0.216302
C	 2.0730814656	-0.8686006768	-1.3010096833	-0.22173
C	 2.4494075798	-1.2999118742	-2.70153882	 0.097881
O	 3.0594018778	-2.5846284587	-2.7334575956	-0.427953
C	 1.1253512774	-1.1815629273	-3.4877023136	-0.364113
C	 0.1202196	-0.5836278314	-2.4978213524	 0.331601
O	-1.0204035393	-0.2604187643	-2.7403080095	-0.328342
H	 0.6926894712	 2.1238138283	-0.1059795201	 0.11498
H	-0.8436115553	 1.7590120652	-0.9150212583	 0.148545
H	-0.7742874686	 1.8649038118	 0.8528869533	 0.116012
H	 0.6631866061	-0.1877041813	 0.9373388393	 0.102211
H	-0.8718989306	-0.5127267906	 0.1280448647	 0.121918
H	 2.8048836339	-0.9096287233	-0.4996041505	 0.11289
H	 3.213845336	-0.6322046313	-3.1150483485	 0.105981
H	 2.4628864701	-3.2023826765	-2.2953064619	 0.278256
H	 1.1929244458	-0.5583628841	-4.3834027849	 0.134233
H	 0.7838412097	-2.1692881691	-3.8137625432	 0.132813
