16
gdb 18932	3.60869	2.48999	1.99006	0.7877	62.56	-0.2358	0.0635	0.2993	715.9691	0.132813	-383.68629	-383.680438	-383.679494	-383.715876	24.428	
O	-0.0814866282	 1.4097028604	-0.0251424527	-0.439324
C	-0.0093289462	 0.0004808934	-0.0688221512	 0.152489
C	-1.3852639141	-0.632302253	-0.3466040645	-0.118775
C	-1.7871002045	 0.0448789247	-1.6849290123	-0.244763
C	-0.6198720228	-0.7691853821	-2.2698876388	-0.070789
C	-0.8409868068	-1.8678695696	-1.2108767195	 0.113562
O	 0.5639996744	-2.0414424599	-0.968756969	-0.294573
C	 0.6398720563	-0.6292490593	-1.3298110065	 0.013911
H	 0.8040159899	 1.7460620297	 0.1426825459	 0.286263
H	 0.4687844956	-0.4111913794	 0.8279282347	 0.076619
H	-2.0796440642	-0.7428794804	 0.4835468594	 0.071147
H	-2.741089187	-0.3325783423	-2.0640145928	 0.096993
H	-1.7660049488	 1.1331816155	-1.7257578142	 0.121211
H	-0.4533409559	-0.9657522782	-3.3273039772	 0.076165
H	-1.4266259416	-2.7804252673	-1.3096444016	 0.086968
H	 1.625207864	-0.3014639822	-1.6616795796	 0.072897
