18
gdb 77765	2.19971	1.89779	1.18553	3.6575	77.77	-0.2261	0.0023	0.2284	1064.4316	0.146294	-401.853671	-401.845603	-401.844659	-401.885964	31.499	
C	 0.0505451553	 1.4613854723	-0.3128611876	-0.330506
N	 0.0321131705	 0.02549459	-0.0292823421	-0.106873
C	-1.0663802682	-0.491143787	 0.8969461515	-0.270526
C	-0.108486739	-1.701008954	 1.0599338894	 0.519396
O	-0.093126245	-2.8856712657	 1.1007022133	-0.316319
C	 0.8088380351	-0.4566174832	 1.1937376196	-0.270527
C	-0.3102515799	 0.0679311487	 2.1289573631	 0.42666
C	-0.4633027772	 1.3040402321	 2.9521925475	-0.357499
C	-0.5407464282	-0.0671130668	 3.6010254874	-0.359521
H	 1.0129795945	 1.7054079985	-0.773613611	 0.125989
H	-0.7309331271	 1.6733301581	-1.0494011647	 0.125988
H	-0.0983379931	 2.1192729399	 0.552052514	 0.115344
H	-2.1236941333	-0.4405763507	 0.6427578511	 0.098188
H	 1.89044657	-0.3666701351	 1.2780782229	 0.098189
H	 0.4176496767	 1.9082408921	 3.1436481863	 0.124826
H	-1.3814325937	 1.8751152541	 2.8589085301	 0.124826
H	-1.5109248257	-0.4158270539	 3.9392476048	 0.126181
H	 0.2895041284	-0.3826790793	 4.2241978844	 0.126181
