19
gdb 11825	3.09658	1.82386	1.45347	1.0771	71.48	-0.237	0.0691	0.306	937.0555	0.165091	-365.021433	-365.013171	-365.012227	-365.053862	31.521	
C	-0.5937366018	 1.2616017023	-0.069089778	-0.411097
C	 0.0059329305	-0.1354305096	-0.0751454109	-0.056827
C	 1.2894344502	-0.4082423495	-0.9198952613	 0.104671
O	 2.0000140365	 0.8014472593	-1.1047576373	-0.431787
C	 1.8437170651	-1.2863810344	 0.2423175349	-0.327607
C	 0.7797550809	-0.661234913	 1.1478577392	 0.3692
C	 0.9682000177	 0.0243355122	 2.4425388349	-0.299593
N	 0.2532962057	-1.2697915547	 2.3626928555	-0.3769
H	 0.174572075	 2.0134947037	 0.1212869081	 0.137706
H	-1.0619783068	 1.4930514246	-1.0313842801	 0.116298
H	-1.3677233386	 1.3499973437	 0.7022373215	 0.104299
H	-0.7551814784	-0.8744592572	-0.3568928237	 0.074431
H	 1.1287402531	-0.9196307818	-1.8779370544	 0.060003
H	 2.8819971697	 0.5810723563	-1.4200302431	 0.283849
H	 1.6762062765	-2.3561830744	 0.0851116638	 0.105624
H	 2.8917534486	-1.1188334878	 0.5060829794	 0.096127
H	 1.9306238402	-0.017704238	 2.9463872948	 0.114404
H	 0.3956966118	 0.9278109059	 2.6368842953	 0.111322
H	-0.750919576	-1.1135259175	 2.4258055613	 0.225878
