20
gdb 71693	3.54482	1.494	1.37644	1.7519	81.69	-0.2154	0.0797	0.295	1040.5986	0.171623	-365.971076	-365.963331	-365.962387	-366.002664	31.474	
C	-0.0530646378	 1.5180588327	 0.0595623157	-0.517819
C	 0.0347975823	 0.0239903379	 0.0207645466	 0.332424
C	 0.0841197857	-0.8507822956	-1.2296032088	-0.132711
C	 1.1059357403	-1.955605337	-1.0833624839	-0.293363
C	 0.9892925492	-2.1803000691	 0.4127512121	 0.328707
C	 1.7297308112	-3.2885749147	 1.1098354231	-0.487398
C	 0.6444909939	-0.9017059115	 1.0915353466	-0.162013
N	-0.4196043716	-1.9415872199	 0.8789046314	-0.194218
C	-0.9984740513	-1.0506290051	-0.1963145917	-0.075369
H	 0.936518053	 1.9809046327	-0.0386631947	 0.119796
H	-0.6761006831	 1.8947514336	-0.7581254448	 0.120727
H	-0.4926815984	 1.869281925	 1.0001227193	 0.12325
H	-0.1678828709	-0.4074268881	-2.1853345749	 0.086204
H	 0.8420078079	-2.8530758718	-1.6545613457	 0.103733
H	 2.1187824872	-1.6484824823	-1.3676743316	 0.102041
H	 2.8126819499	-3.1616413721	 1.0046178678	 0.115907
H	 1.4864120563	-3.3047440041	 2.1753179728	 0.130304
H	 1.458939329	-4.262917584	 0.6893595589	 0.122906
H	 0.9627073039	-0.6115744145	 2.0878600273	 0.085046
H	-2.0672309467	-1.0229751521	-0.3654258154	 0.091845
