14
gdb 123526	4.14384	1.73948	1.22518	2.201	77.84	-0.2238	-0.0414	0.1824	927.3084	0.106212	-395.791369	-395.785591	-395.784647	-395.821416	23.335	
C	 0.0557059029	 1.383744523	 0.0095603814	 0.033181
N	 1.3168093312	 1.8245286819	-0.0002484472	-0.287661
N	 2.0493698483	 0.6894412849	-0.0139642859	-0.045618
C	 3.4111708646	 0.6315278476	-0.0276929993	 0.111351
N	 4.0651992835	-0.4876322659	-0.0405346509	-0.283644
C	 3.3378733291	-1.6499978237	-0.0400323893	-0.003322
C	 1.9716009207	-1.6917715215	-0.0268260916	-0.238658
C	 1.2650019259	-0.466582402	-0.0128641167	 0.459917
C	-0.0487695511	-0.0167041452	 0.0026470504	-0.376373
H	-0.7480316204	 2.1062563498	 0.0215740243	 0.126183
H	 3.9151255199	 1.5922521093	-0.0271471875	 0.152022
H	 3.9235347636	-2.5630443048	-0.0510149119	 0.11999
H	 1.4323652074	-2.6309925155	-0.0268875803	 0.117465
H	-0.9420839256	-0.6183630776	 0.0080154044	 0.115166
