25
gdb 123044	6.03676	0.48679	0.47211	2.0086	89.96	-0.2411	0.0794	0.3205	2405.937	0.228372	-389.47974	-389.468996	-389.468052	-389.517377	37.893	
C	-0.089193259	 1.5937507548	 0.0086275411	-0.379366
C	-0.075175291	 0.0637837645	-0.0482265647	-0.164528
C	 0.7394096544	-0.488854591	-1.2227910803	-0.15891
C	 0.7606606193	-2.0195890194	-1.2864311771	-0.17936
C	 1.5799219366	-2.5707066004	-2.4595974627	-0.211753
C	 1.5904683	-4.0928770888	-2.5266804223	-0.020541
C	 0.3022060253	-4.8005684341	-3.0117539056	-0.073739
O	 0.9970528228	-5.4180809911	-4.1134996777	-0.272367
C	 2.2289091047	-4.7516221567	-3.7709152841	-0.090867
H	 0.9253472693	 1.9952166959	 0.1099662455	 0.113144
H	-0.5219318088	 2.0198688932	-0.9034392216	 0.113539
H	-0.6771019289	 1.9577787861	 0.8570290857	 0.111088
H	 0.3301085521	-0.3342922001	 0.891578549	 0.093725
H	-1.1054552006	-0.3102941111	-0.1149328309	 0.094222
H	 0.3342728031	-0.0914398743	-2.1639841392	 0.092412
H	 1.7705335266	-0.1138418526	-1.1572226127	 0.091476
H	 1.1643038683	-2.4176734552	-0.3449178784	 0.09282
H	-0.2706168251	-2.3934794761	-1.3542533608	 0.096332
H	 1.1835776604	-2.1723140581	-3.4042151552	 0.097064
H	 2.6138784965	-2.2061611927	-2.3849712825	 0.09525
H	 1.9702703633	-4.5078446532	-1.5880900923	 0.076053
H	-0.1358583337	-5.5441396522	-2.3348164951	 0.098826
H	-0.4932143092	-4.1242790381	-3.3559106098	 0.093458
H	 2.546862188	-4.0483333507	-4.5532856735	 0.094353
H	 3.0424721155	-5.4634030087	-3.5841012847	 0.097669
