21
gdb 115964	3.12444	1.2146	1.0027	2.6874	77.38	-0.2392	0.0718	0.311	1235.2425	0.18403	-424.213537	-424.20498	-424.204036	-424.247234	32.544	
O	-0.1484703748	 1.5012684037	-0.1574381444	-0.423409
C	 0.0331753607	 0.1019279352	 0.0255742455	-0.102976
C	-1.3405254416	-0.5450515687	-0.031833645	 0.018301
C	-2.0784824478	-0.3616874673	-1.3692771893	-0.096585
O	-3.1069279154	-1.3460665379	-1.370111746	-0.261806
C	-2.6288419616	-2.4979514879	-0.6975681955	 0.116619
C	-1.7263917303	-3.4480152794	-1.5365726775	-0.237461
C	-0.4789914832	-2.9669694342	-0.7428428926	-0.242235
C	-1.3907193296	-2.0694611116	 0.1557036018	-0.073461
H	 0.7169427733	 1.9204055263	-0.1588874326	 0.28747
H	 0.6847557173	-0.3132122774	-0.7585726119	 0.086375
H	 0.5082457796	-0.1147845327	 0.9957219153	 0.087064
H	-1.9543999405	-0.0883737199	 0.7540563528	 0.088851
H	-2.5465612737	 0.617801395	-1.4801823159	 0.121702
H	-1.3868557362	-0.5062733998	-2.216736558	 0.082709
H	-3.4809845784	-2.9649787774	-0.197724463	 0.07456
H	-1.9616423665	-4.5071628045	-1.4048783757	 0.099177
H	-1.7309285542	-3.222824358	-2.6057846201	 0.106907
H	 0.0485948983	-3.7516575797	-0.1962259558	 0.101231
H	 0.2572157804	-2.4258016144	-1.3421990283	 0.09852
H	-1.4023624456	-2.3601125394	 1.2076638262	 0.068447
