18
gdb 122041	2.50456	0.79795	0.62985	2.5469	74.87	-0.2701	-0.0538	0.2163	1728.5074	0.144557	-439.091046	-439.080594	-439.07965	-439.128388	34.573	
C	-0.0282984307	 1.3507837308	 0.1004934694	-0.233658
O	 0.0872138454	-0.0535473244	 0.0488051645	-0.231243
C	 0.6475255785	-0.5140766126	-1.1561148371	-0.066337
C	 0.6843596592	-2.0376864759	-1.0874386672	-0.216644
C	 1.3174747616	-2.6837608599	-2.3475211564	-0.230984
C	 1.3646229095	-4.2069239931	-2.1410741113	 0.159522
O	 2.32751498	-4.7700090566	-1.7028746602	-0.228483
C	 0.5717340617	-2.3635178427	-3.5644788932	 0.268289
N	-0.0300384796	-2.1418725465	-4.5261575119	-0.315233
H	 0.95344679	 1.843204304	 0.0212576435	 0.108445
H	-0.6729165841	 1.7359624796	-0.7044925829	 0.112144
H	-0.4745521821	 1.6043356775	 1.0645753787	 0.13323
H	 0.0495048341	-0.1817591603	-2.0205624764	 0.113893
H	 1.6677100813	-0.1136407315	-1.2927536776	 0.091974
H	 1.2745514282	-2.346319529	-0.219719428	 0.139843
H	-0.334170778	-2.4140508619	-0.9467002637	 0.132425
H	 2.3519916338	-2.3407123285	-2.454862141	 0.15006
H	 0.4222567313	-4.7390503687	-2.389049239	 0.112757
