17
gdb 26197	4.09316	0.97827	0.93146	2.0176	71.51	-0.2039	0.0079	0.2118	1307.9318	0.135936	-455.174477	-455.165436	-455.164492	-455.208687	33.244	
C	-0.0244463107	 1.5496512924	 0.0824561374	-0.407083
C	-0.0440708752	 0.0183337156	 0.0033471735	 0.023926
O	 0.6664914303	-0.5729823237	 1.0852265504	-0.42611
C	-1.4436397429	-0.5168178162	-0.0753948934	 0.398035
N	-2.0459839015	-1.0740008098	-1.0794427333	-0.350827
C	-3.3182292603	-1.3732473968	-0.6081245123	 0.260557
N	-4.2573940032	-1.9298115815	-1.4662101472	-0.598447
C	-3.4150151484	-0.9762718597	 0.6886177557	-0.127983
O	-2.2004010355	-0.4140348012	 1.0361846705	-0.19734
H	 1.0091797592	 1.8977095531	 0.1533745692	 0.128095
H	-0.4897110356	 1.9929776911	-0.8032175794	 0.130258
H	-0.5733345519	 1.8958371239	 0.9646438744	 0.121303
H	 0.4670814092	-0.3122071292	-0.9043956615	 0.120811
H	 0.171208245	-0.3874815319	 1.8911837859	 0.287675
H	-3.8157703987	-2.426596329	-2.2281315361	 0.256867
H	-4.9517505687	-2.5036981782	-1.0092336403	 0.248657
H	-4.1739187712	-1.002608679	 1.4489871565	 0.131607
