21
gdb 74145	2.38092	1.3783	1.08853	4.1656	86.34	-0.2289	-0.0366	0.1923	1218.0339	0.181057	-387.147463	-387.137897	-387.136953	-387.18192	36.234	
C	-0.0272294417	 1.4832533479	 0.0261818153	-0.499975
C	-0.0052683342	-0.0118628077	-0.0246438553	 0.329507
C	-0.0171781931	-0.7556214899	-1.1419901194	-0.310618
C	 0.0118867171	-2.1947136989	-0.8312471185	 0.385996
O	 0.0100070203	-3.1182675412	-1.6139465645	-0.338965
C	 0.046954054	-2.3134873144	 0.6982259846	-0.386199
C	 0.0348203366	-0.864451167	 1.2497592421	 0.202866
C	 1.3068459972	-0.5641541633	 2.0687363799	-0.43243
C	-1.2117333637	-0.6051688309	 2.1203357869	-0.43236
H	 0.8576667284	 1.8749769645	 0.5412888826	 0.140163
H	-0.057678687	 1.9157832565	-0.9763672283	 0.134423
H	-0.8980772613	 1.8480835893	 0.5832041448	 0.140058
H	-0.0445552493	-0.3810880041	-2.1584161558	 0.1053
H	-0.8139662982	-2.8998387567	 1.0340863771	 0.125209
H	 0.9408291063	-2.8704060363	 0.9959803825	 0.12525
H	 2.2094592229	-0.7304681418	 1.4719013363	 0.120854
H	 1.3224806085	 0.4696738369	 2.4284494797	 0.114193
H	 1.3555770524	-1.2189301134	 2.944898156	 0.120836
H	-1.2031360674	-1.2605756649	 2.9973397162	 0.12083
H	-1.24635964	 0.427833881	 2.4810806656	 0.114181
H	-2.1321135278	-0.8012548956	 1.5608518423	 0.12088
