13
gdb 43565	2.14284	1.6434	1.05346	3.7523	69.83	-0.2694	-0.006	0.2634	1089.6599	0.086363	-419.371077	-419.362755	-419.361811	-419.404436	30.175	
O	 0.0184545921	 0.0915225216	-0.5837352392	-0.305196
C	 0.0282647151	 1.182791422	-0.1254823882	 0.467315
O	-1.0214695591	 1.8988336959	 0.3820550429	-0.234508
C	-0.1699635622	 3.0487194666	 0.7369502106	-0.088942
C	-0.1627102394	 3.3294989965	 2.1520782508	 0.379189
C	-0.1531686647	 3.5869792626	 3.3247313939	-0.433773
C	 1.0650116622	 2.3083184343	 0.1126806544	-0.422689
C	 2.2181424863	 2.0096399808	 0.9244978393	 0.352619
C	 3.1791584888	 1.7529064766	 1.5970621924	-0.423666
H	-0.4880797157	 3.9189643936	 0.1577219444	 0.133017
H	-0.1455468118	 3.8076744426	 4.3641101509	 0.215468
H	 1.3569365105	 2.7598437064	-0.8410035003	 0.151231
H	 4.026320978	 1.5205521205	 2.1942424281	 0.209933
