14
gdb 42162	3.95916	1.00126	0.85192	4.6497	69.69	-0.2791	-0.129	0.1501	1297.0938	0.099168	-436.699311	-436.690636	-436.689692	-436.733928	29.898	
O	 0.0305635883	-0.0513931006	 0.0552730577	-0.244547
C	-0.0088977063	 1.150428413	 0.0076643371	 0.196972
C	 1.2149333194	 1.9580328014	-0.1456084243	 0.26897
N	 2.2084146808	 2.5364454589	-0.2670398741	-0.293113
C	-1.3084174976	 1.9764670537	 0.0981599103	 0.301155
O	-1.2206036993	 3.1835384235	 0.038189527	-0.297325
C	-2.5531407146	 1.2088275833	 0.2513705546	-0.130731
C	-3.6671506	 1.8538083426	 1.0771689459	-0.247325
C	-3.8097601239	 1.7906583456	-0.3977027662	-0.247326
H	-2.4436348056	 0.1335708867	 0.2868620054	 0.126934
H	-4.2525589847	 1.1839584347	 1.6956284089	 0.134887
H	-3.4247707075	 2.8131508	 1.5197611157	 0.14828
H	-3.6641387408	 2.7071196732	-0.9579675625	 0.148274
H	-4.497246538	 1.0758387239	-0.8338936356	 0.134897
