21
gdb 103241	2.69459	1.60117	1.23434	1.2108	81.75	-0.2028	0.072	0.2748	1100.0359	0.181073	-387.001677	-386.992835	-386.99189	-387.034856	34.518	
C	-0.3405075575	 1.250327262	 0.0688049419	-0.254498
O	 0.3323771032	 0.0195472151	-0.1264832745	-0.28322
C	 0.7549423149	-0.599708307	 1.0606461289	 0.405399
C	 1.9959785901	 0.0624636577	 1.6468516392	-0.445635
C	-0.1682097798	-1.1905294808	 2.0960757627	-0.138799
C	-1.3988742797	-1.9920632504	 1.5918655341	-0.07463
C	-1.5809366011	-2.0739837065	 0.0947918034	-0.305743
C	-0.4996936172	-2.8833868826	 0.7560291718	-0.061988
C	 0.7464409788	-2.0891605893	 1.2296388965	-0.131593
H	 0.3230965403	 2.0298629261	 0.4675749697	 0.10952
H	-0.7009799669	 1.5718170727	-0.9113304911	 0.124528
H	-1.1962370913	 1.1367895363	 0.7481240701	 0.117268
H	 1.7906280933	 1.0923201604	 1.9551755288	 0.118039
H	 2.3586505414	-0.4792568111	 2.5242377346	 0.119502
H	 2.7917514758	 0.0825503125	 0.8961001394	 0.126225
H	-0.0543711591	-0.9460193152	 3.1462764335	 0.07928
H	-2.1817758652	-2.2940048246	 2.2757222726	 0.086459
H	-2.44465211	-2.6711773707	-0.1876447574	 0.101939
H	-1.3535473764	-1.259026841	-0.5740183389	 0.139221
H	-0.4833522339	-3.965106396	 0.7205740539	 0.08602
H	 1.6509574903	-2.6040168178	 1.5332693507	 0.082705
