18
gdb 100481	5.21729	0.57989	0.54457	1.3547	80.64	-0.2458	0.0102	0.2561	1984.8396	0.146699	-439.014266	-439.004441	-439.003497	-439.050775	34.695	
O	 0.1084604263	 1.4048157998	-0.1518663299	-0.417224
C	 0.1021606344	 0.0103426731	 0.0334706104	-0.052662
C	-1.3471541357	-0.5135347148	 0.0617853125	-0.072299
O	-2.0346496749	-0.0365471033	-1.1049582656	-0.429673
C	-1.4005182309	-1.9649467304	 0.1904382146	 0.023892
C	-1.4016050033	-3.1699523031	 0.260361088	 0.114252
C	-1.4302026199	-4.6025892915	 0.3307806237	-0.162854
C	-2.0089590054	-5.2734522591	 1.5359087906	-0.224103
N	-2.7264339437	-5.3239893791	 0.2614314449	-0.30339
H	-0.53189102	 1.5728736716	-0.8560757247	 0.287416
H	 0.6512981283	-0.5183037576	-0.7643530742	 0.083899
H	 0.5998330043	-0.206923706	 0.9834722804	 0.118124
H	-1.8638111552	-0.0346057482	 0.9016730545	 0.124259
H	-1.8148782483	-0.6329478161	-1.8303072135	 0.28883
H	-0.6313274142	-5.1132424548	-0.2005576661	 0.120525
H	-1.5846572538	-6.2182439985	 1.8631564897	 0.129784
H	-2.3835430269	-4.6343412194	 2.3297124987	 0.127816
H	-3.480845921	-4.6412659027	 0.2652498259	 0.243408
