16
gdb 45795	2.78447	1.86231	1.35104	2.7327	69.3	-0.2576	-0.0312	0.2264	935.9274	0.126731	-437.909723	-437.902854	-437.90191	-437.941102	26.835	
O	 0.0542392173	-0.03969265	-0.490169631	-0.29863
C	 0.0642329237	 1.0536605972	-0.0062319419	 0.427227
O	-1.099818009	 1.4641671087	 0.6321236404	-0.229988
C	-1.3536436074	 2.6652856907	 1.2654929339	 0.129786
N	-0.6594236197	 3.6957857933	 1.4512257849	-0.234788
C	 0.7012914969	 3.8311871698	 0.9772601848	 0.019779
C	 0.8703217455	 3.4344749159	-0.5169270371	-0.247283
C	 1.2382590125	 1.9929300171	-0.050359115	-0.142129
C	 1.59759434	 2.6116277365	 1.3349649599	-0.247311
H	-2.372634735	 2.6137523559	 1.6423522033	 0.141182
H	 1.0688580137	 4.8153840733	 1.2702307168	 0.08748
H	 0.0072000468	 3.5693264978	-1.171259307	 0.123142
H	 1.7427727998	 3.9177053718	-0.9617866711	 0.11991
H	 2.0289115734	 1.4754643871	-0.5908560005	 0.108659
H	 2.6542356019	 2.8864208626	 1.3590009155	 0.119863
H	 1.3465068295	 2.0540563523	 2.2390585242	 0.123099
