21
gdb 100843	2.23965	1.21293	0.91566	2.6672	85.5	-0.2196	-0.0569	0.1627	1379.3637	0.179251	-420.403787	-420.392776	-420.391832	-420.440535	38.188	
C	 0.1550899127	 1.6648627584	-0.2941212213	-0.376284
C	-0.0687836684	 0.1557141075	-0.1254464581	-0.174449
N	 0.554995675	-0.6750459767	-1.1551598713	-0.08683
C	 2.0099114887	-0.7045055199	-1.159401548	-0.320252
C	-0.0736715596	-0.8241995235	-2.3832778421	 0.290998
C	-1.5768597742	-0.9972461509	-2.2970762096	 0.073609
O	-2.3592218915	-0.5905695802	-3.1187654404	-0.239062
N	 0.6152054305	-0.9506014056	-3.4519090969	-0.30574
C	 0.0364494866	-1.238675987	-4.74748116	-0.32357
H	 1.218856808	 1.917545253	-0.2618142753	 0.126975
H	-0.249068377	 2.0153553577	-1.2488880274	 0.133446
H	-0.3449706073	 2.2126828502	 0.5109186378	 0.120442
H	 0.3185392234	-0.1732390632	 0.8458418223	 0.111835
H	-1.1443586398	-0.0471069736	-0.1110911226	 0.117219
H	 2.352020509	-1.5977084839	-1.6842206422	 0.143409
H	 2.4542738281	 0.1608418408	-1.6689521258	 0.125849
H	 2.36109598	-0.7288824397	-0.1238105797	 0.112536
H	-1.91860264	-1.6035795277	-1.4283663995	 0.099296
H	 0.6600693038	-1.9868927479	-5.2498454686	 0.116597
H	-1.0026794585	-1.5844169262	-4.7410671872	 0.125041
H	 0.0750813407	-0.3322951417	-5.3651122542	 0.128934
