16
gdb 12204	2.91872	1.79547	1.58461	0.6886	65.97	-0.2607	0.0129	0.2737	889.9116	0.128269	-383.684653	-383.676337	-383.675393	-383.717466	30.571	
C	 0.6027210472	 1.4214639509	-0.1457204956	-0.39591
C	 0.0279632325	 0.0396773155	 0.0943680921	 0.103866
O	 0.5940017273	-0.9702436926	-0.7896575465	-0.294295
C	 1.2504261322	-1.6590688369	 0.2957377703	-0.106819
C	 2.7001155883	-1.5247370437	 0.2806326355	 0.312485
C	 3.8917891735	-1.3611477469	 0.3274765436	-0.433045
C	 0.5361005989	-0.7382640093	 1.3426670043	 0.070555
O	 1.3023963824	-0.0897485165	 2.3073904279	-0.420967
H	 1.692207632	 1.4231705156	-0.0529029524	 0.117007
H	 0.3470330631	 1.7615998252	-1.1535159128	 0.12811
H	 0.1916471169	 2.1332773202	 0.5770669586	 0.126536
H	-1.0641097043	 0.0550662138	-0.007033499	 0.081072
H	 0.9662042012	-2.7172545053	 0.3281017342	 0.108803
H	 4.9486138684	-1.2504066543	 0.3375617137	 0.209539
H	-0.2668806772	-1.2597564243	 1.8677904635	 0.104713
H	 2.1888163275	 0.0476076085	 1.9480289727	 0.28835
