19
gdb 84044	2.64931	1.57167	1.2595	3.3951	71.53	-0.2316	0.0646	0.2963	1055.7866	0.160199	-460.125161	-460.117186	-460.116242	-460.15744	31.265	
O	-0.0091318052	 1.3855522499	 0.0249201711	-0.420907
C	-0.0433490669	 0.0012944874	-0.0187160496	 0.075724
C	-0.4689533915	-0.7560790604	 1.216816464	-0.017137
O	-0.8184591781	 0.0725132987	 2.2831879743	-0.260381
C	-1.9891662718	-0.3431163866	 2.9883995211	-0.071464
C	-3.2805525284	 0.1331252761	 2.3239534947	-0.194965
C	-3.5098660173	-0.4060340478	 0.9110640101	-0.070845
O	-2.5140892478	 0.0425951615	-0.0034741792	-0.24535
C	-1.3666632848	-0.7388504258	-0.0212875111	 0.011688
H	-0.4812552864	 1.64355602	 0.8271813306	 0.292347
H	 0.7616150111	-0.4013953312	-0.6249932987	 0.107145
H	 0.0295360751	-1.6829590631	 1.5021718389	 0.08867
H	-1.9861394766	-1.437671666	 3.0972577352	 0.096245
H	-1.9019567948	 0.0915218284	 3.9893995092	 0.111873
H	-4.1277925604	-0.1609219129	 2.9585773596	 0.098029
H	-3.2738424772	 1.2286520055	 2.2821852275	 0.1144
H	-3.5574510985	-1.5056763141	 0.9151044715	 0.091585
H	-4.4638199571	-0.0332878573	 0.5238063265	 0.110486
H	-1.4442964133	-1.6640714822	-0.5957774157	 0.082855
