16
gdb 24217	4.20746	1.55389	1.35359	2.8293	74.84	-0.2109	0.0425	0.2534	938.6982	0.128245	-400.724246	-400.718051	-400.717106	-400.754564	25.98	
C	-0.058871639	 1.595523887	-0.0403184801	-0.218086
C	 1.4794905266	 1.3365119544	 0.0060030143	-0.102872
O	 1.1771031844	 0.1815189806	 0.8798148292	-0.2935
C	-0.0138281795	 0.0364179885	 0.0140065104	-0.102873
C	 0.6376300431	-0.3007919157	-1.3117437095	 0.340948
C	 0.7117799037	-1.0433840446	-2.4522001708	-0.292927
N	 1.810250836	-0.5705640014	-3.1540514844	-0.249319
C	 2.4340606345	 0.4560480384	-2.4614323743	-0.292926
C	 1.7157157752	 0.637798163	-1.3175224669	 0.340947
H	-0.4292758429	 2.0267197278	 0.8921944328	 0.105165
H	-0.4866559666	 2.0814702408	-0.9202525971	 0.099105
H	 2.1986994388	 2.0378844913	 0.4239903428	 0.081706
H	-0.8049708798	-0.5771327277	 0.4400898478	 0.081706
H	 0.1137897468	-1.8487480208	-2.8474478307	 0.122662
H	 2.1313002247	-0.9447194391	-4.0296000159	 0.257601
H	 3.3116527841	 0.9353390576	-2.8645901475	 0.122662
