18
gdb 91792	2.67976	1.657	1.16027	3.6967	73.01	-0.2396	0.013	0.2526	1083.4563	0.14724	-439.115811	-439.107114	-439.10617	-439.148968	31.951	
C	-0.063069179	 1.4130937399	-0.1466305419	-0.343611
N	-0.0289260761	-0.0210987785	 0.0111933078	-0.095877
C	-1.2305937079	-0.8401934136	-0.0267239454	-0.198811
C	-0.6903529778	-2.2592760333	-0.0114324831	-0.039814
O	 0.1402991701	-2.5455472596	-1.1361945619	-0.288588
C	 0.7707293677	-2.2040602452	 0.1222815808	 0.281526
C	 1.6892369207	-3.205985111	 0.7479598407	-0.491085
C	 1.1397448606	-0.7270646425	 0.1349855281	 0.400678
O	 2.2567400044	-0.2629833978	 0.2411658964	-0.398033
H	 0.9635240642	 1.776624397	-0.0753922547	 0.167269
H	-0.4809742303	 1.6978626566	-1.1206352885	 0.126656
H	-0.6668381576	 1.8836967389	 0.6391324837	 0.122813
H	-1.8722988046	-0.6502590348	 0.8454557443	 0.112129
H	-1.8197076908	-0.6427645275	-0.9321137298	 0.12303
H	-1.2987735657	-3.0777361139	 0.3615583492	 0.107133
H	 1.311810138	-4.2192712504	 0.5935981143	 0.129114
H	 2.6848989003	-3.1213839246	 0.3034471982	 0.152498
H	 1.7895437438	-3.0200462797	 1.821732012	 0.132973
