20
gdb 111436	2.88633	1.54514	1.22604	2.459	78.07	-0.2303	0.0646	0.2949	1083.1264	0.172534	-403.097607	-403.089703	-403.088759	-403.130097	31.133	
C	-0.300959173	 1.2454777961	-0.0704790664	-0.22899
O	 0.1940477896	-0.0642354592	 0.0679556899	-0.233218
C	 0.7754231993	-0.5825951271	-1.1110748734	 0.132571
C	 1.3747118431	-1.9622358235	-0.8347440403	-0.083112
C	 0.4624990792	-3.0686863172	-0.3708436553	-0.278997
C	 0.8109220802	-2.9530028443	-1.8338042934	-0.040464
C	-0.1598874441	-2.1911111556	-2.7176540984	-0.048382
N	-1.3406310942	-1.6496946933	-2.0124554873	-0.324866
C	-0.1895857269	-0.7680804787	-2.2960365406	-0.085392
H	 0.4825324941	 1.9472908489	-0.4019685982	 0.094978
H	-1.1368482806	 1.3015859674	-0.7834192993	 0.105502
H	-0.6600981197	 1.5612314515	 0.9122278058	 0.125166
H	 1.5792577048	 0.0958290007	-1.4484579533	 0.057569
H	 2.4155288117	-1.9971689341	-0.5339122903	 0.082043
H	 0.9249489157	-3.8747518893	 0.1884899319	 0.100587
H	-0.5462649637	-2.8130065313	-0.0755795654	 0.15033
H	 1.4353216455	-3.7045895452	-2.3021648563	 0.07911
H	-0.2616056459	-2.4815022281	-3.7579751736	 0.083039
H	-2.0808677233	-1.4583002989	-2.6833193929	 0.228835
H	-0.3156381817	 0.0411932612	-3.0087462532	 0.083692
