20
gdb 120092	4.00173	0.96422	0.8845	1.5465	79.35	-0.216	0.0469	0.2629	1396.7047	0.169217	-403.0407	-403.032081	-403.031137	-403.074674	32.788	
C	 0.2910045939	 1.5699949444	 0.4577868536	-0.382692
C	 0.3669940959	 0.0666920839	 0.1802819727	-0.165328
C	 0.5312567385	-0.2454555832	-1.3103692198	-0.103236
N	 0.5979089826	-1.6992295161	-1.510865832	-0.064066
C	-0.0323478123	-2.5147255324	-2.5018502694	-0.100727
C	 0.1296356249	-1.981465265	-3.9831865434	-0.003988
O	 0.8198946194	-0.7281205468	-3.9537510819	-0.228266
C	 1.5781093857	-1.9359369494	-3.8335255488	-0.003977
C	 1.4669619487	-2.4674443141	-2.3468933321	-0.10072
H	 1.1980541609	 2.0842526179	 0.1199423543	 0.112926
H	-0.557887696	 2.0290464958	-0.0618104176	 0.112927
H	 0.1739976562	 1.7723107717	 1.526785293	 0.111045
H	 1.2057400389	-0.3776346815	 0.7298599143	 0.094733
H	-0.5373081359	-0.4323958258	 0.5492187428	 0.094725
H	-0.3061324123	 0.1737079276	-1.8773310897	 0.105732
H	 1.4392838642	 0.2286400577	-1.6964840855	 0.105724
H	-0.740224477	-3.2864497391	-2.2177948673	 0.097268
H	-0.497308752	-2.2019916793	-4.8383000826	 0.110327
H	 2.3789748265	-2.1115883459	-4.5411067217	 0.110328
H	 2.1485550692	-3.1953491905	-1.9191990888	 0.097267
