16
gdb 9332	5.07722	0.87562	0.75733	1.2675	63.16	-0.255	-0.0974	0.1575	1435.9807	0.126649	-420.881603	-420.872287	-420.871342	-420.917066	30.542	
C	 0.1061401585	 1.2636743623	-0.2120542664	-0.230035
O	 0.2858306991	-0.1289242121	-0.104244683	-0.234031
C	 0.6416834969	-0.5341309907	 1.1973019066	-0.0567
C	 0.8043964228	-2.0460828213	 1.1805255514	-0.31969
C	 1.1875691238	-2.6138936064	 2.5210314968	 0.282189
O	 1.3569030536	-1.9644815955	 3.5284752052	-0.278371
C	 1.3765512257	-4.1359548266	 2.6094444357	 0.09469
O	 1.2353800387	-4.8800432803	 1.6759273556	-0.215173
H	 1.0267265276	 1.8147240753	 0.0369935246	 0.10666
H	-0.1652285269	 1.4784884895	-1.2482578228	 0.129502
H	-0.6976820387	 1.6241133292	 0.4490903689	 0.10666
H	 1.5792027439	-0.0528123383	 1.5190079446	 0.101485
H	-0.1297087334	-0.241253809	 1.9275611783	 0.101479
H	-0.1195254727	-2.5342870381	 0.8450590971	 0.151202
H	 1.5591600712	-2.3491636658	 0.4436470086	 0.151207
H	 1.6576896999	-4.4724752321	 3.6298878189	 0.108927
