20
gdb 69356	2.67424	1.40507	1.14931	2.9519	79.79	-0.2454	-0.0298	0.2156	1154.0562	0.169077	-403.128592	-403.119397	-403.118453	-403.162067	34.771	
C	 0.0841801162	 1.5158976532	-0.0270077943	-0.485776
C	-0.0895226648	 0.0293920481	 0.0536697499	 0.35995
C	-1.437737681	-0.7174507306	 0.080611176	-0.353009
C	-0.8242165821	-1.7792549597	 1.0497763247	 0.221731
C	-1.4052886904	-1.7745287145	 2.4599562808	-0.471396
C	-0.6656107649	-3.1726953076	 0.5028084542	 0.115656
O	-0.6871971922	-3.4514168879	-0.6738419398	-0.266691
C	 0.5382159876	-1.0013784264	 0.9516238014	-0.146986
N	 0.9766098072	-0.8434649898	-0.4227459968	-0.361688
H	 1.1299903959	 1.7865818339	 0.1385274129	 0.134138
H	-0.2063901025	 1.8865978511	-1.0173337641	 0.125173
H	-0.5358759686	 2.028582765	 0.7161349895	 0.114718
H	-2.2397078897	-0.1528954415	 0.5635268301	 0.104814
H	-1.788909633	-1.0953493467	-0.883037497	 0.11785
H	-2.4472732011	-2.111852181	 2.463625334	 0.126896
H	-0.8346270256	-2.4336236577	 3.1245450004	 0.122221
H	-1.3753690005	-0.7673528225	 2.8862837911	 0.127266
H	-0.4517805176	-3.9575668897	 1.2654035281	 0.076511
H	 1.2614185598	-0.9202490156	 1.7570439984	 0.092265
H	 0.6569981074	-1.5948195	-1.0337321594	 0.24636
