21
gdb 89547	5.18827	0.84147	0.83449	3.0302	83.61	-0.2383	-0.0175	0.2207	1461.5464	0.180941	-387.09582	-387.08688	-387.085936	-387.130279	34.342	
C	-1.0908723195	 0.9552879589	 0.1207775969	-0.409599
C	 0.0766494431	-0.0176222374	 0.1549073582	 0.064878
C	 1.186793755	 0.0946929993	-0.928903487	-0.306885
C	 2.2412453462	-0.2118954096	 0.1617257366	 0.363012
C	 1.1839847385	 0.169210053	 1.2310654597	-0.298672
C	 2.8429744216	-1.6519519774	 0.2448926923	-0.410278
C	 4.2244892233	-1.009997091	 0.45032964	 0.409146
O	 5.2997536868	-1.4365487396	 0.7559083271	-0.29046
C	 3.6716816573	 0.3969212565	 0.1760182202	-0.432144
H	-0.7366183457	 1.9920433633	 0.0849011564	 0.110923
H	-1.7229523288	 0.7887888217	-0.7587384035	 0.11547
H	-1.7235711447	 0.8502341401	 1.0092851389	 0.115701
H	-0.2976493959	-1.0470039962	 0.1897038428	 0.074109
H	 1.1391089844	-0.5792370115	-1.7895369664	 0.094695
H	 1.2787054851	 1.1233918382	-1.2958278782	 0.097391
H	 1.2760447756	 1.2208738462	 1.5252852464	 0.097049
H	 1.1333628954	-0.4427224855	 2.136489932	 0.097424
H	 2.4991369864	-2.2993337216	 1.0573784523	 0.12678
H	 2.7880820955	-2.2160959337	-0.6933145147	 0.127233
H	 3.9994675157	 0.7875523389	-0.7945159458	 0.12811
H	 3.8894682445	 1.1489761176	 0.9408429257	 0.126119
