16
gdb 32030	3.81328	1.18031	0.90699	4.6238	77.21	-0.217	-0.0222	0.1948	1235.0611	0.126624	-434.145569	-434.137289	-434.136345	-434.17871	30.192	
C	 0.0319082008	 1.4668493897	-0.0260152497	-0.314276
N	-0.0322503427	 0.018092087	 0.0797487437	-0.371126
C	-1.2228663481	-0.6405472696	 0.0398984626	 0.543579
N	-2.3474440681	 0.0337278287	 0.0617282123	-0.368431
C	-3.4880255731	-0.714384039	 0.0611543274	 0.014028
C	-3.5493732649	-2.074950406	 0.0245783487	-0.25003
C	-2.3301282729	-2.8435466518	-0.0054251406	 0.41057
O	-2.1833194032	-4.0509738132	-0.0332888085	-0.39477
N	-1.182393711	-2.0044123884	 0.0052839388	-0.419496
H	 1.0519357615	 1.7842831027	 0.1998720679	 0.12641
H	-0.2462855692	 1.8271051059	-1.0238529636	 0.134913
H	-0.6522210501	 1.9139228769	 0.6961467189	 0.164416
H	 0.7916782288	-0.4986359329	-0.179226651	 0.249198
H	-4.4064946376	-0.1326683428	 0.0873285	 0.113177
H	-4.4881675702	-2.6115010278	 0.0201132254	 0.110379
H	-0.3039033301	-2.5059580196	 0.0173227578	 0.251458
