21
gdb 85926	2.59825	1.30034	1.10129	4.2621	78.49	-0.2585	0.018	0.2766	1227.5607	0.181382	-424.299024	-424.289609	-424.288664	-424.332785	35.861	
C	-0.289610346	 1.5081888126	 0.0517633148	-0.405196
C	 0.1180765369	 0.0411490278	-0.0624006372	-0.134134
C	 1.0876708164	-0.3249687208	-1.1912302829	-0.269759
C	 1.8724269756	-1.5314237994	-0.6254359877	 0.365885
C	 1.1995439008	-2.8703388111	-0.9379302302	-0.417826
C	 3.3431406866	-1.5372934512	-1.0258409772	-0.424546
O	 1.8240566303	-1.33554439	 0.8194824367	-0.251857
C	 0.8544576344	-0.4593659708	 1.1818741135	 0.429509
O	 0.6490397998	-0.1613695249	 2.3242025712	-0.348931
H	 0.5913934984	 2.1574215247	 0.0861391367	 0.122225
H	-0.9041795037	 1.8131396779	-0.8001434802	 0.115284
H	-0.8588732151	 1.6672803432	 0.9708388748	 0.144329
H	-0.7899354539	-0.5728753124	-0.1369032725	 0.110097
H	 0.593598151	-0.5667123326	-2.1351827462	 0.109369
H	 1.7729512448	 0.5096060811	-1.3767125138	 0.106539
H	 1.2748674742	-3.0956712634	-2.0062982309	 0.11985
H	 1.6828650036	-3.6759490922	-0.3787712745	 0.133252
H	 0.1398192749	-2.8566502807	-0.6660064551	 0.120785
H	 3.8305452217	-0.6116878133	-0.7078675399	 0.125813
H	 3.8690568334	-2.3791550194	-0.5666728953	 0.129617
H	 3.437738506	-1.6237094151	-2.1130065941	 0.119696
