20
gdb 119289	2.40886	1.1983	0.95005	3.4412	80.09	-0.2737	0.0188	0.2925	1336.566	0.169686	-403.149494	-403.139877	-403.138933	-403.184419	34.836	
C	 0.1051017189	 1.5421611203	 0.2282036552	-0.38538
C	-0.0554909796	 0.0431521678	 0.0503949121	-0.071117
O	 0.7468478227	-0.3543870942	-1.0615801459	-0.284667
C	 0.6922769462	-1.7134545253	-1.3869270064	 0.288601
C	-0.6329426994	-2.2890698608	-1.9990361124	-0.2719
C	 0.2210602527	-2.9885931688	-3.0895094122	-0.221497
C	 1.4012552003	-2.0482170191	-2.7294922876	-0.270389
C	 1.1872199364	-2.554672734	-0.2780596332	 0.24217
N	 1.5687282484	-3.2115738521	 0.5936305842	-0.351362
H	 1.1516252113	 1.7951382287	 0.4186261125	 0.133846
H	-0.220362467	 2.0754994097	-0.6693789785	 0.126608
H	-0.4954771102	 1.8870997337	 1.0748919468	 0.121401
H	 0.2646378166	-0.4946766881	 0.9539274316	 0.119259
H	-1.107935136	-0.2178188904	-0.1368424902	 0.097077
H	-1.2654704895	-2.9061253881	-1.359753798	 0.120158
H	-1.2166937059	-1.4589112351	-2.4050315274	 0.119406
H	 0.4339098128	-4.0295184943	-2.8362395039	 0.125821
H	-0.1518097608	-2.9468433318	-4.1135222322	 0.112332
H	 1.4131660977	-1.142098861	-3.3391195814	 0.125401
H	 2.4068977745	-2.465724427	-2.6734973331	 0.124231
