13
gdb 30420	3.09952	1.44556	0.99182	1.0866	66.13	-0.281	-0.0656	0.2154	1104.4254	0.088624	-489.932555	-489.924696	-489.923752	-489.966265	27.047	
C	 0.0804491803	 1.4521544223	 0.0904215505	-0.340905
N	 0.3326411922	 0.0264706364	 0.1131099781	-0.277342
C	 0.5543710607	-0.6287569738	-0.9293180062	 0.466029
O	 0.5678326192	 0.0125935046	-2.2024767027	-0.260017
C	 0.7981105719	-0.6251669968	-3.3610136858	 0.493477
O	 0.8076569813	-0.0854066169	-4.415085436	-0.322603
O	 1.0302362993	-1.9811911518	-3.2618595944	-0.20936
C	 1.0102967726	-2.5631780473	-2.0298906768	 0.135704
N	 0.7971776344	-1.9934535596	-0.9214626899	-0.283401
H	 0.825632958	 1.9436332641	 0.7253047647	 0.144247
H	 0.0985330197	 1.9079742884	-0.9037763212	 0.139472
H	-0.8950992459	 1.6364717756	 0.5532600093	 0.144242
H	 1.2079496863	-3.6271707151	-2.1068573796	 0.170456
