13
gdb 125538	5.57346	1.35556	1.09778	2.2184	65.88	-0.2724	-0.04	0.2324	1020.2956	0.091326	-448.916171	-448.909553	-448.908609	-448.947396	24.514	
C	-0.0191611919	 1.43004431	 0.0042169052	-0.482201
C	 0.0024173271	-0.0585899065	-0.0014172349	 0.352181
N	-0.0553859351	-0.7525454159	-1.1410273893	-0.319945
N	-0.0075208274	-2.0306315845	-0.6573365566	 0.005448
C	-0.0102585063	-3.3431522176	-1.0267286939	 0.057419
N	 0.0635257929	-4.1210636045	 0.013619238	-0.12098
O	 0.1186881825	-3.2578930857	 1.1531258055	-0.244138
C	 0.0727974718	-2.0064035451	 0.6941032132	 0.533257
N	 0.0832237808	-0.7914042227	 1.1713002531	-0.425276
H	 0.8877815666	 1.8217140843	 0.4747173037	 0.1508
H	-0.0887477237	 1.8086449149	-1.0162954641	 0.147622
H	-0.8711212161	 1.7957564741	 0.5853048708	 0.150811
H	-0.0651598711	-3.7135987508	-2.0375754707	 0.195002
