16
gdb 80221	2.20657	1.60439	1.18822	2.3188	72.39	-0.2608	-0.042	0.2188	1076.1506	0.122662	-437.868986	-437.860594	-437.85965	-437.902121	30.625	
C	-0.0215313349	 1.3484068477	-0.214568353	-0.423701
C	 0.165308076	-0.1130374868	 0.1170507682	-0.079245
C	 1.456993255	-0.8156748576	 0.1090934774	 0.044239
O	 2.5403468583	 0.0448449749	 0.521862932	-0.265759
C	 1.9717543842	 0.1747725238	 1.7946250482	 0.382206
N	 2.4201788369	 0.7106444684	 2.8324784928	-0.550395
C	 0.7472353887	-0.6111942142	 1.467095833	 0.064111
C	 0.0415258721	-1.5908692229	 2.3105770068	 0.062316
O	-0.8517252195	-2.3012949426	 1.9098554122	-0.275392
H	 0.8651989928	 1.9336002849	 0.0360738011	 0.145214
H	-0.212821065	 1.4646949111	-1.2862749324	 0.132773
H	-0.8759936325	 1.7607251569	 0.328924798	 0.137675
H	-0.6597887135	-0.7715125144	-0.1504315245	 0.138643
H	 1.7188092925	-1.7442984486	-0.3804060503	 0.143409
H	 3.343048079	 1.1198187351	 2.6792544877	 0.237937
H	 0.4026245997	-1.6386135957	 3.358132183	 0.10597
