22
gdb 100882	2.33381	1.04354	0.76835	5.4673	83.93	-0.2408	0.0379	0.2787	1544.7053	0.193398	-400.523347	-400.512241	-400.511297	-400.559795	39.621	
C	-0.0580707594	 1.6953462133	-0.0292645268	-0.394794
C	 0.0089647998	 0.1693074386	 0.0909973565	-0.206346
C	-1.3733056098	-0.5074698033	 0.0026814756	 0.016317
N	-2.1300117233	-0.2037609954	-1.2125977649	-0.500764
C	-1.273778049	-2.0567707336	 0.0950220914	-0.100095
N	-0.4981437685	-2.5012843439	 1.2507114889	-0.300794
C	-0.3523849797	-3.9530098968	 1.3527076172	-0.329949
C	-2.6328237077	-2.6215354445	 0.1781162914	 0.331721
N	-3.6834039793	-3.0931871527	 0.267718112	-0.34144
H	 0.9380432546	 2.1371680308	 0.0638290109	 0.120935
H	-0.4695275045	 2.0063540829	-0.9941016364	 0.111646
H	-0.6873684383	 2.1247939984	 0.7582500105	 0.122877
H	 0.6587147718	-0.2353238405	-0.699547371	 0.091117
H	 0.4778093718	-0.0792374445	 1.0498931593	 0.11065
H	-1.9764331713	-0.1739322807	 0.8547910273	 0.10811
H	-2.5133875687	 0.733201989	-1.1777517918	 0.239641
H	-1.5300138687	-0.2494493419	-2.0316506178	 0.225596
H	-0.8503257152	-2.4159000661	-0.8653665339	 0.09038
H	 0.4230793573	-2.0853888161	 1.1864289546	 0.226977
H	 0.062726301	-4.4253322513	 0.4452702575	 0.098965
H	 0.3072842082	-4.1827824986	 2.1934550174	 0.123214
H	-1.3260445212	-4.408238283	 1.5524030821	 0.156035
