17
gdb 46954	2.86927	1.84878	1.41589	4.8152	71.25	-0.2486	0.0114	0.26	930.9038	0.138861	-421.839628	-421.832972	-421.832027	-421.870652	26.84	
O	 0.0333126225	 0.0105609728	 0.2399761769	-0.339024
C	-0.0146302997	 1.1827256287	-0.0222840022	 0.415604
O	-1.2236883888	 1.7544581505	-0.2678475526	-0.236658
C	-1.327703768	 3.0817016113	-0.8150313654	-0.079046
C	-0.2276496481	 4.0052213822	-0.3330903568	-0.055204
C	 0.0826254718	 3.9356348331	 1.2024364394	-0.254967
C	 1.4061366276	 3.2485806386	 0.8661256534	-0.061528
C	 1.1824269522	 3.4538041607	-0.6190080416	-0.103777
C	 1.198289252	 2.055772125	-0.0647924803	-0.158013
H	-1.321981874	 3.0081053996	-1.9108729447	 0.114476
H	-2.3147673629	 3.4370821364	-0.5042758963	 0.122186
H	-0.3999950661	 5.0185866589	-0.7000217033	 0.087983
H	 0.2368149632	 4.9312702891	 1.623507529	 0.112178
H	-0.6245352545	 3.3873441174	 1.8313702077	 0.117983
H	 2.3255862749	 3.3171185297	 1.4339196622	 0.101605
H	 1.8632340409	 3.7806158464	-1.394693149	 0.096675
H	 2.1012202768	 1.4787648897	-0.2253951765	 0.119526
