14
gdb 46472	3.09891	1.53777	1.11129	4.4772	65.23	-0.2608	-0.0861	0.1747	1030.196	0.100567	-473.814927	-473.807362	-473.806418	-473.847725	27.538	
N	-0.0628585231	 1.2356028612	 0.3444127638	-0.494821
C	-0.0177023944	 0.0270349899	-0.0114596492	 0.330862
O	 1.0862399459	-0.6363812987	-0.4606699579	-0.252713
C	 0.8267984005	-2.0323610154	-0.7297798446	-0.186057
C	-0.6685722563	-2.2217067803	-0.5635619278	 0.303559
C	-1.5263377528	-3.1219748376	-1.3527215325	-0.223329
O	-1.1680877642	-3.4337293817	-0.0113947012	-0.247869
C	-1.1994949462	-0.9193326695	-0.0170953137	 0.247102
O	-2.3236267273	-0.6872760682	 0.3309321228	-0.275188
H	 0.8573297648	 1.6754463052	 0.2676167494	 0.236193
H	 1.1912082962	-2.2507643315	-1.7367145741	 0.135985
H	 1.3786243098	-2.6424684495	-0.0076672636	 0.147306
H	-2.5683960739	-2.8468769412	-1.5041501678	 0.148425
H	-1.067035859	-3.7412847025	-2.1220276035	 0.130544
