21
gdb 122687	5.2661	0.64093	0.5938	1.121	76.04	-0.2543	0.0807	0.335	1870.9	0.182061	-461.358682	-461.348705	-461.347761	-461.395955	34.37	
O	-0.1356261254	 1.4849848312	 0.0907906371	-0.421734
C	 0.0071271813	 0.0779329102	-0.0314212335	-0.074268
C	-1.3849819761	-0.5382941448	-0.0074516829	-0.16964
C	-1.3511030839	-2.0646953227	-0.1148317386	-0.224133
C	-2.7357242875	-2.6812456312	-0.0826123701	 0.221702
O	-3.4984154246	-2.2649283424	-1.2045245952	-0.265396
C	-4.3517206053	-3.3433483907	-1.5736013719	-0.088265
C	-3.9207007613	-4.5001237418	-0.6437600532	-0.113099
O	-2.6517454023	-4.0851221198	-0.1671754058	-0.249727
H	 0.7406758134	 1.8795374493	 0.0624614266	 0.284626
H	 0.5164340185	-0.1917531691	-0.9713824238	 0.084971
H	 0.611489732	-0.3345463702	 0.7939497538	 0.081623
H	-1.8814107541	-0.2335355198	 0.9222174321	 0.103807
H	-1.9730119011	-0.121247642	-0.8310538973	 0.126743
H	-0.8717134338	-2.381127493	-1.0480684335	 0.10823
H	-0.7762416991	-2.497364236	 0.7126905541	 0.106229
H	-3.273217274	-2.3976274425	 0.8443748155	 0.056779
H	-5.4052811199	-3.0725742634	-1.4318015947	 0.103333
H	-4.1893453682	-3.5735704484	-2.6324352875	 0.110871
H	-4.6299128341	-4.6245231692	 0.18832634	 0.098982
H	-3.8050514345	-5.4580044935	-1.1553444513	 0.118365
