13
gdb 25295	4.39236	1.09509	0.87655	5.6	71.42	-0.2476	-0.1001	0.1474	1208.7255	0.088559	-456.602431	-456.5948	-456.593856	-456.635668	26.712	
O	-0.127066938	 0.0442665956	 0.0038135218	-0.213703
C	-0.0366782445	 1.2409549792	 0.0083912705	 0.082874
C	 1.3454273829	 1.9380684219	-0.0025925559	 0.181367
O	 2.3650691683	 1.2811514486	-0.0170053585	-0.291489
C	 1.3613918164	 3.3960778783	 0.005088526	 0.273506
C	 2.4027924879	 4.2888278675	-0.0011713736	-0.232237
C	 1.8259638621	 5.5855195702	 0.0120264981	-0.169785
C	 0.4729373886	 5.3946795746	 0.025558333	-0.005572
O	 0.1714785595	 4.0816822084	 0.0216697762	-0.1706
H	-0.9251244169	 1.9027988056	 0.0201537192	 0.106514
H	 3.4475432762	 4.022923199	-0.0138267376	 0.150586
H	 2.3377673555	 6.5345927088	 0.011656451	 0.133164
H	-0.367502298	 6.0699306624	 0.0382622897	 0.155376
