17
gdb 86838	2.70226	1.28752	1.07757	1.5131	73.92	-0.2449	-0.0282	0.2167	1167.6842	0.133706	-421.816172	-421.807348	-421.806404	-421.850092	32.622	
C	-0.0642138354	 1.5526824044	-0.0585991361	-0.403308
C	 0.0476215297	 0.0400702049	 0.0265499569	 0.028463
O	 0.7761770792	-0.4734506297	-1.0839175495	-0.259123
C	 1.3966788381	-1.7078049282	-0.691833145	-0.095549
C	 1.8377966529	-1.4746550115	 0.7667990273	-0.348278
C	 0.8114528533	-0.4541835268	 1.2625478957	 0.38195
O	 0.6319983315	-0.0937432547	 2.3946219126	-0.306258
C	 0.479816812	-2.8451255561	-0.824021174	 0.353724
C	-0.278162058	-3.7727468993	-0.9209518587	-0.478551
H	 0.9278575319	 2.0054513416	-0.1407505129	 0.126242
H	-0.6550191291	 1.8478688239	-0.9289242344	 0.13058
H	-0.5482548807	 1.9277713312	 0.8468751997	 0.141571
H	-0.9577957625	-0.4129337258	 0.0653712242	 0.108788
H	 2.2465910478	-1.8460513082	-1.365664776	 0.121289
H	 1.8531736531	-2.3675288934	 1.3920100008	 0.148602
H	 2.8293709987	-1.0102121198	 0.7969909757	 0.142742
H	-0.9443058224	-4.5947012624	-1.0170554462	 0.207117
