18
gdb 84502	3.08264	1.41129	1.12211	1.9765	74.9	-0.233	0.0012	0.2341	1097.5329	0.148365	-439.054886	-439.046605	-439.045661	-439.087902	31.998	
O	-0.0297874132	 1.4886470981	 0.0439556993	-0.44011
C	 0.0455037079	 0.0718044859	-0.0208012257	 0.071542
C	 0.7111673175	-0.5666452586	 1.1748887281	-0.143794
C	-0.0015264208	-1.5856139916	 1.655209071	-0.134369
C	-1.2514196849	-1.8036348613	 0.8835650926	 0.330124
C	-1.697243789	-3.1865336775	 0.5392899001	-0.292902
N	-2.4689187835	-2.3669134515	 1.4774943959	-0.337393
C	-1.3771733522	-0.6022752839	-0.0609481579	-0.027523
O	-2.348694775	 0.285377669	 0.4617650267	-0.420603
H	-0.4738686248	 1.691459391	 0.8767710755	 0.280227
H	 0.5995793453	-0.1373260676	-0.9432212946	 0.096656
H	 1.6674834835	-0.2203702786	 1.5492098558	 0.105496
H	 0.2782047471	-2.2243047791	 2.487531209	 0.099064
H	-2.1856538084	-3.3726247979	-0.4141474229	 0.122031
H	-1.105738213	-4.018233271	 0.9158514022	 0.10914
H	-2.2940324706	-2.6502415863	 2.438939017	 0.231126
H	-1.6468746428	-0.9117134934	-1.0793257395	 0.066964
H	-2.305909303	 1.0772877244	-0.0879786226	 0.284325
