13
gdb 11168	4.05	1.61427	1.41383	3.6249	59.78	-0.2557	0.0009	0.2566	869.2326	0.097832	-394.806673	-394.799852	-394.798908	-394.838091	24.75	
N	-0.2323698422	 1.1288058491	 0.3866276221	-0.579055
C	-0.0679512871	-0.0722901197	 0.0450871331	 0.471611
N	-0.9819457779	-0.8242680607	-0.6905867079	-0.319887
C	-0.6706730815	-2.2352178355	-0.5706416599	-0.148214
C	 0.8546513743	-2.1320219365	-0.3168054709	-0.09394
O	 1.0227744758	-0.8601392096	 0.3057136893	-0.236771
C	-1.3897951061	-2.9133303294	 0.5268589421	 0.27257
N	-1.9721391258	-3.4411316381	 1.3739245602	-0.305133
H	 0.5872348373	 1.4835379373	 0.8731509345	 0.233845
H	-1.941315473	-0.5149266475	-0.6485790948	 0.275068
H	-0.8792221463	-2.7767435109	-1.4982352385	 0.145445
H	 1.2368875186	-2.9083446312	 0.3462596055	 0.15073
H	 1.393162544	-2.1543969173	-1.2702178247	 0.133731
