21
gdb 89166	1.83716	1.59851	1.01225	3.5688	84.92	-0.2338	-0.0178	0.216	1262.0049	0.181038	-387.078894	-387.069524	-387.06858	-387.112874	35.276	
C	-0.17955206	 1.5470969224	-0.0235519114	-0.415871
C	 0.1231528783	 0.0535030644	-0.0109661078	 0.043631
C	 1.0910315376	-0.5953804116	-1.0614152648	-0.328308
C	 1.8440461673	-1.2961958948	 0.0896814618	 0.320152
C	 2.3238966244	-2.7190862373	 0.0404123823	-0.493577
C	 2.4657984935	-0.2777269599	 1.0310590259	-0.140039
C	 3.1212758552	 0.9889188007	 0.6268482209	 0.136893
O	 4.0329934474	 1.4883659116	 1.2451280259	-0.274389
C	 0.9655724065	-0.579614941	 1.1034528976	-0.139771
H	 0.7247525848	 2.1608029454	-0.0014256252	 0.120891
H	-0.743948819	 1.819215152	-0.922432733	 0.117067
H	-0.7867415035	 1.8250688169	 0.8449772756	 0.120224
H	-0.8281275725	-0.4885564201	-0.0515819979	 0.083906
H	 0.5818129307	-1.3073201294	-1.7155616463	 0.106407
H	 1.6722924843	 0.0836462643	-1.6909501734	 0.104299
H	 3.1823492257	-2.8254851462	-0.6332687875	 0.127158
H	 2.6342470828	-3.0686175799	 1.0301394052	 0.124158
H	 1.5339279178	-3.3875658258	-0.3211353767	 0.119545
H	 2.9971641582	-0.7356947626	 1.8623355424	 0.103261
H	 2.7543714285	 1.462254425	-0.3069509456	 0.072702
H	 0.574281652	-0.9482769841	 2.0459803321	 0.091662
