21
gdb 92598	2.16186	1.67751	1.4969	1.2767	77.13	-0.248	0.0763	0.3243	1053.7062	0.182535	-424.228651	-424.219997	-424.219053	-424.261599	33.477	
C	-0.6357202556	 1.3515101633	 0.07272829	-0.40425
C	 0.0542100683	 0.0034068343	-0.0729333758	-0.017126
C	 1.4071530938	-0.0619012411	-0.8477160619	-0.289741
C	 2.0509110356	-0.8319599925	 0.3415018347	 0.056782
O	 3.0923182374	-0.1840574309	 1.0451433787	-0.253328
C	 2.465276815	 0.8275831332	 1.7982277543	 0.004549
O	 1.1800007334	 0.3625147712	 2.1549290987	-0.295251
C	 0.7626847707	-0.6043390192	 1.1885181664	 0.378242
C	 0.0854774753	-1.7508334356	 1.908803388	-0.460197
H	 0.0339715316	 2.096912435	 0.5112727053	 0.121623
H	-0.9682282363	 1.7237849021	-0.9022666167	 0.112037
H	-1.5145888266	 1.2802986298	 0.7222196321	 0.118204
H	-0.6538385426	-0.728816992	-0.475585556	 0.068016
H	 1.3912370516	-0.5981898161	-1.7989778083	 0.101435
H	 1.8726145777	 0.9142352662	-1.0114788429	 0.105939
H	 2.3620422319	-1.8583385219	 0.1413000321	 0.085733
H	 3.0499092715	 1.0091393133	 2.7055092334	 0.11828
H	 2.3884579479	 1.7606537779	 1.2124812652	 0.083404
H	-0.8116382065	-1.4006543098	 2.4301317218	 0.127065
H	-0.2140519026	-2.5314187699	 1.2027845297	 0.112785
H	 0.7607203986	-2.1880432071	 2.6503836212	 0.1258
