16
gdb 11523	5.25251	1.11155	0.97237	3.6119	66.23	-0.2514	0.0103	0.2617	1159.4808	0.129681	-379.889097	-379.880771	-379.879827	-379.922348	29.618	
O	 0.2024746436	 1.4920815955	-0.1025362667	-0.403923
C	 0.1213153216	 0.0804114451	-0.0476987298	-0.015595
C	 0.7769487331	-0.6177025285	-1.2529474338	-0.158882
N	 0.0359765823	-0.3102131845	-2.4606436797	-0.063305
C	 0.4613194866	 0.860244169	-3.22106208	-0.20394
C	 0.7396973095	-0.5113484997	-3.7252195629	-0.229551
C	 0.6923448278	-0.4372853976	 1.212573895	 0.251071
N	 1.1762938129	-0.82520262	 2.1876140406	-0.313882
H	 1.124315099	 1.7476393635	 0.0194331818	 0.294331
H	-0.9484578875	-0.1513417471	-0.0675743643	 0.153691
H	 1.8418792541	-0.3206597593	-1.302507142	 0.088569
H	 0.7488146748	-1.7009979848	-1.0891764829	 0.129787
H	-0.3377279321	 1.4583277056	-3.6475614748	 0.12641
H	 1.305389876	 1.4338668175	-2.844244952	 0.105991
H	 1.7715062932	-0.8569953143	-3.6849931789	 0.114231
H	 0.1469308749	-0.9408561104	-4.5271435296	 0.124997
