16
gdb 127452	3.77145	1.10984	0.86371	6.6378	77.03	-0.2226	-0.0378	0.1848	1279.6528	0.124824	-434.094419	-434.085667	-434.084723	-434.128011	31.259	
C	-0.0503966084	 1.3911327589	-0.0304852633	-0.337096
N	-0.0128059174	-0.0549677118	 0.0177146352	 0.018183
N	 0.0198832138	-0.7715813453	-1.1194157035	-0.314285
C	 0.0345459073	-2.0452142897	-0.7127210877	 0.260726
C	 0.0578801612	-3.1708316828	-1.6572141754	 0.09538
O	 0.0788911832	-3.0887757033	-2.8619579909	-0.266989
C	 0.0326271824	-2.1442501534	 0.7010123628	-0.390238
C	 0.0077882157	-0.835665845	 1.1383457767	 0.397762
N	-0.0834101451	-0.2627806518	 2.4085753799	-0.609899
H	 0.938313697	 1.8256010104	 0.1581827893	 0.137478
H	-0.3782065142	 1.678143806	-1.0287092355	 0.172366
H	-0.7544303208	 1.7637437168	 0.7180974364	 0.153177
H	 0.0551039415	-4.162284023	-1.1473650355	 0.061526
H	 0.0537955244	-3.0367556317	 1.3058402411	 0.107203
H	-0.0763176943	-0.9644989699	 3.1365040905	 0.259647
H	 0.6380335837	 0.4230708656	 2.6003203398	 0.255061
