14
gdb 26726	3.3655	1.21412	0.89469	5.8409	68.17	-0.2056	-0.0272	0.1783	1189.942	0.10053	-473.857738	-473.849378	-473.848434	-473.890528	30.747	
O	 0.0224778452	 1.3650015708	 0.0066943173	-0.435531
C	 0.0691662073	 0.002059693	-0.0448347346	 0.198446
C	 0.084473134	-0.8356905171	-1.1297222229	 0.143491
O	 0.1336551662	-0.4875835253	-2.4431097161	-0.449006
C	 0.0464691429	-2.1813317546	-0.6389333886	 0.104476
C	 0.0504803554	-3.4146212375	-1.4119072405	 0.067703
O	 0.0235363197	-4.5298703942	-0.9293973054	-0.301065
C	-0.0031920453	-2.0975485295	 0.7473727038	-0.142331
N	 0.0081612915	-0.7871160895	 1.0959486659	-0.296569
H	 0.9167227103	 1.7191418369	 0.0912030359	 0.307394
H	 0.0116276747	 0.4671964069	-2.5009721517	 0.29976
H	 0.0792988897	-3.269522126	-2.5125402549	 0.075332
H	-0.0491552114	-2.8901318785	 1.474951765	 0.155764
H	-0.0670763402	-0.4203651155	 2.0297369067	 0.272133
