19
gdb 81627	3.29728	1.11633	0.93006	3.1775	80.45	-0.2125	0.0194	0.232	1291.4868	0.158578	-419.113739	-419.105071	-419.104127	-419.148148	32.02	
C	-0.134485528	 1.5504629984	-0.0658420778	-0.344027
N	-0.0658434742	 0.0888780841	 0.0061150649	-0.105505
C	-1.2145687718	-0.7237992381	 0.5749729898	-0.081755
C	-0.1851648899	-1.8854437184	 0.6689008234	-0.211971
C	 0.5025848819	-0.608824674	 1.2270642226	-0.081652
C	-0.8149927272	-0.3888944423	 2.0385477656	 0.181834
O	-1.1413634946	 0.8840762745	 2.5506404072	-0.199238
C	-1.2120557951	 1.0236197335	 3.8899222342	 0.117777
N	-1.4023235508	 2.1633736604	 4.3949669986	-0.44442
H	-0.5209703186	 2.0689337262	 0.8148196608	 0.143754
H	 0.8757755381	 1.9182705492	-0.276663487	 0.116533
H	-0.7576570989	 1.8099180037	-0.9287029793	 0.117037
H	-2.208600874	-0.7283427792	 0.1260241737	 0.088469
H	-0.39518003	-2.7013983419	 1.362541303	 0.09599
H	 0.2015029945	-2.2148738534	-0.2923854552	 0.118988
H	 1.5368395149	-0.4774400335	 1.548485243	 0.087393
H	-1.0481771524	-1.1563403095	 2.7886239066	 0.082151
H	-1.100255325	 0.0743321607	 4.4326439256	 0.087633
H	-1.4510542887	 2.0895839396	 5.4089127002	 0.231009
