17
gdb 81598	3.52346	1.22246	1.06073	2.8061	67.97	-0.2553	0.0672	0.3225	1136.8029	0.135505	-458.854837	-458.847295	-458.846351	-458.887442	29.167	
O	-0.6958181736	 1.167492029	-0.816552142	-0.444841
C	-0.3629938852	-0.1310175478	-0.467841364	 0.184538
C	 0.035222076	-0.4033312341	 1.0154763423	-0.039051
O	-1.3772390762	-0.099479027	 1.3858418639	-0.341553
C	-1.4646847951	-1.0089838984	 0.2055187115	-0.039715
C	-0.3806788085	-1.8925129426	 0.8726293234	-0.003236
C	 0.4405062978	-2.9322370081	 0.1598678756	 0.02967
C	-0.1547194938	-3.9082467492	-0.7647684848	-0.174712
O	 0.6552278528	-2.836329555	-1.2508133253	-0.223017
H	-1.2246375152	 1.5003829221	-0.0765690883	 0.286667
H	 0.2320603943	-0.5801893798	-1.2590865136	 0.126377
H	 0.8161621727	 0.0446630383	 1.6312310864	 0.097897
H	-2.4646243279	-1.2739740916	-0.1402058449	 0.097703
H	-0.7265035135	-2.2862194238	 1.8327268822	 0.100045
H	 1.3271728005	-3.2493425327	 0.7125173836	 0.102649
H	 0.2801608429	-4.9018157012	-0.8581921232	 0.121264
H	-1.2139570081	-3.838284078	-1.0071633128	 0.119315
