17
gdb 7516	5.03442	1.18985	1.13178	3.2135	69.03	-0.2714	0.0254	0.2968	1089.7298	0.140545	-363.867718	-363.859029	-363.858085	-363.900884	31.69	
C	-0.0019128596	 1.4721876154	-0.1552040937	-0.404904
C	 0.0721147199	-0.0270024669	 0.0282626507	-0.051365
C	 1.407495841	-0.7522133647	-0.0219474329	-0.344729
C	 0.6532399859	-0.625326694	 1.2785883739	 0.406291
O	 1.1166306911	 0.2809828187	 2.2353167081	-0.464393
C	-0.0140023958	-1.8562545195	 1.8883973648	-0.387287
C	 0.9329431561	-2.6132503284	 2.7096806794	 0.247188
N	 1.7158493158	-3.1672638624	 3.3546801177	-0.307312
H	 0.8241629796	 1.9679735104	 0.3584402352	 0.135341
H	 0.0407237916	 1.7340275371	-1.2175164852	 0.118379
H	-0.935457413	 1.8735764925	 0.2529254991	 0.12121
H	-0.7670810519	-0.5748456789	-0.3946641806	 0.087609
H	 1.469172598	-1.7194998967	-0.5094245221	 0.116492
H	 2.295421356	-0.1366231452	-0.1204941605	 0.121368
H	 1.9023521548	-0.0952010287	 2.6501327259	 0.297854
H	-0.8533275196	-1.5443763799	 2.5202786019	 0.159149
H	-0.4119055399	-2.5100460788	 1.1058326886	 0.149107
