13
gdb 80166	2.5232	1.74622	1.4252	5.8531	58.81	-0.257	-0.0813	0.1757	914.1796	0.088637	-493.716976	-493.709694	-493.70875	-493.74894	27.1	
O	-0.2834874566	 1.4515495194	-0.0189198612	-0.402624
C	-0.1141035141	 0.0737383862	-0.0003427704	 0.070336
C	-0.482087768	-0.7150086418	 1.2178661896	 0.017384
O	-1.0985272615	 0.0271061646	 2.2531884439	-0.218109
C	-2.3327335157	 0.4799354342	 1.872414903	 0.347129
O	-3.027403013	 1.1559306267	 2.5618594834	-0.299274
C	-2.621210972	-0.0574468021	 0.4438706918	 0.319539
O	-3.6760980749	 0.0535836045	-0.1124549566	-0.280299
C	-1.3883604049	-0.7694189835	 0.0016658208	-0.251806
H	 0.3830458623	 1.8538008955	 0.5504034873	 0.306706
H	 0.6939193679	-0.3212135176	-0.6154870456	 0.119511
H	 0.0986240786	-1.5504926121	 1.5871998821	 0.133737
H	-1.4753575182	-1.6165048439	-0.664827288	 0.13777
