20
gdb 116073	2.62775	1.28262	0.90542	4.6471	77.83	-0.2416	0.0474	0.289	1312.9847	0.17155	-440.311517	-440.302539	-440.301595	-440.345866	33.101	
C	 0.0288866165	 1.5625870956	-0.0008981502	-0.390568
C	-0.0409668051	 0.0340528454	-0.0474911761	-0.190795
C	 0.7510172196	-0.5737728132	-1.1992866156	 0.14583
C	 0.7326271921	-2.0937875776	-1.2441354383	-0.240969
C	 1.4470761603	-2.5263346025	-2.5112512411	-0.083752
O	 0.9010926979	-1.8809218246	-3.6675948593	-0.268153
C	 0.4594373843	-0.5933031149	-3.6154355852	 0.463771
N	 0.2242539916	 0.0852686862	-4.6539380034	-0.545028
O	 0.1781300636	-0.0525851465	-2.4122746933	-0.253949
H	 1.0603461592	 1.9071980754	 0.132522554	 0.113461
H	-0.3529847856	 1.9952805939	-0.9283202747	 0.150832
H	-0.5634983734	 1.9528684799	 0.831528827	 0.114405
H	 0.3481171816	-0.3928929278	 0.8851946244	 0.097978
H	-1.0833589372	-0.2943952079	-0.1378719644	 0.11058
H	 1.7954379222	-0.2264474138	-1.14405999	 0.083479
H	 1.2388677666	-2.5100162677	-0.3674583284	 0.113085
H	-0.3025357287	-2.4529285461	-1.2459703821	 0.120708
H	 2.5185980742	-2.2901881474	-2.4468748141	 0.111961
H	 1.347235565	-3.5975021069	-2.7018700428	 0.123599
H	 0.4353507255	-0.4758733594	-5.4766554966	 0.223526
