19
gdb 96395	2.07427	1.69396	1.20245	1.8048	75.91	-0.2553	0.0304	0.2857	1104.7265	0.159174	-422.992677	-422.984029	-422.983085	-423.025628	33.173	
C	-0.0646369125	 1.5423336784	-0.0459991837	-0.419339
C	 0.0388334349	 0.0186724227	-0.0089525829	 0.002078
C	 0.6813759097	-0.5611634328	-1.2743224775	-0.096184
O	 0.7600612178	-1.9787159929	-1.1942867818	-0.237173
C	 1.4903780266	-2.3777231157	-0.0674326979	 0.007713
O	 0.9075732982	-1.943367183	 1.1405641706	-0.241114
C	 0.816049637	-0.5177821124	 1.220269485	-0.081453
C	 2.1389963507	 0.1014807435	 1.3870842305	 0.353935
C	 3.2203042504	 0.6069564315	 1.5329445084	-0.49257
H	 0.9223058366	 2.006311153	-0.1315402291	 0.132841
H	-0.670550652	 1.8662418544	-0.8983629651	 0.118357
H	-0.5370964391	 1.9286378225	 0.8632481718	 0.119889
H	-0.9637070882	-0.4172872993	 0.07194402	 0.09402
H	 0.0813390799	-0.3303722759	-2.1589133987	 0.111164
H	 1.6866608637	-0.1315071298	-1.4187084697	 0.099927
H	 1.4756965993	-3.4686326703	-0.0406995667	 0.118791
H	 2.5278751702	-2.0067562447	-0.1352356776	 0.090138
H	 0.2310217982	-0.3245366557	 2.1262990493	 0.115413
H	 4.1756993587	 1.0502132766	 1.6722283651	 0.203565
