14
gdb 20640	3.9095	1.86014	1.27043	5.7958	68.04	-0.2232	-0.0362	0.187	903.9057	0.108914	-378.757423	-378.750439	-378.749495	-378.788759	25.783	
C	 0.0230213958	 1.5248925658	 0.0020041816	-0.49385
C	-0.0501124454	 0.0248230195	 0.0027634939	 0.439844
C	-1.1892311675	-0.7011943331	-0.157549921	-0.352677
C	-1.1501144009	-2.1532399109	-0.140792732	 0.364949
O	-2.1187565598	-2.8916306784	-0.2761922863	-0.391668
C	 0.2155059624	-2.6781339172	 0.0620230519	-0.086673
N	 1.2886676739	-1.9668260533	 0.2128481077	-0.175057
N	 1.1354875054	-0.6309804311	 0.1803686749	-0.279023
H	 0.6777303809	 1.8885383379	-0.7980589973	 0.146777
H	-0.969325246	 1.9511454438	-0.1486714474	 0.155534
H	 0.417749947	 1.9019988783	 0.9522445618	 0.146921
H	-2.1410454076	-0.2040514144	-0.2999252667	 0.113717
H	 0.3475536149	-3.7557130496	 0.0894543838	 0.136661
H	 1.9943886568	-0.1186760272	 0.3015539752	 0.274545
