17
gdb 18072	4.36747	1.48275	1.42942	3.5809	68.6	-0.2432	0.0295	0.2727	932.8721	0.14332	-363.854274	-363.846825	-363.845881	-363.886989	27.535	
O	 0.4197186303	 1.0602824243	 1.4906786516	-0.317574
C	 0.2458537403	 1.5900973717	 0.4158443916	 0.150214
N	 1.1868025927	 1.7051234632	-0.5632611981	-0.285292
C	 2.4955832655	 1.1271490376	-0.4577721625	 0.048325
C	 3.6931406764	 1.7720112212	-1.090308523	-0.117642
C	 3.6079000348	 3.3028798128	-1.0122849814	-0.229754
C	 3.4666308295	 3.2058116715	 0.5405159276	-0.223901
C	 3.5610143389	 1.6808912839	 0.4418373647	-0.044898
H	-0.7162686563	 2.0537746448	 0.1139317016	 0.068939
H	 0.8988367002	 2.0878157703	-1.4506087142	 0.248086
H	 2.505240734	 0.0398583559	-0.5023355186	 0.107432
H	 4.3317778502	 1.2149612628	-1.7659681841	 0.089523
H	 4.5411002282	 3.7834221205	-1.3123201826	 0.109164
H	 2.7860546629	 3.7775966586	-1.5583393052	 0.086375
H	 4.320170491	 3.6467933336	 1.0585491755	 0.107099
H	 2.5461775934	 3.5967231322	 0.9823140442	 0.110297
H	 4.073011248	 1.0332459552	 1.1423884728	 0.093606
