15
gdb 31329	2.95937	1.30175	0.90925	2.6724	74.35	-0.2228	-0.0436	0.1792	1211.9588	0.11373	-453.995848	-453.987687	-453.986743	-454.029135	28.839	
C	-0.0608676951	 1.4463841233	 0.0092776325	-0.241528
O	-0.012886348	 0.0175546796	 0.0054547238	-0.26116
C	-1.1874600774	-0.6135920529	 0.0124769979	 0.339546
C	-1.3450433275	-1.9997971081	 0.0103055168	 0.106909
N	-2.7240484664	-2.1694143315	 0.0199346561	-0.293059
C	-3.288715678	-0.9522166352	 0.0268748977	 0.03761
N	-2.3857481695	 0.022834074	 0.0226836137	-0.358696
C	-0.4464662322	-3.11932899	 0.0011393569	 0.06422
O	-0.8241028794	-4.2806330668	 0.0011683545	-0.332578
H	 0.9790671344	 1.7738691383	 0.0022946051	 0.134722
H	-0.583534286	 1.8217104604	-0.8750617307	 0.140581
H	-0.5702158344	 1.8173926565	 0.9031643321	 0.140565
H	-3.163702483	-3.0766067342	 0.0209933292	 0.287083
H	-4.357897641	-0.802025022	 0.0349724401	 0.149308
H	 0.6286538236	-2.8525941316	-0.0059953457	 0.086478
