18
gdb 16953	3.40933	2.24952	2.07383	1.3903	70.89	-0.2344	0.0092	0.2436	771.5924	0.156178	-347.806795	-347.800367	-347.799423	-347.83688	26.652	
C	-0.1458510048	 1.5437100757	-0.0402029608	-0.407764
C	 0.0447837242	 0.0366110649	 0.0280497034	 0.161313
O	 0.8234166601	-0.4239530992	-1.0923506627	-0.300318
C	 1.8988142689	-1.235896536	-0.5335015788	 0.071392
C	 1.1995032702	-1.9125736425	 0.6546156067	-0.224863
C	 0.8249490133	-0.5336825273	 1.2633790115	-0.102732
C	 2.1869917906	 0.1381039585	 1.2712408488	-0.077297
C	 2.8460048251	-0.2861982705	 0.1864376385	-0.074966
H	 0.8134577305	 2.0644622368	 0.0109957656	 0.121483
H	-0.6296139843	 1.8155660017	-0.9829719395	 0.123961
H	-0.7832240975	 1.889824191	 0.7811627636	 0.105563
H	-0.938866944	-0.4545448201	-0.0110225356	 0.070392
H	 2.3030023115	-1.8536657644	-1.3336397304	 0.072191
H	 0.339136836	-2.5166984448	 0.352362406	 0.098873
H	 1.8712074752	-2.4908528353	 1.2906082124	 0.100928
H	 0.2559604901	-0.5213996325	 2.1927071433	 0.064744
H	 2.4968380344	 0.8994648113	 1.9758354996	 0.098457
H	 3.8012928205	 0.0549285025	-0.1907888616	 0.098645
