23
gdb 116140	2.49929	1.16084	0.84054	1.1	89.97	-0.2304	0.0265	0.257	1455.7178	0.205896	-388.307916	-388.298269	-388.297325	-388.342424	36.269	
C	 0.0025774848	 1.4051086107	 0.0551041341	-0.238079
O	-0.0101855665	 0.007314768	-0.1015348911	-0.245906
C	-1.3076781108	-0.5846624386	-0.0315138877	 0.102333
C	-1.232670899	-1.9246952336	-0.7607849773	-0.221922
C	-2.4869416696	-2.7581944769	-0.4866217837	-0.222076
C	-2.6288349933	-3.0600108884	 1.0113523108	-0.27691
C	-2.3388704714	-1.8598832575	 1.885509035	 0.316268
C	-2.7280040849	-1.9910667291	 3.3331149658	-0.473266
C	-1.7598972502	-0.7587753694	 1.3991401399	-0.164955
H	 1.0364979704	 1.7353946225	-0.0759689607	 0.124228
H	-0.6268717404	 1.9052790399	-0.6987474814	 0.100418
H	-0.3385188723	 1.7285617705	 1.0502637829	 0.10402
H	-2.016355296	 0.0778946532	-0.5622265052	 0.063064
H	-1.0926311381	-1.7525777282	-1.8324001893	 0.093759
H	-0.3415455842	-2.4517986723	-0.3990051908	 0.107485
H	-3.3718616152	-2.2067308868	-0.8307600349	 0.09812
H	-2.459518613	-3.691124067	-1.0594115185	 0.093777
H	-3.6363046583	-3.4383833951	 1.2306016878	 0.097028
H	-1.9465606059	-3.8753797217	 1.2974300291	 0.107029
H	-2.2403384921	-2.8606120616	 3.7932143754	 0.122315
H	-2.4547721048	-1.1037714347	 3.9103048863	 0.11856
H	-3.8087991455	-2.1510272963	 3.4404331005	 0.120281
H	-1.5767503637	 0.0820894124	 2.0647552929	 0.074429
