16
gdb 34359	2.98065	1.62197	1.32698	4.6204	72.37	-0.272	-0.0086	0.2634	973.6754	0.125317	-400.694836	-400.68781	-400.686865	-400.726186	27.804	
N	-0.0316740151	-1.1069812935	-0.0824171605	-0.334902
C	-0.0117357802	 0.0481552496	-0.0415175504	 0.233952
C	 0.0305097794	 1.496015863	 0.0377576712	 0.309256
O	-0.4303724021	 2.1586350535	-1.1635545207	-0.328647
C	 0.8285965927	 2.8817871046	-1.3029334876	-0.115887
C	 1.3440992863	 2.3176775788	 0.0347702258	-0.127572
C	 0.89993818	 2.9873730084	 1.3553308963	-0.064777
C	-0.461129862	 3.6167372101	 1.2603375151	-0.299203
C	-0.37486761	 2.1270432459	 1.3952674346	-0.095014
H	 1.3807051539	 2.5329443964	-2.1822367259	 0.121924
H	 0.6755385035	 3.9635223388	-1.3675660342	 0.115721
H	 2.3152909334	 1.8291702409	 0.0577222285	 0.109007
H	 1.578998739	 3.220649874	 2.1648971697	 0.103516
H	-0.7831083734	 4.1281960531	 2.1613222969	 0.124386
H	-0.830737714	 4.0564122774	 0.3411594678	 0.139197
H	-0.8220993915	 1.5740071389	 2.2109102533	 0.109042
