14
gdb 133497	3.4267	0.89216	0.84013	3.4609	51.85	-0.263	0.0451	0.308	1319.8432	0.097153	-601.555515	-601.546329	-601.545385	-601.591499	31.975	
N	-0.0994031889	 1.2813373963	 0.0306536666	-0.565142
C	-0.066960289	-0.0955704998	-0.120734651	 0.464785
O	 0.7129962119	-0.6629835828	-0.8607393422	-0.383985
N	-0.9523794369	-0.7695388871	 0.6964861531	-0.337163
C	-1.1046276611	-2.1947972217	 0.6029897843	-0.289833
C	-2.443938827	-2.5810406931	-0.009288385	 0.272082
F	-2.5838045188	-2.1049046546	-1.2499128675	-0.068553
F	-2.578347941	-3.9125863645	-0.054119379	-0.071723
F	-3.4637536973	-2.092541542	 0.7246391921	-0.095051
H	 0.4142987755	 1.7610806466	-0.6925224139	 0.266342
H	-0.9758865613	 1.7176885265	 0.2735263556	 0.249488
H	-1.5513824275	-0.262532939	 1.325844635	 0.249757
H	-0.3038017556	-2.5688254408	-0.0374844108	 0.178089
H	-1.035871293	-2.6801508841	 1.5825129928	 0.130905
