18
gdb 24350	3.43344	1.50431	1.08904	2.0281	77.7	-0.1863	0.0269	0.2132	1086.3061	0.151604	-401.981552	-401.974382	-401.973438	-402.013089	28.889	
C	-0.0300459103	 1.5340107747	-0.0021821262	-0.204312
C	 1.3995594353	 2.1016520453	 0.0095336946	-0.157105
N	 2.2071666335	 1.6700183124	 1.1560559753	-0.409865
C	 1.9557469552	 0.3681557692	 1.6114571013	 0.186495
C	 2.5694016254	-0.3536647736	 2.5916383173	-0.113518
O	 1.9847481441	-1.5868185603	 2.6955033286	-0.151388
C	 1.0044320694	-1.6442797076	 1.7602566192	-0.129676
C	 0.9288300711	-0.4805732404	 1.0621885522	 0.207167
C	 0.0067902541	-0.0064412771	-0.0223840049	-0.33256
H	-0.5670655009	 1.8804981679	 0.889482591	 0.099817
H	-0.5678967764	 1.9143639952	-0.8770489898	 0.09546
H	 1.9071783688	 1.7901947757	-0.9149499067	 0.107484
H	 1.3824556884	 3.1949683191	 0.0032764215	 0.101259
H	 2.2337440089	 2.3535989462	 1.8986277678	 0.233201
H	 3.3700482256	-0.148641229	 3.2813484927	 0.122553
H	 0.4479897419	-2.5668577377	 1.7200618548	 0.128061
H	-0.9988625258	-0.4218768463	 0.1002212807	 0.106232
H	 0.3618420618	-0.3401978339	-1.0073402995	 0.110695
