18
gdb 53983	2.7518	1.11422	0.9598	0.5804	69.43	-0.257	-0.0038	0.2531	1263.7865	0.144308	-476.286963	-476.276702	-476.275758	-476.322417	36.639	
C	 0.5735910932	 1.6090585309	 0.644120931	-0.419078
C	 0.3198421403	 0.155476047	 0.2319184483	 0.249793
C	 0.539837734	-0.8336843733	 1.3810136699	-0.41909
O	-1.0146282204	 0.0021493958	-0.3374380508	-0.247454
C	-2.1108413162	 0.2410982897	 0.4047578865	 0.163624
O	-3.213903372	 0.1219728379	-0.0405180065	-0.275958
C	 1.3145904912	-0.2001186765	-0.9012744794	 0.388637
N	 0.7681109175	-0.550404288	-2.0867332032	-0.524959
O	 2.5110565728	-0.1509750953	-0.6838134663	-0.384503
H	 1.6361087568	 1.7269007877	 0.8646873205	 0.160561
H	 0.3085807224	 2.2891451175	-0.1702599631	 0.135964
H	-0.0021062641	 1.8821835156	 1.5327105891	 0.118798
H	-0.0357061673	-0.5552937963	 2.2680648597	 0.118806
H	 0.2513993399	-1.8436368979	 1.0764395884	 0.135964
H	 1.6006966783	-0.8369151024	 1.6380256093	 0.160561
H	-1.8917729125	 0.5503424711	 1.4400108464	 0.088943
H	-0.22924175	-0.573706573	-2.2092487578	 0.28316
H	 1.3853045461	-0.7878467604	-2.8452984821	 0.266232
