21
gdb 97202	3.37254	1.11279	0.87522	2.6543	83.83	-0.2225	0.0259	0.2484	1377.3096	0.182918	-420.40623	-420.396878	-420.395934	-420.44068	34.24	
C	 0.0370723809	 1.4439950394	 0.1893393737	-0.326228
N	 0.0060914535	-0.0075601225	 0.1231891934	-0.291411
C	-1.0853889861	-0.6039118038	-0.0927395968	 0.392536
C	-1.1368105794	-2.11684344	-0.0762605542	-0.236055
N	-2.110579842	-2.6623485976	-1.0158638593	-0.077406
C	-2.1535644013	-4.1126670497	-0.9566973362	-0.314214
C	-3.4083369409	-2.0505579796	-0.7831799202	-0.154453
C	-3.2915177839	-0.557103691	-1.0300696684	-0.080872
O	-2.2789051465	 0.0528764788	-0.2200941394	-0.259213
H	 0.9642491277	 1.797332372	-0.2727717992	 0.119225
H	-0.8170796454	 1.932507277	-0.2924624882	 0.11734
H	 0.0622784462	 1.762765153	 1.2391769103	 0.123789
H	-0.1372852455	-2.4862258212	-0.3109618736	 0.133465
H	-1.369207157	-2.4298398917	 0.9644838932	 0.094627
H	-2.4604562301	-4.496957627	 0.0352282622	 0.09439
H	-2.8588503403	-4.4925173034	-1.7024013626	 0.118965
H	-1.1635738869	-4.5201846615	-1.1839849586	 0.124641
H	-4.1409872818	-2.4698383272	-1.4816160047	 0.106805
H	-3.7813582164	-2.236511276	 0.2446247822	 0.083936
H	-3.0561880883	-0.3776894121	-2.0866545519	 0.114997
H	-4.2211888564	-0.0395166061	-0.7806867417	 0.115135
