13
gdb 129807	3.47724	1.60594	1.11035	3.9387	61.57	-0.2079	0.0154	0.2233	992.9846	0.090642	-489.837812	-489.830671	-489.829726	-489.869502	26.513	
N	 0.0659968355	 1.4203031641	-0.1364609734	-0.603802
C	-0.0860163019	 0.0543043075	-0.0557987488	 0.334987
C	-1.1236528225	-0.815293167	-0.060933204	 0.105247
O	-2.4936742634	-0.9332745644	-0.0262171897	-0.295346
C	-2.6999132587	-2.3390345333	-0.2484985905	-0.00123
O	-1.4622274712	-3.0474479601	 0.0062940893	-0.26977
C	-0.5241122774	-2.0747745665	-0.0241017112	 0.43558
N	 0.7765629328	-2.0871377318	-0.004985572	-0.28066
O	 1.0645024554	-0.6778918998	-0.0244883618	-0.234586
H	 0.9461036353	 1.7429118266	 0.2436771529	 0.269751
H	-0.7171064597	 1.9421360006	 0.2307770168	 0.268421
H	-3.4629531578	-2.7040405651	 0.4414999596	 0.142973
H	-2.9875204464	-2.5086497508	-1.2946586372	 0.128436
