18
gdb 12372	2.90242	2.07251	1.40872	1.7539	70.03	-0.2406	0.0162	0.2568	922.9674	0.1544	-384.947299	-384.939471	-384.938527	-384.979145	29.791	
C	-0.0023425068	 1.5235860756	 0.0872685948	-0.484803
C	-0.0169637639	 0.024196869	 0.0065948333	 0.288391
C	-0.0010954401	-0.6628462054	-1.1372024752	-0.165053
C	 0.0525283779	-2.1656580438	-1.1842280112	-0.127083
O	 0.3764267705	-2.7480850911	 0.0657533923	-0.257511
C	-0.397594551	-2.1839601961	 1.114501786	-0.117675
C	 0.0095054688	-0.7276551582	 1.3260998925	 0.0496
O	 1.2982278034	-0.6354314461	 1.9352773304	-0.436923
H	 0.8470553272	 1.8587715325	 0.693426048	 0.142176
H	 0.0702363878	 1.985022234	-0.9012250172	 0.116937
H	-0.9083029797	 1.9027881067	 0.5775603168	 0.12238
H	-0.022101903	-0.149989566	-2.0967848704	 0.086987
H	-0.9097448523	-2.5686085609	-1.5533069022	 0.099244
H	 0.82443987	-2.500706717	-1.8868743688	 0.118369
H	-1.4743962365	-2.2586579094	 0.8898785136	 0.088032
H	-0.1819478618	-2.7685501504	 2.0126799517	 0.113658
H	-0.6776940359	-0.2567875598	 2.0399979885	 0.082042
H	 1.8930608553	-1.1326524337	 1.359952987	 0.281233
