18
gdb 13167	3.51878	1.44337	1.08784	1.6653	73.04	-0.2461	0.0487	0.2948	1087.339	0.152262	-347.748578	-347.739898	-347.738953	-347.782446	31.15	
C	-0.1430983108	 1.499233293	 0.0077864361	-0.396747
C	 0.0357592207	-0.0314776886	-0.0241258724	-0.180141
C	 0.7067511917	-0.4613404021	-1.2508049102	 0.327649
C	 1.2824355936	-0.8100984368	-2.2471836068	-0.467789
C	 0.8022293127	-0.5357030385	 1.2088956206	-0.008264
C	 0.0391199233	-0.5216139372	 2.5532930382	-0.092143
O	 0.1143233186	-1.9553533772	 2.6660199013	-0.272992
C	 0.8460586682	-2.0634565217	 1.4259851372	-0.088046
H	 0.8289042212	 2.0009685456	-0.0160661693	 0.128043
H	-0.722412382	 1.8419009025	-0.8530925365	 0.129647
H	-0.6674018726	 1.8038915218	 0.9189029727	 0.119475
H	-0.9621795472	-0.4936697218	-0.0044708495	 0.109431
H	 1.7791273687	-1.1216198454	-3.1325266653	 0.197061
H	 1.7830180995	-0.0554886037	 1.2470119979	 0.087122
H	 0.5436017586	-0.0159253433	 3.3859084255	 0.100481
H	-0.9996369175	-0.1662947315	 2.5029883736	 0.097188
H	 0.3078047732	-2.6583788407	 0.6772165374	 0.106672
H	 1.8418816401	-2.4974684546	 1.5741935395	 0.103352
