16
gdb 9597	3.90339	1.19551	1.18188	2.8753	68.47	-0.2611	-0.0481	0.213	1065.269	0.127793	-383.753749	-383.745346	-383.744402	-383.786831	29.855	
C	-0.1111890214	 1.5802200292	-0.0381755142	-0.470763
C	-0.0459222935	 0.0701688304	 0.0521519438	 0.213916
C	 1.2436960029	-0.6769246834	-0.1750862175	-0.337034
C	 0.6680630003	-0.6602995218	 1.2164148877	-0.138387
C	 1.338230133	 0.1200366401	 2.2868006424	 0.162775
O	 1.2970584415	-0.1738906251	 3.4548490461	-0.257199
C	-1.2759722334	-0.6444716886	-0.398777956	 0.133939
O	-2.2642236593	-0.096210201	-0.8143794817	-0.256747
H	 0.8499280194	 2.0471006741	 0.1859679824	 0.119416
H	-0.406428657	 1.8713026905	-1.0497486806	 0.144177
H	-0.8615170224	 1.9818962434	 0.6483032349	 0.143918
H	 1.2226527135	-1.6196553707	-0.7114963599	 0.137612
H	 2.1235489342	-0.0703249337	-0.3639719237	 0.13773
H	 0.192380026	-1.5662469466	 1.579249065	 0.116822
H	 1.9128301175	 1.0054835914	 1.9355223776	 0.076081
H	-1.2138052413	-1.7556057283	-0.3276259661	 0.073745
