18
gdb 44733	2.91199	1.71268	1.50708	3.1743	76.52	-0.2477	-0.0054	0.2423	944.3011	0.151274	-401.973086	-401.966308	-401.965364	-402.004249	27.986	
N	-0.060770994	 1.3092353917	-0.3854905672	-0.514266
C	-0.0067068871	 0.0986102445	-0.020570505	 0.389732
C	-1.2965670402	-0.7038328671	 0.1397824134	-0.277463
C	-1.109059511	-1.9879705249	 0.9779056647	-0.074834
C	 0.1280688282	-2.7092187517	 0.4026105689	-0.234523
C	 1.211394944	-1.7678474741	 0.9335196351	 0.072838
O	 1.1964237124	-0.531315372	 0.1632986779	-0.271592
C	 0.722615084	-1.4902422765	 2.3461645595	-0.084747
C	-0.6055507696	-1.6119744568	 2.3648786529	-0.066072
H	 0.8845713122	 1.6895069294	-0.4699344357	 0.215937
H	-2.0460508821	-0.0328717382	 0.5652807132	 0.132747
H	-1.648664171	-0.9718657415	-0.863963427	 0.128155
H	-2.0237734237	-2.5851686409	 0.9787430128	 0.072995
H	 0.2445135205	-3.7064096529	 0.8349640293	 0.107553
H	 0.1356527966	-2.7839673989	-0.6882271258	 0.105298
H	 2.2364170504	-2.1274286358	 0.8447781835	 0.085329
H	 1.3629313049	-1.1458102885	 3.1479464744	 0.106464
H	-1.2612095647	-1.3913590256	 3.199143915	 0.106449
