16
gdb 26583	2.40286	1.85415	1.05445	1.3439	77.22	-0.1996	-0.0251	0.1744	1080.79	0.12651	-434.149561	-434.141487	-434.140543	-434.182002	30.752	
C	 0.0536950989	 1.5195088108	 0.0150090034	-0.500751
C	 0.0191834692	 0.0167790869	 0.0041677866	 0.233884
C	-1.1749496788	-0.663358248	 0.0464861992	 0.140565
N	-2.423662037	-0.0772212443	 0.1443208846	-0.586657
C	-1.1878514875	-2.1196548334	 0.032059739	 0.4019
O	-2.1964990489	-2.8136335626	 0.0449822515	-0.412536
N	 0.0904189755	-2.6681378557	-0.0078260444	-0.348085
C	 1.2321332256	-1.9202086983	-0.0454528228	 0.069886
N	 1.2346858144	-0.6296670445	-0.043655237	-0.31624
H	 1.0825639454	 1.8638057018	 0.1262338508	 0.144418
H	-0.346528244	 1.942410219	-0.9168956787	 0.125089
H	-0.5504796268	 1.9223921728	 0.8366810466	 0.135316
H	-2.5426187865	 0.8180799401	-0.3035526793	 0.251138
H	-3.1674509712	-0.737967991	-0.0425221582	 0.265692
H	 0.1322381837	-3.6785427604	-0.0225163551	 0.265979
H	 2.1650490581	-2.4747786531	-0.0770898959	 0.130402
