20
gdb 98304	2.53685	1.24619	0.90132	2.4926	76.54	-0.2382	0.0103	0.2485	1333.7542	0.168707	-440.284061	-440.273952	-440.273008	-440.320273	35.443	
C	-0.8207980286	 0.8649539563	-1.8356574353	-0.241719
O	-0.8859788572	-0.4836561449	-1.3542790803	-0.234395
C	-1.009616793	-0.6131984143	-0.0178424929	 0.470961
O	-1.0255621251	 0.318996531	 0.7433864875	-0.357099
C	-1.1242107862	-2.0887694781	 0.3746070352	-0.079168
C	-0.9496417174	-2.2616101086	 1.8793388405	-0.385516
N	-2.4515208392	-2.5573316272	-0.0372408372	-0.070232
C	-2.5877935301	-3.052404169	-1.4031533501	-0.214345
C	-2.5827462215	-3.9968443733	-0.2537946957	-0.226463
H	-0.7220955625	 0.7899849924	-2.9186113088	 0.131671
H	-1.728759573	 1.412391396	-1.5704534143	 0.143418
H	 0.0395540668	 1.3850656661	-1.4070654839	 0.140955
H	-0.3273415852	-2.6325805784	-0.1647865682	 0.076019
H	-1.039626694	-3.3176714699	 2.148272553	 0.111646
H	 0.0320370378	-1.9027347163	 2.198324398	 0.12231
H	-1.7126673528	-1.692448703	 2.4134093077	 0.144085
H	-3.5165823043	-2.7942483123	-1.903402506	 0.117687
H	-1.7076864551	-3.034196651	-2.0410867951	 0.11968
H	-1.6952343992	-4.614807879	-0.1247820686	 0.110748
H	-3.5043405904	-4.4452854263	 0.1053455844	 0.119759
