19
gdb 43006	2.19386	1.97231	1.31408	3.5787	79.18	-0.2309	-0.0078	0.2231	1019.2822	0.16215	-385.89866	-385.891364	-385.89042	-385.930197	29.712	
O	-0.0266707907	 0.7045632691	-1.3770495064	-0.351704
C	-0.0213242399	 1.3616510719	-0.3536711312	 0.404722
C	-1.3083362967	 1.8043957771	 0.2627928778	-0.126512
C	-1.6336603268	 1.6188561508	 1.7424111683	-0.307849
C	-1.3207602431	 2.9861336423	 1.2230566738	-0.02852
C	-0.0272064532	 3.730748572	 1.5240997587	-0.253404
C	 1.2771030779	 3.0211818654	 1.186978429	-0.02852
C	 1.6410658656	 1.6630362181	 1.6969344981	-0.307849
C	 1.2698977749	 1.8391774744	 0.226989467	-0.126511
H	-2.1392277764	 1.6811193642	-0.4225437642	 0.105857
H	-2.6701368526	 1.3908824156	 1.9662808728	 0.122945
H	-0.9334726967	 1.1003257758	 2.3818969251	 0.126143
H	-2.1774136099	 3.6469501548	 1.1264063701	 0.096933
H	-0.0478294084	 4.6602185134	 0.942066846	 0.112059
H	-0.0166706962	 4.0356778825	 2.5789967005	 0.110333
H	 2.1126078023	 3.7048264394	 1.0668262171	 0.096933
H	 2.6891311301	 1.4631860162	 1.8918512165	 0.122945
H	 0.9731476161	 1.1260507983	 2.3554255576	 0.126143
H	 2.0844631639	 1.7380980786	-0.4811985766	 0.105857
