21
gdb 109018	3.43811	1.05972	0.91419	1.4555	85.03	-0.215	0.0227	0.2376	1358.0472	0.182205	-387.093133	-387.08421	-387.083266	-387.126626	34.921	
C	-0.2963135364	 1.484133999	-0.0442403763	-0.374221
C	 0.1476036345	 0.0120391219	 0.0201955566	-0.28453
C	 0.8494261568	-0.4604659912	-1.2190617386	 0.319566
C	 2.1016907689	-0.9302099429	-1.3049583222	-0.18726
C	 2.4544592636	-1.3745274894	-2.6808498254	-0.158426
C	 1.6148010337	-2.5249622259	-3.2367541002	-0.305544
C	 1.2021232618	-1.1163254136	-3.511602864	 0.415023
O	 1.239763838	-0.7234407007	-4.8492187812	-0.469515
C	 0.174909972	-0.4671348645	-2.5825804426	-0.39142
H	 0.5631377954	 2.1451237777	-0.1953299826	 0.118276
H	-0.9987530761	 1.6557872156	-0.8660963505	 0.119398
H	-0.7938842319	 1.7810650372	 0.8840361475	 0.113368
H	 0.8071102813	-0.1338828802	 0.8833600623	 0.100853
H	-0.7392526388	-0.61226195	 0.2012513246	 0.101591
H	 2.7821515948	-1.0182797273	-0.4638809606	 0.085853
H	 3.4507825861	-1.2305520654	-3.084347616	 0.08587
H	 2.0283024652	-3.0537458818	-4.0888716616	 0.117992
H	 1.0438643626	-3.1311805031	-2.5404874829	 0.10792
H	 1.4789054167	 0.2098494599	-4.8770297239	 0.277749
H	-0.7797795643	-1.0083661043	-2.5758533331	 0.111922
H	-0.0562830339	 0.5527600092	-2.9252106693	 0.095536
