20
gdb 22995	2.18962	1.30296	0.99977	1.2473	78.9	-0.2494	0.0002	0.2496	1273.2218	0.169107	-440.235874	-440.226175	-440.225231	-440.270592	36.165	
C	 0.069846081	 1.5728647131	 0.0695025863	-0.413455
C	 0.022255878	 0.0433261427	 0.0509051892	 0.113001
O	 0.7883472344	-0.5168717863	 1.1110922979	-0.438256
C	-1.4129665039	-0.498923814	 0.0650147826	-0.073699
C	-1.6212771693	-2.0501951	 0.017609221	-0.251693
C	-2.6166327164	-1.9548887319	 1.2169348659	-0.315065
C	-2.1460774179	-0.5287894531	 1.3980174195	 0.400054
N	-2.1316245755	 0.3134500185	 2.3461489924	-0.250365
O	-2.8426403143	-0.1669153271	 3.4638291482	-0.390144
H	 1.108776591	 1.9136746863	 0.0772649974	 0.119959
H	-0.4278650581	 1.9941592008	-0.8105540924	 0.109506
H	-0.4340009461	 1.9599550594	 0.9611293074	 0.137087
H	 0.5070591407	-0.3222671675	-0.8634169849	 0.08833
H	 0.3951058671	-0.1997908095	 1.9337865276	 0.28431
H	-2.0077162452	 0.0077085819	-0.7046840523	 0.089348
H	-2.0148563042	-2.4592100609	-0.913957885	 0.101375
H	-0.7025284214	-2.5718999696	 0.291198537	 0.129202
H	-3.6689603526	-2.0179826877	 0.9215821461	 0.124568
H	-2.4571935394	-2.6199522658	 2.0687857189	 0.129989
H	-2.7571255379	 0.5616632909	 4.0880542472	 0.305949
