17
gdb 60503	3.1987	1.00082	0.88147	2.3463	75.42	-0.2618	-0.0639	0.1979	1333.3298	0.132361	-421.779638	-421.770005	-421.769061	-421.815259	33.903	
C	 0.0745485085	 1.2329327983	-0.2343893864	-0.410134
C	-0.0809734459	-0.2773412371	 0.0410844137	-0.136453
C	 0.5866386535	-0.6685634263	 1.3422494856	 0.100988
C	 1.3348675016	-1.9197315475	 1.489821119	-0.181803
O	 2.0154864943	-0.6725375075	 1.3165399897	-0.248935
C	-1.5536650063	-0.6725471761	 0.0519845534	 0.228688
O	-2.133615192	-1.043799822	 1.0500373326	-0.29426
C	-2.2413663816	-0.567958997	-1.2264905644	 0.259878
C	-2.7952541048	-0.4907487592	-2.2926443868	-0.392173
H	 1.1370465625	 1.4863291698	-0.2610214261	 0.146666
H	-0.3768069694	 1.5089456596	-1.190536421	 0.132127
H	-0.4017950208	 1.8235238086	 0.5548733855	 0.130327
H	 0.401874624	-0.8212305282	-0.7811975795	 0.105232
H	 0.1520896972	-0.2243872276	 2.2367658035	 0.108551
H	 1.4358722115	-2.3763852006	 2.4727282497	 0.121749
H	 1.4039917852	-2.6088385548	 0.6488926805	 0.113089
H	-3.3010075176	-0.4269932722	-3.225710449	 0.216465
