17
gdb 20540	4.38528	1.44786	1.18509	3.3493	69.11	-0.2538	-0.0075	0.2463	1025.6811	0.142408	-363.86507	-363.857319	-363.856375	-363.897677	28.497	
C	 0.1211462903	 1.3757756955	-0.3529210213	-0.380285
C	 0.0290361892	-0.0881428097	 0.1192939267	-0.094083
C	 0.6703567033	-0.2603574966	 1.5024975319	-0.396232
C	-1.3941664041	-0.577765491	 0.0894769724	 0.165271
C	-2.2105377569	-0.964743926	 1.1068488703	-0.01874
O	-3.4208094673	-1.3243218632	 0.6483519163	-0.169477
N	-3.436568251	-1.181422495	-0.7336311778	-0.133035
C	-2.2440547401	-0.7429303901	-1.0468964229	-0.051347
H	 1.164843354	 1.704406399	-0.387855055	 0.114931
H	-0.3066429695	 1.5037118907	-1.3517461941	 0.117954
H	-0.4227991743	 2.0369146056	 0.3300050426	 0.122127
H	 0.6021314876	-0.6985808234	-0.5926874455	 0.090595
H	 0.6393395487	-1.3035296861	 1.8316718864	 0.120132
H	 1.7169875461	 0.0571696141	 1.481986406	 0.117059
H	 0.1555276666	 0.3492861591	 2.2539004103	 0.11882
H	-2.0773783126	-1.0408512291	 2.1743403811	 0.148031
H	-2.0145910799	-0.5567442239	-2.0874470573	 0.12828
