14
gdb 57232	3.02531	0.82485	0.74336	4.2574	82.57	-0.2874	-0.0549	0.2325	1504.1511	0.097383	-399.490339	-399.480734	-399.47979	-399.524988	34.277	
C	 0.0056053425	 1.543418252	 0.0531132549	-0.390716
C	-0.0079966528	 0.0040482093	 0.0057608536	-0.074949
O	 0.7102641578	-0.4262179692	 1.1589337755	-0.407342
C	-1.3869066841	-0.5122763028	 0.013525339	 0.337137
C	-2.5059308214	-0.947388405	 0.0441731637	-0.466023
C	 0.6690456478	-0.4716410676	-1.2185289933	 0.228555
C	 1.2454604699	-0.867611519	-2.2032384703	-0.053491
C	 1.8952719605	-1.3139239314	-3.3182469663	 0.209661
N	 2.4475291098	-1.6938981858	-4.2668217978	-0.330501
H	 1.0407813801	 1.8904714516	 0.0671346295	 0.145763
H	-0.5088542171	 1.9585111594	-0.8149177101	 0.143383
H	-0.498290281	 1.8667097206	 0.9659593368	 0.146634
H	 0.6353880635	-1.3861286373	 1.2178435657	 0.296505
H	-3.4973048355	-1.3298049645	 0.0674616391	 0.215384
