17
gdb 98531	3.80245	1.14849	1.0318	0.4402	70.2	-0.2448	0.	0.2447	1196.8896	0.134526	-458.916922	-458.908426	-458.907482	-458.951781	30.412	
C	-0.0055446711	 1.28360029	-0.2637557306	-0.244204
O	-0.1049291974	-0.1478383891	-0.3042865167	-0.218045
C	-1.2505418262	-0.6519973557	 0.1674035739	 0.279797
O	-2.167185612	-0.0031540602	 0.6072165421	-0.38125
C	-1.2828341831	-2.1486090222	 0.0943196609	 0.360236
C	-1.3825576325	-3.1574183795	 1.2713169503	-0.244046
C	-1.1742412699	-3.9236187533	-0.0560960923	 0.039479
C	-2.2496937293	-3.0408567526	-0.7317753985	-0.244137
O	-0.146247321	-2.9232403558	-0.4429313391	-0.333583
H	 0.9733968026	 1.5219788427	-0.6782084487	 0.139869
H	-0.7985113658	 1.7399735978	-0.8612958221	 0.143593
H	-0.0869528036	 1.6445437559	 0.7644562709	 0.14362
H	-0.5263312524	-3.1547471094	 1.9461242562	 0.116079
H	-2.3424495949	-3.2484240246	 1.7829931567	 0.111395
H	-0.9332335363	-4.9724116021	-0.2214903335	 0.103706
H	-3.2833605905	-3.1219464822	-0.3905125618	 0.111385
H	-2.1534037165	-2.9358897798	-1.8126101677	 0.116105
