21
gdb 104461	3.03538	1.22188	1.11908	1.458	74.18	-0.2454	0.0804	0.3258	1195.5958	0.182213	-461.35181	-461.342608	-461.341664	-461.385621	34.599	
C	-0.1164332133	 1.3603942193	 0.1156804222	-0.248677
O	 0.0908387323	-0.0314424855	-0.0113929691	-0.285484
C	 0.6721668598	-0.5024195202	-1.2241903362	 0.337899
C	-0.0864332162	-0.0562525516	-2.4759383415	-0.436067
C	 2.1684216904	-0.116422828	-1.2971886162	-0.125165
O	 2.835173891	-0.8649522452	-2.3053135441	-0.236409
C	 2.7118165771	-2.2435052426	-2.0756513209	 0.017859
O	 1.3773734886	-2.6738187124	-2.096636343	-0.236329
C	 0.6209160208	-2.0365094051	-1.0781397423	-0.124818
H	 0.8116184775	 1.9402605899	 0.0140103216	 0.108806
H	-0.8470933137	 1.7448784022	-0.6081040172	 0.113603
H	-0.5106369905	 1.5208936276	 1.1222272548	 0.130425
H	 0.0227884288	 1.0162032231	-2.6620852399	 0.112024
H	 0.3068275243	-0.588727198	-3.3440596475	 0.145736
H	-1.1518014637	-0.2860167335	-2.3759726848	 0.118448
H	 2.3106682328	 0.9364397444	-1.5536543482	 0.106256
H	 2.6230504569	-0.3030458304	-0.3106037692	 0.094933
H	 3.2282371362	-2.752533326	-2.8914717505	 0.118074
H	 3.1731570626	-2.5025589699	-1.1027122173	 0.077565
H	 1.0052101746	-2.3034350115	-0.0813874789	 0.098008
H	-0.4058937062	-2.4001173965	-1.1631950616	 0.113315
