22
gdb 116703	4.07444	0.67737	0.66042	2.7185	91.8	-0.2236	0.0222	0.2458	1843.0912	0.190869	-404.337792	-404.326969	-404.326025	-404.374438	38.508	
C	 0.1812453927	 1.4334887598	 0.1331892646	-0.248142
O	-0.1611235763	 0.0678272469	-0.059232451	-0.196767
C	 0.5152960802	-0.5674118122	-1.0390660377	 0.117941
N	 0.2973648585	-1.7832151243	-1.2815963588	-0.212643
C	 1.0309301373	-2.403490478	-2.3263138958	 0.023836
C	 1.4372015749	-3.8533311804	-2.1361512801	-0.348471
C	 0.3701357343	-3.5040720664	-3.1443784303	 0.322148
C	-1.0650612161	-3.8806880714	-2.8359010962	-0.448927
C	 0.7401917482	-3.5747915869	-4.6135584794	-0.448074
H	 1.2335079825	 1.5487188696	 0.4217702767	 0.125876
H	-0.012145423	 2.0290102104	-0.7678248194	 0.125451
H	-0.4516105232	 1.7983471844	 0.9430617942	 0.145532
H	 1.2425498819	 0.0611775718	-1.5759270828	 0.07282
H	 1.7375127984	-1.770039507	-2.8703292493	 0.06357
H	 2.4174570825	-4.1576577139	-2.488982282	 0.103311
H	 1.1235846714	-4.3155415861	-1.2067937076	 0.11724
H	-1.2922245233	-3.7441042221	-1.7774394476	 0.138498
H	-1.7634448532	-3.2591841282	-3.4091188746	 0.107592
H	-1.2549439354	-4.926613623	-3.1046887903	 0.105371
H	 0.6234937888	-4.5956383035	-4.9971501218	 0.114169
H	 0.0983784805	-2.9197536176	-5.2148390937	 0.112323
H	 1.7792702084	-3.2750348019	-4.7843114773	 0.107346
