19
gdb 74098	2.5466	1.66778	1.2017	4.092	82.75	-0.2301	-0.0414	0.1887	1079.2027	0.161198	-385.919304	-385.911702	-385.910758	-385.951141	30.325	
C	-0.0046620354	 1.4967453895	 0.0409866978	-0.500691
C	-0.0006227346	 0.0011875704	-0.01045029	 0.355469
C	-0.0085918493	-0.7186201064	-1.1471628383	-0.29153
C	-0.0029621007	-2.1950386425	-1.0435064331	 0.408449
O	-0.0094384514	-2.9406273063	-2.0018643898	-0.352751
C	 0.0114059624	-2.6961636182	 0.4006883665	-0.119168
C	-1.0544444141	-1.9037364379	 1.2214525437	-0.233056
C	 0.0134774716	-0.7683266151	 1.2979303139	-0.108832
C	 1.0868300283	-1.8971492563	 1.2023464273	-0.233065
H	 0.8776130329	 1.8686454798	 0.5777358918	 0.13708
H	-0.016157893	 1.9395267121	-0.9576210541	 0.132841
H	-0.8779313627	 1.8633872016	 0.5957379087	 0.137033
H	-0.0189144112	-0.2736515473	-2.1366708015	 0.098389
H	 0.0149408448	-3.7859385748	 0.421520232	 0.080613
H	-2.0087524683	-1.671372315	 0.7434148204	 0.107611
H	-1.2281108883	-2.3669714056	 2.1965342452	 0.104742
H	 0.0192005303	-0.1076021315	 2.1669731379	 0.064526
H	 1.280718682	-2.3592635368	 2.1741431273	 0.104736
H	 2.0310100366	-1.6589457297	 0.7073693044	 0.107603
