20
gdb 28425	3.02903	1.29329	0.91751	1.4985	92.58	-0.1939	0.0146	0.2085	1302.9116	0.171792	-366.096298	-366.087092	-366.086148	-366.130523	35.041	
C	-0.0058356586	 1.5305644514	 0.020429425	-0.491644
C	-0.0103498029	 0.0212400563	-0.0041667427	 0.32163
C	-0.0633561288	-0.6791509479	-1.2103701937	-0.224569
C	-0.0350286412	-2.0707734229	-1.2097515951	-0.176674
C	 0.0438594667	-2.8084998526	-0.031093785	 0.251224
C	 0.0858839903	-4.3146210325	-0.045729315	-0.515807
C	 0.0896940643	-2.1054538544	 1.1896537281	 0.235822
N	 0.2245688604	-2.8015350025	 2.3969673419	-0.590091
C	 0.0589428139	-0.7069825076	 1.1828027288	-0.26821
H	 1.0177041642	 1.9260015254	 0.0219321306	 0.130659
H	-0.5117466843	 1.9444259324	-0.8566969519	 0.121832
H	-0.502988642	 1.9201652962	 0.9141603358	 0.119636
H	-0.126140458	-0.1380901705	-2.1491450442	 0.07856
H	-0.0770989587	-2.6058479445	-2.1547013475	 0.081436
H	 0.9741560777	-4.6992396734	 0.4706616674	 0.132937
H	-0.7882760559	-4.7596509134	 0.4515343056	 0.11642
H	 0.1006075536	-4.6956254102	-1.0697894137	 0.123727
H	-0.203454281	-3.715954112	 2.4106025261	 0.243665
H	-0.0389929604	-2.2668689542	 3.2123827608	 0.241678
H	 0.0918993707	-0.1779162031	 2.1328283488	 0.067769
