19
gdb 66167	3.75802	0.8044	0.7577	1.9698	72.35	-0.2565	-0.0332	0.2234	1523.2476	0.15542	-460.134306	-460.124465	-460.123521	-460.170706	34.043	
C	 0.1043208538	 1.6764281866	 0.1369322423	-0.459148
C	 0.0112126631	 0.1605607489	 0.0183880129	 0.367033
C	 1.0617855015	-0.49169723	-0.9240815538	-0.11742
O	 1.8036852226	-0.9925222287	 0.2048753484	-0.271062
C	 0.7514303818	-0.6240567982	 1.1197238598	-0.116359
O	-1.31741155	-0.3063691519	-0.1149009008	-0.29535
C	-2.0064694352	 0.0945231358	-1.2748281456	-0.173486
C	-3.2867661351	-0.7220664823	-1.3595038009	 0.141925
O	-4.1329236444	-0.5446010845	-2.193730805	-0.235518
H	 1.1365233519	 1.9698651484	 0.3480947714	 0.135526
H	-0.1990141576	 2.1777733803	-0.787636607	 0.123504
H	-0.5327686896	 2.0344150097	 0.9518339753	 0.129206
H	 0.6514355656	-1.3023341152	-1.5410925154	 0.098669
H	 1.6637316542	 0.1786088933	-1.5479919708	 0.104414
H	 1.1266967193	-0.0504726582	 1.9742919092	 0.104355
H	 0.1797723703	-1.4910432982	 1.4719973541	 0.10896
H	-2.2723169852	 1.1617582242	-1.2699605096	 0.130346
H	-1.4213272841	-0.0915685606	-2.1908172736	 0.125448
H	-3.3659306632	-1.5077947093	-0.5765317907	 0.098956
