14
gdb 67191	3.08887	1.56824	1.51142	2.9789	60.9	-0.2426	-0.008	0.2345	899.6364	0.102335	-473.795617	-473.788999	-473.788055	-473.826512	26.273	
O	-0.1974867413	 1.4174650739	-0.0302652752	-0.453405
C	 0.0107918077	 0.0666499371	-0.0072689586	 0.347042
C	-0.9744719045	-1.0754933503	 0.0568676543	-0.106412
N	-0.392579012	-1.7141846213	-1.1144428277	-0.296084
C	 0.8152090218	-0.8224017383	-1.0098506695	-0.234622
C	 1.8268595823	-1.5513671157	-0.1362768341	 0.429704
O	 2.8824653982	-2.0401586821	-0.4109069518	-0.338492
O	 1.2569977668	-1.6651397547	 1.1166492697	-0.224742
C	 0.0926906462	-0.8668286876	 1.1562880673	-0.015916
H	 0.5173076771	 1.8559422439	 0.4463319664	 0.298778
H	-2.0359308917	-1.1080525148	 0.2721752609	 0.117122
H	-0.1870689103	-2.7076790588	-1.0030486894	 0.236353
H	 1.195894556	-0.4342831496	-1.9514998136	 0.112866
H	-0.2065694661	-0.5781291215	 2.1551572213	 0.127807
