21
gdb 40175	2.98984	1.49712	1.295	1.1378	81.14	-0.2401	0.0833	0.3234	1074.3742	0.184645	-387.068325	-387.060638	-387.059694	-387.100158	31.682	
C	-0.0845397861	 1.5080407507	-0.0500412927	-0.322426
C	 1.2634943781	 0.810957082	-0.0295167114	-0.33239
C	 0.0123124809	-0.0013787807	 0.0263751382	 0.430714
C	-0.3628354692	-0.7635711513	 1.2835437014	-0.275576
C	-1.7704332543	-1.3314609932	 1.2026652072	-0.014625
C	-2.9568916375	-0.4602963158	 0.8874521485	-0.291757
C	-2.4303800562	-1.4188548829	-0.157095481	-0.045473
C	-1.6676934417	-0.8779465579	-1.3644111018	-0.106056
O	-0.2690422456	-0.7234023669	-1.141546183	-0.286136
H	-0.3965904728	 2.0595411964	 0.8304913124	 0.110353
H	-0.4008655617	 1.9392460405	-0.9932650173	 0.117465
H	 1.8186193597	 0.7791203328	-0.959903511	 0.122638
H	 1.8723583734	 0.8803226906	 0.8657794801	 0.109757
H	 0.3438225448	-1.5957640066	 1.3963335778	 0.10495
H	-0.247429956	-0.1224154613	 2.1655753587	 0.094629
H	-1.9561890694	-2.1598482383	 1.8799141167	 0.081576
H	-3.9020150858	-0.6877419764	 1.3685095656	 0.106198
H	-2.785354556	 0.5981732506	 0.7179557861	 0.115755
H	-3.0309377934	-2.3003158965	-0.3560941743	 0.085368
H	-1.747528268	-1.5744273139	-2.2033323355	 0.106399
H	-2.0946489932	 0.084497338	-1.6872824847	 0.088637
