18
gdb 67503	2.43252	1.64748	1.25357	2.8444	78.55	-0.227	-0.0372	0.1898	1056.8695	0.146236	-401.862463	-401.854179	-401.853234	-401.895367	31.387	
C	-0.1475241068	 1.5527044426	 0.0011461483	-0.469722
C	-0.0508367503	 0.0585766346	-0.064733005	 0.318271
C	-0.9641885546	-0.8392028755	 0.7954664924	-0.152559
C	-2.0750742851	-1.8188741068	 0.5883896596	 0.129754
O	-2.2597087513	-2.6232969855	-0.2939862905	-0.25996
C	 0.562848914	-0.9754103459	 0.8382898008	-0.155915
C	 1.2241300065	-1.566355443	-0.4123311314	-0.036168
C	 0.328210454	-1.9077877353	-1.5337307837	-0.281581
N	 0.6484741395	-0.4840165383	-1.2910111981	-0.182243
H	 0.8192837328	 2.0023237187	-0.2439157672	 0.137056
H	-0.8800443896	 1.9202479845	-0.7264426754	 0.13438
H	-0.4509847887	 1.8911835029	 0.9957869509	 0.118223
H	-1.2374308303	-0.2301193489	 1.65804292	 0.101185
H	-2.818507712	-1.7452823753	 1.4135976648	 0.087212
H	 1.0855112284	-0.8570785653	 1.7796821353	 0.102997
H	 2.2904377694	-1.7673807942	-0.4267054219	 0.104598
H	 0.8251541676	-2.2622228852	-2.4340230926	 0.119731
H	-0.6718064536	-2.287853784	-1.3731919063	 0.184741
