16
gdb 37162	4.11112	1.86613	1.63534	1.918	70.4	-0.2263	0.0593	0.2856	824.35	0.126357	-400.59289	-400.58734	-400.586396	-400.622438	24.307	
C	-0.0565590851	 1.5462864868	 0.0087160542	-0.276151
N	 1.4632399094	 1.3035109634	-0.0350246454	-0.194291
C	 1.2759407537	 0.1605222879	 0.9961841658	 0.008198
C	 1.8533700528	-0.9929969496	 0.1683349458	-0.133255
C	 0.7861539019	-2.1108843675	 0.3177108153	 0.037116
O	-0.0268991357	-2.0248857423	 1.5046645001	-0.246033
C	-0.5179453829	-1.4105419333	 0.3015978742	-0.140318
C	-0.0035301629	 0.0138997586	 0.1381785175	 0.267072
C	 1.2124979261	 0.0045419497	-0.8323241406	-0.009328
H	-0.3774269848	 2.1241365893	 0.8803034765	 0.112924
H	-0.4575080331	 1.9740730889	-0.9151407148	 0.107668
H	 1.3281291189	 0.3526292846	 2.0660759952	 0.094819
H	 2.9072767799	-1.2707803548	 0.1580615622	 0.077222
H	 0.9389258642	-3.1112818835	-0.0749409244	 0.106415
H	-1.4295858355	-1.818291883	-0.121870515	 0.104002
H	 1.203697433	 0.0057081447	-1.9238376467	 0.083939
