16
gdb 78344	2.8148	1.38897	1.05438	3.3844	71.22	-0.2344	-0.0198	0.2146	1119.4509	0.123666	-437.829979	-437.822076	-437.821132	-437.862356	30.201	
O	-0.0281558805	 1.2612968716	-0.1158710103	-0.426522
C	-0.0691981818	-0.1272983367	-0.0276438132	 0.090245
C	-0.4929206516	-0.6920063171	 1.3389987856	-0.236896
C	-1.4343120704	-0.6915658192	 0.0937064878	-0.19817
C	-1.3590084316	-2.2077219824	 0.0514427201	 0.231201
C	-2.4409166072	-3.1719533142	-0.2574675629	-0.306154
N	-1.2333093583	-3.1072182005	-1.0959289252	-0.35919
C	-0.4730979601	-2.1945088166	 1.3003305186	 0.377671
O	-0.0642633864	-3.0500798841	 2.0328728805	-0.32233
H	 0.8152498081	 1.5620261936	 0.2390392559	 0.296899
H	 0.687911229	-0.6516988999	-0.6113151445	 0.112496
H	-0.5015945147	-0.0432455419	 2.2047980078	 0.118467
H	-2.3185532732	-0.083861148	-0.0459857358	 0.119784
H	-2.5295931836	-4.0712053236	 0.3450901815	 0.143219
H	-3.3766366762	-2.7743392907	-0.6425969909	 0.121571
H	-1.4286834916	-2.5928509204	-1.952879755	 0.23771
