13
gdb 130132	3.15945	1.51263	1.02409	5.6189	65.79	-0.225	-0.0473	0.1777	1057.9822	0.090647	-486.087218	-486.079557	-486.078613	-486.119636	28.594	
N	-0.0170769838	 1.3795525385	 0.1186582417	-0.557647
C	-0.0809914824	 0.0080874077	 0.1045374051	 0.500637
N	-1.1492238603	-0.6245315568	-0.1957951111	-0.321148
N	-1.0851537086	-1.9973605013	-0.0456200645	-0.301015
C	-0.007793944	-2.7523992062	 0.3166597658	 0.392265
O	-0.0343870196	-3.9597671862	 0.4033456618	-0.342153
C	 1.2298079704	-1.9303092033	 0.6029518733	 0.287651
N	 2.3226802304	-2.4574760337	 0.9258484618	-0.462527
O	 1.0976793938	-0.5467169666	 0.4984799187	-0.255047
H	 0.8858778214	 1.7643715134	-0.1171347377	 0.269115
H	-0.7924134512	 1.8218622742	-0.3521401676	 0.275813
H	-1.9411170477	-2.4849298228	-0.2630582362	 0.276928
H	 3.0404037116	-1.747525247	 1.0830653486	 0.237128
