18
gdb 54372	3.21248	1.37445	1.27364	2.384	76.99	-0.2397	-0.0215	0.2182	1068.1938	0.147581	-401.904413	-401.896398	-401.895454	-401.937639	30.038	
C	 0.3149776426	 0.8476857349	-1.0307484625	-0.49892
C	-0.0767951259	 0.2042747989	 0.2860596501	 0.204857
O	 0.5503769205	 0.3616808245	 1.3130633657	-0.311882
C	-1.2773446855	-0.6520097214	 0.2616459642	 0.319865
C	-1.797132081	-1.6788301149	-0.7029883112	-0.082587
C	-2.1404194622	-2.6354913141	 0.4392531829	-0.243798
C	-2.168697979	-1.3706775261	 1.3397714646	-0.139523
C	-3.325751975	-0.5682593917	 0.7238696863	-0.150204
N	-2.5285234829	-0.393746285	-0.5417070664	-0.185541
H	 1.0766304184	 1.6066039408	-0.8482230325	 0.141317
H	 0.7248331281	 0.0885209075	-1.7072732596	 0.140303
H	-0.5591672141	 1.2824276587	-1.5231756327	 0.156677
H	-1.4398358012	-1.9028405633	-1.6998721336	 0.109447
H	-3.0569058786	-3.2308209125	 0.3692691633	 0.101542
H	-1.2897515844	-3.2819260558	 0.6658520218	 0.118854
H	-1.9862806762	-1.4280680924	 2.4089765277	 0.097123
H	-4.2918762073	-1.0685838811	 0.591816188	 0.102299
H	-3.4690381263	 0.4163047431	 1.1736111439	 0.120169
