19
gdb 106473	2.5806	1.6335	1.26289	4.1302	74.41	-0.2592	0.0138	0.2731	1060.8583	0.160338	-423.053736	-423.045834	-423.044889	-423.086129	30.876	
C	 0.0636144039	 1.5380619725	 0.1594605894	-0.393621
C	-0.0808518492	 0.0218427733	-0.0242274604	-0.293385
C	 0.6773034467	-0.5111041855	-1.2172962155	 0.151414
C	 2.2366066581	-0.3917613821	-1.4280088037	-0.273431
C	 1.9301887968	-1.4587741919	-2.4975827656	 0.095096
C	 0.8735727176	-2.0421432139	-1.5386770188	-0.286429
O	 1.1063425174	-0.7165868223	-3.4516337728	-0.247958
C	 0.2376199064	-0.063293675	-2.612994694	 0.458191
O	-0.6373687076	 0.6641491115	-2.9786782877	-0.363061
H	 1.1107261751	 1.8219113526	 0.3110237011	 0.1134
H	-0.3121254372	 2.0697994282	-0.718039672	 0.150827
H	-0.5014277458	 1.8766234374	 1.0325716161	 0.115133
H	 0.2651643659	-0.4997187538	 0.8766258901	 0.09545
H	-1.1409051813	-0.2329061821	-0.1450479021	 0.11511
H	 2.6464719122	 0.5596420139	-1.7734382167	 0.120243
H	 2.7994646235	-0.7771017535	-0.5751033442	 0.112098
H	 2.6745434491	-2.0360674514	-3.0398780924	 0.099281
H	 1.3003857104	-2.5884006556	-0.6948914655	 0.111958
H	 0.040851658	-2.5915514422	-1.9836455155	 0.119682
