21
gdb 57359	2.40634	1.381	1.28728	1.9921	73.73	-0.245	0.0616	0.3066	1129.7086	0.178901	-461.340772	-461.330523	-461.329579	-461.375323	38.632	
C	 0.388387237	 1.506177634	 0.1135099753	-0.424532
C	 0.0294636897	 0.0173976182	 0.0132574782	 0.314389
C	 0.5102534226	-0.7506917614	 1.2518977006	-0.424539
O	-1.384036352	-0.1395161998	-0.1465188322	-0.471201
C	 0.6321405634	-0.5941544742	-1.2636667323	 0.368886
O	 2.0344154468	-0.4619330644	-1.1515540216	-0.499431
C	 0.1282992648	-1.9992853122	-1.6856599314	-0.138068
O	-0.313596761	-1.5032758222	-2.9649055817	-0.274261
C	 0.0282960645	-0.1459921474	-2.6204442433	-0.138069
H	 1.4703168042	 1.6451419076	 0.1613684692	 0.138194
H	 0.0022512652	 2.0544357083	-0.7507102735	 0.120836
H	-0.0553996515	 1.9417786573	 1.0161260461	 0.099873
H	 0.066935868	-0.3218260069	 2.1579627141	 0.099873
H	 0.2103331467	-1.801058071	 1.1940959965	 0.120836
H	 1.5970380497	-0.7015412625	 1.3449345278	 0.138198
H	-1.8101494574	 0.2306435621	 0.6329343765	 0.278811
H	 2.4372245209	-0.8382004117	-1.9407118842	 0.286752
H	 0.9198827208	-2.7550873782	-1.7784222957	 0.087645
H	-0.6998102711	-2.3994410391	-1.0927342036	 0.114083
H	-0.8559909393	 0.4950177233	-2.5526655538	 0.114082
H	 0.755356408	 0.2939637503	-3.316339161	 0.087645
