18
gdb 64764	3.29126	1.15329	1.07801	5.3399	77.82	-0.2506	-0.0025	0.2481	1181.3994	0.146684	-401.9724	-401.963593	-401.962649	-402.006238	32.495	
C	 0.1059522035	 1.484173706	-0.0843809411	-0.4195
C	-0.0404280998	-0.0378352175	 0.0166515758	 0.324461
C	-1.5401110245	-0.4630718175	 0.005108162	-0.356224
C	-2.260802476	-0.005844046	-1.1799740944	 0.276047
N	-2.8363802887	 0.3648465219	-2.1108929185	-0.315967
O	 0.61150879	-0.6505508283	-1.1015846681	-0.296256
C	 1.595808589	-1.5868845206	-0.668656006	-0.131349
C	 1.5800463227	-1.5011603717	 0.830738293	-0.097815
C	 0.6594171233	-0.6286115976	 1.2195502072	-0.126528
H	 1.1642282863	 1.7548373306	-0.0717422707	 0.126027
H	-0.3376065148	 1.8465344816	-1.0153142496	 0.153927
H	-0.3914130056	 1.9827440227	 0.7542850951	 0.113335
H	-1.5962044844	-1.5546867115	 0.0543648632	 0.151579
H	-2.0445289975	-0.06852832	 0.8946429975	 0.144513
H	 1.3480010542	-2.5954910307	-1.0345897791	 0.112885
H	 2.573519493	-1.3197906611	-1.0966105986	 0.116179
H	 2.240573631	-2.0779544028	 1.4656491305	 0.115517
H	 0.4120085381	-0.3463704373	 2.2351723518	 0.10917
