21
gdb 68878	2.29837	1.7854	1.38926	1.6476	82.26	-0.2392	0.0819	0.3211	1052.8425	0.18239	-387.052966	-387.044453	-387.043509	-387.085517	33.376	
C	 0.0650441387	 1.56929253	-0.0030876664	-0.505224
C	-0.0201490799	 0.0700366678	 0.0524939536	 0.314739
C	 1.1245321676	-0.8314961494	-0.3400566595	-0.398025
C	 0.5826623604	-0.9376194503	 1.0619603232	 0.30015
C	 1.3841399607	-0.7176470602	 2.3112688254	-0.504172
C	-0.6949479363	-1.761569412	 0.998677966	 0.057702
O	-1.6528580284	-1.3790076894	 2.00740301	-0.294278
C	-2.316920232	-0.4710778423	 1.1016560941	-0.091353
C	-1.3073242964	-0.7496212619	-0.027783908	-0.15153
H	 1.0594078598	 1.9201418804	 0.2921925794	 0.119473
H	-0.1242242219	 1.9403579135	-1.0179589545	 0.120149
H	-0.663597866	 2.0434719449	 0.6638034462	 0.119174
H	 0.9811674877	-1.6345964445	-1.0614371138	 0.100222
H	 2.090874682	-0.3419313307	-0.4194931304	 0.109486
H	 2.0693830425	 0.129765049	 2.2037968662	 0.113603
H	 0.7187251246	-0.5162573473	 3.1566222116	 0.134409
H	 1.9878225632	-1.5990492251	 2.5596472668	 0.118639
H	-0.6333675411	-2.8485940296	 0.8823597526	 0.069236
H	-3.3381507854	-0.8089514103	 0.8841185154	 0.09916
H	-2.3592824155	 0.5541970384	 1.4900275611	 0.098816
H	-1.7057669845	-1.009825921	-1.0106026089	 0.069625
