13
gdb 3559	5.24295	3.08593	2.7267	2.1546	51.66	-0.2397	0.0736	0.3133	541.0817	0.102942	-344.379764	-344.37466	-344.373716	-344.408351	20.656	
O	 0.0904931974	 1.4000323289	-0.0043561426	-0.443744
C	-0.0062284039	 0.0099676142	-0.0022912739	 0.187835
C	-1.3783004432	-0.6749541105	-0.0729649353	-0.179496
C	-1.6745779601	-0.7394943241	-1.5730400794	 0.087108
O	-0.6154827458	-0.0576256566	-2.2634370426	-0.307234
C	 0.2938676754	-0.7295299042	-1.3359286736	 0.006474
C	-0.8040647352	-1.7819120623	-0.9640102732	-0.141344
H	-0.2768244999	 1.6790305581	-0.8547753294	 0.285873
H	 0.5928474036	-0.3806314227	 0.8236819473	 0.095339
H	-2.1456415667	-0.7476511893	 0.68630089	 0.096723
H	-2.6585107442	-0.7704571263	-2.0202017923	 0.115702
H	 1.2930592503	-0.8766717096	-1.7387234003	 0.090393
H	-0.8375786778	-2.8595888656	-0.9121100747	 0.106371
