17
gdb 28324	4.80443	1.25802	1.01885	4.5448	75.44	-0.1959	0.045	0.2409	1156.9975	0.138611	-418.048641	-418.040981	-418.040036	-418.080967	28.484	
C	-0.0855322672	 1.4610364622	 0.0558128544	-0.483569
C	-0.0093708674	-0.0268475164	-0.0338322576	 0.281449
C	 0.0111086314	-0.8081861647	-1.1608748555	-0.247587
N	 0.1493995558	-2.1117253801	-0.6894393709	-0.044435
C	 0.0040446654	-3.4847643692	-1.1177043907	-0.205424
C	 0.3528125028	-4.1969042793	 0.2232393665	-0.100531
O	 0.1505580714	-3.2233721251	 1.2708079597	-0.269166
C	 0.145165892	-2.0164861329	 0.6621113108	 0.47933
N	 0.0707356525	-0.8073393941	 1.1261551418	-0.435157
H	 0.8061331675	 1.8751232191	 0.5397603076	 0.131642
H	-0.1750671615	 1.9098493938	-0.937365812	 0.114025
H	-0.9482788824	 1.7737272763	 0.6541205375	 0.132525
H	-0.0038289254	-0.5669530766	-2.209957635	 0.123423
H	-1.0184821678	-3.6983463214	-1.4539144928	 0.128945
H	 0.6993032671	-3.7602825192	-1.9152231994	 0.131124
H	-0.2826998999	-5.058450953	 0.4314013769	 0.134184
H	 1.4028311556	-4.5086391296	 0.2358370288	 0.129221
