18
gdb 78654	2.45985	1.74483	1.41547	2.7793	75.91	-0.2091	0.0061	0.2152	1004.7431	0.146494	-401.900633	-401.89239	-401.891446	-401.933131	31.452	
C	 0.0699979996	 1.5270519825	-0.0042794835	-0.336587
N	 0.0361506718	 0.0702759746	 0.0627148754	-0.082177
C	-0.8878087816	-0.5652340708	 1.0068958456	-0.07742
C	 0.0773355789	-1.6294292953	 1.364525796	-0.143353
C	 1.1335496692	-0.6081348599	 0.8072994346	-0.15824
C	 1.0959254413	-0.0413017477	 2.2557254411	 0.378801
O	 1.9326232026	 0.3569662099	 3.0200978435	-0.345775
C	-0.3001472181	-0.5466682415	 2.4359290296	 0.18575
C	-1.0853293045	-0.6815650258	 3.7021791833	-0.511837
H	 0.9074087685	 1.8355669244	-0.637677195	 0.128902
H	-0.8544286025	 1.8833161385	-0.4694759984	 0.123713
H	 0.1797119135	 2.0204718693	 0.9756864858	 0.11329
H	-1.9597386594	-0.6161736434	 0.8492573785	 0.106489
H	 0.0471542427	-2.704533643	 1.4408948401	 0.124126
H	 2.0683369459	-0.8105225578	 0.2891704497	 0.093224
H	-1.4800405591	 0.2890999172	 4.0203362013	 0.136724
H	-1.9356864125	-1.3594068153	 3.5752665007	 0.123841
H	-0.4577071262	-1.067506076	 4.5118795514	 0.140532
