19
gdb 32737	3.1801	0.9801	0.79064	2.7428	79.17	-0.1907	0.0329	0.2236	1468.5678	0.160231	-419.257973	-419.248778	-419.247834	-419.292704	33.715	
C	 0.0223733495	 1.6250940656	-0.1795872729	-0.378992
C	 0.0254048265	 0.0950214328	-0.1966705807	-0.15374
C	-1.3552227073	-0.5069899949	 0.1352913823	-0.320756
C	-1.396177924	-1.9975336967	 0.1402882592	 0.217174
C	-1.5166081107	-2.918407326	 1.1525232235	 0.267077
O	-1.6475640535	-2.6421458355	 2.4729044411	-0.442435
N	-1.4937616092	-4.2029065949	 0.6911137553	-0.340092
C	-1.3567477958	-4.0911736402	-0.6158447974	 0.002759
N	-1.2910345549	-2.792097738	-0.9986994835	-0.301252
H	 1.0108875914	 2.0289475609	-0.4187956071	 0.112978
H	-0.6885849961	 2.0296709614	-0.9089999885	 0.111805
H	-0.2644543092	 2.0076456393	 0.8061828538	 0.119168
H	 0.3515651421	-0.2615321069	-1.1828334799	 0.083433
H	 0.7590679647	-0.2889953117	 0.5214616302	 0.109156
H	-1.6664216138	-0.1681826499	 1.1293889637	 0.127612
H	-2.0982727498	-0.1035240586	-0.5688663934	 0.096885
H	-1.7287191739	-3.4943714012	 2.9171402978	 0.298288
H	-1.3022886041	-4.9096328378	-1.3170896432	 0.128717
H	-1.195517582	-2.4540993576	-1.9413624102	 0.262214
