20
gdb 104617	2.45598	1.25516	0.98748	4.4397	79.67	-0.2383	0.0224	0.2607	1273.0709	0.171222	-399.31654	-399.306863	-399.305919	-399.350992	35.926	
C	 0.6914086244	 1.4894825594	 0.0459066376	-0.414809
C	-0.0220986223	 0.1459032262	-0.0141835934	 0.091404
C	 0.3053419909	-0.7615737226	-1.2316942667	-0.317389
C	 1.0234300619	-1.7172128439	-0.227725016	 0.163005
C	 2.5660761858	-1.7514678424	-0.3722087048	-0.212235
N	 3.3017935449	-2.450360942	 0.6687260059	-0.504553
N	 0.4844250445	-0.9161071569	 0.9000186059	-0.352537
C	 0.5244229681	-3.1022156331	-0.2129273427	 0.269752
N	 0.169244152	-4.202610115	-0.2175449131	-0.35102
H	 1.7645124836	 1.3908375005	-0.1506031602	 0.118926
H	 0.2738450626	 2.1791418855	-0.6957274178	 0.127203
H	 0.5669684215	 1.9500409419	 1.0324244167	 0.125835
H	-1.0959376561	 0.3059602295	 0.1349275609	 0.088222
H	-0.5613385094	-1.1975563237	-1.7277977331	 0.129783
H	 0.9704951886	-0.3272988232	-1.9818906661	 0.115383
H	 2.8062690661	-2.2125600637	-1.338009197	 0.125119
H	 2.9177282367	-0.7145152481	-0.4162620729	 0.110923
H	 3.1375831549	-2.0337643416	 1.5802394539	 0.228261
H	 2.9990953325	-3.4186958679	 0.7271512683	 0.248843
H	 1.1811430989	-0.6197335389	 1.5771104445	 0.209885
