20
gdb 65207	3.38007	1.18042	1.13703	2.88	78.48	-0.2305	0.075	0.3055	1171.8833	0.170817	-403.079117	-403.07075	-403.069806	-403.112271	32.554	
C	 0.5052781572	 1.011890266	 1.0374590928	-0.465815
C	 0.1599311813	-0.1314336781	 0.111061631	 0.406951
C	 0.6333945425	-0.100261899	-1.2840700599	-0.22638
O	 1.3001721924	-0.9086371205	-0.3155548892	-0.281428
C	-1.0653924888	-0.9747067886	 0.4035388632	-0.031584
C	-1.4388842976	-1.4301192978	 1.8683067845	-0.26631
C	-2.8394517064	-0.8511647261	 1.6435465846	-0.040726
N	-2.6519352745	 0.5996503948	 1.403046361	-0.32761
C	-2.4726745961	-0.3631637977	 0.2863150273	-0.076404
H	 1.3622123283	 1.5685140512	 0.6490933396	 0.111432
H	-0.3496139963	 1.679872872	 1.1611085468	 0.147826
H	 0.7721230429	 0.6325733058	 2.0291971895	 0.122492
H	 0.0919057863	-0.6462627298	-2.0572558445	 0.100631
H	 1.1928990048	 0.7637556147	-1.6415189113	 0.107999
H	-1.0047790284	-1.8610247531	-0.233605716	 0.085058
H	-1.4174026596	-2.5158053771	 1.976865617	 0.108651
H	-0.883445654	-0.9714498507	 2.6887935664	 0.111966
H	-3.7839443964	-1.2304430536	 2.0127539233	 0.094355
H	-3.5798614646	 1.0071410638	 1.2895158962	 0.228192
H	-3.0716876632	-0.2752571463	-0.6124262522	 0.090705
