17
gdb 76944	2.28182	1.20249	0.97351	3.0791	73.53	-0.2507	-0.0564	0.1943	1251.6989	0.132411	-458.970501	-458.960999	-458.960055	-459.00511	33.9	
C	-0.0979962218	 1.574063382	 0.2811301665	-0.418256
C	 0.0271670454	 0.0817622023	 0.0565034987	-0.098692
C	 1.3139546223	-0.5904759685	-0.4046017631	-0.214086
C	 2.5803349079	 0.1614599109	-0.597567213	 0.171363
O	 3.3794183548	-0.1184988179	-1.4582900157	-0.266118
C	 0.782638141	-0.7625601904	 1.0452588888	 0.324782
O	 1.4523220416	-0.1320439555	 2.0765808085	-0.464633
C	 0.2859422134	-2.1115230748	 1.3981134293	 0.106393
O	 0.499655158	-2.5921013499	 2.4881022295	-0.283686
H	 0.7343308586	 1.9696622697	 0.8644908128	 0.151364
H	-0.1453765544	 2.1075456271	-0.6728688748	 0.133353
H	-1.0170832379	 1.7883180836	 0.8346226185	 0.13343
H	-0.8619213617	-0.3844969997	-0.3618160501	 0.108606
H	 1.2151029105	-1.4372814814	-1.0764783302	 0.113814
H	 2.758063892	 0.9979891892	 0.1049722342	 0.09811
H	 1.5131001336	-0.801223672	 2.7782228291	 0.303813
H	-0.2769439333	-2.6510504047	 0.6107906613	 0.100443
