17
gdb 16495	2.88101	2.5777	1.77007	2.195	67.1	-0.2165	0.07	0.2865	795.2825	0.142323	-363.778186	-363.771124	-363.77018	-363.80893	28.072	
C	-0.0817475958	 1.6058348796	-0.0859924878	-0.435729
C	 0.0716007039	 0.0994846846	 0.0312109207	 0.012216
N	 1.091323102	-0.6191689334	-0.8574641642	-0.186482
C	 2.4192880393	 0.0042977866	-0.4526628419	-0.182538
C	 2.2567757932	-0.6270792105	 0.9130792655	-0.158424
C	 1.2938657008	-1.6171134099	 0.3053762043	-0.076076
C	 0.7335163302	-0.5832373561	 1.2200930611	 0.349813
O	 0.235114457	-0.8010647069	 2.4873289905	-0.463847
H	 0.8005819275	 2.1527027442	 0.2564679984	 0.115857
H	-0.2806036526	 1.8882376765	-1.1254883626	 0.130754
H	-0.9323206682	 1.9387577584	 0.5182720872	 0.120928
H	-0.8893407361	-0.3847513982	-0.1749073237	 0.08603
H	 3.2126972953	-0.4608014445	-1.0447332872	 0.109406
H	 2.4819534704	 1.0914441266	-0.5610566833	 0.095912
H	 2.9687965667	-0.7964422459	 1.712395136	 0.088764
H	 1.2361165891	-2.6936456545	 0.2389767458	 0.104329
H	 0.4796435772	-0.0550409564	 3.0458885111	 0.289086
