24
gdb 10225	3.10496	0.97758	0.79539	1.4413	82.41	-0.2628	0.0764	0.3392	1532.415	0.221543	-351.41203	-351.401132	-351.400187	-351.448574	38.557	
C	-0.5724562314	 1.0861307494	 1.0464795292	-0.378817
C	-0.3909582574	-0.3802297419	 0.6439494482	-0.171324
C	 0.4945573442	-0.5530655701	-0.5961274344	-0.182085
C	 0.6848653453	-2.0165085247	-1.0482241845	 0.036558
C	-0.5786269982	-2.5621675875	-1.7523660128	-0.165863
C	-0.7430087678	-4.0859607591	-1.7202557518	-0.384586
C	 1.9333648923	-2.1030468506	-1.9302236837	-0.084642
O	 2.2043721121	-3.4576241683	-2.2655517212	-0.418758
H	 0.3915625671	 1.5606730834	 1.2618604071	 0.112183
H	-1.0499394769	 1.6607841947	 0.2448783767	 0.11304
H	-1.1967364475	 1.1808997796	 1.9405454001	 0.110595
H	 0.0532345327	-0.9373739692	 1.479285747	 0.095248
H	-1.3752290079	-0.8313594833	 0.4696064361	 0.100727
H	 0.0755561011	 0.0303727573	-1.4286497894	 0.090112
H	 1.4755842389	-0.1074517604	-0.3808981421	 0.084576
H	 0.8793867038	-2.6281292554	-0.1551299915	 0.074124
H	-1.4634940814	-2.1078788745	-1.2908604275	 0.089903
H	-0.5746027589	-2.2119557978	-2.7941035482	 0.087835
H	-1.667524799	-4.3868670574	-2.2247225707	 0.098592
H	 0.0982038323	-4.5826139936	-2.2050179725	 0.140621
H	-0.7977886885	-4.4494485286	-0.6875935628	 0.105303
H	 1.7742686399	-1.4969332086	-2.8386459363	 0.081042
H	 2.786937664	-1.6621949008	-1.390439501	 0.080575
H	 2.9622705911	-3.4739614425	-2.856838274	 0.28504
