20
gdb 117553	2.53446	0.96157	0.8228	3.3596	76.38	-0.2677	0.0297	0.2974	1498.1267	0.168163	-440.289398	-440.278591	-440.277647	-440.325951	37.509	
C	 0.0229809081	 1.3823564377	 0.0612400265	-0.231622
O	 0.0186599932	-0.0260833267	-0.0086551544	-0.233562
C	-1.2747018352	-0.5736475877	 0.0192654684	-0.060376
C	-1.144014443	-2.1026275556	 0.0583117555	-0.175384
C	-0.4543160263	-2.5302337223	 1.27928288	 0.283226
N	 0.0181034274	-2.9029317401	 2.2665332963	-0.335702
C	-2.534938622	-2.7961426976	-0.0195025704	 0.119059
C	-2.4299196213	-4.3128897887	-0.1625832375	-0.423232
O	-3.3488913072	-2.4158720282	 1.0766477355	-0.429945
H	 1.066489778	 1.7038565322	 0.046010054	 0.13512
H	-0.5025673055	 1.8340502143	-0.7946077994	 0.10665
H	-0.4498289875	 1.7435413857	 0.9869863873	 0.113584
H	-1.8433262912	-0.2284899555	 0.8942634756	 0.117573
H	-1.8448124576	-0.2906976233	-0.8818173789	 0.093517
H	-0.538945238	-2.4127791373	-0.8018341716	 0.131879
H	-3.0404410567	-2.3839821909	-0.9004056135	 0.099418
H	-1.898621364	-4.7509645081	 0.6894774206	 0.139788
H	-3.4319270745	-4.7466911541	-0.2062804386	 0.132997
H	-1.8907395524	-4.5886762021	-1.0745456221	 0.121906
H	-2.9828407344	-2.8208559715	 1.8730350767	 0.295107
