17
gdb 66801	3.32179	1.96283	1.96001	1.2768	73.17	-0.231	0.0603	0.2913	803.2692	0.137241	-384.569788	-384.563892	-384.562947	-384.59956	26.069	
O	-0.0918937754	 1.4072360945	 0.0104726607	-0.487868
C	 0.0239517607	 0.0305565214	 0.0020704563	 0.433746
C	 0.6873333022	-0.879607283	 1.1106422811	-0.163425
C	 1.3146048527	-1.7739715581	-0.0184160841	-0.056646
C	 0.0323249242	-2.6806385643	-0.0126420015	-0.05574
C	-0.5997824942	-1.7813359533	 1.1088952608	-0.050616
C	-1.2517656934	-0.869766924	 0.0078261467	-0.114195
C	-0.6182798508	-1.7693296228	-1.1137253643	-0.050618
C	 0.668711865	-0.8675223242	-1.1271547302	-0.163419
H	 0.7931520308	 1.7900054433	 0.0053349612	 0.27851
H	 1.2052837674	-0.5193107105	 1.9989617827	 0.05951
H	 2.3412911867	-2.1359299052	-0.0289114236	 0.059806
H	 0.033813869	-3.7691323036	-0.0185319994	 0.060288
H	-1.1082016136	-2.1481115299	 1.9985690174	 0.061906
H	-2.2698595373	-0.48568454	 0.0183732371	 0.067342
H	-1.1414699117	-2.1265211037	-1.9987225785	 0.061907
H	 1.1718412378	-0.4976104767	-2.0200279023	 0.059512
