18
gdb 41508	2.8965	1.63611	1.10396	3.382	78.64	-0.237	0.0171	0.2541	1083.0236	0.150381	-401.948044	-401.940683	-401.939739	-401.979923	28.661	
C	 0.0620757437	 1.5018447367	-0.1658986648	-0.11809
O	 1.4806641609	 1.4973309388	 0.1860349611	-0.261689
C	 1.4298639837	 0.162592998	 0.5187684304	 0.459309
N	 2.3550946517	-0.4959902502	 1.0374753378	-0.315678
C	 2.1428276908	-1.89448097	 1.3668923827	-0.213833
C	 0.7713180337	-2.4642874883	 1.6627299909	-0.026357
C	-0.4637288521	-1.9559331677	 1.6355722836	-0.086636
C	-0.9096730543	-0.5751482712	 1.2152128847	-0.277142
C	-0.0195045764	-0.0146796166	 0.1118448099	-0.159785
H	-0.5049961779	 2.1420279302	 0.5162323568	 0.118778
H	-0.0862728135	 1.8226210323	-1.1995522155	 0.119514
H	 2.6029406662	-2.5093270729	 0.5757362501	 0.122047
H	 2.7585632555	-2.1069647132	 2.2528474818	 0.125516
H	 0.8526803697	-3.5012161587	 1.9911679922	 0.089155
H	-1.2680821832	-2.615679667	 1.9540781878	 0.088508
H	-1.9517756512	-0.6165487743	 0.8768908254	 0.106365
H	-0.8983685891	 0.1069266529	 2.0769284374	 0.120978
H	-0.1233689282	-0.6120280089	-0.7982697924	 0.10904
