17
gdb 83041	2.30816	1.74248	1.38487	3.7963	74.68	-0.2372	-0.0552	0.182	991.0513	0.137073	-421.841658	-421.833995	-421.833051	-421.873697	29.897	
O	 0.3532553379	 1.1925751354	 0.2260523472	-0.419072
C	 0.0298316834	-0.1419954462	 0.002672224	 0.117144
C	-1.3695790742	-0.6661727537	 0.0346387659	-0.119258
C	-2.5261645332	 0.3043570945	 0.1910351977	-0.28656
C	-2.6076655787	 1.371178037	-0.8635178251	-0.058511
C	-1.912305977	 1.359434557	-2.0096665141	-0.199317
C	-0.9861285052	 0.2602264217	-2.3751179124	 0.416431
O	-0.5882579315	 0.1292267479	-3.5181123979	-0.346126
C	-0.5855203996	-0.6772871134	-1.2909976472	-0.223479
H	-0.2509830158	 1.7573461918	-0.2696876106	 0.289477
H	 0.8053571527	-0.7711485262	 0.426173163	 0.121114
H	-1.5202804849	-1.6315575676	 0.5078802282	 0.100108
H	-3.4788865566	-0.2433200102	 0.1867756852	 0.134318
H	-2.4739260328	 0.7833640845	 1.1788412217	 0.133337
H	-3.3128683726	 2.1779072154	-0.6725400647	 0.115212
H	-2.0486997835	 2.1250999281	-2.7669020293	 0.115795
H	-0.1894563184	-1.615172216	-1.6632414515	 0.109386
