21
gdb 103649	2.46991	1.36004	1.11227	2.5428	80.45	-0.2349	0.009	0.2439	1207.0375	0.181151	-424.2387	-424.22924	-424.228296	-424.272698	36.154	
C	 0.430862294	 1.5176532776	-0.2848463255	-0.393829
C	 0.0316563152	 0.0666498806	-0.0125233804	 0.077527
O	 0.4585656894	-0.7805967738	-1.0881115251	-0.329986
C	 1.2985365869	-1.8578158164	-0.6085407091	 0.300645
C	 0.6509133996	-3.1961973141	-0.9795783713	-0.416231
C	 2.6617882391	-1.6880717272	-1.3129842144	-0.067576
O	 2.5049866029	-1.6294448813	-2.7154662917	-0.423362
C	 1.3765624134	-1.6133839438	 0.8757029478	-0.133715
C	 0.6676501162	-0.5423555231	 1.2095442529	-0.101597
H	 1.5195062174	 1.6174056416	-0.3263062321	 0.121221
H	 0.0119393707	 1.850172484	-1.2389310868	 0.125207
H	 0.0495679064	 2.1756980422	 0.503274871	 0.113915
H	-1.0679369344	 0.0150446217	 0.0529193244	 0.083804
H	 0.6154543591	-3.2983414325	-2.0666882346	 0.135299
H	 1.2331754624	-4.0311950305	-0.5753651722	 0.109639
H	-0.3640370541	-3.2533348222	-0.5787469511	 0.115761
H	 3.1478297342	-0.7801402259	-0.9231871786	 0.081411
H	 3.3145335333	-2.5411998122	-1.0967578137	 0.100339
H	 1.8204705928	-0.9645448702	-2.8653686429	 0.288207
H	 1.9432611881	-2.2519041778	 1.5420891588	 0.106039
H	 0.5388026473	-0.1312204167	 2.2032659948	 0.107282
