23
gdb 69513	2.25044	1.62695	1.29783	0.4131	89.8	-0.1955	0.0882	0.2836	1147.6056	0.204075	-351.102804	-351.093331	-351.092387	-351.136034	37.528	
C	-0.0169151301	 1.5323855845	 0.0842807292	-0.492766
C	 0.010541129	 0.0312165943	 0.012668569	 0.3122
C	-0.9165254014	-0.837252364	 0.8228761425	-0.361074
C	 0.5742169034	-0.9673308056	 1.0112751973	-0.158576
C	 1.3149048885	-1.7169492694	-0.1342233218	 0.317357
C	 2.7185553448	-2.2190479515	 0.044092685	-0.493705
C	 0.3769283398	-2.2061516467	-1.2082368778	-0.412779
C	 0.7354465065	-0.7382753994	-1.1497330944	 0.248305
C	 1.3998304399	-0.0249816633	-2.2946455073	-0.494939
H	 0.9707179638	 1.9703321139	-0.0988077369	 0.115614
H	-0.709088211	 1.9610249007	-0.6514582321	 0.116623
H	-0.3444314322	 1.8636218051	 1.0751036245	 0.114827
H	-1.4145099491	-0.3066218771	 1.6305427918	 0.103893
H	-1.5283932958	-1.6253106032	 0.3984526036	 0.107031
H	 1.0508945374	-0.7624509094	 1.9632208705	 0.079214
H	 2.7450379057	-3.1017059237	 0.69594813	 0.118077
H	 3.1654261154	-2.5045977659	-0.9136683972	 0.114132
H	 3.3621887404	-1.4563605448	 0.4992739942	 0.113494
H	 0.8769505464	-2.7372225599	-2.0149920355	 0.101015
H	-0.6157104139	-2.5932899252	-1.0062908319	 0.104477
H	 0.6631294373	 0.3665105353	-3.0075815803	 0.117695
H	 2.0091501662	 0.8199134459	-1.9550871339	 0.115174
H	 2.0576289689	-0.7041005707	-2.8466722784	 0.114713
