23
gdb 117217	3.80276	0.73473	0.70862	2.3991	88.2	-0.2383	-0.0078	0.2305	1764.4842	0.203707	-388.314753	-388.304167	-388.303223	-388.351369	38.265	
C	 0.1504845169	 1.6072998092	-0.0272840975	-0.386656
C	-0.0303170176	 0.087598492	-0.00539304	-0.161701
C	 0.7260299657	-0.580472383	 1.1414155507	-0.288181
C	 0.5561132249	-2.0929773425	 1.2045874014	 0.378654
O	-0.1574813068	-2.6890737982	 0.4206133089	-0.335102
C	 1.3196226887	-2.7843210122	 2.2828568795	-0.123191
C	 0.8443293413	-4.1469159578	 2.7592434704	-0.285929
C	 2.1148597	-4.06708669	 1.9828956154	 0.017096
C	 2.2395934378	-4.6407003657	 0.5897422393	-0.417848
H	 1.205331638	 1.8833853819	-0.1386257761	 0.111263
H	-0.3995903833	 2.0588592668	-0.858567914	 0.114501
H	-0.2128196629	 2.0666094416	 0.899244038	 0.11157
H	-1.0925059418	-0.1667623911	 0.0739245422	 0.112678
H	 0.3050814617	-0.3465910543	-0.9534939417	 0.110013
H	 1.8032072367	-0.3643592597	 1.0848579286	 0.117696
H	 0.4095051699	-0.1696825113	 2.1121178615	 0.118364
H	 1.7665469381	-2.1260992834	 3.0207688939	 0.082219
H	 0.8782605023	-4.3457213697	 3.8245629078	 0.112875
H	-0.0292492596	-4.5274309848	 2.2400691238	 0.136752
H	 3.025122763	-4.1331868938	 2.5741235916	 0.091072
H	 1.3173971674	-4.5046328238	 0.022730368	 0.156572
H	 3.0562325407	-4.1636685628	 0.0366952004	 0.111919
H	 2.4581559688	-5.7129009572	 0.6445068779	 0.115363
