16
gdb 56068	3.89285	0.75814	0.71929	2.6979	72.6	-0.238	-0.0208	0.2172	1566.4355	0.123226	-471.251277	-471.241555	-471.240611	-471.287761	33.193	
N	-0.8287973589	 1.338607704	 0.3576960636	-0.513654
C	-0.2717936513	 0.1034513148	 0.496293672	 0.414427
O	 0.2719500348	-0.27178217	 1.5149740461	-0.354654
C	-0.3162422139	-0.7808056305	-0.766153701	-0.26694
N	-0.8220944903	-2.0982063158	-0.4486357349	-0.17926
C	-0.0058769258	-2.8895162631	 0.1050687742	 0.126367
N	-0.3356281639	-4.1711445288	 0.5413404861	-0.323708
C	-1.5613062308	-4.8185949675	 0.527070234	 0.166295
O	-2.5970461199	-4.395287548	 0.0909933579	-0.261348
H	-0.8726717368	 1.9279366361	 1.1741281097	 0.263264
H	-1.4287738465	 1.558653977	-0.4179759231	 0.263915
H	-0.9463953553	-0.3348613221	-1.5413409391	 0.104351
H	 0.7169123261	-0.7962203087	-1.15015327	 0.118969
H	 1.0470094965	-2.6563642335	 0.3024401001	 0.105905
H	 0.4192690653	-4.6892728826	 0.964107938	 0.257898
H	-1.4578851893	-5.8236427011	 0.9867690364	 0.078173
