18
gdb 77774	2.44247	1.64899	1.36809	4.4499	78.22	-0.2449	-0.05	0.1949	1033.1107	0.147193	-401.969587	-401.961263	-401.960319	-402.002078	31.868	
C	-0.0779100294	 1.528074486	-0.0962086316	-0.427213
C	 0.0143175745	 0.0338214368	 0.0827621882	-0.029501
N	 1.2775715118	-0.7181846594	-0.122798052	-0.173712
C	 2.4748984416	 0.0898414458	-0.0675341364	 0.357307
O	 3.1131191029	 0.4164650134	-1.0349490099	-0.331411
C	 2.7075264717	 0.4457186381	 1.3589397349	-0.185749
C	 1.6507257575	 0.0528272925	 2.0808165407	-0.140959
C	 0.686832027	-0.693577557	 1.223880675	 0.259265
C	 0.0883966054	-1.9710034445	 1.7708686838	-0.47716
H	 0.6956887366	 2.0686957999	 0.4518190302	 0.134594
H	 0.0159565749	 1.7837576164	-1.1567196497	 0.14757
H	-1.0553162973	 1.8792666429	 0.2492643586	 0.124872
H	-0.8358443684	-0.5022384579	-0.3388728119	 0.10391
H	 3.5636339076	 1.0214669636	 1.6839009446	 0.126333
H	 1.5022707694	 0.1953915761	 3.1449625789	 0.120406
H	-0.5423454604	-1.758010498	 2.6409318487	 0.122507
H	-0.5252008852	-2.4656254861	 1.0143127305	 0.13542
H	 0.8734960697	-2.6677281884	 2.0810450575	 0.133523
