17
gdb 65005	1.9864	1.50074	1.09217	3.5294	77.8	-0.2642	0.0136	0.2778	1166.7707	0.133963	-380.820053	-380.810661	-380.809717	-380.854397	34.317	
C	-0.1255939291	 1.5091853437	-0.3938720437	-0.483639
C	-0.0154272474	 0.0311819355	-0.0941035732	 0.326562
C	 0.9021916021	-0.8203437778	-0.8908002353	-0.277182
N	 1.2002639025	-0.5078760992	 0.5208728031	-0.345467
C	-1.2896551844	-0.6332915686	 0.4723652661	-0.368516
C	-1.7556694988	 0.0060560235	 1.7046516408	 0.335567
C	-2.1166453381	 0.5358099439	 2.7191963648	-0.426738
C	-2.3535450306	-0.657432049	-0.5473365029	 0.29702
N	-3.1655057976	-0.6756177517	-1.3684410787	-0.326552
H	 0.809165318	 1.8832751043	-0.8215550723	 0.118284
H	-0.9280408855	 1.7056818972	-1.1122266436	 0.150235
H	-0.3427285137	 2.0748007467	 0.5174600163	 0.142392
H	 0.6615584409	-1.8616122717	-1.0877665231	 0.127069
H	 1.4818645938	-0.3368211656	-1.6721819184	 0.121463
H	 1.911703414	 0.2157330311	 0.5856297262	 0.236366
H	-1.025604294	-1.6737939127	 0.6980545905	 0.16374
H	-2.443919362	 0.9967520504	 3.6186577834	 0.209397
