21
gdb 63085	2.78012	1.37471	1.25675	1.2696	83.07	-0.235	0.0324	0.2675	1120.0128	0.183153	-387.093661	-387.085043	-387.084099	-387.126245	34.329	
C	 0.1198127158	 1.6126741449	 0.0738095229	-0.465283
C	 0.0673636301	 0.1025042828	 0.04010122	 0.39004
O	-1.198294075	-0.4003711897	-0.3317782049	-0.466919
C	 1.2505525594	-0.7515464237	-0.3681426727	-0.115584
C	 2.6213382706	-0.174643935	-0.6832689893	-0.283912
C	 3.3390551008	 0.4268072303	 0.4948463569	-0.049034
C	 2.8891159243	 0.4153105018	 1.7480566789	-0.048303
C	 1.5902417227	-0.2015712029	 2.191487714	-0.28654
C	 0.7365167794	-0.7657053708	 1.0679200832	-0.082086
H	 1.0860454974	 1.98672792	 0.4169162419	 0.13246
H	-0.0619898219	 2.0255919013	-0.9269789111	 0.102549
H	-0.6610198022	 1.9988384171	 0.7370865052	 0.123429
H	-1.350474434	-0.1543054958	-1.2513535521	 0.274263
H	 0.9717554801	-1.6147094126	-0.9648786795	 0.081771
H	 3.2512688902	-0.9747584962	-1.0971737143	 0.111617
H	 2.5538575022	 0.5730826301	-1.4880519781	 0.102678
H	 4.2990008675	 0.8900589877	 0.2777886073	 0.082305
H	 3.4896675274	 0.8689874371	 2.5333844778	 0.082728
H	 1.8184178763	-1.0117003625	 2.898169787	 0.112333
H	 1.0190706589	 0.5317426112	 2.7798864711	 0.108567
H	 0.1435390498	-1.632978575	 1.3390736357	 0.09292
