17
gdb 68092	3.24033	1.53655	1.41892	2.7619	71.21	-0.2289	-0.0108	0.2181	959.4384	0.134884	-421.802171	-421.794393	-421.793449	-421.833701	31.892	
O	-0.07703998	 1.3870915336	 0.0103570284	-0.505164
C	 0.0207076491	-0.0110350332	-0.003420196	 0.337775
C	-1.3467310218	-0.7495172179	-0.015308924	-0.243524
C	-0.6537209971	-2.1405459826	-0.027024733	 0.337773
O	-1.538507261	-3.2275000467	-0.0408497386	-0.505165
C	 0.2451348535	-1.9375444195	-1.270639391	-0.146811
C	 0.6468297888	-0.6693225741	-1.2565448771	-0.14689
C	 0.2370097536	-1.9626491725	 1.2262425761	-0.146874
C	 0.6386527356	-0.6944121232	 1.2403194561	-0.146792
H	 0.8122487836	 1.755077621	 0.0151358038	 0.278262
H	-1.9352430503	-0.5731562306	 0.8873385288	 0.106272
H	-1.929335274	-0.5549826815	-0.9180552667	 0.106264
H	-1.0231866567	-4.0403239294	-0.0465854451	 0.278262
H	 0.4956594923	-2.7274576547	-1.9679810846	 0.099161
H	 1.310864772	-0.1537749409	-1.939400497	 0.099142
H	 0.4830173786	-2.7664390237	 1.9091917778	 0.099146
H	 1.298096694	-0.192673144	 1.9377421719	 0.099165
