18
gdb 52146	5.93805	0.6839	0.67784	1.4463	73.99	-0.235	-0.0306	0.2043	1635.5461	0.146225	-438.99784	-438.989337	-438.988392	-439.032489	30.881	
O	-0.2805699049	-0.0542322103	 0.1230617173	-0.234434
C	 0.0161401756	 1.1104159586	 0.0860177147	 0.150444
C	 1.3524346422	 1.6424406714	-0.4076892036	-0.228896
N	 1.1833746462	 2.9374530538	-1.0488109678	-0.333241
C	 2.3770271818	 3.7218368706	-1.1852527904	 0.090778
C	 3.4502077876	 3.5950662947	-2.3377464491	 0.021277
C	 2.4432829709	 4.1993322317	-3.3434778812	-0.237575
C	 2.3939662564	 5.021771207	-2.0302727478	 0.006306
O	 3.8713901163	 4.9674731314	-1.9865518092	-0.297625
H	-0.6776639071	 1.9125512293	 0.425325674	 0.086974
H	 1.9770548363	 1.7863067232	 0.4865954279	 0.137448
H	 1.8408902048	 0.8661675999	-1.0166139742	 0.116277
H	 0.6911526673	 2.8402196826	-1.9289822632	 0.227282
H	 2.8532797385	 3.8545547843	-0.2103809831	 0.096569
H	 4.2365766135	 2.8576048217	-2.5018844214	 0.094733
H	 2.8968281741	 4.7176255378	-4.188860905	 0.116311
H	 1.5695577111	 3.6129884129	-3.6421441875	 0.089117
H	 1.9175854993	 5.9821458095	-1.8306764603	 0.098254
