19
gdb 29509	2.97206	1.54912	1.04459	2.1593	83.56	-0.1692	0.0514	0.2206	1153.0953	0.162445	-382.100929	-382.092708	-382.091764	-382.133613	31.474	
C	 0.0218666395	 1.5342055388	 0.0158944295	-0.508742
C	-0.0008480007	 0.0364842075	 0.0264986162	 0.134901
C	-0.013875531	-0.8024490754	-1.0755889293	-0.165472
N	-0.0284649486	-2.1188249568	-0.6560655142	-0.388098
C	-0.0379440482	-2.1315197903	 0.7134762448	 0.289648
C	-0.0117660137	-0.8368274066	 1.1502691902	 0.205869
N	-0.0244658402	-0.7257479108	 2.570915677	-0.415446
C	-0.2449518629	-2.1296293048	 3.0309900791	-0.15542
C	 0.0404551884	-3.1136181654	 1.8373208216	-0.358227
H	 0.9618901577	 1.9373652636	 0.4137235186	 0.116056
H	-0.0948961067	 1.9234996327	-0.9999390098	 0.115075
H	-0.7850012967	 1.9507595193	 0.6296951111	 0.128454
H	-0.0342181686	-0.5590305619	-2.1266468084	 0.108845
H	-0.1076028318	-2.9138356049	-1.2643347914	 0.254865
H	 0.8607468396	-0.3711423678	 2.9222634482	 0.219992
H	 0.3630430218	-2.3457938824	 3.912994729	 0.099192
H	-1.2969167278	-2.2288570595	 3.3203384681	 0.114483
H	-0.7067392779	-3.9143555965	 1.8154102256	 0.104149
H	 1.026883968	-3.5965350388	 1.911212204	 0.099876
