25
gdb 122997	4.35003	0.59661	0.57303	0.9175	91.	-0.2477	0.0855	0.3332	2089.2997	0.22684	-389.480127	-389.469072	-389.468128	-389.517162	40.061	
C	-0.173256574	 1.5555348617	 0.0331628416	-0.383917
C	-0.0833780476	 0.0498444001	 0.2178412756	-0.027067
O	-1.3445045392	-0.5159609049	-0.0674602699	-0.241573
C	-1.3746325051	-1.9198296193	 0.0773941667	-0.050294
C	-2.7768452749	-2.4068708934	-0.2783737165	-0.279509
C	-2.9814158802	-3.9013299395	-0.0831701652	 0.384844
C	-2.1617732075	-4.8055141321	-0.9870901235	-0.461849
C	-3.2792368043	-4.3909462126	 1.3165639095	-0.29507
C	-4.373441654	-4.3649692548	 0.2749329832	-0.314187
H	 0.7914845318	 2.0255778767	 0.2465155742	 0.112419
H	-0.459359354	 1.7992829216	-0.99400247	 0.125478
H	-0.9234784148	 1.9800946258	 0.7063697176	 0.125264
H	 0.685868045	-0.3761655747	-0.4495659081	 0.082126
H	 0.2203584551	-0.1952098407	 1.2504284401	 0.082131
H	-0.6172242895	-2.3838088997	-0.5764598354	 0.082786
H	-1.1235995228	-2.207042213	 1.1132051217	 0.084406
H	-3.4894147698	-1.8519006291	 0.3423583283	 0.100557
H	-2.9890018	-2.1310664222	-1.3193869471	 0.100751
H	-1.0856636552	-4.6896930097	-0.816855855	 0.116569
H	-2.4077957552	-5.8582060314	-0.8156844943	 0.111353
H	-2.3558255098	-4.5866169837	-2.0440423061	 0.114458
H	-2.8842060443	-5.3550212625	 1.6195362853	 0.106442
H	-3.3236592667	-3.6607624223	 2.118263504	 0.108568
H	-5.1549334812	-3.6187935324	 0.3739497853	 0.108776
H	-4.7147976721	-5.3123224379	-0.1295707423	 0.106539
