17
gdb 34523	4.19914	1.21104	1.09501	4.3076	80.31	-0.2326	-0.0465	0.1861	1107.9491	0.13932	-380.858315	-380.851337	-380.850392	-380.889671	27.857	
N	 0.0640601989	-1.1596685705	 0.03034297	-0.337304
C	-0.0196076962	-0.0036110557	 0.0207541435	 0.206025
C	-0.0575752032	 1.418392354	 0.0070196115	 0.143552
C	-1.1987519262	 2.1254879079	 0.0315341176	-0.130748
C	-1.0800145963	 3.6294449188	 0.0126074518	-0.075599
C	-0.0095580236	 3.9899327664	-1.0544110231	-0.175196
N	 1.0621304987	 3.6509354615	-0.0473846217	-0.1155
C	 0.0480633722	 4.0113467041	 1.0105857536	-0.175195
C	 1.2654167643	 2.1950537946	-0.0379841742	-0.264353
H	-2.169588233	 1.6435980477	 0.0636428162	 0.120831
H	-2.0399385677	 4.1472241742	 0.0340198561	 0.076084
H	 0.0100489564	 3.4085344549	-1.9792883724	 0.114353
H	 0.0328023557	 5.058756364	-1.2813410615	 0.114861
H	 0.1023960255	 5.0846196269	 1.212597434	 0.114862
H	 0.119540869	 3.4492304319	 1.9447817803	 0.114353
H	 1.8843956747	 1.9292789637	 0.8267858671	 0.134486
H	 1.8352901609	 1.9111086255	-0.9302948587	 0.134488
