19
gdb 109350	3.12317	1.32108	1.0326	4.1682	76.93	-0.2417	-0.0005	0.2412	1178.0815	0.161157	-419.190527	-419.182496	-419.181552	-419.22308	31.107	
O	 0.1276792232	 1.3600010537	-0.1079487707	-0.426546
C	 0.0137213045	-0.0299433437	 0.0003696851	-0.098907
C	-1.4242751633	-0.4825306626	 0.102210876	 0.302297
N	-2.3304199879	 0.4058150669	 0.1528999969	-0.281142
C	-3.7308080931	 0.0042543038	 0.2050499016	-0.179635
C	-3.9666555246	-1.3573735717	 0.8773106276	-0.240002
C	-2.9287208283	-2.3787973901	 0.4692185871	 0.005963
C	-2.400457997	-2.4940853279	-0.9093461261	-0.255907
N	-1.5649543484	-1.8985678811	 0.1661321184	-0.162193
H	-0.7829175298	 1.6875022568	-0.0218382894	 0.286408
H	 0.469217118	-0.5335015112	-0.8678834617	 0.107088
H	 0.5477173343	-0.413001199	 0.8854271487	 0.112497
H	-4.2917099183	 0.7825503056	 0.7319957895	 0.116343
H	-4.1215269515	-0.001496887	-0.8211395067	 0.118401
H	-3.9051070328	-1.2341410117	 1.9651404822	 0.119315
H	-4.9757936758	-1.7233319497	 0.6579447634	 0.112372
H	-2.9135782635	-3.2821481457	 1.0755327054	 0.103245
H	-2.0439425779	-3.450187298	-1.280379389	 0.128872
H	-2.780066318	-1.8208705475	-1.6727532984	 0.131528
