18
gdb 6955	2.60163	2.24607	1.65898	4.1402	66.81	-0.2601	0.0169	0.277	871.0595	0.153994	-384.999675	-384.991669	-384.990725	-385.031656	30.027	
C	-0.3146244575	 1.6130960104	 0.0257656401	-0.43261
C	 0.0579810872	 0.1299111135	-0.0366061865	 0.13223
C	-1.211924051	-0.7472592794	-0.0065950136	-0.426879
C	 0.9864810988	-0.2444991245	-1.2069974088	-0.265646
C	 1.8527445726	-1.3635183355	-0.6127816144	-0.091213
O	 1.9160803444	-1.097261925	 0.7987494123	-0.224147
C	 0.9155422396	-0.257867033	 1.1787470821	 0.442061
O	 0.763702759	 0.0816469985	 2.3170798892	-0.354824
H	 0.5753206377	 2.2490160289	-0.0113246237	 0.119477
H	-0.9631826674	 1.8844588736	-0.8135496645	 0.112797
H	-0.8417484145	 1.8294875795	 0.9587210614	 0.141205
H	-1.8571678398	-0.5013932226	-0.8561220234	 0.119293
H	-0.9740482978	-1.814629753	-0.0605692311	 0.121134
H	-1.7727549692	-0.5748675925	 0.9160354586	 0.141238
H	 0.4494447862	-0.566142672	-2.1026680095	 0.110232
H	 1.6138444732	 0.610544612	-1.4782039921	 0.113096
H	 1.4121014758	-2.3563260888	-0.7604428183	 0.117391
H	 2.8755301428	-1.3783892001	-0.9949796076	 0.125165
