17
gdb 118609	2.36	0.92853	0.7293	5.1592	71.44	-0.2515	-0.0179	0.2336	1540.084	0.133738	-455.153459	-455.143281	-455.142337	-455.190621	33.832	
C	 0.1491394686	 0.9849930591	-0.5751509195	-0.322529
N	-1.1881515969	 0.4193459424	-0.4520496051	-0.275258
C	-1.3821330169	-0.4609463598	 0.6815780867	-0.189404
C	-1.0300728387	-1.9138625407	 0.302782267	-0.024478
O	-1.1316117733	-2.7072273434	 1.4894336843	-0.181435
C	-0.2833137172	-3.758585908	 1.619940171	 0.177419
O	-0.3010009587	-4.4721980657	 2.5718271442	-0.252825
C	-1.9307229117	-2.4390891549	-0.7356994551	 0.300288
N	-2.6407092685	-2.8709745791	-1.5375308247	-0.30842
H	 0.1752017354	 1.6690925128	-1.4270999098	 0.134857
H	 0.4877818058	 1.5305006881	 0.3224150936	 0.107204
H	 0.8798603711	 0.1933540591	-0.7760149668	 0.124929
H	-1.8847844259	 1.1512311707	-0.4546784543	 0.237378
H	-0.7672503973	-0.2039400309	 1.5597898772	 0.109075
H	-2.4286373876	-0.4400245134	 0.9962666753	 0.136102
H	-0.0043307665	-1.9501510192	-0.0861035246	 0.132944
H	 0.4111982482	-3.8592412571	 0.7642214306	 0.094153
