17
gdb 17860	4.43914	1.67154	1.48285	2.7041	69.	-0.2341	0.0778	0.312	897.3192	0.141895	-363.755734	-363.748669	-363.747724	-363.786797	27.598	
C	-0.0522893269	 1.5606519165	-0.1375168648	-0.392608
C	-0.0298950201	 0.0588052267	 0.0136902674	-0.121674
N	 1.3041977148	-0.6004090763	-0.1191946516	-0.412661
C	 0.614173878	-0.6336342174	 1.1405097798	 0.473226
C	 1.1555299965	-0.301162293	 2.5418185103	-0.045357
C	-0.2049561513	-0.7456363532	 3.1344342155	-0.217217
C	 0.2429804946	-1.7904333879	 2.0815664361	-0.064182
O	 1.6147206804	-1.7128558495	 2.6440865807	-0.312489
H	 0.8326297879	 2.0043046327	 0.3260392306	 0.127608
H	-0.0583515164	 1.8456368375	-1.1948784657	 0.123583
H	-0.9443544207	 1.9887678873	 0.3328497503	 0.11583
H	-0.8738300352	-0.4615698704	-0.440019155	 0.085935
H	 1.2374910342	-1.4894877504	-0.6084308207	 0.233751
H	 1.8429128866	 0.4783717801	 2.8670371377	 0.102197
H	-0.1518317631	-1.0979651767	 4.1646348355	 0.110258
H	-1.0894640019	-0.1392336258	 2.9236378254	 0.098931
H	-0.1605018972	-2.7797720402	 1.8622217687	 0.09487
