18
gdb 55118	2.49532	1.46467	1.16262	3.0509	72.56	-0.2174	-0.0098	0.2076	1111.4161	0.145477	-439.04308	-439.03402	-439.033076	-439.077215	33.604	
C	-0.0383393889	 1.4749950771	-0.0068900154	-0.481816
C	 0.1287382196	-0.0107730026	 0.2738235548	 0.379017
O	 1.1922593744	-0.5014374918	 0.5704228268	-0.297764
C	-1.1652248615	-0.8036121258	 0.2256663228	-0.147893
N	-1.0760125775	-2.2956265578	 0.3003046835	-0.313787
C	-1.9899799149	-2.2937750617	 1.4632092274	-0.073776
C	-1.2912500098	-1.5920856234	 2.6017437026	-0.338405
C	-1.989620099	-0.7804915475	 1.5416105387	 0.346876
O	-2.9876897827	 0.1407602341	 1.7854730706	-0.458091
H	 0.8484737204	 2.0201773693	 0.3186869454	 0.141066
H	-0.1773000662	 1.6294182961	-1.0839362116	 0.142994
H	-0.9346851586	 1.8689844386	 0.4850972658	 0.13296
H	-1.8019522665	-0.4561819742	-0.595956362	 0.090504
H	-1.5242312092	-2.7056840607	-0.5127268039	 0.22447
H	-2.7723593585	-3.0298098865	 1.5971749248	 0.105195
H	-1.8323357647	-1.6240556739	 3.5431549154	 0.113209
H	-0.2074356936	-1.6252397361	 2.6692091154	 0.143051
H	-2.7206429429	 0.6941407267	 2.527449039	 0.292188
