16
gdb 102950	2.25183	1.1036	0.93781	5.9244	66.93	-0.2858	-0.0021	0.2837	1303.3296	0.121562	-475.033708	-475.023957	-475.023013	-475.069578	32.518	
C	 0.3449951624	 0.8453033131	 0.2987420144	-0.252604
O	-0.0599980798	-0.4242533975	-0.1957225415	-0.237083
C	-1.4317963691	-0.6955490529	-0.0773288245	-0.01313
C	-1.6833347465	-2.0472335975	-0.7561123955	-0.118325
O	-1.0223729523	-3.0989332747	-0.0727554763	-0.174859
C	 0.2423047453	-3.4025313318	-0.4641196475	 0.187397
O	 0.9023361169	-4.2146466615	 0.1033413374	-0.263237
C	-1.8836432611	-0.7054796272	 1.3329201747	 0.278162
N	-2.2394500306	-0.6735183928	 2.4311678116	-0.31145
H	 1.4171301471	 0.9209294663	 0.1126943619	 0.148061
H	-0.1739437055	 1.658700196	-0.2278794946	 0.118559
H	 0.1550376948	 0.9358827894	 1.3751038687	 0.147397
H	-2.0321834023	 0.0658199195	-0.6046882783	 0.120874
H	-2.7500904258	-2.2800428846	-0.7466446171	 0.147722
H	-1.3399023986	-1.9709546829	-1.7945082059	 0.131591
H	 0.5607792652	-2.8345591709	-1.3563307174	 0.090927
