16
gdb 15822	3.86375	1.1335	0.94142	1.2842	61.64	-0.2527	-0.0286	0.2241	1202.8026	0.128035	-420.85882	-420.850115	-420.849171	-420.89312	29.888	
O	 0.1419076744	 0.6262743747	 1.2811862444	-0.424429
C	-0.0219684934	-0.0412477176	 0.0390593714	-0.078101
C	-1.2652678582	-0.9093509935	 0.1601085212	-0.293645
C	-1.558339095	-1.6909523409	-1.1021907583	 0.349511
O	-0.9139224139	-1.5708951763	-2.1216763148	-0.313203
C	-2.7243093722	-2.6443528462	-1.0787201472	-0.005007
C	-2.8416208987	-3.6907569426	-0.0412463387	-0.177168
O	-3.6627395229	-2.5340077084	-0.0071813182	-0.21457
H	 0.9113797604	 1.1986660025	 1.2123665518	 0.288067
H	-0.1464617706	 0.6662137695	-0.7926053364	 0.104667
H	 0.8469239564	-0.6704166654	-0.2031973103	 0.099517
H	-1.1647218198	-1.5924220282	 1.0127294467	 0.133314
H	-2.1426424996	-0.2946306765	 0.3969399385	 0.150708
H	-3.1446790222	-2.8456443803	-2.062734385	 0.119671
H	-3.3432123315	-4.6221701939	-0.298188274	 0.133209
H	-2.0916908433	-3.7625009269	 0.744384439	 0.127459
