12
gdb 21353	5.51442	2.2856	1.61586	5.3453	61.48	-0.2177	-0.0046	0.2131	709.6982	0.088859	-373.724017	-373.718559	-373.717615	-373.75328	21.498	
N	 0.0329576979	 1.3233457148	 0.0092638956	-0.177447
C	 1.2823110976	 1.8921852416	 0.0001758434	-0.199583
C	 2.1302351979	 0.8087109398	-0.0139393899	 0.279154
N	 3.4148896196	 0.3070185667	-0.0290276836	-0.435052
C	 3.2732804303	-1.0728108185	-0.0350974572	 0.013628
N	 2.0394962198	-1.503211875	-0.0254411925	-0.330178
C	 1.2961680921	-0.3372616624	-0.011967578	 0.375799
N	-0.0000842842	-0.0271211635	 0.0023149976	-0.335926
H	-0.8421536249	 1.8189502448	 0.0203947524	 0.276664
H	 1.4166857801	 2.9605470836	 0.004605307	 0.132968
H	 4.283897516	 0.8104379485	-0.0352201554	 0.266649
H	 4.1477931476	-1.7089094304	-0.0470058094	 0.133326
