17
gdb 84462	4.08647	1.19203	1.0449	3.6721	79.35	-0.2563	-0.0175	0.2388	1154.8932	0.137228	-380.868839	-380.860968	-380.860024	-380.901064	30.344	
C	-0.0781127456	 1.5851826738	 0.0528343703	-0.396844
C	 0.0241052601	 0.053470578	-0.0047674446	-0.040004
C	 0.8135358701	-0.4676762012	-1.1939839362	-0.07434
C	 1.8001714077	-1.2958750899	-0.8518227021	-0.142237
C	 1.868252263	-1.4267411858	 0.6383047762	 0.199987
N	 2.1704866178	-0.1211502867	 1.3110443838	-0.353688
C	 0.7729576351	-0.5568326567	 1.1832957299	-0.106227
C	 2.2767593464	-2.6470312326	 1.2728472249	 0.188354
N	 2.6229354858	-3.6275203745	 1.780748481	-0.340913
H	 0.9168681737	 2.0268167714	 0.1464484056	 0.14517
H	-0.5507750321	 1.977340307	-0.8528046276	 0.118114
H	-0.6810640638	 1.9032203849	 0.9091253101	 0.117904
H	-0.9927511548	-0.3633015197	-0.0316557888	 0.094193
H	 0.5942337027	-0.1493405282	-2.2071914203	 0.109512
H	 2.49612976	-1.791779939	-1.5152971605	 0.120735
H	 2.4865745825	-0.3058093377	 2.2627029755	 0.247378
H	 0.2321347415	-0.8401590131	 2.0795649426	 0.112908
