19
gdb 62966	2.1139	1.8532	1.42592	1.2047	75.1	-0.2445	0.0688	0.3132	1016.2807	0.157067	-422.967608	-422.959062	-422.958118	-423.000079	33.801	
C	-0.0490012324	 1.5519793769	-0.082347527	-0.458407
C	 0.0060013827	 0.0371442949	 0.0101949941	 0.267356
O	-1.2737901751	-0.5609430387	-0.0942259005	-0.471208
C	 1.0635256571	-0.6709182899	-0.8916541787	-0.027023
O	 2.3518941749	-0.1881277896	-0.5029696498	-0.250623
C	 1.7448625776	-1.23798898	 0.2786094115	-0.091212
C	 0.7565823139	-0.5900635391	 1.2219989096	 0.361287
C	 0.9819029399	-0.0370474162	 2.5960474943	-0.334189
C	 0.08731297	-1.2385880488	 2.3929284292	-0.316644
H	 0.9585561465	 1.9695964103	-0.0286801416	 0.144598
H	-0.5009830877	 1.8682992609	-1.0313715989	 0.10244
H	-0.6502739334	 1.9666224576	 0.7332063147	 0.120828
H	-1.7303908252	-0.150296994	-0.83685189	 0.277274
H	 0.9365982972	-1.0543683291	-1.8986074116	 0.099886
H	 2.3074319192	-2.157116453	 0.396036675	 0.104251
H	 1.9550349264	-0.1841852461	 3.0531265737	 0.11546
H	 0.5128414123	 0.9097740385	 2.8446492328	 0.114763
H	-0.9852433568	-1.1081272756	 2.4802491213	 0.129321
H	 0.450089713	-2.2101346391	 2.713421222	 0.111841
