23
gdb 101238	3.11224	0.91273	0.82073	1.3209	82.9	-0.2406	0.0857	0.3263	1541.9238	0.20322	-425.409839	-425.399251	-425.398307	-425.44627	38.023	
C	-0.0361449849	 1.4204982308	-0.1544722088	-0.232353
O	-0.0067690202	 0.0280933264	 0.0527526686	-0.25141
C	-1.2823516799	-0.5870798204	 0.1604844862	 0.124047
C	-2.0202054787	-0.6911393149	-1.1745072549	-0.415554
C	-1.0080480706	-1.9648352029	 0.7513774047	 0.152457
C	-0.5932671966	-2.0492009795	 2.2312552816	-0.321473
C	-1.83876423	-2.9507043235	 2.385081059	 0.173847
C	-2.9145206952	-2.5544447608	 3.3750524209	-0.397518
O	-2.2282058954	-2.6962964713	 1.0082297517	-0.31918
H	 0.9973333924	 1.7739496124	-0.111670203	 0.125915
H	-0.4565349759	 1.6942038894	-1.1328249013	 0.10846
H	-0.618546256	 1.9355778608	 0.6260006165	 0.101421
H	-1.9046481507	-0.0237524711	 0.8775208108	 0.058468
H	-2.3051524765	 0.2913556162	-1.5609810858	 0.111528
H	-1.3871384018	-1.1857685942	-1.918482869	 0.119765
H	-2.9304046246	-1.2816466873	-1.039711658	 0.141099
H	-0.3464243106	-2.518355346	 0.0701029053	 0.075864
H	 0.3723216476	-2.5095472777	 2.4416059353	 0.108286
H	-0.6617413808	-1.0968839686	 2.7629245788	 0.105271
H	-1.5849565042	-4.0128094374	 2.5107690665	 0.072757
H	-3.1638475096	-1.4934169937	 3.2754869722	 0.11655
H	-3.8249027672	-3.1385357894	 3.2061890979	 0.126285
H	-2.5759196007	-2.7389259773	 4.4007364347	 0.115468
