19
gdb 100591	4.12391	0.8291	0.70908	3.6814	74.9	-0.2495	-0.0239	0.2257	1576.7758	0.158415	-456.380835	-456.370878	-456.369934	-456.416448	35.529	
C	 0.1294233473	 1.4733277028	 0.4089543614	-0.388051
C	 0.225432351	-0.0516706045	 0.331003267	-0.189334
C	 0.4309226233	-0.5619653424	-1.0933775411	 0.058326
O	 1.6539665131	-0.0927649662	-1.6753789984	-0.440316
C	 0.3233392549	-2.0904005623	-1.1943280996	 0.32622
N	-0.4282942463	-2.7469304483	-0.412881553	-0.507397
N	 1.0969284561	-2.5998539569	-2.2538457988	-0.334477
C	 1.1714510336	-3.9040662544	-2.6651279965	 0.163483
O	 0.5711502762	-4.8362043089	-2.1768935	-0.301455
H	 1.0161873385	 1.9512993864	-0.0177496717	 0.119166
H	-0.7417214761	 1.8410240591	-0.1442576033	 0.119898
H	 0.0294605339	 1.8048540287	 1.4463341089	 0.117582
H	 1.055308594	-0.4182042129	 0.9526551103	 0.091617
H	-0.673057202	-0.5289175904	 0.7289541514	 0.145352
H	-0.350956868	-0.1458309996	-1.7430907598	 0.119924
H	 2.3496740783	-0.202860373	-1.016265265	 0.287706
H	-0.4192541757	-3.7390476106	-0.6529588284	 0.253022
H	 1.6707250742	-1.9087020673	-2.7200341971	 0.264842
H	 1.8623548636	-4.0203072094	-3.5223125763	 0.093893
