22
gdb 116775	2.96302	0.76863	0.64973	2.0227	84.08	-0.2434	0.0273	0.2707	1803.6409	0.190375	-441.469195	-441.457618	-441.456674	-441.508142	38.898	
C	 0.0597558404	 1.2530696182	-0.2613338757	-0.24894
O	 0.0710621161	-0.145159628	-0.004875728	-0.192981
C	-1.1266678247	-0.7582714623	-0.0802959653	 0.138506
N	-1.2302778272	-1.9900330487	 0.1539165351	-0.218482
C	-2.5442140999	-2.5786628893	-0.0039544696	-0.168296
C	-2.6414452828	-3.3544774218	-1.3227460202	 0.14468
C	-3.9035647349	-4.2171776476	-1.3864739108	-0.400939
O	-2.6253710467	-2.3798178502	-2.3597992857	-0.246654
C	-2.144418554	-2.8467915296	-3.5975188922	-0.236229
H	 1.0937887545	 1.5897379674	-0.1771592412	 0.144043
H	-0.3081745496	 1.4744099534	-1.2706777804	 0.128146
H	-0.5527182919	 1.7924723363	 0.4717590808	 0.12551
H	-1.9631427337	-0.0963659686	-0.3507718317	 0.078033
H	-2.719235662	-3.2732225607	 0.8254338658	 0.099755
H	-3.3572040658	-1.83275645	 0.0057540657	 0.088416
H	-1.7475786515	-3.991470289	-1.4084060496	 0.077707
H	-3.9858127652	-4.7280840993	-2.3500454714	 0.116717
H	-3.8888059384	-4.9827598548	-0.6042394668	 0.115974
H	-4.7973352897	-3.5992578794	-1.252679942	 0.120757
H	-1.1175555316	-3.2345120453	-3.514132347	 0.110529
H	-2.7769483378	-3.6381157941	-4.0275527097	 0.102254
H	-2.1443972937	-1.9970397965	-4.2855842401	 0.121494
