16
gdb 51076	3.03141	1.17195	1.02201	4.2859	70.32	-0.255	-0.0277	0.2273	1176.4661	0.122691	-437.831247	-437.823046	-437.822102	-437.865139	29.618	
O	-0.0293252366	-0.113504576	-0.0584672406	-0.23745
C	 0.0099696905	 1.0842380032	-0.1492361479	 0.169497
C	 1.2995488592	 1.8932934254	-0.1268621278	-0.429511
C	 1.3102723316	 2.9560465877	-1.1877444968	 0.16951
C	 2.4335554063	 3.964482936	-1.6062791296	-0.291512
C	 1.294205741	 4.1633540027	-2.6557690299	-0.156067
N	 1.0670851282	 2.651601829	-2.6736322393	-0.346397
C	 0.3459461561	 4.1432764399	-1.4438371182	 0.49623
O	-0.5639855366	 4.7204043342	-0.9463712632	-0.318237
H	-0.9148107791	 1.6942228327	-0.238238508	 0.104343
H	 1.3634541406	 2.3833823905	 0.8554834523	 0.142987
H	 2.1480110436	 1.2075989396	-0.2138333459	 0.130599
H	 2.6968081971	 4.7867392911	-0.9333508661	 0.119605
H	 3.3195713693	 3.4728944036	-2.019027705	 0.115212
H	 1.2894767531	 4.7639985488	-3.5618257659	 0.111425
H	 1.9238951557	 2.2208664915	-3.0388590882	 0.219768
