18
gdb 9630	3.34016	1.37336	1.18855	4.292	70.26	-0.2402	-0.013	0.2272	1078.7963	0.150674	-384.929817	-384.920762	-384.919818	-384.963517	32.283	
C	 0.1890981656	 1.2935396561	 0.226718456	-0.249757
O	-0.2406776175	 0.0337521578	-0.2575502557	-0.27983
C	 0.5681549638	-0.5156262157	-1.2609013192	 0.42665
C	 0.4458254338	 0.1430605945	-2.6182131026	-0.453711
C	 1.8571609928	-1.1351338438	-0.8264391074	-0.357309
C	 0.6707513596	-2.0306748306	-1.207308539	-0.169766
C	-0.0055467039	-2.7926377997	-0.129324242	 0.175534
O	-0.4751924863	-3.8944868659	-0.2800672946	-0.275815
H	 1.2273038828	 1.2579594906	 0.5852672801	 0.110328
H	 0.1091252776	 2.0803827759	-0.5351499271	 0.114574
H	-0.4679690185	 1.5479955499	 1.0611163638	 0.134042
H	 0.8069343938	 1.176471619	-2.5946270378	 0.124271
H	 1.0347467838	-0.3957934987	-3.3650685749	 0.125014
H	-0.5997061794	 0.1514136804	-2.9407476148	 0.135932
H	 2.7128892477	-1.1304406503	-1.4920665425	 0.126593
H	 2.0982109859	-1.0894865928	 0.2307190684	 0.127734
H	 0.7158161799	-2.5549219056	-2.1556637197	 0.106079
H	-0.0451193315	-2.2736346511	 0.8510162389	 0.079438
