17
gdb 77286	2.95958	0.87685	0.76613	3.275	71.65	-0.2528	-0.0391	0.2136	1459.7066	0.132658	-458.955533	-458.945947	-458.945002	-458.991521	33.175	
O	-0.0239451667	 1.218111519	 0.1513683631	-0.410815
C	-0.1018636694	-0.1627096986	-0.0246249934	 0.073624
C	-1.4720387119	-0.7379139975	-0.0710125811	-0.073863
C	-2.7027351309	 0.1382440948	 0.0973816116	-0.305224
C	-3.0460607466	 0.3034300727	 1.5669686226	 0.15942
O	-4.1250040593	 0.0720409493	 2.0461587941	-0.233844
C	-0.6168844768	-0.7335045669	-1.3527385095	-0.185199
C	-0.9167294727	 0.1655175371	-2.4899494933	 0.157605
O	-0.7450192405	-0.1457057958	-3.6448896827	-0.269234
H	 0.7900543335	 1.5361585323	-0.25368451	 0.301896
H	 0.6828626321	-0.7365072922	 0.4664165465	 0.109701
H	-1.5774512425	-1.7287073334	 0.3620745636	 0.118109
H	-2.5078115406	 1.1422971006	-0.2941294087	 0.141677
H	-3.5695096246	-0.2791929929	-0.4219580693	 0.129854
H	-2.2005194353	 0.6704919722	 2.1916230408	 0.089229
H	-0.2142101459	-1.6917502398	-1.6635497426	 0.114057
H	-1.3007544319	 1.1716542892	-2.2231337917	 0.083008
