18
gdb 83302	2.39623	1.86048	1.49255	1.4447	70.35	-0.2298	-0.0273	0.2024	948.6733	0.150706	-439.105048	-439.097759	-439.096815	-439.136663	29.222	
O	 0.1654827593	 1.3663812405	 0.3084067817	-0.439692
C	-0.0024415996	-0.0067927163	 0.0721111631	 0.051965
C	-1.4510507452	-0.5163909968	-0.1449697832	-0.049266
C	-2.1065422414	 0.2756645901	-1.2929478761	-0.204069
C	-1.422418406	-0.3365960133	-2.5541953995	-0.202809
C	-0.4109580902	-1.3333453781	-1.923129343	-0.133673
N	-1.2177665043	-1.8343898618	-0.7853713535	-0.301148
C	 0.6338670561	-0.4397165453	-1.2625602531	 0.381627
O	 1.6824859448	-0.018704655	-1.6852441782	-0.346033
H	 0.9879510854	 1.6191657189	-0.1348821461	 0.293367
H	 0.4445717572	-0.6043038692	 0.8873296702	 0.086173
H	-2.0419855224	-0.5889532483	 0.76798524	 0.080861
H	-3.1857627139	 0.1167252641	-1.3082857225	 0.108273
H	-1.9125979979	 1.3437426426	-1.1813514789	 0.124841
H	-2.1350157823	-0.8968721938	-3.1628134047	 0.117058
H	-0.9310320563	 0.4041865339	-3.1881213127	 0.11944
H	-0.0288146769	-2.1014937541	-2.593749839	 0.092479
H	-0.6614205062	-2.4381074282	-0.1819908745	 0.220608
