18
gdb 74105	2.45323	1.63746	1.09133	3.8812	80.56	-0.2314	-0.0481	0.1834	1121.1258	0.148479	-401.959895	-401.951951	-401.951007	-401.992293	30.595	
C	-0.3433702546	 1.5484566372	 0.0028837268	-0.47548
C	-0.0255789079	 0.0816283084	-0.0012460235	 0.304702
C	-0.1304034498	-0.6844804334	-1.0984501598	-0.285763
C	 0.1400032094	-2.1316940418	-1.0831125836	 0.405433
O	-0.1919677262	-2.8715312397	-1.9912352699	-0.349269
C	 0.8489053202	-2.6619453098	 0.1241662969	-0.133492
C	 2.1602654359	-2.0288136102	 0.4885476583	-0.24851
N	 0.9975220781	-1.83289461	 1.330666059	-0.105856
C	 0.3717232425	-0.5119668854	 1.3313494577	-0.243292
H	 0.5469137035	 2.1380798729	 0.2555247948	 0.137774
H	-0.7166130363	 1.8842171513	-0.9670864504	 0.136035
H	-1.0969540579	 1.7832914927	 0.7652865115	 0.1376
H	-0.4726974577	-0.2768703122	-2.0452794657	 0.104032
H	 0.7091097279	-3.7256097534	 0.2934259713	 0.114031
H	 2.9445112237	-2.6496527228	 0.9122283951	 0.128326
H	 2.5041028081	-1.2083019679	-0.1378819143	 0.121372
H	 1.0517992168	 0.174953258	 1.8520799005	 0.121197
H	-0.5286479959	-0.5674056238	 1.9608944452	 0.13116
