13
gdb 131745	4.69519	0.93884	0.79429	5.3348	69.31	-0.2836	-0.0696	0.214	1327.5836	0.089196	-452.738893	-452.730898	-452.729954	-452.772429	27.872	
O	 0.0446468146	 1.3612709652	 0.3782623174	-0.414584
C	 0.0131548333	 0.0139359397	-0.0577248524	-0.190199
C	-1.4043662703	-0.4594982678	 0.0530465484	 0.394752
N	-1.6791835619	-1.7148451894	 0.3214559085	-0.17976
O	-3.0558270025	-1.8236809827	 0.3150844531	-0.203098
C	-3.5805426612	-0.6059486551	 0.050465305	 0.34995
C	-2.5872456532	 0.3077425083	-0.1270878884	-0.3943
C	-4.9912822404	-0.4930426451	 0.0077786511	 0.24403
N	-6.1423704619	-0.382323315	-0.0332052919	-0.319756
H	 0.9293942782	 1.7061555587	 0.225990336	 0.300603
H	 0.3369352955	-0.0764456447	-1.1066351598	 0.121391
H	 0.6561248873	-0.6426163315	 0.5439999419	 0.130512
H	-2.6729368574	 1.3590513495	-0.338221619	 0.160459
