23
gdb 59264	2.71735	1.23862	1.1017	1.397	84.97	-0.2321	0.0826	0.3147	1260.4363	0.206265	-388.284966	-388.275727	-388.274783	-388.319159	35.256	
C	 0.104893277	 1.2498668867	 0.689148557	-0.389138
C	 0.1210649896	-0.1396802909	 0.0357776168	 0.025534
C	 1.102452596	-1.0831389345	 0.7476961834	-0.389973
C	-1.2693642847	-0.7476900185	 0.0159948847	-0.023121
C	-2.3424262314	-0.4168207969	-1.0160302863	-0.109904
C	-1.9325297735	 0.2234542201	-2.3436910194	-0.260619
C	-1.3174743668	-0.9616543685	-3.1199931803	-0.059473
O	-0.8735302022	-1.9029542745	-2.1375397104	-0.258748
C	-1.6930966383	-1.7756658676	-1.0009232597	 0.05772
H	 1.1037813417	 1.6991032777	 0.6845206932	 0.107775
H	-0.5757564099	 1.9306322093	 0.1676880816	 0.111815
H	-0.2254040971	 1.1880501554	 1.7330555643	 0.108811
H	 0.4671062421	-0.0320692681	-0.9978516718	 0.078428
H	 1.1446789496	-2.0526967675	 0.2432295895	 0.125853
H	 2.1130450173	-0.6612688918	 0.7627427108	 0.105091
H	 0.7994042209	-1.2546855591	 1.787723461	 0.105707
H	-1.6750983558	-0.9204064583	 1.0129066549	 0.076461
H	-3.3594715745	-0.2763850171	-0.6693569539	 0.086919
H	-2.7996349233	 0.6381199834	-2.8646854318	 0.103389
H	-1.2110301967	 1.0359296461	-2.2139716873	 0.109671
H	-2.0701808254	-1.4297409588	-3.772643606	 0.093247
H	-0.4533289989	-0.6884751539	-3.7327089321	 0.106174
H	-2.2076932358	-2.6883294228	-0.7139424584	 0.088381
