18
gdb 96878	4.31378	0.91041	0.83054	3.663	76.51	-0.2484	-0.028	0.2203	1434.0536	0.144756	-439.097267	-439.087452	-439.086508	-439.133518	33.564	
C	-0.1627030618	 1.4437127881	 0.3981779578	-0.340104
N	-0.268621871	-0.0091925653	 0.3969046614	-0.321297
C	 0.6406276954	-0.6906694107	 0.9091528956	 0.475551
C	 0.8860284159	-2.172594744	 1.096792308	-0.401305
C	 2.2004811985	-1.6838450225	 1.77132625	 0.021037
O	 1.8326495085	-0.3078901751	 1.5176283828	-0.250871
C	 2.3142320214	-2.0089248379	 3.2569399582	 0.365589
C	 3.0220756346	-3.3119044513	 3.5762875425	-0.49089
O	 1.8468822899	-1.2843470617	 4.0991179197	-0.279461
H	 0.7576819452	 1.8251132273	 0.8544562177	 0.130549
H	-0.2236099168	 1.8062974187	-0.6336147562	 0.127285
H	-1.020590637	 1.861688321	 0.9356684319	 0.132034
H	 0.1737276622	-2.6738940311	 1.7547892335	 0.14546
H	 1.0070482157	-2.7443016398	 0.1759208204	 0.141169
H	 3.1173368492	-1.9500009144	 1.2351242253	 0.102506
H	 4.0953805234	-3.2036068974	 3.379114981	 0.150566
H	 2.8738262917	-3.5659899845	 4.6261506207	 0.151987
H	 2.661818935	-4.1260578697	 2.9374251997	 0.140194
