22
gdb 78394	3.65101	1.22734	1.0785	1.5317	86.87	-0.223	0.0935	0.3165	1231.024	0.193374	-367.157431	-367.148426	-367.147482	-367.190326	35.498	
C	-0.1246993997	 1.5052519047	 0.0473186335	-0.421217
C	 0.1051565727	 0.0193765066	-0.0986545874	 0.032882
C	 0.7959291764	-0.6524683948	-1.2282064748	-0.093502
C	 1.9578432872	 0.1337560638	-1.7652670202	-0.135863
C	 2.4692176302	 0.1955057996	-0.3228981836	-0.047991
N	 1.3857558211	-0.6623345216	 0.1979298013	-0.159184
C	 3.282902188	-0.5093721881	-1.3711587674	 0.315312
C	 3.4916600309	-2.011205718	-1.3578914957	-0.461034
C	 4.4942049483	 0.2789471099	-1.8420123791	-0.455506
H	 0.6574134541	 2.0984236669	-0.4288923812	 0.125523
H	-1.0822168025	 1.7785915627	-0.4087202689	 0.120594
H	-0.1708745185	 1.7825768891	 1.1063205653	 0.123414
H	-0.7093128989	-0.5779007101	 0.3104884248	 0.092285
H	 0.3995662986	-1.5639115675	-1.6679505997	 0.091997
H	 1.9074904882	 0.8994062553	-2.5328456191	 0.082974
H	 2.8481818088	 1.0296701405	 0.2583912332	 0.084448
H	 2.6411560145	-2.5341177236	-0.9184223792	 0.139188
H	 3.6518242199	-2.3906893558	-2.3738576494	 0.107368
H	 4.379028076	-2.2660872676	-0.7668224037	 0.111489
H	 5.3641686002	 0.0745053941	-1.2080873636	 0.118197
H	 4.761060289	 0.0075316685	-2.869744977	 0.117415
H	 4.3090846957	 1.3581340255	-1.8199786782	 0.111211
