20
gdb 120469	3.30646	0.8486	0.74567	1.7175	77.87	-0.2414	-0.0256	0.2159	1592.5355	0.168647	-440.268338	-440.258293	-440.257348	-440.304256	35.26	
C	-0.174342944	 1.35341092	-0.0369497926	-0.22758
O	 0.0117323379	-0.0423201718	-0.0313499032	-0.239179
C	 0.6401867809	-0.5159052231	-1.2024234089	-0.050884
C	 0.7375060684	-2.0253841285	-1.1134149115	-0.102023
N	-0.488430456	-2.7967238405	-1.450554611	-0.336344
C	 0.2466770356	-3.7505602242	-2.3314058487	-0.064203
C	-0.3724301945	-4.0283744639	-3.6924342923	-0.387241
C	 1.4401809686	-2.7817030487	-2.2549089414	 0.368725
O	 2.4527954655	-2.6316270371	-2.8707711145	-0.295532
H	 0.7832888775	 1.8931757853	-0.1094918665	 0.105129
H	-0.8139166003	 1.6768779798	-0.8731053609	 0.107464
H	-0.6606184841	 1.6221157152	 0.9039706616	 0.127269
H	 0.0632227716	-0.2362336845	-2.0979760404	 0.093858
H	 1.6546853626	-0.0938754788	-1.3049178353	 0.099193
H	 1.1882490432	-2.2907217987	-0.1443210791	 0.102744
H	-0.94775103	-3.2210213568	-0.6537164279	 0.226319
H	 0.5133068662	-4.6970327962	-1.8333935942	 0.09389
H	-0.632381289	-3.0917578369	-4.1925738711	 0.126579
H	 0.3328533652	-4.5802915621	-4.3215795437	 0.130297
H	-1.2835127054	-4.6260174983	-3.5903766283	 0.121518
