21
gdb 122461	2.31643	1.08073	0.82181	1.3408	85.79	-0.2281	0.0491	0.2772	1480.1226	0.179671	-387.03471	-387.024468	-387.023524	-387.070728	37.356	
C	-0.6567924684	 0.8917692631	-0.3975931665	-0.385505
C	-0.1808993526	-0.5250573835	-0.7325393305	-0.175097
C	 1.3304258212	-0.5713861706	-0.9557061399	-0.059614
O	 1.861786867	-1.8730857844	-1.1779858624	-0.241971
C	 1.6042974278	-2.4073603193	-2.4264837541	 0.142494
C	 2.0227181338	-3.8159337373	-2.652300928	-0.332296
C	 0.5282623315	-3.485253511	-2.6257400779	-0.24542
C	-0.2807209841	-3.9419794972	-1.5382836441	 0.345534
C	-0.9800802376	-4.33095436	-0.6394913888	-0.464141
H	-0.1828740325	 1.2669404322	 0.5164877064	 0.115763
H	-0.4206181494	 1.5955380901	-1.2039740579	 0.113509
H	-1.7393700056	 0.9171540577	-0.2437771235	 0.11849
H	-0.4368139815	-1.2191474114	 0.074094131	 0.117934
H	-0.6975143642	-0.8890528062	-1.6274409901	 0.104776
H	 1.6092998188	 0.0890256265	-1.7937738015	 0.085876
H	 1.8513240408	-0.2039742465	-0.0649088355	 0.106669
H	 1.7141131917	-1.7014781183	-3.2514384107	 0.08876
H	 2.4699019857	-4.093965868	-3.5996921189	 0.119816
H	 2.4038583207	-4.3423752628	-1.7852839545	 0.140949
H	 0.0288235662	-3.4663635668	-3.5909192461	 0.110786
H	-1.5901149395	-4.6778062064	 0.1568603636	 0.192687
