20
gdb 122411	6.36186	0.5783	0.5474	3.5661	77.59	-0.2305	-0.0232	0.2073	1955.7492	0.168698	-440.2639	-440.254049	-440.253105	-440.299868	34.829	
O	-0.0404445377	 1.4453454536	-0.0335223132	-0.419493
C	 0.0541428596	 0.0300769618	 0.0014506432	-0.073071
C	-1.3627631828	-0.5288079646	 0.0048585362	-0.172591
C	-1.3964982007	-2.0547608516	 0.0771155236	-0.151876
N	-2.7557990975	-2.5634611589	 0.0468991198	-0.082176
C	-3.608412349	-2.34543729	 1.2408182805	-0.290976
C	-4.043634334	-3.8137001511	 1.1257849976	 0.393093
O	-4.89104063	-4.4912159579	 1.6214844223	-0.278749
C	-2.9341465945	-4.033221244	 0.0870474499	-0.287288
H	 0.8504447728	 1.8069872906	-0.0401337963	 0.28655
H	 0.6049996122	-0.3553759098	-0.8725115873	 0.085755
H	 0.5936890812	-0.3112596679	 0.9005813881	 0.08484
H	-1.8995164119	-0.0994832543	 0.8595089181	 0.110266
H	-1.8855677633	-0.1959476083	-0.8977837639	 0.11864
H	-0.8644148382	-2.4779286931	-0.7841431416	 0.105921
H	-0.8554018873	-2.3989656694	 0.9835510983	 0.073345
H	-3.0496979188	-2.1689690424	 2.1762228399	 0.115466
H	-4.382512478	-1.5781511227	 1.1406222074	 0.135742
H	-3.2124294681	-4.5022367399	-0.8626451073	 0.132332
H	-2.084959024	-4.5861257399	 0.5238725847	 0.11427
