16
gdb 127775	3.24014	1.63821	1.11087	4.0639	71.68	-0.2133	0.0136	0.2269	1052.3245	0.126366	-434.050198	-434.042353	-434.041409	-434.084325	27.663	
C	-0.0131418527	 1.4389843442	-0.0061349984	-0.342012
N	-0.00847534	-0.0040204944	 0.0685215568	-0.106583
N	 0.0633769608	-0.7717677558	-1.0899316588	-0.179271
N	 0.0516433215	-2.0310898718	-0.7451137228	-0.281018
C	-0.0256825014	-2.105565045	 0.6032958007	 0.204647
C	-0.0632759701	-0.8426993084	 1.1079413487	 0.464556
O	-0.1409262361	-0.687963136	 2.4370127412	-0.291388
C	-0.1640217273	-2.075604059	 2.9511000978	-0.096932
C	-0.0839580133	-3.0813969833	 1.740738932	-0.366128
H	 0.8457253219	 1.8592126107	 0.524915362	 0.148134
H	 0.0468212133	 1.7027694136	-1.0622237266	 0.170213
H	-0.9331035689	 1.8480995627	 0.4211351248	 0.148122
H	 0.68571226	-2.1698359512	 3.6300827739	 0.133384
H	-1.089403197	-2.1807176919	 3.5208998095	 0.133366
H	-0.9606703645	-3.7364813507	 1.7158406969	 0.130475
H	 0.8012012538	-3.7208166035	 1.8188988121	 0.130435
