14
gdb 28134	5.34965	1.31939	1.0607	3.9285	71.58	-0.1795	0.0197	0.1991	1048.4624	0.104551	-432.904015	-432.897082	-432.896138	-432.935072	27.105	
N	-0.0076951216	 1.3507291028	 0.1464639144	-0.595243
C	-0.0271157823	-0.0355037699	 0.046394652	 0.369825
N	-1.1157340847	-0.7853033725	 0.0796437786	-0.407916
C	-0.5945648228	-2.0432039185	 0.0681074225	 0.362498
C	 0.7718845616	-2.0954392058	 0.0099460504	 0.247994
N	 1.1502226999	-0.7566876367	-0.0206321814	-0.443994
C	 1.135391028	-3.4713635179	-0.0657754585	-0.335625
C	-0.0626459829	-4.1341919304	-0.028763529	-0.020718
O	-1.1405772382	-3.2777044114	 0.0472344913	-0.20102
H	 0.5310871252	 1.8054821636	-0.5816683389	 0.25087
H	-0.9556653053	 1.7057875568	 0.1483806576	 0.265956
H	 2.0680629748	-0.3705175027	 0.1157497509	 0.264791
H	 2.1086038314	-3.9321821036	-0.1210849992	 0.110318
H	-0.3113166332	-5.1816077537	-0.0356985209	 0.132264
