22
gdb 110287	2.01096	1.45553	1.21188	2.7218	81.61	-0.23	0.0613	0.2913	1193.2744	0.193869	-404.290408	-404.280683	-404.279739	-404.32493	36.442	
C	-0.2456413789	 1.1796754957	 0.6356402259	-0.436059
C	-0.0248907625	-0.2602250329	 0.2203680807	 0.038501
C	 0.5069395597	-0.8139936138	-1.0395286876	-0.077751
C	 1.7284349568	-0.1035651362	-1.6347290689	-0.02484
C	 1.6086921411	 1.2619121589	-2.3088690179	-0.426025
C	 2.413378005	-0.3321739852	-0.2510515644	 0.021185
C	 3.0019066079	 0.760584989	 0.6292217884	-0.076927
O	 3.3222678994	 0.2321108295	 1.9071713377	-0.427228
N	 1.2123031553	-1.0742361499	 0.304293842	-0.196755
H	-0.1302555398	 1.2838585482	 1.7202928119	 0.127991
H	 0.4160861282	 1.8969369586	 0.1566844998	 0.131301
H	-1.2744329498	 1.4627806981	 0.3869209722	 0.122445
H	-0.8263494701	-0.888704027	 0.611622013	 0.099765
H	-0.0112074858	-1.6183406556	-1.555713456	 0.092834
H	 2.1987526571	-0.7802549855	-2.3545365467	 0.088501
H	 1.1914400995	 2.0363683972	-1.6633527724	 0.123223
H	 2.5909364914	 1.6076882334	-2.6487450177	 0.119998
H	 0.9639371073	 1.1905597344	-3.1918306143	 0.12082
H	 3.1919229124	-1.0949728416	-0.3484546563	 0.095996
H	 3.9418268243	 1.1137025252	 0.1878041559	 0.103936
H	 2.3429606405	 1.6321609877	 0.7201428183	 0.085165
H	 2.591438741	-0.3454339282	 2.1583175662	 0.293926
