17
gdb 19732	4.0092	2.45514	2.2753	1.286	65.9	-0.222	0.0925	0.3145	691.4085	0.146868	-363.822734	-363.817428	-363.816484	-363.851787	22.88	
C	-0.0374897085	 1.4831021972	-0.0318973984	-0.191099
C	 1.4963165618	 1.3842987401	-0.0125654204	-0.062308
C	 1.2499843416	 0.1070581776	 0.8287096485	 0.000862
C	 2.3750294198	-0.8622673099	 0.4937401241	-0.11664
O	 2.8825509067	-0.380649885	-0.7599730563	-0.271637
C	 1.875908948	 0.5153650814	-1.241410587	 0.100515
C	 0.5426175487	-0.276893223	-1.3597492525	-0.193203
N	-0.0446799027	-0.0338890709	-0.0024385972	-0.143546
H	-0.4553478947	 1.881786687	 0.8959572667	 0.108948
H	-0.5469835764	 1.929152529	-0.8910075509	 0.099573
H	 2.1795424001	 2.185225951	 0.2713237002	 0.071022
H	 1.0096616469	 0.2280721801	 1.884391795	 0.085934
H	 3.1771427164	-0.8319272977	 1.2398874372	 0.108544
H	 2.0222516529	-1.8992134548	 0.4084900983	 0.107787
H	 2.2564859787	 1.0118690573	-2.1331308163	 0.079466
H	-0.1427321865	 0.0931849797	-2.1264171657	 0.102622
H	 0.7262776372	-1.338263409	-1.5374501953	 0.11316
