19
gdb 97985	7.18345	0.45393	0.43185	1.3171	89.77	-0.2463	0.0175	0.2638	2501.6639	0.155073	-385.812103	-385.801091	-385.800147	-385.85161	37.161	
C	 0.0545840182	 1.5608715889	 0.0752160668	-0.365831
C	-0.0520387588	 0.0283957466	-0.0344745127	-0.316113
C	 0.6193957966	-0.5031756565	-1.2154907145	 0.173071
C	 1.1793459036	-0.9261876415	-2.1934323389	-0.026037
C	 1.8569172621	-1.4168410792	-3.3835728907	-0.202557
O	 1.9189797995	-2.8349479322	-3.3586521482	-0.240058
C	 2.5748183526	-3.3448498236	-4.5041155094	-0.199047
C	 2.6173468	-4.7990385258	-4.4454962543	 0.285181
C	 2.6672195549	-5.9984482231	-4.4249545466	-0.411779
H	 1.1002983875	 1.8747388442	 0.1326574371	 0.128773
H	-0.395936955	 2.0451316481	-0.7953504076	 0.128349
H	-0.4619003124	 1.9142992308	 0.9723964781	 0.116273
H	 0.3756174964	-0.433820386	 0.8642042288	 0.13266
H	-1.1092635816	-0.2651581992	-0.0523096571	 0.1312
H	 1.3250738398	-1.0764119283	-4.2895229776	 0.114307
H	 2.8752746809	-0.9935604602	-3.4408515708	 0.114283
H	 2.0530860233	-3.0257286085	-5.4234998475	 0.118307
H	 3.6021362396	-2.9457077527	-4.5720702242	 0.1183
H	 2.706642243	-7.0593171716	-4.3983268408	 0.20072
