19
gdb 122777	5.73633	0.51276	0.47619	1.3738	80.13	-0.2641	-0.0558	0.2083	2194.9972	0.155471	-423.002281	-422.991536	-422.990592	-423.039536	36.936	
O	-0.1410882746	 1.4923992369	 0.0114697344	-0.421995
C	 0.0042486434	 0.080241475	 0.0023173785	-0.074068
C	-1.3893356308	-0.5341824938	 0.0124861335	-0.178312
C	-1.3601565546	-2.0647553897	 0.0038136614	-0.187956
C	-2.7608342043	-2.6754163109	 0.0140488633	-0.306589
C	-2.7613523727	-4.1938769835	 0.0057156815	 0.225295
O	-1.7507528018	-4.8627396996	-0.0079163879	-0.28822
C	-4.0793640098	-4.8128600455	 0.0152533774	 0.247005
C	-5.1778946297	-5.3050217821	 0.0231101117	-0.390121
H	 0.7365857404	 1.8849038053	 0.0051402829	 0.285672
H	 0.5527821035	-0.2593676757	-0.8916321857	 0.086085
H	 0.5700085139	-0.2690891045	 0.8816655155	 0.086085
H	-1.9227570359	-0.1675463333	 0.8984083083	 0.104773
H	-1.9398259828	-0.1579161521	-0.8588366417	 0.104773
H	-0.8187987814	-2.4290324014	-0.8768917078	 0.113797
H	-0.8018559948	-2.4386041954	 0.8698095138	 0.113791
H	-3.3350021341	-2.3477949693	 0.8922579143	 0.133104
H	-3.3518676133	-2.3382655341	-0.8492447133	 0.133109
H	-6.1400788808	-5.7570544162	 0.0288814199	 0.213774
