11
gdb 16269	3.52729	2.00635	1.45054	4.5535	56.47	-0.305	-0.0328	0.2722	800.2139	0.072222	-397.400538	-397.39421	-397.393266	-397.431224	23.047	
O	-0.1027727721	 0.0639850558	 0.0083777287	-0.295378
C	-0.0029046306	 1.2396520911	 0.0579413101	 0.451105
O	-1.0067530254	 2.1827226601	 0.2452519418	-0.250356
C	-0.076475016	 3.2664940223	 0.0182953639	 0.067961
C	 0.9357999648	 3.2822835542	 1.09002396	-0.318225
C	 1.0882479804	 2.2897086688	-0.0925067976	-0.026912
C	 2.2267405553	 2.2478234173	-0.941016052	 0.215837
N	 3.1540846866	 2.2149608415	-1.631616125	-0.334295
H	-0.3802129564	 4.0612654387	-0.6470568673	 0.163276
H	 1.6639556664	 4.0866246589	 1.0659634056	 0.165445
H	 0.685964577	 2.8931762114	 2.0710868618	 0.161542
