17
gdb 75063	2.40327	1.84383	1.13518	4.6162	76.19	-0.2073	-0.0131	0.1942	1060.7742	0.136637	-418.028456	-418.020138	-418.019193	-418.061207	31.348	
C	-0.0084063668	 1.5080321008	 0.0292733974	-0.51309
C	 0.0007093609	 0.015568291	-0.0017125531	 0.170486
C	-0.0432847922	-0.7859667432	-1.0774996455	-0.126663
N	-0.0139364893	-2.1443705219	-0.7196827689	-0.367278
C	 0.0417028605	-2.3006177224	 0.6533883171	 0.407296
O	 0.0922118998	-3.3401430716	 1.2673545017	-0.370319
C	 0.0590439318	-0.8775406037	 1.1895009929	 0.122616
C	 0.7796764578	-0.5792832529	 2.4641894965	-0.267023
N	-0.6778607113	-0.6420747187	 2.4556164001	-0.332583
H	 0.9003426406	 1.9150473911	 0.4911058564	 0.130038
H	-0.0754569522	 1.9169412051	-0.9827393822	 0.131901
H	-0.8596904927	 1.9064578839	 0.5972345345	 0.124871
H	-0.0894851807	-0.5107127837	-2.1217130398	 0.13016
H	-0.0446552671	-2.9209880598	-1.3579465916	 0.261453
H	 1.2630642044	-1.4101441635	 2.9703807368	 0.144718
H	 1.2749706304	 0.3842155795	 2.5517353448	 0.11691
H	-1.0659836741	 0.2993605999	 2.432266703	 0.236508
