20
gdb 53176	2.96152	1.03512	0.91216	1.3625	88.26	-0.2243	0.0563	0.2806	1393.0209	0.169929	-365.945319	-365.935699	-365.934754	-365.982038	34.694	
C	 0.1614615961	 1.5649397575	-0.0081047539	-0.498221
C	 0.1049960187	 0.1102904185	 0.00753947	 0.042435
C	 0.0596345811	-1.0934673841	 0.0317817194	 0.130629
C	 0.0008936813	-2.5414444391	 0.0464617643	-0.218463
C	 0.3165671387	-3.281553128	 1.3609902406	-0.055276
N	-0.7339687506	-2.9103320493	 2.3327935142	-0.32408
C	-0.9932589643	-3.9808985087	 1.3397248434	-0.058063
C	-1.4191239259	-3.2790554095	 0.041226549	 0.010647
C	-2.6851307961	-2.439521173	 0.0631572139	-0.407863
H	 1.1857091115	 1.9238152667	-0.1607151878	 0.14359
H	-0.4553239088	 1.97967162	-0.8134889693	 0.144258
H	-0.2001261216	 1.9879612981	 0.9358265688	 0.147631
H	 0.6122703982	-2.9505678013	-0.764468656	 0.095325
H	 1.2909406053	-3.61826167	 1.6933478745	 0.093288
H	-0.4992458522	-3.3665889487	 3.2136612244	 0.227882
H	-1.2498548715	-4.9833439399	 1.6606899339	 0.089438
H	-1.4375029219	-3.9896150511	-0.7903421386	 0.073404
H	-2.6842625344	-1.7717722284	 0.9271094366	 0.144902
H	-2.7655758947	-1.8291036265	-0.8418413301	 0.115061
H	-3.571835349	-3.0811548333	 0.1184158528	 0.103476
