11
gdb 429	5.28799	4.0728	2.50583	2.5208	43.41	-0.2475	0.0204	0.2679	495.5449	0.08494	-322.436757	-322.430835	-322.429891	-322.46623	20.351	
O	 0.0321703387	 1.4284816758	 0.1631219721	-0.430557
C	 0.0222653557	 0.0281462834	 0.0723323807	-0.001043
C	-1.3979458548	-0.5946627994	-0.0351038069	-0.169956
N	-0.9709989723	-1.1692172937	-1.3197715221	-0.326431
C	 0.2502887174	-0.5477863519	-1.3544653777	 0.394075
O	 1.1164959638	-0.4502423318	-2.1829573661	-0.3629
H	 0.8243861966	 1.738201399	-0.291313222	 0.301276
H	 0.6511455813	-0.4460719708	 0.8380355207	 0.096376
H	-1.6627496436	-1.3348660971	 0.7245868777	 0.116267
H	-2.1784045083	 0.1664580613	-0.11934843	 0.128374
H	-1.4868512846	-1.6562736947	-2.0383847263	 0.254519
