18
gdb 42953	2.55701	1.91983	1.35314	2.4353	74.54	-0.2334	-0.0269	0.2066	969.7323	0.149831	-401.929301	-401.922323	-401.921379	-401.960621	28.234	
O	-0.0468401788	 0.1958827184	-0.9006068106	-0.323491
C	-0.0517555492	 1.2454083571	-0.308835009	 0.40172
C	-1.2699703694	 2.0742713986	 0.0132055262	-0.138875
C	-1.4844624066	 2.3347006517	 1.4685239012	-0.250788
N	-0.8646339995	 3.3535218986	 0.6314898605	-0.1051
C	 0.6275520821	 3.3978278463	 0.659297696	 0.006261
C	 1.3295451567	 3.2000073419	 2.0301652898	-0.230127
C	 1.7376044343	 1.7551913683	 1.6124746327	-0.243063
C	 1.1690607693	 2.0293969947	 0.1783004806	-0.130414
H	-2.1016702093	 2.0619096651	-0.6833650029	 0.114258
H	-2.4866246335	 2.5747025391	 1.8123885088	 0.130991
H	-0.8906900986	 1.7753764398	 2.1857691835	 0.124939
H	 0.9286710185	 4.2826320937	 0.0956879755	 0.087989
H	 2.1867107201	 3.8647240016	 2.1575246973	 0.111221
H	 0.6897109845	 3.299977939	 2.9099240249	 0.111398
H	 2.8090297955	 1.5496031793	 1.6352010253	 0.114713
H	 1.2307994105	 0.9512463947	 2.1528435702	 0.114053
H	 1.9281348033	 2.0380351821	-0.6051488399	 0.104318
