18
gdb 83907	2.40836	1.53208	1.21435	3.2236	78.01	-0.224	0.0214	0.2454	1081.7423	0.150594	-398.120631	-398.112519	-398.111575	-398.153097	31.418	
N	 0.0024689262	 1.4675566684	 0.0076004425	-0.511775
C	-0.0447768625	 0.0372699802	-0.0100142874	-0.032612
C	-1.349926194	-0.710813292	 0.0228157038	-0.101408
C	-2.6484122626	 0.032347072	-0.2981540682	-0.24023
C	-2.6843928076	 0.0684280157	-1.8399825736	-0.160923
N	-1.2546031403	 0.1418661109	-2.19997878	-0.366983
C	-0.5318925175	-0.7154245996	-1.2700946728	 0.173082
C	 0.1348241757	-1.8773589323	-1.770159008	 0.196249
N	 0.6996962561	-2.8003288979	-2.1853941233	-0.355115
H	 0.9689122911	 1.7725366081	-0.0527005189	 0.237447
H	-0.4621752127	 1.8117868541	-0.8325341753	 0.242289
H	 0.7668761619	-0.4357113584	 0.5333948001	 0.111496
H	-1.3952557944	-1.6135652484	 0.6196003626	 0.113031
H	-3.5166282547	-0.4841214011	 0.1153186091	 0.114153
H	-2.6255741249	 1.0434432157	 0.1207823771	 0.12955
H	-3.1695760727	-0.8414504666	-2.2271467571	 0.102469
H	-3.2190901082	 0.9363346493	-2.2374789425	 0.109775
H	-1.0629710191	-0.093141368	-3.1653215281	 0.239504
