18
gdb 97311	3.41752	1.06745	0.8279	2.283	80.33	-0.2262	0.0089	0.2351	1379.1027	0.148894	-435.293765	-435.28497	-435.284026	-435.327812	31.387	
C	 0.4823279942	 1.5621204991	-0.6187706795	-0.30956
N	 0.8544229541	 0.1848570129	-0.8713196748	-0.246094
C	 0.0928314204	-0.7154988464	-0.4050354671	 0.102366
N	 0.365683272	-2.0512692185	-0.6108711413	-0.142552
C	 1.5510282732	-2.5335885467	-1.2966180327	-0.180214
C	 1.2270054843	-4.0311789818	-1.4024251671	-0.108606
O	 0.2200926096	-4.2690782313	-0.403491882	-0.25552
C	-0.3525207262	-3.0899455053	-0.0311097506	 0.485036
N	-1.357469923	-2.9451644083	 0.7217800713	-0.589361
H	 1.2944073057	 2.0723785408	-0.0874577016	 0.125038
H	 0.347803802	 2.0895922691	-1.5706529438	 0.124259
H	-0.4408766284	 1.6730309592	-0.0283171518	 0.102544
H	-0.8193213583	-0.5577045187	 0.178982714	 0.134831
H	 1.667782361	-2.0455594389	-2.2662584689	 0.142231
H	 2.453787589	-2.332485404	-0.7075091137	 0.12902
H	 0.8167771006	-4.2924795354	-2.3840495315	 0.125645
H	 2.0802029554	-4.6769419399	-1.1882691518	 0.130969
H	-1.7291563155	-3.8501483459	 0.9985703031	 0.229968
