13
gdb 27751	2.45945	1.49115	0.92869	5.5883	68.07	-0.2182	-0.0343	0.1838	1149.1448	0.089731	-489.937906	-489.930045	-489.929101	-489.970324	28.959	
N	 0.0222079888	 1.2703593712	 0.1430164847	-0.584884
C	-0.0460736632	-0.075184898	 0.03596569	 0.500687
N	-1.1403397942	-0.8000874879	-0.0475232389	-0.424594
C	-0.6596260759	-2.0793724998	-0.0747351731	 0.299862
O	-1.4780390257	-3.1289147726	-0.1571452035	-0.40642
C	 0.7144245528	-2.1045163848	-0.0117382229	 0.125805
O	 1.0986603498	-0.7540227068	 0.0606613722	-0.200692
C	 1.6900222592	-3.1515210961	-0.0152277429	 0.046818
O	 2.8970367714	-3.0071988945	 0.0394257895	-0.316812
H	 0.9074578238	 1.7066434574	-0.056704427	 0.283506
H	-0.8082060853	 1.7814935895	-0.1056725552	 0.28363
H	-2.380796132	-2.7857156741	-0.1805340111	 0.314247
H	 1.2185526105	-4.1567527336	-0.076149112	 0.078847
