15
gdb 127448	3.99514	1.1101	0.87501	7.673	77.05	-0.2313	-0.018	0.2133	1250.7655	0.114281	-413.023792	-413.015281	-413.014337	-413.057126	30.514	
C	-0.0449638826	 1.3848281781	-0.0418422972	-0.339046
N	-0.009111523	-0.0606574923	 0.0211753321	 0.00606
N	 0.0267098156	-0.7880950004	-1.1132389175	-0.327203
C	 0.0385160949	-2.0549785315	-0.688922785	 0.265493
C	 0.0318871313	-2.1479561616	 0.7225798079	-0.39689
C	 0.0063637582	-0.8326763386	 1.1445782789	 0.402319
N	-0.0877200166	-0.2569216369	 2.4101461567	-0.612701
C	 0.0629271174	-3.1342198239	-1.6157972518	 0.236892
N	 0.084112221	-4.0399781055	-2.3359557485	-0.345915
H	 0.946100629	 1.8202447761	 0.1308897995	 0.140309
H	-0.3849556757	 1.6637431177	-1.0383288305	 0.173004
H	-0.7412118445	 1.7644654389	 0.7103426876	 0.155505
H	 0.049824684	-3.0377521314	 1.3288722707	 0.120843
H	-0.0708893269	-0.9520019345	 3.1440433803	 0.263286
H	 0.6168296779	 0.4472825658	 2.5959775168	 0.258045
