21
gdb 64276	2.81517	1.47931	1.32777	0.4652	77.64	-0.2264	0.0793	0.3056	1082.6744	0.181707	-424.208048	-424.199346	-424.198402	-424.240689	34.545	
C	-0.014259177	 1.5238479684	 0.0311546092	-0.417718
C	-0.0217488621	-0.001085557	-0.0349715353	 0.326043
C	-1.44781973	-0.5557927341	 0.0729444585	-0.413301
C	 0.6780553184	-0.4788173242	-1.3140275497	-0.098965
O	 0.7821031999	-1.8939841814	-1.3816818849	-0.263359
C	 1.1876181746	-2.5130412588	-0.1955277869	 0.099802
C	 2.4624479552	-2.1651156697	 0.5373612152	-0.354711
C	 1.1085649983	-1.7801442596	 1.1121333412	 0.05882
O	 0.7728784673	-0.4214440358	 1.0935126153	-0.295442
H	 1.0082223825	 1.9071370011	-0.0277894137	 0.120916
H	-0.5997705296	 1.9540630314	-0.7869426351	 0.114063
H	-0.4468488496	 1.856467655	 0.9787456869	 0.126578
H	-2.0748630891	-0.1676415616	-0.7361918905	 0.112427
H	-1.4570896441	-1.6459508252	 0.0092361034	 0.130499
H	-1.8906683389	-0.2564352549	 1.02707132	 0.118509
H	 0.1121781149	-0.1810429374	-2.201574632	 0.109458
H	 1.6733960908	-0.012655993	-1.3698538584	 0.094892
H	 0.8939935444	-3.5573228258	-0.2189216051	 0.10428
H	 3.0242212165	-2.9735766073	 0.9926144993	 0.111692
H	 3.0628537198	-1.3403016534	 0.1709242102	 0.123449
H	 0.7413898578	-2.2975353867	 1.9957841924	 0.092066
