21
gdb 86294	1.75475	1.56658	1.18903	3.085	79.09	-0.2429	-0.0229	0.2199	1193.4969	0.179718	-424.231624	-424.221477	-424.220532	-424.266561	37.392	
C	-0.8771141499	 1.0836572893	-0.1528991172	-0.418952
C	 0.0972896543	-0.0845577988	-0.1358389513	 0.007562
C	 1.4849628207	 0.0808614774	-0.8110480151	-0.299397
C	 2.0998418898	-0.7862977818	 0.3090707159	 0.122811
O	 3.3706195104	-0.5002544788	 0.8175349318	-0.421955
C	 0.8064924901	-0.4921059057	 1.1958182238	 0.16523
C	 1.043843104	 0.6210152576	 2.2147660336	-0.483377
C	 0.2811302186	-1.7342844444	 1.8670819021	 0.099941
O	-0.4756914347	-2.5255426252	 1.3587648711	-0.264746
H	-0.4270890709	 2.0013534179	 0.2403364183	 0.109114
H	-1.2055178403	 1.2916687554	-1.1770147435	 0.120155
H	-1.7709310818	 0.8651246155	 0.4412986323	 0.12342
H	-0.3991053289	-0.9796092399	-0.5213310939	 0.103188
H	 1.6097801757	-0.2598424933	-1.8415131329	 0.107562
H	 1.841483986	 1.116189116	-0.744062621	 0.089237
H	 2.1184362277	-1.8422091717	 0.0270563396	 0.109224
H	 3.4447917254	 0.4522309993	 0.9362893112	 0.283759
H	 1.4797774494	 1.5137714622	 1.754853954	 0.111539
H	 0.1093648008	 0.931502006	 2.6929089969	 0.130424
H	 1.7300590979	 0.2837771	 2.998529473	 0.132343
H	 0.6809765157	-1.9143964869	 2.8927491912	 0.07292
