19
gdb 68993	2.99294	1.24574	1.15224	2.2941	76.31	-0.2301	0.0715	0.3016	1159.7331	0.157792	-422.962702	-422.954137	-422.953193	-422.996162	32.248	
C	 0.1414493392	 1.4976524195	-0.0184284763	-0.483809
C	 0.0623397671	 0.008987087	 0.0653778108	 0.422069
C	-0.9395905971	-0.8054700482	 0.8254337105	-0.40056
C	 0.5452477207	-1.0359170929	 1.0654939834	 0.241665
C	 1.1245995133	-1.739161351	-0.156203091	-0.152169
O	 0.5555653169	-0.7449784725	-1.05018403	-0.322206
C	 1.1987125128	-0.9128924991	 2.3862584865	-0.048036
C	 2.0491297375	-1.9726223649	 2.9502817056	-0.184288
O	 2.6283613618	-0.7911412741	 2.3948752832	-0.236391
H	 1.1636696997	 1.8224166565	-0.2333688001	 0.136413
H	-0.5109788852	 1.8684624395	-0.8172278609	 0.134272
H	-0.1829071424	 1.9552894602	 0.9205117184	 0.122613
H	-1.4494223662	-0.2858675244	 1.6320052417	 0.114405
H	-1.5354459241	-1.5572041664	 0.313962292	 0.113268
H	 2.218516552	-1.7037000647	-0.1843359366	 0.122742
H	 0.7695383784	-2.7520296809	-0.381413655	 0.100103
H	 0.6952989773	-0.2476254232	 3.0898052275	 0.089519
H	 2.1397736925	-2.0789703883	 4.0305835008	 0.116616
H	 2.2155198058	-2.8864321521	 2.3808192597	 0.113774
