16
gdb 112113	2.55849	1.44403	0.96069	3.0824	66.41	-0.2495	-0.0444	0.2051	1161.1951	0.124411	-475.036745	-475.028338	-475.027394	-475.071512	29.773	
O	-0.2355986512	 1.5493980146	 0.2249786117	-0.422037
C	-0.0099800994	 0.1627089281	 0.2736231278	-0.046199
C	-1.2955366663	-0.6049419765	-0.0973965407	-0.113034
N	-1.7507514816	-0.1232835291	-1.3992656899	-0.295233
C	-2.1368289856	-0.9387363174	-2.2821712756	 0.137601
O	-2.2397258546	-2.2830768117	-2.236688385	-0.22272
C	-1.852514869	-2.9550372268	-1.0325663448	-0.169574
C	-1.1156098176	-2.1069541361	-0.0014310076	 0.336294
O	-0.4636727319	-2.6467278062	 0.8597630953	-0.301872
H	-0.6874331533	 1.7113734133	-0.61425655	 0.293147
H	 0.7967618973	-0.1490463651	-0.409811332	 0.088788
H	 0.290941751	-0.0988581432	 1.2901339377	 0.129212
H	-2.0563201363	-0.3224394873	 0.6471688216	 0.134019
H	-2.454877866	-0.5861917495	-3.2611770577	 0.139888
H	-2.7581806967	-3.3535249739	-0.5558530431	 0.153314
H	-1.2206919288	-3.8021536934	-1.3110468778	 0.158407
