19
gdb 89041	3.26746	0.99549	0.87189	2.2744	72.95	-0.2254	0.0564	0.2818	1368.7385	0.158346	-456.351969	-456.342192	-456.341247	-456.388215	35.002	
C	 0.0389233922	 1.7068481099	 0.5418215624	-0.31632
N	 0.0059127084	 0.2586401437	 0.3808365502	-0.073332
C	 1.1861108194	-0.3831872697	-0.1761316486	-0.256308
C	 0.7999704519	-0.6121156409	 1.2473631085	 0.003642
C	 1.707168301	-0.1325412827	 2.3530363507	-0.110305
O	 0.9943968334	-0.0924230432	 3.6043269799	-0.264913
C	 0.7423237158	 1.1348254503	 4.1273231594	 0.503522
N	-0.0067656397	 1.0019822264	 5.2598074945	-0.556363
O	 1.1047284277	 2.1879350582	 3.6544269672	-0.403373
H	 1.031007813	 2.1244689107	 0.7656562316	 0.114781
H	-0.3176979199	 2.1582584768	-0.389594419	 0.117638
H	-0.635612945	 2.0018806724	 1.3495505812	 0.134538
H	 1.019476462	-1.1511520772	-0.927321481	 0.114873
H	 2.0647291328	 0.2390548134	-0.3523602927	 0.104932
H	 0.2877166989	-1.5405272172	 1.496875918	 0.094873
H	 2.517123614	-0.854934363	 2.4980457146	 0.114325
H	 2.1360695434	 0.8502594828	 2.1567625409	 0.142329
H	-0.0966111553	 0.094687235	 5.6835509792	 0.265712
H	-0.086542714	 1.8154363942	 5.8443861731	 0.269748
