16
gdb 52919	6.03015	0.9065	0.88775	2.0813	84.32	-0.2054	0.0285	0.2338	1347.4743	0.123233	-363.463513	-363.455644	-363.4547	-363.497806	28.943	
C	 0.0063791463	 1.455544409	 0.0006160937	-0.517382
C	 0.0119662758	 0.0012130502	-0.0014673716	 0.373861
C	 0.0166599655	-1.2058861573	-0.004299245	-0.484858
C	 0.0038286909	-2.6158093029	-0.0141115082	 0.381675
C	 0.8118442564	-3.6273934574	 0.847095659	-0.175597
C	-0.3436784898	-4.6434168234	 0.691433239	-0.051535
C	-1.1166561061	-3.6918487551	-0.1450241918	-0.144695
N	-0.1796795021	-4.6649851844	-0.8062516838	-0.180791
C	 0.937249515	-3.6381121395	-0.6473637917	-0.074588
H	 0.5803574557	 1.8614618556	-0.8401697358	 0.149189
H	-1.0157379999	 1.8420437167	-0.0817896615	 0.151892
H	 0.4370943386	 1.8587240709	 0.9242780043	 0.148322
H	 1.5242517386	-3.4051601316	 1.6280164603	 0.108588
H	-0.6447598582	-5.517111086	 1.2561273479	 0.103115
H	-2.1680645413	-3.6281360128	-0.397618513	 0.101594
H	 1.7738550746	-3.513152632	-1.3228570418	 0.11121
