17
gdb 117063	4.28829	0.80503	0.72422	3.0742	67.2	-0.2699	-0.0834	0.1865	1563.5044	0.132555	-496.138198	-496.128141	-496.127197	-496.174666	34.238	
C	 0.4454435782	 0.9063373537	-0.2348110007	-0.389459
C	-0.5779044158	 0.1802628799	 0.6234599152	-0.060875
O	 0.0597814268	-0.5181778279	 1.7225630004	-0.220552
C	 0.5215218527	-1.7365706896	 1.4650446164	 0.381121
O	 0.4632174966	-2.3200361585	 0.4093730995	-0.354309
C	 1.1673877874	-2.3762842021	 2.7058157792	 0.236473
O	 1.2525863873	-1.8085139836	 3.7675480525	-0.294229
C	 1.7007882709	-3.7797681496	 2.5156388498	-0.120167
O	 2.2614527718	-4.2718268832	 3.6956483331	-0.422095
H	 1.1104628156	 0.1953583689	-0.7306774701	 0.146168
H	-0.0709950401	 1.4869133514	-1.0055093444	 0.129047
H	 1.0440044475	 1.5927111812	 0.3702986125	 0.135863
H	-1.2618869053	 0.876949202	 1.1115778144	 0.127364
H	-1.1487473087	-0.5427465789	 0.0362337509	 0.137935
H	 0.8746275577	-4.4151017855	 2.1585795579	 0.136094
H	 2.4325035711	-3.7583250229	 1.6923561412	 0.136069
H	 2.1620856464	-3.5661178954	 4.3526077921	 0.295553
