19
gdb 6462	3.67662	1.44147	1.30099	3.0177	73.04	-0.2566	0.0326	0.2892	1038.6923	0.164381	-365.081396	-365.072838	-365.071893	-365.114311	32.114	
C	-0.0817306283	 1.6257403565	-0.0421096879	-0.392382
C	-0.2800169549	 0.1155371476	 0.120488995	-0.219123
C	 0.6362362256	-0.5332723573	 1.1547658118	 0.420686
C	 0.4732520476	-0.0052064492	 2.5696161348	-0.442555
C	 0.7786923164	-2.072608142	 1.0265225269	-0.419528
C	 2.1941532536	-1.7587716317	 0.598354092	 0.433282
N	 3.1824536544	-2.4470405435	 0.2454247205	-0.545577
O	 2.0542626567	-0.3956585848	 0.7263912573	-0.288041
H	 0.9666956558	 1.8530576209	-0.255751109	 0.13807
H	-0.686363013	 2.0037705094	-0.8714377117	 0.117339
H	-0.3740869658	 2.1783778301	 0.8555622503	 0.118777
H	-1.3185531279	-0.1064923087	 0.3985399132	 0.102274
H	-0.1027528251	-0.3780268501	-0.8423098441	 0.105803
H	-0.5514571908	-0.1688646994	 2.9199502252	 0.122769
H	 1.1569672243	-0.5177426425	 3.251846945	 0.127277
H	 0.685461398	 1.0658719928	 2.6179783822	 0.134288
H	 0.6989220932	-2.6370196398	 1.9574185317	 0.131168
H	 0.1618325625	-2.5452858909	 0.2598443529	 0.131358
H	 3.9841504676	-1.8517809174	 0.0284054138	 0.224114
