17
gdb 79301	3.87864	1.26072	1.17349	5.0143	78.67	-0.2515	0.0007	0.2522	1089.2643	0.13719	-380.811289	-380.803752	-380.802808	-380.843244	29.234	
C	-0.0335998142	 1.6058697152	 0.0183118116	-0.435164
C	 0.0818890332	 0.0943787741	-0.0447849093	 0.06915
C	 0.8068301183	-0.621664546	-1.1785328415	-0.154837
C	 2.2781003052	-0.7085470914	-0.764983484	-0.140559
C	 2.3747929826	-0.0515570248	 0.6017690924	-0.18502
N	 1.0085574415	-0.6133147688	 0.9485086893	-0.213089
C	 1.2557217719	-1.6562060415	-0.1726030125	 0.321463
C	 1.1428192847	-3.0610575951	-0.0880446625	 0.132007
N	 1.0535699976	-4.2143683267	-0.0274560058	-0.358399
H	 0.8826453546	 2.1183818904	-0.2836630865	 0.124456
H	-0.8336155018	 1.9415028233	-0.6494662673	 0.127934
H	-0.2910364105	 1.92130085	 1.0349438557	 0.138084
H	-0.9030817527	-0.3578714441	 0.1049434078	 0.101222
H	 0.4971347128	-0.8053138045	-2.199841814	 0.115804
H	 3.0520407208	-0.955615034	-1.4804148894	 0.118353
H	 3.1192955258	-0.5335390171	 1.2388509827	 0.12846
H	 2.4675288703	 1.033907471	 0.6837882632	 0.110135
