19
gdb 92930	2.76502	1.15956	0.90528	3.2762	78.3	-0.2403	-0.0299	0.2104	1288.01	0.159108	-423.047489	-423.038702	-423.037758	-423.081475	32.764	
O	-0.045970623	 1.5021174723	 0.1416888846	-0.437427
C	 0.0572996035	 0.0880456694	 0.0607465118	 0.1208
C	 0.7355167827	-0.5167131857	 1.295866209	-0.276378
C	 0.5456442439	-2.0087818405	 1.3650076193	-0.064437
C	-0.4047505117	-2.6603238888	 0.6946345373	-0.068213
C	-1.4048385425	-1.9865400965	-0.219383254	-0.128721
C	-1.3647291	-0.4509276181	-0.0893765665	-0.237323
C	-1.1209408571	-2.4463933461	-1.6473315885	 0.160641
O	-1.7099320479	-3.3333926842	-2.2070134999	-0.250094
H	 0.842152422	 1.8636544242	 0.2268335646	 0.281402
H	 0.6439528402	-0.1975115859	-0.8282510633	 0.070941
H	 1.8067353908	-0.2736693852	 1.2959429825	 0.096964
H	 0.3165304461	-0.0371851334	 2.1920257361	 0.122457
H	 1.2180817677	-2.5651975377	 2.0133004628	 0.095943
H	-0.4917886395	-3.7401554978	 0.7789378985	 0.10572
H	-2.4081763266	-2.3606683618	 0.0142122033	 0.102818
H	-1.9380668764	-0.1504934017	 0.7946411808	 0.116415
H	-1.8421496595	 0.0269468699	-0.9516582827	 0.11266
H	-0.2861008928	-1.9044438225	-2.1493680358	 0.075831
