18
gdb 71307	2.62202	1.96021	1.44699	1.5029	70.33	-0.2272	0.0612	0.2884	931.6652	0.149224	-439.029759	-439.022564	-439.02162	-439.060844	29.438	
O	-0.052661059	 1.3312976212	 0.107129094	-0.489114
C	 0.0300105391	-0.0666062214	-0.0082997718	 0.359445
C	 0.2275087373	-0.6630339842	-1.4319023444	-0.212808
N	-1.089593374	-1.3979822385	-1.3712659778	-0.160778
C	-1.1513440826	-2.174260501	-0.1078784904	-0.024711
C	 0.0033136283	-2.8439453467	 0.6139216712	-0.113415
O	 1.1768961773	-2.0588565578	 0.7555974479	-0.245296
C	 0.9370499504	-0.6953532533	 1.052618252	-0.140918
C	-1.3564370202	-0.7170957539	-0.0429661613	-0.095471
H	 0.8328228488	 1.6981889939	 0.0053579276	 0.280791
H	 0.1426517782	 0.1171977911	-2.191650953	 0.111945
H	 1.1017354668	-1.2899802824	-1.6202428159	 0.110973
H	-2.0507016719	-2.7865941774	-0.0922759137	 0.104548
H	-0.3747558815	-3.1486499655	 1.6056731617	 0.099672
H	 0.3183505876	-3.7517759288	 0.0886746751	 0.120234
H	 1.9230713857	-0.2151130723	 1.0544138254	 0.097437
H	 0.4876845143	-0.5637339856	 2.0505063461	 0.098115
H	-2.2876634145	-0.2125858475	 0.1905057873	 0.09935
