18
gdb 39037	3.14281	1.6914	1.27156	2.0975	77.04	-0.2306	0.0026	0.2331	999.2091	0.150584	-401.925595	-401.918637	-401.917692	-401.956865	27.987	
C	-0.0248666048	 1.4875491705	-0.0558561397	-0.196864
O	 1.143866735	 1.8650444751	 0.6871758384	-0.27309
C	 2.1979659553	 0.9097834325	 0.4854417336	-0.172798
C	 1.5064145361	-0.3468195957	-0.0097606293	 0.266625
N	 2.0691930598	-1.2233913031	-1.0443895291	-0.373326
C	 1.5704199025	-1.8230724043	 0.2026028861	-0.107414
C	 0.1222095372	-2.3317029326	 0.2246207967	-0.280633
C	-0.7197596789	-1.0839504345	-0.0140371726	-0.267521
C	 0.0565870288	-0.0040673193	-0.095280849	 0.299249
H	-0.8968339992	 1.8851006781	 0.4705411261	 0.122793
H	-0.0020512042	 1.9273369612	-1.067448573	 0.10195
H	 2.915060315	 1.2684381355	-0.2660058175	 0.108241
H	 2.7202831806	 0.7928634526	 1.4398507586	 0.115949
H	 1.4016534639	-1.3545712637	-1.8039619862	 0.222777
H	 2.3234921911	-2.319161118	 0.806576167	 0.098781
H	-0.0439947955	-3.1199225135	-0.5222698033	 0.115578
H	-0.1216573639	-2.7775427759	 1.1976953161	 0.119723
H	-1.8016198889	-1.1136242751	-0.074179223	 0.09998
