18
gdb 86685	2.57405	1.34354	0.9841	4.2579	75.35	-0.228	0.0239	0.2519	1202.1089	0.146465	-439.070147	-439.06122	-439.060276	-439.10457	32.561	
O	 0.1875896588	 1.171440411	-0.5752778493	-0.423074
C	 0.0538381172	-0.0812298333	 0.0437273675	-0.005075
C	 0.0186865012	-0.1161822317	 1.6089552644	-0.198825
N	-1.3260807029	-0.6863927196	 1.5178362637	-0.099939
C	-2.1059171169	-1.2216498285	 2.4795278913	 0.123666
O	-1.8130185567	-1.2625355775	 3.6588293816	-0.338691
C	-1.3992910416	-0.5720994345	 0.0731354868	 0.384106
C	-2.53463562	-0.0167511273	-0.7290604723	-0.310103
C	-2.1163281878	-1.4675499953	-0.8879557476	-0.335348
H	 1.1240676311	 1.3822166573	-0.6424262849	 0.292389
H	 0.7473176952	-0.8180348648	-0.380312585	 0.084527
H	 0.7416385212	-0.7671045114	 2.1082743963	 0.12449
H	 0.0391146294	 0.8806461255	 2.0607668624	 0.124945
H	-3.0551103765	-1.626758591	 2.073186329	 0.064481
H	-3.4646410083	 0.1878765306	-0.2094965721	 0.124928
H	-2.2822525442	 0.6878518228	-1.5133889546	 0.138958
H	-1.5925348603	-1.7620573716	-1.7921430354	 0.123507
H	-2.7699831187	-2.2317103007	-0.4806145017	 0.125058
