18
gdb 83314	2.63189	1.56048	1.34169	2.9349	72.26	-0.2298	-0.0269	0.2029	1020.2474	0.147055	-439.05425	-439.046007	-439.045063	-439.087163	30.547	
C	-0.3333629441	 1.4639715607	-0.1073553723	-0.341264
N	 0.0271189833	 0.0518023632	 0.0141364906	-0.086496
C	 1.3524417512	-0.4488981585	-0.301551727	-0.046444
C	 2.5303043833	 0.5089297789	-0.2804344682	-0.111983
O	 2.4583453279	 1.2127036673	 0.960394491	-0.247945
C	 1.7491146754	 0.4370305273	 1.8985270454	 0.008576
C	 1.0268168521	 1.3097286981	 2.9109901129	 0.150832
O	 0.9619213865	 2.5081125792	 2.8895845597	-0.23712
C	 0.8260628674	-0.4889197402	 1.0973918045	-0.088936
H	 0.4433708943	 2.1711067526	 0.2011291711	 0.153055
H	-0.5992244924	 1.6542055375	-1.1517875719	 0.121532
H	-1.2260019388	 1.6436645734	 0.4990384002	 0.128132
H	 1.4075679207	-1.3219896911	-0.946913309	 0.099539
H	 3.4690478788	-0.0609650632	-0.3586413176	 0.10455
H	 2.5167221818	 1.2577618762	-1.0794732285	 0.120717
H	 2.4244443425	-0.2139541726	 2.4902067079	 0.093302
H	 0.5463061739	 0.7090416864	 3.7189249137	 0.078429
H	 0.4563457662	-1.3873014051	 1.5844800975	 0.101525
