25
gdb 118035	3.22294	0.73186	0.62734	2.8149	90.51	-0.2434	-0.0169	0.2265	1858.7358	0.225523	-389.515278	-389.503493	-389.502549	-389.553431	41.644	
C	 0.0344191418	 1.605153957	 0.0847151171	-0.38004
C	-0.0873999522	 0.0806329329	-0.0007079978	-0.177057
C	 0.6618076905	-0.5010310866	-1.2077769651	-0.174812
C	 0.6929337829	-2.0399410128	-1.2743669326	 0.01247
C	-0.7234401648	-2.635235237	-1.3503965287	-0.406658
C	 1.5527783206	-2.5561747299	-2.4599478452	-0.048541
C	 3.0016519649	-2.0275942473	-2.4658990064	-0.425633
C	 1.6364790432	-4.070484446	-2.4104551656	 0.159158
O	 1.3293199817	-4.8223387074	-3.2988709647	-0.256341
H	 1.0814676653	 1.9152233429	 0.1756313813	 0.113498
H	-0.3744789516	 2.0855600159	-0.8112260309	 0.115128
H	-0.5066083514	 2.0007865052	 0.9498513803	 0.112602
H	 0.3064207861	-0.3701569504	 0.9203672911	 0.094283
H	-1.14769983	-0.1920192136	-0.0445948336	 0.102184
H	 0.2151298887	-0.1114197698	-2.1342495682	 0.092514
H	 1.6879440005	-0.117616701	-1.1804168372	 0.094597
H	 1.1667124245	-2.4021604728	-0.348160884	 0.070897
H	-0.7021998772	-3.7269526509	-1.4231916393	 0.12632
H	-1.3159463082	-2.3787317012	-0.4689364629	 0.118932
H	-1.2542173932	-2.2605967698	-2.2336060496	 0.11951
H	 1.065426046	-2.2950809165	-3.4068896211	 0.0896
H	 3.5064684634	-2.2435561174	-1.5172303869	 0.119899
H	 3.5794137893	-2.4951630659	-3.2691713483	 0.129929
H	 3.0318199714	-0.9477324785	-2.6248934256	 0.132165
H	 2.0504406178	-4.462346949	-1.448137636	 0.065395
