23
gdb 82234	2.33504	1.82585	1.33155	0.2995	87.24	-0.2553	0.0757	0.331	1079.7184	0.20854	-351.146313	-351.138388	-351.137444	-351.178261	32.881	
C	-0.6936350266	 1.3578777394	-0.0307944506	-0.393656
C	-0.0821683151	-0.0472013893	-0.0313678468	-0.000346
C	 0.7159569614	-0.4027423228	-1.288089334	-0.035507
C	 2.0512908545	 0.258315055	-1.5163571012	-0.296993
C	 1.9927637242	-1.1165024335	-0.8897823552	-0.048619
C	 2.0445511106	-1.2350957168	 0.6293503318	-0.021532
C	 3.0443435509	-0.3271487691	 1.4065107206	-0.227736
C	 1.8913438745	 0.6748977431	 1.7058598643	-0.239475
C	 0.8593469917	-0.3638657081	 1.1591747066	-0.010764
H	 0.0733535037	 2.1319446606	-0.1302301738	 0.11445
H	-1.3919784432	 1.4797502069	-0.8654691955	 0.1098
H	-1.2458538919	 1.5500393281	 0.8955266347	 0.108441
H	-0.9115033422	-0.7659852181	 0.0216167941	 0.06853
H	 0.1543034218	-0.7148390135	-2.1632122815	 0.074427
H	 2.404840447	 0.3152398602	-2.5406689873	 0.105331
H	 2.3419012695	 1.1114035915	-0.914112285	 0.109939
H	 2.3707628133	-1.9463679992	-1.4774705978	 0.075751
H	 2.0484364337	-2.2886818408	 0.921345488	 0.059652
H	 3.4327690905	-0.8038304591	 2.3103015361	 0.094695
H	 3.8911043162	 0.0561451121	 0.8315556335	 0.097206
H	 1.7621448723	 0.947567448	 2.7563079771	 0.091718
H	 1.9501148352	 1.6025289224	 1.1319500704	 0.100082
H	 0.3004510381	-0.8215019768	 1.9794366116	 0.064605
