17
gdb 18873	3.28717	2.58308	2.19048	0.8497	66.6	-0.1945	0.0922	0.2867	721.9413	0.144016	-363.804419	-363.798159	-363.797215	-363.834391	25.413	
C	-0.1951493159	 1.5246381804	-0.0153527114	-0.335744
N	 0.0767438048	 0.0928185243	-0.0341951592	-0.078874
C	 0.7016991879	-0.4881468589	-1.2163963558	-0.059009
C	 2.2176594447	-0.3137990683	-1.1800138668	 0.098813
O	 2.7549868834	 0.7146712406	-0.3740953697	-0.267692
C	 2.346999824	 0.443452025	 0.974436016	-0.089173
C	 1.1550321107	-0.4990847795	 0.8235914241	-0.034369
C	 1.5790686609	-1.3935344427	-0.3695810823	-0.161409
H	 0.6696636793	 2.1579681436	-0.2593393707	 0.121559
H	-0.9855719287	 1.732145932	-0.7449732813	 0.118471
H	-0.5792665711	 1.8085717431	 0.9705162376	 0.114825
H	 0.1336366581	-0.6975704502	-2.1182719579	 0.088762
H	 2.8103310848	-0.5312371038	-2.0610719285	 0.103591
H	 3.1626362897	-0.0316451033	 1.542043888	 0.094789
H	 2.0956164287	 1.3947710771	 1.4540033997	 0.110155
H	 0.8006484317	-0.9536964171	 1.7512798536	 0.077903
H	 1.7625168869	-2.4578804123	-0.3860033355	 0.097403
