19
gdb 40525	3.98274	1.15737	1.11903	1.9972	81.83	-0.215	0.0089	0.2239	1169.4905	0.160685	-385.827859	-385.820513	-385.819568	-385.859969	29.576	
C	-0.1539237003	 1.4224369539	-0.1215047772	-0.274158
C	 1.2478542983	 0.9745859148	 0.1615741006	-0.26941
C	 0.1330698052	-0.0572320442	 0.0803547716	-0.13536
C	-0.3304796113	-0.7569167102	 1.2790727972	 0.42623
C	-0.7230464535	-2.0204909316	 1.4881690336	-0.249205
C	-1.0573349229	-2.0001888476	 2.9874281052	 0.030193
C	-1.9042937947	-0.6973005267	 3.1065025234	-0.21756
C	-0.494460927	-0.1705209117	 2.7063784592	-0.051431
O	 0.0739510983	-1.2338245074	 3.5354676002	-0.285535
H	-0.6949399878	 1.942468875	 0.6616309697	 0.117679
H	-0.4034646807	 1.7496152948	-1.1246193091	 0.118098
H	 1.9709820196	 0.9886891956	-0.6460413132	 0.118714
H	 1.667951042	 1.1825612058	 1.1392263008	 0.124441
H	 0.1238387836	-0.6628669208	-0.8208315104	 0.087171
H	-0.796448494	-2.8563041991	 0.8083723922	 0.102732
H	-1.2793261502	-2.9251732744	 3.5175469492	 0.07898
H	-2.7399593456	-0.5494833261	 2.4192092572	 0.096755
H	-2.1654158482	-0.4507588887	 4.1386465343	 0.104755
H	-0.1291857107	 0.8297397185	 2.9382587856	 0.076913
