14
gdb 71984	2.85276	1.73818	1.25975	4.2824	67.02	-0.2455	-0.0093	0.2362	952.8306	0.100339	-436.617769	-436.610547	-436.609603	-436.649328	27.964	
O	-0.0946253212	 1.3536862867	-0.0870336495	-0.439045
C	 0.0467374213	-0.0034307121	-0.0741058719	 0.296177
C	 0.9653489814	-0.9093139315	-0.9002404135	-0.302714
C	 0.0647425375	-2.0523806564	-0.3650098942	 0.047512
O	 0.3909123172	-2.1231571577	 1.0578929127	-0.318302
C	-0.2953353204	-0.8840374624	 1.1844863409	 0.309591
C	-0.6208280158	-0.3247179812	 2.4494123255	 0.194215
N	-0.8726141167	 0.1656831862	 3.4671254608	-0.345858
C	-1.0804382997	-1.0060789401	-0.0954371761	-0.23198
H	 0.5664651695	 1.7521604157	 0.4917913849	 0.305882
H	 0.8119162317	-0.7371767723	-1.968150347	 0.125401
H	 2.0292215625	-0.9725051687	-0.6564202483	 0.115572
H	-0.0190074196	-3.0242692584	-0.8416641909	 0.110548
H	-2.1376965076	-0.9471747578	-0.3111999535	 0.133001
