19
gdb 41840	2.87103	2.04167	1.76425	2.2076	72.57	-0.2461	0.0822	0.3283	867.7024	0.164149	-423.058259	-423.052116	-423.051172	-423.088599	26.354	
C	-0.0473330142	 1.5432371295	-0.0882299231	-0.22523
C	 1.4207548424	 2.015113373	 0.1011700929	-0.225231
C	 2.2238927935	 0.728423277	 0.3358685388	 0.120762
O	 2.1575612247	 0.3362858908	 1.732647407	-0.285246
C	 1.2817635633	-0.7785713883	 1.7663502045	 0.197831
C	 1.7046367269	-1.6066826862	 0.5518905434	-0.254011
C	 1.4382752004	-0.4094468223	-0.3662267072	-0.112577
C	 0.0060565147	 0.0155555127	 0.0497137054	 0.12076
O	-0.0385688658	-0.3696135707	 1.4492936039	-0.285243
H	-0.734101909	 1.9620086816	 0.6502702013	 0.116997
H	-0.4241446741	 1.8144778544	-1.07986308	 0.09545
H	 1.7896245263	 2.5259987184	-0.7942782238	 0.09545
H	 1.5498930898	 2.696165154	 0.9449089621	 0.116996
H	 3.2775056851	 0.8125383895	 0.0522175565	 0.071309
H	 1.2924388383	-1.2124444376	 2.7645016488	 0.089881
H	 2.7503785921	-1.9184848503	 0.5881232448	 0.107148
H	 1.0535457388	-2.4638931274	 0.3691889663	 0.107148
H	 1.610075599	-0.5142495366	-1.4366827106	 0.076499
H	-0.8047726023	-0.4996052514	-0.474498391	 0.071309
