19
gdb 35964	3.13863	1.1871	0.91926	1.8475	77.55	-0.2578	0.0485	0.3063	1259.6197	0.159857	-422.986056	-422.977483	-422.976539	-423.019412	32.468	
C	 0.1191512947	-1.2098993769	 0.037559535	-0.433089
C	 0.0269420824	-0.0114415192	 0.0097349123	 0.302336
C	-0.0488690962	 1.4469086426	 0.0071264248	-0.190521
C	-0.8322772882	 1.9532879961	 1.2436692338	-0.240727
C	-1.3809531826	 3.3813848692	 1.1087851051	-0.085833
O	-0.5681855671	 4.2944313812	 0.3815928922	-0.23274
C	 0.8142142133	 4.2484150148	 0.5953826593	 0.01015
O	 1.4740375984	 3.399427277	-0.3055956487	-0.228269
C	 1.3944784538	 2.018417711	-0.0276848248	-0.082097
H	 0.187673616	-2.2695971868	 0.0462481441	 0.195597
H	-0.5573975283	 1.7795813612	-0.9068461479	 0.123157
H	-1.681435081	 1.2906512391	 1.4378979438	 0.119329
H	-0.1778177217	 1.8669654893	 2.1184587421	 0.112131
H	-2.3279126894	 3.3648692344	 0.559909791	 0.117349
H	-1.5933697907	 3.7799844606	 2.1127103873	 0.097873
H	 1.1940823615	 5.2506710594	 0.3829118366	 0.117456
H	 1.0512329446	 3.9730149621	 1.6378661813	 0.077314
H	 1.8822985074	 1.7845311645	 0.9328037732	 0.097438
H	 1.9605968131	 1.5249051804	-0.8208570705	 0.123145
