23
gdb 38417	3.48555	1.2462	1.22166	0.1853	88.04	-0.2608	0.087	0.3478	1165.6155	0.208592	-351.149075	-351.141239	-351.140295	-351.181122	32.538	
C	-0.0199578777	 1.4381273626	 0.919221703	-0.292848
C	 1.1764058279	 1.0313135538	 0.0917650089	-0.024319
C	 2.249632552	 0.1739538805	 0.7450908243	-0.276431
C	 1.4913278563	-0.9610890237	 1.4808227207	 0.358447
C	 2.3431767519	-2.2298966164	 1.777752035	-0.277287
C	 2.5660738119	-1.7307326481	 3.2289437674	-0.220761
C	 1.3851784078	-0.7464532891	 3.0296799148	-0.252451
C	 0.1872996746	-1.133786261	 0.6710305563	-0.297059
C	-0.0991676517	 0.2170810443	 0.0348209697	-0.024443
H	 0.0015506519	 1.3173614339	 1.9966827522	 0.113561
H	-0.5631363452	 2.3175376874	 0.58958651	 0.104044
H	 1.4666436914	 1.6759329796	-0.7309273002	 0.075832
H	 2.8862267943	-0.2547893249	-0.040163297	 0.092552
H	 2.9085459073	 0.7352186449	 1.4180764184	 0.093034
H	 1.7325987892	-3.1382247997	 1.7476351435	 0.094581
H	 3.2270327049	-2.3885256771	 1.1524042268	 0.089947
H	 2.4771061947	-2.4646660275	 4.0332475683	 0.094028
H	 3.5214662263	-1.2113132477	 3.3430535768	 0.101486
H	 1.5152658642	 0.2724242351	 3.4050432241	 0.09455
H	 0.4466813804	-1.1440771905	 3.4287358058	 0.093926
H	 0.3467128476	-1.8777196395	-0.1214166037	 0.09365
H	-0.6320068773	-1.5071933315	 1.296934658	 0.090126
H	-0.7512026928	 0.2535536944	-0.8311709431	 0.075834
