20
gdb 70319	3.00067	1.57704	1.30433	1.6505	78.1	-0.2176	0.0904	0.308	1048.6159	0.172251	-403.119283	-403.111452	-403.110508	-403.15108	31.492	
C	 0.365915979	 1.3183659156	-0.3786549896	-0.462657
C	-0.1789398356	-0.0107644563	 0.0908278139	 0.3767
C	-1.690646328	-0.1611148492	-0.0126877048	-0.220651
N	-2.3246506071	-1.323535779	 0.6033839533	-0.105929
C	-1.8831028998	-2.6700591139	 0.2303892436	-0.250808
C	-1.5878926129	-2.1197449812	 1.5858045062	-0.01343
C	-0.1739774084	-1.7588809514	 2.0137608526	-0.268218
C	 0.5486660673	-0.8163794158	 1.0804553946	-0.004681
O	 0.5945394374	-1.1594323526	-0.314004917	-0.292101
H	 1.4572724476	 1.3242177226	-0.3236388353	 0.128899
H	 0.0756612457	 1.5096252188	-1.4178867014	 0.126716
H	-0.0213018187	 2.139560648	 0.2337564831	 0.123115
H	-2.1365113518	 0.733327472	 0.4439470036	 0.107292
H	-1.9780810083	-0.1432773047	-1.0717659961	 0.113239
H	-2.6870842105	-3.3920705815	 0.1040064992	 0.103343
H	-1.0490231109	-2.7687659518	-0.4550283203	 0.138583
H	-2.2102967005	-2.4606033733	 2.4121154349	 0.087155
H	-0.2104051497	-1.2726136082	 2.997916192	 0.109514
H	 0.4198237291	-2.6723879819	 2.1487231815	 0.118348
H	 1.4933224762	-0.4275905562	 1.4647765361	 0.085573
