15
gdb 54061	2.16696	1.42523	0.95525	6.7287	69.13	-0.2713	-0.0233	0.2479	1192.5739	0.113262	-450.17315	-450.16409	-450.163146	-450.208057	31.895	
N	-0.0317930259	 1.3993525799	-0.0913347414	-0.564674
C	 0.0549887851	 0.027370185	 0.0365654471	 0.475302
O	 1.1033859131	-0.559961181	 0.1920629778	-0.371616
N	-1.1701043842	-0.6623188484	 0.0047945268	-0.118059
C	-1.1027082301	-2.1214648201	-0.0342598825	-0.303212
C	-1.1756605653	-2.7289548211	 1.3016827984	 0.291399
N	-1.2290545579	-3.2196628685	 2.345439686	-0.304327
C	-2.4180447982	-0.0674630728	 0.1527759829	 0.085248
N	-3.482048121	-0.7571575299	 0.0917927539	-0.455412
H	 0.8791445568	 1.8269043081	-0.1698502723	 0.274539
H	-0.7279409298	 1.790595461	-0.7062938956	 0.263205
H	-1.9411566696	-2.4861108828	-0.6309649447	 0.182139
H	-0.1558104915	-2.4011338879	-0.4967074959	 0.182353
H	-2.3620413912	 1.0049068971	 0.3489840523	 0.123865
H	-4.3009815503	-0.1730065387	 0.2422778172	 0.239249
