21
gdb 112548	2.90989	1.10193	0.99934	2.0932	80.01	-0.2207	-0.0236	0.1971	1327.2884	0.179241	-424.229219	-424.218874	-424.21793	-424.264577	37.229	
C	 0.3358875493	 1.7076375554	-0.6977665465	-0.24971
O	 0.6070818846	 0.4696891366	-0.0610902515	-0.242549
C	 0.6556313874	-0.6067904613	-0.9489079923	 0.04086
C	 0.9227422962	-1.991116176	-0.2996521005	-0.321314
C	-0.2341270386	-2.6405800291	-1.1372737691	 0.194145
C	 0.2661791523	-3.3737916475	-2.3905218442	-0.437996
C	-1.2649840175	-3.470020673	-0.3754674305	-0.440541
C	-0.6837546981	-1.1967792485	-1.4596920775	 0.347652
O	-1.7291917679	-0.7141658565	-1.7936278723	-0.314138
H	 1.1133372239	 1.9524020203	-1.4386083709	 0.103223
H	-0.6391751136	 1.697510331	-1.1982388948	 0.14028
H	 0.3367312789	 2.4723731672	 0.0820674438	 0.127936
H	 1.3404697208	-0.4036694015	-1.7906238428	 0.083476
H	 1.9218016405	-2.4052830195	-0.4430171186	 0.105578
H	 0.6892901034	-1.9556536035	 0.7667702651	 0.121682
H	 0.7455375953	-4.3180654872	-2.1089875519	 0.12213
H	-0.5659022165	-3.602247591	-3.0639080413	 0.131126
H	 0.9982547116	-2.7820726758	-2.9496544146	 0.118038
H	-1.6193311984	-2.9453179498	 0.5168296792	 0.122293
H	-2.1338690093	-3.6769173033	-1.0081120239	 0.131469
H	-0.8361437841	-4.4277032871	-0.060372265	 0.11636
