18
gdb 43010	2.24761	2.02041	1.3318	3.3325	76.17	-0.2301	-0.0199	0.2103	989.1937	0.150033	-401.929339	-401.922137	-401.921193	-401.960806	28.959	
O	-0.0065375454	 0.6044991325	-1.3137602562	-0.342578
C	-0.0092945864	 1.3142556684	-0.327840466	 0.402754
C	-1.2837927991	 1.8209465127	 0.2559080366	-0.135821
C	-1.6292079818	 1.6548383535	 1.734493843	-0.309448
C	-1.2284486294	 2.9991490279	 1.21562506	-0.032501
C	 0.1167673075	 3.6618684102	 1.4957855491	-0.181643
N	 1.3537851492	 2.9542387153	 1.1498041092	-0.095083
C	 1.6423966445	 1.6460398294	 1.6939854878	-0.257059
C	 1.2906454765	 1.8030105993	 0.239715545	-0.120732
H	-2.110959768	 1.7379088425	-0.4398676805	 0.11203
H	-2.6803732449	 1.4941209896	 1.9484180447	 0.126718
H	-0.9699358576	 1.0863969181	 2.3754023063	 0.129278
H	-2.0352212543	 3.7208978535	 1.1179652671	 0.100849
H	 0.1390903337	 4.5982164922	 0.9257538008	 0.121085
H	 0.18780433	 3.9389930876	 2.5541554344	 0.11748
H	 2.6848263626	 1.4718094534	 1.949904126	 0.127875
H	 0.9383902765	 1.1558555534	 2.3566420404	 0.121588
H	 2.0960004664	 1.7357068505	-0.4871779676	 0.115209
