16
gdb 24204	4.18542	1.55905	1.3551	2.6315	74.73	-0.1887	0.0363	0.2249	940.1753	0.127994	-400.714347	-400.708058	-400.707114	-400.745082	25.961	
C	-0.0496971491	 1.5957976095	-0.0436285147	-0.210052
C	 1.4876165219	 1.3157552968	-0.0041405329	-0.083626
O	 1.1788728574	 0.1851762092	 0.890581048	-0.286037
C	-0.0165250622	 0.0344452444	 0.0182853192	-0.096627
C	 0.6324344672	-0.3220378268	-1.3160045913	 0.361406
C	 1.6740431114	 0.5749933101	-1.3199651113	 0.357959
N	 2.4135115041	 0.3948368908	-2.444001276	-0.427892
C	 1.8348716823	-0.6301685371	-3.1764597033	-0.070973
C	 0.7215660715	-1.097636349	-2.4942216328	-0.389165
H	-0.4093944016	 2.0450670615	 0.8855827044	 0.104963
H	-0.4748757075	 2.0763899037	-0.9275057029	 0.098919
H	 2.2272854151	 2.0152343091	 0.3813143463	 0.082602
H	-0.8111854786	-0.5679552102	 0.4530392693	 0.083005
H	 3.2428401905	 0.8949836815	-2.7133870841	 0.261388
H	 2.2671311733	-0.942472778	-4.1135812117	 0.11762
H	 0.0787556443	-1.8972944354	-2.8293655561	 0.096509
