20
gdb 88606	2.73998	1.2493	1.13076	1.5757	74.78	-0.2234	0.0546	0.278	1176.9791	0.169801	-440.21539	-440.205963	-440.205019	-440.249884	35.318	
C	 3.0055992416	-1.4569324337	 1.3060360437	-0.320316
N	 1.7863742954	-1.2365722927	 0.533794537	-0.096403
C	 0.5479106949	-1.73421224	 1.1197633367	-0.271062
C	 0.8098698827	-0.2622967869	 1.036674304	-0.031444
C	 1.0631860021	 0.637181878	 2.2109633083	-0.127384
C	-0.0726046102	 1.0551650577	 3.1363811214	 0.0071
O	-1.2641664674	 0.3112432147	 3.1256625012	-0.427645
C	 1.0894899486	 0.2770817928	 3.6913295898	 0.097816
O	 0.8362340258	-1.0097902052	 4.1550561138	-0.424143
H	 2.8514403414	-1.4854664016	 2.3931508913	 0.132759
H	 3.438557718	-2.4133783621	 0.9960593544	 0.120996
H	 3.7292940578	-0.6692918979	 1.0718250937	 0.115288
H	-0.1497895347	-2.2011993353	 0.4278947376	 0.105828
H	 0.6072871351	-2.1920489819	 2.1016569958	 0.131584
H	 0.3292873899	 0.2732521528	 0.2156481941	 0.089382
H	 1.7310462507	 1.461979608	 1.9657362336	 0.096882
H	-0.2130744397	 2.1060734754	 3.3778868781	 0.098201
H	-1.5316268213	 0.1599066432	 2.213302831	 0.303072
H	 1.8276043432	 0.7923616036	 4.2990742649	 0.10492
H	-0.1233249941	-1.1273155592	 4.0793693195	 0.294571
