17
gdb 85148	1.94698	1.769	1.07606	1.6358	70.18	-0.2535	-0.0531	0.2004	1127.2784	0.133278	-458.990893	-458.981981	-458.981037	-459.024994	32.664	
C	 0.1306120081	 1.3281820428	 0.2641873082	-0.480492
C	 0.0943723446	-0.1639412568	 0.0372336366	 0.397174
O	 1.0944371207	-0.8564608307	 0.091959866	-0.32984
C	-1.2789416988	-0.7614857374	-0.1861822213	-0.297166
C	-1.3281658807	-2.2868591728	-0.5678147724	 0.141988
O	-0.2361855335	-2.8614450403	-1.2064267643	-0.434219
C	-1.6192156405	-2.6540215625	 0.9273845797	-0.381126
C	-1.8908367299	-1.1789196326	 1.1917129272	 0.402851
O	-2.4186864146	-0.5450964267	 2.0555968708	-0.286906
H	 1.1329715944	 1.6409857448	 0.5582555903	 0.148088
H	-0.165736531	 1.852323621	-0.6515866811	 0.149307
H	-0.5975776061	 1.5986389113	 1.0376447723	 0.16593
H	-1.9136377282	-0.0719970653	-0.7485968389	 0.112427
H	-2.2068972198	-2.4835634621	-1.1883097334	 0.105583
H	 0.5556306599	-2.4790561451	-0.7957508721	 0.29937
H	-2.4157538849	-3.3626315596	 1.1634447465	 0.136047
H	-0.6992226899	-2.965216368	 1.4368247459	 0.150984
