23
gdb 118290	2.34127	0.72902	0.57866	2.9061	84.1	-0.2549	-0.0265	0.2284	1957.1826	0.20127	-425.436552	-425.424996	-425.424052	-425.475186	39.603	
C	 0.0872497444	 1.6522842168	-0.0467553457	-0.381214
C	 0.0086025957	 0.1237754487	-0.0442157384	-0.169911
C	 0.7166465989	-0.5117266609	-1.2454257779	-0.171998
C	 0.6851077667	-2.0399225011	-1.246721586	 0.141569
C	 1.2946037383	-2.6311157808	-2.5199504199	-0.407428
O	 1.393242819	-2.4657154364	-0.0809481268	-0.260597
C	 1.1711974556	-3.7912265535	 0.3180531027	-0.151397
C	 1.778986613	-3.9769241539	 1.6987861322	 0.140872
O	 1.840579424	-5.0357698773	 2.2642849051	-0.238712
H	 1.1276470694	 1.9948719673	-0.0192914117	 0.115233
H	-0.3746152109	 2.074302555	-0.9465818579	 0.111548
H	-0.4257640967	 2.0786462811	 0.8208636007	 0.112438
H	 0.4516649329	-0.2724291711	 0.875193243	 0.109771
H	-1.0443995908	-0.1889808305	-0.0389077642	 0.089446
H	 0.2593538764	-0.157221706	-2.1778533947	 0.093016
H	 1.7668585838	-0.1918837689	-1.2707027235	 0.10234
H	-0.3626572252	-2.3772980128	-1.1584336735	 0.065213
H	 2.3377817471	-2.3159682721	-2.6235478005	 0.125639
H	 1.2658023822	-3.7246465027	-2.5151344619	 0.117571
H	 0.7409196818	-2.2907302958	-3.4004000903	 0.11912
H	 0.0940001388	-4.0262272862	 0.3823154135	 0.118893
H	 1.6202150018	-4.5323376286	-0.3612139256	 0.123967
H	 2.1591915137	-3.0322504302	 2.1467567614	 0.094621
