15
gdb 53930	1.81649	1.5903	1.28369	3.4196	73.77	-0.2427	0.0074	0.2501	1086.3763	0.109295	-416.750849	-416.740922	-416.739978	-416.78545	36.443	
N	-0.0515725997	 1.3275464784	 0.1186323568	-0.524401
C	 0.0947629573	-0.0034253415	-0.0635515668	 0.41081
O	 1.1337495069	-0.5774570039	-0.2902796416	-0.353087
C	-1.2815535669	-0.7816029782	 0.0128174795	-0.255821
N	-2.2690396921	 0.0182237082	 0.7796686413	-0.546411
C	-1.7641308197	-0.9138155656	-1.3674421795	 0.406284
C	-2.1711081832	-1.0035373569	-2.4932581169	-0.485566
C	-1.0495169699	-2.1078601725	 0.6020666783	 0.354514
C	-0.9145380336	-3.1694501653	 1.1470394798	-0.451613
H	 0.753210321	 1.9227677966	 0.0191549478	 0.264782
H	-0.9694385547	 1.7018330217	 0.2996312984	 0.276077
H	-3.1980405357	-0.3496634077	 0.5964344836	 0.248941
H	-2.0907973095	-0.1211285404	 1.7716069608	 0.244875
H	-2.5177104212	-1.0955055312	-3.4931765436	 0.208268
H	-0.7724383589	-4.1151532317	 1.6092143821	 0.202347
