19
gdb 95267	2.63744	1.78757	1.38954	0.5283	73.64	-0.2392	0.0689	0.3081	980.2686	0.161911	-422.989117	-422.981892	-422.980948	-423.020564	29.607	
O	 0.000025835	 1.4353568382	 0.0308615717	-0.428526
C	 0.0185590996	 0.0105259741	 0.0139888446	 0.066307
C	 0.9465864334	-0.5265683761	 1.124483735	-0.11838
O	 0.6796308324	-1.8641191077	 1.5108759656	-0.261581
C	-0.6842009292	-2.0920516208	 1.8113770233	 0.104992
C	-1.4468243234	-0.9843312031	 2.6224739308	-0.276488
C	-2.2519819262	-0.6642072564	 1.3655182304	-0.066908
C	-1.6599868101	-1.8784117569	 0.6392373266	-0.105267
C	-1.4036407157	-0.4945875219	 0.1233042328	-0.024037
H	 0.8720853296	 1.7491982324	-0.2301566728	 0.283139
H	 0.3951332665	-0.3473567603	-0.9580054371	 0.070081
H	 1.9871007193	-0.5165649438	 0.7831421566	 0.096108
H	 0.8722828155	 0.1582411484	 1.9798253634	 0.102955
H	-0.7255636509	-3.0816286	 2.2674448635	 0.086179
H	-2.0727644633	-1.4522057426	 3.3869487614	 0.103805
H	-0.8702131017	-0.1854240746	 3.0939051751	 0.106228
H	-3.2811515425	-0.325711467	 1.358907531	 0.086822
H	-2.141740898	-2.6547358643	 0.0579406613	 0.083019
H	-2.0055993302	-0.2249823076	-0.7410504234	 0.091551
