19
gdb 84346	2.11235	1.59296	1.30742	1.4693	81.53	-0.2551	0.0016	0.2568	1087.3995	0.158291	-385.865431	-385.856354	-385.85541	-385.899067	34.761	
C	-0.8973311363	 1.1198716036	-0.1288238509	-0.400178
C	-0.0390357317	-0.1387930659	-0.0984798897	-0.025275
C	 1.1164802953	-0.1751042989	-1.1368450292	 0.086683
O	 1.7228542151	 1.0906626707	-1.3894676431	-0.429938
C	 2.0952375108	-1.1409838491	-0.5058021381	-0.099231
C	 1.868134492	-1.2901262068	 0.7975921972	-0.069914
C	 0.6618946077	-0.4805759765	 1.2617730065	-0.236932
C	 1.0958967697	 0.6846187256	 2.0329073719	 0.348217
C	 1.4818492466	 1.6412009966	 2.6528301626	-0.496838
H	-0.2994139578	 2.0142038026	 0.0556563258	 0.129985
H	-1.3730561335	 1.2324481369	-1.1081468446	 0.114628
H	-1.6870197877	 1.0751864143	 0.6280441746	 0.110155
H	-0.6705317029	-1.0077811086	-0.3191062918	 0.083889
H	 0.7521615128	-0.5028158452	-2.1156219446	 0.084658
H	 2.151435813	 1.371349756	-0.5718671066	 0.282588
H	 2.9218550481	-1.5735889038	-1.0577487767	 0.102683
H	 2.4699016795	-1.8625056678	 1.4940595284	 0.108834
H	-0.0089110072	-1.0785546525	 1.8911143905	 0.106161
H	 1.8106340564	 2.4830945388	 3.2104781678	 0.199825
