23
gdb 120302	3.18917	0.89964	0.8093	1.7335	86.64	-0.2278	0.0766	0.3044	1567.1488	0.204632	-388.256709	-388.246848	-388.245904	-388.291854	36.617	
C	-0.146248327	 1.5468568453	-0.01676125	-0.381953
C	-0.129257066	 0.0224094532	-0.1543210414	-0.154804
C	 0.9211847243	-0.4767765246	-1.1566515668	-0.209718
C	 0.933159247	-1.9858303346	-1.2810718944	-0.084425
C	 0.0766610246	-2.7469010232	-2.2532274157	 0.04599
O	-0.0960718116	-2.0143909194	-3.4719713453	-0.287442
C	 1.3294829199	-2.0998203613	-3.7330565352	-0.134143
C	 1.5864433581	-2.7947835631	-2.3950630265	 0.231549
C	 2.596394862	-3.8820520272	-2.1722297771	-0.49876
H	 0.8246472923	 1.9247858401	 0.3232241717	 0.111071
H	-0.3692829827	 2.0274829487	-0.9757943195	 0.116188
H	-0.9018098118	 1.8755416986	 0.7037767172	 0.109598
H	 0.0589253769	-0.4324058698	 0.8275549776	 0.089116
H	-1.1182948288	-0.3321567984	-0.469985012	 0.103618
H	 0.7137258636	-0.0339219817	-2.1363878672	 0.112099
H	 1.9149313659	-0.1216259782	-0.8513409632	 0.088581
H	 1.0231766449	-2.5114827401	-0.3296489956	 0.080122
H	-0.6701570069	-3.4947915168	-2.007756803	 0.096319
H	 1.5196271254	-2.7533747055	-4.5934323116	 0.103363
H	 1.7861536553	-1.1185929837	-3.9092899126	 0.101685
H	 3.6132788147	-3.4763498214	-2.1029710807	 0.121764
H	 2.3971567379	-4.4207554052	-1.2402627733	 0.121232
H	 2.5850426222	-4.6127501517	-2.9893064653	 0.118949
