15
gdb 18005	5.20964	1.49035	1.32297	3.6415	63.3	-0.2478	0.018	0.2657	910.8388	0.119557	-399.775616	-399.768716	-399.767772	-399.807777	24.756	
O	-0.0208680354	-0.0428154967	 0.3332376284	-0.325184
C	 0.0153689993	 1.1695240251	 0.3191471699	 0.12958
N	 1.1116043501	 1.8995733849	 0.0113433477	-0.036845
C	 2.4712944719	 1.477705261	-0.3540278787	-0.188723
C	 2.8266831803	 2.9785757303	-0.5140505972	 0.097457
O	 2.578733421	 3.4855483786	-1.8342898052	-0.286917
C	 1.2496098747	 3.9392607348	-1.4757572297	-0.084042
C	 1.3798316197	 3.3326162197	-0.0635619695	-0.068549
H	-0.8522606694	 1.8151690168	 0.5703174488	 0.067706
H	 2.9882298427	 0.9544450001	 0.4577825451	 0.125828
H	 2.5384331146	 0.8929980953	-1.2752882313	 0.137936
H	 3.7500299781	 3.3534844538	-0.0714828412	 0.098418
H	 1.18973461	 5.0347497513	-1.4888596766	 0.111662
H	 0.4694081008	 3.5157218523	-2.1167298016	 0.118395
H	 1.0912302816	 3.9270428228	 0.803943291	 0.103276
