18
gdb 90638	3.73721	1.08935	1.01314	3.2559	78.64	-0.2372	0.0214	0.2585	1226.4068	0.148473	-398.096148	-398.087504	-398.08656	-398.129062	33.007	
C	-0.0757147559	 1.4700909979	-0.0545427223	-0.387463
C	 0.025673071	-0.0410410299	 0.0714808478	 0.037137
N	 1.0644574957	-0.6222172929	-0.8435569357	-0.32836
C	 1.8220476689	-1.1143054183	 0.293387078	-0.032934
C	 0.8324040849	-0.5363841745	 1.2796396047	-0.127999
C	 1.0014628896	-2.0488127696	 1.1959673098	 0.118854
N	-0.0329568809	-2.8694636408	 0.6245115493	-0.56471
C	 1.7604612146	-2.6146782257	 2.2909848885	 0.232123
N	 2.3525382009	-3.1117042008	 3.1534018644	-0.343297
H	 0.9075680415	 1.937015992	 0.0535716818	 0.125867
H	-0.4734615453	 1.7405815918	-1.037265538	 0.122992
H	-0.7443561315	 1.8776971199	 0.7118936327	 0.112816
H	-0.957910368	-0.5092290398	-0.0339935333	 0.087943
H	 0.7062110809	-1.3662788573	-1.4377687757	 0.225467
H	 2.9055837516	-1.1504031497	 0.299245083	 0.115462
H	 1.001353907	-0.0018629019	 2.2054124394	 0.114666
H	 0.3388324389	-3.7736992224	 0.3503211275	 0.245616
H	-0.7736349239	-3.0395899779	 1.298235288	 0.245819
