20
gdb 15198	8.67388	0.665	0.6506	2.3213	72.86	-0.2436	0.0777	0.3213	1732.9561	0.175206	-386.107078	-386.097547	-386.096602	-386.142608	33.227	
O	-0.1345867278	 1.3705148763	-0.0155503271	-0.419466
C	-0.1125293168	-0.0123521978	 0.303197396	-0.071965
C	-1.3860908205	-0.6361419658	-0.2516537826	-0.182175
C	-1.4802472596	-2.127905304	 0.0340979326	-0.059039
O	-2.6866464725	-2.6122699707	-0.5307741124	-0.248928
C	-2.8780809722	-3.9763294413	-0.3333607539	 0.150593
C	-3.4937568981	-4.4560438932	 0.9579116155	-0.287912
C	-4.2918938957	-4.4553566341	-0.3325612288	-0.287174
H	 0.6675765898	 1.7712925095	 0.3314006065	 0.285301
H	 0.7695692324	-0.5078283694	-0.1354891128	 0.08462
H	-0.0622106032	-0.1684454724	 1.3937093594	 0.084424
H	-2.2535312574	-0.1276597771	 0.1824637542	 0.115032
H	-1.426012735	-0.4705463749	-1.333405462	 0.116644
H	-0.6181244138	-2.6615814312	-0.4015122548	 0.083998
H	-1.4642639471	-2.3223607049	 1.1187779546	 0.088248
H	-2.1179641539	-4.6076579383	-0.7970791175	 0.079942
H	-3.1695091995	-5.4032596489	 1.3748787796	 0.110719
H	-3.7470403315	-3.6970874925	 1.6897702178	 0.118208
H	-5.0559185172	-3.693909688	-0.4386706061	 0.125993
H	-4.5195676207	-5.4010711913	-0.8110282083	 0.112939
