19
gdb 61508	3.46414	0.77037	0.72562	1.7162	73.57	-0.2513	-0.0497	0.2016	1584.0748	0.155131	-460.181182	-460.170779	-460.169834	-460.218365	35.872	
C	 0.8032668652	-0.2432159805	 1.2261504585	-0.397669
C	 0.04298586	 0.1929743171	-0.0269799635	-0.070023
C	 0.6787568023	-0.4029666361	-1.3073993405	-0.227193
C	 0.033953627	 0.0860549171	-2.6208015729	 0.033352
O	-0.065820133	 1.4836408372	-2.6519287344	-0.43237
C	 0.8339862285	-0.4103830186	-3.8083773476	 0.140042
O	 1.2866358102	 0.3503333309	-4.6290633556	-0.258114
C	-1.4332338034	-0.1493956585	 0.0631407085	 0.145243
O	-1.9279507568	-0.8242117951	 0.9310250166	-0.246581
H	 0.7582803348	-1.3285981722	 1.3535197569	 0.129302
H	 1.8538090242	 0.0556449155	 1.1635509014	 0.111967
H	 0.3682680042	 0.2067937652	 2.1218721653	 0.130284
H	 0.0905228576	 1.2844108057	-0.1441099127	 0.121087
H	 1.7385520996	-0.1215570034	-1.3122147246	 0.117111
H	 0.634520291	-1.4990383302	-1.2693101815	 0.111329
H	-0.9672850465	-0.3721237254	-2.7191102067	 0.099724
H	 0.3879312744	 1.7622733618	-3.4636355627	 0.297921
H	 0.982038954	-1.5068607826	-3.8817986649	 0.103878
H	-2.0648713432	 0.283610952	-0.7444869796	 0.090711
