13
gdb 23956	1.98374	1.90481	0.97174	4.4902	82.75	-0.2315	-0.0428	0.1887	1113.5401	0.090511	-378.496395	-378.488762	-378.487818	-378.528651	28.607	
C	 0.0588064697	-1.2191301326	-0.0042706819	-0.406264
C	 0.0255671178	-0.0157079823	 0.0026788422	 0.206869
C	 0.0024666394	 1.3959484723	 0.0105761516	 0.095085
C	-1.1390157384	 2.2024383248	 0.0309146743	 0.135538
N	-0.7207966488	 3.5133620703	 0.0320682767	-0.306799
C	 0.6417384691	 3.5648786743	 0.0132372345	-0.066655
C	 1.1222972673	 2.2757829987	-0.0004190995	-0.250455
C	-2.5049788448	 1.8562054237	 0.0482224838	 0.200015
N	-3.6349798483	 1.5968421689	 0.0626992357	-0.35189
H	 0.075768884	-2.2807122465	-0.0102495246	 0.193624
H	-1.3419613674	 4.3046804558	 0.0450650981	 0.284945
H	 1.1607346485	 4.509661208	 0.011018306	 0.144175
H	 2.157339732	 1.9757970044	-0.0165544671	 0.121813
