17
gdb 114928	3.17448	1.07525	0.8507	5.1893	75.75	-0.273	-0.0544	0.2186	1342.9616	0.136298	-418.03777	-418.029114	-418.028169	-418.071988	30.873	
C	 0.1384463116	 1.543201645	-0.0267522537	-0.388954
C	 0.1999973099	 0.014139349	-0.0213091302	-0.189102
C	 0.6306321497	-0.574009336	 1.3154439081	 0.087731
C	 0.7843089146	-2.1203947185	 1.336148373	-0.214144
N	 2.207398975	-2.3733893053	 1.6106855714	-0.301326
C	 2.7305483859	-1.2254426136	 1.7535804273	 0.320985
O	 1.9796683079	-0.1071583866	 1.6445128844	-0.260356
C	 4.1226393678	-1.0048522553	 2.0376168131	 0.286117
N	 5.2397976041	-0.8217093826	 2.265984501	-0.312072
H	 1.1160583773	 1.9720302507	 0.2084661868	 0.141068
H	-0.171323648	 1.917723171	-1.0062826394	 0.121896
H	-0.5781250505	 1.9126578757	 0.7149513666	 0.119312
H	-0.7850151248	-0.4073808897	-0.2603808381	 0.11012
H	 0.8888663658	-0.3443815793	-0.7965583835	 0.113056
H	-0.017371493	-0.2114767769	 2.1196763487	 0.102284
H	 0.1757823139	-2.598589187	 2.1098865313	 0.133389
H	 0.5118166827	-2.5759303004	 0.377495263	 0.129998
