21
gdb 107174	2.90469	1.20724	1.13867	1.4114	82.42	-0.2009	0.0729	0.2738	1216.5697	0.181646	-387.013787	-387.004919	-387.003975	-387.047108	34.785	
C	-0.2443177592	 1.5021365909	 0.0517481701	-0.371278
C	 0.1126304801	 0.0090193607	 0.0758833138	-0.288272
C	 0.7211341417	-0.4669461456	-1.2140600201	 0.379106
C	-0.0830603818	-0.9439631274	-2.3960497785	-0.356441
C	 0.9110023778	-1.8766366637	-1.7385919114	-0.140198
C	 2.399916703	-1.5878894793	-2.0545968461	-0.132659
C	 2.7002937707	-0.4034002243	-2.9295862038	 0.088586
O	 2.0425960742	-0.0055952087	-4.1027337523	-0.416813
C	 2.2084465017	-0.1346048444	-1.5479682333	-0.156287
H	 0.6397177227	 2.1164497827	-0.1501204469	 0.118495
H	-0.9786316359	 1.7152351938	-0.7315512438	 0.120439
H	-0.6636829784	 1.8252845628	 1.0097606744	 0.107101
H	 0.8068753074	-0.1876371187	 0.9048468961	 0.092236
H	-0.78762097	-0.5828261513	 0.2836613449	 0.093798
H	-1.1140671721	-1.179177834	-2.1409286534	 0.099073
H	 0.0646114769	-0.5510997039	-3.390539665	 0.13466
H	 0.6030502862	-2.8047789206	-1.2730020549	 0.084281
H	 3.1800496556	-2.2893904349	-1.7818794252	 0.084295
H	 3.7806385812	-0.2385168449	-2.9833209555	 0.089746
H	 2.2159257571	-0.6765782509	-4.772238198	 0.284696
H	 2.8197860509	 0.4107869619	-0.8374877313	 0.085434
