20
gdb 71295	2.5813	1.96639	1.46294	0.922	77.78	-0.2172	0.0922	0.3094	971.903	0.172712	-403.106236	-403.098826	-403.097882	-403.137501	30.685	
C	-0.0141241542	 1.4449703612	-0.0749768019	-0.45354
C	-0.0246030995	-0.0659438947	 0.0166519828	 0.395203
C	-1.3684742216	-0.7155319478	 0.5238163182	-0.321666
C	-0.5681400726	-1.4244808235	 1.6238160524	-0.047959
C	 0.6872947848	-0.6747197967	 1.2491842567	-0.094501
N	 0.6256114903	-2.1143096295	 1.1645580318	-0.095131
C	 0.8045085296	-2.7556097762	-0.140892715	-0.157349
C	 0.3233884365	-1.9620167976	-1.3721108553	-0.098758
O	 0.4781727799	-0.560103204	-1.2177845026	-0.29785
H	 0.9958891927	 1.7968894254	-0.3076780729	 0.12583
H	-0.6863303292	 1.787172961	-0.8674002832	 0.123346
H	-0.3284979664	 1.8930308976	 0.8721699397	 0.115359
H	-2.0207873221	 0.054167728	 0.9450221967	 0.106171
H	-1.9559847196	-1.3251924829	-0.165370527	 0.101947
H	-0.9385024464	-1.6791138842	 2.6106439479	 0.094683
H	 1.4485613079	-0.1996072056	 1.860758	 0.083481
H	 1.8828748545	-2.9323193084	-0.2267290165	 0.113605
H	 0.3174649148	-3.7365689577	-0.1199474274	 0.106668
H	 0.9225274849	-2.2391407463	-2.2446522998	 0.106887
H	-0.7224777842	-2.2027456383	-1.6086075646	 0.093574
