16
gdb 27556	4.07596	1.09051	0.91691	3.4246	72.27	-0.2	0.0415	0.2415	1234.6301	0.126985	-434.083173	-434.075427	-434.074483	-434.115723	29.489	
O	-0.0203023543	 1.2701992602	 0.0618160084	-0.424049
C	-0.006113906	-0.0702813647	-0.0109375787	 0.456197
N	-0.1188803569	-0.8008504744	-1.086529501	-0.4394
C	-0.0433111196	-2.1160998321	-0.6342311444	 0.317583
C	 0.121608362	-2.1411507051	 0.7208018789	-0.214009
N	 0.1385578096	-0.8043208269	 1.1172810759	-0.30516
C	-0.1210686446	-3.2422035029	-1.5803299827	-0.102741
C	-0.9984005157	-3.1442164462	-2.7800275478	-0.238017
N	 0.4620610195	-3.0887050251	-2.9300735979	-0.326939
H	-0.132797995	 1.5905949846	-0.8418295617	 0.315531
H	 0.2246347104	-2.9458065196	 1.4282289952	 0.131515
H	 0.2498839407	-0.4418846879	 2.0483370483	 0.27374
H	 0.0438427686	-4.2206151967	-1.1363285454	 0.082663
H	-1.4686289032	-4.0395419854	-3.1780430256	 0.111383
H	-1.5652326203	-2.2254414538	-2.8976795362	 0.121527
H	 0.7368926147	-2.1126608339	-3.0316379352	 0.240177
