16
gdb 46536	4.17643	1.17238	1.07203	3.2099	66.07	-0.2619	0.0404	0.3024	1119.9525	0.125039	-475.015553	-475.007977	-475.007033	-475.04855	27.756	
N	-0.1745622824	 1.2655452876	-0.1913471803	-0.572266
C	-0.0163230906	 0.0381968991	 0.0157468427	 0.481094
O	 1.1594681124	-0.6230776632	 0.2220691039	-0.248321
C	 0.8759389281	-1.9762483446	 0.5785420452	-0.170866
C	-0.5786342659	-2.1661201069	 0.1404148967	 0.311489
C	-0.9025967003	-3.0692044445	-1.0720228418	-0.123281
O	-1.587174619	-4.0111577375	-0.2220830279	-0.266828
C	-1.4794569414	-3.1387760337	 0.9192164388	-0.132194
O	-1.0584211783	-0.832040601	 0.0557985586	-0.250187
H	 0.7200798055	 1.7475621216	-0.1503956678	 0.235004
H	 1.5766630448	-2.6356971532	 0.0624686145	 0.137241
H	 0.9919478511	-2.1020415364	 1.662111665	 0.124973
H	-1.5730855844	-2.5885237036	-1.7940324687	 0.125483
H	-0.0526682503	-3.5226660736	-1.5952825522	 0.110449
H	-1.0267603832	-3.6379314736	 1.7846044723	 0.110333
H	-2.4397499159	-2.6953615567	 1.2078505111	 0.127878
