15
gdb 5422	3.32598	1.86729	1.20487	5.6823	71.77	-0.2201	-0.0238	0.1963	950.8882	0.119495	-362.723781	-362.716119	-362.715175	-362.757118	27.309	
C	 0.004789596	 1.5061496043	 0.0648391064	-0.50833
C	 0.0227627656	 0.0163686147	-0.0455289078	 0.235742
C	-0.0420510798	-0.8366869153	-1.145522709	 0.114812
C	-0.1503452781	-0.4483173215	-2.5416086454	 0.069757
O	-0.204279011	-1.2228548599	-3.4753865944	-0.296788
C	 0.0174512008	-2.181965215	-0.6542180232	-0.235818
C	 0.1149662859	-2.1140177492	 0.7046255108	-0.07539
N	 0.1171288346	-0.7765584805	 1.0602547243	-0.291643
H	 0.9206561917	 1.8880845733	 0.5318921727	 0.137389
H	-0.0788272573	 1.9661740015	-0.920629925	 0.151971
H	-0.8422849721	 1.8566425843	 0.6668389685	 0.137238
H	-0.1832223034	 0.6503143219	-2.7237998524	 0.047166
H	-0.0113209872	-3.0693837686	-1.2653365407	 0.123836
H	 0.1831638764	-2.8829455354	 1.4570720876	 0.12772
H	 0.179630558	-0.4327254148	 2.0039652176	 0.262339
