19
gdb 71754	3.35639	1.83824	1.54351	1.8532	77.01	-0.2359	0.0718	0.3077	915.7705	0.161512	-385.837688	-385.831204	-385.830259	-385.86808	27.849	
C	 0.0405732743	 1.5683932872	-0.0076811751	-0.509461
C	 0.062291993	 0.0609306808	-0.0107406128	 0.339187
C	 0.8603164095	-0.784009067	-1.0283793385	-0.292953
C	 0.6958539565	-1.9204113354	 0.0103694076	-0.056954
C	-0.8168439459	-2.218889852	 0.0562357613	 0.087787
O	-1.1131153231	-2.5373132023	 1.4414803741	-0.302494
C	-0.8451308582	-1.1456863345	 1.684987747	 0.087144
C	 0.6008055597	-0.8434488236	 1.1603986914	-0.11962
C	-1.2634040931	-0.7243579966	 0.2516152612	-0.134682
H	 1.055575591	 1.9806662603	-0.002924114	 0.115736
H	-0.471650852	 1.9570577674	-0.8961973867	 0.117635
H	-0.4830262624	 1.9614386772	 0.8713807498	 0.117028
H	 0.4423896054	-0.9374468921	-2.0305757807	 0.088035
H	 1.897015173	-0.443572642	-1.1166908639	 0.097897
H	 1.3706907795	-2.7734582563	 0.0602856617	 0.070758
H	-1.255566292	-2.9128475872	-0.6598400904	 0.079045
H	-1.211262523	-0.7643217831	 2.6371261144	 0.079632
H	 1.4661322805	-0.6155851866	 1.779011273	 0.066486
H	-2.2575406029	-0.3963489541	-0.0467895095	 0.069794
