18
gdb 125874	3.63098	1.11948	1.0961	3.2946	77.26	-0.2464	0.0115	0.258	1187.9105	0.150108	-398.148768	-398.140648	-398.139704	-398.18312	30.013	
C	-0.1419707083	 1.4939586561	-0.1084383662	-0.410652
C	 0.004635158	-0.0042912468	 0.0199233684	 0.02309
C	 1.3342507921	-0.6754479736	-0.1917451206	-0.320853
C	 0.7370480624	-0.6371773552	 1.197646774	-0.121932
C	 1.3150705913	 0.1716736306	 2.2853997582	 0.380244
N	 0.7622763827	 0.3823766954	 3.4721458956	-0.323622
C	 1.6751785021	 1.1669447056	 4.105718594	 0.022476
N	 2.756174298	 1.4615916119	 3.4034514021	-0.218631
N	 2.5058899983	 0.8136615595	 2.2384788538	-0.245116
H	 0.7544924857	 2.0186528384	 0.2358150664	 0.118712
H	-0.3142484214	 1.7786507359	-1.151829441	 0.120745
H	-0.9855082514	 1.8596432052	 0.4858245162	 0.134166
H	-0.8639862241	-0.5689299887	-0.3072753965	 0.097129
H	 1.3777650373	-1.6337684249	-0.6965685363	 0.123178
H	 2.1810452169	-0.0308281143	-0.4091406911	 0.104634
H	 0.3007717633	-1.559805167	 1.5648609379	 0.11802
H	 1.5400037991	 1.531811457	 5.1131576358	 0.123115
H	 3.195899538	 0.820355605	 1.5063151994	 0.275297
