18
gdb 71480	4.03075	1.23998	1.1379	3.9607	77.52	-0.2469	-0.0364	0.2105	1117.3507	0.146848	-401.909153	-401.901089	-401.900144	-401.941687	30.728	
C	 0.0319253944	 1.5426057704	 0.0720636113	-0.495625
C	 0.0203197104	 0.0440512153	 0.0179616797	 0.343276
C	-1.2672586749	-0.7867094559	 0.2532360565	-0.286675
C	-0.318135762	-1.7936326144	 0.8680687483	-0.060309
N	 0.7252274789	-0.7800311333	 1.1633739055	-0.196866
C	 0.9458697865	-1.801037229	 0.0472857548	 0.23547
C	 0.8226186115	-0.7482840348	-1.037875979	-0.35564
C	 1.9567990903	-2.869609375	 0.2041927403	 0.05756
O	 2.0104853469	-3.6147927167	 1.1524608633	-0.254821
H	 1.056604451	 1.9266782873	 0.0561752132	 0.13041
H	-0.5029274222	 1.9595999265	-0.7892396025	 0.125282
H	-0.4538995361	 1.9050363414	 0.9833201322	 0.130506
H	-1.9003758515	-0.3293789546	 1.0182649092	 0.116453
H	-1.8733667297	-1.0686896176	-0.6135915355	 0.102155
H	-0.5145879872	-2.6065415277	 1.5568285816	 0.119745
H	 0.326620312	-1.0020194457	-1.9804611675	 0.102114
H	 1.7881650696	-0.275513152	-1.2406749193	 0.113243
H	 2.6865583522	-2.944884964	-0.6335570721	 0.073722
