14
gdb 18861	4.52823	2.25501	1.88496	1.1795	59.59	-0.2416	-0.0124	0.2292	702.1567	0.10911	-378.662638	-378.65684	-378.655896	-378.692218	23.292	
O	 0.0250864144	 1.3159664879	 0.1278358325	-0.435327
C	 0.0106632077	-0.086574521	 0.0017899016	 0.121098
C	-1.4564431503	-0.5093978552	-0.1195840166	-0.045401
C	-1.3519255642	-0.5935496711	-1.5973145814	-0.038608
C	 0.2054589681	-0.5936177107	-1.478785957	-0.089851
N	 0.6092427422	-2.0051346385	-1.372136524	-0.189362
C	-0.429323164	-2.5925074002	-0.9351351966	 0.037088
N	-1.6416233058	-1.8194583459	-0.834696414	-0.162703
H	 0.940320132	 1.6084789537	 0.0646919375	 0.290167
H	 0.643796883	-0.5791327836	 0.7513660216	 0.078445
H	-2.2642302717	-0.1914975297	 0.5272573578	 0.114049
H	-2.0111366644	-0.2744234842	-2.3955378592	 0.106029
H	 0.8330581917	 0.0030552626	-2.1371296897	 0.08126
H	-0.4671057286	-3.639740064	-0.6544754124	 0.133114
