18
gdb 68983	3.36701	1.10559	0.95697	5.165	76.8	-0.2604	0.0287	0.2891	1260.4414	0.146157	-401.938416	-401.929549	-401.928605	-401.97238	32.706	
C	-0.1861320075	 1.4790967784	 0.1381513377	-0.499562
C	 0.1719215031	 0.0340714918	 0.015842091	 0.332548
C	 0.6172620735	-0.7417696212	-1.2383978264	-0.277348
C	 1.3813593493	-1.7425519656	-0.3023699149	-0.287294
C	 0.8857823458	-0.9171820318	 0.8942894071	 0.356563
C	 1.521881199	-0.7493054398	 2.248631198	-0.453384
C	 1.530601515	-1.9953520256	 3.0202426565	 0.267229
N	 1.5474537521	-2.9842546457	 3.6168809155	-0.301642
O	-0.5451826573	-0.9155751168	 0.8303970412	-0.314467
H	 0.5854002532	 2.1108018114	-0.3134578698	 0.127711
H	-1.1312378319	 1.6832630709	-0.3775098672	 0.140069
H	-0.3083050956	 1.7648299852	 1.1863979825	 0.132375
H	-0.2010226276	-1.1535511091	-1.83310538	 0.116075
H	 1.2898989715	-0.1722305442	-1.8843269865	 0.107491
H	 1.0489336015	-2.7823208259	-0.3096001448	 0.125662
H	 2.4647712758	-1.7029625801	-0.4398775797	 0.108829
H	 2.5574991777	-0.4066635843	 2.1377119	 0.156279
H	 0.9786569225	 0.0140066824	 2.8148608399	 0.162866
