20
gdb 78285	2.21217	1.67444	1.48212	0.8382	78.17	-0.2474	0.0685	0.3159	1035.0837	0.17	-403.094029	-403.085091	-403.084147	-403.126942	34.711	
C	-0.0466533834	 1.5381944601	 0.0033075042	-0.485342
C	-0.089696021	 0.0385738837	 0.0859162486	 0.254261
N	 1.1224144435	-0.7224242777	-0.24245315	-0.413909
C	 0.5194178521	-0.9396009989	 1.0786793877	 0.254215
C	 1.3643527071	-0.7276489486	 2.3029003672	-0.485341
C	-0.7130188356	-1.8218878428	 0.9954245454	-0.181164
C	-1.9553557672	-1.0435119796	 1.3295598489	 0.11874
O	-2.0617257491	-0.0839642346	 2.3402170814	-0.431963
C	-1.3377615798	-0.8186163534	-0.022818311	-0.181147
H	 0.9208217495	 1.9187949264	 0.3409044408	 0.131504
H	-0.1898398678	 1.8721307973	-1.0310318243	 0.126919
H	-0.8411547722	 1.9920853189	 0.6055385426	 0.119757
H	 0.9292297623	-1.4913279583	-0.8815413685	 0.221731
H	 2.040921766	 0.1200086608	 2.1666420215	 0.131516
H	 0.7437260691	-0.5530675863	 3.1884991907	 0.11973
H	 1.9799891528	-1.611984932	 2.5049289978	 0.126928
H	-0.700962778	-2.9064101385	 0.9419196003	 0.085705
H	-2.8708491883	-1.6292729755	 1.3141148254	 0.108909
H	-1.2503699007	 0.4333011871	 2.3530571065	 0.293245
H	-1.8602180093	-1.0447559179	-0.9475315651	 0.085705
