19
gdb 72623	2.47469	1.43639	1.19527	1.5065	83.34	-0.2237	0.0424	0.2661	1131.2058	0.156179	-385.826488	-385.817121	-385.816176	-385.859974	35.481	
C	 0.0246890945	 1.6108656311	-0.0091825061	-0.495675
C	 0.0728392051	 0.1141726281	 0.0488293683	 0.18611
C	 0.627710123	-0.8102256267	-1.0291874805	-0.137786
O	 1.1069349666	-1.751114237	-0.0297421913	-0.325092
C	 0.6736142399	-0.8766784985	 1.0166294395	 0.427302
C	 1.4981758168	-0.8033168448	 2.257009315	-0.494439
C	-0.8479216592	-0.7540031195	 0.9326895322	-0.344266
C	-1.5499113973	-0.112354502	 2.001828911	 0.314115
C	-2.1371619104	 0.4232220976	 2.906739246	-0.436181
H	 1.0016639863	 2.0274274466	-0.2776048256	 0.120016
H	-0.7017882261	 1.9511419185	-0.7567860596	 0.125463
H	-0.2756872816	 2.0298706214	 0.954343209	 0.139926
H	-0.0789676182	-1.2679739516	-1.7316731562	 0.105242
H	 1.4693919629	-0.3743987007	-1.5810199478	 0.109425
H	 2.5130933415	-0.4602613157	 2.0342353794	 0.126813
H	 1.0395065386	-0.1234424688	 2.9786017648	 0.140676
H	 1.5671959878	-1.7946690361	 2.7187492514	 0.136742
H	-1.370637118	-1.5840488272	 0.4601126632	 0.108925
H	-2.6632798521	 0.8861136054	 3.7042704873	 0.192684
