21
gdb 73448	2.2166	1.84749	1.52847	1.1868	81.46	-0.2331	0.0769	0.31	1015.8785	0.183679	-387.076447	-387.068307	-387.067363	-387.108339	33.187	
C	-0.0827343403	 1.4402028337	 0.0242515484	-0.488929
C	-0.0184874974	-0.0670582534	-0.0374934135	 0.317245
C	 1.0400462339	-0.7376420287	-0.9235263408	-0.289628
C	 0.3807621315	-2.0729353282	-1.3664420751	-0.210672
C	-0.7261609518	-2.288753857	-0.3255724709	-0.107466
C	-0.1399691416	-2.3062738469	 1.1260117747	-0.240789
C	-0.4505342635	-0.8152681524	 1.2426651869	-0.192792
C	-1.2836737228	-0.8609127057	-0.0325361673	 0.339914
O	-2.5088078035	-0.3298816558	-0.3809653426	-0.463529
H	 0.8299032789	 1.859020056	 0.4636173169	 0.111663
H	-0.1972694525	 1.8680066613	-0.9780068572	 0.117626
H	-0.9333506362	 1.7772677285	 0.6235034134	 0.120195
H	 1.2857440867	-0.1029389375	-1.7812078451	 0.094817
H	 1.9758350603	-0.904838052	-0.3782249674	 0.096585
H	-0.0620080567	-1.9681685354	-2.3635345988	 0.099274
H	 1.0907254047	-2.9054687397	-1.4062282521	 0.091553
H	-1.4400904135	-3.0786825971	-0.5635555062	 0.060779
H	-0.7502742085	-2.9020863352	 1.8106925174	 0.093453
H	 0.9053368002	-2.6220550538	 1.2222242267	 0.088516
H	-0.6094620138	-0.2573904244	 2.159440492	 0.077458
H	-3.1924582541	-0.7763450461	 0.1303515304	 0.284725
