21
gdb 56901	2.3007	1.16816	0.94028	1.7121	84.85	-0.2469	0.0543	0.3011	1355.072	0.178652	-387.045979	-387.035475	-387.03453	-387.081192	39.486	
C	-0.1920206343	 1.442488745	 0.0966857904	-0.388019
C	 0.0847417635	-0.0605643631	-0.1176459189	-0.195684
C	 0.8217126496	-0.2858603533	-1.3628274918	 0.342904
C	 1.439930045	-0.4552452203	-2.3800479767	-0.473221
C	 0.8285415834	-0.651392837	 1.0755168679	-0.006087
C	 0.0790233418	-1.1169405681	 2.3122563575	-0.371381
C	 0.8136563616	-2.1070313927	 1.4323409028	 0.398979
C	 0.0584269822	-3.1392635898	 0.6257448199	-0.453593
O	 2.0615569166	-2.5601141665	 1.8985590781	-0.469617
H	 0.747021939	 1.9967525337	 0.1844715386	 0.126994
H	-0.7546924355	 1.8588382859	-0.7428431837	 0.122278
H	-0.7673985095	 1.5903546764	 1.0152314219	 0.117896
H	-0.8863448766	-0.5655850891	-0.2061167312	 0.098831
H	 1.9829216259	-0.6142333982	-3.278466082	 0.193319
H	 1.7855739404	-0.1750875456	 1.2694388343	 0.103227
H	 0.5107206631	-0.8875521591	 3.2800106439	 0.111145
H	-1.0069546785	-1.1102913616	 2.2819002652	 0.104495
H	-0.905963913	-2.7634490785	 0.274914189	 0.11734
H	 0.6459386063	-3.4503616108	-0.242985538	 0.137681
H	-0.1424321962	-4.0269012233	 1.2386795479	 0.104956
H	 1.8976917151	-3.272508764	 2.5270209951	 0.277558
