21
gdb 121897	3.66426	0.67903	0.60138	2.311	77.23	-0.2534	-0.0275	0.2259	1870.123	0.178599	-461.372887	-461.361797	-461.360853	-461.410372	38.129	
C	-0.0216979955	 1.3849421736	 0.0651127197	-0.22853
O	-0.0577908226	-0.008564819	 0.2559335755	-0.234668
C	-1.3223330601	-0.566522171	-0.0289521072	-0.050095
C	-1.2241925245	-2.076434764	 0.1495289254	-0.225822
C	-2.574780488	-2.7666418955	-0.1066848116	 0.031867
O	-3.0618191994	-2.4581850429	-1.3854084218	-0.438337
C	-2.4738235534	-4.2875190136	 0.0507136349	 0.367796
C	-2.002617501	-4.8568560927	 1.3677690042	-0.482176
O	-2.7789828031	-4.9911020837	-0.8896911059	-0.318537
H	 0.9904523016	 1.7225221377	 0.3015503534	 0.125277
H	-0.2555264674	 1.6617413156	-0.9751302621	 0.105797
H	-0.7330983888	 1.9078356408	 0.7246186726	 0.101854
H	-2.0890771647	-0.151297879	 0.6499577847	 0.079959
H	-1.6352848792	-0.3305124016	-1.0564843909	 0.113789
H	-0.4757888392	-2.4701014569	-0.5476372062	 0.115397
H	-0.8773789865	-2.2885667543	 1.1668453499	 0.105342
H	-3.291783878	-2.4182026537	 0.6599530048	 0.086571
H	-3.1841082139	-3.3184432951	-1.8213711019	 0.29253
H	-0.914428059	-4.7501812583	 1.4441425878	 0.16018
H	-2.4393134304	-4.3198782059	 2.2151674712	 0.141491
H	-2.254607667	-5.9167176605	 1.4206153434	 0.150317
