18
gdb 74740	2.41029	1.84015	1.37987	3.4639	76.09	-0.226	-0.0074	0.2186	995.8822	0.150213	-401.990644	-401.9833	-401.982356	-402.0222	29.582	
C	 0.0252440019	 1.4735645158	 0.0642957749	-0.512904
C	-0.0478567778	-0.012878191	-0.0227630007	 0.341025
C	-0.0631354977	-0.8191275488	-1.0905546104	-0.19988
C	-0.008653085	-2.2603706565	-0.5593070233	-0.049494
C	-0.8775355369	-2.109409249	 0.7101234327	-0.211047
C	-0.0122918957	-0.9279168882	 1.2192159309	-0.224246
C	 1.3985652564	-1.5712468756	 1.1470570086	 0.416372
O	 2.3771981844	-1.3095990771	 1.8046575821	-0.382135
N	 1.3006796184	-2.484324697	 0.106828362	-0.303902
H	 0.9396242563	 1.788826373	 0.5817334665	 0.146996
H	 0.0157688567	 1.9346074176	-0.9270638449	 0.126753
H	-0.815644491	 1.8793185436	 0.6405735531	 0.129714
H	-0.0301342318	-0.5339034361	-2.134222712	 0.098308
H	-0.2516262124	-3.0649940867	-1.2514091469	 0.077686
H	-1.9057945083	-1.8157102559	 0.4942779198	 0.107099
H	-0.8508412381	-2.9955232197	 1.3497160421	 0.109943
H	-0.2356851539	-0.4651866831	 2.1780153605	 0.082264
H	 2.1314296945	-2.6792472952	-0.4322619251	 0.247447
