22
gdb 17623	3.31436	1.24343	1.16419	1.5296	78.07	-0.2578	0.0728	0.3305	1186.6919	0.198556	-350.196543	-350.186753	-350.185809	-350.231034	36.164	
C	-0.048660479	 1.5087704637	 0.2051050479	-0.408692
C	 0.0129549936	-0.0065644875	-0.0372375647	 0.045378
C	-1.3929454085	-0.61972384	 0.0059812729	-0.396502
C	 0.7120017277	-0.3674696936	-1.3699526498	 0.123236
O	 0.024992283	 0.1945952265	-2.4911535196	-0.443465
C	 2.1885825537	-0.0330421296	-1.3923225613	-0.010435
C	 3.200011394	-1.0354288822	-0.8921381134	-0.266287
C	 3.0951657756	-0.7386932227	-2.3666468289	-0.27184
H	 0.9446191891	 1.9677561316	 0.2373636685	 0.111059
H	-0.6310151743	 2.0052971501	-0.5791520242	 0.112435
H	-0.5387007351	 1.7262477441	 1.1590918332	 0.115007
H	 0.6161495763	-0.4580915076	 0.7624153279	 0.072107
H	-1.9948111241	-0.2478044557	-0.8286687401	 0.129326
H	-1.3527306161	-1.7116543909	-0.072186315	 0.105729
H	-1.9064474908	-0.3692894053	 0.9398849311	 0.103034
H	 0.6137972936	-1.4523439627	-1.5107682454	 0.072084
H	 0.2929720171	 1.1156964662	-2.5687885667	 0.278599
H	 2.4220329303	 1.011351749	-1.1964818727	 0.077183
H	 4.0638457866	-0.6688051078	-0.3488740455	 0.110572
H	 2.8309194625	-1.99332215	-0.5397661741	 0.112363
H	 2.6480323127	-1.4908206754	-3.0079012628	 0.119696
H	 3.891381402	-0.1714407701	-2.8357908973	 0.109415
