17
gdb 64914	1.95491	1.80798	1.12322	2.5977	76.59	-0.2414	-0.0313	0.2101	1106.6003	0.131155	-421.785808	-421.776057	-421.775113	-421.819808	36.049	
C	-0.1306769952	 1.487539931	-0.0254637681	-0.450117
C	 0.0193355994	-0.0275377007	 0.0018743014	 0.086556
C	 1.4023353889	-0.6194592974	-0.1664313276	-0.37651
C	 0.7879727299	-0.6311843509	 1.2104570113	 0.242284
O	 1.2017869847	 0.2873156965	 2.1776900345	-0.456991
C	 0.3213869936	-1.9333272489	 1.7773223276	 0.096402
O	 0.1600254448	-2.9455199259	 1.14341514	-0.252063
C	-1.1059355672	-0.746132037	-0.5326408234	 0.311128
C	-2.0710338165	-1.2895180107	-0.9998036412	-0.447721
H	 0.7171021327	 1.9722584343	 0.4596162291	 0.13001
H	-0.1975092162	 1.8313662566	-1.0618102044	 0.130699
H	-1.0436518897	 1.7919450996	 0.4932366974	 0.135938
H	 1.4811336865	-1.584301159	-0.6542234754	 0.151029
H	 2.2162812933	 0.0778339193	-0.3343478074	 0.122423
H	 2.1284960324	 0.1184271661	 2.3796117934	 0.294741
H	 0.138319651	-1.8794250594	 2.8731500454	 0.086084
H	-2.9127400824	-1.7932329334	-1.4062078425	 0.196107
