21
gdb 65561	3.52165	0.96387	0.89401	2.5256	78.15	-0.246	0.0691	0.315	1385.604	0.180984	-424.189481	-424.180107	-424.179163	-424.224512	34.376	
C	-0.4215276811	 1.565921547	-0.3501658984	-0.435824
C	-0.0402397052	 0.1152226462	-0.0899957665	 0.431674
C	-1.252285099	-0.8030865097	 0.1056165091	-0.275484
C	-2.0687961953	-0.4570024853	 1.32942828	 0.09733
C	-3.3491533076	 0.2598625414	 1.2572182169	-0.175795
O	-3.3116181098	-1.1502727486	 1.475267385	-0.24213
C	 1.06093179	-0.4676994793	-1.0151510942	-0.338161
C	 1.893885684	-0.5889844543	 0.2744427674	-0.064359
O	 0.8519032608	 0.0183240901	 1.0640097986	-0.323949
H	 0.4754605561	 2.1788707189	-0.4738045778	 0.11812
H	-1.0274345223	 1.6495402752	-1.2593167534	 0.114187
H	-0.9990292725	 1.972604061	 0.4849264141	 0.128927
H	-1.8901184132	-0.7753743374	-0.7860601363	 0.100928
H	-0.8939616793	-1.8342165694	 0.2133733978	 0.106347
H	-1.4915891078	-0.3780901629	 2.2503778674	 0.111604
H	-3.6891370187	 0.8567624155	 2.1027445151	 0.114415
H	-3.7348550793	 0.5719672453	 0.2868115345	 0.108518
H	 0.8078982729	-1.4061209832	-1.5117339349	 0.109107
H	 1.4501172909	 0.2358097715	-1.7532845993	 0.107979
H	 2.1115660002	-1.6135156195	 0.6008212508	 0.103069
H	 2.8224355563	-0.0069484424	 0.3059812141	 0.103495
