12
gdb 382	7.64075	2.25059	1.83982	2.1731	48.25	-0.2624	0.0188	0.2813	638.4935	0.094585	-306.320806	-306.313986	-306.313042	-306.351017	24.263	
O	 0.1320068592	 1.3939139374	-0.0449737236	-0.416905
C	 0.1014091857	-0.0073626669	 0.0692486058	-0.056954
C	-1.3551827935	-0.5085048431	 0.0507402764	-0.06125
O	-2.0172717023	 0.0238365614	-1.1039148748	-0.428928
C	-1.4325001838	-1.9645726578	 0.1145515532	 0.286986
C	-1.4520701481	-3.1665532127	 0.1255482161	-0.441743
H	-0.4936196708	 1.6097901644	-0.7492713379	 0.288003
H	 0.6537579337	-0.504725774	-0.7462831229	 0.085144
H	 0.5816373512	-0.2806626312	 1.0138800534	 0.120025
H	-1.879729976	-0.062067474	 0.9032400101	 0.128489
H	-1.7825685995	-0.5341898481	-1.8547759814	 0.290773
H	-1.4862573457	-4.2280042253	 0.1522165156	 0.20636
