18
gdb 75778	2.39796	1.29065	1.22208	3.5364	79.67	-0.2472	0.0268	0.274	1150.51	0.144865	-401.943375	-401.933695	-401.932751	-401.977819	35.207	
C	-0.1278038226	 1.3833341219	 0.0451164198	-0.354071
N	 0.037344927	-0.0466453942	-0.000347498	-0.075171
C	 0.0071799451	-0.9360091475	-1.0460037686	 0.421965
O	-0.0369294217	-0.7739328498	-2.2372992897	-0.374189
C	 0.0429599419	-2.1390120715	-0.0811653919	-0.435753
C	 0.044258395	-1.0697956695	 1.0710004999	 0.10806
C	 1.3020773135	-1.0443881281	 1.945291236	-0.440337
C	-1.1706365524	-1.0493374411	 1.8834952543	 0.323953
C	-2.1634445698	-1.0070463526	 2.5602175755	-0.473959
H	 0.7364507955	 1.8801115761	 0.5011289576	 0.129031
H	-0.2310379188	 1.7337258694	-0.9845463114	 0.163415
H	-1.0284872898	 1.6555939622	 0.6079904715	 0.13783
H	-0.8442853358	-2.7712419886	-0.1199013227	 0.141092
H	 0.9447405041	-2.7514219396	-0.1356832517	 0.131819
H	 2.1954953189	-1.0651139304	 1.3146474973	 0.124943
H	 1.3287868188	-0.142634725	 2.5638017536	 0.131339
H	 1.3172761871	-1.9103092032	 2.6128997741	 0.136375
H	-3.045497496	-0.9807349284	 3.1515900942	 0.203658
