18
gdb 104549	2.46089	1.2516	1.00265	3.5925	79.	-0.2513	0.0211	0.2724	1241.2158	0.145285	-401.942537	-401.933162	-401.932218	-401.976736	35.004	
C	 0.0549039694	 1.5770242961	 0.0807768197	-0.393583
C	 0.0086969768	 0.0583884194	-0.097324478	-0.221796
C	-1.4113139061	-0.5278371236	-0.0430589493	 0.140081
C	-1.4826910706	-2.0864147819	 0.155575067	-0.449751
C	-2.1973191881	-1.7763369709	 1.4897722547	 0.443583
O	-2.7039630243	-2.4175346566	 2.3680575049	-0.35365
N	-2.0467075932	-0.4214051826	 1.2927320853	-0.34739
C	-2.2529077301	-0.0277290952	-1.1277440723	 0.328569
C	-2.9375489627	 0.3927616857	-2.0221558106	-0.467947
H	 1.085452499	 1.9405855843	 0.0385768041	 0.121462
H	-0.5168268963	 2.0847062785	-0.7015345497	 0.133336
H	-0.3594048052	 1.8713371958	 1.0510958799	 0.115564
H	 0.4561298209	-0.2236020089	-1.0574010815	 0.112368
H	 0.5939241514	-0.4289962301	 0.6906582078	 0.104971
H	-2.1062173934	-2.6131390911	-0.5667349642	 0.143574
H	-0.5143070441	-2.5808230594	 0.2498869129	 0.133295
H	-2.5153411873	 0.3593733072	 1.7301907858	 0.25355
H	-3.5502077561	 0.7568568735	-2.8100117666	 0.203766
