18
gdb 78403	3.22682	1.32833	1.19872	2.3305	75.67	-0.233	-0.0313	0.2017	1099.3247	0.147372	-401.890994	-401.883324	-401.88238	-401.923077	30.107	
C	-0.0586288676	 1.4563580119	 0.0005208604	-0.425793
C	 0.0138514684	-0.0549428342	-0.0642910364	-0.039786
C	 0.747507169	-0.6481208382	-1.2417777467	-0.081628
C	 1.3750739096	-0.6678769019	 0.1513372449	-0.020484
N	 1.430946086	-2.1515964567	 0.1770104652	-0.132723
C	 0.2843774116	-2.8661794232	 0.8252849346	-0.313657
C	-0.4311323862	-2.9387912158	-0.5457290782	 0.38875
O	-1.4508161107	-3.4110448524	-0.9469865061	-0.284095
C	 0.7653393464	-2.1836362168	-1.1779429153	-0.128169
H	 0.8636984546	 1.912802313	-0.3746746554	 0.12057
H	-0.8874216546	 1.8378032896	-0.6047176477	 0.127066
H	-0.2055324238	 1.7991848963	 1.0299158727	 0.124159
H	-0.8766667452	-0.5547143252	 0.3097410383	 0.094059
H	 1.01284603	-0.0659598854	-2.1149499595	 0.097929
H	 2.2017624864	-0.0934197147	 0.5553841673	 0.097349
H	 0.5784673742	-3.847202521	 1.2134984409	 0.137091
H	-0.2457750045	-2.3198624092	 1.6117879087	 0.134656
H	 1.2965954564	-2.6937229761	-1.9862434376	 0.104706
