18
gdb 23275	2.7467	1.47407	1.13679	0.7367	75.32	-0.2332	0.0021	0.2353	1101.1078	0.146958	-439.03349	-439.025137	-439.024193	-439.066209	32.255	
C	 0.6032505524	 1.4957444342	-0.3026878244	-0.398118
C	 0.0696559534	 0.125949432	 0.117533246	 0.041272
O	 0.1838821336	-0.8232282083	-0.9567266826	-0.284079
C	 1.0113316255	-1.8938200457	-0.5875684235	 0.113154
C	 2.4553057019	-1.6014955129	-0.3218371677	-0.330523
C	 1.4692775403	-1.7387888459	 0.8426667584	-0.164322
C	 0.7929470523	-0.506317872	 1.2973511605	 0.385303
N	 0.7609180826	-0.1549106936	 2.5213389028	-0.243198
O	-0.0486009802	 0.9872158359	 2.6983478409	-0.396303
H	 1.6744306162	 1.4582285998	-0.518862962	 0.117633
H	 0.0826756997	 1.8292453933	-1.2044901771	 0.126136
H	 0.4318365807	 2.2181304937	 0.4979395476	 0.142583
H	-0.9949439073	 0.2250384241	 0.3683483783	 0.113496
H	 0.6946778074	-2.8390853943	-1.0133638192	 0.107357
H	 3.1631572052	-2.4162891266	-0.4305631381	 0.122425
H	 2.8450279847	-0.621941282	-0.5731888025	 0.128138
H	 1.5805791728	-2.5602416182	 1.5379377542	 0.110839
H	-0.0038420909	 1.1208625963	 3.6508038385	 0.308206
