19
gdb 67278	3.09336	1.87138	1.71187	1.704	77.35	-0.2357	0.0589	0.2945	898.6113	0.161136	-385.821769	-385.815172	-385.814228	-385.852257	28.11	
C	-0.0240977636	 1.5693736107	 0.0125754936	-0.541033
C	-0.0447410612	 0.068484828	 0.0021471332	 0.354696
C	 0.7325239138	-0.8661824034	-0.9764977477	 0.031458
O	 1.6232918456	-1.3157644054	 0.068813827	-0.290052
C	 0.64156838	-0.8789062949	 1.0350650268	 0.03146
C	-0.6242177781	-1.8273771196	 1.028338153	-0.068932
C	-0.4305970232	-2.9322867908	-0.0342892509	-0.226863
C	-0.5281702146	-1.8139292261	-1.096006699	-0.068931
C	-1.2724592153	-0.8957032398	-0.0594586942	-0.122941
H	 1.0036363106	 1.9470242489	 0.0613837547	 0.127518
H	-0.4901444019	 1.9798068605	-0.8907504763	 0.119731
H	-0.5699099747	 1.9686321201	 0.8753237218	 0.119731
H	 1.2598062179	-0.5680816146	-1.8846830851	 0.073377
H	 1.0845705125	-0.592595963	 1.9908193878	 0.073377
H	-1.0745501074	-2.0495281962	 1.9960120497	 0.062182
H	 0.4883115422	-3.5218389853	 0.0035245204	 0.107559
H	-1.301996787	-3.5914237674	-0.0778635742	 0.094504
H	-0.8892185782	-2.0235792478	-2.103098535	 0.062182
H	-2.3232940775	-0.6167728739	-0.1052034855	 0.060979
