21
gdb 104374	2.12225	1.55165	1.35046	1.6753	78.57	-0.2254	-0.0207	0.2047	1118.3852	0.18128	-424.255712	-424.246208	-424.245264	-424.289661	35.647	
C	-0.1763894641	 1.2813647022	 0.0199373882	-0.252946
O	-0.0695493177	-0.1203646724	-0.170992445	-0.293581
C	 0.8142679799	-0.5810489949	-1.2108288755	 0.306015
C	 2.2233300908	-0.0210401311	-1.0961284484	-0.47159
C	 0.6917366043	-2.1070220516	-1.168030491	-0.250443
C	-0.6754421583	-2.4066844003	-1.8216115425	-0.217855
C	-0.7700202025	-1.390779098	-2.9728276564	-0.315331
C	 0.1031141833	-0.2122107438	-2.5409433619	 0.392565
O	 0.2044809112	 0.8497785528	-3.1038511466	-0.334691
H	 0.7509984906	 1.7135890984	 0.4172892075	 0.111103
H	-0.4418263466	 1.8103153676	-0.9028688692	 0.134515
H	-0.9708647152	 1.4246810493	 0.7566506115	 0.125139
H	 2.6162308533	-0.1730555371	-0.086150889	 0.12114
H	 2.8878588971	-0.524567459	-1.8044200967	 0.118876
H	 2.2406043098	 1.0458016852	-1.3324306189	 0.138217
H	 1.5016675059	-2.5505812582	-1.7589961779	 0.097765
H	 0.7715844039	-2.4809083551	-0.1445865512	 0.110667
H	-0.7595819296	-3.4419619602	-2.1599084067	 0.098561
H	-1.4717691899	-2.2251595607	-1.0955204804	 0.121931
H	-0.3334435092	-1.7889627147	-3.8983282376	 0.130438
H	-1.7817534369	-1.0601194884	-3.2209161721	 0.129506
