20
gdb 22535	2.14806	1.37269	0.98527	1.1944	78.15	-0.2406	0.004	0.2446	1280.4376	0.168509	-440.230337	-440.220572	-440.219628	-440.264855	37.1	
C	-0.4047204439	 1.4268173762	-0.1078542954	-0.379474
C	 0.1006405023	-0.0160417791	-0.1016069314	-0.257995
C	 0.7144528327	-0.4963068258	-1.3947553394	 0.283411
N	 0.7774193821	 0.3541672555	-2.3485529767	-0.184655
O	 1.4048688335	-0.1771423764	-3.5020707752	-0.419134
C	 1.1918389115	-1.9181796347	-1.5210738045	 0.381034
O	 0.6964725608	-2.6032012297	-2.6359058362	-0.471616
C	 2.6003501956	-2.2547927466	-1.0603578855	-0.308497
C	 1.3979925514	-2.7946599702	-0.3221832942	-0.329888
H	 0.4037159164	 2.1287294379	-0.326495605	 0.128629
H	-1.1756791569	 1.5704057346	-0.8688362656	 0.129755
H	-0.8291164027	 1.679258334	 0.868307399	 0.106025
H	 0.8438649224	-0.1423772544	 0.6984703323	 0.116809
H	-0.7142320497	-0.70585296	 0.1555951462	 0.125265
H	 1.3083937472	 0.5414435868	-4.1348970515	 0.30974
H	 0.9338376987	-2.0643721564	-3.4034245	 0.291441
H	 3.1517879097	-2.9361160137	-1.6979478081	 0.122144
H	 3.1945902735	-1.4802975676	-0.5874338104	 0.114335
H	 1.1790859981	-2.4107872782	 0.6667979913	 0.11425
H	 1.1458231674	-3.8379967922	-0.4704767696	 0.12842
