19
gdb 94887	2.58969	1.82024	1.44172	2.0255	74.24	-0.2419	0.0685	0.3104	976.944	0.160114	-422.989647	-422.981943	-422.980999	-423.021406	30.996	
O	-0.0425733542	 1.3311173442	 0.8522522986	-0.440456
C	 0.0073579124	 0.1609529251	 0.0402053089	-0.001698
C	 0.9430904117	-0.9398460825	 0.634212179	-0.237833
C	 0.1023194185	-1.7174313615	 1.6971201737	-0.308902
C	-1.2940390688	-1.5721968819	 1.1513654126	 0.320828
C	-2.7061127882	-1.2374532946	 1.6723954502	-0.299012
C	-2.7560548481	-0.0584588445	 0.6267252157	-0.300261
C	-1.350616155	-0.4841705554	 0.1693824549	 0.343113
O	-1.4004351324	-1.8460731735	-0.2546191962	-0.313381
H	 0.8101750149	 1.7713438417	 0.7876202849	 0.286335
H	 0.2946315865	 0.416059177	-0.9897418189	 0.07067
H	 1.2559458747	-1.6178178285	-0.1630156396	 0.119689
H	 1.8440717005	-0.4902942596	 1.0630691444	 0.089504
H	 0.4451226159	-2.7496878416	 1.8164392365	 0.106711
H	 0.1593116284	-1.2297282717	 2.6761436271	 0.112611
H	-3.4465110446	-2.033119573	 1.5649286306	 0.108647
H	-2.7051181495	-0.8774722756	 2.7035669989	 0.111014
H	-3.5350876004	-0.0989241314	-0.1377404005	 0.105489
H	-2.7553120323	 0.9209939572	 1.1060439292	 0.12693
