18
gdb 115326	2.92163	1.1963	0.94808	2.6043	67.9	-0.2437	-0.0408	0.2029	1229.3218	0.148204	-476.227051	-476.218326	-476.217382	-476.260814	32.562	
O	-0.1061056265	 1.509409344	-0.0281589814	-0.419624
C	 0.0433337201	 0.1115934883	-0.0488905852	-0.034174
C	-1.3240950142	-0.5684238721	 0.1729865015	-0.145707
N	-2.2908721805	-0.0751379495	-0.832230603	-0.320113
C	-2.429058915	-1.1266276595	-1.8658023024	-0.219269
C	-2.2900551782	-2.4530362369	-1.1005301046	 0.059713
O	-1.9074231479	-3.5647109328	-1.8541256585	-0.435675
C	-1.2472347815	-2.0754793983	-0.0491117927	 0.363461
O	-0.4461873311	-2.8550277919	 0.40514286	-0.334132
H	-0.8572403282	 1.6863593508	-0.6129441566	 0.284396
H	 0.4773129005	-0.2383447046	-1.0001653031	 0.089167
H	 0.7306503504	-0.1737452	 0.7519246776	 0.127783
H	-1.660264902	-0.3301512482	 1.187195277	 0.114407
H	-3.1905067754	 0.0923213702	-0.3979519508	 0.234596
H	-3.3769297939	-1.0185706217	-2.3948153872	 0.122032
H	-1.6200427726	-1.0472980396	-2.6010387614	 0.12838
H	-3.237657145	-2.6388985249	-0.558475471	 0.090346
H	-1.2338017691	-4.0239095631	-1.329453878	 0.294413
