20
gdb 96262	2.4235	1.50159	1.03569	2.8845	75.6	-0.2512	0.0057	0.2569	1169.3949	0.172263	-440.280118	-440.271599	-440.270655	-440.313038	32.883	
O	-0.1633378156	 1.4469617412	 0.1279159736	-0.438369
C	-0.0043727533	 0.031407265	 0.0249927439	 0.134812
C	 0.8857342292	-0.4914703994	 1.1751257573	-0.23814
C	 1.6787133792	-1.7579508735	 0.8467311448	-0.090081
O	 0.8682101619	-2.7843553841	 0.26557666	-0.223254
C	-0.1900637067	-3.1722437741	 1.0463325809	 0.091466
N	-1.3895155972	-2.8729611508	 0.8171668866	-0.20638
C	-1.6610056594	-1.9873378521	-0.3221047333	-0.172442
C	-1.4472542939	-0.5006226561	 0.0062150147	-0.17949
H	 0.7095467114	 1.8504170289	 0.0932185761	 0.277802
H	 0.4760076341	-0.2227448876	-0.9352823532	 0.068022
H	 1.620344324	 0.2836928819	 1.4301902954	 0.089192
H	 0.2766279737	-0.6376508581	 2.0741017232	 0.119379
H	 2.4437290122	-1.552779608	 0.0922905999	 0.11766
H	 2.185365944	-2.1358727395	 1.7473858766	 0.103125
H	 0.078177106	-3.7991936013	 1.9011653775	 0.10904
H	-1.0592477499	-2.2649814274	-1.1959622979	 0.11009
H	-2.7132078146	-2.1261720171	-0.5856152497	 0.10371
H	-1.9156027178	-0.2692555442	 0.9701500525	 0.112935
H	-1.9761719275	 0.0921194864	-0.7475802791	 0.110923
