16
gdb 34077	3.52044	1.58985	1.36746	1.8887	78.99	-0.2215	-0.0053	0.2162	954.8654	0.124917	-363.532434	-363.525535	-363.524591	-363.563368	28.471	
C	-0.0332506772	-1.2100776304	 0.008879247	-0.326396
C	-0.0155127845	-0.0086696076	-0.0225434587	 0.098825
C	 0.012184444	 1.4334080247	-0.0318845627	 0.162746
C	-0.891181991	 2.2024874414	 1.0074993988	-0.277697
C	-1.2964512643	 3.0909881746	-0.1507558813	-0.051892
C	-0.1620534272	 3.4565902201	-1.074366928	-0.076629
C	 1.238710253	 3.306893807	-0.5996824874	-0.086523
C	 1.3721832769	 2.1047147847	-0.0423492931	-0.134611
N	-0.7863987815	 2.1161473212	-1.1785627909	-0.158236
H	-0.0503450545	-2.2717539104	 0.0253394755	 0.187813
H	-1.7297121289	 1.5751675221	 1.3138196151	 0.129662
H	-0.3998866258	 2.6327850689	 1.8843008495	 0.105436
H	-2.2673903539	 3.5660266422	-0.2536419107	 0.099563
H	-0.4002137012	 4.1332717231	-1.8893371052	 0.098365
H	 1.9918065969	 4.0790538492	-0.6833133089	 0.112614
H	 2.2361908991	 1.6889477791	 0.4580833812	 0.11696
