18
gdb 85134	2.13375	1.67917	1.13749	4.3119	72.43	-0.2477	0.0219	0.2696	1109.1787	0.147319	-439.084305	-439.075622	-439.074678	-439.11816	31.583	
C	-0.0458389269	 1.5813912026	-0.1420073155	-0.404306
C	 0.0488347051	 0.0664421519	-0.0565945807	-0.002606
N	 1.1600856461	-0.5395500418	-0.8117943046	-0.357087
C	 1.7573759407	-1.1444303075	 0.2658403574	 0.398659
O	 2.7205573131	-1.8532730206	 0.389508262	-0.366459
C	 0.6904934643	-0.5669806858	 1.217802292	 0.094402
C	 1.0693042268	 0.2139188011	 2.4891916285	-0.130131
O	 0.2834703756	-0.6620133067	 3.3206750547	-0.272628
C	-0.0761480237	-1.4809471861	 2.1914690481	-0.131076
H	 0.9079662574	 2.0513377119	 0.1163379127	 0.126814
H	-0.3150483739	 1.8959364513	-1.1557524406	 0.122714
H	-0.8171216284	 1.9587863314	 0.5372573412	 0.13082
H	-0.9186546718	-0.391249364	-0.2999841168	 0.088116
H	 1.3481606949	-0.6013106816	-1.8018936688	 0.249721
H	 2.1356751873	 0.1755691151	 2.7425750552	 0.121644
H	 0.7202996709	 1.2526051623	 2.5364347035	 0.104877
H	-1.1622952811	-1.5292399715	 2.041183728	 0.103568
H	 0.3278066436	-2.497412462	 2.2734326937	 0.122958
