18
gdb 12421	2.99196	2.01082	1.478	1.6806	62.99	-0.2547	0.0712	0.3259	885.4422	0.155675	-422.080994	-422.073614	-422.07267	-422.112256	29.2	
O	 0.0536069887	 1.4325218133	-0.0200583595	-0.443487
C	 0.0498936482	 0.0196592433	-0.0184473733	 0.127919
C	 0.8036868065	-0.5544089646	 1.195065689	-0.23485
C	 0.6052564364	-2.068416125	 1.303128718	-0.088292
O	-0.7781535837	-2.411153308	 1.3115715619	-0.255736
C	-1.4107895536	-2.0321436471	 0.0976706391	-0.123135
C	-1.3956587905	-0.5118849042	-0.041889645	 0.097721
O	-2.1383559944	 0.096578775	 1.0162715007	-0.454574
H	-0.6580521474	 1.6867301391	 0.5837047092	 0.284402
H	 0.5533224939	-0.2961648336	-0.9417070286	 0.081056
H	 1.8678179987	-0.3075514051	 1.1258462964	 0.108095
H	 0.4225939449	-0.0741460821	 2.1045537415	 0.09884
H	 1.1045052378	-2.58336507	 0.4652613685	 0.093563
H	 1.0228013353	-2.4609002271	 2.2341640361	 0.114167
H	-0.9117063515	-2.5023837995	-0.7652928875	 0.095252
H	-2.4387178001	-2.4016524753	 0.1513320441	 0.118639
H	-1.8821531684	-0.2039918562	-0.9736007338	 0.08942
H	-1.9676011809	-0.4343983528	 1.8050129531	 0.290998
