17
gdb 81810	2.12166	1.8029	1.29136	2.0871	68.37	-0.2465	0.0656	0.312	1022.7622	0.134204	-458.89604	-458.887704	-458.88676	-458.928569	32.243	
O	 0.1487616715	 1.3263602903	-0.2498934294	-0.429924
C	 0.0534045921	-0.0607309279	-0.035011437	 0.061809
C	 0.3048848768	-0.558049553	 1.4013433634	-0.175354
C	 0.104193238	-2.0551384743	 1.4521928046	-0.356212
C	-1.1050844339	-1.164590567	 1.4759208721	 0.310357
O	-2.0092523562	-1.1356671337	 2.5195537451	-0.460409
C	-1.3849528579	-0.625984282	 0.0930226804	 0.339898
C	-2.6111120159	 0.0008218794	-0.3928914334	-0.278221
O	-2.1585838773	-1.2635733469	-0.9087811359	-0.28576
H	-0.4110635431	 1.7665307179	 0.4000238666	 0.281417
H	 0.6717221582	-0.5306315736	-0.8050933542	 0.102045
H	 0.8638075501	-0.0180886397	 2.1546530497	 0.105132
H	 0.3325355679	-2.6777063105	 0.5900339589	 0.121454
H	 0.3382378491	-2.5050005981	 2.4125334172	 0.119772
H	-2.371015548	-2.0210397858	 2.6337497841	 0.294608
H	-3.5099824982	-0.041096553	 0.2199414616	 0.123017
H	-2.5440658934	 0.8376323679	-1.0861935338	 0.126371
