17
gdb 78042	2.93241	1.23801	1.11579	2.7426	69.89	-0.2401	-0.0203	0.2198	1137.3779	0.133241	-458.938905	-458.930005	-458.929061	-458.972156	33.677	
C	-0.0636217084	 1.5535765309	-0.0209014559	-0.46511
C	 0.0677139268	 0.0469629071	-0.0823933823	 0.396728
O	-1.0512017051	-0.6254403736	 0.4304603559	-0.463905
C	 0.6779091047	-0.7247574354	-1.1838515715	-0.111471
C	 1.378728147	-0.6985091511	 0.2351768348	-0.257512
C	 2.5545024676	-0.0900073239	-0.4296737739	 0.358484
O	 3.7248552788	-0.0131140048	-0.159749276	-0.339175
C	 1.8573281722	 0.0155710294	-1.8238547593	 0.016552
O	 2.5465651325	-0.7739831423	-2.7652030594	-0.442662
H	 0.8201122152	 2.0670664861	-0.4042004517	 0.136146
H	-0.936883662	 1.8790000479	-0.5946241836	 0.137241
H	-0.2002429344	 1.8736286053	 1.0189843333	 0.11811
H	-1.186336049	-0.3286552805	 1.3376218163	 0.287487
H	 0.1822384731	-1.5760510941	-1.6299210962	 0.129213
H	 1.3884661334	-1.4394231862	 1.0251801377	 0.115411
H	 1.6382696809	 1.0128815024	-2.2263867927	 0.085648
H	 3.4888792767	-0.6542589071	-2.5918931657	 0.298816
