16
gdb 41757	2.32409	2.25053	1.95469	1.8179	67.58	-0.2461	-0.012	0.2341	821.6634	0.127939	-437.889304	-437.882945	-437.882001	-437.919746	25.9	
C	-0.0661569783	 1.4854255473	-0.1220184365	-0.071163
O	 1.115575765	 2.1568701286	 0.3382596004	-0.253502
C	 2.1860861725	 1.3302544285	 0.6581673924	 0.15983
O	 2.0103025353	 0.7642351054	 1.9927100576	-0.236955
C	 0.9643391135	-0.0709183147	 2.1965518499	 0.139832
N	 0.0450262054	-0.4684162841	 1.4202365652	-0.26911
C	 0.0443473313	-0.0374445217	 0.010026664	-0.070752
C	 1.3231634553	-0.4766491396	-0.6732513126	-0.082801
C	 2.4059678481	 0.2222722577	-0.3405378213	-0.078157
H	-0.9031705664	 1.8558714395	 0.4789213393	 0.121002
H	-0.236127068	 1.7557980913	-1.1723256486	 0.106693
H	 3.0542991457	 1.9778755878	 0.780384874	 0.102908
H	 0.9839069637	-0.4203254753	 3.2283135209	 0.126964
H	-0.8341614877	-0.4834372461	-0.4635594574	 0.083929
H	 1.3341580685	-1.3155411408	-1.3605114803	 0.108692
H	 3.4051387859	 0.0291090662	-0.712757087	 0.112592
