17
gdb 32123	2.92449	1.28565	0.8993	3.0045	81.07	-0.2009	0.0055	0.2065	1255.3669	0.137816	-418.074481	-418.066177	-418.065233	-418.10743	31.384	
C	 0.0551547851	 1.4465567118	-0.0342817235	-0.320627
N	-0.0537871101	 0.0166280625	 0.1188443168	-0.343315
C	-1.2368826287	-0.6738962135	 0.0667844358	 0.436155
N	-1.1144181531	-2.0097202046	-0.0234790772	-0.365541
C	-2.2396063584	-2.7243605114	-0.0474069943	 0.010117
C	-3.5208879641	-2.1963498642	 0.0101170348	-0.23219
C	-3.6325384695	-0.8065545615	 0.0959110153	 0.443493
O	-4.8777350409	-0.2710349747	 0.1475410604	-0.436376
C	-2.4826209967	-0.0247764985	 0.1223427647	-0.390464
H	 1.1109934711	 1.7237445547	-0.0168749013	 0.130581
H	-0.3804332328	 1.8136058894	-0.9763564108	 0.119264
H	-0.4367482741	 1.9745273011	 0.7923452584	 0.129273
H	 0.749389934	-0.5539105368	-0.0900884024	 0.245991
H	-2.1084953036	-3.8021545773	-0.1200800689	 0.102603
H	-4.4041838105	-2.8206086027	-0.014610581	 0.098197
H	-4.8072679607	 0.6880704247	 0.2060958754	 0.297168
H	-2.5524223469	 1.0555165008	 0.1883726078	 0.075669
