18
gdb 115245	4.08825	0.98281	0.82757	2.4646	68.61	-0.2431	0.0041	0.2472	1337.9028	0.149197	-476.241932	-476.233466	-476.232522	-476.275506	31.319	
O	-0.0414651762	 1.4501369347	-0.0682125635	-0.419162
C	 0.0468608884	 0.0454586841	-0.1077880137	-0.070785
C	-1.3383867537	-0.588685724	 0.0384328068	-0.019575
C	-1.3147689487	-2.109021061	 0.0079568964	-0.074264
O	-2.5987734863	-2.6990703318	 0.2889484651	-0.228087
C	-3.5534288325	-2.0622334379	 1.009229168	 0.398582
O	-4.5740518905	-2.6351284392	 1.273641148	-0.318107
C	-3.3119350056	-0.6039683596	 1.4073287677	-0.31611
N	-1.9430644121	-0.1099796481	 1.2869901844	-0.310497
H	-0.6959644776	 1.6468812186	 0.6169001365	 0.288966
H	 0.4958448898	-0.2333877354	-1.0670565287	 0.114874
H	 0.7084902881	-0.3431193801	 0.6886091605	 0.081423
H	-1.9685229074	-0.2187113939	-0.781413748	 0.105973
H	-1.0239150091	-2.4952903277	-0.9737935742	 0.129043
H	-0.5997644178	-2.4930930016	 0.748690342	 0.111366
H	-3.9714218893	-0.0008391569	 0.7696081243	 0.152526
H	-3.674435111	-0.4808447043	 2.430152486	 0.148419
H	-1.3916642186	-0.458354666	 2.0691246123	 0.225412
