18
gdb 114728	2.93984	1.38303	1.10268	2.5714	71.53	-0.2502	-0.0379	0.2123	1113.7246	0.148715	-439.076693	-439.068715	-439.067771	-439.109582	30.461	
O	 0.2936548976	 1.1816029859	 0.3026351831	-0.42271
C	 0.0827405593	-0.2057460275	 0.2073150148	-0.066221
C	-1.4025093741	-0.5425832597	-0.0322001335	-0.140221
C	-1.7737448878	-2.0219528275	-0.2779899748	-0.208719
N	-2.7824419487	-2.4511215019	 0.7359692474	-0.091949
C	-2.2438823562	-2.4488547597	 2.0851541336	-0.240074
C	-3.0662799421	-1.2924315799	 1.6060368033	-0.136155
C	-2.2560609218	-0.1173395963	 1.1660075874	 0.406658
O	-2.2606231419	 0.9893596487	 1.659511327	-0.348376
H	-0.3784078934	 1.5290257638	 0.9069836956	 0.298459
H	 0.6811577196	-0.5666222918	-0.6367800802	 0.111468
H	 0.4401883642	-0.7389070408	 1.1063627555	 0.08511
H	-1.7298280131	 0.0763113753	-0.8756123862	 0.126123
H	-2.2247226587	-2.1537000464	-1.2639823301	 0.124027
H	-0.9070366627	-2.6889550035	-0.220712151	 0.117416
H	-2.6996405717	-3.1507549823	 2.77708058	 0.136441
H	-1.1742881137	-2.3014271329	 2.224920137	 0.125842
H	-4.074016515	-1.1378649935	 1.9753377911	 0.122881
