17
gdb 38945	3.17909	1.88922	1.63631	0.492	65.46	-0.2443	0.0701	0.3144	856.9997	0.139462	-458.932045	-458.925969	-458.925025	-458.962244	25.527	
C	 0.0115361524	 1.5798156261	 0.0777778166	-0.235394
C	 1.5254683239	 1.7978453559	-0.0286488102	 0.037706
O	 2.0311382426	 0.82279464	 0.9437118862	-0.299414
C	 1.5710518109	-0.1662103611	-0.0051566788	-0.005123
C	 1.9611137839	 0.80473055	-1.1441003312	 0.105487
O	 1.2041765756	 0.7527734109	-2.3319079564	-0.263694
C	 0.375519503	-0.3894957671	-2.3547582122	 0.017919
O	-0.5331731689	-0.433600478	-1.2805383646	-0.272322
C	 0.027469499	 0.0205163671	-0.0481902792	 0.105025
H	-0.3630764728	 1.9261732576	 1.0428059036	 0.109899
H	-0.5658951427	 2.0307300469	-0.730257984	 0.119147
H	 1.9444926917	 2.7962955616	 0.0838253928	 0.086335
H	 1.9894476936	-1.1611112842	 0.1380590344	 0.092255
H	 3.0331433264	 0.8381851959	-1.3501971394	 0.095357
H	-0.2106415295	-0.3451475585	-3.2748387153	 0.124255
H	 1.0036911942	-1.2966931921	-2.35655759	 0.089249
H	-0.5098507633	-0.491456971	 0.7503591778	 0.093313
