18
gdb 66332	2.45623	1.40254	1.29687	4.2272	77.86	-0.2331	-0.0092	0.2239	1084.4918	0.150018	-398.132567	-398.124115	-398.123171	-398.165429	32.431	
N	-0.0574496112	 1.4875031387	 0.0965530909	-0.534571
C	 0.0209532943	 0.0206191115	 0.0041404362	 0.056766
C	-1.431339609	-0.5453850721	 0.0260168298	-0.186461
N	-1.523003094	-1.9537800727	-0.30524395	-0.294907
C	-0.9783440518	-2.2606209294	-1.6271329917	-0.218171
C	 0.2596817274	-1.4811332349	-1.9915341033	-0.058011
C	 0.730767001	-0.4826286042	-1.2476609261	-0.096609
C	 0.7427502381	-0.4694868961	 1.194125446	 0.283983
N	 1.3052251028	-0.8920987309	 2.1116898821	-0.342571
H	 0.8758834463	 1.8854117258	 0.1614022481	 0.240481
H	-0.4630779178	 1.8401559347	-0.7669701302	 0.235054
H	-1.8778839114	-0.358262794	 1.005005153	 0.13247
H	-2.0049952526	 0.0282257265	-0.7131301553	 0.106924
H	-1.044566482	-2.501928787	 0.402266137	 0.235649
H	-0.7722499157	-3.3358714179	-1.6792004968	 0.122206
H	-1.7532224298	-2.0731505408	-2.3879876123	 0.121075
H	 0.7605643723	-1.7545508474	-2.9177213667	 0.100884
H	 1.6388051232	 0.0487356903	-1.5219095506	 0.09581
