13
gdb 133505	4.16533	0.66957	0.66643	2.129	61.43	-0.2623	-0.0066	0.2556	1622.8578	0.085375	-547.046507	-547.038069	-547.037125	-547.082306	29.018	
F	-0.041539373	 0.0718262542	-0.0593277888	-0.069135
C	-0.0260686848	 1.409077785	 0.0212404309	 0.261897
F	 1.2556853622	 1.8024446408	-0.0072956304	-0.071358
F	-0.6157043395	 1.8860424052	-1.0843000829	-0.070017
C	-0.6963057141	 1.8741407469	 1.2308258919	-0.176275
C	-1.2409906363	 2.2564533771	 2.2329350531	 0.168697
C	-1.9101818642	 2.7214068249	 3.4122855032	-0.175658
C	-1.134825922	 3.4703092265	 4.4501688816	-0.223535
N	-2.1134020114	 4.1747058193	 3.622884216	-0.298259
H	-2.7525816534	 2.1142752281	 3.7320998671	 0.133286
H	-1.4138882308	 3.3503582062	 5.4926977179	 0.136742
H	-0.0756858181	 3.6243699921	 4.2674424038	 0.134795
H	-1.6403137946	 4.6904242138	 2.8843198765	 0.248821
