21
gdb 63176	2.31128	1.62773	1.27644	0.4233	78.2	-0.2224	0.071	0.2934	1099.8513	0.181349	-424.215995	-424.206716	-424.205772	-424.24921	35.835	
C	-0.0616310001	 1.5657642694	-0.0173350879	-0.453621
C	 0.0224865312	 0.0587205858	 0.0389425493	 0.310574
O	-1.1296132094	-0.5966912339	-0.4352707063	-0.465395
C	 1.3299682785	-0.6718640172	-0.2017070345	-0.033184
O	 2.5065084583	 0.0942815048	-0.1612806093	-0.26034
C	 2.9402168899	 0.1661284313	 1.2020436427	-0.063343
C	 1.6645217488	 0.0802430066	 2.0642067315	-0.31738
C	 0.6945010901	-0.7099952134	 1.171787888	 0.254546
C	 0.0427491754	-1.9442234951	 1.7533173602	-0.479628
H	 0.9024432991	 2.0338993934	 0.1853880066	 0.132738
H	-0.3659619176	 1.8788520554	-1.0236882994	 0.105914
H	-0.8049973666	 1.9478577928	 0.6898711529	 0.121037
H	-1.2019175767	-0.4108556358	-1.3783332316	 0.28115
H	 1.3537096622	-1.5357687549	-0.8619964868	 0.090032
H	 3.6147146039	-0.6745543013	 1.4248946121	 0.094896
H	 3.499657566	 1.097797005	 1.3247097061	 0.10702
H	 1.847428255	-0.454197609	 3.0006402356	 0.104866
H	 1.284225562	 1.0727989534	 2.3229596613	 0.108057
H	-0.6052532927	-1.6836429859	 2.5982564446	 0.11647
H	-0.5722791076	-2.4527191213	 1.010127103	 0.137245
H	 0.8016733501	-2.64495797	 2.1203454618	 0.108346
