17
gdb 56427	2.98922	1.06016	0.901	0.6992	75.45	-0.2423	-0.0892	0.1531	1329.5786	0.130876	-421.824538	-421.8141	-421.813156	-421.860984	36.106	
C	 0.0263390491	 1.5326279909	-0.2008426401	-0.402394
C	-0.0327824177	 0.0010260607	 0.0539987263	-0.28307
C	 0.6915935489	-0.3754626635	 1.2589953289	 0.337879
C	 1.301397332	-0.6703179076	 2.2507781294	-0.438852
C	-1.5047042146	-0.4211046746	 0.1167618804	 0.276687
O	-2.1324446941	-0.5785721276	 1.1332929782	-0.27099
C	-2.2036322672	-0.620452095	-1.2557230745	 0.309199
C	-3.673111054	-0.9509679267	-1.2010440572	-0.474059
O	-1.5658505017	-0.5160576128	-2.2777260876	-0.276238
H	 1.0689200169	 1.8483118267	-0.2767373195	 0.141166
H	-0.482739156	 1.7825388425	-1.1345938702	 0.138655
H	-0.4408226322	 2.0749952964	 0.6249988875	 0.140407
H	 0.4039881771	-0.4914291969	-0.8216156529	 0.139996
H	 1.8377451812	-0.9402491384	 3.126595803	 0.198425
H	-3.8304387289	-1.8584975401	-0.6099525724	 0.161619
H	-4.2168132166	-0.154553819	-0.6827059713	 0.157979
H	-4.058881852	-1.080488515	-2.212192968	 0.143591
