18
gdb 52935	3.2517	0.98747	0.86567	2.3618	84.11	-0.2358	0.0325	0.2683	1401.5004	0.147384	-401.856521	-401.847784	-401.84684	-401.89165	32.363	
C	-0.0795082456	 1.4163934519	-0.0141318147	-0.5177
C	-0.0224319579	-0.0367096711	-0.0072319495	 0.383829
C	 0.0247126902	-1.2411633476	-0.006989251	-0.415185
C	 0.0966701141	-2.6693350083	-0.0165412302	 0.224837
C	 0.5956547563	-3.6353788308	 1.0969203765	-0.268842
C	 0.0375987636	-4.5242018357	-0.0354306229	-0.100385
N	-1.1347634902	-3.5705361571	-0.2317664763	-0.390708
C	 0.7984340259	-3.6288291294	-1.0578398982	 0.184364
O	 0.3840804061	-3.6010056633	-2.3741692645	-0.444673
H	 0.5314603542	 1.8339312312	-0.8219971267	 0.154099
H	-1.1066942311	 1.7689386253	-0.1588466961	 0.153533
H	 0.2851010776	 1.8342271104	 0.9307599311	 0.150563
H	 1.6706594362	-3.6619606788	 1.3029643896	 0.100632
H	 0.0065500797	-3.6179587831	 2.0169307684	 0.102166
H	-0.1027566964	-5.6046431639	-0.0526605598	 0.088743
H	-1.7161432208	-3.5521524195	 0.6111257463	 0.211748
H	 1.8884941265	-3.654121037	-1.0261712901	 0.090654
H	-0.5842367083	-3.5646080234	-2.3298427719	 0.292325
