8
gdb 32	32.19893	4.76299	4.30696	4.4361	31.81	-0.2683	0.0173	0.2855	295.6635	0.063305	-188.042067	-188.037478	-188.036534	-188.06863	14.488	
N	-0.0360809888	 1.4876253273	 0.0367807231	-0.495907
C	-0.0103947065	 0.0251760547	-0.0150660798	-0.271608
C	-1.371809558	-0.5210891992	 0.0273927193	 0.279144
N	-2.4402669546	-0.9595644394	 0.0337051899	-0.297415
H	 0.9172975198	 1.8354754735	 0.0520268194	 0.241934
H	-0.4716217784	 1.8567720541	-0.8027556886	 0.245778
H	 0.4894616062	-0.408804013	-0.8971516848	 0.1371
H	 0.5282715003	-0.3453333779	 0.8646954714	 0.160972
