16
gdb 42531	3.41633	1.28225	1.07756	1.7781	72.55	-0.2457	-0.0517	0.194	1117.8916	0.12346	-437.833722	-437.82578	-437.824835	-437.866618	29.492	
O	-0.0326200486	 0.1462393506	-0.5840962172	-0.317723
C	-0.00818111	 1.3136756614	-0.3120538828	 0.282348
C	-1.0660820146	 2.3652873603	-0.0618577897	 0.229962
C	-2.3682435617	 2.4469683245	-0.7783373299	-0.282681
N	-2.3246908605	 2.1473122492	 0.6518113227	-0.350139
C	 0.005602937	 3.4287100852	 0.2442892316	-0.434271
C	 1.0783569239	 2.3441646703	 0.0024857914	 0.324772
C	 2.383746175	 2.1153886995	 0.6387411046	-0.247306
O	 2.2768056532	 2.5076904142	-0.7289528766	-0.252252
H	-2.7600407639	 3.4285185525	-1.0302406406	 0.134579
H	-2.6020918563	 1.6513347896	-1.4811830195	 0.13756
H	-2.4499661877	 1.1470392169	 0.8039775724	 0.249981
H	 0.0476784068	 4.2507338079	-0.4736721791	 0.129888
H	-0.0270620142	 3.8269720485	 1.2603553324	 0.129161
H	 2.7752193451	 2.8722346532	 1.3168146488	 0.128216
H	 2.7220060865	 1.0945692861	 0.8075761212	 0.137906
