23
gdb 118086	2.90137	0.82279	0.78924	0.239	82.	-0.257	0.0693	0.3263	1597.889	0.20331	-425.408146	-425.397201	-425.396257	-425.444453	40.045	
C	-0.0045059091	 1.5211949996	 0.3614197294	-0.488818
C	-0.0077190226	 0.0341302109	 0.0583472069	 0.393545
C	 1.2653876145	-0.5900863472	-0.4631065747	-0.304643
C	 0.8103384715	-0.8653552795	 0.9504354591	-0.311867
C	-1.3174776215	-0.5476189227	-0.4666722524	 0.039138
O	-2.3572514787	-0.4920178398	 0.5129766237	-0.44084
C	-1.7686774393	 0.072473972	-1.7947284188	-0.198048
C	-2.9730338502	-0.6387133249	-2.3984939981	-0.077769
O	-3.325939062	 0.0432143823	-3.5942328186	-0.424923
H	 0.9605332165	 1.8297383826	 0.7741169657	 0.118104
H	-0.1868385756	 2.1249352182	-0.5340728363	 0.122737
H	-0.7669996568	 1.7800244837	 1.1065359352	 0.10861
H	 1.1852493195	-1.3920115268	-1.1903477028	 0.108506
H	 2.1260481044	 0.0536928474	-0.6114544332	 0.107992
H	 1.3654459884	-0.4097624108	 1.7637230026	 0.107084
H	 0.4158678823	-1.8492050041	 1.1808121094	 0.115152
H	-1.1606793162	-1.6230638817	-0.6217386154	 0.077362
H	-2.5969834357	 0.4329749108	 0.6347909782	 0.277893
H	-2.0284789968	 1.1291711683	-1.6497067511	 0.097856
H	-0.9398777298	 0.0497979558	-2.5114283832	 0.109658
H	-2.7162840913	-1.6918799433	-2.601543223	 0.081755
H	-3.7986169369	-0.6391086862	-1.6730343711	 0.097079
H	-4.1122284448	-0.3758657845	-3.9556046415	 0.284436
