17
gdb 84645	2.20176	1.85416	1.42156	3.9338	74.02	-0.2331	-0.0335	0.1996	978.9635	0.136832	-421.834569	-421.826718	-421.825774	-421.866811	30.3	
O	 0.0924801181	 1.3397147373	-0.2537938018	-0.428961
C	 0.0494558119	-0.0799327763	-0.0150797926	-0.045161
C	 0.7443428088	-0.4515799059	 1.2717662989	-0.137322
C	 0.0936650842	-0.5331440723	 2.4346568693	-0.041677
C	-1.3645353307	-0.3032208345	 2.5707105047	-0.083456
C	-1.9517956479	 1.0102385396	 2.1181422719	-0.29036
C	-2.1831865383	-0.2340653243	 1.2809199189	-0.133215
C	-1.44290725	-0.4641253263	 0.0126866653	 0.429482
O	-1.9591219388	-0.9863257439	-0.9493460571	-0.330766
H	 0.9862554108	 1.6382444049	-0.0522807054	 0.284509
H	 0.4882631596	-0.61039556	-0.8692607814	 0.094152
H	 1.819074609	-0.6098231264	 1.2288182393	 0.097613
H	 0.6379209138	-0.7667846159	 3.3460993893	 0.102679
H	-1.8458047718	-0.7850105799	 3.4150639704	 0.101569
H	-2.8131486581	 1.3938003464	 2.6532546386	 0.123822
H	-1.2727401958	 1.752390727	 1.719459932	 0.148558
H	-3.1777615649	-0.6639038694	 1.2834241396	 0.108535
