16
gdb 26720	3.18843	1.21652	0.88539	4.5249	75.43	-0.1999	-0.0286	0.1713	1236.3344	0.123554	-437.939116	-437.930072	-437.929128	-437.97315	32.265	
C	 0.0428945714	 1.5062731443	 0.0366700036	-0.517387
C	 0.0386038906	 0.007119463	 0.0266205104	 0.01644
C	 0.0371250493	-0.8062297544	-1.077242986	 0.335057
O	 0.0387155872	-0.5729264581	-2.413324859	-0.433613
N	 0.0332927292	-2.1213788671	-0.6775609324	-0.302258
C	 0.0323213934	-2.1839947343	 0.685602185	-0.146836
C	 0.0355395443	-0.8871901276	 1.1634037143	 0.110142
C	 0.035656175	-0.5310772116	 2.5744437074	 0.071644
O	 0.0331060901	-1.3242151676	 3.495253017	-0.296788
H	 0.9287411698	 1.9148880714	 0.5361296401	 0.13881
H	 0.0385739214	 1.916809434	-0.9804250757	 0.096811
H	-0.8354928702	 1.9195294848	 0.5452948484	 0.138875
H	 0.0397758117	 0.378488337	-2.5581804041	 0.308624
H	 0.0315894572	-2.9004488327	-1.3141858928	 0.274475
H	 0.0294306664	-3.1190457392	 1.2192520745	 0.154205
H	 0.0384562232	 0.564130118	 2.7769289492	 0.051798
