18
gdb 11541	6.25157	1.00949	0.9403	1.7054	69.41	-0.2654	0.0181	0.2835	1286.5312	0.151883	-384.965332	-384.956428	-384.955484	-385.000366	31.119	
C	 0.0564105617	 1.4118500944	 0.18242685	-0.37064
C	-0.0917479153	-0.0609807087	-0.190758506	-0.303081
C	 0.7206317445	-0.4406814258	-1.4119874498	 0.445381
O	 1.4010917394	 0.3081044018	-2.0648277535	-0.351254
O	 0.5678574985	-1.7588498987	-1.6891992476	-0.251908
C	 1.285036153	-2.2494471691	-2.8078219396	 0.154321
C	 2.4950119728	-3.0941974965	-2.5462793879	-0.279225
C	 1.1981994714	-3.7240409616	-3.020135784	-0.298758
H	 1.0986499182	 1.657199221	 0.4016317113	 0.132062
H	-0.2641960264	 2.0573062182	-0.639030958	 0.133071
H	-0.5471742958	 1.6459188606	 1.0636501488	 0.111294
H	 0.2153187368	-0.7183460963	 0.6313287391	 0.130229
H	-1.1374662005	-0.3209853226	-0.393993932	 0.132805
H	 1.2840152295	-1.5671567466	-3.6483637257	 0.1214
H	 3.3303019365	-3.0195016679	-3.2331667412	 0.123092
H	 2.7684786159	-3.2514592799	-1.5092567979	 0.123211
H	 0.6289678351	-4.290134902	-2.2917599949	 0.12704
H	 1.1304688948	-4.0931381604	-4.0371138211	 0.120959
