19
gdb 92044	2.57625	1.61839	1.27889	2.6294	76.75	-0.2395	-0.0043	0.2352	1057.1786	0.160199	-423.028446	-423.020423	-423.019479	-423.060562	31.852	
C	 0.0652858311	 1.5204898558	 0.0345205158	-0.488715
C	-0.0416949442	 0.0255755215	-0.0218178244	 0.287683
C	-0.0511826678	-0.6717274333	-1.1644353781	-0.150165
C	-0.0911773281	-2.1518910369	-1.1716168191	 0.003516
O	 0.8910064851	-2.8452256823	-0.3436886461	-0.270611
C	-0.4845258077	-2.8589997131	 0.0598482561	 0.043642
C	-0.8380842787	-2.0238976603	 1.2662032744	-0.276225
C	-0.040566269	-0.7065339798	 1.3128128591	 0.026836
O	 1.2974417268	-0.9272879732	 1.7546011995	-0.441541
H	 0.9509488539	 1.8108004088	 0.6125902991	 0.146545
H	 0.1392595222	 1.9650875312	-0.9613972564	 0.119901
H	-0.801174102	 1.9602156684	 0.544941199	 0.125285
H	-0.0088380853	-0.1666829019	-2.125570873	 0.088037
H	-0.2451313252	-2.6386909174	-2.1315858647	 0.09524
H	-0.9618721256	-3.8356767466	-0.0208406717	 0.095533
H	-1.9150449393	-1.8135672867	 1.2357770636	 0.107858
H	-0.6367975166	-2.5759957665	 2.1905795369	 0.118513
H	-0.4843763148	-0.05828849	 2.0764954337	 0.081049
H	 1.6788431252	-1.5377505077	 1.1072229164	 0.287618
