19
gdb 111276	3.23384	1.25682	1.05691	2.2225	71.45	-0.2431	0.0581	0.3012	1179.3501	0.157714	-460.119476	-460.110429	-460.109485	-460.152847	34.312	
C	-0.1862525322	 1.4850638204	 0.0090322058	-0.509649
C	 0.1269440819	 0.0253575432	-0.0212114033	 0.410814
O	-0.7395055247	-0.8678253372	 0.6962562172	-0.282773
C	 0.6614488247	-0.9125233396	 0.9892322462	-0.077876
C	 1.3071597724	-1.8136386432	-0.0752949904	-0.069785
C	 0.764034879	-3.22529712	-0.1973289043	-0.112981
O	 1.1569345855	-3.709421306	-1.4912606177	-0.42953
C	 0.7834393281	-0.784085175	-1.1542353287	 0.068068
O	-0.0787977719	-1.2435948642	-2.1558108628	-0.441616
H	 0.6757476258	 2.0735225951	-0.3212165603	 0.123792
H	-1.0238642933	 1.7098559985	-0.6601742341	 0.141681
H	-0.4618401434	 1.7989436331	 1.0193816984	 0.130858
H	 0.9633898436	-0.7404576193	 2.0167588613	 0.100381
H	 2.3993718548	-1.8202261899	-0.0303049184	 0.079947
H	 1.1707452385	-3.8707472142	 0.5948185771	 0.094204
H	-0.3272269105	-3.2010538339	-0.1055590296	 0.124826
H	 0.7435304207	-4.5673232805	-1.6285668857	 0.294315
H	 1.6320526178	-0.2191433935	-1.5712105736	 0.065556
H	 0.2569825133	-2.1125568738	-2.418211357	 0.289767
