19
gdb 28583	4.53421	0.97589	0.84568	1.5463	84.65	-0.1749	0.0505	0.2254	1383.4079	0.161337	-382.090642	-382.081972	-382.081027	-382.124551	32.932	
N	 0.0707314345	 1.2038618108	 0.7203254736	-0.61066
C	-0.0852692578	-0.071277338	 0.1352719316	 0.269846
C	-1.1339074852	-0.6871237936	-0.5101956445	-0.209924
C	-0.7226977119	-2.0214373338	-0.8038260082	-0.218578
C	 0.5625706932	-2.1872337105	-0.3408394643	 0.297747
N	 0.9359855688	-0.9833327632	 0.2314322477	-0.321183
C	 1.4955195509	-3.3303322515	-0.4017915127	-0.138053
C	 1.7604210756	-4.1849693835	 0.8276593826	-0.259212
C	 0.9663746082	-4.739670038	-0.3246228387	-0.251594
H	 0.6485831273	 1.8187695661	 0.1532023057	 0.240877
H	-0.8306338856	 1.6522649274	 0.8303848922	 0.244957
H	-2.0790983446	-0.2276382232	-0.7573291069	 0.077735
H	-1.2965247614	-2.7716838685	-1.3265889085	 0.086472
H	 1.7767050791	-0.8289799919	 0.7615042615	 0.253312
H	 2.3579134798	-3.1955590079	-1.0533084095	 0.088079
H	 2.7682637848	-4.5532583599	 0.9858365099	 0.106462
H	 1.22147482	-3.9350936195	 1.7346565824	 0.115762
H	-0.1008205742	-4.8639974874	-0.1835196041	 0.119167
H	 1.4268121784	-5.4906782536	-0.9563695898	 0.108791
