20
gdb 110464	3.84217	1.35409	1.22044	1.8971	79.97	-0.2216	0.076	0.2976	1095.8371	0.172876	-365.957753	-365.950417	-365.949472	-365.989628	29.702	
C	-0.087317707	 1.5336184071	 0.0974268139	-0.386887
C	-0.0219977957	 0.0069356804	-0.0175230055	-0.178486
C	 0.714750929	-0.4917765666	-1.2680288064	-0.001395
C	 0.7665220846	-2.003627982	-1.4052982085	-0.091227
C	-0.4630106782	-2.525081311	-2.1443663982	-0.112475
C	 0.8516332164	-2.3758426178	-2.858217236	-0.035567
N	 0.3682942813	-1.1764294919	-3.6518304609	-0.170714
C	-0.9413202197	-1.2937097838	-2.9290004468	-0.045875
C	 0.0034716494	-0.2016777332	-2.5769193205	-0.059205
H	 0.9157782115	 1.9746993649	 0.0966450765	 0.115155
H	-0.6448249542	 1.978519933	-0.7332289177	 0.119035
H	-0.5819513701	 1.8370623945	 1.025310804	 0.113036
H	 0.4817911979	-0.3987138491	 0.868902455	 0.093446
H	-1.0360100728	-0.4117844471	-0.0132897561	 0.100331
H	 1.7295797394	-0.0717051034	-1.287635495	 0.077266
H	 1.2391714825	-2.6346010292	-0.6624395806	 0.088902
H	-1.0300105483	-3.4037822229	-1.8736636339	 0.091632
H	 1.5304505487	-3.0872177252	-3.3084016668	 0.096248
H	-1.8879853981	-1.1761790379	-3.4428963462	 0.092208
H	-0.1565939168	 0.8098896613	-2.93194626	 0.094573
