23
gdb 121357	2.66131	1.00958	0.81774	1.2038	82.26	-0.2495	0.0879	0.3374	1517.7176	0.20528	-425.439829	-425.429834	-425.42889	-425.475492	36.32	
C	 0.1245304597	 1.5071326787	 0.3090419298	-0.382867
C	 0.0030457061	 0.0189517754	-0.0278102281	-0.167526
C	-1.4221216934	-0.5174268296	 0.146878803	-0.178228
C	-1.5349169681	-2.0093239387	-0.1646134954	 0.102769
O	-0.6550080986	-2.7519377498	 0.6938245818	-0.2761
C	-1.4451377094	-3.5866726581	 1.5209458259	 0.022873
O	-2.7610200239	-3.111785397	 1.4620069423	-0.24825
C	-2.9129213885	-2.660719426	 0.1160426071	 0.093198
C	-4.1539941499	-1.796615726	 0.0033556668	-0.418003
H	 1.1508552937	 1.8633228695	 0.175693248	 0.111275
H	-0.5245424936	 2.1158924923	-0.3309041572	 0.10977
H	-0.1624562793	 1.7022608383	 1.3484502402	 0.113829
H	 0.3283297204	-0.1516786984	-1.0630874404	 0.089719
H	 0.6776526667	-0.5664250212	 0.6054139027	 0.116613
H	-1.7594003584	-0.3444423452	 1.17658233	 0.10209
H	-2.104387902	 0.0364957488	-0.5117161314	 0.089431
H	-1.2318618262	-2.1916750789	-1.2046682596	 0.073978
H	-1.3853576544	-4.6291429651	 1.1574772501	 0.081231
H	-1.0928376947	-3.5328065404	 2.5566609981	 0.112367
H	-3.0162816599	-3.5387637644	-0.5442876594	 0.069648
H	-4.1031004731	-0.9408539775	 0.6800731105	 0.132651
H	-4.2719776771	-1.4288424917	-1.0205089314	 0.120921
H	-5.0401390361	-2.3839125049	 0.2582066966	 0.128611
