15
gdb 80272	2.83102	1.62781	1.43116	4.128	67.52	-0.2584	-0.0486	0.2097	938.0103	0.113091	-457.779442	-457.772021	-457.771077	-457.811454	28.263	
O	 0.1482283004	 1.2198324829	-0.4022086036	-0.410113
C	 0.0134479697	-0.1325893881	-0.1461349444	 0.078691
C	-0.4465622756	-0.5687487785	 1.2098160143	 0.043392
O	-0.6816267272	 0.4277514833	 2.1691661975	-0.253441
C	-1.6956298338	 1.3554257646	 2.0421892344	 0.401095
O	-1.7388943147	 2.2520870776	 2.84163961	-0.332083
C	-2.6785500336	 1.1479688156	 0.9694780161	-0.1999
C	-2.5694263952	 0.1672449945	 0.0664671591	-0.030768
C	-1.4025161664	-0.7182999561	 0.0402128386	-0.1931
H	 0.5788831185	 1.630965787	 0.3573104485	 0.307662
H	 0.7121766697	-0.7764929483	-0.676918255	 0.109586
H	-0.017605495	-1.4465353292	 1.6797056191	 0.122963
H	-3.5181526688	 1.8310515787	 0.994331612	 0.125916
H	-3.3472965823	 0.0117285231	-0.6754870046	 0.120304
H	-1.5492631358	-1.712945717	-0.366480682	 0.109796
