27
gdb 109583	2.38646	1.15465	0.9571	0.099	95.23	-0.2687	0.0691	0.3378	1441.9877	0.251257	-353.560387	-353.549444	-353.5485	-353.595521	41.823	
C	 0.9632943446	 0.7791387678	 0.4241352635	-0.384666
C	 0.7955407243	-0.7131826855	 0.1119927927	-0.198454
C	 1.3877787849	-1.1114173946	-1.2369731202	 0.043872
C	 2.9393952537	-1.2186110377	-1.4431867247	-0.015342
C	 3.7899698683	-1.4686129807	-0.1978980552	-0.409105
C	 2.6714839093	-2.4576090849	-2.3631949471	 0.03492
C	 3.61218447	-3.6560038018	-2.3428438967	-0.416645
C	 1.2243141095	-2.5711805243	-1.7779105358	-0.033728
C	 0.9836557965	-3.6694664363	-0.7418814272	-0.402946
H	 2.0190065153	 1.0691748452	 0.4487930127	 0.118338
H	 0.4725265793	 1.3970778205	-0.3362911147	 0.112009
H	 0.5264715616	 1.0358264279	 1.3945315816	 0.108693
H	 1.2413343151	-1.3077017708	 0.9176933752	 0.092919
H	-0.2747022645	-0.9599424028	 0.1140196563	 0.091084
H	 0.9912539257	-0.4227934241	-1.9937413986	 0.061656
H	 3.3709621496	-0.3656467095	-1.9780172425	 0.058162
H	 3.4276306221	-2.3024180527	 0.4098553506	 0.117208
H	 4.8246420383	-1.6956459754	-0.4772072087	 0.111931
H	 3.8134419581	-0.5827148798	 0.4453954275	 0.114065
H	 2.5932069246	-2.1035027852	-3.3974802111	 0.065969
H	 3.7450361129	-4.0701618551	-1.3390505904	 0.113431
H	 3.2324407803	-4.460635359	-2.9827868044	 0.110443
H	 4.603989212	-3.3807220114	-2.7192034732	 0.110342
H	 0.4498746372	-2.6645901479	-2.5475466416	 0.057375
H	 1.7085408084	-3.655571566	 0.0768571454	 0.115731
H	-0.0122934325	-3.5710259949	-0.2967544502	 0.111973
H	 1.0363111456	-4.659197941	-1.2082523533	 0.110766
