18
gdb 71682	2.72088	2.31542	1.68186	1.1344	72.92	-0.2273	0.0592	0.2864	855.9256	0.149896	-401.872034	-401.86568	-401.864736	-401.902342	26.952	
C	 0.0666607813	 1.4793031428	 0.0303956636	-0.519063
C	 0.006513004	-0.0269062649	-0.0224491844	 0.313323
C	-1.2852357896	-0.8622578878	-0.206107081	-0.225204
N	-0.4251735765	-1.9681084852	-0.7518443678	-0.158923
C	 0.5690046351	-2.2279462437	 0.3436169003	-0.06389
C	 1.7598235253	-1.6437633613	-0.4455861424	 0.078619
O	 2.1758747967	-0.7943240114	 0.6339132835	-0.299067
C	 0.7834301839	-0.829199925	 1.0460802113	 0.039394
C	 0.5947935986	-0.9144612654	-1.1859663453	-0.077602
H	 1.1060462144	 1.8167520833	 0.092367492	 0.136326
H	-0.3858398645	 1.9309814234	-0.858672897	 0.11684
H	-0.4661812402	 1.8649712825	 0.9076031845	 0.117796
H	-1.8792202994	-1.1193910492	 0.6789096462	 0.099148
H	-1.9458351832	-0.4825545363	-0.9913205501	 0.109478
H	 0.5295136053	-3.1599596844	 0.9033895973	 0.082083
H	 2.5593218468	-2.164303489	-0.9680502677	 0.092391
H	 0.630066526	-0.6135241593	 2.1027230689	 0.081602
H	 0.5966895261	-0.5738324892	-2.2200203519	 0.076749
