23
gdb 118502	2.52846	0.91994	0.73695	1.3529	82.22	-0.2463	0.0786	0.3249	1607.8388	0.20386	-425.394275	-425.383457	-425.382512	-425.430991	38.591	
C	 0.8793978556	 1.541531571	 0.0420970582	-0.238944
O	 0.2517055179	 0.2843438577	-0.0900939954	-0.249975
C	 0.6751092819	-0.4825936588	-1.2183422249	 0.069027
C	 0.996778358	-1.9026958851	-0.7399555717	-0.193753
C	 2.1627305217	-1.9643880403	 0.2471134321	-0.07005
O	 2.4650797047	-3.2904987345	 0.6567463498	-0.420719
C	-0.3931883582	-0.4926352139	-2.302310632	 0.020294
C	-1.8484368534	-0.6457872042	-1.941983203	-0.254297
C	-1.3419687812	 0.6593966249	-2.505643965	-0.285452
H	 1.9643191805	 1.4407691154	 0.1965917307	 0.107667
H	 0.7152038634	 2.1859249477	-0.8331626229	 0.10997
H	 0.4450540294	 2.0266781431	 0.9204775567	 0.125629
H	 1.5927718395	-0.0341993862	-1.6319965518	 0.066836
H	 0.0948185635	-2.3168378208	-0.2702052427	 0.096177
H	 1.2264289835	-2.5350167889	-1.6053654832	 0.100574
H	 3.0775343945	-1.5903534214	-0.2275270194	 0.103226
H	 1.9505167967	-1.3151807454	 1.1083194896	 0.099281
H	 1.7024638407	-3.6266879381	 1.1381486214	 0.279668
H	-0.0692279609	-1.0043873115	-3.2051214252	 0.081448
H	-2.4736268419	-1.277282596	-2.5631661657	 0.106169
H	-2.0972276103	-0.6537681321	-0.8867759162	 0.122299
H	-1.2845531461	 1.4960773208	-1.8200844078	 0.117546
H	-1.6091096094	 0.9271253065	-3.5220436916	 0.107379
