15
gdb 2490	4.81089	3.02856	2.58943	1.0451	59.76	-0.2369	0.0753	0.3122	586.1417	0.125797	-308.462932	-308.457154	-308.456209	-308.492031	23.363	
O	-0.0857337398	 1.4335594627	 0.0211801705	-0.478786
C	-0.0427295992	 0.048513977	 0.0069426266	 0.388577
C	 0.4122106245	-0.7523904281	-1.2495205436	-0.292513
C	-0.553037217	-1.8297846527	-0.7577531645	-0.056675
C	-0.4869157672	-1.8434384441	 0.7791443407	-0.056653
C	 0.5179987983	-0.7743288835	 1.2051000539	-0.292569
C	-1.3506599332	-0.8396200868	 0.0552855133	-0.120995
H	 0.8183322604	 1.7665307411	-0.0132382309	 0.280074
H	 0.0441769899	-0.2765878862	-2.1626886832	 0.10202
H	 1.4784077499	-0.9914922905	-1.3487718096	 0.080451
H	-0.9286837654	-2.6836988665	-1.3059234918	 0.085772
H	-0.8147526831	-2.7071943841	 1.3423671464	 0.085774
H	 1.5885885079	-1.0144050014	 1.2079294213	 0.080478
H	 0.2303136855	-0.3151750588	 2.1549050876	 0.102003
H	-2.4030674715	-0.6043553982	 0.1026640934	 0.093041
