22
gdb 5998	3.95671	1.09255	1.07257	0.1254	75.61	-0.2472	0.0813	0.3285	1260.786	0.196307	-387.32571	-387.315016	-387.314071	-387.361291	37.644	
C	-0.1151348647	 1.4063480139	 0.0107821952	-0.223203
O	-0.0031302697	 0.0042873884	 0.0020915082	-0.236472
C	-1.2535119858	-0.6481207508	 0.0105829599	-0.076519
C	-1.0383495537	-2.1701973973	 0.0002210947	 0.339714
C	-0.2953972952	-2.585474558	-1.2769056048	-0.423157
C	-0.2710360905	-2.5993052488	 1.2582207376	-0.423197
O	-2.3883277187	-2.652844458	 0.0105080494	-0.283557
C	-2.5786042728	-4.0485585041	 0.0054407774	-0.242664
H	 0.8976935333	 1.8167214066	 0.0032036551	 0.125384
H	-0.6567327777	 1.7783695668	-0.8733358722	 0.104995
H	-0.6394767834	 1.7687010744	 0.9092028639	 0.104994
H	-1.8338010154	-0.3746579831	 0.906260934	 0.090018
H	-1.8508980711	-0.3649920933	-0.870737786	 0.090025
H	 0.6348865016	-2.0187218319	-1.358424993	 0.13554
H	-0.0462633912	-3.6503225402	-1.2770040201	 0.108928
H	-0.909828944	-2.3719640838	-2.1571927098	 0.114632
H	-0.8684439304	-2.3956033544	 2.1524436384	 0.114635
H	-0.0219624398	-3.6640403714	 1.2418244683	 0.108932
H	 0.6606346894	-2.0332782036	 1.3280922581	 0.135547
H	-2.14958987	-4.53893467	 0.890547211	 0.105347
H	-3.6595306196	-4.2127063117	 0.014083016	 0.12474
H	-2.1651506709	-4.5303550097	-0.8916946815	 0.105339
