15
gdb 1622	3.83134	2.09958	1.4405	3.9686	57.69	-0.2705	0.0278	0.2983	825.7495	0.124257	-341.839596	-341.831335	-341.83039	-341.871873	29.255	
C	 0.0450502011	 1.5643576871	 0.0474546608	-0.410861
C	 0.0431963422	 0.042750354	-0.0551201257	 0.154405
O	 0.8305907536	-0.5681482912	 0.9495799584	-0.416745
C	-1.4017623267	-0.5262672415	-0.0379030122	-0.158748
N	-2.1631506805	-0.0317382588	-1.186732709	-0.498401
C	-1.3776595726	-2.0026233453	 0.0459908761	 0.27162
N	-1.4207503512	-3.1579363743	 0.0482589563	-0.324234
H	 1.0694968906	 1.9397522804	-0.0145316815	 0.129757
H	-0.5548237769	 2.0096854552	-0.7483720055	 0.146214
H	-0.3802933271	 1.8843793847	 1.0078777983	 0.106942
H	 0.5060801957	-0.2645681392	-1.0012562111	 0.102634
H	 0.5778728502	-0.1950269905	 1.8016073137	 0.283659
H	-1.8937255621	-0.1555390332	 0.871143281	 0.119972
H	-1.8089724387	-0.4575151583	-2.0394153841	 0.245085
H	-3.1347805378	-0.316389929	-1.1103098855	 0.2487
