15
gdb 24371	3.75059	1.6801	1.18406	4.2366	75.92	-0.1838	-0.0177	0.1661	973.4797	0.116449	-416.846846	-416.840285	-416.839341	-416.877699	26.021	
C	 0.0572404595	 1.4699938384	 0.1213806546	-0.142193
O	 1.3822038957	 2.041936529	 0.0781725099	-0.266748
C	 2.1765497111	 1.4232671177	-0.8189102749	 0.352844
C	 1.989283919	 0.1156257409	-1.2195524264	 0.19062
N	 3.0715697507	-0.1364293813	-2.044837575	-0.356575
C	 3.8128327487	 1.0051859842	-2.087551711	-0.001657
N	 3.3005475541	 1.9710159572	-1.3404190533	-0.328611
C	 0.9643418983	-0.7014925347	-0.6317845865	-0.159414
C	 0.0422858223	-0.0440606257	 0.0926060462	-0.118383
H	-0.3916425849	 1.8583552643	 1.037945262	 0.123716
H	-0.5164193516	 1.8734784723	-0.7326673683	 0.106785
H	 3.2525865236	-0.9824654538	-2.5581446364	 0.267518
H	 4.7043556878	 1.0891801813	-2.6897281921	 0.135034
H	 0.9797498873	-1.7835267302	-0.7100333125	 0.09605
H	-0.7405388616	-0.5597927897	 0.6359250636	 0.101015
