24
gdb 10762	3.26976	1.3333	1.23981	0.0982	84.67	-0.2697	0.08	0.3497	1162.4258	0.221935	-314.267175	-314.25726	-314.256316	-314.301557	37.682	
C	-0.2189862548	 1.4752492104	 0.1289134187	-0.405338
C	-0.0323984929	-0.0256632059	-0.1208718134	-0.170408
C	 0.8119768919	-0.4343421618	-1.3584225474	 0.25426
C	 0.1926134437	 0.1447321849	-2.6424224135	-0.430609
C	 2.2610907209	 0.0753854111	-1.222617755	-0.404496
C	 0.8614248156	-1.9678752651	-1.3688312276	 0.041595
C	-0.1854476148	-2.8520481783	-1.9977137488	-0.28506
C	 1.2097333083	-2.8016351189	-2.575394174	-0.292478
H	 0.7364624595	 1.9917283061	 0.2632901894	 0.116015
H	-0.7509436898	 1.9657759421	-0.6919817956	 0.115811
H	-0.8066757823	 1.6366713829	 1.038368868	 0.111125
H	 0.4308751458	-0.4748910044	 0.7677413183	 0.086291
H	-1.0188744599	-0.4971033299	-0.2153996864	 0.093581
H	 0.2547080503	 1.2365754956	-2.642489536	 0.114636
H	 0.7181786764	-0.2029720178	-3.5370188606	 0.112242
H	-0.8639887444	-0.1230328038	-2.7433509494	 0.111541
H	 2.7252979326	-0.2982107015	-0.302876644	 0.104517
H	 2.8696187963	-0.2690482468	-2.0650553654	 0.111636
H	 2.3099990306	 1.1685479423	-1.2019695054	 0.107584
H	 1.2652116606	-2.3569046318	-0.4355782696	 0.074902
H	-0.4957086124	-3.7433918666	-1.4630337261	 0.106338
H	-0.9784884536	-2.3902250089	-2.5752702544	 0.109711
H	 1.3346935413	-2.309225294	-3.5335919171	 0.110003
H	 1.8619986511	-3.6570814696	-2.4359629346	 0.106601
