19
gdb 63327	2.47489	1.41286	1.1304	1.7016	75.09	-0.2398	-0.0399	0.1998	1145.1802	0.15665	-423.08703	-423.077772	-423.076828	-423.12141	34.52	
C	-0.3513893035	 1.6375711617	 0.1235567293	-0.431436
C	 0.0560591241	 0.1692786936	-0.0194016989	 0.158591
C	-1.1951247266	-0.7391852241	-0.0576078745	-0.420586
C	 0.969411921	-0.1261288466	-1.228535559	-0.36007
C	 1.8760741578	-1.2809607939	-0.7979595072	 0.386243
O	 2.391263892	-2.085884547	-1.5285137399	-0.300842
C	 2.0024691666	-1.2378296548	 0.7227390489	-0.442108
C	 0.8940066483	-0.2974015455	 1.1940048748	 0.386868
O	 0.6853633242	 0.0274567142	 2.3339809129	-0.321864
H	 0.5243081706	 2.2947182556	 0.1218262335	 0.115621
H	-1.0051375709	 1.9413905672	-0.7001890539	 0.115793
H	-0.8828675079	 1.7916469736	 1.0660326767	 0.140313
H	-1.8208682184	-0.4750299613	-0.9163102811	 0.125874
H	-0.9302796416	-1.7981866804	-0.1535811357	 0.123751
H	-1.785211978	-0.6178503838	 0.8547468488	 0.138866
H	 0.439517806	-0.368303681	-2.1527036237	 0.129325
H	 1.6182168931	 0.7355967566	-1.4393065988	 0.129006
H	 1.9376149382	-2.2294692362	 1.1792845054	 0.161901
H	 2.9791984551	-0.8269880478	 1.0073000725	 0.164754
