15
gdb 7902	3.05318	2.00196	1.4434	3.6292	61.4	-0.2128	-0.0938	0.1191	872.2865	0.117904	-399.808083	-399.80054	-399.799596	-399.840263	27.384	
C	-0.321160505	 1.4275109162	 0.3059333675	-0.335467
N	 0.1082085915	 0.0729662319	-0.0453035704	-0.081138
C	-1.0326667216	-0.8135211595	-0.3440873694	-0.299201
C	-1.4474104996	-1.4349788534	 0.9853944081	 0.312679
O	-2.4835561908	-1.9539425741	 1.2969925411	-0.272627
C	-0.2000609637	-1.2805812031	 1.911602094	 0.312707
O	-0.1265343184	-1.6630063924	 3.0466604695	-0.27263
C	 0.8470023509	-0.5798123493	 1.0523160923	-0.299206
H	 0.5604496628	 2.0429011318	 0.5060774525	 0.13254
H	-0.8520100267	 1.8672267183	-0.5430946632	 0.132537
H	-0.9841328266	 1.4854392234	 1.188747194	 0.108229
H	-1.8545441787	-0.2770774882	-0.8215930765	 0.142633
H	-0.7172584323	-1.6158703541	-1.0278791134	 0.138139
H	 1.5361302913	-1.3352127012	 0.6457932023	 0.138156
H	 1.4407282271	 0.1329267637	 1.6274580316	 0.142647
