18
gdb 35575	2.95488	1.4348	1.21074	4.9606	75.08	-0.2644	0.0261	0.2905	1062.2645	0.150319	-401.958732	-401.951224	-401.95028	-401.991272	28.751	
N	-0.7517685448	-0.8011409732	-1.1219110469	-0.339064
C	-0.474722849	 0.2061790102	-0.6254331368	 0.282891
C	-0.1019152133	 1.4644234588	-0.0021955273	-0.139466
C	-0.1128000012	 1.5442091881	 1.5574743674	-0.24886
C	 1.3103132021	 2.16886544	 1.5348260382	-0.029921
C	 2.4049327697	 1.2983621595	 2.1486258625	-0.096536
O	 2.5262800576	 0.1928874984	 1.2632354242	-0.245429
C	 2.4417045233	 0.7230767809	-0.0552711855	-0.100261
C	 1.4144823085	 1.8639109315	 0.0002993999	-0.06239
H	-0.705479992	 2.2612201162	-0.444786877	 0.123488
H	-0.9110264418	 2.1574687077	 1.9779100564	 0.115344
H	-0.1312060054	 0.5590167868	 2.0269334401	 0.13421
H	 1.3612572277	 3.216736935	 1.8319103284	 0.079853
H	 3.3538440551	 1.8564145145	 2.2141387217	 0.091524
H	 2.1587928924	 0.9079265833	 3.1402509291	 0.11525
H	 3.4160081009	 1.1287502382	-0.3708197562	 0.093488
H	 2.1675182463	-0.0935077453	-0.7279467793	 0.138434
H	 1.6621957136	 2.6781605794	-0.680925909	 0.087446
