16
gdb 39530	3.74962	1.97889	1.59326	1.8871	77.65	-0.2016	0.0043	0.2059	841.0316	0.126017	-363.474269	-363.468335	-363.467391	-363.504187	25.339	
C	-0.0852047149	 1.5089599171	 0.0277679326	-0.450829
C	 1.3944484315	 1.924937831	 0.0115936295	-0.061724
C	 2.281412512	 0.9114400339	-0.0341159057	-0.264063
C	 1.5482298326	-0.3561635868	-0.052477943	 0.331464
C	 1.2183207479	-1.6811302823	-0.7679798158	-0.203225
C	 1.1669413132	-1.5845302425	 0.7462474728	-0.082542
N	-0.3191719426	-1.1933585578	 0.7497329915	-0.235093
C	-0.2803916291	-1.2514252823	-0.7702267328	-0.147459
C	 0.0724865533	 0.0070312822	-0.0710365012	 0.366321
H	-0.5864442495	 1.8255138804	 0.9516590869	 0.128189
H	-0.6465062334	 1.9506168609	-0.8046788361	 0.118797
H	 1.6781763494	 2.9713457598	 0.0522092359	 0.100491
H	 3.3575427788	 1.0321406344	-0.0369471947	 0.105366
H	 1.8196255717	-2.3176190581	-1.402702384	 0.097095
H	 1.6674607221	-2.1590702125	 1.5168789776	 0.099239
H	-1.145305903	-1.5515340274	-1.3510805736	 0.097975
