15
gdb 101974	1.5894	1.57422	1.31647	3.0516	67.72	-0.2651	-0.0867	0.1785	1108.4304	0.108889	-453.946223	-453.936422	-453.935478	-453.981481	33.115	
C	-0.8441043599	 1.0400628253	 0.1375160206	-0.338756
N	 0.4606353647	 0.3909065589	 0.0490722451	-0.316646
C	 0.750566427	-0.335416667	-1.1545767442	-0.0739
C	 2.2958178761	-0.5004255393	-1.3064529789	 0.156863
O	 3.0686479083	 0.0478622465	-0.5770803177	-0.224746
C	 0.1915386693	-1.7843670289	-1.0739989891	 0.144636
O	 0.1454282989	-2.5314418319	-2.0075554853	-0.222176
C	 0.3091052335	 0.2968269121	-2.4165616004	 0.269618
N	-0.0449681716	 0.8470383849	-3.3697885338	-0.326742
H	-1.0304300324	 1.7812181097	-0.6533266689	 0.137003
H	-1.6392786006	 0.2882540734	 0.0873228458	 0.132575
H	-0.9175557172	 1.5349766276	 1.1084650967	 0.138406
H	 1.2286160456	 1.0184692367	 0.2608149576	 0.251731
H	 2.5917227601	-1.1537895807	-2.1468828154	 0.147201
H	-0.0989015417	-2.0532162171	-0.0380853123	 0.124934
