16
gdb 38815	3.15532	1.90389	1.54008	1.2189	66.21	-0.2567	0.016	0.2727	868.5227	0.127354	-437.889155	-437.882827	-437.881883	-437.920117	25.346	
C	 0.1682083086	 1.5778351483	 0.2678779675	-0.320857
C	 1.3122872027	 0.6835253773	-0.1008342465	 0.094504
O	 2.1821143446	 0.2442402299	 0.9240317509	-0.251228
C	 1.5086152981	-0.5879127161	 1.8172193692	 0.187356
O	 1.3494577594	 0.0272313818	 3.1167124162	-0.22753
C	 0.0117603529	 0.1033094197	 3.3299161525	 0.106866
N	-0.7993520529	-0.3237204219	 2.4540030551	-0.251742
C	 0.0353431965	-0.7811057291	 1.331959037	-0.08672
C	-0.0521810548	 0.0869995807	 0.0806191624	-0.053882
H	 0.1294289572	 1.9848733507	 1.2720328	 0.134062
H	-0.2262541744	 2.2329639834	-0.501458115	 0.119291
H	 1.8217343293	 0.7655437093	-1.0532458412	 0.107643
H	 2.1087835019	-1.4870358098	 1.9769834872	 0.103888
H	-0.2650288649	 0.5408212592	 4.2830243206	 0.143835
H	-0.2018252751	-1.8210695312	 1.0966426671	 0.094323
H	-0.6446357592	-0.2654530823	-0.753816233	 0.100188
