20
gdb 8065	3.59141	1.49125	1.30274	1.9562	75.38	-0.2288	0.0855	0.3143	1050.1592	0.175899	-348.94799	-348.939674	-348.938729	-348.980705	31.66	
C	-0.0210994011	 1.6319920174	 0.0240068857	-0.372392
C	-0.2109176252	 0.1108326892	-0.0424583266	-0.235765
C	 0.5730156521	-0.5201067037	-1.1845275051	 0.024451
C	 2.1034315455	-0.7942179607	-1.1413195628	 0.034699
C	 1.8917013516	-1.9807108136	-0.1770590516	-0.270028
C	 0.8337511187	-2.0563768654	-1.3142049132	 0.383219
C	-0.1126735581	-3.1598294057	-1.67163891	-0.514577
O	 1.9261870034	-1.7283488114	-2.2749003237	-0.343851
H	 1.0262761188	 1.8932728363	 0.2093364074	 0.117702
H	-0.3181003419	 2.1086266573	-0.9164352475	 0.118282
H	-0.6216262853	 2.0720908321	 0.8259132519	 0.113044
H	 0.0636976222	-0.3323724879	 0.9205667332	 0.09752
H	-1.2758321724	-0.1147204458	-0.1870325738	 0.100052
H	 0.2825366419	-0.0937084446	-2.1506195931	 0.074309
H	 2.9374672542	-0.094494325	-1.2011006	 0.087536
H	 2.6642484936	-2.7494860549	-0.2274399146	 0.102698
H	 1.5595268452	-1.7874061769	 0.8449235371	 0.092833
H	-0.8658672616	-3.2828962241	-0.8866869605	 0.125353
H	-0.6259462074	-2.9349338828	-2.6116343238	 0.132175
H	 0.4241159961	-4.1064274699	-1.7866352792	 0.13274
