16
gdb 46082	4.90169	1.03548	0.88715	2.8366	80.8	-0.2556	-0.0393	0.2164	1255.4924	0.124903	-400.732193	-400.724248	-400.723304	-400.764825	30.276	
N	-0.0188327105	 1.2742594781	 0.3702679267	-0.520156
C	-0.0007021143	 0.0548193685	 0.0150458352	 0.377048
O	 1.1746902755	-0.6149702973	-0.1959853033	-0.260572
C	 1.1178776267	-1.8056998526	-0.9827584617	-0.094085
C	 0.059736829	-2.7907266072	-0.4525589777	-0.239404
C	-1.2455388172	-2.0374032119	-0.2915939199	-0.080128
C	-1.2437991406	-0.7162583804	-0.1080263415	-0.110171
C	-0.0591334188	-3.9403852191	-1.3433693234	 0.306165
C	-0.1465347782	-4.8739280969	-2.0946246147	-0.445077
H	 0.9360303438	 1.636149933	 0.4202558045	 0.222758
H	 0.8843666843	-1.5551767604	-2.0247909633	 0.124265
H	 2.1182376458	-2.239074793	-0.9406331785	 0.131424
H	 0.3840760152	-3.1475286597	 0.5372285749	 0.133988
H	-2.1684898773	-2.6061163443	-0.3254646239	 0.122459
H	-2.1545137906	-0.1438813448	 0.0176983599	 0.127286
H	-0.2270459929	-5.705912072	-2.7500042133	 0.2042
