20
gdb 96515	2.19567	1.62534	1.16516	4.1397	75.5	-0.2308	0.0234	0.2543	1128.3845	0.172784	-440.318867	-440.310193	-440.309249	-440.352129	33.143	
C	-0.1945994514	 1.4905322872	-0.0135415639	-0.432498
C	 0.0213269828	-0.0299503233	-0.026206414	 0.038061
O	 0.5875657085	-0.5428067828	-1.2231041486	-0.258624
C	 1.7921563091	 0.0135168196	-1.7128483569	-0.076752
C	 3.0253321472	-0.4288784154	-0.9280588387	-0.188484
C	 3.0559061057	 0.0951327885	 0.5081505824	-0.17087
N	 2.0545679713	-0.496569055	 1.3862034986	-0.303424
C	 0.6901593245	-0.4866742843	 1.2865761971	 0.35966
O	-0.0097946312	-0.8213930429	 2.2268552622	-0.369201
H	 0.7372978795	 2.0585161503	 0.0589457916	 0.12083
H	-0.7190665256	 1.7994156784	-0.9223778607	 0.128246
H	-0.8099544038	 1.7495428703	 0.8519638458	 0.14442
H	-0.959937393	-0.5077438164	 0.0194204877	 0.119667
H	 1.8672577461	-0.3376842323	-2.7469518736	 0.111135
H	 1.7424203403	 1.1121404292	-1.746959694	 0.091176
H	 3.0753281878	-1.5231777512	-0.9176309066	 0.116429
H	 3.9173337183	-0.0583151456	-1.4488073343	 0.099338
H	 4.0265551475	-0.1394303596	 0.9535327884	 0.11656
H	 2.9774539976	 1.1935476413	 0.4988384702	 0.109133
H	 2.3580810788	-0.7609415761	 2.3125149174	 0.245198
