16
gdb 69619	3.77809	1.18117	1.14948	3.5336	77.2	-0.2227	0.0099	0.2326	1124.5037	0.121434	-400.612859	-400.604769	-400.603825	-400.645125	31.649	
C	-0.1400089816	 1.546800081	 0.0337077246	-0.512289
C	 0.0628466693	 0.0661554327	 0.0224107755	 0.3085
N	-0.8101437546	-0.9038634655	 0.722606385	-0.347396
C	 0.6426697928	-0.8692544305	 1.0110833975	-0.242319
C	 1.381273047	-1.6508408887	-0.1435700884	 0.327175
O	 0.4021220589	-2.0995528661	-1.094054094	-0.257555
C	 0.7831741029	-0.7336239623	-1.1326409701	-0.118632
C	 2.6487968275	-2.280819648	-0.0537711285	 0.170721
C	 3.7277008357	-2.7961026529	 0.0788018022	-0.362957
H	 0.7621807063	 2.0701054265	-0.3020854418	 0.131172
H	-0.9627286664	 1.8400291641	-0.6288293945	 0.13554
H	-0.3749812354	 1.9022276251	 1.0425848656	 0.123828
H	-1.2651938456	-0.392523341	 1.4806250466	 0.22979
H	 1.044125829	-0.6958914449	 2.0005771862	 0.103229
H	 1.1843969678	-0.3329728534	-2.0567448989	 0.119937
H	 4.6783091363	-3.2584331461	 0.180477863	 0.191257
