19
gdb 90937	3.09485	1.4793	1.43112	2.2109	74.47	-0.2143	0.07	0.2843	1029.4544	0.158957	-422.986452	-422.978554	-422.97761	-423.018457	31.086	
C	 0.0246255646	 1.5667401674	-0.0109768149	-0.40696
C	 0.0442689543	 0.0489386923	 0.0324521132	 0.146903
O	 0.765223427	-0.4541150138	-1.1129613305	-0.282588
C	 1.5224238497	-1.556092886	-0.6806202898	 0.026025
C	 2.522749206	-1.3237878976	 0.4453271305	 0.010902
O	 2.1901959003	-0.1103722049	 1.1209635947	-0.299847
C	 0.8029515718	-0.5654121874	 1.2067173127	-0.002908
C	 1.1912516286	-1.9874086119	 0.7210725964	 0.216155
C	 0.7496325528	-3.3185387871	 1.2463114727	-0.518944
H	 1.0417527963	 1.9522058048	 0.0845802342	 0.143251
H	-0.3986988549	 1.9115153427	-0.9579791733	 0.126115
H	-0.5891445298	 1.964512507	 0.803916991	 0.109197
H	-0.9846919149	-0.3507942219	 0.0155763307	 0.066134
H	 1.7430596728	-2.2775256053	-1.45948096	 0.103569
H	 3.5498818905	-1.6702346651	 0.485716269	 0.102444
H	 0.3748612504	-0.4198590675	 2.2003692986	 0.082483
H	-0.3264830892	-3.4679194745	 1.0985305662	 0.125575
H	 1.2667355216	-4.1318593651	 0.7272651941	 0.126308
H	 0.9603804421	-3.4200506061	 2.3168277846	 0.126186
