18
gdb 90824	3.3461	1.76739	1.57077	1.6695	72.38	-0.2345	0.0702	0.3047	894.0509	0.150502	-401.886882	-401.88032	-401.879376	-401.917732	27.411	
O	 0.0863807596	 1.4271602285	-0.1081915459	-0.441517
C	 0.0595037763	 0.0120937912	-0.0207067905	 0.132022
C	 0.736839242	-0.5773166174	 1.2596545624	-0.271227
C	-0.3525878499	-1.4270352399	 1.900773507	 0.039503
C	-1.3229687614	-1.9305892428	 0.8067654562	-0.116777
C	-2.4811137683	-1.4271072275	 1.7278825363	-0.055833
C	-2.169073747	-0.0637203509	 1.2475634575	-0.072262
C	-1.3627508442	-0.5679651184	 0.0420937558	-0.05741
N	-1.4891805224	-0.6105396417	 2.4849721761	-0.161385
H	-0.3292400451	 1.7761928728	 0.6883580088	 0.283721
H	 0.5771206574	-0.3284134552	-0.9230903839	 0.085887
H	 1.6125495232	-1.1842867226	 1.0080823637	 0.103386
H	 1.0756856833	 0.223514796	 1.9248764515	 0.110187
H	-0.0237385696	-2.1559088065	 2.6427414572	 0.075699
H	-1.225097579	-2.8834499293	 0.2914143021	 0.072676
H	-3.3636812601	-1.8702748967	 2.1683388128	 0.099864
H	-2.7265945323	 0.8559978771	 1.3702617057	 0.098257
H	-1.9245455527	-0.5567067268	-0.8924212229	 0.075209
