18
gdb 110841	2.61659	1.45742	1.21392	1.4912	71.37	-0.2415	0.0132	0.2547	1092.3341	0.147889	-439.081835	-439.073365	-439.072421	-439.115658	31.426	
C	 0.1669855669	 1.3844231913	 0.1949245215	-0.480525
C	 0.0823025054	-0.0911269472	 0.0212564353	 0.382264
N	-0.1463824901	-0.7307415329	-1.0579863921	-0.289941
C	-0.0847266517	-2.1335655194	-0.7303569714	-0.058993
C	 1.2350681875	-2.6814547257	-0.1871395015	-0.088933
C	 2.5686284001	-1.9746249893	-0.3215209787	-0.092308
O	 3.2995553367	-1.9569317672	 0.8967614684	-0.425366
C	 0.1780929902	-2.1922927149	 0.7634050979	 0.02177
O	 0.2761495819	-0.8294396872	 1.1640029243	-0.249964
H	 1.1812016526	 1.6817022848	 0.4807142048	 0.148488
H	-0.0998717579	 1.8749473379	-0.7405438669	 0.157755
H	-0.5065705752	 1.7117963858	 0.9926917343	 0.14797
H	-0.7523998946	-2.7885679029	-1.2764058907	 0.104317
H	 1.2877227545	-3.766425367	-0.2179943762	 0.103329
H	 3.1948327716	-2.5130080639	-1.0391107652	 0.114337
H	 2.4275436123	-0.9614550359	-0.719623071	 0.104654
H	 2.7622443894	-1.4765647649	 1.5360430022	 0.287916
H	-0.3010796695	-2.8167476514	 1.506302265	 0.113229
