13
gdb 27142	3.26697	1.1808	0.90303	2.5702	62.13	-0.2217	-0.0164	0.2053	1191.439	0.088086	-493.73056	-493.72265	-493.721706	-493.763996	28.123	
O	-0.1727771463	 1.2766397668	-0.099845159	-0.439688
C	-0.0039724695	-0.0666140433	-0.0471967075	 0.208572
C	 0.3246284028	-0.9338356693	-1.0426278018	 0.254552
O	 0.6619914116	-0.7118621889	-2.3417934539	-0.225075
C	-0.2632734662	-1.0804416704	-3.2949150508	 0.161524
O	-0.0441698562	-0.957205044	-4.4543374173	-0.240235
O	 0.4121928091	-2.208362929	-0.5703739326	-0.16329
C	 0.1130313464	-2.1422944341	 0.755819458	 0.002457
C	-0.1470576366	-0.8641967628	 1.1346823018	-0.253525
H	 0.0842494185	 1.5885255316	-0.9752517732	 0.307566
H	-1.1847779321	-1.4792318273	-2.8364396551	 0.109613
H	 0.1227287912	-3.0816173563	 1.2821171595	 0.147674
H	-0.4074265426	-0.5120365729	 2.1196108319	 0.129855
