17
gdb 106025	2.64058	1.68133	1.27359	3.1458	72.38	-0.228	0.0036	0.2316	1023.49	0.135213	-421.776934	-421.769009	-421.768065	-421.809754	29.758	
C	 0.1400643899	 1.3179285245	-0.1521357385	-0.264543
O	-0.1285683351	-0.0454749296	 0.1647210724	-0.284371
C	 0.5822120325	-0.5043931631	 1.2330649983	 0.314986
C	 2.0451591418	-1.002578132	 1.10333898	-0.131635
C	 2.6712521138	-0.9999023145	 2.5001579573	-0.243339
C	 1.287854485	-1.5191066034	 2.991909761	-0.194033
C	 0.9719435526	-1.9676031073	 1.5092444496	-0.147453
C	 0.3285551806	-0.3371965516	 2.7041824989	 0.372718
O	-0.4606878118	 0.2808007213	 3.3612091302	-0.347955
H	 1.1997417037	 1.4674832656	-0.3987793395	 0.112678
H	-0.4719296764	 1.5626830122	-1.0220146089	 0.133975
H	-0.1317131285	 1.9764169392	 0.6811018429	 0.139625
H	 2.5230181345	-0.9187435709	 0.1347819253	 0.10378
H	 3.4522755481	-1.7598017023	 2.593000721	 0.111712
H	 3.0242618924	-0.0504337335	 2.9180957349	 0.104319
H	 1.1668712253	-2.1157929974	 3.891146283	 0.097624
H	 0.5428333915	-2.8582571972	 1.0776877219	 0.121912
