16
gdb 46117	3.13161	1.10693	0.89054	6.5516	69.	-0.28	-0.0019	0.2781	1262.3282	0.125096	-437.950143	-437.941988	-437.941044	-437.983908	29.305	
O	 0.1144799972	 0.1203376974	-0.3232538934	-0.318635
C	 0.0128178307	 1.2960890192	-0.149423395	 0.433377
C	-1.128904268	 2.0702649477	 0.5018723402	-0.360269
C	-0.8558596998	 3.5270792059	 0.1187692655	-0.258381
C	 0.6594048348	 3.5271484645	-0.1864010123	 0.109299
C	 1.5130620497	 3.9758920957	 1.0151825584	-0.355262
C	 2.9476729601	 3.9350853042	 0.7424105297	 0.273234
N	 4.0814844122	 3.9237445542	 0.5232301923	-0.292385
O	 0.987844878	 2.1767777033	-0.5339127763	-0.216896
H	-2.0872059377	 1.6807961695	 0.1567670362	 0.15113
H	-1.0803808582	 1.8980542291	 1.5825406437	 0.146116
H	-1.4100094229	 3.7981265298	-0.7831902274	 0.130831
H	-1.1190880505	 4.2452144197	 0.8981495007	 0.120313
H	 0.9082889602	 4.1466800971	-1.0511259587	 0.121538
H	 1.2376954542	 5.0024652623	 1.2827009415	 0.158699
H	 1.2961368199	 3.3444808604	 1.884475825	 0.157289
