22
gdb 109656	1.92989	1.30578	0.98979	3.3207	84.57	-0.2282	-0.0181	0.2101	1342.0399	0.19055	-404.339971	-404.329099	-404.328155	-404.376141	38.776	
C	-1.1755154354	 2.2285135554	-0.416608258	-0.375439
C	-0.9007299441	 0.9651864838	-1.2297278118	-0.118963
N	-1.6374867891	-0.1642351319	-0.6652143694	-0.134951
C	-1.3700747978	-1.5262581429	-1.0825334332	-0.036184
C	-0.3504069908	-1.9130942419	-2.1324940655	-0.422327
C	-0.9794960183	-1.0640259253	 0.3090825437	 0.18238
C	 0.4624947988	-0.9289526563	 0.7483548644	-0.485614
C	-1.9288211519	-1.4649593327	 1.3966968224	 0.141932
O	-1.6005791057	-1.8615061079	 2.4871501401	-0.269013
H	-0.6751212415	 3.0917227984	-0.8663238469	 0.113018
H	-2.2493611107	 2.428964776	-0.3718184093	 0.128916
H	-0.809779257	 2.1234294876	 0.609849522	 0.122834
H	-1.2619192959	 1.0989231391	-2.2563572743	 0.107505
H	 0.1838859151	 0.7984257188	-1.2946847441	 0.089732
H	-2.2807039836	-2.1244228945	-1.1526811505	 0.090706
H	 0.5692804843	-1.3288124106	-2.0845682113	 0.126001
H	-0.0858665102	-2.9701660665	-2.0265974306	 0.131471
H	-0.7780314182	-1.7794413799	-3.1322598925	 0.130289
H	 1.170841678	-0.9210389226	-0.0798477414	 0.118934
H	 0.607764571	-0.0137302553	 1.3319293893	 0.132284
H	 0.7055550739	-1.7676663926	 1.4052957799	 0.147945
H	-2.9967601809	-1.3654486081	 1.100385247	 0.078545
