17
gdb 62298	3.39621	1.45801	1.17278	1.6115	77.57	-0.2343	0.0425	0.2768	1050.557	0.133712	-384.557954	-384.550165	-384.549221	-384.58988	30.979	
C	-0.1337379578	 1.5777497492	-0.0200769371	-0.462181
C	-0.0592579913	 0.0485552018	-0.0103900786	 0.106012
C	-1.3440773452	-0.5553613225	-0.3346196586	 0.269408
C	-2.4085748709	-1.0476883855	-0.603205036	-0.449158
C	 1.1763913412	-0.6099477186	-0.697036918	-0.122694
C	 2.1037875932	-0.3269429723	 0.5273243523	 0.05923
O	 2.5762138256	-1.6996241071	 0.6372268978	-0.331815
C	 1.1661154651	-1.821195375	 0.2845497536	 0.09301
C	 0.7105979018	-0.6208494743	 1.1690897109	-0.122704
H	 0.8362270535	 2.0208836492	 0.2248736366	 0.117606
H	-0.4391557635	 1.9438820379	-1.0048868168	 0.130038
H	-0.8674785455	 1.933891263	 0.7092836071	 0.13004
H	-3.3469426158	-1.4842918312	-0.839989964	 0.192821
H	 1.4505048553	-0.6164620836	-1.7518465275	 0.088975
H	 2.8092042373	 0.4823525494	 0.7081258945	 0.102185
H	 0.7299806214	-2.8111434081	 0.1699051786	 0.110249
H	 0.4569075454	-0.6397188022	 2.228848285	 0.088976
