13
gdb 19137	3.37439	1.82223	1.3569	2.8863	58.36	-0.2921	-0.0065	0.2856	873.3057	0.094305	-398.552453	-398.545225	-398.54428	-398.584383	25.66	
N	 1.0969602444	-1.0231867121	-0.4444208727	-0.319598
C	 0.6468268528	 0.0259495601	-0.2653811663	 0.250841
C	 0.0455597447	 1.3363960717	-0.0826152441	 0.256342
C	-0.1624329526	 1.8557132571	 1.2836287843	-0.208647
O	 0.9092160698	 2.330930314	 0.4709244529	-0.253206
C	-0.8325867581	 1.7789818975	-1.222505925	-0.028706
C	-2.263977533	 1.4520678636	-1.2417430446	-0.16449
O	-1.8024702696	 2.7671491493	-0.9162145883	-0.218539
H	-0.9787798058	 2.557234667	 1.4323778416	 0.153395
H	 0.1291229621	 1.2421098016	 2.1330071484	 0.14021
H	-0.3076871636	 1.9213172624	-2.1666077385	 0.128083
H	-2.777025755	 1.3586622348	-2.1961053789	 0.136256
H	-2.6967254361	 0.8925424531	-0.4146402688	 0.128059
