16
gdb 44124	2.47445	1.64646	1.31734	3.525	74.14	-0.2371	0.0189	0.256	1000.1445	0.12494	-400.746595	-400.73889	-400.737946	-400.778878	30.013	
O	 0.0056066279	-0.0153350968	-0.0976035186	-0.362629
C	-0.0384463337	 1.1862547916	 0.0082758024	 0.399473
C	-1.2958323908	 2.0726191578	 0.0814154254	-0.359661
C	-0.7760293109	 3.4970272525	 0.0403012644	-0.075372
C	 0.7252284607	 3.4163743386	 0.0382049837	-0.020269
N	 1.0544166581	 2.0305613322	 0.0728824242	-0.299061
C	-0.001724454	 3.9581169778	-1.1997886738	-0.250851
C	-0.040073171	 3.2212122882	-2.42470168	 0.319393
C	-0.0758272989	 2.5883518462	-3.4473443903	-0.426656
H	-1.9521975533	 1.8143202828	-0.7537222689	 0.14873
H	-1.8380142133	 1.8639970585	 1.0084215598	 0.133615
H	-1.2842716278	 4.2651550766	 0.6092344856	 0.105541
H	 1.3519970234	 4.0873017226	 0.6144574592	 0.112302
H	 1.9596182954	 1.6787229946	-0.1984358225	 0.255561
H	 0.0497252392	 5.0382067507	-1.309032331	 0.117651
H	-0.1037350509	 2.0313928261	-4.3510441896	 0.202233
