17
gdb 133883	3.67118	2.14314	1.89501	1.248	73.6	-0.2233	0.072	0.2953	780.3553	0.140458	-380.753918	-380.748619	-380.747675	-380.783148	23.972	
C	-1.181901877	 1.4150478018	 0.8762715211	-0.271161
N	-0.6525720783	 0.2063189382	 1.6765498994	-0.182963
C	-0.8982145647	-0.6163668864	 0.3712696049	-0.001808
C	 0.2240882921	-1.5624298004	 0.015560722	-0.070088
C	 1.3967197529	-0.7640488836	 0.4458246531	-0.070086
C	 0.7094932878	 0.4782351417	 0.9611715059	-0.00181
C	-0.3025824197	 0.6936103979	-0.1814811405	 0.223718
C	 0.4022592512	 0.3595439736	-1.4825794837	-0.281394
N	 1.0870674939	-0.8982504423	-1.0150329647	-0.140053
H	-0.8374667962	 2.377277772	 1.2627140787	 0.107796
H	-2.2657871263	 1.4047922947	 0.7386219398	 0.107797
H	-1.9372167631	-0.8921966528	 0.1931662176	 0.074936
H	 0.1671574453	-2.6423463704	 0.0035462602	 0.100394
H	 2.3366679754	-1.1652468499	 0.7995791618	 0.100394
H	 1.2875166663	 1.3033443565	 1.3763959914	 0.074936
H	 1.1605985024	 1.0787727912	-1.8016472498	 0.114697
H	-0.2547087419	 0.1151792281	-2.3209413272	 0.114697
