19
gdb 103163	1.9513	1.62429	1.27999	3.373	71.62	-0.2492	0.0046	0.2538	1120.0538	0.156472	-460.186321	-460.176471	-460.175527	-460.220933	35.189	
C	-0.0038948738	 1.4337941347	-0.0216030759	-0.264281
O	-0.1980163121	 0.0410186033	 0.1939435164	-0.283803
C	 0.5621822648	-0.5296563798	 1.230012307	 0.197154
C	 0.1985170326	-0.0104611886	 2.6163889293	-0.465121
C	 0.6483152506	-2.0751945956	 1.0836804674	 0.097243
C	-0.0318932499	-2.7321655863	-0.0928951621	-0.398008
O	 2.1097844048	-1.9679739919	 0.889543695	-0.259273
C	 2.0835731655	-0.6043549352	 0.9486780505	 0.420592
O	 2.9912213456	 0.1539484324	 0.804597725	-0.340401
H	 1.0573752099	 1.6777957236	-0.1422986047	 0.147064
H	-0.5389755638	 1.6757232991	-0.9421959897	 0.1332
H	-0.4204591227	 2.0376156188	 0.7951117132	 0.114508
H	-0.8774158166	-0.1220174447	 2.7832696161	 0.131535
H	 0.7345169097	-0.5671563238	 3.390564014	 0.133224
H	 0.4635418128	 1.0443328564	 2.7247081696	 0.140687
H	 0.4597633064	-2.612047031	 2.0174842561	 0.095064
H	 0.1622709184	-2.1798202701	-1.0135015558	 0.140406
H	 0.3256098831	-3.7596155138	-0.2052510802	 0.129888
H	-1.1136628255	-2.7568480273	 0.0700740786	 0.130324
