21
gdb 108591	2.38594	1.46805	1.18265	1.9143	78.22	-0.2328	0.0843	0.3171	1162.3558	0.181691	-424.201215	-424.19197	-424.191026	-424.235098	34.409	
C	 0.0614119506	 1.2621079984	 0.3324968261	-0.253317
O	-0.0902078381	 0.0318677516	-0.3513435503	-0.285009
C	-1.3218205326	-0.578799196	-0.1336079665	 0.383748
C	-1.5288714066	-1.3695709397	 1.1655057539	-0.320695
C	-1.9494955309	-2.7578674562	 0.6398335437	-0.065977
O	-2.5395971966	-2.5390044452	-0.6490724405	-0.262615
C	-1.9277595086	-1.4118699654	-1.2185329169	-0.006982
C	-2.5434177675	-0.0615633381	-0.8796806561	-0.100841
C	-3.9259497824	 0.0662835049	-0.283039877	-0.415785
H	 1.0396037356	 1.6624326681	 0.0562318431	 0.126901
H	-0.7169225391	 1.9830641537	 0.0453473871	 0.109595
H	 0.0280774022	 1.1313604328	 1.4239228366	 0.107989
H	-0.5907263278	-1.4124961119	 1.7244657654	 0.113268
H	-2.2936484369	-0.9337851298	 1.8153120102	 0.106783
H	-1.0713354818	-3.4128113963	 0.5409084214	 0.10041
H	-2.6923873883	-3.2648793933	 1.261703626	 0.107284
H	-1.4364443405	-1.5760531692	-2.1726744008	 0.102842
H	-2.2780579087	 0.7062519114	-1.6038886684	 0.089689
H	-4.2185814265	-0.8491890411	 0.236268825	 0.130011
H	-3.9899412288	 0.9018073708	 0.4224878495	 0.112114
H	-4.6655363969	 0.2397814506	-1.0717815414	 0.120585
