19
gdb 112293	2.82401	1.30674	0.99502	4.3103	76.17	-0.2309	0.022	0.253	1223.2299	0.160988	-419.227643	-419.21924	-419.218296	-419.260873	31.973	
C	 0.0790399417	 1.5596642282	 0.0189056219	-0.395873
C	 0.0273980957	 0.0319489489	 0.1092820445	-0.172506
C	-1.389949427	-0.5456019536	 0.0127740343	 0.03807
N	-2.0565246503	-0.2664711201	-1.2566210865	-0.329776
C	-2.6165867191	-1.3377649768	-1.9045828164	 0.456789
O	-3.3118633687	-1.2994035835	-2.8954291308	-0.387726
C	-2.2028178548	-2.5578441633	-1.1100212869	-0.175286
N	-0.7217229226	-2.6988659301	-1.0649474686	-0.326381
C	-1.4360291882	-2.074404563	 0.0607579064	-0.063867
H	 1.1026724317	 1.9235309039	 0.1466436554	 0.122376
H	-0.2701933932	 1.9193035031	-0.9551925179	 0.116552
H	-0.5393265263	 2.0297043638	 0.7923295634	 0.115088
H	 0.6328315931	-0.422813858	-0.6803617734	 0.127743
H	 0.4529248156	-0.2908100737	 1.0681364108	 0.095125
H	-1.9933834141	-0.1514130852	 0.8457336887	 0.079853
H	-2.1698438503	 0.6628533947	-1.6267911191	 0.251691
H	-2.8360971539	-3.4356087476	-1.1187620512	 0.111544
H	-0.5015173762	-3.6628825704	-0.8221419998	 0.238404
H	-1.462010353	-2.5693609675	 1.0246777552	 0.098181
