20
gdb 61621	3.55517	0.81249	0.75788	5.6435	80.34	-0.2441	0.0332	0.2772	1550.6503	0.171456	-399.31131	-399.301468	-399.300523	-399.346659	35.82	
C	 0.3751527665	 1.4145520493	-0.339205715	-0.395329
C	-0.0229969169	 0.0226628757	 0.0874637349	-0.005962
N	 1.0516472093	-0.9758407674	 0.2271870284	-0.337996
C	 0.2726993325	-0.573000611	 1.4212558961	-0.032271
C	 1.0036401915	 0.1344896914	 2.5436379447	-0.214453
C	 2.0791688685	-0.7788242337	 3.1981950978	-0.10857
N	 3.274131151	-1.0244818732	 2.3827699431	-0.51658
C	 2.4815033091	-0.2225563064	 4.4987732837	 0.285936
N	 2.7779188259	 0.246403494	 5.5122766814	-0.321549
H	 1.3410162909	 1.7017454562	 0.0812794165	 0.129042
H	 0.4624397364	 1.464794679	-1.4294438398	 0.126739
H	-0.375064602	 2.1487002676	-0.0267812968	 0.123438
H	-0.9454064972	-0.3316357349	-0.3710950442	 0.090701
H	 0.7468735238	-1.8858867826	-0.1058673341	 0.237556
H	-0.4574287617	-1.2995849446	 1.7774026431	 0.091993
H	 1.4983704204	 1.0440401612	 2.1917097594	 0.112503
H	 0.2689057074	 0.4397018319	 3.2977520358	 0.121162
H	 1.6145295905	-1.7531994225	 3.4062131026	 0.126229
H	 2.9582690777	-1.2057170822	 1.4313843399	 0.254385
H	 3.8247028465	-0.1708706076	 2.3375283726	 0.233026
