16
gdb 45260	3.2566	1.66935	1.36773	3.2543	67.97	-0.2321	-0.0246	0.2075	934.7147	0.125358	-437.860404	-437.853666	-437.852722	-437.891622	26.63	
O	 0.1352678106	 0.2042170614	-1.056563032	-0.286455
C	 0.0644134134	 1.1635401376	-0.3536644377	 0.424334
C	-1.0272690986	 1.8259249233	 0.4974771505	-0.299508
N	-0.1288525354	 3.0012295011	 0.6674672857	-0.099209
C	 0.2230535578	 3.4281929173	 2.028778205	-0.21302
C	 1.4899758636	 2.6727955472	 2.3899569852	 0.048579
O	 1.3502829236	 1.2549386262	 2.2471984176	-0.253056
C	 1.9872539282	 1.9839570333	 1.1863083589	 0.021643
C	 1.0381873179	 2.2978360501	 0.0466086729	-0.161287
H	-1.9696427614	 2.0449997051	-0.0164995694	 0.128569
H	-1.2309208068	 1.26258883	 1.4175089472	 0.136569
H	 0.4155591965	 4.508889235	 2.0597114301	 0.112403
H	-0.599655809	 3.2174004189	 2.7202835544	 0.121666
H	 2.1431969192	 3.0077666071	 3.1925314674	 0.104665
H	 3.0332106926	 1.7518549943	 1.0093244133	 0.111461
H	 1.5406918379	 2.827747442	-0.7705800493	 0.102646
