23
gdb 72088	2.65643	1.65201	1.50597	0.0529	87.79	-0.2453	0.0792	0.3246	1046.2411	0.209922	-351.187155	-351.179486	-351.178542	-351.21876	32.051	
C	 0.00345245	 1.5182228179	 0.0792835717	-0.491885
C	 0.0372217547	 0.0107866777	 0.0446859597	 0.354189
C	 0.3020291271	-0.6947190582	-1.2821872741	-0.269131
C	 0.562059044	-2.1584012634	-0.8634460468	-0.027885
C	 1.3898869333	-2.0076600589	 0.4342662348	-0.224668
C	 0.7146663295	-0.8279126319	 1.1183220728	-0.091498
C	-0.796328361	-0.8033754475	 1.0117558259	-0.071137
C	-1.5581609922	-2.0384612121	 0.546979533	-0.22827
C	-0.7786572217	-2.8390108569	-0.534933387	-0.204686
H	 0.9337221337	 1.9469222766	-0.313859353	 0.109906
H	-0.8218313429	 1.9155299937	-0.5244508882	 0.112036
H	-0.1283211528	 1.8905202069	 1.1007196625	 0.110838
H	-0.5292194457	-0.6078014041	-1.9931584663	 0.084853
H	 1.1872848333	-0.2565845582	-1.761667966	 0.086975
H	 1.091612172	-2.7259911612	-1.6336228782	 0.058201
H	 1.3862955442	-2.9258980543	 1.0338638127	 0.08765
H	 2.4362616593	-1.7664825554	 0.2104522094	 0.090188
H	 1.1897650196	-0.3598736852	 1.9743854665	 0.068721
H	-1.3052433999	-0.2231609086	 1.7777698565	 0.069343
H	-1.767916816	-2.6759431324	 1.4137755084	 0.097509
H	-2.5369003719	-1.7309525774	 0.1605489899	 0.09698
H	-1.3756092517	-2.9248396585	-1.449582248	 0.090686
H	-0.591681635	-3.8622041388	-0.1910686363	 0.091082
