19
gdb 82837	2.67775	1.60614	1.54509	0.7932	74.24	-0.2402	0.0642	0.3044	984.8175	0.159532	-422.977192	-422.969465	-422.96852	-423.008867	31.136	
C	-0.1861309616	 1.5441323153	 0.090596729	-0.419568
C	 0.0763320007	 0.050074429	-0.0003883112	 0.026703
C	 0.771661231	-0.5714731884	-1.2533308065	-0.116244
C	 2.0996484117	 0.1349215675	-1.6436712184	-0.243681
C	 2.7948367624	-0.5073298254	-0.4227169203	 0.01932
O	 2.420060604	 0.1430842534	 0.8124254022	-0.300225
C	 1.1699806128	-0.5773166165	 0.9016277484	-0.006446
C	 1.5889172329	-1.5051303867	-0.2899110737	 0.362962
O	 1.5611986496	-2.8752027036	-0.3922038298	-0.473622
H	 0.7511544402	 2.1056812237	 0.0628451036	 0.131067
H	-0.8202584715	 1.8880083258	-0.7339024142	 0.111951
H	-0.6935505576	 1.7946600714	 1.0289068458	 0.113249
H	-0.8481428578	-0.5163182807	 0.1710445388	 0.077246
H	 0.1337146886	-0.9427906437	-2.0545902338	 0.073101
H	 2.4977174845	-0.2887269304	-2.5716750318	 0.105326
H	 2.117956475	 1.2254227123	-1.7086504001	 0.104246
H	 3.8611837704	-0.7423720253	-0.457702937	 0.074912
H	 0.9328726363	-0.8626581116	 1.929782633	 0.070652
H	 2.1170808983	-3.2494103561	 0.3014704761	 0.28905
