21
gdb 10765	3.47308	1.41403	1.29265	2.8369	74.16	-0.2342	0.0593	0.2935	1073.2247	0.187117	-366.242115	-366.232523	-366.231579	-366.275966	35.607	
C	 0.1340854489	 1.4480908955	-0.2760562046	-0.418062
C	-0.0500897687	-0.0450319822	 0.0126993186	-0.17663
C	-1.5184824745	-0.5238749657	 0.1115846666	 0.316071
C	-2.2477915182	 0.0732911765	 1.3227479604	-0.427082
O	-2.2233728789	-0.2059419385	-1.0949271866	-0.474929
C	-1.5286173492	-2.0468041445	 0.2093874922	 0.023769
C	-2.6988822987	-2.8410503453	-0.2278802213	-0.251208
N	-1.440039392	-2.8701685588	-1.00260755	-0.339361
H	 1.1969241592	 1.6931377007	-0.3593842204	 0.122488
H	-0.3339363731	 1.7301838482	-1.225627924	 0.11199
H	-0.2843903729	 2.081627559	 0.5127047516	 0.118086
H	 0.4327970133	-0.6264887727	-0.7805718717	 0.111812
H	 0.4623194525	-0.3065427582	 0.9467084573	 0.095222
H	-2.2540449155	 1.1683282924	 1.2895519628	 0.10654
H	-3.2835850415	-0.2749861089	 1.3428205028	 0.126869
H	-1.7645501407	-0.225871138	 2.2584810863	 0.119205
H	-2.3498362709	 0.7464737697	-1.1271748536	 0.284085
H	-0.9293262285	-2.421212753	 1.0376832821	 0.082058
H	-2.9479513045	-3.7681617892	 0.280914977	 0.108905
H	-3.5398529143	-2.3007725707	-0.6505812471	 0.11952
H	-1.556994092	-2.2530259063	-1.8044302182	 0.240652
