13
gdb 42634	2.80825	1.74259	1.29104	3.9331	67.29	-0.263	-0.0403	0.2228	932.7466	0.089773	-415.560828	-415.554042	-415.553098	-415.592174	25.733	
O	 0.0140742955	 0.0656111126	 0.1072710902	-0.297851
C	-0.01400787	 1.2551984277	 0.0909438168	 0.43547
C	-1.0724304562	 2.3044690196	-0.0657117769	-0.178574
C	-0.0708543672	 3.1738551109	-0.7842250254	-0.082085
N	-0.5667960329	 3.5868484904	 0.5293640078	-0.130209
C	 0.7638446775	 3.2555894554	 1.1560677437	-0.186601
C	 1.0892574653	 2.3638881016	-0.0642473211	 0.026937
C	 2.4106060286	 2.0636840461	-0.5238260187	 0.170036
N	 3.4801176836	 1.8298400744	-0.8967293666	-0.328829
H	-2.1375556289	 2.2041636703	-0.2166564873	 0.141978
H	-0.1403639351	 3.7102306069	-1.7195915788	 0.14591
H	 1.3574875772	 4.1695914574	 1.1994717358	 0.147589
H	 0.7192555428	 2.7729359867	 2.1369000505	 0.136226
