21
gdb 112974	3.72955	0.94924	0.86771	1.5132	78.94	-0.2447	0.0775	0.3221	1430.1752	0.18174	-424.192776	-424.183589	-424.182645	-424.227496	33.713	
C	 0.2394404154	 1.5939711703	 0.0628954717	-0.380973
C	-0.1846811505	 0.1837189007	 0.4831556952	-0.191625
C	 0.975896527	-0.6360630376	 1.0156474073	 0.178413
C	 0.7770927496	-2.155041372	 1.2034044529	-0.328831
C	 1.9593931056	-2.2898695039	 0.2141730729	 0.105964
O	 1.999689875	-0.8651839736	 0.004889098	-0.310308
C	 3.2414179284	-2.8278835777	 0.8002610081	 0.058313
C	 4.4859487597	-2.0525332458	 0.7641040486	-0.168458
O	 3.721213288	-2.1666942334	 1.9704638682	-0.23705
H	 1.0212769851	 1.5441461805	-0.7003018933	 0.135555
H	-0.6041467766	 2.1566634076	-0.3475485705	 0.110782
H	 0.6366197519	 2.1576720609	 0.9142399868	 0.114421
H	-0.95575621	 0.2322226589	 1.263905766	 0.096153
H	-0.6280781368	-0.3455687844	-0.3697121531	 0.094974
H	 1.4238540155	-0.1460654603	 1.8900918744	 0.084875
H	 0.9604776227	-2.5411685206	 2.2064315309	 0.120723
H	-0.1761278615	-2.5319509386	 0.8275921757	 0.105045
H	 1.7399536193	-2.8274069256	-0.7186456492	 0.077513
H	 3.3016421423	-3.9179202503	 0.839020425	 0.089407
H	 5.4443688502	-2.5692352694	 0.7689545149	 0.111205
H	 4.4668573998	-1.0679104858	 0.3050460694	 0.133904
