23
gdb 82555	2.64698	1.66358	1.31018	0.0732	89.78	-0.2544	0.0949	0.3493	1092.7669	0.208642	-351.11641	-351.108827	-351.107883	-351.147795	32.418	
C	-0.1381821269	 1.5395488446	-0.0309194853	-0.421112
C	 0.0087940909	 0.0202264822	-0.0752719588	-0.004765
C	 0.9448587896	-0.5382963987	-1.2025972344	-0.02028
C	 2.4249068209	-0.4756702441	-0.6419140281	-0.331591
C	 1.8191215061	-1.4650861062	 0.3828310842	 0.360705
C	 2.0302052006	-2.2777484974	 1.6773260744	-0.352858
C	 0.5892344224	-1.7937464441	 2.0974716748	-0.283769
C	 0.795869371	-0.5929868583	 1.1186787111	 0.041529
C	 0.9859264812	-2.0327290312	-0.8007095543	-0.260053
H	 0.835430995	 2.0324067078	 0.0687225563	 0.112621
H	-0.6111622517	 1.9210929968	-0.9424655044	 0.108607
H	-0.7541783599	 1.851929427	 0.8194992496	 0.11254
H	-0.9848409744	-0.4281826415	-0.1950570036	 0.068023
H	 0.7296665738	-0.2255529006	-2.2261879923	 0.056018
H	 3.1286311736	-0.9052370291	-1.3600703118	 0.092895
H	 2.80890423	 0.4742104702	-0.2581933317	 0.08819
H	 2.207659004	-3.3520971395	 1.5823225164	 0.094659
H	 2.7938344298	-1.8473954107	 2.3325586773	 0.102791
H	-0.1834522087	-2.4941988687	 1.771833937	 0.104941
H	 0.4285112604	-1.5575022621	 3.1517772873	 0.093497
H	 1.3073471781	 0.2024493276	 1.674987587	 0.064168
H	 0.0347711458	-2.5327476688	-0.5950402723	 0.085153
H	 1.5949242084	-2.6467003053	-1.4700818484	 0.088089
