20
gdb 55026	3.16218	1.10255	0.90026	3.0879	81.43	-0.239	0.0155	0.2545	1349.1418	0.169382	-403.13835	-403.128813	-403.127869	-403.173841	34.303	
C	 0.1874346089	 1.6176519214	-0.4134949848	-0.475776
C	 0.1828713197	 0.1360487268	-0.0780204412	 0.372914
O	 0.649319886	-0.3188350589	 0.9432217126	-0.340794
N	-0.4807856801	-0.655151648	-1.0100272498	-0.084636
C	-0.2493480117	-0.7394151201	-2.4368599554	-0.275706
C	-0.056945091	-1.9337566265	-1.5366164738	-0.004464
C	 1.3066268028	-2.4746505981	-1.2601202174	 0.031079
C	 1.4846823577	-3.5653717092	-0.2372338134	-0.249626
C	 1.6464505587	-3.880368435	-1.701161093	-0.287102
H	 0.9342024673	 1.8258075518	-1.1882363823	 0.135755
H	-0.7837007237	 1.939258613	-0.7989968845	 0.139545
H	 0.4455753059	 2.184017724	 0.4812833655	 0.145992
H	-1.125676702	-0.6624305007	-3.0762757948	 0.121971
H	 0.6500102818	-0.2743850412	-2.8371781654	 0.121835
H	-0.844308466	-2.6879752388	-1.5403140461	 0.09599
H	 2.1029002847	-1.7387907972	-1.3200654474	 0.085532
H	 2.3671080837	-3.5289707008	 0.3904240088	 0.121713
H	 0.5962300171	-3.9278865866	 0.2682697123	 0.119284
H	 0.8680507818	-4.4601002746	-2.1871805529	 0.112066
H	 2.6420356781	-4.0653125813	-2.088481957	 0.11443
