23
gdb 93891	2.74623	1.39355	1.12132	1.682	84.69	-0.2567	0.0826	0.3393	1209.0233	0.207085	-388.302332	-388.293469	-388.292525	-388.33543	34.966	
C	-0.3223306111	 1.5089293126	 0.0521375863	-0.384711
C	 0.0073301732	 0.0087434772	-0.0026929368	-0.004728
C	 0.7121399277	-0.4024570545	-1.3156162206	-0.227472
C	 2.2333698019	-0.213323768	-1.2737185487	-0.205936
C	 2.8809929575	-1.1074724748	-0.2035354395	 0.006645
C	 4.385954995	-0.843387727	-0.0628471865	-0.405256
C	 2.1806136642	-0.93726065	 1.1301757148	 0.062188
O	 1.954066369	 0.4128532804	 1.5516053461	-0.262577
C	 0.8136600553	-0.3992409287	 1.2251716931	 0.031583
H	 0.5897683995	 2.1105875364	 0.0158154338	 0.134007
H	-0.9626944021	 1.7947269438	-0.7883116498	 0.107421
H	-0.8466627854	 1.7644530996	 0.978982435	 0.112564
H	-0.9408109881	-0.541487432	 0.0527484938	 0.070705
H	 0.5014655063	-1.4612307707	-1.5163038239	 0.089948
H	 0.2810864426	 0.1609131847	-2.1510537153	 0.090201
H	 2.667145109	-0.451963711	-2.2512362692	 0.089641
H	 2.4818664374	 0.833511059	-1.065655805	 0.111036
H	 2.7381351652	-2.1576223951	-0.501329139	 0.071218
H	 4.563778192	 0.1807428289	 0.2808925793	 0.130318
H	 4.8464696982	-1.5252083376	 0.6601647897	 0.109358
H	 4.8986070194	-0.9747293379	-1.0212877063	 0.110371
H	 2.5328090481	-1.5938931262	 1.9289996253	 0.079061
H	 0.2216246152	-0.6662662991	 2.1023518533	 0.084416
