20
gdb 111466	2.75868	1.40626	1.04932	1.7958	78.2	-0.2268	-0.0256	0.2012	1189.956	0.171203	-403.152945	-403.144402	-403.143458	-403.18639	32.528	
C	-0.0955422799	 1.5165152402	 0.1966628416	-0.391039
C	-0.1581300466	-0.0007446326	-0.0076395968	-0.180013
C	 0.5953148326	-0.4879442879	-1.2576536649	-0.105777
C	 0.8099120783	-1.9860653905	-1.3635172404	-0.042276
C	-0.3622773556	-2.8353578322	-1.6963351496	-0.251009
N	 0.5934246263	-2.4745073175	-2.7532637042	-0.105373
C	 0.1412648115	-1.3291886006	-3.548689546	-0.264334
C	-0.0872900024	-0.1465383039	-2.5948034263	 0.35971
O	-0.694146276	 0.8598109943	-2.8570918285	-0.306677
H	 0.9404856382	 1.8531513127	 0.318241132	 0.108906
H	-0.5237648428	 2.0415009736	-0.6591967012	 0.151876
H	-0.646500443	 1.8086225936	 1.0958839345	 0.110061
H	 0.2664374952	-0.5091016281	 0.8666727195	 0.099823
H	-1.2034737091	-0.3253843925	-0.0716736422	 0.102244
H	 1.5790919232	 0.0068242234	-1.2853855646	 0.105324
H	 1.6549896077	-2.4240656547	-0.8404255736	 0.096516
H	-0.3671478344	-3.8867990621	-1.4258191808	 0.123494
H	-1.3479779868	-2.371200987	-1.7115939202	 0.116321
H	 0.923662814	-1.0532787652	-4.2676537908	 0.135492
H	-0.7641868604	-1.5537755731	-4.1199278776	 0.136729
