17
gdb 96771	2.83239	1.59169	1.21547	1.121	75.34	-0.2425	0.02	0.2625	1052.1532	0.135575	-417.938275	-417.930305	-417.929361	-417.970639	30.579	
C	-0.0176261033	 1.3198653802	-0.0232900545	-0.338954
N	-0.0441047785	-0.1364310326	-0.0780367389	-0.368464
C	-1.1450584584	-0.7315663336	-0.12722775	 0.38091
N	-2.5298514888	-0.295790577	 0.0248970846	-0.210836
C	-3.3355139365	-1.4177153016	-0.6008702005	-0.029604
C	-2.3889827089	-2.4375926843	-1.2397155903	-0.287796
C	-1.4755743706	-2.1912429794	-0.0142599023	 0.296052
O	-0.5474194562	-3.1193338857	 0.3613136576	-0.464972
C	-2.7885325696	-1.6069953975	 0.745791318	-0.135422
H	 0.5207127988	 1.6339309198	 0.8776502559	 0.125851
H	 0.550107549	 1.6969707957	-0.8806679594	 0.128645
H	-1.0133817842	 1.777196898	-0.021907095	 0.135248
H	-4.3383989717	-1.1483955836	-0.9033455461	 0.113114
H	-2.8283518634	-3.4378159494	-1.2151571341	 0.122465
H	-1.9626204524	-2.2300495232	-2.226307631	 0.111717
H	 0.2175313108	-2.6347170952	 0.7005963135	 0.301304
H	-3.1849479259	-1.6454314007	 1.7503082624	 0.120744
