18
gdb 32569	1.96883	1.87785	1.04535	4.9953	73.79	-0.2063	0.0311	0.2374	1157.0423	0.14731	-439.15255	-439.143529	-439.142585	-439.187113	32.59	
C	 0.0186697832	 1.5801315955	-0.0117585054	-0.381727
C	-0.0001391722	 0.0510765408	 0.0505262158	-0.156785
N	 0.6606395555	-0.4808689591	 1.2323176623	-0.174276
C	 2.0247678112	-0.6821665808	 1.2711239826	 0.483806
O	 2.8379934383	-0.508955532	 0.3998856742	-0.42223
O	 2.3112402748	-1.1392150453	 2.5384185527	-0.216552
C	 1.1285694455	-1.1968325919	 3.2477075511	-0.128487
C	 0.1038750794	-0.7982766622	 2.4807938734	 0.269346
C	-1.3493914391	-0.7009347282	 2.7829599368	-0.502055
H	 1.0495868927	 1.9432720927	-0.0185146421	 0.151588
H	-0.4741700388	 1.9257245379	-0.9257274364	 0.122352
H	-0.500052082	 2.0223109995	 0.8445536506	 0.119951
H	-1.0254214231	-0.3294185719	 0.031873689	 0.11433
H	 0.525475955	-0.3633028171	-0.8140926023	 0.14611
H	 1.1854048354	-1.5397452063	 4.2655679263	 0.149003
H	-1.5294489743	-0.9896377289	 3.820969702	 0.143206
H	-1.7298264705	 0.3176272503	 2.644945798	 0.140573
H	-1.944090771	-1.3631730531	 2.1427994513	 0.141846
