16
gdb 12036	3.7556	1.79365	1.55444	3.082	68.64	-0.2368	0.0195	0.2563	861.6485	0.130856	-342.749946	-342.742583	-342.741639	-342.781196	28.246	
C	-0.0953968584	 1.5763356784	 0.0141361211	-0.429996
C	 0.0580860388	 0.0584252976	 0.0596888629	 0.154876
N	 1.1442047941	-0.4991799491	-0.8398507101	-0.366254
C	 1.682952232	-1.2788754364	 0.3018179702	 0.012486
C	 2.2222193768	-0.3097991695	 1.2996536815	-0.291197
C	 0.7388380717	-0.6067451818	 1.2805138877	-0.102138
C	-1.2262850902	-0.5983030051	-0.2076533253	 0.254323
N	-2.2343529024	-1.11682115	-0.4374811427	-0.340815
H	 0.8642845609	 2.0501682388	 0.2285175225	 0.131508
H	-0.4256493153	 1.898174756	-0.9774391687	 0.138275
H	-0.8322416897	 1.9114699122	 0.7500867068	 0.133967
H	 0.7421306735	-1.099054381	-1.5534741712	 0.238784
H	 1.9941355544	-2.3106146296	 0.201166686	 0.107624
H	 2.7362493997	-0.7427290597	 2.1518970089	 0.12281
H	 2.6179237466	 0.6418956958	 0.9584093623	 0.122644
H	 0.2030927377	-0.9889900766	 2.1384838578	 0.113104
