21
gdb 88630	3.63078	1.0232	0.95429	1.192	83.13	-0.2407	0.0821	0.3228	1325.4195	0.183165	-387.034752	-387.02628	-387.025335	-387.068462	33.196	
O	-0.0890864956	 1.4707249076	 0.0444302534	-0.416412
C	-0.0215589551	 0.0745669843	-0.0298821381	 0.090994
C	-0.5215130093	-0.7527943142	 1.1271736622	-0.338249
C	-1.3241590044	-0.6652948347	-0.1614544097	-0.035188
C	-2.6180606316	 0.0890372127	-0.1890574818	-0.000785
C	-3.6037108927	 0.0690525244	-1.3291064334	-0.074418
C	-3.7124956568	-1.32065368	-1.9697880795	-0.230686
C	-4.0769503323	-1.9233184983	-0.5733109866	-0.229622
C	-3.9763422041	-0.5201234591	 0.0410340381	-0.078433
H	 0.557590326	 1.7625840843	 0.6949325826	 0.287498
H	 0.8300424011	-0.304882743	-0.5950822669	 0.082385
H	-0.0141222518	-1.6786912798	 1.3766585873	 0.10642
H	-0.9138441793	-0.2041370556	 1.9778613533	 0.111583
H	-1.283138445	-1.5454158913	-0.7945993016	 0.08748
H	-2.5303422159	 1.0790666699	 0.2495531922	 0.095078
H	-3.9423144663	 0.9892018581	-1.7913163775	 0.079743
H	-4.546995385	-1.391062894	-2.6709647788	 0.099867
H	-2.8168519949	-1.7051278031	-2.4695105463	 0.093508
H	-5.0927783919	-2.3237425021	-0.5538510171	 0.099067
H	-3.4012389493	-2.6805525623	-0.1623593739	 0.094349
H	-4.6509082456	-0.1238305036	 0.7916425919	 0.075819
