20
gdb 40436	3.4498	1.29919	1.193	2.1852	78.33	-0.2232	0.0819	0.3051	1115.4663	0.172341	-403.100135	-403.092346	-403.091402	-403.132389	30.862	
C	-0.8392097773	-0.4066378928	-1.1216718928	-0.229769
C	-1.0379997668	 0.9484962903	-0.538031033	-0.228708
N	-0.0880466092	 0.0067663341	 0.0550014812	-0.147882
C	-0.4105153327	-0.5591396778	 1.3327585768	 0.339858
C	-0.4226262739	-2.039360165	 1.564574683	-0.322816
C	-1.6968125602	-1.2444172791	 1.7756125554	-0.124399
C	-1.9477563034	-0.7583439746	 3.188602374	-0.091838
O	-0.6969256137	-0.2468745262	 3.647758418	-0.256172
C	 0.0116621717	 0.2775633131	 2.5328133638	-0.128837
H	-1.6506087765	-1.1213644734	-1.0002456855	 0.114475
H	-0.2522633844	-0.5396410119	-2.0259198483	 0.119958
H	-0.6026169976	 1.8243626937	-1.0096624165	 0.119654
H	-1.9740697529	 1.1239410276	-0.0115285736	 0.113804
H	-0.3868125244	-2.6685783198	 0.6814143199	 0.113142
H	 0.0942574325	-2.4394023066	 2.4319387432	 0.122255
H	-2.5405961553	-1.3981804597	 1.1131110992	 0.088133
H	-2.724909753	 0.0240315398	 3.1900847791	 0.08856
H	-2.2490933291	-1.542254987	 3.8922633515	 0.107492
H	 1.0802814434	 0.2148525955	 2.7603842325	 0.113082
H	-0.2440594973	 1.3341151497	 2.347258402	 0.090008
