17
gdb 5941	4.57195	1.16586	1.14805	6.1058	64.54	-0.2762	0.0314	0.3076	1078.269	0.139747	-401.012653	-401.003341	-401.002396	-401.04635	33.493	
C	 0.0230885671	 1.5522329939	 0.0655297294	-0.42884
C	-0.005587605	 0.0189598585	 0.0043441115	 0.355391
O	 0.6350721121	-0.5453580193	 1.1379395839	-0.466083
C	-1.4529082238	-0.5000834298	-0.0468138951	-0.110561
O	-2.0440171044	-0.1522639241	 1.1993326627	-0.432281
C	 0.7552955034	-0.5243015203	-1.2238015159	-0.359816
C	 2.1375224574	-0.0572901253	-1.2998936184	 0.2811
N	 3.2277655115	 0.3159324995	-1.3810747807	-0.315794
H	 1.0509229869	 1.9019678986	 0.1828598568	 0.14974
H	-0.3975682279	 1.9962923215	-0.8432354329	 0.110536
H	-0.5676858141	 1.8983133958	 0.916899613	 0.133471
H	 0.0191257982	-0.4289425001	 1.8728030666	 0.28961
H	-1.9984642755	-0.0472288649	-0.8882199075	 0.095166
H	-1.4391303151	-1.5905762699	-0.1841528636	 0.097192
H	-2.8537177965	-0.657059536	 1.3123657845	 0.299712
H	 0.7622891136	-1.61822503	-1.1777709887	 0.155402
H	 0.2387506321	-0.2305856981	-2.1444011556	 0.146054
