14
gdb 11485	3.37646	1.503	1.12934	3.9766	62.91	-0.2647	-0.0932	0.1715	1009.7995	0.106574	-378.705941	-378.698001	-378.697057	-378.739485	27.231	
O	-0.6265639893	 0.1308569298	-1.045219918	-0.253565
C	-0.007778503	 1.0212360171	-0.5233784181	 0.315392
C	 1.3925591591	 1.4555690123	-0.9083928107	-0.342875
C	 2.4204018102	 0.984215036	 0.1109968128	 0.016028
C	 3.6296192563	 1.8024326502	 0.3780302939	-0.241785
N	 2.5878214818	 1.6589980938	 1.4055314752	-0.300659
C	-0.6028105033	 1.7840677547	 0.6001424436	 0.227846
N	-1.0528955314	 2.4149023833	 1.4587799594	-0.304193
H	 1.6052861413	 1.0250540318	-1.8913832991	 0.145545
H	 1.4198272291	 2.5495231755	-0.9832833144	 0.128823
H	 2.5022643531	-0.0986482541	 0.1783035297	 0.116585
H	 4.5728688884	 1.3162218567	 0.6085439904	 0.131246
H	 3.7244442765	 2.7495421168	-0.1477848735	 0.118129
H	 2.0146829812	 2.4976691662	 1.4590892888	 0.243483
