16
gdb 35632	3.35484	1.44791	1.13269	1.9703	74.88	-0.2413	0.0126	0.2539	1053.9845	0.124804	-400.703005	-400.695402	-400.694458	-400.735349	29.253	
C	 0.0566497361	-1.2014146773	 0.154511401	-0.436373
C	 0.021039653	-0.003437445	 0.0816644634	 0.324269
C	 0.0131509802	 1.4506914171	-0.0480160976	-0.073964
O	-0.8488155664	 1.977704526	 0.9892898957	-0.245966
C	-0.653789255	 3.2638941015	 1.3841101443	 0.120841
N	 0.3712820796	 3.9912298557	 1.2514530347	-0.253654
C	 1.5213000607	 3.4124702132	 0.6265947392	-0.002697
C	 2.1611762203	 2.1949219174	 1.2693920261	-0.294268
C	 1.4076847478	 2.0556281743	-0.0219712452	-0.055733
H	 0.0819591728	-2.2609472717	 0.2258542218	 0.204945
H	-0.4522167493	 1.7181689371	-1.0075782127	 0.121872
H	-1.5405159691	 3.6302972068	 1.8966728546	 0.129271
H	 2.1833193907	 4.1475236933	 0.1825325061	 0.100871
H	 3.2412472864	 2.1059177314	 1.2398375059	 0.11963
H	 1.6989877641	 1.8227313825	 2.1772952746	 0.136104
H	 1.9741957182	 1.8604902676	-0.9269075018	 0.10485
