19
gdb 114644	2.89592	1.25335	1.0995	2.6977	74.63	-0.248	-0.0141	0.2339	1185.4773	0.15948	-423.019306	-423.011106	-423.010162	-423.05232	31.262	
C	-0.0369391787	 1.5652989131	 0.0236172353	-0.381124
C	-0.0542883018	 0.0342109873	-0.0265904379	-0.205771
C	 0.7251807076	-0.5414372454	-1.2119911692	 0.023116
C	 2.2905405919	-0.3863074842	-1.1403627268	-0.25253
C	 2.6749764542	-1.8731732739	-1.2366385037	-0.042671
O	 1.7595109621	-2.3761427538	-2.2671260805	-0.296424
C	 0.6746416463	-2.0814808968	-1.3257049163	-0.068195
C	 1.6882156596	-2.5468082394	-0.2546971872	 0.450028
O	 1.720876827	-3.2491957317	 0.7053800073	-0.317204
H	 0.9830910949	 1.9527915578	 0.1159718333	 0.120268
H	-0.4724208768	 1.9939843255	-0.8856174453	 0.117958
H	-0.6115679824	 1.9375140746	 0.8768347156	 0.118667
H	 0.3513131711	-0.371857226	 0.9094465653	 0.110286
H	-1.0940674212	-0.3137158416	-0.0818076172	 0.101999
H	 0.3460593322	-0.1120036401	-2.1449476168	 0.08561
H	 2.6990603266	 0.1840911815	-1.976797454	 0.117582
H	 2.6320020373	 0.0705755159	-0.2062245784	 0.113598
H	 3.7129566501	-2.1720986262	-1.3667245122	 0.103478
H	-0.2660285999	-2.5826123064	-1.5460256714	 0.101331
