22
gdb 110446	3.4987	1.17185	1.05661	1.6362	85.41	-0.2318	0.088	0.3197	1267.7606	0.194638	-367.153009	-367.144394	-367.14345	-367.186124	33.673	
C	 0.0246831608	 1.4791977612	-0.0976497208	-0.379521
C	-0.1235539178	-0.0428126556	 0.0140813435	-0.210373
C	 0.6562219439	-0.6044590024	 1.1940109833	 0.08989
C	 0.7630983249	-2.1135371363	 1.5006630484	-0.117539
C	 2.2346155567	-1.7669526072	 1.9572296674	-0.05599
C	 2.5926407947	-1.8479908784	 0.5225102838	-0.038949
C	 1.3764958086	-2.7250264082	 0.2077993927	 0.002855
C	 1.6755679667	-4.2172574362	 0.3146000449	-0.411958
N	 2.1629250647	-0.5341761764	 1.128485135	-0.16797
H	 1.0785223415	 1.7564231152	-0.1938993095	 0.137868
H	-0.5127426431	 1.8678622086	-0.9678726223	 0.107655
H	-0.3708499168	 1.9818917483	 0.7918634399	 0.111804
H	-1.1819110061	-0.3109668943	 0.136757318	 0.093892
H	 0.2101154619	-0.5088908436	-0.918490253	 0.102348
H	 0.3755022336	-0.0607633413	 2.1046818539	 0.073446
H	-0.0022175575	-2.6543555336	 2.05695828	 0.064849
H	 2.7943846114	-1.8502213361	 2.8792296235	 0.094431
H	 3.5712819182	-1.856196886	 0.059064285	 0.091882
H	 0.8382151875	-2.5227258749	-0.7246863812	 0.064563
H	 2.1894319486	-4.4532740371	 1.2528917171	 0.117994
H	 0.751574208	-4.8041407034	 0.2769400915	 0.114192
H	 2.3146780195	-4.5525638422	-0.5095676813	 0.114631
