19
gdb 107140	3.33355	1.10739	1.07825	1.9321	75.19	-0.2132	0.0629	0.2761	1204.4873	0.157684	-422.939935	-422.931189	-422.930245	-422.973195	34.061	
O	 0.1829050204	 1.3467056557	 0.4073804887	-0.414527
C	 0.0211901939	 0.0308929424	-0.1141319175	-0.176545
C	-1.3989360954	-0.4478221005	-0.0949305604	 0.341252
C	-2.0594485803	-1.0231549905	 1.1295463638	-0.352532
C	-1.9276019751	-1.8758136994	-0.1055264211	-0.193775
C	-2.9091414438	-1.489285292	-1.2551123032	 0.400095
O	-3.0556027696	-2.2959595719	-2.3677569571	-0.455116
C	-3.8590732912	-0.3741189219	-0.9179217333	-0.372607
C	-2.4040003449	-0.071578729	-1.232761138	-0.184826
H	-0.3705685351	 1.9369375647	-0.1141246631	 0.282564
H	 0.4251653687	-0.0360271362	-1.1376984517	 0.089171
H	 0.6374151732	-0.6150216586	 0.5204554333	 0.106864
H	-1.3630277271	-1.2778310971	 1.9240031594	 0.116403
H	-3.0179601984	-0.6785838334	 1.5004266439	 0.112445
H	-1.3539043253	-2.7940717755	-0.1348270809	 0.094784
H	-3.7564340196	-2.9334347956	-2.1870711704	 0.285425
H	-4.5205968338	-0.1324305112	-1.7449951634	 0.116834
H	-4.3038230025	-0.2191511109	 0.0594042133	 0.11099
H	-2.126675604	 0.558397381	-2.0691374321	 0.093102
