15
gdb 33916	4.11426	1.31079	1.18522	5.2746	70.89	-0.2388	-0.0078	0.231	1028.6889	0.113453	-416.732348	-416.725318	-416.724374	-416.763827	27.325	
N	 0.0157628933	-1.1599218182	-0.1011534005	-0.338418
C	 0.0514289604	-0.0057655989	-0.0279191535	 0.190483
C	 0.0624220569	 1.4116289551	 0.1435902366	 0.362481
O	 0.2352728893	 2.2464473653	-1.0025531797	-0.249365
C	 1.1650612816	 2.4096540939	 0.060041437	-0.065044
C	 0.5189315894	 3.2902430807	 1.1546447627	-0.076487
C	-0.5651626132	 4.3176932815	 0.7142456231	-0.178077
N	-1.6072961298	 3.2476623314	 0.7418812706	-0.296289
C	-0.6439022693	 2.2669382167	 1.258395423	-0.129078
H	 2.2141172789	 2.2636282103	-0.1708644649	 0.130243
H	 1.1551262631	 3.5263528391	 2.0053798231	 0.095969
H	-0.714813801	 5.1112026477	 1.4540246223	 0.105333
H	-0.4345687647	 4.7635164537	-0.2753005585	 0.123807
H	-2.3842045107	 3.4308717507	 1.363721445	 0.228953
H	-0.8791426841	 1.7188892011	 2.1715437736	 0.09549
