14
gdb 46457	3.96395	1.20072	1.07643	2.0372	67.7	-0.2566	-0.0149	0.2417	1079.287	0.10313	-432.889061	-432.881681	-432.880737	-432.921075	27.593	
O	 0.0142449753	-0.0364123935	-0.0238917166	-0.37159
C	 0.0095434956	 1.1711706258	 0.0079275907	 0.484062
N	-1.0830790117	 1.9903104662	 0.1248461536	-0.334542
C	-0.8397764071	 3.4186757235	 0.0298302904	-0.213373
C	 0.6864539468	 3.4902968995	-0.0657786371	 0.207757
N	 1.3497818376	 2.9256846296	 1.1298202417	-0.346408
C	 1.2138647668	 2.091573326	-0.0803416549	-0.23847
C	 1.3066301587	 4.5584475592	-0.7935864426	 0.199247
N	 1.8037203171	 5.4326207109	-1.3654093428	-0.327854
H	-1.9962239249	 1.6010676627	 0.2953369705	 0.264663
H	-1.3007511922	 3.8534609399	-0.8650202874	 0.136065
H	-1.1998110915	 3.9593197903	 0.9118460898	 0.140694
H	 2.303790573	 3.2804767161	 1.1839642066	 0.259425
H	 2.0860175865	 1.783452894	-0.6424852218	 0.140325
