27
gdb 122159	2.86443	0.72558	0.6528	0.1126	97.39	-0.2535	0.0864	0.3399	1922.4708	0.250339	-353.562559	-353.551081	-353.550137	-353.599487	42.453	
C	 0.1047705216	 1.538907818	-0.3084751129	-0.380859
C	 0.0126024459	 0.0609573716	 0.0809322684	-0.161629
C	-1.4030101959	-0.5111742729	-0.0533773972	-0.15756
C	-1.4944789498	-1.9909670739	 0.3491586495	-0.269894
C	-2.8718334644	-2.6124411808	 0.155252286	 0.366555
C	-3.9706114569	-2.002459118	 1.010224554	-0.458916
C	-3.2591435488	-3.0839722521	-1.2316914657	-0.327576
C	-3.0018704028	-4.0963731302	-0.1379959084	-0.037984
C	-1.8389464298	-5.0626348979	-0.2106938938	-0.413086
H	 1.1260279002	 1.9186726066	-0.2033716443	 0.109364
H	-0.2026622993	 1.693962547	-1.3488060211	 0.112563
H	-0.5460870289	 2.1552899786	 0.321795416	 0.112423
H	 0.7014547757	-0.5257520778	-0.5415696313	 0.091756
H	 0.3584328407	-0.067366302	 1.1154221435	 0.092754
H	-2.087870584	 0.0880513275	 0.5598429411	 0.093774
H	-1.7459966001	-0.3977916256	-1.0908836055	 0.093542
H	-0.7515197691	-2.5498258491	-0.2305764663	 0.089263
H	-1.1960433914	-2.0947365783	 1.4027198831	 0.088166
H	-4.131309477	-0.9448061787	 0.7749301566	 0.115959
H	-4.9231916203	-2.5189789398	 0.8555451905	 0.109173
H	-3.7247050709	-2.0712557794	 2.0772108254	 0.10972
H	-4.2765788442	-2.9250570579	-1.5747998256	 0.101533
H	-2.5124597583	-3.0026596461	-2.0167248241	 0.100967
H	-3.8978320751	-4.5458595799	 0.2857286972	 0.075416
H	-0.9697409243	-4.6316198326	-0.7148290077	 0.116039
H	-1.5188216953	-5.3841773709	 0.7871394665	 0.114025
H	-2.1235481872	-5.9603364052	-0.7711747438	 0.114512
