19
gdb 126572	5.06396	0.76468	0.69797	3.6038	79.97	-0.2132	0.0195	0.2327	1647.8718	0.159398	-419.218263	-419.208994	-419.20805	-419.253005	34.007	
C	-0.202374421	 1.5164112329	-0.0539589032	-0.379118
C	-0.2609365186	 0.0024457644	-0.2689648654	-0.161542
C	 0.9759905706	-0.5359110184	-1.0109136126	-0.298638
C	 0.933249825	-2.0179503905	-1.2287394299	 0.412979
N	 1.7870228009	-2.7888237934	-0.5962898634	-0.228633
O	 1.4663078839	-4.1068010403	-1.0042856098	-0.216783
C	 0.4407378552	-4.0548482775	-1.8615827229	 0.487923
N	 0.0500648745	-5.2553745384	-2.4056584177	-0.594294
C	 0.0424336365	-2.7616543112	-2.0535542238	-0.437071
H	 0.6779791433	 1.7983415366	 0.5339221799	 0.118876
H	-0.14685618	 2.0514146264	-1.0087112789	 0.113613
H	-1.0880621059	 1.8762218796	 0.4786218525	 0.112799
H	-0.3436586895	-0.5096394043	 0.6968636216	 0.110311
H	-1.1657063221	-0.2574984534	-0.8320541968	 0.097414
H	 1.0641803723	-0.0309775818	-1.981569468	 0.107704
H	 1.8815266478	-0.3001090279	-0.4428177699	 0.122585
H	 0.300801803	-6.0597670533	-1.848085652	 0.266332
H	-0.9070409398	-5.2839922791	-2.7227550102	 0.264097
H	-0.7474102662	-2.3969304205	-2.6881073297	 0.101446
