22
gdb 7492	3.67979	1.14644	1.05347	1.9733	77.85	-0.2417	0.0729	0.3147	1248.9605	0.199239	-350.193282	-350.183841	-350.182897	-350.228404	34.083	
C	-0.092051034	 1.59843974	 0.1470259517	-0.377935
C	 0.0008229895	 0.0707372101	 0.0860882911	-0.177909
C	-1.3664604578	-0.5959080962	-0.1139832627	-0.237848
C	-1.3604100962	-2.1291298982	-0.0903667283	 0.299964
C	-0.5055659278	-2.7450253125	-1.1964903749	-0.462959
C	-1.1469571152	-2.7595565321	 1.3135559564	-0.105958
O	-2.4821266655	-3.2995866077	 1.334827483	-0.273292
C	-2.776619987	-2.753162993	 0.0349338557	-0.116242
H	 0.8936387155	 2.0530170901	 0.2866330371	 0.112126
H	-0.5185136154	 2.0052534182	-0.7766840021	 0.114705
H	-0.7303416531	 1.9243852673	 0.9757061275	 0.115609
H	 0.6786160095	-0.2163545719	-0.7262654338	 0.100353
H	 0.4583001487	-0.3034929796	 1.011699296	 0.098111
H	-2.0506569852	-0.2401341577	 0.6683126759	 0.096751
H	-1.7965576863	-0.2586842413	-1.0681369841	 0.091788
H	 0.5518354736	-2.4854363096	-1.0834055494	 0.119814
H	-0.5800513145	-3.8371966541	-1.1833985546	 0.119259
H	-0.8307011741	-2.3984254344	-2.1844339406	 0.11389
H	-0.3842431472	-3.5475907038	 1.3677282324	 0.093223
H	-0.9795288989	-2.0495856278	 2.1346162975	 0.092642
H	-3.6071221491	-2.035297472	 0.0690990795	 0.092164
H	-3.0148360496	-3.5366080536	-0.6967586732	 0.091744
