20
gdb 7136	6.96088	0.75319	0.69544	3.4067	73.44	-0.2427	-0.0083	0.2343	1668.1378	0.17342	-386.149379	-386.139116	-386.138171	-386.186115	34.44	
C	-0.1049631033	 1.5809008352	 0.0041506185	-0.386893
C	-0.0070160836	 0.0558599664	 0.0819834985	-0.159584
C	-1.3607100255	-0.6338049709	-0.093734002	-0.290241
C	-1.2761489423	-2.1556468219	-0.090819601	 0.346331
O	-0.2353955296	-2.7550139641	-0.193033518	-0.278486
C	-2.6188386935	-2.870646034	 0.0514921063	-0.149184
O	-2.4644198946	-4.2450494135	-0.1221726687	-0.209721
C	-3.6710553289	-4.9550416159	 0.0295582199	-0.225313
H	 0.8769204034	 2.0458982175	 0.1346340499	 0.116834
H	-0.5001947588	 1.9063099504	-0.9649033956	 0.113145
H	-0.7672107396	 1.9808799883	 0.7804754951	 0.111766
H	 0.6806135507	-0.3220688584	-0.6808377205	 0.12042
H	 0.4243692855	-0.2443189618	 1.0437441178	 0.107933
H	-2.0748239728	-0.3118910176	 0.6772512831	 0.110632
H	-1.8199698982	-0.3367152524	-1.0489711195	 0.124016
H	-3.0249060167	-2.6262267143	 1.0520888033	 0.104959
H	-3.3312177772	-2.438875188	-0.6763440952	 0.100623
H	-3.4448693715	-6.0126549991	-0.1230362471	 0.134352
H	-4.0997645473	-4.8234706924	 1.0359387569	 0.104511
H	-4.427198716	-4.6420859734	-0.7082057616	 0.1039
