15
gdb 43122	3.9234	1.57825	1.50313	2.2252	63.91	-0.2278	-0.0311	0.1967	880.5815	0.114578	-457.74001	-457.733888	-457.732944	-457.770444	24.835	
O	-0.0066219438	-0.0057775148	-0.0447572861	-0.311539
C	-0.0269930785	 1.1842086743	 0.0335182666	 0.462367
C	-1.0788171322	 2.3159246494	 0.0299051538	-0.092891
O	-0.815418364	 2.914871112	 1.3108570679	-0.28431
C	 0.6119653265	 3.2089057719	 1.1944810043	 0.05964
C	 0.6650611366	 4.6209421702	 0.6273181406	-0.075185
O	 0.0629067119	 4.4622461286	-0.6705554479	-0.27555
C	-0.0532909293	 3.0809719134	-0.89578929	 0.126617
C	 1.00358218	 2.3164453836	-0.0140946083	-0.259152
H	-2.1445454229	 2.2034652578	-0.1478097936	 0.104111
H	 1.1165134204	 3.0358265805	 2.1442026529	 0.103225
H	 0.0630331088	 5.3091134759	 1.2274039679	 0.126883
H	 1.6870932666	 5.0130374696	 0.5250578656	 0.100024
H	-0.1010455098	 2.858244856	-1.9601288218	 0.112957
H	 2.0528614097	 2.1972891916	-0.2677864219	 0.102803
