17
gdb 34679	5.14968	1.10476	1.09846	4.5631	77.05	-0.2466	0.0213	0.2679	1120.4863	0.139237	-380.810502	-380.803854	-380.80291	-380.841523	27.101	
N	 0.1168200894	-1.1177173887	 0.0467266153	-0.325988
C	 0.0392232268	 0.0361928848	 0.01987766	 0.259968
C	-0.0526096964	 1.4718177733	-0.0032612413	-0.2311
C	 0.4076806026	 2.2083470358	 1.254577632	-0.045459
C	 1.2694912535	 2.2275087791	 0.0173775621	-0.001159
N	 1.3395389832	 3.6669130319	-0.3640294481	-0.146701
C	 1.5959995912	 4.2253986317	 1.0441693133	-0.163976
C	 0.1428856176	 3.7247105092	 1.3523134421	-0.076198
C	-0.07952298	 4.1465343833	-0.1138195053	-0.183573
H	-0.8974006116	 1.8293482323	-0.5784384905	 0.13616
H	 0.6370909353	 1.6369536957	 2.1447723192	 0.119954
H	 2.1915153948	 1.6735400658	-0.0994577103	 0.125449
H	 2.4313992705	 3.7612728552	 1.5732913922	 0.111894
H	 1.7104839302	 5.3109764839	 1.0083895211	 0.114288
H	-0.4673061581	 4.0849839896	 2.1814627812	 0.078201
H	-0.1093315779	 5.2293645636	-0.2426210283	 0.116648
H	-0.8628414711	 3.7025155536	-0.7275097445	 0.111593
