19
gdb 97235	2.43861	1.479	0.95678	5.4332	80.83	-0.2267	-0.0447	0.182	1238.6626	0.160045	-419.234899	-419.226003	-419.225059	-419.268921	32.798	
C	 0.1741412947	 1.4081062133	 0.1590876432	-0.339916
N	 0.099133093	-0.03561091	 0.0920566152	-0.254071
C	 0.3967406241	-0.6009769865	-1.0154009971	 0.265394
N	 0.8159255545	 0.0436002191	-2.1642561162	-0.356606
C	 0.9429889129	-0.5691636241	-3.4795041793	-0.154734
C	 1.4200664832	-2.010850523	-3.3477956219	-0.21689
C	 0.4646864356	-2.7815678772	-2.4323982522	-0.304766
C	 0.3272590337	-2.1288984112	-1.0632190762	 0.346849
O	 0.1551627243	-2.7753080402	-0.062024994	-0.27834
H	 1.1935587406	 1.7831539065	-0.0318140776	 0.112397
H	-0.4947034659	 1.9043019595	-0.566368947	 0.103818
H	-0.1216784536	 1.7437854851	 1.1558008187	 0.129793
H	 0.7205886374	 1.0468386972	-2.1563988512	 0.243603
H	-0.015287325	-0.5522131967	-4.0251599065	 0.10483
H	 1.6548759358	 0.0227748299	-4.0643912189	 0.112606
H	 1.4665377452	-2.4760762952	-4.3369820686	 0.11087
H	 2.4338969667	-2.0236794339	-2.9310398276	 0.119419
H	-0.5386011911	-2.7946889647	-2.8844341434	 0.127054
H	 0.7616978537	-3.8220050277	-2.2818064097	 0.128691
