18
gdb 105015	2.05964	1.47864	1.10146	3.6165	72.18	-0.2676	0.0089	0.2765	1169.2735	0.145046	-439.05954	-439.049749	-439.048805	-439.094613	35.122	
C	-0.2310284633	 1.2129810782	-0.0523407758	-0.256184
O	 0.4000451806	-0.0584838827	-0.0726553536	-0.279669
C	 0.7296680447	-0.5810787141	 1.1772820856	 0.418366
C	-0.371719576	-1.0710761159	 2.0776396624	-0.332063
C	 0.508124544	-2.052953326	 1.3276853737	-0.317834
C	 1.96861605	 0.0779605601	 1.8023819115	-0.077488
O	 2.3065297498	-0.4436766875	 3.073201421	-0.410233
C	 3.1148439481	-0.0011598537	 0.8729801541	 0.260915
N	 4.0342535645	-0.0963455039	 0.1799301289	-0.317316
H	 0.4422257787	 2.010071289	 0.2907156656	 0.116663
H	-0.5234077387	 1.4295397837	-1.0816625997	 0.139134
H	-1.1252963809	 1.2094384946	 0.5845407969	 0.11444
H	-0.2315835752	-0.9807713161	 3.1480285878	 0.134503
H	-1.3884739957	-0.9409629116	 1.7251639673	 0.125363
H	 0.0869717997	-2.5555487501	 0.4654589227	 0.136455
H	 1.2172795888	-2.6445644734	 1.8965591286	 0.105856
H	 1.7540235076	 1.1386870898	 1.9748107286	 0.136648
H	 2.7461696532	-1.2918652106	 2.9472315545	 0.302444
