19
gdb 77118	3.10511	1.1411	0.92116	4.7673	78.63	-0.2434	0.0205	0.2639	1284.3028	0.158973	-419.189441	-419.180494	-419.17955	-419.223666	32.718	
C	-0.3518772502	 1.3893761855	-0.0078892659	-0.399901
C	 0.0237290903	-0.0856272623	 0.0033935198	-0.039949
N	 1.2272569921	-0.4477047056	-0.7713514217	-0.061761
C	 1.9424729593	-1.0683828467	 0.3507111718	-0.229945
C	 0.763902885	-0.6477265737	 1.2397001368	 0.308473
C	 0.7511883569	-0.1286806733	 2.6207877038	-0.301545
N	 0.216360168	-1.4711505095	 2.3018305435	-0.353881
C	 1.4238973045	-0.6266781031	-2.0981426814	 0.132337
O	 2.3926612404	-1.1730657395	-2.5837269377	-0.328577
H	 0.5028473858	 2.0105867203	 0.2733569816	 0.12974
H	-0.6918101255	 1.6983188081	-1.0013569152	 0.128975
H	-1.1702482375	 1.580095834	 0.6949465428	 0.120248
H	-0.8452098762	-0.7009646947	-0.2729675425	 0.090521
H	 2.0688114995	-2.1504516142	 0.2426997391	 0.134482
H	 2.9114929649	-0.6101162786	 0.5710860965	 0.12519
H	 1.6630781841	-0.1302501721	 3.2119066554	 0.128059
H	 0.054350556	 0.6694370943	 2.8645081417	 0.117579
H	-0.80122386	-1.4528991577	 2.2846025922	 0.233808
H	 0.5974453826	-0.1977279614	-2.7024689306	 0.066146
