17
gdb 54106	2.95491	1.5562	1.2032	3.4481	68.76	-0.2318	0.0104	0.2422	1028.5446	0.136692	-455.09625	-455.088092	-455.087148	-455.129123	31.685	
N	 0.2535867105	 0.8143339473	 1.1193549712	-0.519462
C	 0.1059959166	 0.0407238561	 0.0092291669	 0.309627
O	 0.9222518813	 0.0151088559	-0.8939433833	-0.364733
C	-1.1882962987	-0.7909068293	 0.0176129122	 0.319415
O	-2.2009710882	-0.1114717633	 0.7507409877	-0.488774
C	-1.6382907565	-1.5808039864	-1.2545071431	-0.088428
C	-0.481500086	-2.5821695904	-1.0140775305	-0.211112
C	-1.1633406547	-2.320972322	 0.3499793952	-0.072698
N	-2.4873181811	-2.4932473266	-0.3753142528	-0.339252
H	 1.0862927881	 1.3718202723	 1.2116969105	 0.26205
H	-0.4584830994	 0.8335167267	 1.8284246733	 0.267497
H	-2.4424189163	 0.6848799985	 0.264368106	 0.289964
H	-2.0039282741	-1.1737548405	-2.1985011526	 0.084121
H	-0.6793306419	-3.5779302819	-1.4087533943	 0.109653
H	 0.532565468	-2.2290123678	-1.169939096	 0.139583
H	-0.9672570458	-2.7785448819	 1.3210809043	 0.084915
H	-3.1884222619	-1.9225394165	 0.1034673652	 0.217633
