17
gdb 19368	4.4111	1.69959	1.52516	2.3806	67.76	-0.2205	0.0696	0.29	884.2778	0.141355	-363.75257	-363.745267	-363.744323	-363.784085	28.045	
C	 0.0272794016	 1.3416140376	 0.228346108	-0.257543
O	-0.0445311613	-0.0100483021	-0.2018761064	-0.273852
C	-1.3020080312	-0.5487044619	-0.0831205926	 0.4395
C	-1.8842859273	-1.053322827	 1.2098335917	-0.371131
C	-1.7020609738	-1.9860681294	 0.0257837716	-0.100721
N	-2.6914510126	-1.8777424765	-1.1242516187	-0.136142
C	-3.7215730221	-0.8569832799	-0.8402569755	-0.248243
C	-2.3613969919	-0.4114815264	-1.2064273109	-0.109141
H	 1.0610385526	 1.6645306766	 0.0893967134	 0.130209
H	-0.6328930294	 1.9908931611	-0.3635856136	 0.114258
H	-0.2455016692	 1.4379782366	 1.2880871486	 0.113729
H	-1.1194257524	-1.2251859652	 1.9620686684	 0.124025
H	-2.8417540398	-0.7529826459	 1.6215084145	 0.11208
H	-1.1187479476	-2.8952762585	 0.0852752247	 0.114446
H	-4.4759615418	-0.8227825607	-1.6220727548	 0.123935
H	-4.1216121197	-0.7265589283	 0.1583691223	 0.12049
H	-2.1132693141	 0.0392868399	-2.1625956308	 0.104101
