18
gdb 115527	2.69687	1.06434	1.05069	5.1147	72.27	-0.2749	0.0099	0.2849	1250.1763	0.14587	-439.070917	-439.061308	-439.060364	-439.105856	34.145	
C	-0.2997607487	 1.6204878243	 0.0097187054	-0.440978
C	 0.0246979275	 0.1310790664	 0.0549337242	 0.226315
O	 1.2213741508	-0.1859050205	-0.6874795379	-0.299683
C	 1.778198561	-0.9407562788	 0.4190277437	-0.08118
C	 0.6264710662	-0.5144406002	 1.3487427392	-0.06573
C	 1.012217845	 0.4127207646	 2.4872103231	-0.111232
O	 1.7147132199	-0.3898735451	 3.4224939829	-0.419499
C	-1.123940406	-0.643865269	-0.4592018064	 0.266901
N	-2.0273390874	-1.2512793723	-0.847426554	-0.337618
H	 0.5475297072	 2.2039337181	 0.3741156262	 0.131161
H	-0.5018441821	 1.9151662078	-1.0234600021	 0.150878
H	-1.1847102132	 1.8468930217	 0.6113774189	 0.138967
H	 1.8273807992	-2.0111763226	 0.1940487854	 0.121059
H	 2.7735476895	-0.5792899362	 0.6955275021	 0.118175
H	 0.0344042645	-1.3382572255	 1.7492386867	 0.113473
H	 1.6446471298	 1.2334682047	 2.1160610241	 0.096092
H	 0.1106143189	 0.8610280453	 2.9333472153	 0.099112
H	 2.0239655479	 0.1743509673	 4.1372817234	 0.293787
