14
gdb 3534	7.39892	2.38097	2.30773	1.4202	57.36	-0.2329	0.0613	0.2943	607.5551	0.114416	-324.463541	-324.458053	-324.457109	-324.492468	21.637	
O	 0.0121089684	 1.4809071836	-0.1199785042	-0.440194
C	 0.0483785837	 0.0805459079	-0.0292473933	 0.123152
C	-0.001064635	-0.5776143233	 1.3590371345	-0.054117
C	-1.5108751303	-0.2490849081	 1.5748330653	-0.056068
C	-1.7680583109	-1.7269645498	 1.8423563709	-0.1831
N	-0.6992693417	-1.8281916334	 0.7543343453	-0.171933
C	-1.32154275	-0.5815598251	 0.0624138683	-0.024812
H	 0.911600161	 1.8134410237	-0.0422889078	 0.288234
H	 0.7461047016	-0.380456085	-0.7410573167	 0.08072
H	 0.7730168438	-0.695023622	 2.1204698374	 0.07794
H	-1.9510530814	 0.6476884268	 2.0173882009	 0.075653
H	-1.4496430281	-2.1451926797	 2.8032287464	 0.099764
H	-2.7329929931	-2.1496043162	 1.5425171565	 0.101006
H	-2.0941209279	-0.6989128595	-0.6990982936	 0.083755
