16
gdb 53222	4.17127	0.85557	0.78085	3.7415	83.15	-0.2501	-0.0314	0.2187	1485.2485	0.123797	-400.744515	-400.735773	-400.734828	-400.780038	30.808	
C	-0.0050608831	 1.5049310795	 0.0016582861	-0.498123
C	 0.0321364219	 0.0509165426	 0.0320038166	 0.043519
C	 0.0678629116	-1.1514246827	 0.0680692688	 0.108992
C	 0.0999613096	-2.610030025	 0.0855829672	-0.122619
O	 0.5880656675	-3.112355443	 1.3480882446	-0.23941
C	-0.3477197949	-3.9499471079	 1.9104015826	 0.393721
N	-0.2136920182	-4.5529293016	 3.0146729386	-0.546466
C	-1.5014430925	-4.0162291041	 1.0029550714	-0.138001
C	-1.2643446174	-3.2510863295	-0.0588218092	-0.08789
H	 0.5609454239	 1.8995461925	-0.8489141893	 0.153338
H	-1.0326361631	 1.8757424759	-0.0767433392	 0.153524
H	 0.4312324187	 1.9237653342	 0.9148494926	 0.159131
H	 0.7864741193	-2.9707140431	-0.6947412967	 0.128256
H	 0.6858736122	-4.3255199422	 3.4410199238	 0.224623
H	-2.3743200078	-4.6118766267	 1.2247008265	 0.134691
H	-1.9004069778	-3.0639262792	-0.9125012143	 0.132714
