19
gdb 82799	3.65452	1.60436	1.49199	1.4031	78.42	-0.2262	0.0207	0.2469	939.2102	0.162993	-385.877128	-385.870573	-385.869629	-385.907543	28.4	
O	 0.0097412319	 1.4761891456	-0.0767892002	-0.441465
C	 0.0130290347	 0.0731738386	 0.0411856589	 0.142333
C	 0.1513444496	-0.6121524032	 1.4365715454	-0.112672
C	-0.8965005284	 0.1679698837	 2.2342408137	-0.204839
C	-2.1372114182	-0.1420900296	 1.3043235327	-0.065495
C	-2.7005798852	-1.4448552058	 1.840692235	-0.087213
C	-1.8068523753	-2.4091978938	 1.5922171097	-0.093381
C	-0.6991830289	-1.8104609094	 0.7765343961	-0.055652
C	-1.3548722331	-0.6099930785	 0.0294048201	-0.051494
H	 0.919426374	 1.78754377	-0.036134938	 0.28182
H	 0.6820820317	-0.3865933227	-0.6984557297	 0.063741
H	 1.1205237426	-0.8035951615	 1.8974648593	 0.056006
H	-1.0466916755	-0.1927237663	 3.2533711047	 0.088525
H	-0.6565929046	 1.2325279898	 2.2543060493	 0.104237
H	-2.8358432343	 0.6838180305	 1.179593917	 0.065424
H	-3.5909050486	-1.5191327927	 2.4535793724	 0.091267
H	-1.8308102991	-3.4331210709	 1.9439947007	 0.092852
H	-0.0843537907	-2.4843766528	 0.1800019437	 0.063259
H	-1.9390841425	-0.753634241	-0.8804583606	 0.062748
