22
gdb 118513	2.27277	0.95671	0.71528	2.7471	78.56	-0.2348	0.0685	0.3033	1589.4489	0.193344	-441.440918	-441.430317	-441.429372	-441.47712	37.911	
O	 0.4034607104	 1.1210110882	 0.0417936658	-0.417582
C	 0.1376537853	-0.2652180187	-0.1000481571	-0.061901
C	-1.3526050299	-0.5925434876	 0.0219347696	-0.222464
C	-1.6805467238	-2.0873402463	-0.1376745865	-0.024976
C	-3.163924673	-2.3499661571	 0.1497160167	-0.080165
O	-3.3304047437	-3.745619554	 0.3811269786	-0.420904
C	-1.2852323873	-2.5979968404	-1.5161175347	 0.029891
C	-0.068565153	-3.4293034662	-1.7122250425	-0.246703
N	-1.4052899494	-4.0209614385	-1.8602143962	-0.32789
H	 0.1273405078	 1.3846847919	 0.9253928176	 0.27938
H	 0.5083755593	-0.535665893	-1.0927181893	 0.12191
H	 0.7104712047	-0.8605940346	 0.6302173765	 0.084809
H	-1.7064622473	-0.2532165899	 1.0057446085	 0.081933
H	-1.9002666489	-0.00339739	-0.7251380121	 0.10741
H	-1.1208316827	-2.6545171607	 0.6203182234	 0.07921
H	-3.4803445239	-1.7745137544	 1.0339571558	 0.084298
H	-3.7737782126	-2.0120463507	-0.7014328016	 0.096102
H	-4.2580552351	-3.9685007499	 0.2649579848	 0.291262
H	-1.5846464671	-1.9353285611	-2.3296559384	 0.084636
H	 0.5064067551	-3.3546176715	-2.6313617635	 0.114148
H	 0.5211464157	-3.675593387	-0.8318743258	 0.10698
H	-1.6717252107	-4.5364362785	-1.0254959294	 0.240614
