14
gdb 85625	3.79576	1.07168	0.85876	1.4004	73.23	-0.2697	-0.1051	0.1647	1239.0833	0.101069	-436.729462	-436.721543	-436.720599	-436.762392	28.815	
O	 0.1428492475	 1.3220084539	 0.3382790359	-0.432232
C	-0.0301159558	-0.0334633584	 0.0271796269	 0.043289
C	-1.5004937419	-0.4415879667	-0.1604028822	-0.339755
C	-1.4480993352	-1.368814813	-1.3651839255	 0.183348
C	-0.2594201444	-1.3531172278	-1.9996271393	-0.270607
C	 0.6378528707	-0.4052591493	-1.3069249635	 0.361196
O	 1.6813645813	 0.069278713	-1.6910494807	-0.331453
C	-2.5764175784	-2.1392359796	-1.7592027641	 0.23694
N	-3.5115982731	-2.7565409247	-2.0518812532	-0.309784
H	 0.9949877009	 1.5775872536	-0.0435439465	 0.297863
H	 0.4233115753	-0.6832282945	 0.7971081408	 0.107806
H	-1.9431595977	-0.9312022158	 0.7103811569	 0.142215
H	-2.104371814	 0.444164273	-0.3851999887	 0.160873
H	-0.0014806852	-1.8905208237	-2.9020575468	 0.150302
