22
gdb 70746	2.46661	1.52857	1.15457	1.7899	81.22	-0.2335	0.0788	0.3123	1154.2179	0.196341	-404.33121	-404.322831	-404.321887	-404.363618	33.652	
C	 0.1062256851	 1.5156615175	-0.0142153585	-0.439483
C	-0.0086391084	 0.0047376961	 0.0232037215	 0.338902
C	-1.3239128451	-0.5483129469	-0.5226080411	-0.286508
C	-2.4334755057	-0.6175715201	 0.5425422863	-0.194794
C	-2.3017094309	-1.7968309572	 1.5155602648	-0.065273
O	-1.1599337293	-1.786032779	 2.353663485	-0.23761
C	 0.0680921054	-2.0115350661	 1.6810287652	-0.109642
C	 0.6724842852	-0.7380264553	 1.116102386	-0.052796
N	 1.2662488496	-0.6960303112	-0.2396478561	-0.389285
H	 1.0516680598	 1.841751883	 0.4256151482	 0.12599
H	 0.071381578	 1.8791755873	-1.0475944329	 0.116396
H	-0.713266887	 1.9897326742	 0.537531508	 0.115581
H	-1.651256894	 0.0827898166	-1.3571409006	 0.099608
H	-1.1720356452	-1.548970551	-0.9471967257	 0.089094
H	-2.4657117127	 0.3185402702	 1.1122600747	 0.108954
H	-3.4091260241	-0.7185354281	 0.049358121	 0.093857
H	-3.1590928346	-1.8026626569	 2.1966472084	 0.106395
H	-2.3296661953	-2.740326076	 0.9418539171	 0.082874
H	 0.7455793247	-2.4453365086	 2.4241863997	 0.109702
H	-0.0649655051	-2.7615016872	 0.8842686636	 0.079159
H	 1.2313898085	-0.1524286807	 1.8439817048	 0.089978
H	 1.084406991	-1.5796208707	-0.7135254794	 0.218902
