21
gdb 126582	5.24766	0.64092	0.61941	2.231	85.18	-0.2312	0.0271	0.2583	1868.6439	0.184234	-383.302976	-383.293603	-383.292659	-383.338763	33.884	
C	-0.1493748996	 1.5837307103	-0.023119213	-0.381767
C	-0.0068424558	 0.0592933028	-0.0281527096	-0.160308
C	 0.7101815258	-0.4817419952	 1.2124061953	-0.14562
C	 0.8521045536	-2.0155932431	 1.2123734911	-0.339077
C	 1.5420735507	-2.5537299949	 2.4314313942	 0.220677
C	 2.8465114969	-2.9933400102	 2.5496152835	-0.132638
N	 3.0223867358	-3.3567926729	 3.8444821551	-0.176621
N	 1.9182210832	-3.1896397438	 4.5945309779	-0.225714
C	 1.0221880119	-2.7021583542	 3.7412821613	-0.079623
H	 0.8304624954	 2.072679959	 0.015131711	 0.113462
H	-0.6646364457	 1.9408370836	-0.920361922	 0.110602
H	-0.7210730097	 1.9247827462	 0.8471761821	 0.114476
H	-1.0008773457	-0.4020138915	-0.1021908772	 0.093906
H	 0.5386382017	-0.2550780338	-0.9282256653	 0.092391
H	 1.7080400896	-0.0303804771	 1.2904721198	 0.0941
H	 0.1685123563	-0.1710597514	 2.1155298787	 0.097618
H	-0.1466528724	-2.463105735	 1.1253841974	 0.104104
H	 1.4007902876	-2.3248903183	 0.3142678577	 0.096675
H	 3.64028741	-3.0757722402	 1.8232534077	 0.127426
H	 3.8509924154	-3.7312321379	 4.2736488017	 0.272343
H	 0.024145575	-2.4753176423	 4.0894059026	 0.103588
