19
gdb 65186	2.55898	1.32204	1.22011	2.9574	76.36	-0.2595	-0.0425	0.217	1134.8902	0.156502	-422.995472	-422.986291	-422.985347	-423.029988	33.725	
C	 0.000454361	 1.5861963156	 0.2569930971	-0.464612
C	 0.0078547733	 0.0868983202	 0.0153259015	 0.319861
C	 1.0180029363	-0.4944303687	-0.9515803336	-0.286926
C	 1.1833329425	-0.7166013718	 0.5285707769	-0.312397
C	-1.3395584013	-0.5923822653	 0.1000126609	-0.010082
O	-2.496893117	 0.2181363452	 0.1922382826	-0.2181
C	-2.377486697	-0.5789239176	-0.9794487943	-0.050827
C	-2.1464298127	 0.098983167	-2.2905749162	 0.149972
O	-1.795323281	 1.24091726	-2.4418424728	-0.247639
H	 1.0197577022	 1.9793406767	 0.1922297873	 0.104958
H	-0.6200957957	 2.0969073352	-0.4806188407	 0.159428
H	-0.3887104452	 1.8195841671	 1.2535064654	 0.118197
H	 0.7168364198	-1.3414677401	-1.5600474244	 0.105618
H	 1.6873852188	 0.1959184184	-1.4532411066	 0.12187
H	 1.9694294295	-0.1810723487	 1.0495750686	 0.116297
H	 0.9933199719	-1.7134460901	 0.9155424959	 0.109408
H	-1.3747525239	-1.4769080693	 0.740783632	 0.10092
H	-3.0581442674	-1.4311433976	-1.0319188393	 0.10411
H	-2.325145774	-0.5718891362	-3.1617542801	 0.079943
