19
gdb 38916	3.11005	1.73235	1.25308	1.0991	83.05	-0.2198	0.0139	0.2337	1017.9762	0.161383	-385.86631	-385.859231	-385.858287	-385.897515	29.158	
C	 0.0579974496	 1.4750253461	 0.0962031337	-0.350094
C	 1.3691441698	 0.7604458883	-0.0584201883	-0.105786
C	 1.7506090056	 0.044530524	 1.2436780716	-0.255295
C	 0.4008089296	-0.7256983047	 1.2042282513	 0.057621
O	 0.627977175	-2.1044232635	 0.9927346579	-0.267477
C	-0.4564084586	-2.7624335753	 0.3531360976	-0.134594
C	-0.9308783061	-2.0705017379	-0.9024404147	-0.099273
C	-0.6687358531	-0.7810931967	-1.1301865916	-0.178731
C	 0.0285488106	-0.0145116277	-0.0994502281	 0.360827
H	-0.2295651245	 1.9087778959	 1.0531825235	 0.105106
H	-0.2620093825	 2.0565192246	-0.7639205542	 0.113903
H	 2.0416227457	 0.9797438552	-0.8790345835	 0.08936
H	 2.574478667	-0.6611931779	 1.1262736189	 0.120605
H	 1.9352679146	 0.6823986664	 2.1141467437	 0.094298
H	-0.2903985951	-0.5723763937	 2.048467586	 0.055193
H	-0.0886997863	-3.766609094	 0.1137203816	 0.115978
H	-1.2987205628	-2.8943744068	 1.056743591	 0.097802
H	-1.4858187922	-2.6726118121	-1.6157867848	 0.09293
H	-0.9758644863	-0.2903307101	-2.0499039715	 0.087627
