19
gdb 111658	2.26484	1.64846	1.24839	3.7275	75.67	-0.2329	0.0186	0.2515	1084.8928	0.160751	-419.221098	-419.212722	-419.211777	-419.254283	31.699	
C	 0.3887261423	 1.4076778537	-0.2000382399	-0.379047
C	-0.2922497402	 0.0853667767	 0.1450228465	-0.13393
N	 0.4714912683	-0.613990663	 1.1789445971	-0.084736
C	 0.442863367	-2.0510147339	 1.3482843423	-0.042476
C	-0.0538221383	-2.9390388638	 0.2062312025	-0.204402
N	 0.8642628099	-2.6389093126	-0.8779068144	-0.301815
C	 1.9053521948	-1.8018543097	-0.561602385	 0.401735
O	 2.8088067323	-1.4754894622	-1.3011075244	-0.384384
C	 1.6895674346	-1.3669402679	 0.8738025083	-0.156758
H	 1.3711673199	 1.2293437647	-0.6477672112	 0.142701
H	-0.2141316834	 1.9723510135	-0.9174236694	 0.112693
H	 0.5252786013	 2.0166254303	 0.6979725656	 0.125591
H	-1.2870993272	 0.2693926299	 0.567379126	 0.103564
H	-0.434765428	-0.504532665	-0.7721772987	 0.097027
H	 0.3108617623	-2.4129856778	 2.3632993323	 0.103613
H	-0.0012604964	-3.9941423425	 0.5038956137	 0.118688
H	-1.0939833476	-2.7213957691	-0.0696100402	 0.118046
H	 0.7497785817	-2.9798515957	-1.8194240074	 0.252763
H	 2.5665171367	-1.1543339256	 1.4753183763	 0.111125
