15
gdb 79432	4.04547	1.23632	1.07307	4.4873	66.63	-0.2467	-0.0396	0.2071	1081.8061	0.110486	-457.660773	-457.653211	-457.652267	-457.692977	28.505	
O	-0.0334134583	 1.4994068854	-0.038533439	-0.436728
C	 0.0747066314	 0.0964151072	-0.0334605917	 0.097847
C	 0.0784931635	-0.6118627682	 1.3377015074	-0.18764
C	-1.460084176	-0.3953584003	 1.5110863749	 0.085643
O	-1.7556195903	-1.794205107	 1.7976331979	-0.341505
C	-0.7333418224	-1.8426690676	 0.7751152769	 0.387074
C	-0.2159973944	-3.1301293166	 0.2489639235	 0.0249
O	-0.5792765506	-4.2152470089	 0.6192398039	-0.239943
C	-1.2872860488	-0.6030692829	-0.0285112964	-0.15729
H	 0.8472063859	 1.8763875901	 0.0535271621	 0.289791
H	 0.80608345	-0.2600152937	-0.7700394756	 0.078619
H	 0.832660225	-0.6508037052	 2.1234485159	 0.098337
H	-2.0014120765	 0.3742994358	 2.0545664661	 0.116671
H	 0.5603192845	-3.0012270526	-0.5401822556	 0.080734
H	-2.069829803	-0.6249757356	-0.7853745405	 0.103491
