21
gdb 15190	7.06508	0.7359	0.72793	0.9507	76.73	-0.2329	0.091	0.324	1637.0349	0.187451	-366.219633	-366.210173	-366.209229	-366.255197	33.187	
C	 0.259594468	 1.1743229358	-0.0730513031	-0.384712
C	 0.0387895339	-0.184335869	 0.5915510997	-0.038607
O	-1.3231885087	-0.5495081735	 0.713022987	-0.244309
C	-1.9378833941	-0.9528231756	-0.4917856625	-0.057199
C	-3.324965849	-1.4835543114	-0.1478951362	-0.155024
N	-4.0270617373	-1.8749226779	-1.3630410301	-0.066421
C	-3.8673982581	-3.2650001949	-1.7824853348	-0.219684
C	-5.1483076767	-2.7897836215	-1.1916406488	-0.217926
H	 1.3230809421	 1.4343606683	-0.0488715166	 0.113887
H	-0.0584679888	 1.1747575857	-1.1197060527	 0.122449
H	-0.2983637491	 1.9528003792	 0.4559552197	 0.125522
H	 0.5925431549	-0.9670984173	 0.0464953237	 0.084029
H	 0.4261187928	-0.1624624066	 1.6158047098	 0.104679
H	-2.0365547156	-0.1220878783	-1.2054697893	 0.100879
H	-1.3419705721	-1.7399306603	-0.9851340377	 0.082564
H	-3.2259462595	-2.3130165456	 0.574546283	 0.086006
H	-3.8969499877	-0.6891991049	 0.3443893707	 0.112031
H	-3.7787986091	-3.4317139723	-2.8521274843	 0.116045
H	-3.248398563	-3.9155452061	-1.165744734	 0.109513
H	-5.3828370342	-3.1253256321	-0.1824704214	 0.109891
H	-6.013075419	-2.6019479218	-1.8217285122	 0.116388
