18
gdb 58068	1.80947	1.66778	1.10203	3.2937	78.18	-0.2936	-0.0095	0.284	1174.7145	0.143462	-401.922772	-401.912331	-401.911387	-401.957625	38.059	
C	 0.1409304593	 1.5868982675	-0.0325239251	-0.412036
C	 0.0644108477	 0.0571649125	 0.0374764348	 0.029807
C	 0.8136380442	-0.4884917972	 1.2598500978	-0.41965
C	-1.423370693	-0.4199139539	 0.0338636545	 0.028318
O	-2.0269982151	 0.0872164454	 1.2163528373	-0.431755
C	-2.138624843	 0.0337980581	-1.169129807	 0.303368
C	-2.7509606149	 0.4023771718	-2.1344202945	-0.420638
C	-1.4715541497	-1.9090515919	 0.0494161662	 0.273988
N	-1.5208760683	-3.0630407955	 0.0784728677	-0.342968
H	 1.1882813841	 1.9004669156	-0.0637863469	 0.117338
H	-0.3574312127	 1.9759966929	-0.9237920636	 0.127983
H	-0.3253138681	 2.0378682628	 0.8471382651	 0.13701
H	 0.5095192075	-0.3643422353	-0.8712441856	 0.101556
H	 0.3774646361	-0.1046264225	 2.1856446358	 0.138951
H	 0.7912993706	-1.5809942105	 1.2970015792	 0.140124
H	 1.860383764	-0.1739795466	 1.2187362585	 0.116955
H	-2.9727116655	-0.0957855413	 1.1767641954	 0.299141
H	-3.2881477931	 0.7270264779	-2.9920847495	 0.212506
