13
gdb 131084	4.81122	0.91655	0.8142	3.148	60.73	-0.2928	-0.0503	0.2424	1306.1371	0.089124	-489.892023	-489.884244	-489.8833	-489.927891	25.849	
O	 0.4165102753	 0.1793794783	-0.4209239262	-0.257099
C	 0.5003317063	 1.3652827502	-0.4679695044	 0.190723
O	 0.7711089866	 2.1110379119	 0.6353834976	-0.172209
C	 0.9011265562	 3.5180298611	 0.4509983379	-0.224152
C	 2.3186882444	 3.8894257864	 0.1418342212	 0.438634
N	 3.0351633802	 3.5087603411	-0.8719381135	-0.303127
C	 4.2272413293	 4.1420768281	-0.6211158416	 0.046969
N	 4.2527129797	 4.8704667366	 0.4616184291	-0.103763
O	 2.9660871276	 4.6999800633	 0.9839906508	-0.184627
H	 0.3591875615	 1.9786854242	-1.3768169577	 0.095802
H	 0.2507679717	 3.865801979	-0.3605916056	 0.149216
H	 0.5876849928	 3.9932832726	 1.3810332743	 0.164074
H	 5.0926900285	 4.0599392872	-1.2620529419	 0.15956
