19
gdb 37044	2.73719	1.8308	1.50995	0.775	73.89	-0.2184	0.0838	0.3021	952.2958	0.160837	-422.977742	-422.970561	-422.969617	-423.008939	29.609	
C	-0.0118355015	 1.4496157575	 0.1270905477	-0.397935
C	 1.3194969963	 0.7598102703	-0.0736018708	 0.352529
C	 1.8057634554	 0.1082213165	 1.222590835	-0.28674
C	 0.4876415573	-0.7602013138	 1.2409968229	-0.29508
C	 0.0611500933	-0.0560208574	-0.051705536	 0.338544
O	-0.4403346637	-0.6538334459	-1.2012996272	-0.292529
C	 0.6331836396	-0.8542558541	-2.1290864485	-0.106297
C	 1.4407844629	 0.4240577418	-2.3758711506	-0.098346
O	 2.1131781258	 0.9024055207	-1.2043055913	-0.296732
H	-0.2755654531	 1.8921920517	 1.0849254578	 0.103335
H	-0.4025550174	 1.9697292246	-0.7400246753	 0.119234
H	 2.6956602747	-0.5040221631	 1.064345039	 0.111488
H	 1.9746168125	 0.7787399079	 2.0701553681	 0.100507
H	 0.699020685	-1.821386192	 1.092779102	 0.110391
H	-0.1779764333	-0.6461263996	 2.101994674	 0.100401
H	 1.3043674434	-1.6492055594	-1.7697749633	 0.10136
H	 0.1757903212	-1.1832844247	-3.0663008889	 0.114604
H	 2.2212027329	 0.2314790563	-3.1178421011	 0.115818
H	 0.7732295386	 1.2025925229	-2.7752977636	 0.105451
