16
gdb 50473	4.538	1.01964	0.86599	3.1658	66.	-0.258	-0.0492	0.2088	1253.6311	0.125222	-475.075423	-475.067196	-475.066252	-475.109139	29.257	
O	-0.6684218326	 0.8452614765	-0.6075739184	-0.229863
C	 0.158049094	 0.9800338092	 0.2572571781	 0.1399
C	 1.3594843385	 1.8964066689	 0.1621880655	-0.127094
C	 1.475086547	 2.5885276455	-1.1907164419	-0.15426
N	 2.4187837884	 3.6922871905	-1.0840932621	-0.376803
C	 2.9982405344	 4.2092975479	 0.0435243801	 0.461687
O	 3.8779232566	 5.0313115388	 0.0275675445	-0.387245
O	 2.5322224059	 3.7319069282	 1.2365949156	-0.23722
C	 1.3238313593	 2.9791735664	 1.2479892473	-0.088163
H	 0.0841843165	 0.4189621933	 1.2158805962	 0.095464
H	 2.2493557237	 1.2825819294	 0.3641268647	 0.121231
H	 1.8150404195	 1.8820539461	-1.9554255817	 0.127595
H	 0.4840483653	 2.942219383	-1.4999886456	 0.133314
H	 2.7964617171	 4.0862796584	-1.9305642886	 0.262945
H	 0.4647560328	 3.6456605626	 1.0908595299	 0.128133
H	 1.2488618536	 2.5519503953	 2.2510966463	 0.13038
