17
gdb 34617	3.48897	1.23267	0.98392	0.8788	93.15	-0.2198	-0.0394	0.1804	1196.1479	0.136651	-347.543339	-347.535465	-347.534521	-347.575416	31.096	
C	 0.0596885016	-1.2118310961	 0.1357516835	-0.430816
C	-0.0053298674	-0.0111929438	 0.0633008715	 0.233874
C	-0.0453119172	 1.4160486884	-0.0096076648	 0.138901
C	-1.239717333	 2.0586246349	-0.0603495328	-0.152284
C	-1.3437915406	 3.5561488448	 0.0120853732	-0.307638
C	-0.7379678427	 4.1276868581	-1.2463492439	-0.083072
C	 0.5788894879	 4.0221634378	-1.5020582827	-0.056569
C	 1.5152113122	 3.2469182725	-0.7211852501	-0.090081
C	 1.2432492264	 2.097845257	-0.0509905973	-0.162698
H	 0.1052963516	-2.2707890384	 0.1957039561	 0.192586
H	-2.1488207569	 1.4716059799	-0.1441798625	 0.102405
H	-2.3844253283	 3.8669153683	 0.1248287446	 0.105044
H	-0.7857269058	 3.9233149349	 0.8850557877	 0.122298
H	-1.3873475666	 4.6440597133	-1.9475562368	 0.098393
H	 0.9878595021	 4.5406565751	-2.3665319695	 0.093551
H	 2.5579744727	 3.5525863889	-0.7708966795	 0.095917
H	 2.0761929839	 1.5545316944	 0.3860502531	 0.10019
