14
gdb 1768	4.84192	1.94778	1.69318	4.2276	58.71	-0.2948	0.007	0.3017	770.2323	0.111369	-324.577047	-324.56943	-324.568485	-324.608531	26.743	
C	-0.0413136443	 1.5391213622	-0.1122312883	-0.429513
C	-0.0291366939	 0.0471009358	 0.0875023353	 0.048878
O	 1.2036006581	-0.6508465972	-0.1095223804	-0.267894
C	 0.6510208302	-0.6449518174	 1.2124469658	 0.226002
C	 1.4436705309	 0.0535376912	 2.295723241	-0.46781
C	 0.0885591197	-1.9254499771	 1.6242765623	 0.25612
N	-0.3611415628	-2.9291130312	 1.9796488117	-0.330478
H	 0.8298346685	 2.0235484371	 0.3309299998	 0.134312
H	-0.0450955273	 1.7639200199	-1.1835933474	 0.144007
H	-0.9480699024	 1.970611682	 0.3237961868	 0.136129
H	-0.8887656553	-0.4748304074	-0.3358604747	 0.113939
H	 1.8467044459	 0.9983553765	 1.9309864152	 0.139544
H	 0.8119679839	 0.2451153388	 3.1681154109	 0.144672
H	 2.2785585688	-0.5780463132	 2.6120069022	 0.152093
