15
gdb 127731	5.01025	0.86308	0.7997	3.5985	69.09	-0.2572	-0.0323	0.2249	1400.5342	0.112125	-450.124671	-450.116091	-450.115146	-450.160004	28.642	
C	-0.1950762112	 1.4625297288	-0.1924829781	-0.319307
N	-0.1130863919	 0.0250214145	-0.0224630257	 0.154493
N	-0.1157506954	-0.818281246	-1.0455701942	-0.121676
N	-0.0421164643	-2.0185370147	-0.5270601897	-0.256988
C	 0.0028305177	-1.8513675274	 0.8180144803	 0.363528
C	 0.1267731859	-2.9774847836	 1.7871021378	-0.371098
C	 1.5086816997	-3.6296085744	 1.744131914	 0.157107
O	 2.1008435895	-4.0024640568	 2.7198533831	-0.226581
N	-0.0371874775	-0.5666118896	 1.1631180934	-0.296004
H	 0.6847753964	 1.9358274197	 0.2476976326	 0.165781
H	-0.2355234082	 1.6601330024	-1.2627168847	 0.17554
H	-1.0945671963	 1.8415576972	 0.2968556826	 0.164907
H	-0.0817129376	-2.6478774279	 2.8057400375	 0.149959
H	-0.5947869201	-3.7596562261	 1.5160898325	 0.156135
H	 1.9228502333	-3.7518929061	 0.7199096385	 0.104204
