18
gdb 6442	3.59533	1.43312	1.23968	2.9447	72.6	-0.2649	0.0287	0.2936	1041.8177	0.154025	-343.990204	-343.981725	-343.980781	-344.022968	31.621	
C	 0.0685976127	 1.6504023893	 0.0402442035	-0.409942
C	 0.0467723336	 0.1310367025	 0.0186822261	 0.053816
C	 1.0401164053	-0.6159787796	-0.9142102901	-0.260208
C	 1.288839664	-1.6626110641	 0.2183046177	 0.1449
N	 2.6875370175	-1.997368407	 0.4627415594	-0.545788
C	 0.6612905161	-0.6408527576	 1.2193524655	-0.26021
C	 0.4376988696	-2.853385223	 0.0532893564	 0.232599
N	-0.1962262358	-3.8136442348	-0.0704785354	-0.348042
H	 1.081135069	 2.0264538418	 0.2245433718	 0.116312
H	-0.2742277743	 2.0650879165	-0.9140492129	 0.120293
H	-0.5836379076	 2.0448471151	 0.8271156218	 0.120292
H	-0.9717013787	-0.2253886333	-0.1663031217	 0.091655
H	 0.6735057894	-0.9886270727	-1.8720861147	 0.115461
H	 1.9616999384	-0.0475257554	-1.0661526378	 0.116884
H	 2.7638559962	-2.5776386332	 1.2951895374	 0.239818
H	 3.0480791629	-2.5588829477	-0.3055154699	 0.239817
H	 1.4719633889	-0.0796781626	 1.6920395489	 0.116884
H	-0.0111315673	-1.0335806442	 1.9838194641	 0.11546
