18
gdb 105008	2.45283	1.28354	1.04119	4.0379	71.78	-0.2802	0.0052	0.2855	1209.2423	0.145312	-439.070321	-439.060584	-439.05964	-439.105497	34.859	
C	 0.0342141038	 1.3567422081	-0.3271984206	-0.392013
C	-0.2675242518	-0.0446396959	 0.219396052	-0.254792
C	 0.7109247522	-0.4946108593	 1.2893318541	 0.372939
C	 1.2701863373	-1.8568150261	 1.2750124121	-0.24326
O	 2.0463856459	-0.7291152398	 0.8489046071	-0.261567
C	 0.6072141999	 0.2693334124	 2.618204794	-0.093534
O	-0.6887153609	 0.1772951963	 3.1814919309	-0.397959
C	 1.6412633907	-0.1507581593	 3.5850075365	 0.27671
N	 2.4033147322	-0.5034999553	 4.3783942492	-0.326102
H	 1.0634678536	 1.4145972465	-0.6929643769	 0.139233
H	-0.6363144682	 1.5933406036	-1.1578938798	 0.122743
H	-0.1042609147	 2.1346251472	 0.4305731655	 0.124535
H	-1.2804561191	-0.0808456758	 0.6336465219	 0.11747
H	-0.2253996513	-0.7700019616	-0.5992672911	 0.108008
H	 1.6124429599	-2.3262488036	 2.1950815568	 0.138523
H	 0.9686131554	-2.5381099711	 0.4815349057	 0.122657
H	 0.759378445	 1.335430278	 2.4182632764	 0.149073
H	-0.8458715499	-0.7432905244	 3.4234464762	 0.297338
