14
gdb 5772	6.28326	1.46815	1.2928	2.2006	64.34	-0.2353	-0.0002	0.2351	919.0024	0.109502	-378.719826	-378.71334	-378.712396	-378.75138	23.672	
C	 0.4260715928	 1.5479661363	 0.1738409706	-0.22499
N	 1.1019849563	 0.3652457043	-0.3708004	-0.301771
C	-0.2809833895	 0.2432468866	 0.1592600846	-0.157975
C	-0.4481873171	-0.5374722033	 1.3953267271	 0.452782
N	 0.0582742323	-0.3283161491	 2.5699364155	-0.309913
C	-0.4097649493	-1.3807454843	 3.3439752215	-0.110455
C	-1.1961160858	-2.1760436134	 2.582719735	-0.045156
O	-1.2316336543	-1.6465865786	 1.3233343426	-0.1792
H	 0.8289467502	 1.9004336184	 1.1176427729	 0.149802
H	 0.0736401183	 2.3208346979	-0.5039991662	 0.115823
H	 1.062991303	 0.3784511413	-1.3875432478	 0.236405
H	-1.0833456657	 0.1006308119	-0.5585327522	 0.105163
H	-0.150559396	-1.4802922712	 4.3859517174	 0.124533
H	-1.7677144452	-3.0729923666	 2.746100869	 0.144952
