22
gdb 104205	2.5103	1.26767	1.19153	1.2456	81.84	-0.2379	0.0692	0.3071	1195.8842	0.193401	-404.307129	-404.297526	-404.296582	-404.341122	36.769	
C	-0.4395419668	 1.5476490309	 0.2280834289	-0.46591
C	-0.0479641133	 0.0842411828	 0.0564185981	 0.246611
C	-1.2443199597	-0.7576134489	-0.3911486032	-0.114598
O	-1.6865733295	-0.2729142186	-1.6514937749	-0.425446
C	 1.2104799886	-0.2120095788	-0.8254654067	-0.25506
C	 1.7487290508	-1.1843379154	 0.2646641362	-0.300526
C	 0.7018808686	-0.6097346595	 1.2201958859	 0.326813
C	 0.920804241	-0.0726202242	 2.579763443	-0.307131
N	 0.1503623844	-1.3186808114	 2.3748579008	-0.376362
H	 0.4239699299	 2.1548939523	 0.5153952213	 0.109763
H	-0.8489796549	 1.9436720067	-0.7051656992	 0.13701
H	-1.2082825655	 1.6670997048	 1.0021885028	 0.101726
H	-0.9522196985	-1.8168975093	-0.4553046171	 0.092016
H	-2.0482663914	-0.6843129291	 0.361122193	 0.075146
H	-2.4233328361	-0.8174505152	-1.9426968992	 0.28856
H	 1.0035242712	-0.6306214258	-1.8116022491	 0.108887
H	 1.8399899414	 0.6730350919	-0.9451773416	 0.098154
H	 1.5662217979	-2.2375498962	 0.0333621203	 0.10838
H	 2.795291701	-1.0709349893	 0.557291688	 0.100394
H	 1.8839370425	-0.2094315497	 3.0656986743	 0.114837
H	 0.3886516533	 0.8271059548	 2.8784658911	 0.110152
H	-0.8442919248	-1.1237361926	 2.4702861672	 0.226584
