17
gdb 13186	3.81478	1.3827	1.20201	3.7115	65.48	-0.2455	0.0177	0.2632	1031.6902	0.1418	-400.989299	-400.980858	-400.979913	-401.023814	28.729	
C	 0.1334154884	 1.4772544672	-0.0524575553	-0.355015
N	-0.014605402	 0.0323621839	 0.0504833663	-0.049854
C	-0.1134632179	-0.5470958322	 1.2845490408	 0.14079
O	-0.0879774011	 0.0447733677	 2.3440417681	-0.34328
C	-0.0569480408	-0.7594233159	-1.1622596013	-0.023804
C	 0.8632703916	-2.0052036838	-1.2724047606	-0.085896
O	-0.2707346208	-2.8908992179	-1.346302294	-0.269022
C	-1.20280264	-1.7922193713	-1.3395840649	-0.085809
H	 1.0699442794	 1.7418595224	-0.5566704508	 0.127261
H	-0.7006509373	 1.9198217819	-0.6091245765	 0.127268
H	 0.143807917	 1.8802164141	 0.9599014281	 0.173135
H	-0.2225947095	-1.6457183498	 1.2208043496	 0.095873
H	 0.0415647666	-0.0687170819	-1.9993464912	 0.101404
H	 1.4795864818	-2.0485204552	-2.1791852858	 0.107472
H	 1.4937871929	-2.2020459729	-0.3980622242	 0.116022
H	-1.9149382681	-1.8505903715	-0.5087708197	 0.116006
H	-1.7555251102	-1.715141265	-2.2843223788	 0.10745
