19
gdb 94401	2.53638	1.4679	1.21242	1.2069	76.13	-0.2493	-0.0297	0.2196	1112.6581	0.157857	-423.019074	-423.010356	-423.009411	-423.052703	32.43	
C	-0.2119020167	 1.4678696073	-0.0377425609	-0.39034
C	 0.0410929027	-0.0348987328	-0.1057163727	-0.06509
C	 1.3336413646	-0.4490238944	-0.8714102495	-0.223208
C	 2.0747140156	-0.5880336926	 0.4871393778	-0.297235
C	 0.6985432614	-0.6110179377	 1.185799394	 0.336965
O	 0.5073072905	 0.0350355905	 2.4613283145	-0.327187
C	-0.0358444003	-1.1415251533	 3.0976560834	-0.200006
C	 0.1562063817	-1.9079051013	 1.7821594691	 0.285416
O	-0.0326058195	-3.0192214033	 1.3889953681	-0.28683
H	 0.692282372	 2.0173264843	 0.2435503422	 0.121177
H	-0.5430696403	 1.8396126989	-1.012941794	 0.116131
H	-0.9822451741	 1.7040483037	 0.7016722563	 0.126588
H	-0.8705713168	-0.5567726054	-0.4124564509	 0.081679
H	 1.2239454914	-1.4081615887	-1.3814737684	 0.118583
H	 1.7329350124	 0.2841388124	-1.5757556913	 0.102801
H	 2.7228433854	-1.4541760103	 0.6377531707	 0.111932
H	 2.619008	 0.3181456332	 0.764815314	 0.123218
H	 0.5704253636	-1.4907279907	 3.9423762796	 0.133138
H	-1.0764235636	-1.0153732896	 3.421519518	 0.132269
