16
gdb 44987	3.43163	1.26155	1.05983	3.3525	76.58	-0.2378	0.0197	0.2576	1125.5432	0.124379	-400.747125	-400.739282	-400.738337	-400.779429	30.708	
O	 0.0090981391	-0.012449634	 0.1713900071	-0.364287
C	-0.0396256502	 1.1889293693	 0.0484426721	 0.387973
C	-1.302501053	 2.0702389775	 0.0207134195	-0.354667
C	-0.7957630588	 3.4986426829	 0.0593587889	-0.089244
C	 0.0608715608	 3.9414908553	 1.2175600811	-0.319242
C	 0.7269493674	 3.4335680898	-0.0549983797	 0.16173
N	 1.0411033289	 2.0303648792	-0.0734865581	-0.364057
C	 1.5025825974	 4.298014388	-0.8921466372	 0.25526
C	 2.1745966312	 5.0237935527	-1.5760330999	-0.421321
H	-1.8635194342	 1.8592772057	-0.8949763435	 0.139246
H	-1.9437730616	 1.8017843474	 0.8647776904	 0.13966
H	-1.3209836292	 4.2624667562	-0.4992170362	 0.11568
H	 0.1131462569	 5.0064736479	 1.4124610186	 0.131919
H	 0.1382531118	 3.3041692022	 2.092852366	 0.126378
H	 1.978955834	 1.6835358907	 0.0552443733	 0.25697
H	 2.7608579697	 5.662087969	-2.1899912423	 0.198002
