19
gdb 75839	2.53047	1.72603	1.21982	3.8464	75.67	-0.222	0.0571	0.2791	1063.1793	0.159989	-419.246657	-419.237969	-419.237025	-419.279582	33.101	
C	 0.1124927614	 1.3876002021	 0.0447244005	-0.350293
N	-0.1673790213	-0.0300908318	 0.0385987752	-0.136575
C	-0.0743260609	-0.7674389498	-1.1336655961	 0.425719
O	 0.0408486253	-0.3292518038	-2.258310762	-0.416495
N	-0.1360196457	-2.1135550488	-0.7708223506	-0.358014
C	 0.0246631347	-2.2652445496	 0.6441918564	-0.051125
C	 1.2486750898	-1.6595797043	 1.3186974267	-0.358338
C	-0.0471090015	-0.8685497852	 1.2037069902	 0.336989
C	-0.8546167923	-0.4821547457	 2.4162797825	-0.472192
H	 1.1073475014	 1.604000097	 0.4591198746	 0.115556
H	 0.0800523181	 1.7282963463	-0.9915469444	 0.165016
H	-0.6330429473	 1.9390924491	 0.62707176	 0.123004
H	 0.2625468844	-2.769571899	-1.4239291145	 0.253409
H	-0.500603702	-3.0909747461	 1.1113007297	 0.107312
H	 1.5058901293	-2.0485714048	 2.2982441711	 0.11553
H	 2.0903454842	-1.3725033092	 0.6973448689	 0.119348
H	-0.4877657557	 0.4498051729	 2.8601494663	 0.127001
H	-1.9085830682	-0.3447649976	 2.1538362706	 0.130963
H	-0.7879564038	-1.2592367218	 3.1826855149	 0.123186
