20
gdb 86016	2.80583	1.15148	1.08957	4.0846	85.02	-0.2629	-0.0031	0.2597	1249.9684	0.170851	-366.050445	-366.041314	-366.04037	-366.084182	34.588	
C	-0.0258302886	 1.643966324	 0.0032081691	-0.400924
C	 0.0213229279	 0.112693667	 0.0388393507	-0.021542
C	 0.7568992613	-0.5175858088	-1.1704136961	-0.260837
C	 1.5006034846	-1.781109552	-0.6267562344	 0.087453
C	 2.8842919941	-1.9916627051	-1.2733417415	-0.432123
C	 1.5698068859	-1.4800481199	 0.8684210474	-0.10511
C	 0.7814209406	-0.4663569652	 1.211479777	-0.063664
C	 0.687273644	-2.9928221541	-0.8393573772	 0.259372
N	 0.0525025782	-3.9453671555	-1.0048257935	-0.348288
H	 0.9846616968	 2.0669651498	-0.0142662291	 0.117341
H	-0.5565766344	 1.999265413	-0.8860111524	 0.120412
H	-0.5432015679	 2.0442820907	 0.8811802515	 0.118388
H	-1.0140240638	-0.2572559764	 0.0774279385	 0.098915
H	 0.0952605084	-0.7510139869	-2.0070606606	 0.119122
H	 1.5171894006	 0.1828124667	-1.5331189596	 0.105537
H	 3.5110656244	-1.1158371838	-1.0833437862	 0.124727
H	 3.3827982206	-2.8726575041	-0.8594948938	 0.134111
H	 2.7928546806	-2.1302387518	-2.3544555742	 0.134688
H	 2.1765910608	-2.0811805867	 1.5355493024	 0.109126
H	 0.6551490357	-0.0944036108	 2.2230648322	 0.103296
