14
gdb 17225	5.43501	1.73748	1.57186	5.2791	66.57	-0.2657	0.0108	0.2765	803.8013	0.109159	-341.526772	-341.520781	-341.519837	-341.55677	23.47	
N	 0.0395931983	-1.107069491	-0.1157834883	-0.345527
C	 0.0195802445	 0.0484104222	-0.0675263056	 0.198057
C	-0.063335321	 1.4707697432	 0.0002422164	 0.239392
C	-1.1925161427	 2.3178702511	 0.5969202044	-0.292363
C	-0.4848679647	 3.5230895033	-0.074943663	-0.097771
C	 0.8659856868	 3.5581898315	 0.6625735548	-0.148844
N	 1.2392518804	 2.252202281	 0.0195021985	-0.166288
C	 0.2340397342	 2.5015687066	-1.0382661857	-0.086224
H	-2.1411206604	 2.0732621692	 0.1149670447	 0.129683
H	-1.3131337799	 2.3368423747	 1.6840270944	 0.115941
H	-1.0397064592	 4.4177835811	-0.3454832101	 0.09285
H	 1.5527759399	 4.3189630741	 0.2854209286	 0.125357
H	 0.8627046582	 3.5599930073	 1.7576096478	 0.112524
H	 0.4174656955	 2.4195964957	-2.1010923569	 0.123214
