18
gdb 86797	3.03463	1.08995	0.96796	3.4382	77.68	-0.2323	0.0045	0.2368	1274.8986	0.148708	-398.151109	-398.142345	-398.141401	-398.185422	31.535	
C	 0.1118843738	 1.6028290537	-0.0361765948	-0.389369
C	 0.22056008	 0.0825537967	-0.0052240883	 0.055513
C	 0.9652755514	-0.5287961747	-1.228024241	-0.216417
N	 1.765878252	-1.5837868295	-0.5884230692	-0.059751
C	 2.919102634	-2.1425909108	-1.2536102954	-0.307195
C	 3.9579950759	-1.1475636393	-1.6024919898	 0.260608
N	 4.7420136105	-0.3410103183	-1.8671178865	-0.299824
C	 1.7870334536	-1.2700543681	 0.7692467248	 0.068216
N	 0.9680995458	-0.3903399008	 1.1832394221	-0.264448
H	 1.1059388069	 2.0586761511	-0.0835543715	 0.126271
H	-0.4627959334	 1.9360667618	-0.9068958992	 0.112511
H	-0.3864036202	 1.9649526288	 0.8666807851	 0.131923
H	-0.7895852192	-0.3444519463	 0.0597842582	 0.091084
H	 0.2947917721	-0.9447261594	-1.9850315863	 0.115366
H	 1.6191392327	 0.2137948585	-1.7097552829	 0.119936
H	 3.3695777746	-2.9052183356	-0.6097368633	 0.165086
H	 2.6102309389	-2.6486909941	-2.1750147007	 0.162964
H	 2.4659852508	-1.8194468436	 1.4171132989	 0.127526
