15
gdb 5268	6.87436	1.0405	0.96082	1.2868	62.39	-0.2413	0.0018	0.2431	1160.9667	0.119963	-399.824249	-399.816763	-399.815819	-399.856941	26.475	
O	 0.11689096	 1.4288614993	 0.1124601378	-0.415815
C	 0.0621528725	 0.0141739801	 0.1666459223	-0.056734
C	-1.3632263928	-0.5255695525	-0.046319228	-0.3273
C	-1.4198807716	-2.0162974236	 0.0004367957	 0.248871
C	-1.9838422369	-2.8422472965	 0.9156009063	-0.116287
O	-1.7512489469	-4.1363438092	 0.5339762116	-0.137637
C	-1.043857719	-4.019146778	-0.6101675634	 0.076494
N	-0.8128394991	-2.804380831	-0.9818515525	-0.301768
H	-0.0644296454	 1.6963061871	-0.7941595449	 0.282965
H	 0.7410613457	-0.4515800694	-0.5614729226	 0.111853
H	 0.4138590454	-0.2630075878	 1.1658264207	 0.113496
H	-2.0245481174	-0.0964370582	 0.7127953944	 0.113196
H	-1.7254423074	-0.1833156912	-1.0248087771	 0.108749
H	-2.5476058516	-2.70212027	 1.8215559467	 0.148236
H	-0.7490682355	-4.936955559	-1.094446177	 0.151681
