18
gdb 98874	4.0097	1.04251	0.88778	2.1745	74.27	-0.215	0.0179	0.2329	1324.5141	0.147643	-439.108501	-439.099492	-439.098548	-439.143681	31.709	
C	 0.8051382239	 1.4390518153	 0.1757540693	-0.238608
O	 0.9122188179	 0.0128756413	 0.2583529498	-0.237344
C	-0.1195866932	-0.6095021211	 0.8612407858	 0.474766
O	-1.0999750062	-0.0422545807	 1.2709151209	-0.364354
C	 0.139567067	-2.1154946929	 0.9232092089	-0.157222
N	 1.3429840039	-2.4016858764	 1.7230613478	-0.310211
C	 1.0874759007	-3.5738883823	 2.5751863322	-0.199694
C	-0.4124376259	-3.6915815192	 2.5507954937	-0.080654
C	-0.9407162367	-2.8794574983	 1.6426333126	-0.038521
H	 0.7503679753	 1.8789807568	 1.1747983244	 0.142113
H	 1.7043595861	 1.7763291652	-0.3400701382	 0.130593
H	-0.088628171	 1.7274651695	-0.3834105753	 0.139076
H	 0.2289873932	-2.4559242608	-0.1255770445	 0.089115
H	 2.169626571	-2.4980038307	 1.1512281888	 0.225638
H	 1.5603935852	-4.4983709497	 2.1987969239	 0.094602
H	 1.4773474401	-3.4156073787	 3.5911200823	 0.110425
H	-0.9566699293	-4.3654361095	 3.2006566578	 0.103945
H	-1.9888060921	-2.7480304679	 1.4127646497	 0.116337
