18
gdb 91848	3.66719	1.1967	1.12029	2.8038	78.96	-0.2425	0.0286	0.2712	1133.6119	0.148577	-401.906857	-401.898948	-401.898004	-401.938902	31.955	
O	-0.6311595496	 1.1544948505	 0.972148602	-0.440491
C	 0.0372894646	 0.2230195924	 0.1445030791	 0.10869
C	 0.95561116	-0.7288219875	 0.9594060371	-0.237694
C	 0.0586276685	-1.899215725	 1.3106469488	-0.081334
N	-1.2765379731	-1.475357906	 1.7784648798	-0.3933
C	-1.0988784223	-1.9154634971	 0.3585542614	 0.215571
C	-0.9512658287	-0.7263265847	-0.5848245671	-0.29701
C	-1.7259699135	-3.1265686158	-0.0747619021	 0.134184
C	-2.2712338454	-4.1306882917	-0.4518064007	-0.362716
H	-1.1442161861	 0.6182989744	 1.5956185856	 0.287847
H	 0.6124390858	 0.8179272481	-0.5692460282	 0.081294
H	 1.7956210666	-1.0861868645	 0.3523091503	 0.104005
H	 1.3583673349	-0.2119961976	 1.8347055499	 0.116103
H	 0.4705916609	-2.8257061636	 1.696052615	 0.101801
H	-1.7155792811	-2.2269406827	 2.3042203747	 0.243372
H	-1.8978558817	-0.219051273	-0.7856355352	 0.119476
H	-0.5380626545	-1.0784360913	-1.5363107886	 0.109588
H	-2.7481268152	-5.019453425	-0.7839940219	 0.190612
