19
gdb 103245	2.45245	1.66158	1.21428	2.2623	74.14	-0.2127	0.0685	0.2811	1063.3062	0.158152	-422.924321	-422.915813	-422.914869	-422.957185	33.597	
O	 1.0907524524	-0.5457804594	 0.8141867633	-0.40886
C	 0.117037417	 0.1730315072	 0.0743909561	-0.161486
C	-1.2370589283	-0.5197321048	-0.0396573185	 0.413183
O	-2.1211059061	 0.168383301	 0.8291884458	-0.483358
C	-1.9178322533	-1.0428151456	-1.2714468514	-0.161119
C	-1.082993369	-1.9415479653	-2.2224589846	-0.07374
C	 0.3314023663	-2.2681728657	-1.7878966244	-0.316556
C	-0.819227851	-2.9237356393	-1.0910771334	-0.052089
C	-1.588233683	-2.0021011347	-0.112997848	-0.162607
H	 0.680398869	-0.8220887423	 1.640045181	 0.288632
H	-0.0799881389	 1.1544669251	 0.5263619473	 0.109423
H	 0.5480014842	 0.3449929423	-0.9129145543	 0.123063
H	-2.9940154081	-0.2346918398	 0.7645363152	 0.281911
H	-2.8836124174	-0.6476023667	-1.5689809688	 0.083553
H	-1.417450718	-2.1562470916	-3.2294780939	 0.091082
H	 0.836323968	-2.9188760892	-2.4974940314	 0.108546
H	 0.9999678893	-1.5989957246	-1.2671995555	 0.148884
H	-0.9682130936	-3.9962185135	-1.0827990882	 0.088383
H	-2.2605596292	-2.3990686532	 0.6403049637	 0.083153
