12
gdb 2671	22.46724	0.86055	0.83756	5.5737	65.18	-0.2798	-0.0517	0.2281	1274.1931	0.088748	-323.344105	-323.336471	-323.335527	-323.376365	24.905	
C	-0.0112747578	 1.4017711029	 0.0105379917	-0.224709
O	-0.0164653751	-0.0106436017	-0.0316830498	-0.2274
C	 0.6463972299	-0.5756442869	 1.0742808595	-0.209286
C	 0.612827413	-2.0288073778	 0.9795320417	 0.024417
C	 0.6007474683	-3.234411246	 0.92752877	 0.119487
C	 0.5857691965	-4.5985128785	 0.8664344683	 0.209937
N	 0.5751310484	-5.7589192893	 0.8179412975	-0.332114
H	 1.0127913902	 1.8051766291	-0.0033722525	 0.113837
H	-0.5424890049	 1.7473121246	-0.8779737252	 0.142766
H	-0.523651269	 1.7836603156	 0.9067975718	 0.113823
H	 1.6984523638	-0.2428490633	 1.1226927625	 0.134612
H	 0.1747444967	-0.2663605688	 2.0239163045	 0.13463
