13
gdb 21796	6.24007	1.1543	1.04626	2.6525	60.15	-0.2585	-0.0421	0.2164	1050.7216	0.095125	-398.597433	-398.590387	-398.589443	-398.63038	24.167	
O	-0.5591333978	 0.9170283508	 0.9796927859	-0.227428
C	-0.0151427981	 1.1010790458	-0.0754274822	 0.164376
C	 1.3574407691	 1.7475374294	-0.2354927866	-0.400752
C	 1.3362440273	 2.8630474418	-1.2357038517	 0.121984
C	 1.8382374462	 2.9021500821	-2.4997400553	-0.005223
O	 1.5892144085	 4.0836393839	-3.0785514066	-0.157949
N	 0.8887900596	 4.8858077366	-2.1826765824	-0.123389
C	 0.7447932369	 4.15643394	-1.1062716853	-0.031452
H	-0.4902934459	 0.8051123228	-1.0381041679	 0.085702
H	 1.6919319546	 2.0822851518	 0.7504736399	 0.139383
H	 2.0463850011	 0.963264286	-0.5756705237	 0.134284
H	 2.3862961696	 2.1898088496	-3.0976347783	 0.155808
H	 0.2230148188	 4.5724958095	-0.2551292458	 0.144655
