19
gdb 72098	2.83476	1.76482	1.60806	1.4642	73.21	-0.2195	0.0862	0.3057	945.7608	0.161513	-423.030873	-423.023625	-423.022681	-423.06228	29.264	
C	-0.0158358894	 1.5102378973	 0.0004981809	-0.483756
C	-0.0322272993	 0.0153770418	 0.0812882961	 0.40083
O	 0.0180263032	-0.6216949519	-1.1851663329	-0.299245
C	-0.3468559372	-1.9701621481	-0.9224387935	 0.16492
C	 0.8700110593	-2.7364138005	-0.4107914552	-0.219899
C	 1.4110568657	-2.0319715867	 0.8655764267	-0.227712
C	 0.5721859796	-0.8091411963	 1.2093219202	-0.163109
C	-0.9205867529	-0.8550961945	 0.9216274357	 0.005705
O	-1.3394213802	-1.9218870277	 0.0989212757	-0.268334
H	 0.9344453632	 1.87228392	-0.4061550406	 0.128171
H	-0.8234272215	 1.868763893	-0.6455988567	 0.131252
H	-0.1465558951	 1.9463704057	 0.9948063715	 0.120192
H	-0.7891820087	-2.3997606787	-1.8242091963	 0.090839
H	 0.5722991251	-3.7679835215	-0.2017664547	 0.107217
H	 1.6245228951	-2.7632926324	-1.2024279672	 0.106454
H	 1.4056944999	-2.7241234282	 1.7137877839	 0.108808
H	 2.4530331825	-1.7287867787	 0.721464372	 0.108077
H	 0.868961412	-0.2532350425	 2.0943962281	 0.084511
H	-1.6864522512	-0.5186443201	 1.6087261263	 0.105079
