15
gdb 131149	3.80636	1.29403	1.06612	1.7114	66.62	-0.2514	-0.0327	0.2187	1090.1637	0.112791	-453.925567	-453.917998	-453.917054	-453.958141	28.336	
O	 0.0608614463	 1.3616900731	 0.0066125043	-0.460834
C	-0.0041228704	-0.0310688968	-0.0060471302	 0.316502
C	-0.4978498048	-0.7469676686	 1.2451498503	-0.311565
C	-1.3790569594	-0.6225558293	 0.0258342558	-0.306436
C	 1.0717995388	-0.6694108416	-0.7958108865	 0.334924
N	 1.007325141	-1.8607728364	-1.330101312	-0.194579
O	 2.2749986177	-2.0249004588	-1.9134098398	-0.152478
C	 2.943846957	-0.9024647165	-1.6650444692	 0.110204
N	 2.280955369	-0.0233344151	-0.9855104426	-0.336683
H	 0.9873311888	 1.6038233647	 0.1306534673	 0.296557
H	-0.0764864218	-1.7172313698	 1.4821978115	 0.127945
H	-0.7146536447	-0.1046201355	 2.0908372522	 0.127433
H	-2.1883523259	 0.0972092783	 0.0623820246	 0.133231
H	-1.563458814	-1.5052406233	-0.5746243859	 0.144311
H	 3.9518552024	-0.8331424743	-2.0471570697	 0.171469
