15
gdb 48999	2.47544	1.64574	1.14087	2.5035	68.65	-0.2514	-0.0565	0.1949	1041.209	0.111958	-453.905054	-453.897277	-453.896333	-453.937569	28.837	
N	-0.0080644879	 1.0572759147	-0.6847791839	-0.537643
C	 0.0150091695	-0.056544018	-0.0975461369	 0.395902
N	 0.9872662135	-0.8908719566	 0.4835403157	-0.381245
C	 0.062368389	-2.0038259759	 0.6957026653	 0.201537
C	-0.6734274663	-1.940404168	 2.0562257421	-0.118236
O	-1.63345505	-0.9812522096	 1.5586219232	-0.276663
C	-1.1049796005	-1.0552863057	 0.2267542828	-0.028416
C	 0.4201262505	-3.3068860685	 0.0674619997	 0.071413
O	 1.4174725091	-3.471469599	-0.5913722598	-0.253137
H	 0.92391853	 1.4686233554	-0.7664858554	 0.220797
H	 1.9226565174	-1.0366208123	 0.1271683154	 0.257731
H	-1.1695387397	-2.8766696841	 2.3414803905	 0.112717
H	-0.0762920792	-1.5548592642	 2.8873479475	 0.126774
H	-1.8533273234	-1.2663073111	-0.5383594715	 0.116757
H	-0.3026582719	-4.1308442871	 0.2514018252	 0.091711
