21
gdb 94654	3.71238	0.70695	0.6366	1.367	80.11	-0.2485	-0.0242	0.2243	1751.3632	0.180462	-424.2197	-424.209713	-424.208769	-424.256328	34.933	
C	-0.3496005011	 1.5120608145	-0.1487201679	-0.405473
C	 0.1782221347	 0.0922504637	-0.1146808615	 0.140947
O	 1.5120027353	-0.0195788812	-0.6686415971	-0.28893
C	 1.9544447821	-0.8250275028	 0.4392269403	-0.07908
C	 0.6439609332	-0.5682417021	 1.2168554536	-0.051462
C	 0.7666142493	 0.3214236023	 2.4512764521	-0.217345
C	 1.3933981355	-0.4243688474	 3.644407048	-0.277625
C	 1.6068333821	 0.4902466469	 4.8285556654	 0.158818
O	 1.1544354544	 0.3136136358	 5.9297710228	-0.235053
H	 0.300778409	 2.200291578	 0.3968648824	 0.120878
H	-0.4081043819	 1.8542829973	-1.186743877	 0.130592
H	-1.3563304056	 1.5617283515	 0.2799917554	 0.117986
H	-0.5120304053	-0.5653833267	-0.6642186718	 0.07227
H	 2.1246886845	-1.8698685254	 0.147410009	 0.099274
H	 2.8755767764	-0.4309829689	 0.8887937932	 0.096209
H	 0.0856895738	-1.4734670608	 1.4718006927	 0.077358
H	 1.375452771	 1.2032090925	 2.2149985702	 0.110979
H	-0.2238103097	 0.6934371071	 2.7409537692	 0.114746
H	 0.7743039611	-1.2687310709	 3.9617108908	 0.122811
H	 2.3784857885	-0.8147418737	 3.3485062718	 0.121132
H	 2.2333985527	 1.3865624201	 4.6046092684	 0.070965
