19
gdb 55114	2.47875	1.44506	1.15511	1.9644	75.73	-0.2282	-0.0103	0.218	1133.6991	0.15721	-423.014374	-423.005206	-423.004262	-423.04857	34.125	
C	 0.0344447266	 1.1035338789	 0.8162552201	-0.477544
C	 0.0593431458	-0.0129362626	-0.2136210959	 0.368685
O	 1.0484200322	-0.2616436525	-0.8696665539	-0.314095
C	-1.2050256277	-0.834896192	-0.3182027184	-0.147489
C	-1.361367022	-1.867937274	-1.476516639	-0.256929
C	-1.4963176164	-2.9971872149	-0.4462955693	-0.105734
C	-0.2487306899	-3.0530925586	 0.4119524846	-0.351613
C	-1.2915233921	-2.0117669746	 0.6948497631	 0.384022
O	-1.9614092221	-1.9054620504	 1.8994626954	-0.462324
H	 1.0431279707	 1.4784091627	 0.9946174316	 0.138682
H	-0.5946280185	 1.9232020992	 0.4482113615	 0.143584
H	-0.419376051	 0.7585600667	 1.7519202714	 0.131895
H	-2.0919686908	-0.2053598587	-0.2045986963	 0.089323
H	-2.2666272406	-1.6963355367	-2.0617576084	 0.105502
H	-0.4999907123	-1.9354524203	-2.1442892533	 0.122359
H	-2.1778775243	-3.8360400775	-0.5062917895	 0.095492
H	-0.2409085326	-3.8667563609	 1.1311937834	 0.111444
H	 0.7225460182	-2.7895860079	 0.0017175489	 0.134106
H	-1.3163471333	-1.929099936	 2.6136841443	 0.290633
