18
gdb 34612	3.02452	1.3972	1.06293	4.5628	83.61	-0.2576	-0.0389	0.2187	1134.0372	0.150168	-364.838442	-364.830919	-364.829975	-364.870682	29.14	
N	-0.0572927379	-0.9770668028	 0.6085772234	-0.338703
C	-0.0892023257	 0.154395921	 0.3606421202	 0.20368
C	-0.0799099053	 1.5438273076	 0.0543440744	 0.201034
C	-1.1698044331	 2.3214222491	-0.0378194851	-0.150489
C	-0.8355061303	 3.7464857028	-0.3963104301	-0.276909
C	 0.7016006265	 3.7826688112	-0.2980400927	-0.010834
C	 1.3138341453	 4.0348760753	 1.1138133818	-0.225732
C	 2.0452495468	 2.6638966855	 1.0464661221	-0.222219
C	 1.2043044856	 2.3018149403	-0.2117328642	-0.133647
H	-2.1841066897	 1.9691291053	 0.1119611414	 0.119021
H	-1.2041787504	 3.9850455104	-1.4036376137	 0.119388
H	-1.3138969891	 4.4651495683	 0.2814321627	 0.117659
H	 1.1669954257	 4.3826359378	-1.0810286384	 0.076107
H	 1.9517114865	 4.9160771607	 1.2091824871	 0.105441
H	 0.5528243924	 4.0788706743	 1.8979971302	 0.105693
H	 3.1076514885	 2.7621787628	 0.8106507506	 0.10812
H	 1.9430233861	 2.001610942	 1.9093015232	 0.113687
H	 1.758447138	 1.8756966383	-1.0528350629	 0.088703
