16
gdb 132534	3.12606	1.33422	0.94121	1.3382	77.18	-0.2127	-0.0077	0.2049	1184.5608	0.125023	-442.109228	-442.101125	-442.100181	-442.141761	30.841	
C	-0.0525673331	 1.5245096968	 0.0178124398	-0.50276
C	 0.0014008982	 0.0222107219	 0.0018429751	 0.1045
C	-0.0105394311	-0.7355364155	-1.1652825235	-0.060402
N	 0.0298681164	-2.0686284139	-1.2281996756	-0.344822
C	 0.0968829674	-2.7447519036	-0.076607731	 0.39461
N	 0.1990857673	-4.1193645443	-0.1764333021	-0.566254
C	 0.115725994	-2.1041777475	 1.1745645015	-0.338741
C	 0.0646021233	-0.7273430822	 1.1782840896	 0.279775
F	 0.0773395956	-0.0811227801	 2.3482300584	-0.073703
H	 0.8294612783	 1.9563491183	 0.5034068344	 0.135618
H	-0.1020549552	 1.9163484719	-1.0014451009	 0.125475
H	-0.9273539809	 1.8931408899	 0.5647655735	 0.134707
H	-0.0621070691	-0.2213464193	-2.1236681145	 0.104685
H	-0.0703144069	-4.4763488855	-1.0811690872	 0.255695
H	-0.1411074645	-4.6609545736	 0.6023229423	 0.250601
H	 0.1754478304	-2.6539938133	 2.1059876003	 0.101016
