19
gdb 47034	3.66547	1.35628	1.0792	3.7845	77.18	-0.2198	0.026	0.2458	1123.9866	0.162266	-419.19425	-419.186731	-419.185787	-419.226376	29.435	
N	 0.0063959395	 0.9122125762	 1.0933634459	-0.515509
C	 0.0818003124	 0.0661149045	 0.155756468	 0.393484
C	-1.1431843529	-0.3663698439	-0.6193836163	-0.252076
N	-1.1652703615	-1.8098191633	-0.8379456377	-0.082757
C	-1.6106175682	-2.3255612542	-2.1512887061	-0.162026
C	-0.3946908618	-3.2858617597	-2.177869727	-0.267667
C	 0.1556192445	-2.4723027593	-0.9806788228	 0.029985
C	 1.2379351705	-1.4521459746	-1.2883580773	-0.100604
O	 1.2734397854	-0.4793399898	-0.2326252863	-0.247031
H	 0.9392285845	 1.1087697198	 1.4633757889	 0.218181
H	-2.0216088754	-0.0262009338	-0.0666202382	 0.139361
H	-1.1321637899	 0.181123122	-1.5810942845	 0.102635
H	-2.6077344668	-2.7773638558	-2.1443696513	 0.110561
H	-1.5814661286	-1.5680480707	-2.9503542102	 0.090698
H	-0.6382279141	-4.3170382765	-1.9199162414	 0.119721
H	 0.2100683747	-3.2798441372	-3.0867923582	 0.108367
H	 0.4462596181	-3.0463820281	-0.0927193339	 0.086841
H	 2.2366337977	-1.8947594794	-1.3179923061	 0.122136
H	 1.053679542	-0.9544534262	-2.2507332856	 0.1057
