20
gdb 94110	2.67657	1.15815	0.96581	2.8991	77.31	-0.2594	0.0267	0.286	1305.2111	0.171089	-440.305995	-440.29686	-440.295915	-440.340944	33.202	
C	 0.3985638187	 1.2507428267	 0.7333406754	-0.399375
C	 0.111051248	-0.046958762	-0.0053047709	 0.151029
C	 1.1958707113	-0.4813145566	-1.0079663233	-0.248082
C	 1.212319941	-2.0099421029	-0.8554500098	-0.252016
C	 0.8953544319	-2.1592153407	 0.627672071	 0.207586
O	 2.1318577164	-2.0075924457	 1.3391969011	-0.202992
C	 2.0748381095	-2.2023149876	 2.6728320848	 0.126674
N	 3.0916509727	-1.978450759	 3.3866948503	-0.444496
O	-0.0025543304	-1.1391511783	 0.9437957008	-0.269055
H	 1.3563530889	 1.1874760304	 1.2581332766	 0.137051
H	 0.4403771091	 2.0875546663	 0.0279875357	 0.115037
H	-0.3855272193	 1.4605401951	 1.4661749421	 0.124676
H	-0.8633316323	 0.0245940018	-0.5073461829	 0.078807
H	 0.9727602292	-0.1513523069	-2.0246694321	 0.106477
H	 2.1655278003	-0.0657860339	-0.7183976459	 0.125532
H	 0.4124393939	-2.4754259255	-1.4393785692	 0.110675
H	 2.1617111175	-2.4755261146	-1.1216536182	 0.124926
H	 0.4372432176	-3.1122997649	 0.9160824119	 0.087079
H	 1.099465333	-2.5637674975	 3.0231056286	 0.093595
H	 2.883726503	-2.198813494	 4.3587975338	 0.226873
