11
gdb 130576	3.76658	1.35099	0.99434	4.4486	64.99	-0.3022	-0.1174	0.1848	1056.4974	0.066597	-447.734655	-447.727592	-447.726647	-447.766897	24.59	
O	 0.0593235775	-0.0555073205	 0.0031666962	-0.277915
C	-0.0213779281	 1.1425966523	 0.0074041534	 0.384136
C	 1.1506600942	 2.0186968327	 0.001351773	 0.270596
N	 2.1419272002	 2.6111615691	-0.0042086119	-0.299237
N	-1.2468581072	 1.8203642105	 0.0184216117	-0.032877
C	-2.5041978434	 1.2809474027	 0.0260568056	-0.065698
C	-3.3252417822	 2.3675524313	 0.035238659	-0.061033
N	-2.5542625096	 3.5120053149	 0.032986081	-0.157839
N	-1.3120361342	 3.194966138	 0.0230587751	-0.104755
H	-2.6654311248	 0.2173314158	 0.0240920131	 0.189166
H	-4.4014189523	 2.4170806832	 0.0432277839	 0.155455
