14
gdb 10443	2.87171	1.7402	1.2801	4.81	67.35	-0.2787	0.0128	0.2916	950.7575	0.106112	-341.529504	-341.521574	-341.52063	-341.562185	28.623	
C	-0.1373348555	-1.1239121526	 0.4660924592	-0.426256
C	-0.0612007208	 0.0211036316	 0.112422072	 0.312551
C	 0.04777265	 1.4151269387	-0.3020605496	-0.446231
C	 1.4537432751	 1.9903242871	-0.1091248511	 0.149043
C	 1.595738431	 3.4054588622	 0.3523254162	-0.26804
N	 1.9357336195	 2.2983352509	 1.2475562292	-0.313042
C	 2.4577327019	 1.4401779865	-0.999393749	 0.29623
N	 3.2338888223	 1.016642704	-1.7433879164	-0.331953
H	-0.202783823	-2.1398395286	 0.7692773407	 0.209676
H	-0.240228896	 1.5177593017	-1.3554158536	 0.157786
H	-0.6548789388	 2.0313139846	 0.2727933784	 0.135511
H	 2.4408409593	 3.9963234511	 0.0143355366	 0.14899
H	 0.6756092467	 3.9622596867	 0.5105240655	 0.127446
H	 1.1910520682	 2.1169088461	 1.9170346619	 0.248289
