21
gdb 119242	1.97543	1.11419	0.79977	3.9492	79.97	-0.2707	0.0055	0.2762	1506.8478	0.180069	-424.242655	-424.232598	-424.231654	-424.27835	36.249	
C	 2.1813018543	 1.5465137788	-0.8878662964	-0.38495
C	 2.1186244973	 0.0184879993	-0.9454055588	-0.162256
C	 0.7687927056	-0.5002280432	-1.4601037352	-0.242638
C	 0.6794582469	-2.0110445282	-1.5015305118	 0.416757
C	-0.2158046372	-2.7271286204	-2.4800696873	-0.332586
C	 1.2906955493	-2.7870141363	-2.6269127412	-0.304341
O	 0.8591129816	-2.6224653059	-0.224152096	-0.229574
C	-0.220691651	-2.6840266356	 0.5832931155	 0.155594
O	-0.1675972548	-3.1215735242	 1.6935763665	-0.276463
H	 2.0286068	 1.9902539699	-1.8782592172	 0.112466
H	 1.4100319059	 1.9509063138	-0.2228994865	 0.116793
H	 3.1518146128	 1.888815743	-0.5164216436	 0.117283
H	 2.917818194	-0.3631714894	-1.5927592724	 0.100195
H	 2.3063821632	-0.4006001362	 0.0491451767	 0.120278
H	-0.0418728554	-0.1058965073	-0.8314872494	 0.099028
H	 0.5831875925	-0.1175089847	-2.4713851142	 0.101059
H	-0.7151585896	-3.628507573	-2.1434347866	 0.128601
H	-0.7881556034	-2.1292322945	-3.180872853	 0.123386
H	 1.758986213	-2.2302863699	-3.4308135985	 0.120743
H	 1.7791235744	-3.7196450266	-2.3708990577	 0.135448
H	-1.1396666796	-2.3016405194	 0.1021554969	 0.085176
