13
gdb 4610	5.65405	1.57235	1.23269	5.4795	65.07	-0.2102	-0.0553	0.1549	904.2327	0.096926	-398.649863	-398.643168	-398.642223	-398.680613	25.444	
N	 0.0287200828	 1.4491822892	 0.1497536986	-0.589453
C	 0.0045682474	 0.0458089022	 0.0314746105	 0.167989
C	-1.1322227136	-0.6885047766	-0.0056759935	 0.022973
O	-1.1445277298	-2.0397610592	-0.015206191	-0.218958
C	 0.0210789128	-2.8090852149	-0.0310414242	 0.425309
O	-0.0886803025	-4.0071624507	-0.059099287	-0.351885
C	 1.2503372907	-2.0367572336	-0.0076330392	-0.252813
C	 1.2409298809	-0.6851982463	 0.0321722315	-0.069495
H	 0.7003732707	 1.882836466	-0.4724285756	 0.249617
H	-0.8785790862	 1.8737146556	 0.0035234122	 0.246895
H	-2.1337992361	-0.2742622795	-0.0123320353	 0.12511
H	 2.168374732	-2.6102614311	-0.0128799296	 0.128616
H	 2.173339041	-0.1283186912	 0.0714875225	 0.116093
