16
gdb 18211	4.2601	1.67436	1.31218	3.4233	72.74	-0.2463	-0.0546	0.1916	922.9412	0.131558	-346.618288	-346.611543	-346.610599	-346.649252	25.961	
O	-0.0703536479	-0.0276116657	-0.0137349724	-0.270884
C	 0.0095842298	 1.1792366591	 0.054710551	 0.063268
C	 1.2684373187	 1.927973306	 0.0399783289	 0.260738
C	 1.3520873199	 3.2698359019	 0.0790154481	-0.165499
C	 2.777669356	 3.7540377103	-0.0274386556	-0.272203
C	 3.5988077729	 2.4623523068	-0.0290453238	-0.045054
C	 3.5023292144	 1.5664338058	 1.1763495641	-0.276735
C	 2.6183993635	 1.2955331632	-0.0236506254	-0.136631
H	-0.9025281758	 1.8141084018	 0.1219937342	 0.065217
H	 0.5040020985	 3.939046342	 0.1823078156	 0.109215
H	 2.919413867	 4.3298844007	-0.9524954406	 0.12097
H	 3.0458567491	 4.4305013483	 0.7947407001	 0.121346
H	 4.5047516638	 2.4247194528	-0.6215966549	 0.0918
H	 4.3275600648	 0.8837206007	 1.3477332246	 0.116602
H	 3.0326551152	 1.9430378696	 2.0800122725	 0.112196
H	 2.7577939501	 0.3880046168	-0.5970734963	 0.105654
