19
gdb 36417	3.94684	1.07044	1.00527	2.3185	80.97	-0.2059	0.0506	0.2565	1235.1717	0.160225	-381.9969	-381.988628	-381.987684	-382.030057	31.995	
C	-0.3340304751	-0.9329667558	-0.502311752	-0.43695
C	-0.1162527244	 0.2424223785	-0.3767540922	 0.308292
C	 0.1385980079	 1.6772543998	-0.2568240648	-0.321083
N	 1.4905894699	 1.9622722787	 0.2410803744	-0.077934
C	 2.5721797839	 1.5692262135	-0.6828843406	-0.176365
C	 3.0800174224	 2.8574283118	-1.3070736187	-0.03435
N	 1.9842447916	 3.6953639882	-1.8435475283	-0.335264
C	 2.5434957365	 3.9796354188	-0.5039314892	-0.033173
C	 1.7040424295	 3.3742738398	 0.6088100794	-0.173463
H	-0.5299170227	-1.9716829651	-0.6017427277	 0.191952
H	-0.0656316843	 2.1630934684	-1.2250641578	 0.136983
H	-0.5732624991	 2.0959828982	 0.4645881458	 0.126159
H	 3.3928422054	 1.0886517484	-0.1319121727	 0.098732
H	 2.1989283143	 0.8473697467	-1.414002438	 0.120606
H	 4.0601119467	 2.8936472314	-1.7720343456	 0.085465
H	 2.3679162853	 4.3576881767	-2.5133343191	 0.23127
H	 3.1025298431	 4.8946133298	-0.3356506665	 0.08501
H	 0.7451572411	 3.883536896	 0.7451171928	 0.105428
H	 2.2577479978	 3.4458163562	 1.5561638608	 0.098686
