21
gdb 64418	2.44297	1.65913	1.33014	1.9162	77.59	-0.2482	0.0815	0.3297	1068.9324	0.182506	-424.218684	-424.210171	-424.209227	-424.25116	34.047	
C	 0.011522718	 1.5158098504	-0.0664133662	-0.408871
C	-0.018620755	-0.0103467467	 0.0035854326	 0.333243
C	-1.4729137221	-0.5102558585	 0.04836137	-0.420978
O	 0.6105785236	-0.4527649436	-1.2198767928	-0.274476
C	 1.0215846793	-1.7890381953	-1.1993359047	 0.005022
O	 2.0946117045	-2.0053546976	-0.3146365365	-0.244183
C	 1.7847903842	-1.6304506462	 0.9997023914	 0.088677
C	 2.2236929525	-0.2592304224	 1.431349452	-0.328756
C	 0.7541887769	-0.5451789048	 1.2108188213	-0.071564
H	 1.0401670749	 1.8759041113	-0.1355071822	 0.122767
H	-0.535403312	 1.8633366985	-0.9479372575	 0.119663
H	-0.4508517492	 1.9497958035	 0.8252929855	 0.111438
H	-1.9979105794	-0.2077252208	-0.8616178626	 0.122177
H	-1.5286239174	-1.5991058648	 0.1352408633	 0.117419
H	-1.9972053029	-0.0834087983	 0.9091427788	 0.1154
H	 0.1826557381	-2.4578503649	-0.9454161581	 0.07764
H	 1.3933122024	-2.0225891235	-2.1992480341	 0.115398
H	 1.8401762888	-2.4589028069	 1.7018909302	 0.093082
H	 2.5700421284	-0.1069731769	 2.4475763028	 0.109685
H	 2.7468351826	 0.3138068625	 0.6738343069	 0.129913
H	 0.1503141736	-0.6352418452	 2.10863807	 0.087304
