17
gdb 68756	2.44415	1.76325	1.26196	1.4213	69.59	-0.2369	-0.0321	0.2048	1017.1675	0.133732	-458.967727	-458.959127	-458.958183	-459.000669	32.425	
C	-0.0734215465	 1.4985467888	-0.0375801607	-0.464145
C	 0.0660057758	 0.0078380554	 0.0097503173	 0.354919
C	 1.3519599041	-0.714520258	-0.2704109721	-0.402888
C	 0.7392158137	-0.7721589965	 1.1291000176	 0.273032
O	 1.4158384233	-0.2392094766	 2.2083854442	-0.475041
C	-0.1863431015	-1.8954756982	 1.401466759	 0.31601
O	-0.183880441	-2.551887452	 2.4175422023	-0.343292
C	-1.203865109	-1.9308477889	 0.2641285088	-0.203848
O	-1.1038564969	-0.6819004543	-0.4077419263	-0.299255
H	 0.8235818864	 1.9743290481	 0.3660376743	 0.138586
H	-0.2173122434	 1.8389341042	-1.0678604094	 0.133994
H	-0.9348181917	 1.8192810489	 0.5550696325	 0.133015
H	 1.3585083437	-1.5932716777	-0.9071749608	 0.123255
H	 2.250573404	-0.1073635326	-0.3065076929	 0.138749
H	 1.2527670515	-0.8516345924	 2.9418984313	 0.298745
H	-0.9989775149	-2.7727975927	-0.4134302288	 0.131871
H	-2.2153018775	-2.0555184355	 0.6628204938	 0.146294
