16
gdb 12406	3.10192	2.07472	1.33866	2.307	60.89	-0.2486	-0.0364	0.2122	889.2237	0.131121	-420.894324	-420.887111	-420.886166	-420.925755	27.346	
O	 0.0102748107	 1.4165780638	 0.0808388875	-0.441448
C	-0.010840117	 0.0218393974	-0.0099226802	 0.051861
C	-1.4400930958	-0.5459897333	 0.0071313767	-0.22874
C	-1.4031685841	-2.0504314645	-0.2590419377	-0.087334
O	-0.8021714004	-2.3352003583	-1.5157190684	-0.240892
C	 0.5555124316	-1.939195978	-1.5835351347	-0.176752
C	 0.7144377723	-0.4578920157	-1.2609470129	 0.35862
O	 1.3612257372	 0.3131266754	-1.9346148497	-0.323447
H	 0.6160222793	 1.7115742272	-0.6177303675	 0.29357
H	 0.5398353967	-0.4311535927	 0.8385597098	 0.090997
H	-1.9125794626	-0.3305776383	 0.9710669673	 0.114759
H	-2.0267719174	-0.0479937021	-0.7720594616	 0.12341
H	-0.8614863677	-2.5741921121	 0.5474583456	 0.093235
H	-2.4126976374	-2.4657451676	-0.3092825014	 0.121983
H	 1.175480197	-2.5239831573	-0.8795128478	 0.109875
H	 0.9083259676	-2.1294895838	-2.598897015	 0.140303
