11
gdb 683	8.20591	3.53643	2.86085	3.691	46.97	-0.2405	-0.0181	0.2224	461.278	0.085259	-285.253877	-285.248957	-285.248013	-285.282045	18.256	
O	 0.0120674724	 0.0273290312	-0.0713861688	-0.301174
C	 0.014063952	 1.2161501999	 0.0451521333	 0.450406
C	-1.1173417833	 2.2889191349	 0.1319036831	-0.340762
C	-0.0124436312	 3.333829007	-0.0748887773	-0.043203
N	 0.8711094693	 3.2015104169	 1.086720853	-0.321607
C	 1.0724511408	 2.2887178243	-0.0953782883	-0.177554
H	-1.8027778776	 2.1761477539	-0.7127006103	 0.131754
H	-1.6741601826	 2.3613499818	 1.0678925225	 0.134733
H	-0.0626739016	 4.2408054163	-0.6619873787	 0.112721
H	 1.603341287	 3.9085049725	 1.0090322915	 0.240354
H	 2.0252675248	 2.2527731712	-0.6076233701	 0.114332
