19
gdb 26184	3.93702	0.97101	0.93934	1.3012	78.9	-0.1965	0.0186	0.2151	1356.077	0.159491	-419.252117	-419.242787	-419.241842	-419.286676	34.468	
C	-0.0700071809	 1.5289549233	-0.0032254316	-0.390565
C	-0.0439228571	-0.0102494421	 0.0350438236	-0.076165
C	 0.7189496018	-0.5274608785	 1.2689480113	-0.390765
C	-1.427061858	-0.5772149158	-0.0206176401	 0.405796
N	-1.9398715286	-1.3487378564	-0.9320707961	-0.355184
C	-3.2413761022	-1.5846243888	-0.5102962647	 0.255571
N	-4.0591392037	-2.4402690594	-1.2405058021	-0.598386
C	-3.4532935957	-0.9268739449	 0.6596498534	-0.130352
O	-2.2786342929	-0.2730956562	 0.9802029809	-0.188103
H	 0.9499708793	 1.9256441434	-0.0003170871	 0.114271
H	-0.5765034257	 1.8946453651	-0.9012005792	 0.122771
H	-0.5938864135	 1.930170846	 0.8696232831	 0.129128
H	 0.4524754819	-0.3789785813	-0.8678882139	 0.106038
H	 0.7704257645	-1.6200164362	 1.2731469248	 0.12563
H	 1.7410551573	-0.1362400878	 1.2740502898	 0.113912
H	 0.2267335727	-0.2067773335	 2.1921261097	 0.129016
H	-3.7679795627	-2.4905007992	-2.2076559398	 0.253825
H	-5.0450363444	-2.2311708992	-1.1694352883	 0.24632
H	-4.2737954521	-0.8160150885	 1.3449355065	 0.127243
