16
gdb 98128	4.65689	0.87345	0.73893	1.9592	70.39	-0.2591	-0.0536	0.2054	1469.1247	0.124787	-471.27694	-471.267644	-471.2667	-471.311868	31.965	
C	-0.1427248245	 1.370357258	 0.2425381667	-0.336803
N	-0.0847966293	-0.0653787053	 0.0700275579	-0.30839
C	 0.5448171934	-0.6607301142	-0.9542448066	 0.406712
O	 1.1446997135	-0.1003728388	-1.8649058999	-0.412731
C	 0.4619712167	-2.1839501161	-0.9110951368	 0.294546
N	-0.1574264703	-2.7731798063	 0.0277538412	-0.530716
N	 1.1354748968	-2.7298608092	-1.9998330205	-0.334216
C	 1.2688632869	-4.0628498637	-2.2857528502	 0.164831
O	 0.8124906869	-4.9669476615	-1.6208568008	-0.300786
H	 0.4041075216	 1.8284253728	-0.5825761952	 0.168978
H	-1.1779927238	 1.7276062319	 0.2284127499	 0.135803
H	 0.3179045054	 1.6720480231	 1.1892654357	 0.13579
H	-0.5263140618	-0.6953914075	 0.7272171146	 0.274187
H	-0.1215894996	-3.7870984147	-0.0865025133	 0.260267
H	 1.5465372057	-2.0255848051	-2.6051876162	 0.278731
H	 1.8515551925	-4.2290930433	-3.2103227165	 0.103797
