18
gdb 84909	2.7156	1.32181	1.04008	2.1368	73.73	-0.2493	-0.0371	0.2122	1161.5922	0.14788	-439.104508	-439.095944	-439.094999	-439.138264	31.189	
C	-0.111499593	 1.5202418054	 0.0185856101	-0.401772
C	 0.0487596435	-0.0062163919	 0.0673696353	 0.026446
N	 0.6285133294	-0.4751531775	-1.1867350376	-0.267701
C	 1.8289625745	-0.8694305906	-1.2077844341	 0.127192
O	 2.7398581946	-0.9163798989	-0.2062371165	-0.221498
C	 2.3405312291	-0.331418832	 1.0360636771	-0.093135
C	 0.8471479862	-0.5420134074	 1.2962353588	-0.132077
C	 0.4056852891	 0.1102869649	 2.5867444758	 0.148119
O	-0.3883846316	-0.3727643791	 3.3530038111	-0.251847
H	 0.8554149988	 2.0332096638	 0.0458302683	 0.117714
H	-0.6041411647	 1.796290597	-0.9167675804	 0.14123
H	-0.7218161297	 1.8833718388	 0.851367183	 0.126138
H	-0.9562671879	-0.4389440376	 0.12634162	 0.107762
H	 2.2738912024	-1.2533234549	-2.1237716424	 0.130277
H	 2.9594688789	-0.8065092726	 1.8010874472	 0.131489
H	 2.5860083685	 0.738780035	 1.0148362448	 0.119547
H	 0.6408627232	-1.6131945457	 1.3851700269	 0.11458
H	 0.8569505088	 1.1092269832	 2.7903933327	 0.077535
