22
gdb 59050	3.1147	1.15514	0.93951	1.8529	84.06	-0.2376	0.0324	0.27	1349.1116	0.194957	-404.381849	-404.372438	-404.371494	-404.41632	35.163	
C	-0.0892485661	 1.5699396636	-0.0548825346	-0.378728
C	 0.0200966403	 0.048391325	 0.058049325	-0.04435
C	 0.622588324	-0.5772611265	-1.2156416751	-0.388128
C	 0.819516129	-0.3807223497	 1.2706967643	 0.403622
N	 1.5700668436	 0.4131547494	 1.91290749	-0.316666
C	 2.2818947097	-0.065960191	 3.0921509203	-0.151149
C	 1.6981736582	-1.3601100199	 3.6660618938	-0.231274
C	 1.4442611409	-2.3168358657	 2.5100875918	-0.070742
O	 0.606439906	-1.7086853569	 1.5204711266	-0.266304
H	 0.8993366881	 2.0215067008	-0.1688306089	 0.129487
H	-0.6999162384	 1.8395190637	-0.9226437363	 0.099852
H	-0.5445596207	 2.0034832163	 0.8390814097	 0.115957
H	-0.9828400864	-0.3786824568	 0.1908861373	 0.090121
H	 1.6272850467	-0.1815446625	-1.400069111	 0.119745
H	 0.6913840875	-1.6642090265	-1.1259568507	 0.123039
H	 0.0024996375	-0.3422370063	-2.086192232	 0.112441
H	 3.3390782761	-0.2092582351	 2.827552731	 0.1072
H	 2.2661680272	 0.7316508228	 3.8434560334	 0.108449
H	 2.3731521262	-1.8180502629	 4.3964708723	 0.101907
H	 0.7502219665	-1.1516814424	 4.1750555179	 0.113406
H	 2.3911963313	-2.6104481934	 2.0363676883	 0.107798
H	 0.9230929026	-3.2252797356	 2.8223479372	 0.114318
