23
gdb 95238	2.6912	1.40729	1.08394	1.1329	85.58	-0.2452	0.0796	0.3248	1218.1422	0.207836	-388.291294	-388.282784	-388.28184	-388.324023	34.247	
C	-0.3497111181	 1.4862086488	 0.0811558431	-0.393493
C	-0.0185110872	-0.0009967555	-0.0107949357	 0.138057
C	 0.6084153681	-0.3629441948	-1.3638640153	-0.190644
C	 0.7691817541	-1.8622772322	-1.64362792	-0.241441
C	 1.6961915258	-2.6646915614	-0.7442514229	 0.000946
C	 2.9004705594	-2.0924694968	-0.02895516	-0.300691
C	 1.7130185889	-2.5833527208	 0.7626025445	-0.019236
C	 0.8604032214	-1.6113439546	 1.5577500907	-0.105486
O	 0.8545744644	-0.282805486	 1.0797248212	-0.253925
H	 0.5589069524	 2.085404658	-0.0370830289	 0.121959
H	-1.0596247093	 1.7775782308	-0.6985149424	 0.109935
H	-0.7847088875	 1.7178179682	 1.0566923036	 0.118495
H	-0.9463326467	-0.5854893405	 0.1186337886	 0.060433
H	-0.02528015	 0.0580693679	-2.1546168259	 0.091086
H	 1.575784649	 0.148587871	-1.4405098885	 0.103764
H	-0.2253704346	-2.3317000233	-1.6233740299	 0.093504
H	 1.1250052553	-1.973617176	-2.676387578	 0.096674
H	 1.8445575643	-3.6727833731	-1.1258682825	 0.078692
H	 3.8191345008	-2.6688050316	-0.0170883943	 0.102557
H	 3.0440000308	-1.018416774	-0.0515180166	 0.123629
H	 1.8311169888	-3.5326175952	 1.2815110486	 0.077385
H	-0.1732338946	-1.9910326635	 1.632362449	 0.083984
H	 1.2565330745	-1.5520287453	 2.5790396716	 0.103817
