18
gdb 119823	4.19314	0.80265	0.70791	3.2563	75.37	-0.2125	0.0014	0.214	1558.0373	0.147292	-439.130563	-439.12142	-439.120476	-439.165278	33.11	
O	-0.0940901504	 1.4553209289	-0.1242476716	-0.414852
C	 0.0316836925	 0.0449686238	-0.0916789832	-0.065286
C	-1.3709658326	-0.5278874172	 0.1393037625	-0.302845
C	-1.4044335131	-2.0202360717	 0.1484531875	 0.360871
C	-1.6350693223	-2.8736016879	 1.1554513818	-0.231946
C	-1.5407789898	-4.2853302468	 0.6425302997	-0.381506
C	-1.2260553149	-4.1059799261	-0.8529398749	 0.403638
O	-1.0747727998	-4.950382645	-1.7043566556	-0.368676
N	-1.1489194689	-2.7363834417	-1.0406944812	-0.369728
H	 0.7823510729	 1.8356341101	-0.2332317272	 0.290359
H	 0.4483669853	-0.3430228237	-1.0351044482	 0.086777
H	 0.6970327344	-0.2883741322	 0.7191728442	 0.099018
H	-1.7493559401	-0.1534554334	 1.0943752797	 0.127429
H	-2.031756879	-0.1344649319	-0.6441815791	 0.120288
H	-1.8534333128	-2.5909102958	 2.1742600832	 0.102292
H	-0.7450149666	-4.8767330082	 1.1112040831	 0.143336
H	-2.4645239918	-4.8653152016	 0.7530707837	 0.143942
H	-0.9975163131	-2.3268138095	-1.9478153643	 0.256887
