21
gdb 52393	6.1213	0.54272	0.52063	3.738	80.91	-0.2451	-0.018	0.2271	2083.8268	0.180888	-424.219873	-424.209931	-424.208986	-424.256896	34.253	
O	-0.6393325982	 0.6689692266	 0.5956947236	-0.23851
C	 0.1196310644	 0.9369490166	-0.2996934797	 0.159359
C	 1.3470457272	 1.8088039096	-0.1695653237	-0.276219
C	 1.3273558362	 2.9759289862	-1.1710244718	-0.191022
C	 2.6072315116	 3.8185948765	-1.1316524968	-0.203231
C	 2.5978354135	 4.9243543369	-2.172640977	 0.160976
C	 3.9194074677	 5.6690126668	-2.4687440306	-0.301365
C	 3.7144571715	 5.1628638129	-3.9101548253	-0.057304
O	 2.548972624	 4.4037895066	-3.5261462725	-0.294144
H	-0.0509047045	 0.5438706704	-1.3304388495	 0.071211
H	 1.4187872862	 2.1596235368	 0.8644732224	 0.118604
H	 2.2231567385	 1.1758513796	-0.3755133973	 0.117732
H	 1.195899585	 2.5905266938	-2.188991721	 0.127329
H	 0.4602752788	 3.6165340203	-0.964942118	 0.108865
H	 2.7356748204	 4.2706302068	-0.1386082841	 0.099585
H	 3.4794498124	 3.1752692996	-1.3069137838	 0.096887
H	 1.7464351665	 5.5986052172	-1.9948574699	 0.072452
H	 3.9054164588	 6.7506586146	-2.3293007044	 0.111715
H	 4.789455093	 5.2514323401	-1.957381447	 0.109712
H	 3.4695521593	 5.9406048378	-4.6446825987	 0.102443
H	 4.5027516777	 4.5231795644	-4.3235712347	 0.104927
