15
gdb 84613	2.66571	1.57823	1.25241	4.0401	70.99	-0.2608	-0.0264	0.2344	1002.5009	0.114131	-416.793104	-416.785669	-416.784724	-416.824978	28.69	
O	 0.0686297127	 1.3950809314	-0.1039584388	-0.42394
C	 0.0739546092	-0.0127487492	-0.0476036995	 0.038588
C	 0.6949721032	-0.5583201922	 1.2321388875	-0.121294
C	-0.1521453299	-1.2948636043	 1.9503271014	-0.051236
C	-1.4877662061	-1.3701462255	 1.2819146915	-0.12401
N	-2.1277394503	-0.0370773139	 1.1330842459	-0.366405
C	-1.351317242	-0.6131192862	 0.0027555439	 0.173604
C	-2.0278455177	-1.0013289681	-1.198273309	 0.186469
N	-2.5711999893	-1.3055262834	-2.173659869	-0.338773
H	-0.526147642	 1.6849489324	 0.6019934285	 0.293581
H	 0.6054228251	-0.3499319852	-0.9433229225	 0.115448
H	 1.7030791182	-0.2827004145	 1.5175139155	 0.12048
H	 0.0490502096	-1.7550987291	 2.9096591698	 0.119911
H	-2.1229234598	-2.2454596709	 1.3562493839	 0.124154
H	-3.1223082209	-0.1506643314	 0.9397103609	 0.253424
