17
gdb 19167	4.10369	1.5152	1.29515	1.6043	63.32	-0.2501	0.0699	0.32	964.0368	0.142326	-400.94072	-400.932891	-400.931946	-400.972973	29.185	
O	 0.1185059744	 1.3644771748	 0.022482654	-0.417218
C	 0.0400763249	-0.0344599621	 0.172076273	-0.131161
C	-1.3968418786	-0.5408624538	 0.1238978888	 0.331817
C	-2.4829329596	 0.3326402428	 0.584597485	-0.216464
O	-2.2097884018	 0.1730904207	-0.8234449031	-0.287606
C	-1.5508212649	-2.0336162836	 0.1055957851	-0.063382
C	-2.7632560373	-2.6691883958	-0.4580044991	-0.245037
N	-1.4796124588	-2.7534165765	-1.1810045367	-0.324543
H	-0.4313364183	 1.5792259849	-0.7423285866	 0.292256
H	 0.6213274675	-0.5617357064	-0.6021751617	 0.104366
H	 0.4865493713	-0.284601673	 1.1410025656	 0.119785
H	-3.4175436095	-0.1111741697	 0.9194989719	 0.120085
H	-2.2415536161	 1.3149129378	 0.9818790569	 0.134302
H	-1.023160314	-2.5399446074	 0.9122279461	 0.095739
H	-3.1201277538	-3.6079227842	-0.0448568875	 0.119749
H	-3.5298792406	-2.014579173	-0.8611605596	 0.126998
H	-1.4974722746	-2.0680933756	-1.934856312	 0.240315
