16
gdb 96887	2.71424	1.2545	1.10509	2.6409	69.17	-0.2579	-0.0648	0.1931	1158.9352	0.121727	-475.008858	-474.999558	-474.998614	-475.044197	31.801	
C	 0.2002509184	 1.4769031957	-0.1392174763	-0.340638
N	 0.3044945562	 0.0250168434	-0.1841660916	-0.320605
C	 0.6121464313	-0.610105368	 0.8410074786	 0.421063
O	 0.910961835	-0.1718668391	 2.1325153381	-0.266084
C	 0.9256853257	-1.5208567837	 2.6641516144	-0.021553
C	-0.2816096116	-1.7991058024	 3.5354418821	 0.164274
O	-1.4033322782	-1.5514389631	 3.1658072912	-0.258109
C	 0.7524732857	-2.0865846519	 1.1917032515	-0.013784
O	-0.2741984243	-2.9635406024	 0.8914662559	-0.407095
H	 1.0068387873	 1.9117407491	-0.7398497416	 0.134487
H	-0.7438807523	 1.7769069226	-0.6042892379	 0.134187
H	 0.250251602	 1.8960311491	 0.8721215253	 0.129937
H	 1.8683635221	-1.7354421174	 3.1731933535	 0.100366
H	-0.0881127733	-2.2839739119	 4.5149773997	 0.101928
H	 1.6813391832	-2.5292232095	 0.8242066902	 0.13399
H	-1.1088313072	-2.5336433905	 1.1219601668	 0.307635
