19
gdb 79675	2.48273	1.52438	1.18183	3.4019	81.87	-0.2194	-0.0157	0.2037	1110.902	0.158602	-385.829015	-385.820715	-385.819771	-385.861795	32.075	
C	-0.2176400719	 1.5877588821	-0.0471547843	-0.439077
C	 0.1019594343	 0.0959344771	 0.0513896661	-0.080631
C	 1.3383001783	-0.6544630007	-0.3048734195	-0.118785
C	 2.6970677335	-0.1214627456	 0.1976993297	-0.052307
C	 2.650973597	 1.1674485033	 0.9750627612	-0.315334
C	 2.1862072773	-0.0989333499	 1.6322977168	-0.108179
C	 0.8116193924	-0.6408824553	 1.1790044355	 0.216652
C	 0.2057091917	-1.7938544192	 1.8351051391	 0.068555
O	 0.6082305389	-2.294565968	 2.8631450531	-0.285524
H	 0.4376573338	 2.103538023	-0.7531824062	 0.137326
H	-1.2433279139	 1.7138262434	-0.4052741804	 0.120194
H	-0.1490031919	 2.0909216369	 0.9201621489	 0.13992
H	-0.7563586955	-0.5094542098	-0.2426416203	 0.101526
H	 1.293090361	-1.5197221633	-0.9554762231	 0.107287
H	 3.6260684188	-0.5406886219	-0.164575251	 0.09859
H	 3.6306474294	 1.488354613	 1.3187446045	 0.120343
H	 1.9970085189	 1.9892693344	 0.7256843699	 0.116485
H	 2.6559601655	-0.5151462389	 2.5120804975	 0.117163
H	-0.6783176178	-2.2109024509	 1.2967461526	 0.055795
