14
gdb 9595	4.04922	1.26802	1.20391	4.1299	66.83	-0.2459	-0.0271	0.2188	1017.4537	0.103685	-382.492759	-382.484522	-382.483578	-382.5254	29.986	
O	 0.0049867361	 1.390535594	-0.0515903873	-0.444187
C	 0.0360090628	-0.0109250963	-0.0179361349	 0.200648
C	-0.4947615693	-0.6952256858	 1.212459221	-0.349818
C	-1.3406531378	-0.6723581576	-0.0539196692	-0.150318
C	-2.558101023	 0.1828119318	-0.0855125281	 0.170233
O	-3.5597599003	-0.113208545	-0.6878772926	-0.264363
C	 1.1053607869	-0.625065695	-0.7617893003	 0.29778
C	 2.0228192375	-1.1113118059	-1.3681126683	-0.451256
H	 0.8238114818	 1.7112387765	 0.3435710189	 0.294101
H	-0.0682668008	-1.6433851264	 1.5158699016	 0.140678
H	-0.8068871573	-0.0369065408	 2.0168034342	 0.133952
H	-1.422884335	-1.5880176074	-0.6269168493	 0.126763
H	-2.4856449631	 1.1196957529	 0.5039483039	 0.089898
H	 2.8240687815	-1.543398825	-1.9154940296	 0.20589
