20
gdb 78247	2.01556	1.6666	1.37392	3.2752	78.95	-0.2311	-0.0268	0.2044	1080.9905	0.16948	-403.103972	-403.094836	-403.093891	-403.137627	34.01	
C	-1.4030880924	 0.2381879835	 0.1464905529	-0.418458
C	-0.5486703926	-0.9823103966	-0.1106148415	 0.036429
C	 0.3238320201	-1.2919761234	-1.2621322352	-0.073285
C	 1.1683646193	-0.1334363717	-1.802973598	-0.015293
C	 0.5434812343	 0.992618538	-2.6220051288	-0.428815
C	 1.6638434673	 0.0357604527	-0.3211149833	-0.080307
C	 1.5786914297	 1.3484926029	 0.4095290524	 0.153941
O	 0.9897962938	 1.5570236168	 1.4388167636	-0.247058
N	 0.8959627576	-1.1559990943	 0.1596197941	-0.156609
H	-0.9794093053	 1.1700557765	-0.2199965263	 0.124284
H	-2.3769868814	 0.0960919116	-0.3355812976	 0.11283
H	-1.5651789447	 0.3580631057	 1.2209744379	 0.142044
H	-1.0432525744	-1.8829088107	 0.2546471881	 0.101047
H	 0.286483523	-2.2613168635	-1.7519124294	 0.094254
H	 1.9949301722	-0.5511875421	-2.3846149684	 0.093609
H	-0.268525829	 1.5053838979	-2.1035900546	 0.129262
H	 1.2958684666	 1.7408856712	-2.8932496597	 0.120467
H	 0.1340840525	 0.5883948835	-3.5543481276	 0.125454
H	 2.7326509212	-0.218818449	-0.2740945328	 0.112897
H	 2.1813546624	 2.150920261	-0.0812582658	 0.073308
