21
gdb 109215	3.24098	1.09176	0.98127	1.7728	84.66	-0.2317	0.0111	0.2428	1336.8288	0.1815	-387.096903	-387.087756	-387.086812	-387.130766	34.751	
C	 0.1276212743	 1.5235112355	-0.183592326	-0.374713
C	-0.0534924941	 0.0140005002	 0.0574675391	-0.297455
C	 0.6577808208	-0.4809062316	 1.2814678405	 0.353989
C	 0.1195966538	-1.0039044239	 2.3898895798	-0.196458
C	 1.1534969913	-1.3836492478	 3.4274519793	-0.325541
C	 2.4823307041	-1.0541817102	 2.7408037503	 0.41979
C	 3.7068909834	-0.7254953134	 3.5496106088	-0.483796
O	 2.6967159979	-1.8297773447	 1.5529142921	-0.300317
C	 2.1524223187	-0.4926773245	 1.4178336633	-0.141331
H	 1.1829867979	 1.7871637354	-0.3088699623	 0.118805
H	-0.4011732228	 1.838288718	-1.0884094147	 0.115202
H	-0.2626201918	 2.1026980845	 0.659027666	 0.120188
H	-1.1214139114	-0.2151999593	 0.1445335436	 0.102638
H	 0.3129283134	-0.532234758	-0.8225098776	 0.111035
H	-0.9410024024	-1.1825454754	 2.5350651949	 0.090934
H	 1.0334885591	-0.8099085514	 4.3563282792	 0.105656
H	 1.1013901048	-2.4447036695	 3.7013497502	 0.12023
H	 4.01159576	-1.5848263852	 4.1577448855	 0.126467
H	 4.5408363365	-0.4633879631	 2.8937603925	 0.128563
H	 3.5145090797	 0.11270654	 4.2276829632	 0.119893
H	 2.7922538669	 0.2055914345	 0.8843587425	 0.08622
