23
gdb 104154	2.82209	1.08415	0.95385	1.4819	88.77	-0.2356	0.0197	0.2552	1395.1936	0.204246	-388.318759	-388.308494	-388.30755	-388.353654	38.569	
C	 0.1180001728	 1.5657416984	 0.2837781394	-0.406131
C	-0.0413982176	 0.0646433345	 0.0268273645	-0.20213
C	 0.625882789	-0.4337331581	-1.2671683591	 0.378419
O	 2.0312490915	-0.0960602933	-1.2423571681	-0.484007
C	 0.5441721691	-1.9705261499	-1.4265320741	-0.245009
C	 0.3639507997	-2.229621362	-2.9384055479	-0.308681
C	-0.1436412846	-0.9040101535	-3.4669962376	 0.330086
C	-0.6686286809	-0.7650464593	-4.86066724	-0.490773
C	-0.0175060062	 0.0567841668	-2.5484163444	-0.247096
H	 1.1761217029	 1.8386146831	 0.3414753896	 0.117112
H	-0.3485022344	 2.1679720542	-0.5037847039	 0.112063
H	-0.3489842372	 1.8512701215	 1.2310597661	 0.113557
H	 0.3976047848	-0.4916842868	 0.8645206182	 0.098252
H	-1.1058957624	-0.1982279699	-0.0064995062	 0.090779
H	 2.1259313947	 0.7969207155	-1.5876264266	 0.273506
H	 1.4351624147	-2.4408427349	-1.0049878961	 0.109253
H	-0.3258459228	-2.3468180248	-0.8794484153	 0.09581
H	 1.3101508788	-2.4943291308	-3.4295757926	 0.111852
H	-0.3290384329	-3.0539717107	-3.1454973298	 0.097313
H	-1.5316227221	-1.4228310756	-5.0247227636	 0.125866
H	-0.9742864013	 0.2612878517	-5.0811432138	 0.121723
H	 0.0895378	-1.0614275118	-5.597022643	 0.12783
H	-0.2891772657	 1.0969272457	-2.7036041756	 0.080404
