17
gdb 127416	3.16867	1.68457	1.13577	5.9092	75.07	-0.2089	0.0152	0.2241	1041.5238	0.139312	-414.177333	-414.169932	-414.168988	-414.209243	27.796	
C	-0.1479395964	 1.5102933985	-0.0847555348	-0.339723
N	 0.1192067639	 0.0869064916	 0.0049173755	-0.18644
C	 0.7909113323	-0.5439468917	-1.1529957165	-0.178939
C	 1.3635169519	-1.8732160854	-0.5917185368	-0.188729
N	 1.486818656	-1.5073848318	 0.808044353	 0.030326
N	 2.043436092	-2.0864998906	 1.8992192326	-0.181271
N	 1.7056882895	-1.3334853442	 2.9074472267	-0.185568
C	 0.9152691682	-0.2914200564	 2.4906328392	-0.211013
C	 0.7639925784	-0.4163418155	 1.1276068884	 0.409717
H	 0.7698596665	 2.1114687162	-0.1937828166	 0.117322
H	-0.794976273	 1.7040780944	-0.9447301958	 0.132579
H	-0.6746007217	 1.8388502328	 0.8143842018	 0.144427
H	 0.0883800742	-0.7012173691	-1.9750773623	 0.126202
H	 1.6115944061	 0.0955116665	-1.5153996354	 0.112565
H	 0.6654722416	-2.7088251069	-0.7121210401	 0.138685
H	 2.3242426987	-2.1443842654	-1.0317776428	 0.145719
H	 0.5342150118	 0.4413631071	 3.1805219041	 0.114141
