18
gdb 33998	3.27353	1.33299	1.12008	4.3048	81.55	-0.2559	0.0099	0.2658	1112.5577	0.149979	-364.8367	-364.829019	-364.828075	-364.868793	30.063	
N	 0.0678554296	-1.1472488751	-0.5040268806	-0.350339
C	 0.0478555949	-0.0219384219	-0.2341728152	 0.220878
C	 0.0156627732	 1.3749934632	 0.1142715238	 0.163072
C	 0.2656717023	 2.3672876838	-1.0145948546	-0.311186
C	 1.3322081249	 2.1441299721	 0.0153460787	-0.059724
C	 1.6512961843	 3.209454145	 1.0485922656	-0.277256
C	 0.4494355927	 3.7046039084	 1.8051266393	-0.066272
C	-0.7112378854	 3.0559293063	 1.8709001091	-0.055406
C	-0.9893248144	 1.7349219699	 1.2087038297	-0.329878
H	 0.4158235887	 1.9690378642	-2.0106952851	 0.135611
H	-0.3056048312	 3.2882186402	-0.9666395677	 0.130768
H	 2.1845552461	 1.5571851342	-0.3105605552	 0.110361
H	 2.3850792791	 2.8082556378	 1.7623615376	 0.124292
H	 2.1556751759	 4.0518396056	 0.5559901446	 0.116072
H	 0.5676999069	 4.644021038	 2.3384163442	 0.094428
H	-1.5268403286	 3.4709705125	 2.4570382796	 0.095252
H	-2.0035215694	 1.7278835806	 0.7891369578	 0.124061
H	-0.9819496394	 0.942321795	 1.9693593283	 0.135267
