22
gdb 10393	2.43776	1.7886	1.31405	1.2763	77.67	-0.2624	0.0717	0.3341	1062.1358	0.19971	-350.195239	-350.185933	-350.184989	-350.229055	34.691	
C	-1.757782144	-0.3020734144	-0.3087284986	-0.393081
C	-0.2827061229	 0.0075167986	-0.0293446782	-0.241418
C	 0.7086694897	-0.6146611338	-1.0182187418	 0.369237
C	 0.4938610026	-0.1203830888	-2.4462703883	-0.128249
O	 0.6354017775	 1.2941161001	-2.4613845498	-0.427027
C	 2.2133078006	-0.5170116149	-0.6080625728	-0.258783
C	 2.3925871251	-2.0209119737	-0.9492734092	-0.212743
C	 0.847271134	-2.1718113102	-0.994408292	-0.268853
H	-2.0998236293	 0.1598831669	-1.2399347663	 0.119252
H	-1.9359682961	-1.3808971007	-0.3841998975	 0.111918
H	-2.393034722	 0.0811344583	 0.4959694042	 0.110344
H	-0.1315901486	 1.0926971624	-0.0210244745	 0.113052
H	-0.0255933421	-0.3517509068	 0.9753475365	 0.082278
H	 1.2311573212	-0.5961884335	-3.1128372023	 0.079272
H	-0.5044244723	-0.4241036186	-2.7992323537	 0.08421
H	 0.5214911493	 1.5997872457	-3.3656187127	 0.28664
H	 2.8163287216	 0.2057870734	-1.1622663848	 0.103167
H	 2.3308228605	-0.3153516876	 0.4606606011	 0.091717
H	 2.858836877	-2.1812111371	-1.924960067	 0.099301
H	 2.9246946266	-2.6334373829	-0.2177991753	 0.094711
H	 0.4404773301	-2.6003758055	-0.0737123429	 0.096082
H	 0.4234438114	-2.721173107	-1.8411085041	 0.088975
