23
gdb 58278	3.00145	0.82198	0.80144	3.4984	82.91	-0.2377	-0.0079	0.2298	1603.94	0.201889	-425.455496	-425.444088	-425.443143	-425.492802	40.945	
C	 0.0136048907	 1.458467421	 0.305637248	-0.410166
C	-0.1387948612	-0.0070001746	-0.1299426205	 0.020609
C	-1.6051180799	-0.3364721376	-0.4411690425	-0.393304
C	 0.7572056026	-0.37870261	-1.3335300257	 0.138565
O	 0.4178989905	 0.3588854515	-2.5076818738	-0.438335
C	 2.2696525443	-0.2811042632	-1.0295035997	-0.321298
C	 3.0827514435	-0.9717718576	-2.1236119812	 0.391619
C	 3.5706387852	-0.1063707257	-3.2661486543	-0.483123
O	 3.2800809101	-2.1646833044	-2.080190079	-0.306244
H	 1.0420863637	 1.7085598651	 0.5833750229	 0.118528
H	-0.3048113526	 2.1496035213	-0.4851328799	 0.107841
H	-0.6196218123	 1.6651383959	 1.1735477747	 0.123464
H	 0.1881047849	-0.6424404234	 0.7040640821	 0.079892
H	-1.9502867781	 0.2293756213	-1.3116209392	 0.125694
H	-1.7322663798	-1.4005253832	-0.6654432465	 0.11564
H	-2.2515156632	-0.0911141433	 0.4072709672	 0.108373
H	 0.544617593	-1.4212070089	-1.5971338022	 0.108036
H	 0.5352519895	 1.2950393192	-2.3119902549	 0.280542
H	 2.5609909429	 0.7703717728	-0.9252451957	 0.091877
H	 2.4775898023	-0.7975665077	-0.0876725813	 0.121667
H	 4.2251156064	 0.6896241188	-2.8921529798	 0.129875
H	 4.105510873	-0.7119449709	-3.9986418496	 0.137294
H	 2.7042950846	 0.3767834536	-3.7310079789	 0.152953
