13
gdb 533	16.69433	1.33442	1.26475	4.9959	50.66	-0.282	0.0354	0.3174	867.7431	0.107556	-286.502445	-286.49537	-286.494426	-286.533599	23.456	
O	-0.0588966059	 1.4385767588	 0.0102106564	-0.417342
C	 0.0251668199	 0.025303277	 0.0018921571	-0.074577
C	-1.3998242255	-0.5145647569	 0.0125936913	-0.165782
C	-1.4252062765	-2.0538490738	 0.0046501811	-0.342105
C	-2.7832033181	-2.5928404366	 0.0145070154	 0.258677
N	-3.8612194589	-3.0085807091	 0.022709898	-0.301631
H	 0.833229564	 1.7975629617	 0.0034130132	 0.290838
H	 0.5558515687	-0.3419726272	-0.8924873676	 0.089937
H	 0.5727517113	-0.3514290667	 0.8820392554	 0.089935
H	-1.9185747965	-0.1376581543	 0.8993004034	 0.133119
H	-1.9353342453	-0.1283544726	-0.8600307866	 0.133115
H	-0.9082668795	-2.4414888482	-0.8815907611	 0.152904
H	-0.8915976577	-2.4508432421	 0.8767920641	 0.152913
