17
gdb 61787	2.07558	1.30246	0.84032	3.6348	71.48	-0.2756	0.0061	0.2817	1323.8975	0.131443	-458.9448	-458.934515	-458.933571	-458.980693	35.922	
C	-0.0564126709	 1.731368271	-0.040220719	-0.400838
C	 0.0649045757	 0.2161383821	-0.0139460629	 0.084066
O	 0.7938469671	-0.1588035548	 1.1625803913	-0.186326
C	 1.8026271889	-1.0473541884	 1.0469822487	 0.175759
O	 2.4298290952	-1.4333118724	 1.9856555588	-0.275046
C	-1.3200355249	-0.4825393677	 0.0334193026	-0.038803
O	-2.1389341388	-0.0440177567	-1.0440845721	-0.41505
C	-1.177112276	-1.9379103486	 0.052822249	 0.267992
C	-1.0375711974	-3.1310816819	 0.0057737508	-0.423803
H	 0.9319411972	 2.1898503034	-0.1257105633	 0.12618
H	-0.6722433761	 2.0400151028	-0.8866421102	 0.141959
H	-0.5233177679	 2.0897708471	 0.8821160341	 0.136131
H	 0.5992310499	-0.1425737739	-0.90498349	 0.088328
H	 1.9844178411	-1.3555117784	-0.0000112737	 0.08063
H	-1.8222889671	-0.15066867	 0.9501029547	 0.134638
H	-1.9414619891	-0.5973210256	-1.8077276798	 0.292382
H	-0.9286124067	-4.1880727881	-0.0083734491	 0.211799
