16
gdb 4495	3.57403	1.73257	1.1841	1.678	69.55	-0.1875	0.0286	0.216	1001.5769	0.128804	-383.78057	-383.771921	-383.770977	-383.813824	30.426	
C	 0.0893853012	 1.4477762141	-0.0190621197	-0.490834
C	-0.0661400412	-0.0304425858	-0.0091334	 0.378916
C	-1.1490864059	-0.851981823	 0.0690433349	-0.415047
C	-0.6338600348	-2.1904177914	 0.0300894845	 0.230315
O	-1.3283064959	-3.3646521427	 0.0812739402	-0.447844
C	 0.7209863295	-2.1012313715	-0.0686375866	 0.256154
C	 1.8009495695	-3.1144988026	-0.1483888234	-0.500277
O	 1.0704687108	-0.7702129658	-0.0924496769	-0.217998
H	 0.7015910005	 1.793940185	 0.8217765499	 0.137057
H	 0.5736654491	 1.7955733116	-0.9389409534	 0.137018
H	-0.8901477541	 1.9258588045	 0.0525048651	 0.131719
H	-2.1824843078	-0.5474133754	 0.1447908742	 0.09917
H	-2.2664930519	-3.1645788532	 0.1352564125	 0.298112
H	 2.3819149369	-3.0246827686	-1.0744021045	 0.129677
H	 2.5048332731	-3.0334483126	 0.6889667173	 0.129679
H	 1.355230271	-4.1117077925	-0.1221230341	 0.144183
