19
gdb 97720	5.01334	0.69252	0.66388	2.0156	88.71	-0.2306	0.0276	0.2582	1773.9965	0.157825	-385.832049	-385.822817	-385.821873	-385.868153	33.453	
C	 0.0342666245	 1.5715833928	 0.0814548242	-0.365414
C	 0.0224662313	 0.0328156124	 0.0201234599	-0.332014
C	 0.6393860109	-0.4982466062	-1.1894126037	 0.314886
C	 1.1641384789	-0.9261361378	-2.1873113225	-0.216487
C	 1.7445807484	-1.3941446714	-3.3974030591	 0.29457
C	 1.3940864951	-0.9906481164	-4.8458316653	-0.313769
C	 1.8368656081	-2.4213398905	-5.3101386958	-0.242212
C	 2.1793211559	-2.7408221935	-3.8501837168	-0.054929
O	 3.1374055427	-1.7783765343	-3.4164583776	-0.287037
H	 1.058072799	 1.9531820868	 0.0479711219	 0.132635
H	-0.5129335033	 1.9985523547	-0.7632983748	 0.128471
H	-0.4346183534	 1.9183351191	 1.0070474079	 0.115809
H	 0.5444618754	-0.3742930322	 0.8955763739	 0.135435
H	-1.0111028745	-0.3303988428	 0.0906748274	 0.130932
H	 0.3269150998	-0.8120198448	-4.9899750226	 0.115637
H	 1.9666534477	-0.1432585208	-5.2281660187	 0.11295
H	 1.0031567637	-3.0113579104	-5.6974658647	 0.108479
H	 2.6802427365	-2.4793907386	-6.0018183484	 0.114042
H	 2.1602098132	-3.691752546	-3.3294364653	 0.108016
