18
gdb 69907	2.78516	1.73573	1.39189	1.6786	75.61	-0.2383	0.0022	0.2405	976.4698	0.149165	-401.91484	-401.907503	-401.906558	-401.946331	29.647	
C	 0.0218224754	 1.4751447721	-0.0042747523	-0.484965
C	-0.0006760184	-0.0318545249	-0.019875541	 0.355848
C	-0.8636724581	-0.8428333155	 0.9134331432	-0.347512
C	 0.6377069246	-0.9249808538	 1.0525095477	-0.074935
C	 1.3846861029	-1.9262207286	 0.1688450506	-0.148764
N	 0.3647121662	-2.2097925968	-0.9104211106	-0.321392
C	 0.5139638403	-0.7519560683	-1.275411192	-0.204549
C	 2.0181261847	-0.973377697	-0.8986469029	 0.423897
O	 3.0902688242	-0.7669334452	-1.3766597483	-0.325506
H	 0.9819056243	 1.8644573523	-0.3630392233	 0.128179
H	-0.7657963825	 1.894152144	-0.6415841319	 0.121908
H	-0.1344876672	 1.858504264	 1.0086309141	 0.120429
H	-1.3613761583	-0.2670116249	 1.6869782322	 0.109733
H	-1.4192003983	-1.6968826958	 0.5496589865	 0.134194
H	 1.1425966618	-0.5173184129	 1.9196699416	 0.097936
H	 1.9064805807	-2.7693590923	 0.6171907215	 0.090667
H	 0.8048210209	-2.7756078055	-1.6356200998	 0.237793
H	 0.1753121869	-0.4290883712	-2.2584143154	 0.087038
