22
gdb 119632	3.9298	0.89924	0.82759	2.7161	81.81	-0.2266	0.0793	0.3059	1466.0904	0.195364	-404.33124	-404.322179	-404.321235	-404.365385	34.49	
O	-0.1792433906	 1.4960801605	-0.2603237412	-0.418452
C	-0.0147536886	 0.0863265504	-0.2324674948	-0.071603
C	-1.3646975626	-0.5296800272	 0.1228348064	-0.272522
C	-1.3355814269	-2.0407347152	 0.1595397183	 0.348127
C	-1.5677113593	-2.840930902	-1.0761258836	-0.296954
N	-2.6169243784	-2.7519928115	-0.0475690499	-0.136356
C	-2.6350677386	-3.9031581394	 0.874000204	-0.148406
C	-1.1938864972	-4.131770757	 1.3866659259	-0.244548
C	-0.5490251715	-2.7350891485	 1.2707957639	-0.271653
H	 0.667808354	 1.8933580359	-0.4819330443	 0.284441
H	 0.3211187935	-0.2977976252	-1.20947739	 0.086026
H	 0.7439487181	-0.2089903495	 0.5103345207	 0.08468
H	-1.6825547234	-0.1387049286	 1.0976471277	 0.102387
H	-2.1068003073	-0.197950308	-0.6099226275	 0.115104
H	-1.8089167615	-2.3344468505	-2.0069332849	 0.110906
H	-1.0340285715	-3.7798242038	-1.2051713419	 0.103796
H	-3.3033473635	-3.641768112	 1.702092674	 0.106574
H	-3.0573761095	-4.7811642886	 0.3749071335	 0.103836
H	-1.1734638996	-4.5217200179	 2.407264955	 0.101943
H	-0.6637768265	-4.8562101804	 0.7615813063	 0.106498
H	 0.5257238297	-2.7855350633	 1.0704780162	 0.102685
H	-0.6778950587	-2.1671072481	 2.2003905961	 0.10349
