21
gdb 103152	1.90626	1.54403	1.15828	2.1646	78.82	-0.2437	-0.0262	0.2175	1205.091	0.179589	-424.2421	-424.231865	-424.230921	-424.276872	37.76	
C	-0.3262818371	 1.5708253385	-0.0171413886	-0.395627
C	-0.3109821492	 0.0449664295	-0.1444511245	-0.21519
C	 0.7160593134	-0.4548477554	-1.1707788588	 0.301921
O	 2.0075278044	-0.0172608819	-0.811752649	-0.487767
C	 0.5691090844	-1.9798917864	-1.5598063338	-0.020979
C	-0.0364372264	-2.9729725426	-0.5791449766	-0.423318
C	-0.254597152	-1.5687752637	-2.8259133621	-0.364669
C	 0.3330906812	-0.1715052868	-2.6321588821	 0.340952
O	 0.6699540537	 0.71390266	-3.370777636	-0.323505
H	 0.6608269795	 1.9377864341	 0.2738260608	 0.131814
H	-0.5979358751	 2.0480348017	-0.9643549301	 0.126926
H	-1.0478603126	 1.8892650522	 0.7407625225	 0.111486
H	-0.0590356745	-0.4092325724	 0.8215311679	 0.11093
H	-1.3093542479	-0.3210993034	-0.4110002498	 0.096055
H	 2.322817959	 0.5535671954	-1.5235755576	 0.293711
H	 1.5617209052	-2.3176103893	-1.8731486943	 0.092295
H	-1.0416969456	-2.6755614243	-0.2656952546	 0.117629
H	-0.1126878455	-3.9653740242	-1.0356449869	 0.12009
H	 0.5828944802	-3.0683811054	 0.3187701012	 0.129124
H	-0.0428075508	-2.056540497	-3.7791495074	 0.129588
H	-1.3344786644	-1.5932429585	-2.6436719902	 0.128533
