16
gdb 55507	3.39055	0.94323	0.76969	3.7344	68.09	-0.249	-0.0996	0.1495	1427.1727	0.121102	-475.090781	-475.08095	-475.080006	-475.127327	33.97	
C	-0.4124062269	 1.5134446153	 0.0119518848	-0.475164
C	-0.2600335644	 0.0733320276	 0.4302992503	 0.319142
O	 0.592280235	-0.3323983115	 1.1832345393	-0.260921
C	-1.2866725825	-0.9201012037	-0.1794013643	 0.263256
O	-2.1395618804	-0.4914472477	-0.9299300297	-0.300575
C	-1.1249676373	-2.3738195865	 0.1991224137	-0.409004
C	-2.4158425933	-3.1846665287	 0.4216334527	 0.382963
N	-3.3956615969	-2.9745651479	-0.4976815211	-0.511746
O	-2.4890682809	-3.9901740036	 1.3253748582	-0.346487
H	 0.3540238344	 2.1177972689	 0.4967999573	 0.147467
H	-0.3347815734	 1.5995456384	-1.0765904566	 0.158287
H	-1.4104408137	 1.8775955934	 0.2753131635	 0.159813
H	-0.581744087	-2.8511549509	-0.6294793763	 0.166914
H	-0.4992073544	-2.4688561629	 1.0848048607	 0.17123
H	-3.3592362099	-2.1482766375	-1.0771376863	 0.274651
H	-4.2829235683	-3.4215712728	-0.3288302461	 0.260173
