17
gdb 125242	3.88982	0.96407	0.80623	2.7936	80.8	-0.2338	0.0221	0.2559	1408.5915	0.135659	-380.868573	-380.859503	-380.858559	-380.903772	32.616	
C	 0.4045309504	 1.4167133583	-0.0422060289	-0.503516
C	 0.1147566127	-0.0486509779	-0.0441979585	 0.390741
C	 0.4871678054	-1.0600140035	-0.9067308106	-0.368341
C	-0.0885753959	-2.2362897118	-0.3733635286	 0.3531
C	-0.0448919842	-3.6404789252	-0.9201875064	-0.452361
C	 1.2681766422	-4.0359942531	-1.4220041359	 0.309455
C	 2.345002735	-4.3557895124	-1.8487694045	-0.462694
N	-0.7688902814	-1.9838226558	 0.7403744605	-0.292793
N	-0.6341610647	-0.6515982052	 0.9162627531	-0.253739
H	 0.9557912461	 1.7221766762	 0.8546606521	 0.1372
H	 1.0121829856	 1.6778684846	-0.9107563038	 0.145207
H	-0.5133728154	 2.0143168437	-0.0848498228	 0.136009
H	 1.0989048265	-0.9666730504	-1.7893374023	 0.10801
H	-0.3697112327	-4.3233522698	-0.1274981079	 0.150494
H	-0.7790135338	-3.7450625889	-1.731600712	 0.141367
H	 3.2981210706	-4.6443394052	-2.2165357673	 0.193905
H	-1.0627599363	-0.2231574536	 1.7193109938	 0.267956
