17
gdb 87499	3.00346	1.41469	1.14867	2.1237	68.75	-0.254	0.0537	0.3078	1091.5069	0.133975	-458.862172	-458.854142	-458.853198	-458.89456	31.085	
C	 0.035816812	 1.5435894131	-0.1017783243	-0.415355
C	 0.0167367258	 0.0478675872	 0.0551342312	-0.075339
O	 1.3115633408	-0.6303686852	-0.0332061488	-0.326645
C	 0.6063267906	-0.6363812401	 1.1896509877	 0.49345
C	 1.12967639	-0.2795647545	 2.5927043092	-0.116892
O	-0.1197801887	-0.8587823696	 3.127172947	-0.298595
C	 0.289899465	-1.8369054417	 2.0975879687	-0.118786
C	 1.7459381183	-1.720824489	 2.6696300371	 0.16532
O	 2.8679866701	-2.0975812729	 1.950363356	-0.435495
H	 0.8455903137	 1.9871280139	 0.4825313796	 0.129393
H	 0.1737231833	 1.8191064533	-1.1520122506	 0.135085
H	-0.914706701	 1.9681754867	 0.2379246679	 0.135344
H	-0.7652199344	-0.4761665771	-0.4951327988	 0.107564
H	 1.4744588893	 0.6663614921	 3.0087099023	 0.101554
H	-0.3462443958	-2.7058110906	 1.9336527851	 0.102417
H	 1.831924341	-2.0913419342	 3.6920042234	 0.107958
H	 2.7868261399	-1.7691325915	 1.0460011272	 0.309022
