15
gdb 57138	4.29659	0.70436	0.6479	3.8292	79.18	-0.2676	-0.0509	0.2167	1642.0316	0.11225	-416.754731	-416.745806	-416.744861	-416.789292	31.502	
N	-0.3933060174	 1.2352299107	-0.9034741786	-0.511052
C	-0.2443493614	 0.012656051	-0.1156201537	-0.208699
C	-1.5470033794	-0.5230693862	 0.2675080156	 0.153849
C	-2.6150469073	-1.0010558906	 0.5666793611	 0.016514
C	-3.8252723368	-1.5358254985	 0.9046817548	 0.211316
N	-4.853962861	-1.9937315685	 1.1898366125	-0.331778
C	 0.5957425811	-1.1023179868	-0.7679067815	 0.084127
C	 0.6502920835	-1.3025681946	-2.2169863697	-0.175605
O	 1.7145659152	-0.6421653387	-1.5151533327	-0.232848
H	 0.5148301241	 1.461700111	-1.3022017532	 0.252057
H	-1.034785179	 1.0834837155	-1.6756525707	 0.240182
H	 0.2839659326	 0.2879248045	 0.8100173772	 0.140795
H	 0.7978937894	-1.9518058993	-0.1147839749	 0.114302
H	 0.894301348	-2.2856682809	-2.6133688216	 0.132651
H	 0.0682739483	-0.6627512889	-2.8765570147	 0.11419
