24
gdb 76680	3.19726	0.85789	0.80533	1.2615	90.4	-0.2106	0.0803	0.2909	1589.0747	0.216298	-368.367731	-368.357434	-368.35649	-368.403578	38.144	
C	 0.121997639	 1.5728399132	 0.8145583834	-0.413578
C	-0.0195551294	 0.173811075	 0.2507374624	-0.013125
C	 0.2177723795	-0.165658503	-1.1883775921	 0.003185
C	 0.6181936658	 0.8557033303	-2.2385025753	-0.25125
C	 1.3254015258	 0.2232128751	-3.4231931231	 0.045651
C	 0.528727752	-0.393391522	-4.5460366676	-0.25399
C	 1.2952398687	 0.8872553511	-4.7751440747	-0.280492
N	 1.1179953233	-0.6639845746	-0.1399755385	-0.103918
C	 2.4780755699	-0.164342071	-0.0175377576	-0.314451
H	 0.8425112228	 2.1907705613	 0.2764892471	 0.119323
H	-0.8449502836	 2.086400403	 0.7784810832	 0.121001
H	 0.4327690467	 1.5354206011	 1.8647469832	 0.121051
H	-0.7930227158	-0.3998427473	 0.7636760782	 0.08213
H	-0.3952546669	-0.9624062977	-1.6124484156	 0.083546
H	-0.2930384772	 1.355600398	-2.5953086272	 0.094668
H	 1.2472613213	 1.6448856422	-1.8155583647	 0.096754
H	 2.2498540638	-0.2887339431	-3.16883044	 0.085764
H	 0.8958665334	-1.3043277642	-5.0055098025	 0.111473
H	-0.5537579931	-0.3308400109	-4.4929675077	 0.108659
H	 0.7262626264	 1.8063310777	-4.8747888867	 0.108007
H	 2.1873158515	 0.8513938735	-5.3907065324	 0.109775
H	 2.6330133652	 0.894258698	-0.2708406941	 0.097999
H	 2.8125797771	-0.309937246	 1.0151661278	 0.120189
H	 3.1310676941	-0.7610319597	-0.6633501356	 0.12163
