19
gdb 74575	3.36065	1.22442	1.0463	3.1536	82.52	-0.2226	-0.017	0.2056	1197.668	0.159376	-385.922822	-385.914715	-385.913771	-385.955675	31.315	
C	 0.0449084641	 1.5005872936	-0.0629649931	-0.488382
C	 0.0222241716	 0.0044068775	-0.058668973	 0.33234
C	 0.1552672206	-0.803288928	-1.1166977363	-0.184802
C	 0.0747230512	-2.2637452929	-0.7623243184	-0.183754
C	-0.2959430893	-2.2371080875	 0.7670852885	-0.022019
C	-1.7461763263	-2.7046969854	 0.4285787271	-0.361538
C	-1.3151986791	-2.8823714129	-1.0387786509	 0.407886
O	-1.8319238466	-3.3658730897	-2.0024646637	-0.296718
C	-0.1375851575	-0.7777396941	 1.2304366685	-0.318396
H	 0.8417006399	 1.885245989	 0.586568876	 0.126632
H	 0.2010207647	 1.9011053734	-1.0679556411	 0.126911
H	-0.8959258816	 1.9110964066	 0.3254342484	 0.12765
H	 0.2878295577	-0.4672164416	-2.1393778453	 0.098768
H	 0.9229835872	-2.858865932	-1.1164295212	 0.091514
H	 0.2428641133	-2.9521038532	 1.3888305642	 0.077453
H	-2.0870507589	-3.6292250737	 0.9029588728	 0.129501
H	-2.5198670506	-1.9423407854	 0.5688105253	 0.127831
H	 0.736972706	-0.6360144628	 1.8804920038	 0.105547
H	-1.0046349264	-0.439268601	 1.8143481683	 0.103576
