25
gdb 57532	3.15247	0.93789	0.88533	0.9932	89.89	-0.2384	0.0751	0.3135	1507.8528	0.226414	-389.488079	-389.477485	-389.476541	-389.523693	40.257	
C	 0.0520015223	 1.6431656189	 0.2036554658	-0.406468
C	 0.0006294732	 0.1109585601	 0.0838421898	 0.353723
C	 0.758551093	-0.5539074518	 1.2433254953	-0.407209
C	-1.4555589218	-0.3643254257	 0.0616718336	-0.397108
O	 0.5134752404	-0.3096103976	-1.1927419112	-0.296251
C	 1.8862768173	-0.1830631963	-1.4533230883	 0.17176
C	 2.819983199	-1.412121011	-1.2424871925	-0.239977
C	 3.4995658794	-1.0579980224	-2.5929298374	-0.221092
C	 2.2451183856	-0.2164715234	-2.9553251274	-0.246922
H	 1.0794496902	 2.0185112582	 0.2266927513	 0.112568
H	-0.4637919505	 2.1047269061	-0.6432416518	 0.118877
H	-0.4356695571	 1.9715614026	 1.1269676986	 0.111273
H	 0.291541167	-0.2960735095	 2.1991432634	 0.110675
H	 0.7441940346	-1.6425218075	 1.1370025049	 0.11925
H	 1.8011080609	-0.2255241133	 1.2849244797	 0.112749
H	-1.9841266522	 0.0789171841	-0.7868861793	 0.11839
H	-1.4972361807	-1.4521379438	-0.0421492596	 0.115692
H	-1.973297369	-0.0800418099	 0.9826314175	 0.106725
H	 2.3102142771	 0.7090822734	-0.9742570532	 0.064945
H	 3.4382295943	-1.4513747831	-0.3420866812	 0.089625
H	 2.2353241982	-2.3336207126	-1.3168446925	 0.105126
H	 4.3861820947	-0.4330444301	-2.4539073622	 0.100627
H	 3.7604030605	-1.8836665626	-3.2576172663	 0.099462
H	 1.502944073	-0.8148269941	-3.4913548888	 0.110701
H	 2.3790110007	 0.7355090216	-3.474357768	 0.092859
