23
gdb 105528	1.92659	1.63434	1.11246	1.5583	84.75	-0.2425	0.0845	0.3271	1233.0099	0.205385	-388.267517	-388.258014	-388.25707	-388.302021	36.005	
C	 1.0420078877	-0.3043348588	-1.4861417286	-0.39485
C	 0.1234427366	-0.0027227416	-0.2971026542	-0.21904
C	 0.5944915539	-0.580445287	 1.0396679865	 0.408085
C	 1.8062133865	 0.1469970773	 1.6896037025	-0.324538
C	 0.7929810458	 0.5953006466	 2.756603601	-0.072199
O	-0.284361972	-0.1105915527	 2.1074431864	-0.325303
C	 0.6741459892	-2.0932626259	 1.0321280334	-0.027423
C	 0.5256051915	-2.8828038942	 2.3060371594	-0.28111
C	-0.5677931596	-2.9145228287	 1.2654392901	-0.270568
H	 1.0732716037	-1.373546814	-1.7156320361	 0.12175
H	 0.6918861148	 0.2135585736	-2.3839491134	 0.116379
H	 2.0692400483	 0.026708367	-1.295243734	 0.115099
H	 0.0233447976	 1.0820001315	-0.1727357166	 0.093386
H	-0.8842365924	-0.387648563	-0.4932977131	 0.105906
H	 2.597169743	-0.5137524936	 2.0468929629	 0.109415
H	 2.244045916	 0.9478274719	 1.090605806	 0.103838
H	 0.9739931845	 0.2213296537	 3.7716280017	 0.100343
H	 0.5969508059	 1.6732137031	 2.8082838511	 0.100771
H	 1.3848087401	-2.4864267877	 0.3102778113	 0.082951
H	 1.1438919907	-3.763811174	 2.4385297104	 0.103265
H	 0.3117876262	-2.3318243845	 3.2143156915	 0.121219
H	-1.4776103334	-2.374755478	 1.5030697643	 0.12738
H	-0.7108228545	-3.8170820408	 0.6818212074	 0.105242
