20
gdb 90545	3.24018	1.10777	1.04283	4.4169	81.14	-0.2358	0.0282	0.264	1247.6131	0.171644	-403.146962	-403.138384	-403.13744	-403.181182	31.938	
C	-0.989287322	 1.1770108791	 0.0015306143	-0.412353
C	-0.1233525116	-0.0750599574	-0.0063938988	 0.036107
C	 1.1307138051	-0.1008271441	-0.9439884694	-0.257003
C	 2.0318973625	-0.4485955125	 0.2716679135	-0.006701
C	 0.7858753106	-0.3950637805	 1.2236895071	-0.070775
C	 1.4614754877	 0.80031857	 1.9501191269	-0.186993
N	 2.564364746	 0.7101526279	 0.9890897779	-0.025186
C	 3.6880231535	 1.4484841593	 0.8717375982	 0.124332
O	 3.9726664098	 2.3912785987	 1.5833809474	-0.334857
H	-0.3943531458	 2.0860567628	 0.1363538059	 0.126281
H	-1.5241545667	 1.277952281	-0.9490034779	 0.120259
H	-1.73727922	 1.1420968757	 0.8014224892	 0.118085
H	-0.7590019547	-0.9427261142	-0.2091419231	 0.080326
H	 1.097775967	-0.8797099777	-1.7100147416	 0.105665
H	 1.3811679594	 0.8494442563	-1.4226104065	 0.107961
H	 2.713780911	-1.2978414084	 0.1877497871	 0.085988
H	 0.4861990079	-1.2294902131	 1.8554310232	 0.079955
H	 0.9324810173	 1.7578282339	 1.9446899309	 0.123368
H	 1.777724613	 0.5850623426	 2.9766561953	 0.122152
H	 4.3338582101	 1.0864859205	 0.0440013005	 0.063388
