15
gdb 78155	2.11751	1.8484	1.0639	2.758	67.8	-0.254	-0.0372	0.2167	1084.602	0.11344	-453.985096	-453.977564	-453.97662	-454.017147	28.508	
C	-0.1087535656	 1.3752232457	-0.0269093691	-0.31992
N	 0.0966943894	-0.0704574112	 0.0564876366	-0.104916
C	 1.4903581041	-0.5073704304	-0.1374846628	-0.174114
C	 0.8818794899	-0.5154797949	 1.2210753426	-0.17411
C	 0.5914644599	-1.9606077627	 1.5594484324	 0.46188
O	 0.1657141414	-2.4218382009	 2.5855602085	-0.347427
N	 0.9453054522	-2.6878372715	 0.4209348012	-0.377219
C	 1.555842917	-1.9477437677	-0.593846464	 0.461884
O	 2.0400436063	-2.3968448666	-1.5992122388	-0.347429
H	 0.7374595762	 1.967449368	 0.355611813	 0.110094
H	-0.2779892873	 1.6434563742	-1.0733601309	 0.142881
H	-1.0033473608	 1.6337984188	 0.5462304476	 0.14288
H	 2.2440631016	 0.1984718695	-0.4645840312	 0.125111
H	 1.1365340069	 0.1837149421	 2.0081941463	 0.125112
H	 0.8044478488	-3.6853819026	 0.3518905486	 0.275292
