13
gdb 5197	5.81648	1.46071	1.16751	3.9072	61.79	-0.215	0.0005	0.2155	939.1887	0.097057	-398.647092	-398.640449	-398.639505	-398.678263	24.439	
O	-0.2497162178	 0.018720964	 0.0003886545	-0.308884
C	-0.0767459577	 1.2178436674	 0.0077747534	 0.140894
N	 1.1425420149	 1.8314608958	 0.0010996101	-0.402782
C	 2.3750872811	 1.1697658431	-0.0150719669	 0.306722
C	 2.6195040687	-0.1730756373	-0.0281459327	-0.069882
O	 3.9670973341	-0.3872265806	-0.041410748	-0.141908
C	 4.5731203547	 0.8216218337	-0.0369527928	 0.025404
C	 3.6543140562	 1.8209976252	-0.0210790972	-0.309211
H	-0.9024906486	 1.9545096497	 0.0209825705	 0.083487
H	 1.1587461271	 2.8390205942	 0.0084636113	 0.256575
H	 1.9818369838	-1.0356893758	-0.0294388279	 0.169646
H	 5.6502619716	 0.8117157422	-0.0463354758	 0.140757
H	 3.8495909419	 2.8822553684	-0.0142896085	 0.109181
