19
gdb 83593	2.60306	1.68889	1.58308	2.0907	68.89	-0.2468	0.0712	0.318	952.2955	0.162451	-460.172992	-460.165721	-460.164777	-460.204251	29.626	
O	 0.0397282154	 1.3971448785	 0.0364095523	-0.458456
C	 0.0007044252	-0.0163412984	 0.0216287459	 0.134426
C	-1.4064092772	-0.604701217	-0.2053131808	-0.072008
C	-1.5919330462	-0.2722092317	-1.6960975405	-0.113695
O	-0.261193339	-0.3034916299	-2.2616772731	-0.287512
C	 0.6662229483	-0.6083876438	-1.2264128037	 0.168084
O	 0.8922665925	-1.9890115753	-1.0744820821	-0.262095
C	-0.3085529656	-2.7523631754	-0.953283404	-0.072087
C	-1.3154199229	-2.1269830636	 0.0257890747	-0.242472
H	-0.0577309997	 1.7036574426	-0.8723720387	 0.291762
H	 0.4676392349	-0.3609443588	 0.9458922157	 0.093013
H	-2.1636575242	-0.1367746401	 0.4268532184	 0.080614
H	-2.2244613982	-0.9925507351	-2.2257451357	 0.109055
H	-2.0166673082	 0.7277639585	-1.842460433	 0.104058
H	 1.6283497532	-0.163884292	-1.4889083888	 0.094443
H	-0.7674880431	-2.8610295232	-1.9452326151	 0.109098
H	 0.0025328058	-3.7459721307	-0.6216011851	 0.11182
H	-1.0048560839	-2.3165470084	 1.0594010231	 0.109285
H	-2.2927092371	-2.6038712363	-0.1115698193	 0.102667
