13
gdb 1414	4.59496	1.69524	1.42772	3.6016	56.08	-0.2751	0.001	0.2762	836.805	0.101215	-340.674935	-340.667314	-340.66637	-340.707538	25.702	
C	 0.1589370065	 1.741908305	 0.1841470846	-0.38826
C	 0.0568781814	 0.2237335965	-0.0398312551	-0.098106
N	 0.6882706073	-0.2058146906	-1.2798271324	-0.280888
C	-0.0451909593	-0.6686595436	-2.3338186051	 0.164677
O	-1.2536247815	-0.7410507453	-2.3533897919	-0.311778
C	 0.6262071873	-0.5157133831	 1.0990094124	 0.268446
N	 1.0974766393	-1.0741253198	 1.9939479	-0.31249
H	 1.2036623084	 2.0588536725	 0.2466820307	 0.133985
H	-0.3202515497	 2.2594536079	-0.6498375959	 0.145013
H	-0.3419259384	 2.0246322321	 1.1135527137	 0.146954
H	-0.9957702482	-0.0594127016	-0.1447280043	 0.174956
H	 1.6944945797	-0.1997075783	-1.3425474775	 0.263051
H	 0.5984924672	-0.9670603817	-3.1823294093	 0.09444
