21
gdb 113142	2.04214	1.0072	0.74789	1.4605	89.47	-0.2273	0.0578	0.2852	1603.1367	0.179446	-387.054261	-387.043188	-387.042244	-387.091714	38.84	
C	 0.086825075	 1.4921245821	 0.063880757	-0.501363
C	 0.0329081719	 0.0369427492	 0.0426297643	 0.073266
C	-0.0153162042	-1.1678761583	 0.0345219955	 0.008451
C	-0.0133810584	-2.6092616593	-0.0071580542	 0.148728
C	 1.1562648854	-3.2142107186	-0.7727939844	-0.457996
C	-0.5351953687	-3.3632076054	 1.209757872	-0.30894
C	-1.3443939176	-3.3540204174	-0.0558204183	-0.014778
C	-2.6563666209	-2.6199744661	-0.116824727	-0.113258
O	-3.656082441	-3.4681284793	 0.4379627682	-0.421028
H	 1.0852413607	 1.8546011376	-0.2056299279	 0.147324
H	-0.6249725006	 1.9329099436	-0.643415474	 0.144144
H	-0.1479623564	 1.8869179108	 1.0588988198	 0.145762
H	 2.1093194451	-2.9094626301	-0.3289998602	 0.124567
H	 1.105870666	-4.307225669	-0.7562734278	 0.112842
H	 1.1512659823	-2.8871785009	-1.8174558025	 0.123729
H	-0.0173396916	-4.2736555142	 1.4916593581	 0.112217
H	-0.9004389232	-2.7730800159	 2.0425063754	 0.121046
H	-1.3296598307	-4.268711452	-0.6424293777	 0.091081
H	-2.5769364254	-1.6735694469	 0.437023311	 0.094088
H	-2.8909895818	-2.3664109128	-1.1632586232	 0.086069
H	-4.5033611158	-3.0214262373	 0.3504250559	 0.284049
