25
gdb 118410	1.96287	0.78367	0.58305	0.1468	99.29	-0.2391	0.063	0.3022	2033.8674	0.225942	-352.350308	-352.337984	-352.33704	-352.392213	42.318	
C	-0.0575993225	 1.6188118224	-0.1270843503	-0.384531
C	 0.0008448817	 0.0916858653	-0.0224330737	-0.174293
C	-1.3912518681	-0.5417794708	 0.0852335568	-0.166734
C	-1.4017900106	-2.0915369735	 0.087894276	-0.16514
C	-0.7536440988	-2.6928043681	 1.3582148262	-0.166436
C	-0.6434150735	-4.2185773415	 1.3280527109	-0.385185
C	-2.7693723646	-2.5854958312	-0.0887013287	 0.066039
C	-3.9052965903	-2.967113011	-0.2159879246	 0.073125
C	-5.2751022181	-3.4342408151	-0.3820839786	-0.498767
H	 0.9443947621	 2.052271106	-0.2049927805	 0.11059
H	-0.6273870215	 1.9338045039	-1.008313116	 0.11458
H	-0.542529303	 2.0572743341	 0.7522077227	 0.114697
H	 0.5155259407	-0.3159319535	-0.903075399	 0.093963
H	 0.6134935184	-0.1847914911	 0.8435250033	 0.100489
H	-1.8971009489	-0.1836485263	 0.9915047289	 0.098363
H	-2.0027122537	-0.1996314804	-0.7580408733	 0.100458
H	-0.8063169544	-2.4258558232	-0.776218344	 0.092136
H	 0.245358708	-2.2602675035	 1.4793555459	 0.095543
H	-1.3414888288	-2.378248418	 2.2293818937	 0.099407
H	-1.6289027835	-4.6811890711	 1.2228067965	 0.128735
H	-0.026078943	-4.5532245366	 0.4865306199	 0.110171
H	-0.1852220854	-4.5970645912	 2.2470927786	 0.108126
H	-5.3164910602	-4.3421311525	-0.994413051	 0.144989
H	-5.7382116266	-3.6667966293	 0.5834412534	 0.144725
H	-5.8983559153	-2.677727564	-0.8720873131	 0.144951
