15
gdb 69221	2.72904	1.63699	1.17219	2.9616	66.55	-0.2601	-0.0358	0.2243	1021.719	0.113631	-453.997365	-453.9897	-453.988756	-454.029473	28.956	
C	-0.0439847469	 1.5441045733	 0.0182827294	-0.493203
C	 0.1161436045	 0.0514155649	 0.0193505317	 0.184613
N	-0.7528202217	-0.8417545208	 0.8271368573	-0.352967
C	 0.7100494697	-0.7852631722	 1.09336829	-0.247925
C	 1.4177198555	-1.9428001186	 0.4294457247	 0.483741
O	 2.1036166364	-2.7950603765	 0.9294570575	-0.346818
N	 1.1395055885	-1.8138435868	-0.9335646735	-0.383797
C	 0.4572610715	-0.65140723	-1.2853185957	 0.442444
O	 0.2202323351	-0.2802057722	-2.4055189584	-0.349279
H	 0.8644567751	 2.034920433	-0.3432683899	 0.144139
H	-0.8645505332	 1.8355280712	-0.6434302817	 0.155768
H	-0.2562870819	 1.9136885857	 1.026079261	 0.121449
H	-1.2221025021	-0.2707257068	 1.5305975224	 0.24299
H	 1.0863349827	-0.4001540929	 2.0324331107	 0.124314
H	 1.4477647468	-2.4909622513	-1.6164062556	 0.274531
