16
gdb 5607	3.35871	1.83637	1.20521	5.2977	66.95	-0.2105	0.0368	0.2473	964.2542	0.13133	-379.946094	-379.9379	-379.936956	-379.979736	28.33	
C	-0.0255615117	 1.4352844321	 0.0646935546	-0.342698
N	-0.0094155422	-0.0115225202	 0.0414589374	-0.055908
C	-0.0279914149	-0.8080738167	-1.0712857007	-0.007654
N	-0.0058223691	-2.0836799157	-0.7721159064	-0.273687
C	 0.0292162271	-2.1284329943	 0.6034163054	-0.154073
C	 0.0275355741	-0.8628035277	 1.1304802362	 0.274221
C	 0.0576205434	-0.3735189199	 2.5411598548	-0.189929
O	 0.0751980082	-1.5072632639	 3.3868371274	-0.405872
H	 0.8713734312	 1.8350570669	 0.5497876845	 0.141586
H	-0.0551474018	 1.8043395751	-0.9621174368	 0.147082
H	-0.9065017367	 1.8144874989	 0.5936158534	 0.141762
H	-0.0575275234	-0.3838794737	-2.0648572007	 0.120686
H	 0.0531591676	-3.0597375285	 1.1454710103	 0.120045
H	 0.9457619346	 0.2630079595	 2.7074630507	 0.096088
H	-0.8222179477	 0.2637459277	 2.744721866	 0.095689
H	 0.1076091812	-1.2002072997	 4.296999644	 0.292661
