19
gdb 32445	3.16972	1.2168	0.89242	2.0965	80.73	-0.1799	0.0553	0.2352	1312.5662	0.15888	-419.228124	-419.218045	-419.217101	-419.263029	36.059	
C	-0.0714345864	 1.3251144751	 0.0510223933	-0.242096
O	-0.012537588	-0.0843736408	 0.0122485874	-0.272599
C	 0.6235704136	-0.6081766911	-1.0722309923	 0.30312
C	 1.2550100295	 0.0215268121	-2.1215845854	-0.234938
N	 1.7288561287	-0.979311871	-2.9501536846	-0.330333
C	 1.3893547927	-2.2171371822	-2.4613266985	 0.313181
C	 1.7414278595	-3.4926341577	-3.1471159869	-0.508479
C	 0.7052612919	-2.0187193213	-1.2790030623	 0.015801
N	 0.1598505074	-3.0386310028	-0.4509007304	-0.624668
H	 0.9351750102	 1.7656001374	 0.0882663853	 0.114386
H	-0.5968964733	 1.7265339372	-0.8270782166	 0.11533
H	-0.6174040251	 1.5976833095	 0.9562611305	 0.126795
H	 1.4096480424	 1.0614124378	-2.3500854245	 0.111347
H	 2.2249326645	-0.8211723024	-3.8082012937	 0.252497
H	 2.8042559236	-3.7520638499	-3.0506985456	 0.120054
H	 1.1593302764	-4.3025428946	-2.7000503657	 0.150763
H	 1.5101991956	-3.4582974404	-4.2188044066	 0.116741
H	 0.8488802526	-3.3879251718	 0.2095176107	 0.233861
H	-0.5944450359	-2.6510018432	 0.1069488558	 0.239236
