16
gdb 124667	3.68114	1.09163	0.96042	2.099	70.34	-0.2554	-0.0375	0.2179	1215.7408	0.125162	-434.104536	-434.09617	-434.095226	-434.139044	29.386	
C	-0.5290772887	 1.4536013999	-0.1996323015	-0.4209
C	 0.0660674588	 0.0529317535	-0.0542527839	-0.186904
C	-0.9901083973	-0.980185016	 0.3663204049	 0.147296
O	-2.1268105536	-0.699668995	 0.6365839559	-0.230627
C	 0.7726667286	-0.4605692804	-1.2738408621	 0.366636
N	 1.5784626935	-1.5100940887	-1.3151515956	-0.318674
C	 1.913198591	-1.5904365355	-2.6327789354	 0.024214
N	 1.3742842747	-0.6663035802	-3.409175674	-0.210131
N	 0.6390738934	 0.0453448198	-2.5198915483	-0.243196
H	 0.2433029832	 2.1852542842	-0.4512489454	 0.12567
H	-1.3076108985	 1.4753415141	-0.9687983359	 0.130135
H	-1.0059479814	 1.7553954594	 0.734282261	 0.148053
H	 0.8114418208	 0.0370222724	 0.7540830741	 0.138612
H	-0.6103937921	-2.0219646533	 0.4024997412	 0.115651
H	 2.5746363901	-2.3466533217	-3.0280694083	 0.13103
H	 0.1111768074	 0.8431865275	-2.8327670467	 0.283135
