16
gdb 79125	4.027	1.35253	1.15238	3.1356	68.94	-0.2245	-0.0178	0.2068	1033.9745	0.125251	-437.831006	-437.824102	-437.823158	-437.862193	27.609	
O	 0.0003691279	 1.4439288061	-0.1150875168	-0.432427
C	 0.0201164126	 0.0503434991	-0.012944479	 0.138116
C	-0.0491527756	-0.6169750988	 1.3835783646	-0.086749
C	-1.5181068202	-0.0941579053	 1.5705092363	-0.146659
C	-1.3566109994	-0.6139973831	 0.096416644	-0.059909
N	-0.6513279661	-1.8397448574	 0.6868742608	-0.142444
C	-1.5997148983	-2.4383110104	 1.6479009429	-0.289003
C	-2.236987064	-1.2011087319	 2.3006865429	 0.404166
O	-3.0761029664	-1.1385056437	 3.1595543711	-0.324285
H	 0.9077667922	 1.7629849055	-0.1125597558	 0.293468
H	 0.7094932177	-0.4315253251	-0.7150432392	 0.090775
H	 0.7206736496	-0.7229954941	 2.1509371512	 0.089957
H	-1.7483056162	 0.9410960062	 1.804225118	 0.104545
H	-2.1351454106	-0.7128541591	-0.6620461447	 0.095465
H	-2.3401587145	-3.058818336	 1.1334565558	 0.132844
H	-1.0757121286	-3.0628128019	 2.3780867178	 0.13214
