16
gdb 7064	6.60234	0.91678	0.85629	1.7616	73.	-0.2549	0.0312	0.2862	1304.0142	0.126286	-346.530785	-346.521389	-346.520445	-346.565072	33.611	
O	-0.177719652	 1.4164359685	 0.0113512788	-0.409653
C	-0.038011702	 0.0129095298	 0.0024849627	 0.136037
C	 0.6731808464	-0.4925351796	-1.2744317087	-0.389808
C	-0.0025690388	-0.0994139485	-2.5027163909	 0.306879
C	-0.5691733549	 0.2152591849	-3.514216782	-0.426558
C	 0.6973659833	-0.5061371748	 1.2601005739	-0.389803
C	 0.0452080302	-0.1263008113	 2.5052027516	 0.306879
C	-0.5019636755	 0.1774160946	 3.5306548365	-0.426558
H	 0.7016253149	 1.8115486085	 0.0050407409	 0.280559
H	-1.0625376204	-0.3720907926	 0.010195213	 0.115916
H	 1.7049702521	-0.1107411453	-1.2778431332	 0.119848
H	 0.7552253992	-1.5863917881	-1.230870239	 0.132227
H	-1.0700478877	 0.4996370543	-4.4060713459	 0.195981
H	 0.7784618691	-1.599454075	 1.2032399692	 0.132226
H	 1.7290677141	-0.1242859704	 1.2479258936	 0.119847
H	-0.9856687379	 0.4520617651	 4.4349500296	 0.195981
