19
gdb 36381	5.81175	0.65684	0.63295	0.3842	88.13	-0.2597	0.0474	0.3071	1751.0781	0.156263	-348.671121	-348.661238	-348.660294	-348.706698	36.342	
C	 0.0452125144	-1.0974824625	-0.7757155642	-0.432345
C	 0.0093633299	-0.0025700601	-0.2815528388	 0.29801
C	-0.0084679389	 1.326258265	 0.3240032484	-0.382931
C	 1.3646680155	 1.9877074414	 0.31200139	-0.011706
C	 1.8321056179	 2.7898137303	-0.8767653337	-0.276044
C	 1.5582471685	 3.4817119244	 0.4352203279	-0.0117
C	 0.3973560867	 4.4583593162	 0.5823501733	-0.382935
C	 0.7636752149	 5.8190184706	 0.1986636764	 0.298017
C	 1.0858797614	 6.9340662176	-0.1130540506	-0.432351
H	 0.0678391202	-2.0635028447	-1.21548918	 0.194035
H	-0.738200384	 1.9488149795	-0.207090761	 0.12738
H	-0.3737364879	 1.2462538914	 1.3568843291	 0.13156
H	 2.1224415563	 1.3849144885	 0.8042380125	 0.097874
H	 2.8567854489	 2.6849089799	-1.214588782	 0.116161
H	 1.1172777761	 2.9486138507	-1.6789959964	 0.116124
H	 2.4335073576	 3.7855662951	 1.0022023348	 0.097875
H	-0.4549474274	 4.1348579508	-0.0268075242	 0.127379
H	 0.0427330431	 4.460650338	 1.622015582	 0.131562
H	 1.3615257868	 7.920703148	-0.3917559936	 0.194035
