15
gdb 27952	2.94375	1.37507	0.9427	4.6413	76.5	-0.2563	-0.0777	0.1786	1183.062	0.112955	-416.876132	-416.868114	-416.86717	-416.909921	28.224	
C	-0.3930753138	 1.4200295155	-0.0864702973	-0.472075
C	-0.0732073226	-0.0453792045	 0.004652425	 0.319142
N	-0.1431152003	-0.753406662	-1.127979371	-0.300638
C	 0.1408034266	-2.0529940289	-1.0460377225	 0.229491
C	 0.0725200252	-2.8824379956	-2.3015179679	 0.118235
O	-0.2221796473	-2.4580396479	-3.3867641734	-0.236837
N	 0.4908284418	-2.7360511055	 0.0496051435	-0.276269
C	 0.5584511239	-2.0233639987	 1.1753384574	 0.010109
C	 0.2838266813	-0.6630328225	 1.2078497477	-0.164357
H	-0.3111530149	 1.9164340295	 0.8828329405	 0.124566
H	 0.2843470193	 1.9064713261	-0.7949821684	 0.15599
H	-1.4075558716	 1.5571785806	-0.4731505034	 0.155995
H	 0.3275770774	-3.94626767	-2.11598902	 0.09549
H	 0.8414839298	-2.5605372008	 2.0777156685	 0.12588
H	 0.3441576353	-0.1008651853	 2.1324864312	 0.115276
