19
gdb 50343	3.24288	1.30969	1.23397	3.7793	74.75	-0.2384	-0.0176	0.2208	1080.4981	0.161434	-423.047123	-423.039656	-423.038712	-423.079662	29.057	
O	 0.1288890821	-0.162828997	 0.1785654697	-0.260353
C	 0.0759148301	 1.0395437396	 0.1129112478	 0.153489
C	 1.2832466114	 1.9447799154	 0.0591313125	-0.070564
C	 1.2552159582	 2.9406396215	-1.1557666319	-0.255299
C	 1.3695953218	 4.3283419083	-0.4791330465	-0.037109
C	 0.0604380356	 4.5821907626	 0.281802169	-0.074304
O	 0.0981025498	 3.6229620406	 1.3600455266	-0.281568
C	 1.3557266814	 2.9413082535	 1.2511993122	 0.08718
C	 2.3005935001	 4.0221491213	 0.7126861023	-0.233471
H	-0.8998703881	 1.5713961738	 0.0827372992	 0.085564
H	 2.1705936074	 1.3063067845	 0.0436590993	 0.09141
H	 2.0947397398	 2.7475622517	-1.8279885534	 0.112084
H	 0.3370467188	 2.8512932392	-1.7464080876	 0.106694
H	 1.6623558035	 5.1395591091	-1.1463765257	 0.074055
H	 0.0039985904	 5.5959974525	 0.6987728727	 0.10129
H	-0.8316457346	 4.409055672	-0.3322990866	 0.100145
H	 1.5843516373	 2.4882551847	 2.2158499905	 0.08783
H	 3.2816219467	 3.6414397226	 0.4182843717	 0.104513
H	 2.4191179184	 4.8565092542	 1.4087098681	 0.108414
