19
gdb 114770	3.83422	1.07052	0.90371	2.0165	76.61	-0.2422	0.0047	0.2469	1284.7019	0.160089	-423.008916	-423.000616	-422.999672	-423.04213	31.655	
O	 0.100860181	 1.3703764096	 0.1542561279	-0.422057
C	 0.0443837877	-0.0466735634	 0.0945845786	-0.089984
C	-1.4226550627	-0.4605208434	-0.0454432777	-0.042388
C	-1.5242097084	-1.9751845368	-0.3254218201	-0.252727
C	-2.9099910495	-2.555220722	-0.0712482578	 0.021798
O	-3.1123513136	-3.1610561691	 1.2105030913	-0.258371
C	-3.7835808458	-1.9153203957	 0.920985418	 0.016816
C	-3.2926877334	-0.6944401183	 1.6075638804	-0.105952
C	-2.2255608974	-0.032298858	 1.1606917481	-0.03458
H	 1.0062179655	 1.630306098	 0.34659574	 0.289268
H	 0.6151085908	-0.4317720613	-0.7657308491	 0.087277
H	 0.4664997303	-0.5035875114	 1.0040824023	 0.092672
H	-1.8084195455	 0.0931704991	-0.9150948777	 0.098847
H	-1.2175305043	-2.1783806816	-1.3569659012	 0.100201
H	-0.824990289	-2.5116305176	 0.3273256286	 0.11777
H	-3.3664217547	-3.1058566363	-0.8932338855	 0.090406
H	-4.8641346312	-2.0205868526	 0.8254321392	 0.089463
H	-3.8431991574	-0.3437111124	 2.4759663494	 0.092125
H	-1.8945894324	 0.8797508032	 1.6486064452	 0.109417
