19
gdb 109623	2.60731	1.10823	0.99349	4.6212	78.12	-0.223	0.011	0.234	1296.8009	0.157316	-419.188126	-419.177891	-419.176947	-419.22316	36.709	
C	 0.2902935356	 1.1100911827	 0.5069639141	-0.315296
N	-0.3881144221	 0.2748779848	-0.4758389072	-0.289296
C	 0.4734413494	-0.3692691687	-1.4109579963	-0.023296
C	 1.2941761095	-1.6255368204	-1.1322200861	-0.091517
C	 1.3099932889	-2.3154100151	 0.2127640142	-0.424508
C	 0.0243126123	-1.6930988025	-1.9919057255	 0.182041
O	-1.1416442972	-2.2137470712	-1.4201027227	-0.45011
C	 0.1563527836	-1.9313598435	-3.4121394308	 0.25834
N	 0.2776009036	-2.1473285339	-4.5423412579	-0.345585
H	 1.027441154	 0.5780264493	 1.1305778042	 0.101306
H	 0.8168223113	 1.9224646362	-0.006654969	 0.126312
H	-0.4549997048	 1.5644137086	 1.1655865479	 0.125132
H	-1.0225351523	-0.3880051638	-0.0500738067	 0.239958
H	 0.921302062	 0.3205818993	-2.1226942074	 0.118025
H	 2.2176942225	-1.7029275569	-1.6995179612	 0.107218
H	 0.3944042764	-2.1263471114	 0.7771106845	 0.125614
H	 1.4195103206	-3.4004301323	 0.1044298869	 0.12199
H	 2.1542774494	-1.95945502	 0.8107495511	 0.132541
H	-1.0674422427	-3.174701121	-1.3928445721	 0.301132
