13
gdb 46464	4.03434	1.20603	1.09062	1.461	63.91	-0.2774	-0.035	0.2424	1056.931	0.090699	-452.761891	-452.75479	-452.753846	-452.793717	26.215	
O	 0.0023237152	 0.0185757466	 0.2620829164	-0.328694
C	 0.0180416394	 1.1873213676	 0.0247881571	 0.519506
O	-1.1111525251	 1.9241265146	-0.1819845952	-0.230261
C	-0.8322502896	 3.2471077817	-0.6575112799	-0.123741
C	 0.6806463884	 3.4154012147	-0.5510340471	 0.187691
N	 1.139198921	 3.2234931032	 0.8393137131	-0.344133
C	 1.2149061078	 2.094731446	-0.1117848105	-0.276208
C	 1.3829797492	 4.2893296194	-1.4435290377	 0.203769
N	 1.9389181526	 5.0133797598	-2.1537000712	-0.319325
H	-1.1700751316	 3.3306634503	-1.6946320441	 0.144844
H	-1.3680663026	 3.9630543739	-0.030395301	 0.151296
H	 2.070893941	 3.6216544168	 0.9503256954	 0.264966
H	 2.1676834042	 1.6869676253	-0.4225516453	 0.150289
