13
gdb 5475	3.50071	1.92529	1.25176	2.517	64.11	-0.2605	-0.0663	0.1942	898.9114	0.095641	-398.648819	-398.641751	-398.640807	-398.680482	24.69	
C	-0.0071803199	 1.5199284445	 0.1223127235	-0.494086
C	 0.0172158028	 0.0353429044	-0.00100799	 0.206403
C	-0.0044210032	-0.7616293677	-1.1178128575	 0.176206
O	 0.0347508432	-2.0703575759	-0.6922486325	-0.154389
C	 0.0771850296	-1.9824543026	 0.6420481675	 0.086649
N	 0.069868955	-0.7762030388	 1.1209364228	-0.303958
C	-0.0569544352	-0.4797581378	-2.541338774	 0.065888
O	-0.0700892885	-1.3125696908	-3.419432721	-0.275425
H	 0.8847989951	 1.8700559433	 0.6517445266	 0.154607
H	-0.0488127672	 2.0106439944	-0.8518146364	 0.136157
H	-0.8749967557	 1.8362962781	 0.7099536903	 0.154607
H	 0.1131632459	-2.9111823663	 1.1912315656	 0.16504
H	-0.0852163919	 0.6078612551	-2.765611965	 0.082302
