14
gdb 652	7.23422	3.33967	3.08029	1.993	53.28	-0.2338	0.0894	0.3232	501.501	0.120022	-270.359564	-270.354228	-270.353283	-270.387995	20.486	
C	-0.161475191	 1.612575865	-0.001393204	-0.441044
C	 0.0235953246	 0.1046772588	 0.0323732465	 0.059914
C	 1.1836259459	-0.6387287193	-0.6941994306	 0.041717
C	 2.1990280411	-0.1370560652	 0.3604151644	-0.226151
C	 0.917818515	-0.6317322281	 1.0736602597	 0.041726
O	 0.9180239434	-1.8098545888	 0.1744254497	-0.309946
H	 0.7705941436	 2.1663441903	 0.135975873	 0.11947
H	-0.5936616609	 1.9219387446	-0.9592160517	 0.123739
H	-0.8549487649	 1.9289507837	 0.7853231328	 0.12374
H	-0.9235566818	-0.4235330131	-0.1079407742	 0.082795
H	 1.3270909317	-0.8279184747	-1.7590364285	 0.089923
H	 3.0693770006	-0.7802451581	 0.4938181095	 0.108392
H	 2.4520262407	 0.9240362723	 0.3942633831	 0.095804
H	 0.741592012	-0.8125040974	 2.1350365401	 0.089921
