13
gdb 61357	3.68917	0.82014	0.7496	0.7176	64.62	-0.3156	-0.1075	0.2081	1429.1903	0.086603	-452.761109	-452.751835	-452.75089	-452.796604	31.121	
O	 0.3531401207	 1.5389940236	-0.0495159709	-0.406825
C	 0.0951438799	 0.1522107333	-0.0033147434	-0.01218
C	 0.5898246407	-0.5729398533	-1.2680600309	-0.335425
C	-0.2477689707	-0.1977289147	-2.4775676282	 0.303581
O	-1.3574147934	 0.2630285809	-2.4238428839	-0.253283
C	 0.3901623899	-0.4786853188	-3.7790722144	 0.235509
N	 0.9095037359	-0.7057651122	-4.7868568904	-0.284552
C	 0.673817459	-0.4724577034	 1.2010315276	 0.252709
N	 1.1616421819	-0.9457859972	 2.1352010421	-0.302418
H	 1.2969417387	 1.6852063907	 0.0854132833	 0.30156
H	-0.994258475	 0.0590265734	 0.042661886	 0.170748
H	 1.6465379156	-0.3550483046	-1.4573601802	 0.152937
H	 0.5193246066	-1.6627224376	-1.1475197567	 0.177639
