19
gdb 116061	2.98701	1.27477	0.98424	3.4976	73.95	-0.2516	0.0111	0.2627	1219.5265	0.159385	-460.147508	-460.138828	-460.137884	-460.18127	32.22	
O	 0.3788732539	 1.1039124956	 0.07216367	-0.418234
C	-0.0068626091	-0.2417983063	-0.0764580164	-0.063621
C	-1.5257285861	-0.4153120333	-0.0511445452	 0.177504
O	-1.9625662732	 0.2231422063	 1.1286903042	-0.258268
C	-3.2054834756	-0.1847915206	 1.6622639581	-0.133493
C	-4.4021546033	-0.1413576255	 0.7529195575	-0.065876
C	-4.4613763997	-0.1685157922	-0.5770359107	-0.063737
C	-3.3495681477	-0.2461769857	-1.5869662222	-0.133753
O	-2.0675421376	 0.1908484105	-1.1884659292	-0.232247
H	-0.1582081069	 1.4586945753	 0.7906216166	 0.292906
H	 0.3756642624	-0.5908412427	-1.0398617316	 0.112369
H	 0.4150058052	-0.8810636847	 0.7163680932	 0.0839
H	-1.7876827675	-1.4892973874	-0.0213412754	 0.055758
H	-3.1193797809	-1.2098652224	 2.0691491724	 0.10658
H	-3.3783685138	 0.4712324682	 2.5227223164	 0.122257
H	-5.3440509837	-0.1446337031	 1.2998955792	 0.095119
H	-5.4491237085	-0.1916779098	-1.0356313913	 0.09532
H	-3.2954305357	-1.2885073778	-1.9557853219	 0.103486
H	-3.6052293221	 0.3710880757	-2.4551612436	 0.124029
