17
gdb 56371	2.00006	1.47426	1.2495	4.4569	78.06	-0.2679	0.004	0.2719	1118.8295	0.134341	-380.817653	-380.808264	-380.80732	-380.851615	34.911	
N	 0.1300528847	 1.4083166092	-0.1694049726	-0.514907
C	-0.0111560288	-0.0536236081	-0.0300769823	-0.121463
C	 0.6175086334	-0.5821196137	 1.1958294626	 0.323172
C	 1.1503671437	-0.959144534	 2.2049927913	-0.462853
C	-1.4637729929	-0.3535525659	 0.0306376287	 0.323868
N	-2.592583505	-0.5937382346	 0.0698668698	-0.337619
C	 0.5590811709	-0.6978477551	-1.3011626044	 0.03583
C	 2.0235392381	-1.0409960214	-1.409196102	-0.297658
C	 0.9872130015	-2.1358836547	-1.348023057	-0.274258
H	-0.1989513605	 1.8663813113	 0.6763197419	 0.246173
H	 1.1212171773	 1.6178168533	-0.254750876	 0.243275
H	 1.6105380976	-1.2968611459	 3.1014001233	 0.212223
H	 0.0812045851	-0.2872793945	-2.1837592015	 0.119145
H	 2.5163205287	-0.8370120812	-2.3528450084	 0.12162
H	 2.6462914653	-0.9030552241	-0.5324180352	 0.126947
H	 0.9296383406	-2.7097733164	-0.4301548859	 0.133289
H	 0.7620972102	-2.6965055142	-2.2475724224	 0.123215
