17
gdb 92866	2.37593	1.82231	1.04699	5.1239	79.05	-0.2238	-0.0722	0.1515	1105.3091	0.137285	-418.043088	-418.034732	-418.033788	-418.076495	30.441	
C	-0.062201693	 1.3288457369	-0.559604887	-0.33138
N	 0.0130422748	 0.038228286	 0.1034604233	-0.117224
C	-1.2445913819	-0.631296382	 0.3334597742	-0.200907
C	-1.143507726	-1.9490836487	 1.0194845587	-0.075217
C	 0.0175722873	-2.5485940295	 1.2960969676	-0.140702
C	 1.2870764787	-1.9390526014	 0.8906747215	 0.322974
O	 2.3612054724	-2.4759956308	 1.0755144518	-0.329601
C	 1.2386350096	-0.5865370414	 0.1854149239	 0.255637
N	 2.3010692174	-0.0412587705	-0.2710784026	-0.532251
H	 0.8609636785	 1.876116625	-0.3712012019	 0.170076
H	-0.1793032206	 1.2273113324	-1.6479141773	 0.124471
H	-0.9165836845	 1.888262826	-0.1656671179	 0.11531
H	-1.898662865	 0.0248488559	 0.9303932092	 0.131028
H	-1.7907584725	-0.7814321472	-0.6175475659	 0.128911
H	-2.090266408	-2.4125958921	 1.2832822441	 0.124002
H	 0.0756506253	-3.5099146891	 1.7952892271	 0.120281
H	 3.0853509075	-0.6520243297	-0.0352036389	 0.234593
