12
gdb 4658	6.99243	1.27774	1.08033	5.872	63.73	-0.2144	-0.005	0.2094	985.2757	0.085579	-377.574025	-377.567142	-377.566197	-377.604991	25.526	
O	 0.1016521698	 1.3286230202	 0.1907060685	-0.429446
C	 0.0723140454	-0.0088148307	-0.0042628421	 0.420507
C	 0.0922615415	-0.8064503744	-1.1175321489	-0.419676
C	 0.0378365268	-2.1615653547	-0.636428149	 0.187576
C	-0.0128579503	-2.1217559839	 0.7413020994	-0.173863
N	 0.0091592121	-0.8013644164	 1.1107060408	-0.290726
C	 0.0358937245	-3.3337632797	-1.4299041131	 0.198166
N	 0.0348363198	-4.2861809198	-2.090180895	-0.352579
H	 0.1414050644	 1.7660822157	-0.6654964728	 0.315651
H	 0.1393002176	-0.4921464489	-2.147056684	 0.116825
H	-0.0615272379	-2.9155608579	 1.4664254762	 0.14845
H	-0.0163639536	-0.4463145594	 2.05146014	 0.279115
