23
gdb 120027	2.13871	1.0937	0.80645	0.5944	81.7	-0.2526	0.0664	0.319	1494.7249	0.204764	-425.41065	-425.400314	-425.399369	-425.44598	38.534	
C	-0.8383173669	 1.2700155178	-0.0257321986	-0.411357
C	 0.0319002469	 0.0233176288	-0.0968088082	 0.028622
C	 1.4416021754	 0.129566661	-0.7411660722	-0.280274
C	 1.9529336454	-0.87618989	 0.3162789853	 0.153519
O	 3.2558197543	-0.7407914538	 0.834439376	-0.42792
C	 0.6976479707	-0.5577313766	 1.2000696962	-0.063189
C	 0.9380375998	 0.439817594	 2.3337623027	-0.191071
C	 1.5729607339	-0.2067275001	 3.5613838175	-0.08613
O	 1.7461659702	 0.80769734	 4.5425184098	-0.425863
H	-0.3138176416	 2.104959505	 0.4497921889	 0.116811
H	-1.1300524779	 1.5932859042	-1.0311840655	 0.113178
H	-1.7577706708	 1.0870815804	 0.5415257792	 0.115521
H	-0.5309872338	-0.7779335245	-0.588201694	 0.073135
H	 1.5590755932	-0.1256576685	-1.7971669944	 0.098578
H	 1.8748120742	 1.1240418412	-0.5760424764	 0.089431
H	 1.8986572755	-1.9020918614	-0.059138706	 0.089456
H	 3.3955557468	 0.1861796577	 1.0537958252	 0.281764
H	 0.1955624435	-1.4416444148	 1.6090264568	 0.059934
H	 1.5776483503	 1.2725737196	 2.0116221869	 0.086106
H	-0.010575806	 0.8954778528	 2.6404341986	 0.109027
H	 0.9129124738	-1.0090692748	 3.9310972683	 0.081741
H	 2.5302066037	-0.6697222761	 3.2845782658	 0.104287
H	 2.1794688795	 0.4142036781	 5.3052776582	 0.284694
