20
gdb 63873	2.5466	1.40583	1.21798	2.6869	80.98	-0.2384	-0.034	0.2044	1131.0924	0.16962	-403.126175	-403.117204	-403.11626	-403.159228	34.51	
C	-0.0653112959	 1.5845285419	-0.1099741403	-0.447647
C	-0.029269736	 0.0605785132	-0.0343784725	 0.25462
C	-1.3932375607	-0.5556297906	-0.3460700744	-0.452718
C	 1.1263865766	-0.6429128695	-0.8519619374	-0.271057
C	 1.6853199596	-1.2107351921	 0.4518841837	-0.072952
N	 2.0161923569	-0.091976588	 1.317990707	-0.365193
C	 0.5979383399	-0.5195071614	 1.2591889962	 0.223037
C	-0.0152260635	-1.0967569478	 2.4603283331	 0.041532
O	 0.6268634419	-1.4596594673	 3.4252298077	-0.291177
H	 0.9039402821	 2.0063702536	 0.1646743428	 0.141025
H	-0.3130937406	 1.9149015704	-1.124998672	 0.111385
H	-0.8239075395	 1.9937124471	 0.5672924715	 0.110633
H	-1.6889263001	-0.3159960072	-1.3730284755	 0.120934
H	-1.3771823245	-1.6468002581	-0.2486492662	 0.113651
H	-2.1715181326	-0.1679548875	 0.3205563373	 0.118594
H	 0.7479975922	-1.4072242756	-1.5339690159	 0.106233
H	 1.8117910102	 0.0199625077	-1.3858451615	 0.112813
H	 2.0918705214	-2.1991037769	 0.6318988928	 0.114473
H	 2.3700971704	-0.4696882845	 2.1999106107	 0.251497
H	-1.1185933478	-1.2068556173	 2.4331343129	 0.080315
