21
gdb 85872	2.00552	1.66332	1.26993	1.5669	78.3	-0.2477	0.0808	0.3284	1139.0642	0.17913	-424.203723	-424.193932	-424.192988	-424.237945	36.722	
C	 0.3173318841	 1.5900739802	-0.1449720299	-0.412308
C	 0.0566521441	 0.1139060509	 0.0800987572	 0.083573
O	 0.7973513776	-0.7368680637	-0.831811373	-0.358651
C	 1.3629111965	-1.5487617602	 0.246204194	 0.331241
C	 0.7721091327	-2.9531544461	 0.2476251407	-0.419305
C	 2.8830836516	-1.5503273418	 0.1768155306	-0.430066
C	 0.7143517757	-0.5951135107	 1.2603589103	 0.316175
C	 1.1708000846	-0.1026167037	 2.5571609584	-0.264456
O	 0.0489067637	-0.9960515282	 2.4377435755	-0.268237
H	 1.3816688296	 1.8210776462	-0.0431238071	 0.11888
H	-0.002727076	 1.8799912154	-1.1505489803	 0.131096
H	-0.2455658073	 2.1929143143	 0.5760177051	 0.119536
H	-1.020681663	-0.0993943217	 0.0260086451	 0.086419
H	 1.0739456358	-3.4850968047	-0.6599165891	 0.120773
H	 1.1218900677	-3.5191766762	 1.1165648865	 0.121077
H	-0.3195023564	-2.9176733038	 0.2829956259	 0.12565
H	 3.2752313647	-0.5299343299	 0.1863889143	 0.117054
H	 3.311590648	-2.0995654235	 1.0218841176	 0.11672
H	 3.2153206332	-2.0358868368	-0.7464338511	 0.127006
H	 2.0583349342	-0.5302260346	 3.0214091424	 0.118827
H	 0.926271899	 0.9110818085	 2.8715568671	 0.118994
