19
gdb 114669	3.421	1.22613	1.11373	0.7151	71.56	-0.236	0.0692	0.3052	1160.4316	0.159493	-460.125897	-460.117665	-460.116721	-460.158594	31.734	
C	 0.1202046094	 1.2989776906	 0.0638358879	-0.246702
O	-0.0572018567	-0.1010555839	-0.0623055385	-0.241918
C	 0.6115149424	-0.6516889166	-1.1497799659	 0.241872
O	 2.0507771252	-0.584572941	-1.0009320266	-0.304557
C	 2.4095346689	-1.977306377	-0.9780654727	 0.052262
C	 1.5936738477	-2.5691220323	-2.1520239726	-0.246417
C	 0.4141870062	-2.1659682695	-1.2100049965	-0.128435
C	 1.3361314334	-2.5860964634	-0.0230473148	 0.132889
O	 1.356288255	-3.9859747964	 0.1328097756	-0.443303
H	 1.1697997199	 1.552584553	 0.2526137665	 0.129859
H	-0.2136992052	 1.8265272181	-0.8424989861	 0.10619
H	-0.4906718436	 1.62356596	 0.908687868	 0.126707
H	 0.3365853469	-0.1142883455	-2.0708475086	 0.068555
H	 3.4860644751	-2.0855257101	-0.847656435	 0.074906
H	 1.6828946399	-2.0651403742	-3.1169982549	 0.097085
H	 1.6903422957	-3.648520491	-2.2485746408	 0.12314
H	-0.6031470169	-2.5360682286	-1.3184877223	 0.085686
H	 1.1861089412	-2.059448047	 0.9243609172	 0.085314
H	 2.0444775456	-4.2020024251	 0.7697745701	 0.286869
