16
gdb 28154	5.05551	1.22687	0.99948	2.3183	77.72	-0.2028	-0.0118	0.191	1147.676	0.125983	-400.785241	-400.778012	-400.777068	-400.816844	27.71	
C	-0.0201971911	 1.4455974007	 0.059838134	-0.485301
C	-0.0011082933	-0.047297255	-0.0193158288	 0.294173
C	-0.0412580267	-0.8154703043	-1.1323680812	-0.296221
C	 0.0000947995	-2.2181633477	-0.7200706512	 0.258266
C	 0.0642379902	-2.2713251257	 0.6291502789	 0.287767
C	 0.0720119158	-0.9189801773	 1.2494408593	-0.460166
O	 0.1026585666	-3.5690371617	 1.0207374223	-0.195754
C	 0.0574450404	-4.2455123061	-0.1736794601	 0.026531
N	-0.0042590972	-3.5051690031	-1.237820592	-0.344715
H	 0.8802034576	 1.8384331135	 0.5495899338	 0.1265
H	-0.0788358606	 1.8882089127	-0.938142182	 0.129842
H	-0.876669376	 1.8111459773	 0.6408993804	 0.126376
H	-0.0947983131	-0.4498580321	-2.1491395629	 0.106644
H	 0.977838746	-0.7030621036	 1.8299407258	 0.139769
H	-0.7821559861	-0.7307470083	 1.9120797804	 0.139784
H	 0.0774636379	-5.3215210394	-0.1059741766	 0.146506
