22
gdb 88165	2.61742	1.30204	1.13917	2.2187	81.65	-0.2417	0.0713	0.313	1214.0604	0.194581	-404.333299	-404.324069	-404.323124	-404.367279	35.016	
C	 0.0655751998	 1.4815634429	-0.2818810622	-0.397965
C	 0.1584739714	-0.0123988943	-0.08161458	-0.059918
N	 1.5107598033	-0.5850516064	 0.0797475794	-0.385168
C	 0.5549740336	-0.6418832247	 1.201613251	 0.298497
C	 0.9474687052	 0.130679886	 2.4683962464	-0.126439
O	 0.6876125202	-0.7412312902	 3.5658707347	-0.258481
C	 0.6885678679	-2.0708634208	 3.0635491223	-0.088137
C	-0.0216471619	-1.971727946	 1.7032086694	-0.0881
C	-1.5467302479	-1.9433126608	 1.865798377	-0.39213
H	 0.8162620995	 2.0037299011	 0.3167572029	 0.128786
H	 0.2364703596	 1.7413119035	-1.3320161374	 0.12065
H	-0.9253592171	 1.8538442006	 0.0004483534	 0.116944
H	-0.5406909216	-0.5875201659	-0.6895585641	 0.078745
H	 1.567664733	-1.4888816178	-0.3846017336	 0.223714
H	 2.0111696452	 0.4010044439	 2.4166273401	 0.106116
H	 0.3622766891	 1.0430518307	 2.6242251457	 0.105531
H	 1.7178260354	-2.4466367833	 2.9412151022	 0.088522
H	 0.1703063119	-2.7028119793	 3.7903045867	 0.104454
H	 0.2666838641	-2.7939831173	 1.0385378342	 0.06655
H	-1.8417111176	-1.1671317316	 2.5784721667	 0.132974
H	-2.0490502572	-1.741104979	 0.9152692634	 0.112642
H	-1.9150311859	-2.9033296014	 2.2428053617	 0.112212
