18
gdb 11591	3.72742	1.23816	1.19886	1.7756	68.24	-0.2329	-0.0178	0.2151	1097.2588	0.150937	-384.928951	-384.919952	-384.919008	-384.964061	31.545	
C	-0.3654577029	-0.1227444774	 0.4865297022	-0.4733
C	 0.7350686826	-0.2236448966	-0.5511689731	 0.360957
O	 1.8957010335	 0.0024265203	-0.3020153313	-0.289716
C	 0.2952978526	-0.5480031267	-1.9872208385	-0.167348
O	-0.6863767803	-1.5658308411	-2.0812421381	-0.245739
C	-0.1489151174	-2.8561351911	-2.145454713	 0.144289
C	 0.1985987392	-3.6138399202	-0.8885175546	-0.291056
C	-1.0324034496	-3.972570098	-1.700322759	-0.289627
H	-0.9104567774	 0.816661456	 0.3272369523	 0.143498
H	-1.0931899921	-0.928732645	 0.3748087789	 0.146074
H	 0.0649020137	-0.1130114055	 1.4885472248	 0.140321
H	-0.1601756406	 0.3598161823	-2.4058113782	 0.12299
H	 1.1922930759	-0.7829708969	-2.5727267414	 0.117002
H	 0.4854225541	-3.0171036039	-3.0174074029	 0.093185
H	 1.0549465008	-4.2786909783	-0.9114987378	 0.120079
H	 0.0358029544	-3.1237017759	 0.0639323438	 0.12298
H	-1.9934039695	-3.6886226412	-1.2868462604	 0.126403
H	-1.0383188071	-4.8914218507	-2.2752081437	 0.119008
