18
gdb 121666	2.71463	0.96652	0.76943	2.2665	70.3	-0.2456	0.0187	0.2643	1474.0078	0.14672	-476.222223	-476.212655	-476.21171	-476.258093	33.464	
O	 0.5197334869	 0.2243413103	-0.9090849098	-0.421644
C	-0.2492534136	-0.3356934178	 0.1488759872	-0.078222
C	-1.6283513194	 0.3040262824	 0.0800999055	-0.147838
N	-2.2542040479	 0.0498424842	-1.2014614601	-0.320887
C	-3.4616486716	-0.5541219881	-1.327388217	 0.379542
O	-4.1814934873	-0.8946757433	-0.4037463767	-0.387844
C	-3.8948544616	-0.7658960765	-2.759799197	-0.016981
C	-4.0651068931	 0.3776352569	-3.6721514828	-0.16801
O	-2.9406433964	-0.4939050531	-3.7910600654	-0.236077
H	 1.3364527937	-0.275314113	-0.9937227045	 0.293799
H	-0.3433063807	-1.4259242507	 0.039359173	 0.101513
H	 0.2029416813	-0.1265372959	 1.13038426	 0.094617
H	-2.2850895795	-0.1031264726	 0.8520849399	 0.144656
H	-1.5273734791	 1.3843769407	 0.2460358083	 0.115645
H	-1.6981326234	 0.1708000424	-2.035872884	 0.267107
H	-4.5115160165	-1.6500134038	-2.9033176927	 0.122406
H	-4.7932918253	 0.312993202	-4.4783240367	 0.12983
H	-3.8428593067	 1.380514286	-3.312886767	 0.128389
