22
gdb 109706	2.92309	1.06418	0.95627	2.1194	83.	-0.2266	0.0698	0.2963	1363.6587	0.192695	-404.294089	-404.284274	-404.283329	-404.328915	35.888	
C	-0.3189078812	 1.1251739684	 0.2531872632	-0.379028
C	-0.4797186131	-0.3398354233	-0.1725474762	-0.207181
C	 0.4509373476	-0.7329993211	-1.3035332578	-0.069915
N	 1.8486685946	-1.1608699848	-1.1124965679	-0.141145
C	 2.4366152556	-1.2413902055	 0.2167407386	-0.324891
C	 0.8688828374	-2.142275998	-1.5127012434	 0.264528
C	 0.3917394042	-3.404521037	-0.7860725036	-0.146159
O	 0.4328159233	-4.1459903887	-2.0224661042	-0.277286
C	 0.9406669881	-3.0116739202	-2.7635854735	-0.14187
H	 0.6860916221	 1.3204233249	 0.6400588376	 0.123077
H	-0.4827468438	 1.7993689365	-0.5942796427	 0.120216
H	-1.0375226251	 1.3894810824	 1.0348708189	 0.114956
H	-0.3390092328	-0.997459519	 0.6917090244	 0.100381
H	-1.5099613554	-0.5089797787	-0.5124334018	 0.10635
H	 0.33339274	-0.109671882	-2.1920948944	 0.08622
H	 1.7550618187	-1.5791832852	 1.0113760456	 0.104939
H	 3.2804327865	-1.9382346018	 0.1838358791	 0.127386
H	 2.8266154163	-0.2580448627	 0.4967876308	 0.126548
H	 1.0831350293	-3.8136873817	-0.03650361	 0.101132
H	-0.6185109348	-3.3733357044	-0.3580028152	 0.102872
H	 0.279924854	-2.734062415	-3.5945130442	 0.102195
H	 1.9557466586	-3.181835083	-3.1447158835	 0.106672
