21
gdb 100836	2.20125	0.99333	0.79537	3.2053	76.7	-0.2753	0.0014	0.2766	1526.72	0.179227	-461.395034	-461.38419	-461.383246	-461.431883	38.177	
C	 0.0244729808	 1.5184747125	-0.0142506684	-0.382953
C	-0.0239723618	-0.0063272634	 0.106764284	-0.202322
C	-1.439279404	-0.5688497886	-0.081068498	 0.144419
O	-1.9970328791	-0.2043626312	-1.3350934631	-0.436032
C	-1.5016235585	-2.0954599614	 0.1028889894	 0.084726
C	-2.9215551586	-2.6444239788	 0.0921009179	-0.398038
O	-0.769295145	-2.6613579653	-1.0125800869	-0.208724
C	 0.0867298764	-3.6738134841	-0.783523893	 0.172275
O	 0.708709379	-4.2043596191	-1.6536424223	-0.274456
H	 1.0501598758	 1.8882933879	 0.0724391931	 0.113098
H	-0.3787647659	 1.8385856549	-0.9781041498	 0.133722
H	-0.5715293171	 1.9968404184	 0.7710166028	 0.11312
H	 0.6381026869	-0.4637397664	-0.6390398767	 0.108705
H	 0.3518160484	-0.3189917254	 1.0901949773	 0.091266
H	-2.1023746407	-0.1219220568	 0.6709293635	 0.088091
H	-1.5018169299	-0.687309891	-2.0086547441	 0.293103
H	-0.9891028032	-2.3697415779	 1.0347066344	 0.086625
H	-3.4783488214	-2.2630552866	 0.9536547713	 0.124046
H	-3.4350669914	-2.3297210916	-0.8187648217	 0.148291
H	-2.9177450215	-3.7368647869	 0.1413553328	 0.121403
H	 0.1488044608	-3.9478261594	 0.2877955177	 0.079635
