18
gdb 62232	4.18056	0.59708	0.55543	4.5851	74.76	-0.2898	-0.0032	0.2866	1909.8878	0.145619	-439.123543	-439.113433	-439.112489	-439.160507	34.175	
C	 0.0003137693	 1.5717182849	-0.1068440992	-0.394512
C	-0.015546396	 0.037059426	 0.0499203898	-0.148966
C	 0.9394255837	-0.4867605024	 1.1481861249	-0.192391
C	 2.4091770223	-0.2049419343	 0.8432116136	-0.102211
O	 3.234070783	-0.903778353	 1.7792339095	-0.173351
C	 3.9212775305	-0.182071414	 2.6882576694	 0.171908
O	 4.6151870608	-0.6827308424	 3.5183054837	-0.264729
C	-1.3800038357	-0.4251087722	 0.3271100311	 0.269383
N	-2.4557735325	-0.7802887401	 0.55505334	-0.313234
H	 0.987939901	 1.9156900208	-0.4241331496	 0.128711
H	-0.7255331918	 1.8908547836	-0.8580926718	 0.147491
H	-0.2514474842	 2.05992177	 0.8390316466	 0.141999
H	 0.2802156599	-0.4138253055	-0.9070824331	 0.132596
H	 0.6696126573	-0.0406757859	 2.1120123453	 0.127573
H	 0.8141257261	-1.5684926911	 1.2521802714	 0.144688
H	 2.6797782005	-0.574795038	-0.1517173371	 0.129862
H	 2.6338986334	 0.867991676	 0.8777421203	 0.116678
H	 3.7707439823	 0.9096317878	 2.5690445949	 0.078504
