19
gdb 80486	2.39699	1.67485	1.45139	2.0373	69.8	-0.2443	0.0678	0.3121	1003.2832	0.159895	-460.1447	-460.136618	-460.135674	-460.177058	32.233	
C	 0.2715211199	 1.5516186212	-0.1247572524	-0.394913
C	 0.1442218998	 0.0485684764	 0.0082960425	 0.098159
O	 0.8279169983	-0.5929237607	-1.0989404306	-0.291912
C	 1.1864625483	-1.8937592668	-0.6985074212	 0.016853
C	 2.5294203218	-1.9186763483	-0.0278595977	 0.078919
O	 3.3196847252	-0.7619818713	-0.1118347901	-0.433056
C	 1.2586399825	-1.9302806796	 0.8102005953	-0.16137
C	 0.7429971569	-0.5750584135	 1.3067298998	 0.08553
O	 1.7134945033	 0.2136646641	 1.9618305209	-0.43971
H	 1.3121885891	 1.8665815875	-0.0199529001	 0.120339
H	-0.1081753104	 1.8820116404	-1.0951768769	 0.122722
H	-0.3052011688	 2.0451906412	 0.6625622346	 0.127982
H	-0.9137759468	-0.2487502653	-0.0494310863	 0.078098
H	 0.8122098863	-2.6936708196	-1.3293034216	 0.101446
H	 3.1191212139	-2.8300916903	-0.0467330252	 0.109125
H	 2.8938586647	-0.2112165179	-0.7880931829	 0.299456
H	 1.0302997492	-2.8266120471	 1.3736818992	 0.098153
H	-0.0627324287	-0.7164413193	 2.0340983694	 0.08814
H	 2.5370833456	 0.1109976888	 1.4625574534	 0.296038
