19
gdb 101518	3.54532	0.63459	0.55585	4.7658	84.42	-0.2605	-0.0549	0.2057	1958.7701	0.155028	-422.997948	-422.986942	-422.985998	-423.036555	36.579	
C	-0.0297463009	 1.4403229808	-0.1502990529	-0.238422
O	-0.0275394643	 0.0440692989	 0.0438110911	-0.238876
C	-1.3073440888	-0.5625394054	 0.0265567903	 0.143929
C	-1.8299339725	-0.7684641383	-1.3972081408	-0.405319
C	-1.1486900386	-1.9072746828	 0.7598910993	-0.373297
C	-0.803681342	-1.7678717498	 2.1653474393	 0.093259
C	-0.5348998158	-1.6664701108	 3.3387732422	 0.048598
C	-0.2049137211	-1.4990095164	 4.7284304707	 0.018303
O	-0.1005901755	-2.4023263551	 5.5272909621	-0.232402
H	 1.0020617479	 1.7799586152	-0.0335279472	 0.133131
H	-0.3790082535	 1.7288757598	-1.1522965919	 0.108165
H	-0.6579191448	 1.9509847728	 0.5955994679	 0.109008
H	-2.017673162	 0.062384961	 0.5918820143	 0.077116
H	-1.1468818561	-1.4086335936	-1.9645852566	 0.127761
H	-2.8192940458	-1.2366898859	-1.3847560713	 0.119532
H	-1.9218245362	 0.18443262	-1.9249248421	 0.122917
H	-2.0757616516	-2.4863811801	 0.6697556246	 0.140095
H	-0.3663735714	-2.4851241605	 0.2511000524	 0.151783
H	-0.0464270472	-0.4430337098	 5.0303482887	 0.094718
