21
gdb 77385	2.17101	1.93108	1.23523	1.3971	82.97	-0.2456	0.0723	0.318	1091.4544	0.181292	-387.028253	-387.019382	-387.018438	-387.060945	34.905	
C	 0.0366181939	 1.4614786325	-0.0201748209	-0.526383
C	 0.0384403825	-0.0413766529	-0.0586690153	 0.310187
C	 0.5295271494	-0.9753742438	-1.1820960073	 0.050789
O	 1.8845087937	-0.9607729817	-1.569528269	-0.45311
C	 0.0467460366	-1.9633079425	-0.1020433224	 0.310187
C	 0.0579006339	-3.4663301003	-0.1313778279	-0.526382
C	 0.5549604827	-1.0259852008	 1.0653702262	-0.152745
C	-0.8145104026	-1.0478196123	 1.7693161321	-0.281332
C	-1.1542348061	-1.0153496616	 0.2668621164	-0.117459
H	 1.0495496019	 1.8541309887	-0.1625939913	 0.122213
H	-0.5918592599	 1.873925325	-0.817416999	 0.121232
H	-0.340274154	 1.8422216849	 0.9354221517	 0.119347
H	-0.0476511171	-0.956839636	-2.1139520485	 0.072826
H	 2.4256562821	-0.9764670458	-0.7723163082	 0.27922
H	 1.0741643147	-3.8434119684	-0.2910864099	 0.122211
H	-0.3155813288	-3.8930226454	 0.8059713079	 0.119348
H	-0.5670890176	-3.8478009115	-0.9465828889	 0.121233
H	 1.547883416	-1.0320163865	 1.5228352557	 0.059493
H	-1.075637107	-1.9587767725	 2.3171534094	 0.09195
H	-1.0834049725	-0.1648211213	 2.3576715993	 0.091947
H	-2.1309122518	-1.0085451681	-0.2216077401	 0.065229
