21
gdb 61391	2.82482	0.92747	0.83949	5.9195	79.41	-0.2474	0.0322	0.2796	1463.0361	0.180401	-420.42014	-420.409356	-420.408412	-420.456086	39.848	
C	-0.022460947	 1.534048408	-0.0746409788	-0.415923
C	-0.0848508998	 0.0017092565	 0.0012863044	 0.321465
C	 0.6163727033	-0.4964603344	 1.2738700123	-0.420046
O	-1.4614043767	-0.4158894444	 0.012821241	-0.455022
C	 0.5377731378	-0.5930028866	-1.2777658857	-0.193337
C	 0.4157216734	-2.1345002036	-1.4356250416	-0.138
N	-0.9151112391	-2.6596195928	-1.7565196357	-0.511755
C	 1.3671385947	-2.5830589153	-2.4659915091	 0.290923
N	 2.1205549432	-2.8992688346	-3.2829192219	-0.32369
H	 1.011092806	 1.8901694715	-0.1265702314	 0.122637
H	-0.5602973274	 1.8934220223	-0.9561450691	 0.127194
H	-0.4839449089	 1.980756061	 0.8136882322	 0.106783
H	 0.1726872619	-0.0255323065	 2.1586085844	 0.110575
H	 0.516696623	-1.5785370102	 1.3910703246	 0.129053
H	 1.6812515318	-0.2443251033	 1.2661020711	 0.125699
H	-1.8692475039	-0.0747427554	 0.8159559504	 0.281689
H	 0.0692210771	-0.1269147153	-2.1519420918	 0.110626
H	 1.5963289184	-0.3116611	-1.2952783436	 0.118824
H	 0.7336172364	-2.6102377669	-0.4994418752	 0.129898
H	-1.5633707452	-2.2517566722	-1.0883493205	 0.250251
H	-1.1964617489	-2.3175479377	-2.6717931258	 0.232157
