16
gdb 127938	2.93424	1.38978	0.94887	4.1399	80.65	-0.2005	-0.0493	0.1513	1194.1836	0.125913	-430.263939	-430.255342	-430.254397	-430.297632	31.313	
C	 0.113985954	 1.4001813945	 0.0765110172	-0.323047
N	-0.0062616106	-0.0430288357	 0.1058297982	-0.354302
C	-1.1643188638	-0.5703031618	 0.0701612018	 0.459112
N	-1.1980934833	-1.9852098421	 0.1000815628	-0.256127
N	-2.2790037012	-2.7414587674	 0.0830551224	-0.135621
C	-3.4212171464	-2.1277128727	 0.0308517689	-0.080719
C	-3.4697913388	-0.6781575335	-0.0125982405	 0.38914
N	-4.6883547125	-0.0730700924	-0.0356199278	-0.559706
N	-2.3959906723	 0.0593052647	-0.0012917274	-0.399714
H	 0.7123117157	 1.7015143168	-0.7931790829	 0.110473
H	-0.8461053434	 1.9276718819	 0.0376834281	 0.117418
H	 0.6630895005	 1.7401622517	 0.9640085758	 0.111134
H	-0.3099668063	-2.463243309	 0.1441851678	 0.273845
H	-4.3144046857	-2.7412477183	 0.0236346502	 0.114261
H	-5.5064406314	-0.5998590102	-0.2878622288	 0.265488
H	-4.7005592144	 0.9190377034	-0.2117135958	 0.268365
