17
gdb 7992	3.666	1.75413	1.26086	4.7863	65.42	-0.2449	0.0569	0.3018	973.1491	0.142759	-401.060645	-401.052571	-401.051627	-401.093275	28.781	
C	-0.1597703456	 1.5496211652	 0.0519726832	-0.404584
C	 0.1518283393	 0.0669502405	-0.0124802643	 0.13153
C	 0.9873945877	-0.3808197049	-1.2287864313	-0.202572
N	 1.8480944041	-1.3717007832	-0.6237825929	-0.129891
C	 2.8944207582	-2.0526695699	-1.3492395546	-0.337519
C	 1.9124395471	-1.209181849	 0.7418156297	 0.481027
O	 2.6635222578	-1.7452955077	 1.5116224839	-0.404302
O	 0.9526502478	-0.3136832428	 1.1225994923	-0.257317
H	 0.7626467565	 2.1375945572	 0.0366116588	 0.131351
H	-0.7764819999	 1.8432949898	-0.8037828523	 0.123018
H	-0.7068794821	 1.787267808	 0.9677088205	 0.139299
H	-0.775839718	-0.5177520156	 0.0340859496	 0.097085
H	 0.3646991613	-0.8041825683	-2.0240411256	 0.117463
H	 1.5654993871	 0.4539931693	-1.6582816505	 0.102536
H	 3.572900318	-1.3435499516	-1.8447949588	 0.119343
H	 3.464623406	-2.6445319754	-0.6317506117	 0.168519
H	 2.4709890748	-2.7158655317	-2.1113027159	 0.125013
