18
gdb 39464	2.49534	1.76099	1.15089	2.4892	71.84	-0.2546	-0.0035	0.2511	1048.6185	0.149304	-439.058709	-439.051152	-439.050208	-439.090625	29.411	
C	-0.2120744889	 1.4151680695	-0.2305353395	-0.079184
C	 1.0191001604	 2.2594837187	 0.1159687917	-0.241829
C	 2.1552788034	 2.158506499	-0.8847257565	 0.055118
O	 3.4890277566	 2.0477692755	-0.3654264525	-0.260156
C	 2.9571762478	 0.9438294732	-1.0963438624	 0.075572
C	 2.6728877197	-0.3475823099	-0.3520281713	-0.21129
N	 1.6558840397	-1.0951473901	-1.0939397801	-0.208568
C	 0.4462273142	-0.8234619326	-0.8665738655	 0.100131
O	-0.0355712147	 0.0269003203	 0.095106511	-0.236543
H	-1.0644472809	 1.7450940086	 0.3701683941	 0.120951
H	-0.4849977244	 1.5209913602	-1.2886904472	 0.108386
H	 0.7042169107	 3.3074903299	 0.1909122939	 0.108681
H	 1.3761900267	 1.9669286943	 1.1073891566	 0.131689
H	 2.0770703329	 2.8424557702	-1.7318415146	 0.093292
H	 3.402266969	 0.8034170698	-2.0824814648	 0.098833
H	 3.5812759352	-0.9562969752	-0.3134982829	 0.111342
H	 2.3641154442	-0.1206365542	 0.6731417588	 0.118191
H	-0.3383368816	-1.3463209073	-1.4180769988	 0.115384
