16
gdb 99563	2.27877	1.24674	0.95275	2.3637	69.91	-0.2793	-0.01	0.2694	1241.6182	0.122961	-434.062954	-434.053055	-434.052111	-434.098286	33.91	
C	 0.122396289	 1.3973647159	 0.1468929519	-0.252172
O	-0.1194301436	 0.0116189153	-0.0559713146	-0.233141
C	 0.5605562815	-0.5471640473	-1.145003731	-0.031992
C	 2.0165910975	-0.6444756511	-0.8926739292	 0.268439
N	 3.1490253513	-0.7402089781	-0.683902851	-0.312615
C	-0.0227847342	-1.9811170823	-1.353187754	-0.163634
N	 0.0517176531	-2.8485261271	-0.190911217	-0.495423
C	-1.4212752445	-1.8434215317	-1.7958928622	 0.315375
N	-2.5078638996	-1.7175089525	-2.1649013445	-0.310855
H	 1.1790650492	 1.5907211342	 0.3723638778	 0.138732
H	-0.172112309	 1.9823440485	-0.7348267067	 0.127659
H	-0.4896984301	 1.6964517645	 0.998737097	 0.150229
H	 0.4112144638	 0.0465976116	-2.0605879985	 0.133246
H	 0.5364354632	-2.4484739349	-2.1718055776	 0.152903
H	 1.0230460833	-3.0608832593	 0.0156801706	 0.255475
H	-0.338647141	-2.3688094856	 0.614729009	 0.257773
