18
gdb 78623	2.56577	1.6881	1.29951	3.4134	75.92	-0.2449	-0.0119	0.233	1033.1389	0.146851	-401.920624	-401.912436	-401.911492	-401.953056	31.329	
C	 0.0960067613	 1.659801996	-0.0951461869	-0.430567
C	 0.1172631153	 0.1430351771	 0.0303826481	-0.035261
C	 1.0990554278	-0.7069943937	-0.8083257283	-0.163546
N	 1.226562298	-1.7159071025	 0.3898739125	-0.185393
C	 2.2479142004	-0.7179412557	 0.9583484765	-0.240773
C	 2.4923597581	-0.2064758116	-0.4218217315	 0.47684
O	 3.4428352085	 0.2074669881	-1.0218420736	-0.339629
C	 0.7696955648	-0.5712184951	 1.2198096739	 0.324265
C	 0.1944444261	-0.7530371714	 2.5922183974	-0.501901
H	 1.09589841	 2.0907532197	 0.014152567	 0.133647
H	-0.2938265676	 1.9636076323	-1.0722395432	 0.12778
H	-0.5495066283	 2.1030348913	 0.6703752509	 0.122764
H	-0.8931882848	-0.2680053616	-0.0819236659	 0.089656
H	 0.8752367003	-1.0651219243	-1.8101139283	 0.10341
H	 2.9547532634	-0.9918561062	 1.7314641727	 0.117828
H	 0.2463092182	 0.1792234649	 3.1642853532	 0.13183
H	-0.8550571138	-1.058726148	 2.5279357238	 0.131429
H	 0.7390762722	-1.5250027492	 3.1436022717	 0.137621
