18
gdb 54553	3.10007	1.53692	1.18952	1.9209	76.28	-0.2229	-0.0279	0.195	1060.9858	0.146691	-401.865724	-401.857677	-401.856732	-401.8996	30.239	
C	 0.1775478106	 1.252678116	-0.713548221	-0.489854
C	-0.0925114742	 0.1646951654	 0.3059715335	 0.250011
O	 0.686272476	-0.1043007944	 1.1958553371	-0.305076
C	-1.3822588863	-0.596753897	 0.157381819	 0.22698
C	-2.6603302096	-0.3414057551	-0.6393137786	-0.252504
N	-3.0066181272	-1.6778803231	 0.0072275302	-0.164144
C	-1.5341970188	-2.1330497077	-0.1598408092	-0.031458
C	-1.4417168579	-2.563930054	 1.304655528	-0.257081
C	-2.2349408676	-1.2552342995	 1.2909117968	-0.03039
H	 1.155325826	 1.7009175255	-0.5336736928	 0.143791
H	 0.134911596	 0.8418884934	-1.7290775012	 0.140634
H	-0.6005760245	 2.0230060365	-0.6548652056	 0.143751
H	-3.3121464121	 0.478806485	-0.3201280682	 0.104354
H	-2.6117904417	-0.3892347703	-1.732381399	 0.102744
H	-1.2122081452	-2.6379590948	-1.0728886318	 0.088866
H	-2.0065304518	-3.4613925786	 1.5694894843	 0.108288
H	-0.4561749709	-2.5299729002	 1.7675957054	 0.131529
H	-2.7494653007	-0.7319773771	 2.0985635632	 0.08956
