16
gdb 51912	4.59457	0.68023	0.60665	4.9522	71.	-0.2676	-0.0221	0.2454	1736.2479	0.1219	-475.006539	-474.997445	-474.9965	-475.041686	30.899	
O	-0.267478836	 0.3821667357	 0.2191170491	-0.254042
C	 0.1291531977	 1.4659792919	 0.5077712803	 0.179179
O	 0.8907428819	 2.2069271828	-0.3453291265	-0.156404
C	 1.3076027131	 3.4450266981	 0.0774740298	 0.135961
N	 1.9924082971	 4.1427505555	-0.7060295658	-0.230196
C	 2.4397549228	 5.4668416655	-0.2927864581	-0.15835
C	 2.4668380465	 5.74980143	 1.1910783062	 0.052402
C	 2.1228096693	 7.0662550799	 1.7410027448	-0.175927
O	 1.201515376	 5.9781387741	 1.8288493708	-0.23594
H	-0.0674582474	 1.9782564675	 1.4666399867	 0.101888
H	 0.9809087023	 3.7061764537	 1.0881544829	 0.137272
H	 3.4512476826	 5.6069099728	-0.6943098878	 0.125904
H	 1.8043849808	 6.2063146568	-0.7961958443	 0.128283
H	 3.1418431658	 5.1191454214	 1.7728689286	 0.103556
H	 2.5596290537	 7.3861562877	 2.6853530899	 0.123334
H	 1.8305441239	 7.8709656866	 1.0679612934	 0.12308
