16
gdb 52002	3.73263	0.65763	0.61492	2.8116	69.25	-0.2581	-0.0422	0.2159	1752.0949	0.120731	-475.065321	-475.055418	-475.054474	-475.102779	32.77	
O	-0.6695993785	 1.0725062087	 0.7426591814	-0.225061
C	 0.1272503498	 1.8459555267	 0.2845913901	 0.152818
C	 1.2877444625	 1.4381490065	-0.6133508589	-0.247018
N	 1.5827023783	 2.4338483491	-1.622388544	-0.328303
C	 2.7285620871	 3.1785694239	-1.5925131761	 0.406015
O	 3.5635835664	 3.0797629623	-0.7122937405	-0.365727
C	 2.8940324324	 4.1716522664	-2.7368328551	-0.394773
C	 3.1791675137	 5.5691975347	-2.1993348266	 0.166006
O	 2.6940364748	 6.5682066848	-2.6582804297	-0.23253
H	 0.0806465045	 2.9395301628	 0.4914954039	 0.08914
H	 2.1864225233	 1.3577567129	 0.0108873944	 0.17925
H	 1.0770025072	 0.4578896515	-1.0514297713	 0.137989
H	 0.9395262356	 2.5568061672	-2.3871878728	 0.259284
H	 3.7862331802	 3.8577958512	-3.294902063	 0.164438
H	 2.0490814174	 4.2158625129	-3.4278952712	 0.122048
H	 3.8846370252	 5.5852746185	-1.3443894906	 0.116424
