18
gdb 57101	3.09169	1.18826	0.90979	4.9049	72.6	-0.2686	0.036	0.3047	1267.8563	0.147579	-439.10253	-439.093529	-439.092585	-439.137615	31.722	
C	 0.0560662026	 1.4952180895	-0.0756126034	-0.401177
C	-0.0535729416	-0.0347671453	 0.0612741689	-0.169937
C	 0.6576165237	-0.5077044887	 1.2515651097	 0.273778
N	 1.2256369681	-0.8507467275	 2.1974095625	-0.322717
C	-1.5247072721	-0.4962307358	 0.110663396	 0.231569
O	-2.1582560462	-0.0801696372	-1.0767309632	-0.26409
C	-3.0656826382	-1.1163826197	-1.4370609477	-0.099407
C	-2.3268905973	-2.3675869677	-0.9677037435	-0.094678
O	-1.6262568206	-1.9056222377	 0.1845956755	-0.264791
H	 1.1026475574	 1.802764329	-0.1272631419	 0.138717
H	-0.4566799876	 1.8151919223	-0.9842436141	 0.146486
H	-0.4035595974	 1.9950416367	 0.7819732396	 0.137337
H	 0.394250262	-0.5181410525	-0.8147126693	 0.129596
H	-2.0241235966	-0.0674123818	 0.995433589	 0.092729
H	-4.0251838846	-0.9955055522	-0.9143524666	 0.110239
H	-3.2312864593	-1.068694043	-2.5150572196	 0.125152
H	-2.9882020521	-3.186251547	-0.6726056925	 0.122328
H	-1.6243727001	-2.7302097315	-1.7302206195	 0.108866
