20
gdb 55090	3.2966	1.13521	0.9905	3.0929	80.03	-0.242	0.0314	0.2734	1267.1743	0.170524	-403.162975	-403.153644	-403.1527	-403.197829	34.859	
C	-0.114238178	 1.5713350888	 0.3130050656	-0.500685
C	 0.0142843824	 0.107836066	 0.007100572	 0.390296
C	-0.7612667826	-0.9636644399	 0.723156529	-0.343582
C	 0.7444296972	-1.0005869154	 0.7689876795	-0.086646
C	 1.2928784843	-1.5857905166	-0.5479404148	-0.104298
C	 0.5413893923	-0.4570967043	-1.3214361851	-0.309764
C	 2.808980827	-1.4676476003	-0.6434457339	 0.398507
N	 3.4831243767	-2.6303540941	-0.3981988493	-0.530534
O	 3.3858697446	-0.4250919964	-0.8901216007	-0.365051
H	 0.8047984282	 2.1082030052	 0.0541428593	 0.131096
H	-0.9379474268	 2.0242662697	-0.2526095731	 0.116558
H	-0.3148938379	 1.7384740858	 1.376657138	 0.113144
H	-1.2386094207	-0.6515852748	 1.6475229349	 0.108009
H	-1.315111756	-1.7222642248	 0.1725010002	 0.098391
H	 1.2957965435	-0.946752121	 1.7010023079	 0.087835
H	 0.9733633201	-2.6138833285	-0.7561540208	 0.061642
H	-0.2110994773	-0.7789857656	-2.0486883994	 0.085165
H	 1.2638782098	 0.207234451	-1.7985206735	 0.133821
H	 3.0119752293	-3.4723822818	-0.118769165	 0.25741
H	 4.487898864	-2.5956441027	-0.3416515007	 0.258686
