16
gdb 125233	3.20156	1.36695	0.96939	2.6587	76.49	-0.2428	-0.0572	0.1856	1184.5131	0.122776	-437.902876	-437.89437	-437.893426	-437.936094	31.052	
C	 0.0264432982	 1.5129157764	 0.0528466197	-0.468159
C	-0.056567822	 0.0202510128	 0.0189083294	 0.421669
C	-1.1737834838	-0.7117460465	-0.1886099925	-0.34159
C	-1.0949952382	-2.1511721374	-0.1932989627	 0.338424
O	-2.02552808	-2.924725065	-0.3683407715	-0.361133
C	 0.2886391463	-2.6587771743	 0.0455635361	 0.234269
C	 0.4993855273	-4.141089882	 0.0640995584	-0.456747
N	 1.3284161744	-1.9218314029	 0.2392090121	-0.12533
O	 1.152275449	-0.5359280592	 0.2257879533	-0.274034
H	 0.7169489678	 1.8732572347	-0.71625782	 0.157573
H	-0.9573493055	 1.952887076	-0.1152652415	 0.145675
H	 0.4099463506	 1.8507979625	 1.02081081	 0.157562
H	-2.1282375665	-0.2277057743	-0.3516422398	 0.12345
H	 0.171956266	-4.5721263991	-0.8868693997	 0.153821
H	 1.5481213536	-4.379477977	 0.2431548438	 0.140823
H	-0.1269021571	-4.5931366548	 0.8392789449	 0.153728
