20
gdb 94240	3.08198	1.12596	1.0484	3.6707	75.74	-0.2505	0.0226	0.2732	1239.8049	0.169136	-440.297616	-440.287824	-440.28688	-440.332454	35.513	
C	-0.0129462811	 1.5150054477	-0.2659942047	-0.411236
C	 0.0548081627	 0.0399334523	 0.0676795783	 0.115441
O	 0.9546517448	-0.6899365652	-0.7900297697	-0.294978
C	 1.484010058	-1.4364064141	 0.3288850708	-0.085428
C	 0.7979271307	-0.4812205224	 1.3343639426	 0.256256
C	 1.7563497717	 0.4940165954	 2.0139249925	-0.444228
N	-0.0876528871	-1.1185501546	 2.3006010393	-0.333059
C	 0.3372688266	-2.0728984118	 3.1665569551	 0.148722
O	 1.4714519352	-2.5057646596	 3.2120908	-0.332154
H	 0.9709160117	 1.9862202112	-0.2114448604	 0.128155
H	-0.3928434312	 1.6387539603	-1.2849216329	 0.134638
H	-0.694413699	 2.0382896825	 0.413681452	 0.113842
H	-0.9569368431	-0.3975030428	 0.0165367449	 0.060772
H	 1.1025185782	-2.4625760943	 0.3604143402	 0.109264
H	 2.5774498889	-1.4498371706	 0.3360046792	 0.114114
H	 2.4365999501	 0.9436695587	 1.2856867656	 0.126857
H	 1.2110541377	 1.2963193314	 2.521257656	 0.110842
H	 2.3516939709	-0.0469566716	 2.7532658488	 0.153578
H	-1.0476890611	-0.8149134277	 2.3519179845	 0.24702
H	-0.4752691048	-2.4284556746	 3.831206988	 0.08158
