17
gdb 107375	3.26837	1.24106	1.0202	4.4821	68.34	-0.2354	0.0497	0.2851	1156.8632	0.137273	-455.169738	-455.161541	-455.160597	-455.202566	31.451	
O	 0.0991811313	 1.3713953309	 0.1009563748	-0.415365
C	 0.0733816002	-0.0383681857	-0.0732475038	-0.138457
C	-1.3358164265	-0.5671091455	-0.088746421	 0.317833
C	-2.0559307461	-0.9476915082	 1.2027611444	-0.36356
C	-1.7303873471	-2.0016576894	 0.1555741054	-0.056104
N	-2.7031972794	-2.2947090744	-0.8545375109	-0.344703
C	-3.0861516205	-1.1359425214	-1.5381471164	 0.41388
O	-4.033142729	-1.0141760694	-2.2795387021	-0.398344
N	-2.1544558521	-0.1659459236	-1.1951931863	-0.384828
H	-0.28992764	 1.564241275	 0.9611393099	 0.285396
H	 0.5505625632	-0.2258740944	-1.0398599586	 0.125818
H	 0.6564548773	-0.5573268854	 0.7029416239	 0.089789
H	-1.4607005766	-0.9739114571	 2.1100914305	 0.115767
H	-3.0904986156	-0.6485899893	 1.3306534884	 0.124279
H	-0.9957175452	-2.7705493238	 0.3687546573	 0.11239
H	-3.4153287448	-2.9944427918	-0.7182492406	 0.256
H	-2.3464018991	 0.8001549834	-1.4012498749	 0.260207
