17
gdb 64763	3.4614	1.11734	1.05779	4.7733	72.57	-0.2666	0.0049	0.2716	1170.6622	0.136252	-418.040109	-418.031548	-418.030604	-418.07411	30.975	
C	 0.074049046	 1.4741499176	 0.0868801508	-0.429997
C	-0.0049530693	-0.0534712812	 0.0175285634	 0.252827
C	-1.4767671754	-0.5418829502	-0.0006187272	-0.374029
C	-2.2677961007	-0.0713487648	 1.134171173	 0.287811
N	-2.910231213	 0.3112039504	 2.0148292913	-0.313438
C	 0.7740603671	-0.6370440039	-1.2035842816	-0.153739
O	 1.800319591	-1.4659889604	-0.6155286441	-0.216079
C	 1.6154802728	-1.3688883017	 0.7219303576	 0.118202
N	 0.6824045422	-0.6483311223	 1.1838532429	-0.275573
H	 1.1189253417	 1.7958822424	 0.096149896	 0.12707
H	-0.4200937554	 1.9297827819	-0.7784446538	 0.116338
H	-0.4057432841	 1.8414898815	 0.9967314251	 0.160069
H	-1.9629729257	-0.201994341	-0.9231971415	 0.149252
H	-1.4946646969	-1.6368449236	-0.0077648061	 0.154303
H	 0.1610966502	-1.2652679518	-1.8572566115	 0.120281
H	 1.2594659551	 0.1360433532	-1.8048863165	 0.125918
H	 2.3181341743	-1.9457980459	 1.3128840122	 0.150784
