18
gdb 7212	3.4546	1.1195	0.94877	2.9967	76.93	-0.2333	-0.0126	0.2208	1281.3988	0.149782	-347.808293	-347.797995	-347.797051	-347.84545	34.45	
C	 0.7769539254	 1.0789866701	 0.6887465454	-0.497723
C	 0.3400899694	-0.2723483294	 0.3667825415	 0.041901
C	-0.0180869814	-1.3928409888	 0.106593255	 0.085149
C	-0.4668601274	-2.745083395	-0.2074366348	-0.25357
C	-1.8311702579	-2.7447208386	-0.943757515	-0.390543
C	 0.5329840565	-3.5669486808	-1.0555238783	 0.394247
C	 1.442730312	-2.8203461566	-2.0070316886	-0.477191
O	 0.5351933578	-4.7712050761	-0.9638038245	-0.302211
H	 1.2025185244	 1.1298220971	 1.6969842597	 0.150679
H	 1.5440425728	 1.4270626121	-0.0119400912	 0.148021
H	-0.0567917513	 1.7883720233	 0.6447229642	 0.149777
H	-0.5895645827	-3.3183156492	 0.7188173221	 0.126193
H	-2.584698839	-2.2394384546	-0.3351050282	 0.131024
H	-1.7604179545	-2.2179999745	-1.8999785534	 0.125588
H	-2.1514543495	-3.7731414158	-1.1280786061	 0.137106
H	 2.1763546032	-2.2445427986	-1.4332940072	 0.153682
H	 1.9545556903	-3.5298958778	-2.6577560641	 0.137552
H	 0.8775707919	-2.0940819367	-2.6003455765	 0.140319
