17
gdb 79845	2.6617	1.71803	1.45188	2.2107	66.95	-0.2167	0.0636	0.2803	946.3759	0.136253	-458.915175	-458.907586	-458.906642	-458.946794	30.118	
O	-0.0287107615	 1.4378446392	 0.1207449139	-0.428126
C	-0.0200479597	 0.0390037945	-0.0455351373	 0.152894
C	-1.3792999632	-0.6327429786	-0.0356705388	-0.185826
C	-2.0359499033	-0.5270033106	-1.4158146432	 0.028565
O	-1.6832347642	 0.5149598966	-2.2894855158	-0.266215
C	-0.2760094832	 0.389987731	-2.5488995448	-0.06592
C	 0.2465136283	-0.5625878412	-1.4739905852	-0.22962
C	-0.9561880768	-1.5203626045	-1.2118020827	 0.340761
O	-0.9859371962	-2.8942397479	-1.3059597736	-0.463094
H	 0.8759192958	 1.7336574732	 0.2628726668	 0.282741
H	 0.6388355098	-0.4431126347	 0.6886201868	 0.077683
H	-1.9640824825	-0.8868424633	 0.8411082775	 0.090331
H	-3.0748645205	-0.8268183751	-1.4854507258	 0.107866
H	-0.1103555791	-0.0069906288	-3.5622679481	 0.08445
H	 0.1702646859	 1.3863040896	-2.4765794116	 0.107988
H	 1.2298872433	-0.9916707664	-1.6635148452	 0.075257
H	-1.2169171927	-3.134517043	-2.2102687827	 0.290264
