13
gdb 132786	2.4887	1.85156	1.06211	3.1122	64.13	-0.2246	-0.0107	0.2139	1007.778	0.090543	-494.096623	-494.089206	-494.088262	-494.128256	28.36	
N	 0.0071535718	 1.3855569326	-0.1253631835	-0.566689
C	 0.0112037719	 0.0241674892	-0.0650746573	 0.342822
C	-1.1993286035	-0.6922006389	-0.0897462431	 0.155669
O	-2.385367244	-0.0188306748	-0.126926484	-0.458971
C	-1.0741823287	-2.0657340218	-0.0658510795	 0.236462
F	-2.207723479	-2.7801679404	-0.0830603789	-0.08395
N	 0.0656226342	-2.7220096216	-0.0246901464	-0.32088
C	 1.1502690254	-1.9460818072	-0.0006276344	 0.052972
N	 1.1867830961	-0.6169232013	-0.014836336	-0.327923
H	 0.8714624461	 1.8450381507	 0.1101588539	 0.266568
H	-0.8512585648	 1.8666597413	 0.0843846181	 0.273163
H	-3.0989148934	-0.667917672	-0.1223175071	 0.308699
H	 2.1084665778	-2.4562599958	 0.0369144782	 0.122059
