14
gdb 3349	5.69157	2.85855	2.07487	3.6718	57.59	-0.2479	0.0183	0.2662	621.3618	0.115969	-324.551432	-324.546003	-324.545059	-324.580464	21.01	
C	 0.0549647157	 1.5538515022	-0.1177228726	-0.124675
O	 1.499733403	 1.3683708881	 0.1811955885	-0.272787
C	 1.1954760678	 0.1039087583	 0.6060919054	 0.433754
N	 1.5992017539	-0.6662873283	 1.5184121111	-0.305263
C	 0.4265080405	-1.5783189352	 1.7047315763	-0.154239
C	-0.8340015566	-0.7840932782	 1.1830025269	-0.259604
C	-0.1831445217	 0.0221758117	 0.0483113967	-0.134806
H	-0.396606429	 2.1907459809	 0.6472737468	 0.131564
H	-0.0814802838	 1.9716406551	-1.1159802639	 0.129669
H	 0.5678056559	-2.5159209597	 1.1508172555	 0.10888
H	 0.3425030162	-1.8334697113	 2.7639687297	 0.117175
H	-1.6555202448	-1.4315897875	 0.8679875549	 0.106198
H	-1.198483082	-0.1256899967	 1.9785667469	 0.114964
H	-0.2509255752	-0.4723939396	-0.9241606421	 0.109168
