16
gdb 38439	4.11386	1.34803	1.2349	0.5473	68.41	-0.2442	0.0139	0.2581	1006.3866	0.125466	-437.853673	-437.846708	-437.845764	-437.885457	26.791	
C	-0.0198722899	 1.5208739755	-0.0172064042	-0.320601
C	 1.5088086408	 1.5341653384	-0.0979408474	 0.045727
O	 1.9973154437	 0.8249252408	 1.0529983103	-0.25505
C	 1.5774320524	 0.0683378086	-0.0870215175	-0.035273
C	 0.0396799328	-0.0526290929	 0.0218816095	 0.31033
C	-0.5373919896	-0.8151174174	 1.2346327443	-0.173514
O	-1.3493469399	-1.8603000375	 0.639255422	-0.220281
C	-1.282985564	-1.6404771998	-0.6910004334	 0.109214
N	-0.576699518	-0.6888069648	-1.1459927635	-0.315562
H	-0.4534431903	 2.0222417934	 0.8523063725	 0.106653
H	-0.5077345332	 1.8561777236	-0.9342892509	 0.128534
H	 2.1701816231	 2.2666854623	-0.5434134537	 0.109725
H	 2.2780796782	-0.6299301127	-0.5302138733	 0.107441
H	 0.2286318876	-1.2791975408	 1.8598324755	 0.135241
H	-1.1872197979	-0.1995003512	 1.8627625468	 0.124189
H	-1.8660122558	-2.3312939956	-1.2901728472	 0.143227
