17
gdb 114179	4.26438	0.93565	0.83335	3.3587	71.05	-0.2592	-0.0393	0.2199	1349.8182	0.133762	-458.924165	-458.915395	-458.91445	-458.9581	31.663	
O	 0.0368283041	 1.3748386532	-0.1547165002	-0.42076
C	 0.0573676091	-0.022147517	 0.0968275077	-0.092111
C	-1.3716481514	-0.5186268876	-0.0130890998	 0.000994
C	-2.0533348293	-0.4968908361	-1.427934282	-0.315538
C	-2.2431195575	-2.0097239646	-1.3164826364	 0.317336
O	-0.9518490959	-2.6130662113	-1.115603919	-0.268525
C	-1.5755492672	-2.0440887677	 0.0218071714	-0.066751
C	-3.3343689744	-2.8796576843	-1.7880762291	 0.063719
O	-4.3244736866	-2.4718388589	-2.344673378	-0.257902
H	 0.9448207657	 1.6897342236	-0.1870223452	 0.290274
H	 0.681202506	-0.55754944	-0.6328837615	 0.104961
H	 0.4514208174	-0.2444566831	 1.1024651517	 0.086957
H	-2.0006336608	-0.0187371133	 0.7283793115	 0.097121
H	-2.9994779868	 0.044512438	-1.4396363937	 0.135534
H	-1.4299208529	-0.1704921716	-2.2619294085	 0.121957
H	-1.7529829982	-2.6970773643	 0.8699841997	 0.115874
H	-3.1693896313	-3.956910435	-1.5680956588	 0.086861
