25
gdb 64015	1.85495	1.73459	1.4419	0.094	92.61	-0.2342	0.0284	0.2625	1147.7634	0.228122	-352.379154	-352.36941	-352.368466	-352.412201	39.908	
C	 0.0310484096	 1.5255135701	-0.0943860054	-0.42387
C	-0.0131582429	-0.0134495332	-0.0120546551	 0.265627
C	-1.4770112304	-0.4600361793	-0.1184117361	-0.44523
C	 0.8629298431	-0.5787280326	-1.1727634018	-0.286669
C	 2.2298712148	-0.7129389068	-0.5494319894	-0.088832
C	 2.1637298551	-0.6671873276	 0.7784027658	-0.077701
C	 0.7373032403	-0.5381263207	 1.2876472522	 0.238748
C	 0.629021703	 0.3906183426	 2.5088179591	-0.442523
C	 0.2556604401	-1.9449162067	 1.7157601079	-0.420534
H	 1.0570343152	 1.901624877	-0.0412040068	 0.11605
H	-0.39803013	 1.8578622278	-1.0458402889	 0.104261
H	-0.5469054475	 1.9966435739	 0.7060199192	 0.109398
H	-1.9289936176	-0.0608921112	-1.0333456731	 0.107428
H	-1.5795694154	-1.5478908965	-0.1501006282	 0.111517
H	-2.0717647446	-0.0895928061	 0.7246631916	 0.10875
H	 0.4953874766	-1.5561203252	-1.5183886187	 0.096982
H	 0.8489879537	 0.0789727506	-2.0502048349	 0.09392
H	 3.133622385	-0.8586552669	-1.1312584139	 0.087754
H	 3.003910839	-0.7724970326	 1.4582090731	 0.082886
H	 1.0810891602	 1.3690383186	 2.330880591	 0.116175
H	-0.4160101325	 0.5464866638	 2.8001013755	 0.110359
H	 1.1409528241	-0.0578049248	 3.3675856936	 0.106102
H	 0.9165101364	-2.3453342419	 2.4922254951	 0.105902
H	-0.7584158516	-1.9171608082	 2.1283644791	 0.109583
H	 0.2679619761	-2.6508689741	 0.8802984788	 0.113916
