16
gdb 44702	3.44852	1.33174	1.08585	3.0945	69.55	-0.2484	-0.0359	0.2124	1081.8885	0.125327	-437.931569	-437.924272	-437.923327	-437.963819	27.847	
O	-0.0918239694	 0.1122460213	 0.6661275061	-0.335789
C	-0.1211968914	 1.2300944491	 0.2353915429	 0.391115
C	-1.2079917234	 2.2635412025	-0.1434952985	-0.395492
C	-0.0424919018	 3.288190666	-0.1726823325	 0.01636
C	 0.2316129908	 4.1606249543	 1.0551259447	-0.353064
C	 1.66326776	 3.7801707258	 1.4945445246	 0.387923
O	 2.3760680364	 4.4147420496	 2.2193622938	-0.282735
C	 2.0372714575	 2.4302118586	 0.8320821559	-0.305847
N	 0.9055384378	 2.1439180131	-0.0228284045	-0.08862
H	-1.7022782249	 2.085301478	-1.1000422852	 0.140333
H	-1.9609654566	 2.4154642374	 0.6322065936	 0.137469
H	 0.0856828012	 3.83534727	-1.1102094484	 0.095765
H	 0.1576309037	 5.2365395625	 0.8900945204	 0.142683
H	-0.4383005892	 3.9057560206	 1.8864772341	 0.142615
H	 2.9808601264	 2.5380258277	 0.2854750115	 0.144494
H	 2.1690204531	 1.6497841637	 1.5888853317	 0.162789
