17
gdb 97793	3.02934	0.71246	0.62372	3.5351	80.6	-0.2458	-0.0248	0.221	1759.9517	0.133663	-421.785825	-421.776107	-421.775163	-421.822415	33.618	
O	 0.2521496091	 1.0460062161	-0.8370156831	-0.399974
C	-0.0214611512	 0.2459629539	 0.3048256618	-0.196129
C	-1.3420648252	-0.381696821	 0.2797849643	 0.082277
C	-2.4473864201	-0.8624372335	 0.2386917034	 0.048263
C	-3.7701723486	-1.4170044611	 0.2035304548	-0.193922
C	-4.3255987144	-1.9999866426	-1.067487748	-0.295373
C	-4.0014650173	-2.9361735623	 0.0772750465	-0.102152
C	-2.8397373698	-3.8490590284	-0.0538475101	 0.164
O	-2.8034177059	-4.9622498493	 0.4082330586	-0.265086
H	-0.472341469	 1.6734828887	-0.9297106458	 0.28731
H	 0.7593381726	-0.5225199206	 0.3224419096	 0.144597
H	 0.0845504112	 0.8244256241	 1.2365857978	 0.121093
H	-4.4888022684	-0.9288911422	 0.8556340282	 0.126716
H	-5.3718312537	-1.8343662111	-1.2951700097	 0.136034
H	-3.6653282449	-2.0209587117	-1.9274776123	 0.140723
H	-4.825528464	-3.3429839704	 0.6523320765	 0.11615
H	-1.9857742303	-3.4290692086	-0.6293587425	 0.085472
