16
gdb 41764	2.7378	2.21534	1.69244	2.2168	66.98	-0.2433	0.0212	0.2645	830.0809	0.128079	-437.872445	-437.866361	-437.865417	-437.902799	24.875	
C	-0.0461769755	 1.5181876521	-0.0903851537	-0.079134
O	 1.2873048022	 1.9811010674	 0.14196178	-0.252663
C	 2.1647398869	 1.0030218505	-0.3416320929	 0.058929
C	 2.4992991316	-0.1612550935	 0.5633502221	 0.077616
O	 2.1591778013	-0.1846225771	 1.9236585481	-0.214405
C	 0.852801865	-0.3786060707	 2.2349757355	 0.131605
N	-0.1610350687	-0.3648170629	 1.4812957563	-0.266165
C	 0.0289344344	-0.0147341744	 0.0766740043	-0.021718
C	 1.4293485447	-0.3113745801	-0.4833286683	-0.194675
H	-0.7077403665	 1.9919240229	 0.6371256142	 0.125333
H	-0.3651353302	 1.7794883879	-1.1098677321	 0.096026
H	 2.9101882379	 1.3570163435	-1.0468833602	 0.103135
H	 3.456283952	-0.6488543146	 0.4131115336	 0.114019
H	 0.7575421947	-0.5730014394	 3.3008416809	 0.127897
H	-0.7447423729	-0.5188791187	-0.5062385685	 0.092147
H	 1.545272933	-0.9971909929	-1.3125431792	 0.102053
