13
gdb 125341	5.51043	1.33472	1.08166	2.9989	67.7	-0.246	-0.0656	0.1804	1031.7152	0.090061	-448.890389	-448.883609	-448.882665	-448.921671	25.316	
C	 0.0051111223	 1.4601946717	 0.048995765	-0.483297
C	 0.0169595297	-0.0284172074	-0.0356889185	 0.284049
C	-0.1152389593	-0.8024642349	-1.1677991869	-0.217182
N	-0.0332417401	-2.099797168	-0.67820693	 0.017206
N	-0.0606230564	-3.3906348272	-1.0485283061	-0.060022
N	 0.0807559192	-4.1046181108	-0.0215088226	 0.002734
O	 0.2152178682	-3.2578476635	 1.1382149915	-0.239062
C	 0.1371059322	-2.0083926049	 0.6730182677	 0.543011
N	 0.176654157	-0.7959430983	 1.1284152535	-0.430877
H	 0.942344338	 1.8291028981	 0.4782463898	 0.147981
H	-0.1273052058	 1.9105474237	-0.9375704595	 0.127873
H	-0.8052183071	 1.8025594408	 0.7008245574	 0.147985
H	-0.2508951979	-0.5726336795	-2.2086451413	 0.159601
