20
gdb 9748	3.764	1.50191	1.4085	1.3844	75.25	-0.2374	0.0307	0.2681	1000.4762	0.176642	-349.021746	-349.013342	-349.012397	-349.0543	32.382	
C	-0.0660008251	 1.546657713	-0.0674610174	-0.408581
C	 0.0034383639	 0.0187606741	 0.021146687	-0.215408
C	 0.7253481873	-0.5129811385	 1.2698365564	 0.402317
O	 2.0775877823	-0.0411845918	 1.3052692153	-0.48031
C	 0.004729768	-0.1714455623	 2.6124599996	-0.298436
C	 0.1531255691	-1.4257263786	 3.4356959042	-0.06242
C	 0.6059715372	-2.4466369215	 2.7117301904	-0.060724
C	 0.8479085204	-2.0603971241	 1.2760630577	-0.281067
H	 0.9354335841	 1.988214877	-0.1139194227	 0.112754
H	-0.5969392799	 1.8615361754	-0.9705513684	 0.118142
H	-0.5901511104	 1.981340817	 0.7907955253	 0.117757
H	-1.0112182961	-0.397917504	 0.0009507659	 0.092987
H	 0.5231399141	-0.3721709108	-0.8619143689	 0.101143
H	 2.0571196109	 0.9058777404	 1.4761063622	 0.274003
H	 0.457732329	 0.7076371959	 3.0887211426	 0.092094
H	-1.0547801606	 0.0751001055	 2.4557204425	 0.101306
H	-0.1080584781	-1.4674238488	 4.487468378	 0.088382
H	 0.7708295734	-3.4527978446	 3.0812695132	 0.088838
H	 0.1113029171	-2.5261297406	 0.6076302536	 0.098245
H	 1.8389895232	-2.3466886928	 0.9085339934	 0.11898
