25
gdb 64250	2.95457	1.14974	1.11176	0.1563	92.13	-0.2582	0.0776	0.3358	1298.6594	0.229205	-352.369747	-352.360256	-352.359312	-352.403804	37.953	
C	 0.415411353	 1.3275404024	 0.3041654001	-0.417447
C	-0.0688024553	-0.0995876137	-0.0124247579	 0.302277
C	-1.5951537621	-0.1070013554	-0.1420838581	-0.439369
C	 0.6305300939	-0.6432471369	-1.2838470121	-0.224059
C	 2.0405922856	-1.0736588372	-0.8270963089	-0.302446
C	 1.8858415542	-1.4076501368	 0.6683954974	 0.401125
C	 2.6166124398	-2.5642737869	 1.297943536	-0.326239
C	 3.0238869535	-1.148357374	 1.6258861503	-0.308889
C	 0.4388149443	-1.0938454595	 1.0605834691	-0.306866
H	 1.5019516832	 1.3722049366	 0.4242862585	 0.118965
H	 0.137180757	 2.0218889091	-0.4965846718	 0.106401
H	-0.0344479232	 1.6935010388	 1.2337792281	 0.107378
H	-1.9275971696	 0.5599140004	-0.9459402371	 0.107775
H	-1.9693994011	-1.1122275863	-0.3650419118	 0.106142
H	-2.0743531016	 0.2308115691	 0.7839930684	 0.107679
H	 0.074258143	-1.5150271707	-1.6493102886	 0.090186
H	 0.6506514557	 0.0883905723	-2.0981823595	 0.087832
H	 2.4135415837	-1.9239216846	-1.4068894276	 0.094773
H	 2.7592783702	-0.258604654	-0.9668732368	 0.098874
H	 2.1029388047	-3.1381996735	 2.0634908908	 0.105293
H	 3.2790097704	-3.1544431321	 0.6719154885	 0.105226
H	 3.9598558784	-0.7803981213	 1.2159107319	 0.104359
H	 2.7900740754	-0.7639068454	 2.6139331991	 0.105908
H	 0.3508167922	-0.6967757211	 2.0777613087	 0.087236
H	-0.1681636554	-2.0081469295	 1.0190143631	 0.087885
