20
gdb 32086	3.06349	1.13325	0.89155	2.1998	89.74	-0.2443	-0.0157	0.2286	1371.8789	0.17194	-366.091655	-366.082607	-366.081662	-366.126694	33.033	
C	-0.062166938	 1.6395483378	-0.0504462228	-0.366495
C	 0.0197843702	 0.1036778919	 0.0104477165	-0.290469
C	 0.7057555703	-0.4843273888	-1.1993279347	 0.321583
C	-0.0049761673	-0.8228438881	-2.3509164895	-0.2092
C	 0.6883076383	-1.3271289827	-3.4463284501	-0.000715
N	 2.0081261029	-1.5142946805	-3.4734448999	-0.327059
C	 2.7028645282	-1.1943807079	-2.3712670185	 0.337541
C	 4.1913526089	-1.4226973989	-2.4310689097	-0.465212
C	 2.0869519134	-0.6824848093	-1.2279965289	-0.247906
H	 0.9368737029	 2.0830569575	-0.1050826367	 0.123704
H	-0.6198428199	 1.9672566269	-0.9332537783	 0.124075
H	-0.5638828619	 2.0374659253	 0.8369175396	 0.116347
H	 0.5588237614	-0.194564015	 0.9166956607	 0.106773
H	-0.991676718	-0.3097829345	 0.0928447401	 0.107029
H	-1.0827587803	-0.7012276654	-2.3955683079	 0.089732
H	 0.1499268241	-1.5995229897	-4.3520098274	 0.102777
H	 4.6849633287	-1.1330076851	-1.5001500212	 0.114022
H	 4.4070742056	-2.4777726169	-2.6280431346	 0.13869
H	 4.6310053829	-0.84996065	-3.2539036749	 0.13868
H	 2.6877015476	-0.4421205567	-0.3555460516	 0.086102
