23
gdb 80898	1.99334	1.62957	1.42789	1.2413	86.55	-0.2523	0.0783	0.3306	1123.9636	0.203952	-388.241784	-388.231843	-388.230899	-388.275719	38.514	
C	-0.1048544325	 1.5874395084	 0.110038878	-0.465308
C	-0.0621304381	 0.0555117231	-0.0140187214	 0.325401
C	-1.5165064047	-0.3878509497	-0.2281616371	-0.476908
C	 1.0835899665	-0.5906795004	-0.8813949814	-0.155348
C	 2.0946379223	-0.155176791	 0.219439228	-0.282723
C	 0.8709226901	-0.7417595253	 1.0014894986	 0.270343
C	 0.7039284646	-0.8725261584	 2.4926169021	-0.523549
C	 0.9798675377	-1.9025071188	-0.0280439256	 0.117542
O	-0.075976214	-2.8293820341	-0.1185045449	-0.438572
H	 0.8515492325	 2.0734002117	 0.3028258099	 0.109021
H	-0.5122474774	 2.022535994	-0.8098400337	 0.112806
H	-0.7839172902	 1.8736768266	 0.9216543556	 0.112906
H	-1.9340482061	 0.1351260655	-1.0974077304	 0.099833
H	-1.6293508809	-1.455918304	-0.3785493144	 0.142442
H	-2.1258702391	-0.0944429856	 0.6357855825	 0.103599
H	 1.2216339699	-0.510954671	-1.9620700754	 0.058916
H	 3.0211799505	-0.7330514813	 0.2817757336	 0.084723
H	 2.3044806903	 0.9046194931	 0.3239955661	 0.099057
H	 0.6729862656	 0.1098211638	 2.9765453523	 0.117405
H	-0.2255710105	-1.3982003881	 2.7356847545	 0.129394
H	 1.5327455902	-1.4373041835	 2.9340899955	 0.116003
H	 1.930744247	-2.4495057369	 0.0338695405	 0.059374
H	 0.1390240062	-3.4527389982	-0.8189701028	 0.283643
