13
gdb 25142	3.63078	1.27372	0.94293	5.7235	78.25	-0.2422	-0.0767	0.1656	1140.6427	0.090411	-415.637932	-415.630635	-415.62969	-415.669921	27.489	
O	-0.0605742278	-0.0621858309	 0.0038090097	-0.376548
C	 0.0079018715	 1.1457390724	 0.0090350711	 0.429826
N	-1.194519679	 1.9059278863	 0.0295070214	-0.330241
C	-1.2366017749	 3.2551749143	 0.0369732851	 0.051821
C	-0.0741563159	 3.9598205641	 0.0245415936	-0.211447
C	 1.1336653615	 3.1907831673	 0.0041010401	 0.168905
N	 1.1825270066	 1.87818408	-0.0033657071	-0.376833
C	 2.3789284477	 3.9006761044	-0.0096786871	 0.227118
C	 3.4002309249	 4.5361057317	-0.0207237316	-0.336101
H	-2.0410425156	 1.3546902813	 0.0383485755	 0.273371
H	-2.2181495143	 3.7152250092	 0.0528130778	 0.148318
H	-0.0562974805	 5.0389373242	 0.0297349073	 0.123525
H	 4.3159900458	 5.0749602256	-0.0308295658	 0.208288
