17
gdb 36320	4.10924	1.08833	0.94673	5.15	77.32	-0.2494	-0.0047	0.2447	1215.9216	0.138009	-380.865284	-380.857647	-380.856702	-380.897907	29.153	
N	-0.0844533384	-1.1579831092	-0.1333721297	-0.316946
C	-0.065484936	-0.0069837211	-0.0281570861	 0.260718
C	-0.010333215	 1.4461429083	 0.1054102686	-0.338488
C	 1.4316837316	 2.0031282533	 0.0081667772	-0.045374
C	 2.1067394355	 1.7157474795	-1.3237590578	-0.086751
C	 2.5184681786	 2.8269791235	-1.9362048947	-0.053455
C	 2.1480378949	 4.03502164	-1.1403996276	-0.083406
N	 0.6699033036	 4.183084747	-0.9921553534	-0.331457
C	 1.4585589976	 3.5325636674	 0.0762551948	-0.078292
H	-0.6175777206	 1.9098316091	-0.6779492057	 0.174047
H	-0.4535777682	 1.7214122408	 1.069185137	 0.145192
H	 2.0169755778	 1.5790288875	 0.8344477092	 0.100956
H	 2.1909676586	 0.7075665403	-1.71262978	 0.123994
H	 3.020634837	 2.8741350029	-2.8946365304	 0.106878
H	 2.7608102326	 4.9297274229	-1.1407731037	 0.096225
H	 0.4627245375	 5.1370327669	-0.7007032652	 0.232458
H	 1.5449372428	 4.0256155808	 1.0384157775	 0.093702
