17
gdb 68742	2.57937	1.74912	1.2724	2.9406	74.8	-0.2444	-0.0603	0.1841	1011.4099	0.135064	-421.845171	-421.836914	-421.83597	-421.877512	31.884	
C	-0.0099576149	 1.5638464154	 0.030408615	-0.485863
C	-0.011723588	 0.055441218	 0.0591214468	 0.208727
C	 1.2387533864	-0.7492815864	-0.3071186756	-0.376685
C	 0.6792519273	-0.7661003889	 1.1094150956	 0.307032
O	 1.4178996787	-0.2404915149	 2.1542174703	-0.478629
C	-0.2549070663	-1.9014434405	 1.455764849	 0.321291
O	-0.0819101947	-2.6413604029	 2.4007746304	-0.355877
C	-1.3883607537	-1.8299081262	 0.501982416	-0.206381
C	-1.2630561078	-0.7202444423	-0.243886529	-0.112996
H	 0.9501174559	 1.9512401109	 0.3804536637	 0.140509
H	-0.1832821205	 1.9424347708	-0.9830019079	 0.120914
H	-0.7895851643	 1.9705801459	 0.6825652964	 0.129107
H	 1.1431658838	-1.6163949788	-0.9520670953	 0.119985
H	 2.1638237326	-0.1886416059	-0.4061352395	 0.129012
H	 1.424778098	-0.9338892414	 2.8309474556	 0.297006
H	-2.176179261	-2.5693623051	 0.455184174	 0.123074
H	-1.9471216615	-0.4113098675	-1.0283104655	 0.119773
