21
gdb 122587	3.67178	0.73329	0.64232	3.882	79.18	-0.2701	0.0104	0.2804	1777.6184	0.182006	-424.263672	-424.253934	-424.252989	-424.29948	34.578	
C	-0.033235553	 1.6100406353	 0.0864632155	-0.381177
C	-0.0076943627	 0.0835463477	-0.0274877929	-0.16856
C	-1.4061506899	-0.5413195702	 0.0087293914	-0.164046
C	-1.3859082468	-2.0700294204	-0.1173449689	-0.218776
C	-2.7820784269	-2.6866706136	-0.0346996069	-0.189727
C	-2.9222977733	-4.216536619	 0.0962278621	-0.107127
O	-3.568587729	-4.0583332635	 1.401246652	-0.238811
C	-3.4477123069	-2.6917718863	 1.347712017	 0.461244
O	-3.7718676943	-1.9017167569	 2.1757855681	-0.324324
H	 0.9774838464	 2.0290266421	 0.0637229705	 0.11227
H	-0.5986958827	 2.0593701839	-0.7375120167	 0.113861
H	-0.50575703	 1.927775205	 1.0222407803	 0.120409
H	 0.497586814	-0.2077158119	-0.9582762975	 0.092329
H	 0.595974078	-0.3349268548	 0.7886850962	 0.098036
H	-1.9126034693	-0.2653985169	 0.9413746887	 0.129347
H	-2.0140524176	-0.120335866	-0.8043888179	 0.092604
H	-0.9267388258	-2.3605796098	-1.0713213574	 0.103028
H	-0.7547391181	-2.4980714236	 0.6727637722	 0.106334
H	-3.4420131277	-2.2548599881	-0.7937093516	 0.113128
H	-3.5911631655	-4.7138046653	-0.6087877415	 0.125156
H	-1.9869341691	-4.7722370277	 0.1969759373	 0.124802
