13
gdb 48063	2.02947	1.83289	1.10101	4.1235	65.02	-0.2817	-0.1231	0.1586	1046.4377	0.087422	-452.734044	-452.725605	-452.724661	-452.767924	29.113	
O	 0.3186574742	 1.4687110711	 1.8966407397	-0.199273
C	 0.713428639	 1.0454982668	 0.845939592	 0.084992
C	 1.3139492796	 1.9352205067	-0.2470761955	 0.246992
O	 1.9617713244	 1.4147138094	-1.127162408	-0.291901
C	 1.1691166082	 3.4322832312	-0.1687795392	 0.067772
C	 2.4899032729	 4.1792142374	-0.1456541624	-0.232548
N	 1.67444012	 4.1792369232	-1.3384339871	-0.312681
C	 0.0153112842	 4.0026533124	 0.484514069	 0.263712
N	-0.9067939101	 4.4887132991	 0.9823721022	-0.331893
H	 0.7455327838	-0.0299918775	 0.5796390568	 0.128768
H	 2.5221929544	 5.1132071573	 0.4061111052	 0.163389
H	 3.3875735263	 3.5677541652	-0.110643794	 0.148446
H	 2.0272675131	 3.4827636875	-1.9974627986	 0.264224
