15
gdb 54074	2.40862	1.10399	0.7869	3.4723	67.75	-0.2685	-0.0412	0.2272	1357.7993	0.110346	-453.998192	-453.98864	-453.987696	-454.034101	32.68	
N	 0.0952085987	 1.2174807768	 0.5139556484	-0.540913
C	-0.0299929587	 0.0908588325	-0.2213303998	 0.449841
O	 0.7854431533	-0.2944651951	-1.0318235618	-0.353441
C	-1.3494980575	-0.7160273294	-0.0236267724	-0.306854
C	-1.0483180722	-2.2291105253	-0.0283903553	-0.283472
C	-2.2598925099	-3.0733453583	-0.363589141	 0.165743
O	-2.5368742763	-4.1103801085	 0.1746427415	-0.226683
C	-2.1153114804	-0.2953689145	 1.1477641365	 0.294835
N	-2.6874902186	 0.0767750219	 2.0813094875	-0.321897
H	 0.9358546696	 1.7615317651	 0.405790946	 0.275678
H	-0.5686876723	 1.4740827928	 1.2255473627	 0.289085
H	-1.9528064388	-0.4819984206	-0.9125433947	 0.163193
H	-0.3000896902	-2.3781603829	-0.8181376457	 0.171554
H	-0.6209543312	-2.5638950521	 0.9192487551	 0.144877
H	-2.8856410656	-2.6671159324	-1.194276297	 0.078456
