21
gdb 115835	4.27875	0.89558	0.81236	1.6813	78.68	-0.2545	0.0732	0.3277	1444.1675	0.182617	-424.216509	-424.207522	-424.206578	-424.251022	34.004	
O	-0.0843979761	 1.4445393861	-0.0822724445	-0.424334
C	 0.0099494641	 0.0324330283	 0.0404414232	-0.098018
C	-1.3948501682	-0.5425975149	-0.0339486324	 0.047028
C	-2.1205932789	-0.2865075635	-1.3712298215	-0.212643
C	-3.2727213722	-1.3033016828	-1.3482781208	-0.294321
C	-2.6530179987	-2.5359821113	-0.6946851789	 0.449978
C	-3.3949033375	-3.7743901117	-0.4422344278	-0.25619
O	-2.4616236672	-3.6930014517	-1.5228389413	-0.27431
C	-1.4406132988	-2.0794178069	 0.1266023904	-0.326609
H	 0.8044133119	 1.8101720262	-0.0557213039	 0.286851
H	 0.6222883367	-0.3989555774	-0.7695577014	 0.084516
H	 0.4820166245	-0.2527788363	 0.9949895542	 0.083877
H	-1.9839257408	-0.0798452365	 0.7688930546	 0.079513
H	-2.446951829	 0.7490392356	-1.4810389441	 0.110053
H	-1.4412715385	-0.5098424919	-2.2044938529	 0.099744
H	-4.0921546967	-0.9254489845	-0.7235967581	 0.101466
H	-3.6838051195	-1.543694312	-2.3315704899	 0.110433
H	-3.1016506623	-4.4244636359	 0.3823263779	 0.106877
H	-4.4433233426	-3.8484799231	-0.7330282713	 0.107324
H	-0.5462332367	-2.5447791037	-0.3046857171	 0.115147
H	-1.4965365635	-2.3923451721	 1.1731039158	 0.103618
