16
gdb 67005	2.67796	2.01751	1.41242	3.5808	68.07	-0.2456	0.016	0.2616	909.4313	0.126068	-437.889161	-437.88224	-437.881295	-437.920093	28.302	
O	-0.0161542302	 1.3411928406	-0.0179694358	-0.48479
C	-0.0494998658	-0.0361123405	 0.0152506853	 0.344363
C	-0.5001376101	-0.784050301	-1.2602804909	-0.121961
C	-0.2335769969	-2.2812701366	-1.1896115743	-0.245263
C	-0.7007717819	-2.2263010906	 0.3086966251	-0.046246
N	 0.4254305124	-1.9464333925	 1.2000541915	-0.314842
C	 0.9386101789	-0.7017043758	 0.9267792651	 0.346838
O	 1.9538440612	-0.1849353283	 1.3496960313	-0.403549
C	-1.3223894339	-0.8233085814	 0.0210949413	-0.145653
H	 0.8388277997	 1.5752224573	 0.3748588801	 0.299183
H	-0.6702514891	-0.1788773499	-2.1419100055	 0.106603
H	-0.9511639121	-2.8326860083	-1.8040080566	 0.111925
H	 0.7778343979	-2.6598724823	-1.3743008245	 0.097907
H	-1.3305088202	-3.0297424007	 0.6847495422	 0.094836
H	 1.0457424666	-2.679429317	 1.5126462612	 0.252119
H	-2.3054565364	-0.4471181132	 0.2689090247	 0.108532
