18
gdb 41524	3.41707	1.53598	1.1067	3.6341	81.71	-0.2289	-0.0243	0.2046	1089.1205	0.15123	-401.98544	-401.978278	-401.977333	-402.017092	28.14	
C	-0.017137035	 1.4244817489	-0.0637657716	-0.157633
C	 1.4559684621	 1.9291828683	 0.0646450019	-0.361233
C	 2.2330383381	 0.6396947299	 0.0132104014	 0.260801
C	 3.5253447784	 0.3467297323	-0.1387944808	-0.230834
C	 3.9409080914	-1.1026829863	-0.1746924439	-0.268941
C	 2.9009596293	-1.9722445349	 0.5320603147	-0.087708
O	 1.5566965023	-1.7187291823	 0.0911003958	-0.254919
C	 1.2086912681	-0.4189087143	 0.0715500625	 0.372497
N	-0.0082412711	-0.0399375817	 0.0318433112	-0.3038
H	-0.6671336426	 1.8360128973	 0.7156885276	 0.110373
H	-0.4595360289	 1.7166804344	-1.0241055388	 0.111897
H	 1.737326742	 2.6255283483	-0.7301473315	 0.118559
H	 1.6143524984	 2.4477813248	 1.0167839948	 0.121695
H	 4.2825321485	 1.1158668462	-0.2627345598	 0.096777
H	 4.0788365194	-1.4355816381	-1.2132251274	 0.125099
H	 4.9069226916	-1.2465435314	 0.3241124023	 0.114374
H	 3.0671047246	-3.0344628467	 0.3426780744	 0.120864
H	 2.9530828436	-1.8012862445	 1.6156000072	 0.112133
