15
gdb 19605	3.24914	2.39949	1.77352	3.1168	64.26	-0.248	-0.0152	0.2328	768.2297	0.119496	-362.622149	-362.615656	-362.614712	-362.652664	25.06	
C	 0.0468741622	 1.6069416853	 0.0777268891	-0.427254
C	 0.113923204	 0.0891337433	-0.003862652	 0.01222
C	 0.8630627624	-0.6355681821	-1.1218981465	-0.044319
C	 2.3228778111	-0.7494099001	-0.7837159443	-0.188653
N	 1.2938520674	-1.7510609119	-0.2447322313	-0.152507
C	 1.0700315897	-0.7105403711	 0.9151676254	-0.156105
C	 2.4745261128	-0.192100059	 0.5931612889	 0.469441
O	 3.3813116854	 0.2516226467	 1.2368992191	-0.335767
H	 1.0404284056	 2.0606542532	 0.0142466823	 0.134349
H	-0.5629193842	 2.0112242594	-0.7368137433	 0.124546
H	-0.407351255	 1.9249060635	 1.0218704854	 0.128551
H	-0.8878005367	-0.3486989114	 0.0631644818	 0.097192
H	 0.5330435959	-0.8211306802	-2.1391741522	 0.108201
H	 3.0771293869	-1.0292108703	-1.5076816084	 0.123745
H	 0.7992186323	-1.0435971153	 1.9139086761	 0.10636
