15
gdb 128353	4.8017	1.06684	0.87839	6.564	73.06	-0.2313	-0.0737	0.1576	1256.303	0.11262	-453.948953	-453.940833	-453.939889	-453.981821	29.753	
C	 0.0219119187	 1.4451633376	 0.0064079029	-0.317184
N	-0.0055142947	-0.0044030413	 0.114408139	-0.355378
C	-1.201892567	-0.6787377909	 0.0390476809	 0.42051
N	-2.2982419015	 0.0207712973	 0.0384707521	-0.175292
O	-3.5042117387	-0.6911245755	 0.0568166185	-0.262972
C	-3.6027973789	-2.0624214375	 0.0191428948	 0.448144
O	-4.6981296429	-2.5627161152	 0.0172244848	-0.343252
C	-2.3359646057	-2.792133826	-0.0105093007	-0.219018
C	-1.1740666875	-2.1267743684	 0.0062140054	-0.128188
H	 1.0542432614	 1.7831611903	 0.1142280836	 0.12496
H	-0.3842837757	 1.8053440723	-0.9480012988	 0.135601
H	-0.582068652	 1.8803568169	 0.8059925891	 0.160007
H	 0.7802435637	-0.4914097048	-0.2869169254	 0.248212
H	-2.4054685869	-3.8725258148	-0.036639855	 0.141774
H	-0.2159117924	-2.6383313501	 0.0036066388	 0.122077
