21
gdb 111749	2.42021	1.16994	0.93734	2.2528	78.39	-0.2354	0.0626	0.298	1344.4663	0.18151	-424.177376	-424.1678	-424.166855	-424.212382	35.239	
C	 0.3690212723	 1.2330887306	 0.617926727	-0.372389
C	-0.0343018944	 0.1515977323	-0.3948322065	-0.298294
C	-1.427787028	-0.3686744686	-0.1743989854	 0.260373
C	-1.8251605948	-1.3941192909	 0.8918585834	-0.140223
O	-2.7970722814	-2.0109414437	 0.0058393682	-0.290025
C	-2.3852215322	-1.1431816314	-1.0569609483	 0.006446
C	-2.6833688755	 0.2936519643	-0.7306656645	-0.112083
C	-3.8973077589	 0.7239562212	 0.0610089202	-0.097516
O	-5.0594243694	 0.7996505873	-0.7541502083	-0.41846
H	 1.3883201425	 1.585404429	 0.4332194264	 0.114809
H	-0.3032079784	 2.0951803466	 0.5593264422	 0.122006
H	 0.3298609321	 0.8508409505	 1.6436538323	 0.117778
H	 0.0412246486	 0.5562024543	-1.4114716582	 0.102122
H	 0.6771855086	-0.6834637787	-0.3437064951	 0.100144
H	-1.0137065542	-2.0984299401	 1.1135519966	 0.106793
H	-2.2716567786	-1.0441437727	 1.8293765968	 0.10668
H	-2.2915014082	-1.5693171258	-2.0501966936	 0.102919
H	-2.4472255534	 0.9604068219	-1.5590951267	 0.093315
H	-4.0590542092	 0.0516930283	 0.9133079363	 0.101337
H	-3.7489969438	 1.733211488	 0.4593130721	 0.10794
H	-5.2345751037	-0.0910945323	-1.075753285	 0.28633
