18
gdb 16553	3.01207	2.63065	2.19549	1.1388	70.84	-0.2303	0.0184	0.2487	738.7575	0.157755	-347.810327	-347.804331	-347.803387	-347.839962	25.238	
C	-0.0011572351	 1.5384844187	-0.014398867	-0.217755
C	 1.5235699286	 1.7790755781	 0.0012567464	-0.073572
C	 2.022546327	 1.3995344866	 1.4168251851	-0.068402
O	 1.7732319813	 0.035457221	 1.7274183904	-0.247484
C	 0.466021953	-0.4311377516	 1.422751674	-0.068403
C	 0.006655898	-0.0050175502	 0.0070271213	-0.073573
C	 1.1210780189	-0.2938150329	-0.9923317522	-0.05944
C	 1.9846487651	 0.7218571599	-0.9956163587	-0.05944
H	-0.518388237	 1.9810311528	 0.8438126242	 0.086104
H	-0.4526770225	 1.9194139617	-0.934643386	 0.095477
H	 1.8244332149	 2.8036660071	-0.2358816333	 0.062753
H	 3.1063728761	 1.5236995715	 1.5076539462	 0.104586
H	 1.5419185654	 2.0617414515	 2.157428066	 0.083258
H	 0.5180683851	-1.5204753056	 1.5175167739	 0.104586
H	-0.2624966646	-0.0604705157	 2.1642904775	 0.083259
H	-0.9569573179	-0.4676299912	-0.2253056733	 0.062753
H	 1.2218026569	-1.2286677611	-1.5307452801	 0.092647
H	 2.9218017769	 0.7707698694	-1.5372214545	 0.092647
