21
gdb 50087	3.91735	0.73923	0.68384	3.4253	84.78	-0.2442	-0.0156	0.2286	1683.2159	0.181698	-387.075113	-387.065802	-387.064858	-387.110329	34.369	
O	-0.0649433395	 0.1213828399	-0.6576008412	-0.273084
C	-0.0059230302	 1.1837393028	-0.0870580843	 0.16697
C	 1.2159200963	 2.0086374095	 0.0192268725	-0.122779
C	 1.070851054	 3.5284578051	 0.0671495808	-0.293551
C	 1.5329744513	 2.8083641633	 1.2866434821	 0.012986
C	 0.6966799657	 2.7294704762	 2.5528149292	-0.247879
C	 1.014832875	 3.8536304704	 3.5196029699	 0.041549
C	 0.3145085395	 5.1853818028	 3.4151991066	-0.252142
C	 0.0172313932	 4.2624899316	 4.5721619687	-0.280324
H	-0.9110881193	 1.6224885391	 0.393332654	 0.062487
H	 2.0616115435	 1.5981950646	-0.521854613	 0.105346
H	 1.7725837633	 4.1106828747	-0.5187839328	 0.126665
H	 0.0566854844	 3.9171606879	 0.0655300747	 0.121394
H	 2.6017047893	 2.862122923	 1.4817950317	 0.098308
H	-0.3714640139	 2.7608972447	 2.308974135	 0.096033
H	 0.8714543892	 1.7632988601	 3.0448559704	 0.109366
H	 2.0592066508	 3.894310983	 3.8212042559	 0.082519
H	 0.8833031917	 6.0883954992	 3.6070618137	 0.11224
H	-0.4486323897	 5.2990652589	 2.6520716854	 0.109027
H	-0.9433119551	 3.757271888	 4.5825693352	 0.111651
H	 0.3847205804	 4.5318981751	 5.5560689055	 0.113217
