25
gdb 96134	2.35361	1.59032	1.19189	0.0797	91.33	-0.2773	0.0789	0.3562	1186.6018	0.232663	-352.368355	-352.360063	-352.359119	-352.400489	34.68	
C	-0.0123717455	 1.5665670742	 0.0026548124	-0.399819
C	 0.0030627559	 0.0307206987	 0.0200360997	 0.028065
C	 0.53748553	-0.4961622949	-1.3297543611	-0.181903
C	 0.7228873318	-2.0166273188	-1.4394496564	-0.20917
C	 1.9189699683	-2.597195082	-0.661955023	-0.201854
C	 2.0202095556	-2.2035040698	 0.8190478369	 0.019148
C	 0.648368873	-2.0146904618	 1.5295594116	-0.252197
C	 0.7547215733	-0.4844353455	 1.2640937936	 0.02688
C	 2.2865387518	-0.6900046255	 1.072056689	-0.233763
H	 1.0077181521	 1.9680593235	-0.0284465369	 0.113603
H	-0.5440679004	 1.9501600341	-0.8747583806	 0.106465
H	-0.5007741289	 1.9710674819	 0.8952017254	 0.107685
H	-1.0379715392	-0.3136335705	 0.1164960525	 0.066213
H	-0.1621439189	-0.1699323655	-2.1093766465	 0.087583
H	 1.4883675701	 0.0020872087	-1.5642764436	 0.09093
H	-0.2023016875	-2.5145483435	-1.1219293078	 0.094895
H	 0.8497359099	-2.2809660935	-2.4962527506	 0.088389
H	 1.8718413601	-3.6913574965	-0.7357049766	 0.089627
H	 2.8517074816	-2.3003748424	-1.1616100843	 0.090698
H	 2.7207507847	-2.8805674576	 1.317267962	 0.057405
H	-0.2189774599	-2.5458744602	 1.1267371018	 0.08843
H	 0.7167254199	-2.2353082362	 2.5987230275	 0.089649
H	 0.4729587853	 0.1410237737	 2.1172461989	 0.054754
H	 2.8325953187	-0.5311559936	 2.0062778683	 0.089833
H	 2.7897616183	-0.1230844968	 0.2831644878	 0.088455
