20
gdb 68543	2.1214	1.92389	1.60034	2.5984	78.95	-0.2188	0.011	0.2297	986.3369	0.170023	-403.101722	-403.093063	-403.092119	-403.133958	34.907	
C	-0.0181864786	 1.523034725	-0.0450208332	-0.527203
C	-0.0016843851	 0.0184254	 0.0062734815	 0.252034
N	 0.425534598	-0.758081116	-1.239638557	-0.353559
C	-0.256276139	-1.8982390127	-0.5068809879	-0.140624
C	 0.6603557046	-2.00929688	 0.7048842121	-0.069681
C	 0.8305510138	-0.7297739915	 1.0489069338	-0.108875
C	-1.3321483958	-0.854206972	 0.0203818608	 0.416133
C	-2.1564806032	-1.0960852063	 1.2770377976	-0.490703
O	-2.1773264054	-0.3721694707	-1.0135283503	-0.480848
H	 0.9643718376	 1.9045218712	-0.3401588637	 0.130241
H	-0.7598481605	 1.8749293626	-0.767649092	 0.13236
H	-0.2689479859	 1.9465157044	 0.9334495188	 0.115782
H	-0.218055282	-0.4737080702	-1.9825242191	 0.21804
H	-0.5263867167	-2.7905153247	-1.072806017	 0.058487
H	 1.0290988999	-2.9161993587	 1.1615920021	 0.103742
H	 1.3814106542	-0.2841016294	 1.8649988654	 0.101175
H	-1.5493069622	-1.4391628648	 2.1139625693	 0.13205
H	-2.672622351	-0.1750575996	 1.567644558	 0.124974
H	-2.9222015642	-1.8597780447	 1.0844342147	 0.10549
H	-3.0049361285	-0.8617806017	-0.981234024	 0.280985
