15
gdb 128063	4.53501	1.03631	0.848	1.1032	70.06	-0.2371	-0.0657	0.1715	1290.3631	0.112723	-450.089311	-450.080594	-450.07965	-450.124952	29.669	
C	 0.0273277349	 1.4117258469	-0.0390031814	-0.311362
N	-0.0784582059	-0.0306522011	-0.0900014658	-0.308425
C	-1.2795291504	-0.6594992807	-0.0146998067	 0.291518
N	-2.3728621384	 0.0049879992	 0.1050688229	-0.551599
C	-1.1941949611	-2.1410326298	-0.0832665377	 0.322965
N	-0.0579587978	-2.7788593705	-0.2054319769	-0.16827
O	-0.3624101163	-4.1042519389	-0.2346815412	-0.1476
N	-1.7115631643	-4.3043791911	-0.1292939926	-0.058168
C	-2.2341569246	-3.1153182867	-0.0359982719	-0.121737
H	 1.0799061903	 1.689635262	-0.1164820971	 0.123609
H	-0.5298098955	 1.8766793732	-0.8595843442	 0.142827
H	-0.3810992372	 1.8036461215	 0.8988323177	 0.142798
H	 0.7479407143	-0.5948210146	-0.1828548159	 0.269334
H	-3.1807721801	-0.6100280747	 0.1477240616	 0.214541
H	-3.3009112278	-2.9883077348	 0.0591361991	 0.159569
