18
gdb 108811	3.31281	1.18108	0.91531	3.1478	75.97	-0.2261	0.0168	0.2429	1280.9357	0.147997	-435.301162	-435.291982	-435.291038	-435.33533	33.109	
C	 0.0259609731	 1.3675653824	 0.0140023891	-0.237581
O	-0.0219000376	-0.0648164257	 0.0425422451	-0.266451
C	-1.2472652797	-0.5841267474	 0.0261868662	 0.499949
N	-2.3606419104	 0.0348401203	-0.0081153223	-0.377256
C	-3.3977338328	-1.0134177978	-0.021193798	-0.04281
C	-4.3306550065	-0.8933505623	-1.2269370275	-0.375116
C	-2.6448775527	-2.352750251	 0.0042914297	 0.3906
N	-3.1777874946	-3.5039909678	-0.023339928	-0.552295
N	-1.306024257	-1.9718947023	 0.0568175924	-0.420061
H	 1.0845742712	 1.626655355	 0.0267506685	 0.133979
H	-0.4549348237	 1.7475707942	-0.8908114339	 0.146152
H	-0.4849246329	 1.7836660563	 0.8858857676	 0.146465
H	-3.9947019633	-0.9351320776	 0.8964119206	 0.11256
H	-3.7608588888	-0.9434165827	-2.1597126162	 0.11465
H	-5.0541126368	-1.712280169	-1.2169741236	 0.1382
H	-4.8602246523	 0.062227274	-1.1985313996	 0.122202
H	-2.4833651464	-4.2522847796	-0.0014437977	 0.20598
H	-0.5060151087	-2.5811646791	 0.0247325678	 0.260831
