16
gdb 27261	3.34884	1.51199	1.05958	2.8834	72.3	-0.1782	0.0426	0.2208	1078.2116	0.12664	-437.899783	-437.892214	-437.891269	-437.93183	28.951	
N	 0.1248324042	 1.4048823842	 0.0465053709	-0.59469
C	-0.0620952022	 0.0297780493	 0.0138602883	 0.225457
C	-1.1461550104	-0.7799099024	-0.1144496708	 0.111488
C	-2.6329227046	-0.8508249213	-0.2879865896	-0.399469
C	-2.8521310177	-2.391635221	-0.1376137994	-0.087536
O	-1.5767277269	-3.0563954356	-0.3339785929	-0.285257
C	-0.6246358553	-2.1041443933	-0.1760998258	 0.329829
C	 0.7217791984	-2.0598669943	-0.0765494932	-0.21089
O	 1.0737060043	-0.7111493736	 0.0448369437	-0.192519
H	 0.992719691	 1.6608058009	 0.5002114957	 0.25578
H	-0.6542172723	 1.8993484351	 0.4591453608	 0.253712
H	-3.2148460968	-0.3055744714	 0.462311614	 0.110665
H	-2.9591705586	-0.4977251004	-1.2740303607	 0.120704
H	-3.2089394183	-2.6344070943	 0.8704357852	 0.113245
H	-3.5524400767	-2.8042031361	-0.8670095073	 0.118361
H	 1.5330993718	-2.7624325256	-0.071151219	 0.13112
