22
gdb 84126	2.23046	1.48582	1.16058	1.4135	82.96	-0.2369	0.0343	0.2711	1213.2053	0.192465	-404.396463	-404.386508	-404.385563	-404.43103	37.565	
C	 0.1809479026	 1.6094156321	-0.2573724641	-0.394102
C	 0.0385395165	 0.1172144583	 0.0515347641	-0.01214
N	 0.5389729183	-0.6780417382	-1.082040642	-0.317049
C	 1.5164797003	-1.3651872077	-0.6477864813	 0.39318
C	 2.3720427214	-2.286630303	-1.4498120074	-0.477075
O	 1.8483053373	-1.2733799865	 0.6667390175	-0.283612
C	 0.8254380894	-0.4374100932	 1.2953832678	 0.345609
C	 1.5491109043	 0.587228838	 2.1616193484	-0.43117
C	-0.0570368058	-1.3589178437	 2.1379999565	-0.419126
H	 1.2256247282	 1.8847402921	-0.4298040599	 0.118281
H	-0.3772382374	 1.8405784104	-1.1682911415	 0.128675
H	-0.2133764668	 2.2286788813	 0.5544249213	 0.108706
H	-1.0290078823	-0.0982878056	 0.1839753063	 0.077768
H	 2.0502304851	-2.2743440658	-2.4905688088	 0.149322
H	 3.421057413	-1.9807384697	-1.3849128395	 0.14202
H	 2.3069408081	-3.3058934956	-1.0560450422	 0.141354
H	 2.2265798476	 1.205035435	 1.5683342712	 0.124153
H	 0.8334265305	 1.2438663186	 2.6651555638	 0.119408
H	 2.1383961006	 0.0771534956	 2.9293252883	 0.122622
H	 0.5329457199	-1.8721586452	 2.9029704647	 0.120154
H	-0.8428892304	-0.7811385132	 2.6359109808	 0.117024
H	-0.5368205904	-2.1121415339	 1.5058676458	 0.125998
