18
gdb 46714	3.015	1.72239	1.287	3.6528	76.14	-0.2393	-0.0268	0.2125	992.2544	0.150494	-401.902053	-401.895282	-401.894338	-401.933276	27.452	
O	 0.043283092	-0.0368507387	-0.1685377776	-0.313477
C	-0.0315883035	 1.1590866266	-0.0086090008	 0.391869
C	-1.33490178	 1.9096020565	 0.179240979	-0.327377
C	-1.105744916	 3.1950056239	 0.9908686752	-0.2616
C	 0.2850710656	 3.7644260378	 0.7683031241	 0.055524
C	 1.0885216791	 3.5066530307	-0.5361127035	-0.102356
C	 2.3243916312	 3.7455127422	 0.3474290354	-0.166615
N	 1.4498027289	 2.8718525685	 1.2633247564	-0.163421
C	 1.1962824548	 2.0401055804	-0.0332719489	-0.059628
H	-1.6819278595	 2.1673408145	-0.8314383786	 0.131502
H	-2.0875129604	 1.2470627509	 0.611672076	 0.129453
H	-1.8576109777	 3.950303244	 0.7397798714	 0.108779
H	-1.2099513009	 2.9920644183	 2.0632128171	 0.127811
H	 0.3679408215	 4.7752402589	 1.1799717977	 0.077252
H	 0.8880578101	 3.8575453711	-1.5548284751	 0.071465
H	 3.2630449494	 3.265201036	 0.0605870376	 0.10857
H	 2.491242543	 4.7518683848	 0.7416787192	 0.104061
H	 2.0692282023	 1.4564189136	-0.3338275347	 0.088188
