15
gdb 29085	3.07122	1.41821	0.9761	6.862	73.42	-0.211	-0.0343	0.1767	1143.0094	0.114081	-454.029235	-454.02129	-454.020346	-454.06175	29.812	
C	-0.0180960678	 1.5444298184	 0.0592262164	-0.491996
C	-0.0035190778	 0.0533990464	-0.0610150354	 0.352462
C	-0.0341537328	-0.6270925584	-1.2171093441	-0.118678
N	-0.0165707269	-2.0183120893	-1.2115982579	-0.362703
C	 0.0314837411	-2.8193831483	-0.0896174259	 0.323142
O	 0.0448627643	-4.0282044125	-0.1444948465	-0.342421
C	 0.0669307806	-2.0580097749	 1.2390857706	 0.315612
O	 0.1102196944	-2.6214667708	 2.3082396317	-0.339665
N	 0.0458024661	-0.6801590511	 1.1244180848	-0.416616
H	 0.8790419742	 1.9136931117	 0.5711457709	 0.140561
H	-0.0572723779	 2.0073695088	-0.9285499501	 0.142977
H	-0.8875633821	 1.8916120246	 0.6308602229	 0.140562
H	-0.0728454831	-0.1444652975	-2.1817625647	 0.134728
H	-0.0398422233	-2.5227399384	-2.0868148018	 0.263189
H	 0.0696287409	-0.1907718787	 2.0093492092	 0.258847
