17
gdb 73186	2.45785	1.4625	1.34137	2.4569	73.92	-0.2408	0.0152	0.256	1046.9528	0.133799	-421.750848	-421.742326	-421.741382	-421.784062	32.342	
O	-0.1548055807	 1.5283587442	 0.1393837817	-0.474172
C	-0.0356346343	 0.1513957096	-0.0050465325	 0.325071
C	 0.4349706166	-0.4321244416	-1.3641640395	-0.308367
C	-0.8305385598	-1.3507991617	-1.3991788523	-0.226803
C	-1.2643022962	-0.7963014785	-0.0245657836	 0.079678
O	-0.7317930761	-1.5715336814	 1.0723027823	-0.30323
C	 0.3928375048	-0.6676258806	 1.2556135514	-0.100876
C	 1.6881344249	-1.31786452	 1.288308811	 0.322213
C	 2.7754888493	-1.8321938528	 1.2989357831	-0.448821
H	 0.6658403993	 1.9395251594	-0.1540609853	 0.287295
H	 0.4331962962	 0.3293778706	-2.1478326033	 0.105039
H	 1.4042730565	-0.9342042158	-1.3494249119	 0.118748
H	-1.5210521727	-1.1062666567	-2.2098744072	 0.106633
H	-0.6450304107	-2.4259377038	-1.3939298581	 0.119657
H	-2.2981388591	-0.4863902506	 0.1401490469	 0.086251
H	 0.2468894449	-0.0595602355	 2.1585874332	 0.109087
H	 3.7314345574	-2.2947532449	 1.3218748041	 0.202596
