17
gdb 104940	3.11977	0.86066	0.72891	1.1404	93.43	-0.2324	-0.0217	0.2108	1552.567	0.132707	-384.608718	-384.599167	-384.598223	-384.643369	34.921	
C	 0.151649946	 1.2609191571	 0.2678565795	-0.253258
O	-0.1986277558	-0.046584554	-0.1587547617	-0.260771
C	 0.586263666	-0.5305411295	-1.2092077054	 0.195347
C	 1.932393982	-1.1476512108	-0.8442818552	-0.314717
C	 0.767072587	-2.0295671005	-1.2022977773	-0.309462
C	 0.4555186245	 0.1581485065	-2.4642606194	 0.553249
C	 0.3285628903	 0.7644690036	-3.5060365633	-0.425376
C	 0.1980980843	 1.4301255999	-4.6841624159	 0.305431
C	 0.0809539405	 2.0242729953	-5.7294231603	-0.576165
H	 1.1937206295	 1.3052907378	 0.6141727005	 0.108746
H	 0.0151807676	 1.9964641896	-0.5350926929	 0.126344
H	-0.5145865725	 1.5061296029	 1.0973253395	 0.130529
H	 2.7498331808	-1.0472878453	-1.5481844209	 0.13075
H	 2.2058877695	-1.0794690699	 0.2025275102	 0.128854
H	 0.2579127575	-2.5449725669	-0.3963992467	 0.1359
H	 0.7707491448	-2.5405883758	-2.1571656202	 0.132601
H	-0.0208537418	 2.5428862799	-6.6501377106	 0.191997
