14
gdb 50416	2.26219	1.73758	1.12739	4.3646	66.39	-0.2587	-0.0559	0.2028	1030.3794	0.101894	-432.888256	-432.880484	-432.87954	-432.92134	27.643	
O	 0.1926875695	-0.1843392907	 0.1540474976	-0.245888
C	 0.0541602469	 1.0024822689	 0.007602633	 0.156707
C	 1.2394015156	 1.9656532418	-0.0189119311	-0.116346
N	 2.5092202681	 1.2472248675	-0.027163669	-0.293384
C	 3.0157510223	 1.3760517478	-1.3112012148	 0.076801
N	 2.4852117511	 2.2377625534	-2.091017164	-0.233339
C	 1.3831892938	 2.8457102857	-1.3232250118	-0.133142
C	 0.1503232207	 2.9454139726	-2.1124230411	 0.295611
N	-0.8419813841	 3.0258669046	-2.698392515	-0.319746
H	-0.9444266758	 1.4734014222	-0.0815401851	 0.125678
H	 1.137847863	 2.617048322	 0.8580791206	 0.128786
H	 2.4523439703	 0.3051140224	 0.3460851597	 0.262616
H	 3.8709958857	 0.7731779712	-1.6002978323	 0.147401
H	 1.6711871031	 3.8654589806	-1.0398725869	 0.148244
