15
gdb 51610	2.37268	1.12985	0.82823	6.1896	64.04	-0.282	-0.0134	0.2686	1324.0289	0.109663	-494.909733	-494.900867	-494.899922	-494.944732	30.139	
O	 0.4101597463	 0.1324922152	-0.2848812816	-0.254491
C	 0.4937459569	 1.2658201637	 0.0689257244	 0.178269
O	 1.057456389	 2.2265925622	-0.7106248727	-0.187017
C	 1.0262241633	 3.5443247243	-0.2238515553	 0.056459
C	 1.8732620399	 3.9326472963	 0.9643652469	-0.344511
C	 2.28662288	 4.3490664351	-0.4170761032	 0.081063
O	 3.4311898361	 3.708102718	-0.9141740759	-0.189353
C	 3.4061120382	 3.3376102755	-2.2244080291	 0.189145
O	 4.3478364786	 2.8353472171	-2.7512858808	-0.261721
H	 0.1385821974	 1.6616135398	 1.0375584881	 0.093394
H	 0.0754344691	 4.0458850639	-0.3810231013	 0.125045
H	 1.4961286779	 4.6786207192	 1.6536352109	 0.138382
H	 2.4815289763	 3.1510658972	 1.4056096511	 0.157509
H	 2.1921961129	 5.3898758357	-0.7126630605	 0.123651
H	 2.441690668	 3.5592758667	-2.7137952909	 0.094176
