22
gdb 85907	2.64322	1.36767	1.20174	1.9655	81.32	-0.2325	0.0742	0.3067	1170.7856	0.194266	-404.342693	-404.333582	-404.332638	-404.37567	36.254	
C	 0.0496590004	 1.5976498675	 0.0555588953	-0.403119
C	 0.0283670278	 0.0685419122	 0.027458378	 0.034554
C	 0.7597579835	-0.550214196	-1.1907077396	-0.29969
C	 1.2479570263	-1.9566121185	-0.7457948612	 0.410054
C	 0.1837772863	-3.0381424722	-0.9744108191	-0.434456
O	 2.4728249467	-2.3396016417	-1.3631686284	-0.479907
C	 1.4821555628	-1.7750695565	 0.7462152404	-0.060459
N	 2.2026412673	-0.5313849297	 1.0872967792	-0.340042
C	 0.7303320502	-0.5867958408	 1.2120425353	-0.043693
H	 1.0809546665	 1.9583610252	 0.1185061215	 0.132787
H	-0.4061043842	 2.0182776349	-0.8470249222	 0.108985
H	-0.501094856	 1.9882999948	 0.9184523537	 0.104789
H	-1.0158651349	-0.2730765733	 0.033974252	 0.068166
H	 0.1238870197	-0.592392113	-2.0808705668	 0.080024
H	 1.6449591757	 0.0438196821	-1.4293254379	 0.122796
H	-0.0174448896	-3.1550451585	-2.0459487609	 0.10388
H	 0.5270767978	-4.001928793	-0.5860654147	 0.119608
H	-0.7619938851	-2.7833207355	-0.4854380543	 0.11801
H	 2.3047682022	-2.454267765	-2.3044704299	 0.27193
H	 1.6256567537	-2.6551472234	 1.3658421567	 0.078963
H	 2.6239693822	-0.6406576755	 2.0061220443	 0.229528
H	 0.2832328907	-0.5403429841	 2.2008521684	 0.07729
