19
gdb 87591	3.2587	1.31462	1.21791	1.8869	81.47	-0.2328	0.0017	0.2345	1113.6068	0.159459	-385.8652	-385.85734	-385.856396	-385.897367	31.219	
C	-0.1056206883	 1.5125323872	-0.0684571985	-0.409974
C	 0.0190856491	 0.0074976213	 0.0174465871	-0.032254
C	 1.3374958459	-0.6795322061	-0.1898153583	-0.347483
C	 0.7010723943	-0.6754635538	 1.1919696642	 0.324017
C	 1.3071951259	 0.0418100354	 2.3505374494	-0.161095
C	 1.2293927645	-0.678542368	 3.4767608586	-0.109916
C	 0.4971963134	-1.9544253788	 3.2160878654	-0.016026
O	-0.8678190834	-1.7554132976	 2.7700615074	-0.264211
C	 0.150443	-1.9492083626	 1.7834813742	-0.058325
H	 0.8069587751	 2.014647813	 0.2664497133	 0.115101
H	-0.2898755157	 1.8247641281	-1.1022410854	 0.119535
H	-0.9343624129	 1.8784968484	 0.5463903396	 0.128905
H	-0.8516083484	-0.5280998772	-0.3529331787	 0.094348
H	 1.3641955497	-1.6240020983	-0.724993342	 0.113731
H	 2.2185266855	-0.0612689674	-0.3310555971	 0.11259
H	 1.7321186898	 1.0353140821	 2.2697097765	 0.103289
H	 1.603325051	-0.3851381222	 4.4491582929	 0.101472
H	 0.6606750966	-2.8539857202	 3.8016067159	 0.094745
H	 0.0519533977	-2.8456832333	 1.1753426252	 0.091551
