17
gdb 66263	2.01676	1.62798	1.40866	1.5724	74.29	-0.2419	-0.0355	0.2064	1044.2611	0.133746	-421.810014	-421.801119	-421.800175	-421.843482	32.962	
C	-0.1344375535	 1.6143978628	-0.0118723123	-0.439876
C	 0.0061305236	 0.087425767	-0.051479729	-0.038842
C	 0.8690863397	-0.4715287462	-1.2064344105	-0.114494
O	 1.3856262067	-1.7138179449	-0.7387641285	-0.246964
C	 1.7237416265	-1.5579876686	 0.6230665732	-0.179287
C	 0.8360222776	-0.4361342745	 1.1627342942	 0.352631
O	 0.8117370552	-0.0036077766	 2.2794700557	-0.298774
C	-1.2906072745	-0.5817273874	-0.0029498281	 0.353896
C	-2.3574582697	-1.1333292328	 0.0526040871	-0.492888
H	 0.8472490587	 2.0914059186	-0.0904334357	 0.120307
H	-0.7644011151	 1.9679086654	-0.8318651527	 0.129828
H	-0.5872498994	 1.9164767553	 0.9349447711	 0.15214
H	 0.3040682053	-0.667083459	-2.1184822606	 0.129821
H	 1.6851461912	 0.2351223214	-1.4298643445	 0.095122
H	 1.5568838741	-2.4985328586	 1.1559750858	 0.148214
H	 2.7776355791	-1.2647812765	 0.761272069	 0.125044
H	-3.3015245556	-1.6178669553	 0.0975176658	 0.204123
