17
gdb 64848	3.29927	1.03074	0.89754	4.623	79.87	-0.2593	0.0035	0.2628	1308.6708	0.134655	-380.826636	-380.817644	-380.8167	-380.860329	33.666	
C	-0.199212783	 1.6116372447	 0.0149974693	-0.451446
C	-0.0315835013	 0.0869529478	-0.0258919161	 0.165323
C	 0.7722879052	-0.4302558147	-1.2602231652	-0.28321
C	 1.991362352	-0.5323770332	-0.2955643434	-0.175104
N	 1.0393372397	-0.4582820225	 0.8465329699	-0.323355
C	 2.8243397374	-1.7205808728	-0.3524181152	 0.347861
C	 3.5235634357	-2.6957550455	-0.4177811981	-0.426224
C	-1.3324567064	-0.5620899373	 0.1964053099	 0.270936
N	-2.3651683806	-1.0562622856	 0.3539082862	-0.336831
H	 0.7571213156	 2.1011948718	-0.1924617885	 0.127174
H	-0.9283370771	 1.9451480736	-0.7293227254	 0.143824
H	-0.5509481956	 1.9327295202	 1.0002194786	 0.140054
H	 0.4361614932	-1.4062993494	-1.6061554166	 0.146749
H	 0.8612538563	 0.2594977717	-2.0991052163	 0.124387
H	 2.630787873	 0.3572373345	-0.3849191507	 0.101122
H	 1.3160254988	 0.1388929979	 1.619452193	 0.226044
H	 4.1322969872	-3.5646748912	-0.4683461714	 0.202695
