11
gdb 25359	6.9608	0.91379	0.80775	2.0089	68.73	-0.291	-0.1024	0.1886	1265.4556	0.066367	-451.590349	-451.583206	-451.582262	-451.622539	24.835	
O	 0.0201838099	-0.0282413343	-0.0012209945	-0.239036
C	 0.0184589037	 1.1758344454	 0.0083263049	 0.082764
C	 1.2429369529	 1.998872374	 0.0021710486	 0.297577
N	 1.3010982813	 3.2966736221	 0.0116926883	-0.311262
C	 2.6558524131	 3.5795356548	 0.0001616338	 0.14604
C	 3.3504143285	 2.4000875221	-0.0166590513	-0.074849
O	 2.4623687485	 1.3915327176	-0.0154769535	-0.131168
C	 3.1821393933	 4.8983900956	 0.0053095452	 0.224939
N	 3.6341210757	 5.9629247247	 0.0091563676	-0.316008
H	-0.9003564343	 1.7916978569	 0.0228720833	 0.127786
H	 4.3968981974	 2.146627261	-0.0295913424	 0.193217
