18
gdb 6439	4.18786	1.39253	1.2656	5.0378	72.34	-0.2426	0.0286	0.2712	1024.0903	0.153386	-343.985094	-343.976612	-343.975668	-344.017803	31.546	
C	 0.5831973626	 1.5730734256	-0.046719937	-0.41298
C	-0.0631845254	 0.194621462	-0.0437151116	 0.090292
C	 0.3121118487	-0.7526141721	-1.2161145215	-0.308041
C	 1.0736509198	-1.6264070039	-0.1652339251	 0.181174
C	 2.6016657117	-1.6061080715	-0.2826043387	-0.450856
N	 0.4942744413	-0.794203043	 0.9194833953	-0.346937
C	 0.6103444751	-3.0236673895	-0.0937625428	 0.271918
N	 0.2540239428	-4.1227527931	-0.0601466524	-0.345807
H	 1.6619059826	 1.5163621586	-0.2292090142	 0.116239
H	 0.1408046155	 2.2040152058	-0.8253873216	 0.126056
H	 0.4271286816	 2.0757313739	 0.9144787399	 0.125693
H	-1.1442799687	 0.3085140812	 0.0960178999	 0.087222
H	-0.5317522304	-1.2549036316	-1.68857085	 0.130326
H	 0.9555253258	-0.3235329905	-1.9869780631	 0.113533
H	 2.9576115649	-0.5775779872	-0.3882610521	 0.123942
H	 3.0616953539	-2.0472694282	 0.6073465108	 0.139036
H	 2.932708617	-2.1802959843	-1.1533275189	 0.14157
H	 1.1781740213	-0.4319779022	 1.576096233	 0.217621
