19
gdb 83941	2.24807	1.69728	1.48406	2.6512	73.86	-0.2336	-0.0186	0.2149	998.8908	0.161324	-423.038762	-423.030972	-423.030028	-423.070709	30.95	
O	 0.1374262955	 1.4063008939	-0.1231755932	-0.435279
C	 0.005993015	 0.0192425559	 0.0117237654	 0.152284
C	 0.234866397	-0.6751615426	 1.3999817016	-0.184911
C	-0.452949293	 0.1612747748	 2.5038855106	-0.234329
C	-1.9870422716	 0.1818204146	 2.2987738502	-0.216421
C	-2.3989661601	 0.1804795693	 0.8067093196	-0.23436
C	-1.4082019239	-0.6588884921	-0.0330342173	-0.184914
C	-0.7629938411	-1.7225548475	 0.873672922	 0.423616
O	-0.890172413	-2.9057161786	 1.0060418015	-0.321526
H	-0.4221811946	 1.8480242955	 0.52251597	 0.286755
H	 0.6633544378	-0.4112895276	-0.7468847413	 0.103615
H	 1.2411891471	-0.9952197827	 1.673352749	 0.087602
H	-0.2195286304	-0.2536727621	 3.4884040388	 0.117238
H	-0.0266707547	 1.1729634777	 2.4917185351	 0.104443
H	-2.3952493676	-0.7260243156	 2.7565519788	 0.127434
H	-2.4411968266	 1.0245721815	 2.8290498359	 0.099478
H	-3.4106372788	-0.2222435702	 0.7053147282	 0.117252
H	-2.4336352176	 1.1967293678	 0.3926720372	 0.10442
H	-1.8193593696	-0.964912832	-0.9959224423	 0.087604
