16
gdb 123813	5.53455	1.00001	0.89881	2.9716	70.53	-0.2323	0.0127	0.245	1272.426	0.126259	-434.065976	-434.058412	-434.057468	-434.098969	28.049	
C	-0.3742027839	 1.1063846806	-0.1172898799	-0.279007
C	 1.1006668803	 1.0332973089	 0.2330696743	-0.299841
C	 0.3241961398	-0.2160167727	-0.0127423078	 0.160216
O	 0.0915848938	-1.0094842838	 1.1303896497	-0.256613
C	-0.9117502343	-1.8880685408	 1.0393335751	 0.445787
N	-1.6509693495	-2.072892734	-0.0454013563	-0.311243
N	-2.4898480977	-3.0630329984	 0.3762070534	-0.198254
C	-2.2139053863	-3.3993718634	 1.6475210403	 0.030881
N	-1.2133318492	-2.673837695	 2.108333708	-0.329117
H	-1.0587261767	 1.3627495286	 0.6828858552	 0.126543
H	-0.6692911476	 1.4536688628	-1.1008997798	 0.118789
H	 1.8357682511	 1.3341562734	-0.5045073128	 0.117984
H	 1.3748354274	 1.2384135381	 1.2614618523	 0.131594
H	 0.4943878041	-0.7975217654	-0.9130723301	 0.112456
H	-3.1903791151	-3.4228229706	-0.2495739857	 0.281002
H	-2.7532795162	-4.1606444184	 2.1910107341	 0.14882
