21
gdb 62622	2.24268	1.84413	1.57084	1.1335	81.48	-0.2437	0.0738	0.3174	1005.0213	0.181319	-387.047165	-387.038498	-387.037554	-387.07942	35.105	
C	-0.0226643113	 1.5705845162	 0.0213862025	-0.465223
C	 0.0752174204	 0.0507458956	 0.0254266154	 0.397678
O	-1.2194911964	-0.5164543371	-0.1657719816	-0.486137
C	 1.1261457346	-0.6568037798	-0.8319702995	-0.131631
C	 2.4124055732	-0.774678001	 0.0007981049	-0.076785
C	 2.145441789	-0.1357254818	 1.3612210207	-0.291744
C	 0.7074969536	-0.7164773618	 1.2393804154	 0.289586
C	-0.1273533127	-1.0233740727	 2.4536630266	-0.512829
C	 1.2842353889	-1.7580137111	 0.1818201772	-0.124571
H	 0.9515507314	 2.0488884955	 0.1462892012	 0.120542
H	-0.4346563577	 1.9171226348	-0.9349373594	 0.101078
H	-0.6925816673	 1.9158849466	 0.8153372179	 0.12216
H	-1.5242736636	-0.2670005423	-1.0442463252	 0.273257
H	 1.1481247748	-0.740185621	-1.9128013878	 0.073364
H	 3.3666712208	-0.941449303	-0.4834222359	 0.082365
H	 2.7040099722	-0.650029824	 2.1496513215	 0.094984
H	 2.2594008548	 0.9466157304	 1.4900402462	 0.084409
H	-0.3390871498	-0.1098717136	 3.0226655977	 0.113282
H	-1.0826493017	-1.4689779635	 2.165016801	 0.138923
H	 0.3931729694	-1.7160784227	 3.1236057868	 0.110434
H	 1.2296726675	-2.8326611638	 0.0929776645	 0.086857
