15
gdb 15099	8.26647	0.75031	0.71024	5.3797	79.46	-0.2821	-0.0366	0.2455	1515.125	0.118846	-325.503718	-325.495729	-325.494785	-325.536975	28.298	
N	 0.0561765733	-3.6459364926	-0.3293197339	-0.339841
C	 0.0386788364	-2.4931784616	-0.1847225588	 0.20947
C	 0.0182619667	-1.1390464535	-0.0148500013	 0.024397
C	-0.0033739361	 0.059939444	 0.1343583489	 0.116607
C	-0.002750589	 1.5042106089	 0.3180820288	-0.400131
C	 1.386426379	 2.1179461708	 0.1964900727	 0.034499
C	 1.9396227253	 2.4730306851	-1.1575954808	-0.248081
C	 1.5246463383	 3.5643410873	-0.2006712425	-0.276854
H	-0.6727711057	 1.956923145	-0.4247571432	 0.144176
H	-0.4353359478	 1.7366379717	 1.3005011726	 0.149986
H	 2.0958330156	 1.7418541038	 0.9268719825	 0.103935
H	 2.9968325907	 2.3153474444	-1.3367533118	 0.123201
H	 1.3121718816	 2.2940234468	-2.024561558	 0.120058
H	 0.6192307707	 4.1187119882	-0.4256665806	 0.116481
H	 2.296469241	 4.1545280818	 0.2799381455	 0.122097
