15
gdb 10940	4.54572	1.41327	1.30104	2.8068	65.69	-0.2582	0.0277	0.2858	943.8542	0.11909	-362.64322	-362.636097	-362.635153	-362.674512	27.295	
O	 0.0941061164	 1.3692880278	-0.3723222358	-0.451706
C	-0.02707697	 0.0200923259	-0.1328281583	 0.427385
C	-0.4823601676	-0.8790124519	-1.2290530405	-0.319404
C	-1.260010782	-0.8760964191	 0.0704841314	-0.140556
C	-0.4834429076	-1.7151853016	 1.1053370022	-0.144114
C	 0.757818051	-0.7569840274	 0.9287068407	-0.321659
C	-1.0504872682	-1.7034949461	 2.444503986	 0.261497
N	-1.5056980799	-1.6798168593	 3.5072070631	-0.325035
H	-0.0554275532	 1.8431915489	 0.454129862	 0.290729
H	-0.9797329279	-0.3575426707	-2.0399401172	 0.131753
H	 0.0962705859	-1.7491194897	-1.5338612071	 0.110555
H	-2.3166174423	-0.6494285818	 0.1219475122	 0.114562
H	-0.302845661	-2.7525217571	 0.8041815666	 0.122932
H	 1.6956152706	-1.2247680386	 0.6151197691	 0.115944
H	 0.9331596258	-0.1730893792	 1.8351047056	 0.127116
