18
gdb 8092	3.53348	2.11239	1.71484	1.2833	66.73	-0.2393	0.0748	0.3141	811.7608	0.155594	-384.926828	-384.920025	-384.919081	-384.957219	27.928	
O	-0.1690702485	 1.4010078184	-0.1676401819	-0.483609
C	 0.0195869329	 0.0251150061	 0.0338845018	 0.414895
C	 0.1657537371	-0.5419775288	 1.4776191345	-0.287138
C	-0.5482867166	-1.796596741	 0.9078322811	 0.121804
C	-1.2500395222	-0.8496151929	-0.1078630064	-0.292674
O	 0.4001413092	-2.6622114431	 0.2965701148	-0.27268
C	 0.9865265785	-2.1168206464	-0.8803338709	-0.068896
C	 1.1448724803	-0.5792068936	-0.8257545499	-0.296073
H	 0.6843251157	 1.8406608069	-0.0831121507	 0.274289
H	 1.1686085012	-0.6868464026	 1.8877740206	 0.089806
H	-0.4659587142	 0.0074350693	 2.1804455692	 0.100945
H	-1.1565998007	-2.4123448407	 1.5705642906	 0.08111
H	-2.1082031383	-0.356876563	 0.3542541057	 0.110869
H	-1.5311543325	-1.2319218844	-1.0914438461	 0.100284
H	 1.9509471319	-2.6166781192	-1.007341802	 0.10788
H	 0.3680271235	-2.3788678081	-1.7503230227	 0.099197
H	 1.0893361368	-0.1737392943	-1.8420441535	 0.10537
H	 2.1169849759	-0.2931464726	-0.403737054	 0.094621
