17
gdb 73923	2.70084	1.43301	1.01065	5.7426	79.8	-0.2129	-0.0328	0.1801	1149.6248	0.137384	-418.009238	-418.00126	-418.000316	-418.041636	30.803	
N	 0.1104195983	 1.3571329621	 0.1651914613	-0.604062
C	 0.0102195667	 0.0002563621	 0.0565185217	 0.32531
C	-1.1005883187	-0.7958412734	 0.0066754868	 0.136461
C	-0.7270294036	-2.2676342048	 0.0442344277	-0.303172
C	 0.7948108051	-2.2501353416	 0.0069710416	-0.044429
N	 1.3563028574	-1.6335804566	-1.2101838764	-0.326845
C	 1.2485078986	-0.832320989	 0.0437094607	-0.151379
C	-2.464468312	-0.3474487844	-0.0974529951	 0.056917
O	-3.4393029472	-1.077250681	-0.1455979741	-0.304581
H	 0.9452482108	 1.7888395611	-0.1986441555	 0.262866
H	-0.7252005616	 1.9087257145	 0.0477297088	 0.264964
H	-1.0928621004	-2.7535492388	 0.9569365806	 0.11302
H	-1.150227464	-2.8188742828	-0.801672936	 0.12997
H	 1.3634066397	-3.0309106524	 0.5002561319	 0.094734
H	 2.3246526937	-1.9366997985	-1.3052706326	 0.232451
H	 2.14973227	-0.4921373875	 0.5435344004	 0.096398
H	-2.6018490829	 0.7619051911	-0.1358783118	 0.021376
