19
gdb 50532	2.26482	1.32178	0.90989	1.3017	76.55	-0.2474	-0.0311	0.2163	1290.5879	0.15827	-422.996086	-422.987233	-422.986289	-423.031119	31.813	
O	 0.0355321086	-0.1239164928	-0.1266134711	-0.25473
C	 0.0058575727	 1.0760220715	-0.0312020294	 0.166462
C	 1.2218117064	 1.9627601191	-0.0313019906	-0.171788
C	 1.041164773	 3.2952161659	-0.7961159208	-0.092898
O	 1.0131061329	 4.061109109	 0.4198542961	-0.285765
C	 1.3795576679	 2.9061241953	 1.2114097965	 0.124715
C	 0.5267468494	 2.7176114819	 2.4277633435	 0.008896
C	 1.0420341475	 1.855663998	 3.5581711662	-0.268539
C	 0.9532044068	 3.3469807784	 3.732054228	-0.274872
H	-0.9640358023	 1.6196849385	 0.0509670003	 0.080995
H	 2.1000517308	 1.3654599421	-0.2765348236	 0.098653
H	 1.8911674092	 3.5576258619	-1.438015779	 0.110396
H	 0.1130795283	 3.4044643209	-1.371065647	 0.109887
H	 2.4357877791	 2.965771185	 1.5154453156	 0.076908
H	-0.5412267133	 2.6867234019	 2.2372904298	 0.09018
H	 0.3296231336	 1.2260278329	 4.0780599052	 0.122676
H	 2.0269123429	 1.413291437	 3.4499185688	 0.118293
H	 1.8773117918	 3.9155435225	 3.7371616061	 0.120507
H	 0.1794995145	 3.7490458509	 4.3757517453	 0.120025
