17
gdb 123840	3.59797	1.56653	1.12235	2.2736	81.95	-0.2071	-0.0043	0.2028	1047.608	0.14072	-380.915488	-380.90871	-380.907766	-380.946469	27.427	
C	-0.0425009931	 1.4822526102	 0.0894900203	-0.261589
C	 1.3484552215	 2.1520960389	-0.003356077	-0.34407
C	 2.1819736437	 1.4709977618	-1.0477126692	 0.179523
C	 3.2439048192	 1.8450379323	-1.8354706617	-0.172745
N	 3.6228731065	 0.7284468423	-2.5193872066	-0.191248
N	 2.8778434663	-0.3572372095	-2.2304384009	-0.321092
C	 1.9993795709	 0.092602049	-1.3339681731	 0.306931
C	 0.9490635258	-0.6784762515	-0.6938403576	-0.135487
C	 0.0033504701	-0.0295736625	-0.0005678552	-0.085194
H	-0.5363897753	 1.7913201637	 1.0166547593	 0.101974
H	-0.6801689214	 1.8548646126	-0.7273835476	 0.115377
H	 1.2365752114	 3.2235131578	-0.1979235732	 0.103265
H	 1.8481976148	 2.064964532	 0.972374386	 0.112872
H	 3.7560701331	 2.7857961309	-1.9655498182	 0.13097
H	 4.3572635337	 0.6459955856	-3.2008856533	 0.271995
H	 0.9474198227	-1.7578131808	-0.802272793	 0.097095
H	-0.8044096198	-0.5823802929	 0.4701186908	 0.091423
