22
gdb 88864	3.21576	1.17809	1.03324	1.9471	82.38	-0.2367	0.0727	0.3095	1268.2764	0.195932	-404.331568	-404.322645	-404.321701	-404.365805	33.657	
C	 0.0652115027	 1.5525044333	-0.2678895735	-0.404063
C	 0.1214467969	 0.0733541676	 0.0296273169	 0.002734
N	 1.4454689357	-0.5836856726	 0.066781119	-0.339106
C	 0.622662528	-0.5525428384	 1.2843669807	-0.032006
C	 1.1960201345	 0.1488477656	 2.5059921704	 0.116448
C	 2.2367676625	-0.7477538916	 3.2352222316	-0.246082
C	 3.4214629073	 0.1999833752	 3.4868150306	-0.212596
C	 3.2712521215	 1.184932903	 2.3270777363	-0.072106
O	 1.8651344304	 1.3720442268	 2.1978985735	-0.254784
H	 0.8664961595	 2.0818672712	 0.2442495705	 0.154992
H	 0.1513883916	 1.7226576776	-1.3469584249	 0.108046
H	-0.894353332	 1.9691897468	 0.0590494933	 0.107181
H	-0.6694468045	-0.4983118463	-0.4587100713	 0.075464
H	 1.4071480129	-1.4979098173	-0.3745569485	 0.226215
H	 0.119786469	-1.4794572957	 1.5693325668	 0.073926
H	 0.3625298705	 0.4047327945	 3.1744242485	 0.075646
H	 1.8344503934	-1.1852991392	 4.151710224	 0.101732
H	 2.54191609	-1.5684891237	 2.5784826576	 0.10637
H	 3.3052598499	 0.7242180038	 4.4408806121	 0.104478
H	 4.3865691483	-0.3130591329	 3.4934699933	 0.099461
H	 3.7195604176	 2.1650007294	 2.5138189743	 0.100268
H	 3.689631924	 0.7714691328	 1.3987607791	 0.107783
