19
gdb 99473	2.57771	1.0256	0.76878	3.0427	77.91	-0.2473	-0.0222	0.2251	1488.2308	0.15505	-423.008962	-422.99821	-422.997266	-423.046246	37.654	
C	 0.4676334878	 1.5679519329	 0.1352882734	-0.380182
C	 0.9495175049	 0.1629139039	-0.2168141591	-0.283459
C	 0.1279002175	-0.5000322876	-1.3066674368	 0.383776
O	-0.7412322484	 0.0787137443	-1.913536838	-0.298144
C	 0.4088160174	-1.9946239585	-1.5986239742	-0.284843
C	-0.2541923324	-2.447984925	-2.9220140247	-0.056123
O	-0.1248295434	-3.8370236307	-3.1270509675	-0.423529
C	 1.8279452579	-2.332417058	-1.5926317444	 0.299344
C	 2.9893451226	-2.6412246517	-1.6554953265	-0.469079
H	 0.4850363515	 2.2166804047	-0.7436558244	 0.135671
H	-0.5609784436	 1.5499259025	 0.5053686079	 0.129521
H	 1.1042717908	 2.009815795	 0.906520383	 0.113141
H	 1.9927843448	 0.1709381818	-0.5582150322	 0.142909
H	 0.9509531189	-0.4988457891	 0.6599983989	 0.123903
H	-0.0777909107	-2.5515429405	-0.7823113188	 0.138808
H	-1.3213391389	-2.2276447776	-2.8729603591	 0.131908
H	 0.1692421517	-1.8635101463	-3.7508561458	 0.103771
H	 0.8178453201	-4.0381644848	-3.1583969777	 0.286264
H	 4.0190030413	-2.9011713754	-1.6841947741	 0.206342
