20
gdb 95668	3.15339	1.19526	0.90344	5.8743	87.75	-0.2043	-0.0225	0.1819	1299.9554	0.172781	-403.180081	-403.171295	-403.170351	-403.213989	32.682	
C	 0.0567046564	 1.2965563601	-0.7947959983	-0.340403
N	 0.061763476	 0.1222557575	 0.0617656082	-0.057387
C	-1.2317062912	-0.1990032758	 0.6530359135	-0.14524
C	-1.4050084607	-1.6520653678	 1.0930636842	-0.236643
C	-0.7104173894	-2.0099492173	 2.4076608075	-0.305603
C	 0.8148044211	-2.0971444179	 2.3733005375	 0.345096
O	 1.3750615478	-2.8692320416	 3.1389703558	-0.35878
C	 1.5939464524	-1.2728628711	 1.4601744112	-0.229874
C	 1.2512997108	-0.3526260905	 0.5179977668	 0.049609
H	 1.0365633697	 1.4268733569	-1.2572855688	 0.138534
H	-0.6872793242	 1.18122171	-1.5907864293	 0.131742
H	-0.1851414079	 2.2131190882	-0.236033102	 0.12679
H	-1.4327731828	 0.4712840534	 1.5060585435	 0.106281
H	-1.9843361845	 0.034453302	-0.1082123355	 0.109361
H	-2.4815341174	-1.8162599464	 1.2144719454	 0.108983
H	-1.0781974342	-2.3190831902	 0.2868906284	 0.117621
H	-0.9815534421	-1.2735474744	 3.1770934714	 0.115654
H	-1.0598854108	-2.9775485588	 2.7778803945	 0.121522
H	 2.6602156572	-1.4472565203	 1.5586562585	 0.090909
H	 2.0854026237	 0.1000625839	-0.0130545621	 0.111828
