22
gdb 78227	2.23245	1.55393	1.24744	1.7469	82.28	-0.226	0.0654	0.2914	1154.9648	0.192379	-404.310076	-404.300404	-404.29946	-404.343497	37.739	
C	-0.086280643	 1.5640071869	 0.0616538058	-0.428561
C	 0.0729757674	 0.0677051733	-0.0985998321	 0.009592
C	 0.6219422428	-0.6593021469	-1.264027418	-0.076707
N	 1.3284070023	-0.690179525	 0.093692482	-0.165969
C	 2.4548944733	 0.1183880144	-0.5121863395	 0.0059
C	 3.8028170342	-0.5197543335	-0.2285239873	-0.412084
C	 1.818413542	 0.0029727788	-1.9402303177	 0.37092
C	 2.5270063608	-0.9339376358	-2.9132557133	-0.45448
O	 1.485838061	 1.2222029719	-2.5931600665	-0.473181
H	 0.5700558636	 2.1346778179	-0.592817358	 0.147391
H	-1.1163394374	 1.8398971061	-0.1872199151	 0.118892
H	 0.0912126795	 1.856856347	 1.102926204	 0.116101
H	-0.7337478764	-0.4874671353	 0.3801484613	 0.092284
H	 0.1346615051	-1.5441793975	-1.6661627834	 0.082409
H	 2.4635257737	 1.1540435537	-0.1576264939	 0.073797
H	 3.8153978014	-1.5796083147	-0.4951176791	 0.121808
H	 4.6048593003	-0.0116537734	-0.7752717363	 0.106042
H	 4.0251327164	-0.4484138771	 0.8407950367	 0.124469
H	 2.7120789696	-1.9172759189	-2.4747482399	 0.133301
H	 1.9036954612	-1.0659236327	-3.8032404629	 0.125547
H	 3.4923558302	-0.5201905422	-3.2288412392	 0.108111
H	 2.264469202	 1.5257439831	-3.0728692176	 0.27442
