15
gdb 124172	6.64111	0.75667	0.68508	1.4795	80.95	-0.252	-0.0346	0.2174	1621.7601	0.111175	-416.800239	-416.791154	-416.79021	-416.836987	30.385	
C	-0.0338845161	 1.4474931814	-0.0323031081	-0.512758
C	-0.0054979514	-0.0047026131	-0.026681025	 0.298717
C	 0.0174013807	-1.2088606538	-0.0220175099	-0.092117
C	 0.0402914306	-2.6239752536	-0.0164599876	 0.168034
N	 1.1646318277	-3.3080365055	-0.0344608427	-0.18464
O	 0.7295180908	-4.6341478006	-0.02077222	-0.185036
C	-0.6124780292	-4.6072094828	 0.0040477433	 0.387202
C	-1.3377625879	-5.9038182024	 0.0230038431	-0.506509
N	-1.1024945207	-3.406297551	 0.0080778372	-0.338237
H	 0.4972284866	 1.8538855369	 0.8352508771	 0.160315
H	 0.4447168483	 1.845996387	-0.9334381733	 0.160299
H	-1.0628329596	 1.8208025967	-0.0034762624	 0.160011
H	-1.0894300341	-6.4966579048	-0.8623653935	 0.159648
H	-1.0567226426	-6.4891379666	 0.9035861091	 0.159649
H	-2.410456503	-5.7135976279	 0.0420631527	 0.165421
