14
gdb 28741	6.70188	0.87759	0.77926	1.9194	68.51	-0.2305	-0.0076	0.2229	1378.4057	0.101441	-470.024644	-470.016406	-470.015462	-470.058594	28.836	
N	 0.0629034556	 1.3517055294	-0.0093058622	-0.603118
C	-0.0906547613	-0.0239849107	 0.0111571453	 0.272042
C	-1.1594987896	-0.8443725845	 0.0951286278	-0.115223
N	-0.7534089698	-2.1795027769	 0.074120902	-0.382615
C	 0.5317541898	-2.0904193104	-0.0208807381	 0.51355
O	 1.4523917711	-3.0623502519	-0.0820688591	-0.211549
C	 1.0045235691	-4.362938975	-0.0393238274	 0.114514
N	 1.8649578812	-5.2755621449	-0.0972294561	-0.419117
O	 1.0440844544	-0.8591852764	-0.0666965811	-0.209641
H	 0.6019711451	 1.7043380985	 0.7747854306	 0.254142
H	 0.4805311959	 1.6934580996	-0.86868814	 0.254145
H	-2.1985172979	-0.567259548	 0.1696423846	 0.13297
H	-0.0808031521	-4.4327196959	 0.0421127945	 0.156938
H	 1.4071139085	-6.1843461029	-0.0566566209	 0.242961
