22
gdb 96681	3.33993	0.73895	0.64424	2.0505	82.63	-0.2456	0.0327	0.2783	1811.1338	0.190231	-441.493098	-441.481459	-441.480514	-441.531329	40.115	
C	-0.1537956636	 1.4912715042	 0.3484578762	-0.32566
N	-0.1142901789	 0.0482687231	 0.4439237404	-0.284733
C	-0.9439492059	-0.6622960492	-0.1943615877	 0.411637
C	-2.0638011112	-0.2346390959	-1.1169820801	-0.488802
O	-0.9043566987	-2.0146611021	-0.1028308857	-0.256852
C	 0.0982248566	-2.5773479707	 0.7462460203	-0.06599
C	-0.0195095507	-4.0998679337	 0.6681323028	 0.106529
C	 0.2337653915	-4.643972707	-0.7353191038	-0.397358
O	 0.8492286186	-4.6829533019	 1.6333341081	-0.429495
H	 0.8175471383	 1.8595009224	-0.0031811715	 0.124463
H	-0.9289240219	 1.8996352973	-0.3147320118	 0.099638
H	-0.3061645202	 1.9185216806	 1.3470385216	 0.125745
H	-1.6736520807	 0.3357818636	-1.9649342667	 0.143689
H	-2.5888783257	-1.1115791311	-1.4950793715	 0.140734
H	-2.7789655606	 0.4044283717	-0.5910833543	 0.144681
H	 1.0911850665	-2.2396811342	 0.4213805475	 0.099601
H	-0.0437449742	-2.2355335641	 1.7758021743	 0.120258
H	-1.028617577	-4.3823429328	 0.9896592751	 0.097489
H	 1.2484894383	-4.3900964107	-1.0691714061	 0.102628
H	 0.1314544917	-5.7323539892	-0.7461111898	 0.122708
H	-0.4706250872	-4.2124089145	-1.451107541	 0.130655
H	 1.754922605	-4.5406454559	 1.3360724635	 0.278434
