19
gdb 66135	2.51272	1.46482	1.41219	1.8041	74.75	-0.2395	-0.0278	0.2116	1049.274	0.15833	-423.032003	-423.02351	-423.022566	-423.065232	32.216	
C	 0.113872346	 1.5594308889	-0.2355343727	-0.437257
C	 0.0482284048	 0.038950324	-0.0750376332	 0.260281
O	 0.8027406158	-0.5475692541	-1.1424508838	-0.298776
C	 1.2789998559	-1.8310902719	-0.7231750181	-0.109845
C	 1.4468607826	-1.7364174148	 0.7815121265	-0.048873
C	 2.1544941553	-0.5082206748	 1.2920912965	-0.314489
C	 0.6507946504	-0.5245780289	 1.2023178924	-0.061518
C	-1.4197181603	-0.3856817812	-0.2149954837	 0.128489
O	-2.1909504668	-0.5193701759	 0.6985854697	-0.255371
H	 1.1528995722	 1.8918204714	-0.173745233	 0.131195
H	-0.288103949	 1.8639646526	-1.2066639062	 0.128752
H	-0.4660222541	 2.0477027081	 0.5523819622	 0.134345
H	 0.5571299405	-2.6235277402	-0.9758872894	 0.098875
H	 2.2054918385	-2.0223907951	-1.2745832937	 0.112588
H	 1.4478463278	-2.6488840357	 1.3652099274	 0.095185
H	 2.5898212424	-0.5590506156	 2.2837058075	 0.115678
H	 2.713347962	 0.0948525623	 0.5831220736	 0.121502
H	 0.0355232515	-0.5167109025	 2.0920905316	 0.110553
H	-1.7218922354	-0.5458572667	-1.2758421637	 0.088685
