16
gdb 4352	3.73477	1.91344	1.28526	1.7927	73.74	-0.2403	-0.0311	0.2092	945.1175	0.131181	-342.859275	-342.851466	-342.850521	-342.892758	27.465	
C	-0.0735827337	 1.4992586175	-0.0087752207	-0.470088
C	-0.0265352082	-0.0033095329	 0.028117138	 0.323651
N	 0.0192964174	-0.6336888411	-1.1548817805	-0.324469
C	 0.0615255229	-1.9687425905	-1.1437945597	 0.344156
C	 0.1128317353	-2.674048913	-2.4711618019	-0.458423
N	 0.0623632253	-2.7450510547	-0.0484587483	-0.287055
C	 0.0166582784	-2.108099152	 1.119382681	 0.012452
C	-0.029609236	-0.722984512	 1.220443143	-0.180714
H	 0.8045224516	 1.8902091455	-0.532400241	 0.146256
H	-0.9519878248	 1.8342971218	-0.5693700369	 0.146256
H	-0.1084399622	 1.9297164761	 0.9945901795	 0.121028
H	 1.0128119508	-3.2938777931	-2.5349528507	 0.139401
H	-0.743247372	-3.3484662254	-2.573797982	 0.139404
H	 0.1083411659	-1.9510351957	-3.2868754428	 0.133496
H	 0.0170610847	-2.7314428557	 2.011766739	 0.113268
H	-0.0663378253	-0.2273459347	 2.1833672142	 0.101381
