18
gdb 68426	2.63559	1.60873	1.25316	2.7411	75.27	-0.2643	0.0285	0.2928	1037.0722	0.148592	-401.955718	-401.947882	-401.946938	-401.987897	30.571	
C	-0.0768056884	 1.5097655041	-0.0037339215	-0.50495
C	 0.0302283386	 0.0138025745	-0.0380273671	 0.40781
C	 0.7236636807	-0.8056875676	-1.1529630913	-0.281654
C	-0.3097130337	-1.8235653823	-0.6334729698	 0.076668
C	 0.2054224008	-2.202847954	 0.7690111697	-0.244419
C	 0.4688623189	-0.7393229162	 1.2726801867	-0.181889
C	 1.8375168768	-0.4676263168	 1.6845942527	 0.272714
N	 2.9289303396	-0.2341631169	 1.9884944208	-0.33946
O	-1.2045893937	-0.7062636028	-0.3347614094	-0.324625
H	 0.897471501	 1.9530933987	 0.2235540308	 0.146877
H	-0.4206919265	 1.8929556505	-0.9677225061	 0.134579
H	-0.7870992954	 1.8264091637	 0.767125007	 0.133903
H	 0.4627821957	-0.4252790185	-2.1407756277	 0.117836
H	 1.7903291972	-1.0274603098	-1.0732175601	 0.118775
H	-0.7559127367	-2.600578645	-1.2523284545	 0.09031
H	-0.5591040685	-2.7030443398	 1.3650032572	 0.123041
H	 1.1064782689	-2.8191825268	 0.7501133758	 0.126033
H	-0.2075590253	-0.466508185	 2.0864709467	 0.128452
