17
gdb 19644	4.99431	1.69623	1.59951	2.0932	70.28	-0.209	0.0687	0.2777	865.6929	0.142018	-326.603764	-326.596898	-326.595954	-326.634852	26.647	
C	 0.0608704623	 1.5200728926	-0.1646184545	-0.373918
C	-0.0340233687	 0.0123620061	 0.1095373904	-0.331183
C	-1.4371525797	-0.5020588528	 0.0978777167	 0.369721
C	-1.9688817215	-1.9343335907	-0.0808441135	-0.190755
C	-3.2083204195	-1.5621376026	 0.7680797783	-0.04636
C	-2.7038266975	-0.1762289579	 0.9454949939	-0.121578
N	-3.6186219248	-0.4922464464	-0.2095739161	-0.178379
C	-2.3790856664	-0.8378872397	-1.0343878842	-0.066356
H	 1.1012188714	 1.8582506612	-0.1421593466	 0.112964
H	-0.3575335279	 1.7676462178	-1.1451199964	 0.122417
H	-0.4928444291	 2.0930372133	 0.5864526153	 0.120509
H	 0.5442558493	-0.5385620154	-0.6439498583	 0.10335
H	 0.4340959456	-0.2168331021	 1.0765219232	 0.103898
H	-1.4170158677	-2.8497697557	-0.2417844774	 0.093231
H	-3.9322094199	-2.1435420601	 1.3268669344	 0.094747
H	-2.9400804969	 0.5909918334	 1.6742203913	 0.091727
H	-2.3043607892	-0.7357987209	-2.1103255067	 0.095966
