20
gdb 126574	2.97099	1.01771	0.80991	3.175	81.35	-0.2489	-0.0007	0.2482	1463.6857	0.170305	-403.162629	-403.153127	-403.152182	-403.197887	34.006	
C	-0.0620500944	 1.5639394448	 0.0205438788	-0.379772
C	-0.0943160168	 0.0358152101	-0.0531020036	-0.166495
C	 0.7848262098	-0.5176893787	-1.1909653986	-0.298067
C	 0.7633666371	-2.0138223097	-1.2790079957	 0.317577
N	 1.7686856083	-2.7124191953	-0.8051956463	-0.207662
O	 1.4418089607	-4.048526658	-1.0159021467	-0.170781
C	 0.2443781123	-4.1042933447	-1.6176407515	-0.001098
C	-0.2599965942	-2.8607486138	-1.8223538619	 0.079919
C	-1.5508925935	-2.466328705	-2.4675822246	-0.515383
H	 0.9572464603	 1.9299606077	 0.1853783898	 0.120041
H	-0.4289125451	 2.0149196451	-0.9083584602	 0.113868
H	-0.6858082564	 1.9343066645	 0.8397185364	 0.115201
H	 0.2497570808	-0.3933286662	 0.894908954	 0.115298
H	-1.1280978713	-0.3056781486	-0.1873488109	 0.100225
H	 0.4519422867	-0.0927973845	-2.1467345258	 0.104523
H	 1.8205739041	-0.1969654154	-1.0408534478	 0.126023
H	-0.1228916648	-5.0936501008	-1.8457955827	 0.144054
H	-2.2333887325	-1.9859757858	-1.7575361195	 0.137431
H	-1.3896518279	-1.7580945186	-3.2880324761	 0.134609
H	-2.0653162433	-3.3382757271	-2.8802048973	 0.130488
