19
gdb 39140	3.40869	1.39801	1.26446	0.8848	74.11	-0.2407	0.0723	0.313	1059.1674	0.160476	-423.004215	-422.996646	-422.995701	-423.036613	29.505	
C	-0.0017609343	 1.3749480244	-0.2579662162	-0.06998
C	 1.4883107399	 1.5008417331	 0.1099189086	-0.356661
C	 1.3148508507	 0.1018854923	 0.7403886121	 0.440365
C	 2.1651367525	-1.0717581726	 0.2219380708	-0.285445
C	 2.0501927779	-2.1834167283	 1.2925345633	-0.250062
C	 1.7992117528	-1.4128725102	 2.5744600344	 0.053568
O	 2.6878191797	-0.2976684986	 2.7505516852	-0.268353
C	 1.3676362399	-0.0489170656	 2.248238115	-0.011288
O	-0.074919393	 0.0465608316	 0.3033179877	-0.32786
H	-0.6765967854	 2.071452033	 0.2546781669	 0.103126
H	-0.2378659585	 1.3794176994	-1.3284973493	 0.104204
H	 2.1736752722	 1.5288557189	-0.7392262752	 0.112418
H	 1.7483769902	 2.3001486519	 0.8059287618	 0.116443
H	 1.8193739666	-1.3876617906	-0.764476633	 0.108139
H	 3.2034692406	-0.7414122159	 0.132538349	 0.118201
H	 1.1920009027	-2.8365842197	 1.098014685	 0.115714
H	 2.9433010635	-2.8130911652	 1.3458676607	 0.108381
H	 1.5014886742	-1.9172179775	 3.4899217922	 0.095123
H	 0.7140003277	 0.5487417495	 2.8785230809	 0.093964
