24
gdb 101019	2.50264	1.05169	0.86987	3.0172	84.79	-0.242	0.0625	0.3045	1466.4499	0.21697	-405.525113	-405.514739	-405.513794	-405.56032	39.327	
C	-0.3418019	 1.4366853563	-0.0794858038	-0.391528
C	-0.3875162392	-0.0506584646	 0.2862151252	-0.167135
C	 0.7836282559	-0.5292477342	 1.1779802222	-0.056523
C	 0.6849387218	 0.0525694226	 2.5944671904	-0.415218
C	 0.9058910701	-2.0573537352	 1.1347040951	 0.29372
C	 1.6030074414	-2.5932637719	-0.1185231566	-0.109699
O	 1.4712634434	-3.9892856896	-0.2480622742	-0.425887
C	 0.9916728363	-2.8972845067	 2.356004683	-0.279827
N	-0.2333458604	-2.9152280732	 1.5268969714	-0.374633
H	 0.5889794832	 1.6854300753	-0.6015931118	 0.116825
H	-1.1725301401	 1.6985821112	-0.7420025644	 0.11608
H	-0.4114091186	 2.0831332042	 0.8006177102	 0.118646
H	-1.3358566953	-0.2722189445	 0.7943915989	 0.089656
H	-0.4003794907	-0.63789675	-0.6381026748	 0.107017
H	 1.711573407	-0.1422420808	 0.7309534408	 0.077183
H	 1.568538464	-0.1890159719	 3.1910335079	 0.122207
H	 0.5972992597	 1.1416229939	 2.5626693886	 0.12052
H	-0.1971283301	-0.3261125737	 3.1255374907	 0.108822
H	 1.2078064766	-2.0723628021	-1.0070489645	 0.083486
H	 2.6747765963	-2.3649607686	-0.0619985905	 0.104094
H	 0.5649316657	-4.1805595364	 0.0397226166	 0.291935
H	 1.5642320393	-3.8187593238	 2.3180498128	 0.127872
H	 0.9409480047	-2.4248556212	 3.3306801824	 0.111785
H	-0.9682176313	-2.367258235	 1.9664281944	 0.230603
