19
gdb 62160	2.18847	1.07966	0.77799	5.2655	74.47	-0.2399	0.0066	0.2466	1458.6032	0.15868	-456.403453	-456.393398	-456.392454	-456.440064	35.023	
C	 0.1553323327	 1.8734041863	-0.2476019772	-0.41884
C	 0.0603072393	 0.3636196223	-0.0261034033	-0.004586
C	 0.8080941792	-0.4083010513	-1.1197123104	-0.101696
N	 0.5871027125	-1.8385977914	-1.000671788	-0.292885
C	 1.2017076294	-2.7103339959	-1.8334549039	 0.144851
O	 1.9521673862	-2.390295083	-2.7350589525	-0.336194
N	 0.5492999212	 0.0419798237	 1.3205257236	-0.266065
C	 0.1042471669	-1.0030862356	 2.053916832	 0.162957
O	-0.6712264223	-1.8570203176	 1.6576062991	-0.339871
H	 1.198679164	 2.2100886729	-0.2296265815	 0.126331
H	-0.2628568759	 2.1442144705	-1.2199518856	 0.14028
H	-0.396376991	 2.4149604186	 0.5255960887	 0.12951
H	-0.9913733171	 0.0559778606	-0.0470224299	 0.120769
H	 0.4664582845	-0.0579181285	-2.1019695914	 0.120675
H	 1.8828670882	-0.1896945018	-1.0690393953	 0.115516
H	-0.0051194283	-2.1701843374	-0.2477273674	 0.27625
H	 0.942372297	-3.7626037094	-1.6029767907	 0.075111
H	 1.207744092	 0.6738048632	 1.7499046077	 0.252596
H	 0.5200734317	-1.0083017161	 3.0785598959	 0.095292
