13
gdb 131909	4.33076	1.1786	0.93185	5.6775	68.08	-0.2728	-0.0974	0.1754	1168.818	0.088532	-489.827704	-489.820082	-489.819138	-489.860703	26.614	
C	 0.1679196202	 1.4229328424	 0.0591440645	-0.494548
C	-0.0290957381	-0.0428578014	-0.0310429866	 0.331198
C	-1.0979574247	-0.86363582	-0.2458264829	-0.176063
N	-0.6862502054	-2.182101307	-0.2270829611	-0.274695
C	 0.5805220324	-2.0917315879	-0.0070184537	 0.499929
O	 1.0672356941	-0.8461438745	 0.1249131615	-0.167121
N	 1.5295758268	-3.1821124506	 0.112705725	 0.346192
O	 1.0817742647	-4.3096725792	-0.0080098962	-0.332279
O	 2.69429125	-2.8713664304	 0.3241128699	-0.351262
H	 0.8686120248	 1.7757543464	-0.7047496624	 0.160533
H	-0.7875747641	 1.9310384354	-0.0850571325	 0.152742
H	 0.5702885299	 1.7088809092	 1.0365277995	 0.160514
H	-2.1288579608	-0.5938761023	-0.4113915048	 0.14486
