17
gdb 84776	2.34934	1.54851	1.23464	3.0292	73.79	-0.2471	0.0017	0.2488	1062.2346	0.136415	-418.018901	-418.010274	-418.00933	-418.051889	32.853	
N	 0.1696396642	 1.485897671	-0.0321452449	-0.51026
C	 0.0383722841	 0.0468844938	 0.0439912058	-0.038323
C	 0.6074025777	-0.5510947317	 1.3113034485	-0.057879
C	-0.1278667031	-1.5516608448	 1.7849273464	-0.075792
C	-1.3452123661	-1.8162900501	 0.932836387	-0.298269
C	-1.4389675548	-0.5357970039	 0.0555213534	 0.197601
O	-2.2447255375	 0.457233705	 0.6707060273	-0.450699
C	-1.9359374212	-0.8100404956	-1.3036273976	 0.23017
N	-2.3327503878	-1.0142078982	-2.3704536045	-0.342714
H	-0.1132110204	 1.8191105369	-0.9487870568	 0.237696
H	-0.4569038137	 1.9181961789	 0.6401178074	 0.244299
H	 0.5609090973	-0.3765945902	-0.8239619852	 0.110191
H	 1.5388971993	-0.1831029427	 1.723281667	 0.111512
H	 0.1073152702	-2.1523929466	 2.6554640038	 0.105287
H	-1.2171219804	-2.7129494107	 0.3131151428	 0.132462
H	-2.267239958	-1.9584656853	 1.5089455416	 0.110817
H	-3.1466833698	 0.1244451041	 0.7324143979	 0.293903
