17
gdb 107815	3.56338	1.51106	1.33039	1.7529	70.67	-0.2525	-0.0149	0.2376	975.3684	0.137739	-417.958137	-417.951097	-417.950153	-417.989528	28.237	
O	 0.0383294448	 1.3911575731	 0.0176054566	-0.419013
C	 0.0669714567	-0.0218681776	 0.0198968365	-0.164752
C	-1.3327367849	-0.5890968269	 0.0235612444	 0.291496
C	-2.2692965749	-0.3784613928	 1.2689372418	-0.262347
C	-2.7804535211	-1.7999869481	 1.0427311071	-0.0431
C	-1.6528501548	-2.1178753201	 0.1352007754	-0.110573
N	-3.0139498897	-2.126432539	-0.4255498911	-0.159711
C	-3.0586337501	-0.9632832071	-1.2597011523	 0.033791
N	-2.1247912847	-0.1103486504	-1.1310530576	-0.240807
H	-0.5701829215	 1.6399639373	-0.6899051388	 0.295606
H	 0.6123942831	-0.4196320355	-0.8523146733	 0.092103
H	 0.6096105687	-0.3313714039	 0.919810555	 0.106103
H	-1.6842542701	-0.3420659137	 2.1912231326	 0.120905
H	-2.9656814789	 0.4622971639	 1.2281472648	 0.111586
H	-3.3253675928	-2.4266535125	 1.7369785625	 0.11237
H	-1.0139251165	-2.9878225602	 0.0315012576	 0.103301
H	-3.8807456733	-0.8664001766	-1.9615319114	 0.133044
