20
gdb 89441	2.73204	1.73579	1.41328	0.7618	77.64	-0.2271	0.0849	0.312	1014.4594	0.171339	-403.111574	-403.103656	-403.102712	-403.143403	31.896	
C	-0.3309705899	 1.5264578725	 0.0026020881	-0.403718
C	 0.0466149517	 0.0489825223	-0.0795737486	 0.11004
O	 0.8110072221	-0.2530523083	-1.259971443	-0.316555
C	 2.1039780355	-0.7031151219	-0.8550930814	 0.39073
C	 2.7855589268	-1.390877706	-2.0090551012	-0.48381
C	 2.8203268141	 0.4203194015	-0.0635755146	-0.200845
N	 2.3121247335	-0.1187073289	 1.2473843333	-0.163982
C	 0.8784958357	-0.5029189931	 1.069292198	-0.052155
C	 1.9154480983	-1.3885040603	 0.5283726493	-0.111915
H	 0.5414818182	 2.1684486554	 0.1425260548	 0.126604
H	-0.8443622782	 1.8327933508	-0.9130538878	 0.126689
H	-1.0109548541	 1.6895421791	 0.8458004239	 0.115866
H	-0.8827714858	-0.5380968836	-0.1333931904	 0.081112
H	 2.8996021766	-0.7000931693	-2.8501140481	 0.130407
H	 3.7771396206	-1.7475412716	-1.7166591828	 0.120481
H	 2.191134192	-2.2441970894	-2.349441246	 0.127774
H	 3.9093783719	 0.3192293447	-0.0625053956	 0.107301
H	 2.5470701771	 1.4512273639	-0.3053042934	 0.101533
H	 0.389115115	-0.7169271671	 2.013261775	 0.100985
H	 2.1937996991	-2.3815891508	 0.8600175906	 0.093457
