17
gdb 30884	2.61515	1.29091	0.91077	1.9715	72.93	-0.1709	0.0553	0.2262	1264.2119	0.135095	-455.149482	-455.139631	-455.138687	-455.184989	34.783	
C	-0.4158232572	 1.0371031886	-0.1064122458	-0.249723
O	 0.7276575595	 0.1799197915	-0.1780566066	-0.279907
C	 0.9861080753	-0.5181096183	 0.9613876041	 0.203041
C	 0.7092224415	-1.830872402	 1.2567864569	 0.257666
O	 0.0544798258	-2.7326226728	 0.4660896887	-0.461517
C	 1.2460917495	-2.11010955	 2.5451162019	-0.308259
C	 1.8337032534	-0.9473661519	 3.0013416824	 0.273413
N	 2.4900236743	-0.6047772659	 4.2064114363	-0.611032
N	 1.6744626536	 0.0169205622	 2.038170218	-0.322994
H	-0.271431457	 1.8336788773	 0.6342533743	 0.114589
H	-0.5356022503	 1.4847388202	-1.0956461887	 0.129182
H	-1.3168820351	 0.4706143905	 0.1569385725	 0.124418
H	-0.0612118259	-2.3223731048	-0.3985069975	 0.293788
H	 1.2168300149	-3.0587065089	 3.057701254	 0.090824
H	 3.4835240947	-0.8179003543	 4.1727936265	 0.242388
H	 2.100607021	-1.1248483183	 4.9841802111	 0.244527
H	 1.9925474422	 0.9660058871	 2.1284332419	 0.259595
