22
gdb 101246	3.28382	0.8534	0.80763	1.0604	79.41	-0.2398	0.0616	0.3014	1539.8194	0.192234	-441.459843	-441.449255	-441.448311	-441.495597	39.133	
C	 0.223786996	 1.5758398064	-0.3040651944	-0.438955
C	 0.0443177006	 0.0942455987	-0.0425256549	 0.327237
C	-1.1558314435	-0.5169794287	-0.7398057223	-0.456717
N	 1.2930435518	-0.696347313	 0.0038530691	-0.382698
C	 0.4862883159	-0.5400632898	 1.2312502011	-0.061796
C	 1.1383993749	 0.1859579816	 2.3819486722	 0.117677
O	 0.1187443312	 0.6436042856	 3.2539132976	-0.449839
C	 2.0967885482	-0.7293947811	 3.1495141506	-0.100394
O	 2.543081981	-0.0918141335	 4.3463664195	-0.42578
H	 1.1583975959	 1.9481586826	 0.1177026467	 0.125759
H	 0.2474342477	 1.769191852	-1.3825595187	 0.112307
H	-0.6050865785	 2.1487819591	 0.1248330088	 0.123836
H	-1.0627760024	-0.4228131291	-1.828305037	 0.118544
H	-1.2614467775	-1.5795391563	-0.4974432518	 0.110078
H	-2.0813469661	-0.0120318046	-0.4423854695	 0.128412
H	 1.1444978134	-1.6191556813	-0.3972637897	 0.224605
H	-0.1064624474	-1.3945102469	 1.5588489801	 0.077782
H	 1.7247371187	 1.0338250108	 1.9895861067	 0.053526
H	 0.5512343359	 0.7628125725	 4.1105202437	 0.285557
H	 1.5636791194	-1.6277166273	 3.4791359968	 0.111624
H	 2.9337209165	-1.0343853378	 2.5087071928	 0.110675
H	 3.1632611183	 0.6018569099	 4.0967672023	 0.288563
