13
gdb 128969	4.16196	1.72314	1.21861	5.0641	72.52	-0.245	-0.0645	0.1805	913.236	0.095101	-411.840413	-411.834758	-411.833814	-411.870395	22.545	
N	 0.022523695	 1.319003012	 0.0094911343	-0.150536
C	 1.2416726	 1.8898484641	 0.0005613786	-0.182201
C	 2.1365263899	 0.8208702408	-0.0140976834	 0.167415
C	 3.5279542887	 0.6006204536	-0.0290343142	-0.074929
N	 4.0114763226	-0.620573847	-0.040500607	-0.269112
C	 3.1124806495	-1.6551250631	-0.0372878526	 0.057322
N	 1.8018723099	-1.6047586387	-0.0240631739	-0.308693
C	 1.3026300312	-0.3466919293	-0.0122501958	 0.391051
N	-0.0013391863	-0.0274578802	 0.0023895929	-0.318328
H	-0.8622784814	 1.8027035482	 0.0208658699	 0.290761
H	 1.3728850085	 2.9600209855	 0.0051116418	 0.156816
H	 4.2414117167	 1.4236302154	-0.0315892968	 0.119875
H	 3.5630352558	-2.6445411414	-0.0471359337	 0.120558
