22
gdb 121091	3.55081	0.82798	0.71932	0.9848	84.64	-0.2391	0.0301	0.2692	1665.4472	0.193883	-404.387206	-404.377222	-404.376278	-404.423173	35.642	
C	 0.0195379959	 1.5527663619	-0.0194044932	-0.382248
C	 0.0074400121	 0.0233713575	 0.0459843883	-0.162351
C	-1.4049750943	-0.5651934787	-0.0156997427	-0.171551
C	-1.4319589726	-2.0970860696	 0.0183950245	 0.006011
C	-2.8646303488	-2.6985852536	-0.0102897373	-0.131268
O	-2.8524683543	-3.5958217891	-1.1404084533	-0.255309
C	-1.6205622157	-3.4617090405	-1.7102762304	 0.407992
C	-1.4106088017	-4.2785303859	-2.9391253406	-0.471161
N	-0.7777129044	-2.6830355636	-1.165717723	-0.312841
H	 1.0398437274	 1.945759984	 0.0307943241	 0.111127
H	-0.4290277024	 1.9125844152	-0.9522601958	 0.113074
H	-0.5473299228	 1.9927787135	 0.8091931685	 0.108894
H	 0.597495179	-0.3945943229	-0.7760914602	 0.123041
H	 0.4950383075	-0.3086342119	 0.9724543824	 0.089822
H	-2.0022831968	-0.1860336934	 0.8257258825	 0.088504
H	-1.9089130632	-0.228994884	-0.9322829185	 0.093786
H	-0.8878411316	-2.4334646247	 0.9111670438	 0.08114
H	-3.1211503334	-3.2734298676	 0.8833450901	 0.114835
H	-3.6387215506	-1.9417415643	-0.1793504239	 0.109953
H	-1.5470442556	-5.3411944253	-2.714949889	 0.144363
H	-2.1473610516	-4.0111670893	-3.7031245611	 0.14371
H	-0.4052352321	-4.1116717079	-3.3238626453	 0.150476
