15
gdb 129625	3.22165	1.25689	0.91351	5.3479	68.54	-0.2145	-0.0483	0.1663	1192.69	0.113359	-450.133439	-450.125172	-450.124228	-450.16709	29.473	
N	 0.2713237198	 1.381616766	 0.5589198471	-0.599668
C	 0.0930268011	 0.0389087981	 0.2076335141	 0.215643
C	-1.0473514966	-0.5899559288	-0.255595474	 0.305853
C	-2.4266969425	-0.0753548203	-0.4879858884	-0.441687
C	-3.3718972231	-0.9688880691	-1.2579713105	 0.170935
O	-3.1490482545	-2.1063347665	-1.5940400887	-0.24761
N	-0.6178089003	-1.8595434075	-0.4958956371	-0.228985
N	 0.6807154986	-2.0074042489	-0.2325987325	-0.125782
N	 1.1176222166	-0.853617166	 0.2095165422	-0.254986
H	 1.2272922351	 1.529531687	 0.8620556824	 0.255649
H	-0.356632223	 1.6893952506	 1.2921236127	 0.243614
H	-2.9501313113	 0.1474884677	 0.4583125932	 0.150421
H	-2.3897362302	 0.8951885241	-1.0050457413	 0.1608
H	-4.3480028867	-0.4916746907	-1.4890495816	 0.10263
H	-1.1703494429	-2.6080239256	-0.8878410775	 0.293173
