16
gdb 103323	3.51552	1.26161	1.09771	3.1213	65.96	-0.251	0.0001	0.2511	1090.8063	0.123757	-474.952317	-474.944287	-474.943343	-474.984809	30.891	
O	-0.0087655759	 1.4513037596	 0.0941123634	-0.424369
C	 0.0363503812	 0.0218774585	 0.1174041859	-0.167025
C	-1.3849475696	-0.525896936	 0.0604377563	 0.475956
O	-2.1957104779	 0.1152170611	 0.993216539	-0.486647
C	-2.0117819916	-0.7891156647	-1.3667819078	-0.251952
N	-1.0539042864	-1.972479692	-1.4422471076	-0.330915
C	-1.5860834189	-2.0626284156	-0.0114739807	-0.227922
C	-2.9748377133	-1.7646007829	-0.6459707859	 0.454958
O	-4.0748182614	-2.2082729556	-0.7208809968	-0.32058
H	-0.156285758	 1.7296483947	-0.815965539	 0.292808
H	 0.6563308623	-0.3897098678	-0.6816443235	 0.131902
H	 0.4804545853	-0.2395435248	 1.0829507632	 0.124258
H	-1.8660295996	 1.0239166753	 1.0456153952	 0.292735
H	-2.1650657641	-0.1133242918	-2.2073829554	 0.094431
H	-1.4514733819	-2.718720705	-2.0166494805	 0.239631
H	-1.2539622302	-2.8292254829	 0.6863476043	 0.102731
