16
gdb 126708	2.00641	1.91307	1.05792	3.5645	65.89	-0.2149	0.0544	0.2693	1103.5492	0.124833	-471.23043	-471.221766	-471.220822	-471.264446	31.503	
C	-0.0585071641	 1.5930526791	-0.0708536867	-0.381233
C	-0.0143089732	 0.0653467152	-0.0179362144	-0.162024
N	 0.6880547548	-0.4393349923	 1.1557420495	-0.132167
C	 2.0254376959	-0.6966690785	 1.3160262875	 0.447388
O	 2.8628187596	-0.509118369	 0.2838301695	-0.430136
N	 2.3168445267	-1.1138390715	 2.5079859874	-0.339517
N	 1.1036576574	-1.1411597774	 3.2224528076	-0.339683
C	 0.1888896136	-0.7381377215	 2.3975578617	 0.447578
O	-1.125410995	-0.59954025	 2.6325200994	-0.430076
H	 0.9523311609	 2.0087305332	-0.1022137442	 0.138783
H	-0.5936103843	 1.9210182812	-0.9670364528	 0.125271
H	-0.574356663	 1.9962467624	 0.8049169929	 0.138351
H	-1.0243060346	-0.3514370791	 0.0069101576	 0.139271
H	 0.4934758013	-0.3384483878	-0.8975811699	 0.138859
H	 3.7408859115	-0.7658102926	 0.5949180658	 0.319666
H	-1.2703444576	-0.8810025415	 3.5454286091	 0.319669
