15
gdb 25677	5.83596	0.85154	0.74657	1.2751	90.15	-0.2425	-0.0556	0.1869	1480.3777	0.113758	-379.697823	-379.689697	-379.688753	-379.732489	28.432	
C	-0.026446238	 1.4672628638	 0.0107693999	-0.509041
C	 0.0104017765	 0.0145305571	 0.0025920111	 0.26601
C	 0.0546492397	-1.1908060611	-0.0042422408	-0.11157
C	 0.0676537001	-2.6157625676	-0.0119818713	 0.148139
N	 1.2511377826	-3.2551977675	-0.0223363498	-0.296437
C	 1.2032420331	-4.5853196113	-0.0292293341	-0.025466
C	 0.0022623205	-5.2911303526	-0.0260216597	-0.006565
N	-1.1783854566	-4.6665851379	-0.0157706268	-0.231787
C	-1.1400030951	-3.3383113034	-0.0088370737	-0.058645
H	 0.9848482198	 1.8871313353	 0.0035389484	 0.159311
H	-0.5571154152	 1.8537791122	-0.8664303761	 0.156479
H	-0.5404622149	 1.8442158062	 0.9019419585	 0.156497
H	 2.1559011428	-5.109467505	-0.0376152938	 0.115023
H	-0.0100617346	-6.37761072	-0.031803137	 0.118263
H	-2.0889915408	-2.8094758982	-0.0004532847	 0.119788
