23
gdb 113954	3.99019	0.68724	0.66239	1.3271	86.52	-0.2563	0.0783	0.3346	1792.4219	0.205241	-388.254618	-388.244597	-388.243653	-388.290669	36.964	
O	-0.0983986757	 1.2888569362	-0.7613666352	-0.421165
C	-0.0154262717	 0.1252894937	 0.0543826184	-0.095728
C	-1.355638073	-0.5598231081	 0.0179151575	-0.004078
C	-1.7060790068	-1.5096959389	-1.1018513787	-0.279312
C	-1.5306098259	-2.0358831685	 0.3014200838	 0.001619
C	-0.3886200405	-2.9660909282	 0.673256395	-0.239514
C	-0.7517860387	-4.4294950772	 0.5073897917	 0.045155
C	-0.5731829437	-5.1258945978	-0.8176911432	-0.249518
C	 0.3226887605	-5.4739840879	 0.3472011358	-0.281416
H	 0.7287612333	 1.7719040527	-0.6736146596	 0.282798
H	 0.7726649208	-0.5520486295	-0.3085267247	 0.079774
H	 0.239634117	 0.3934916545	 1.0928420675	 0.08353
H	-2.159167448	 0.0834166466	 0.3669089709	 0.086745
H	-2.6998068309	-1.4673439614	-1.5335984747	 0.108258
H	-0.9218158587	-1.7321356673	-1.8193665205	 0.107988
H	-2.4548189869	-2.2776109126	 0.8226381662	 0.079101
H	 0.4952407149	-2.7487120707	 0.0617761964	 0.089186
H	-0.0913986837	-2.7857108655	 1.7162413081	 0.095173
H	-1.6218312748	-4.7359382708	 1.0841330071	 0.078674
H	-1.3182822632	-5.8492873852	-1.130022137	 0.108625
H	-0.1414163461	-4.5571526542	-1.6346644122	 0.10895
H	 1.3540138959	-5.1372837789	 0.3104379737	 0.10664
H	 0.1895314659	-6.4347164411	 0.8324291235	 0.108514
