14
gdb 127752	3.39343	1.49542	1.04474	1.771	69.67	-0.2467	-0.0818	0.165	1064.0673	0.102507	-466.178804	-466.171298	-466.170354	-466.210922	27.926	
C	-0.0352355066	 1.4203453947	-0.0125187862	-0.30786
N	-0.0083259342	-0.0364358539	 0.0258438848	-0.010832
N	-0.0429103093	-0.653027355	-1.1368956774	-0.042962
N	-0.0223439334	-1.9307482668	-1.1832157149	-0.311462
C	 0.0369446509	-2.6009708147	 0.0368251727	 0.484799
O	 0.0549879201	-3.9240983427	-0.0931247038	-0.373031
N	 0.0739499841	-2.0848820673	 1.2155052518	-0.35173
C	 0.052556953	-0.7051278637	 1.2818527235	 0.443892
N	 0.0809684533	 0.0225168741	 2.3252413434	-0.564703
H	 0.8612503333	 1.8137894834	 0.4710015216	 0.164703
H	-0.0824916708	 1.7179968311	-1.0590894713	 0.152276
H	-0.903103701	 1.7829301617	 0.5420636656	 0.164766
H	 0.0212526744	-4.1135812001	-1.0422896443	 0.319097
H	 0.1236512962	-0.5823582808	 3.1445328244	 0.233045
