18
gdb 99350	7.07884	0.54317	0.51081	5.3904	73.88	-0.2826	0.0043	0.2868	2052.7602	0.1457	-439.139984	-439.129668	-439.128724	-439.177505	34.268	
C	-0.0842027675	 1.3511806782	 0.1404018326	-0.241769
O	 0.0189983886	-0.0708295404	-0.017801724	-0.233833
C	 0.6510370047	-0.4825312129	-1.133264573	 0.45081
O	 1.109618355	 0.2633308284	-1.9609895717	-0.351171
C	 0.6990081177	-1.9973687546	-1.1918170226	-0.341063
C	 1.4093904582	-2.5077762588	-2.4447338162	-0.171573
C	 1.4457591587	-4.047614612	-2.4819263686	-0.349162
C	 2.1200669114	-4.5652505687	-3.6706831633	 0.260195
N	 2.6552444742	-4.9626833942	-4.6144049053	-0.300649
H	 0.9081373222	 1.8070692469	 0.1808558814	 0.143443
H	-0.6391684253	 1.7918373209	-0.6914812848	 0.143469
H	-0.6150764997	 1.5068843812	 1.0793706888	 0.136043
H	 1.1908910723	-2.3553307229	-0.2789130773	 0.136545
H	-0.331123441	-2.370410976	-1.1357249857	 0.136547
H	 0.9052817657	-2.1287639701	-3.3378649147	 0.139046
H	 2.4285656204	-2.1134859341	-2.480405817	 0.139051
H	 1.95926378	-4.4398260887	-1.5958127979	 0.152034
H	 0.4279051246	-4.4551746523	-2.4577737607	 0.152034
