16
gdb 49822	2.54241	1.46143	1.0559	0.7091	71.57	-0.2603	-0.0467	0.2137	1119.8762	0.122796	-437.873626	-437.865293	-437.864349	-437.907308	30.189	
N	-0.3688556035	 1.3168499836	-0.6436704225	-0.553306
C	-0.1142064	 0.1863543938	-0.172094179	 0.396902
O	 1.0654964503	-0.3502019373	 0.3365856192	-0.28578
C	 0.4276514435	-1.6357007632	 0.6078170987	-0.03024
C	 0.4057067035	-1.9598289899	 2.0842521408	 0.138123
O	 0.1968523297	-3.0663982881	 2.5080383713	-0.240226
C	-0.8883539229	-1.0633632697	 0.0579879117	 0.179654
C	-2.3037856734	-1.2048769665	 0.5524560142	-0.320937
C	-1.93479339	-1.6866875276	-0.8211561455	-0.313185
H	 0.4477404759	 1.9283876608	-0.6418113437	 0.235233
H	 0.8807223552	-2.4457032788	 0.0306635986	 0.123953
H	 0.5576831814	-1.0791377268	 2.7460846454	 0.100375
H	-2.4865443087	-1.9472206616	 1.3221313313	 0.141295
H	-2.8775237603	-0.2896174799	 0.6445082788	 0.14703
H	-2.2521232499	-1.1012086853	-1.6769576427	 0.146917
H	-1.8700179407	-2.7561177534	-0.9898543266	 0.134192
