21
gdb 62583	3.19251	1.45744	1.31345	1.4037	81.99	-0.2271	0.0687	0.2958	1076.9138	0.182658	-387.031593	-387.023437	-387.022493	-387.063476	33.592	
C	 0.0161574198	 1.5062068185	 0.027490053	-0.436029
C	-0.0001626615	-0.0134444663	 0.00729886	 0.378956
O	-1.2285116585	-0.5175463179	-0.4624322973	-0.460879
C	 1.3329102492	-0.6500421799	-0.2722125144	-0.147236
C	 0.6868850856	-0.6610747215	 1.160082009	-0.109393
C	 0.7343924922	-2.2065601999	 1.1576587145	-0.029005
C	-0.449490633	-3.0757068944	 0.628762311	-0.229351
C	 0.1931482453	-3.0645217603	-0.7997728713	-0.227947
C	 1.3710951213	-2.195055238	-0.2552502972	-0.026845
H	 0.9506503163	 1.8967273606	 0.4401131805	 0.119801
H	-0.0933181776	 1.9065386665	-0.9879712973	 0.106132
H	-0.8163705343	 1.8813654622	 0.6303385656	 0.126457
H	-1.3096872297	-0.2656315361	-1.3891796474	 0.277248
H	 2.1546521759	-0.0422293493	-0.6392987291	 0.074293
H	 0.9527534691	-0.0663009713	 2.0287307154	 0.077773
H	 1.2933975801	-2.6034865609	 2.0060204688	 0.064361
H	-0.4661294417	-4.0704435574	 1.0824157723	 0.085391
H	-1.4408532363	-2.6333191721	 0.7030532287	 0.117686
H	 0.5267338377	-4.0519004902	-1.1306667876	 0.087999
H	-0.4143700005	-2.6213915184	-1.5880336845	 0.086011
H	 2.3773842806	-2.5880187438	-0.4063490124	 0.064574
