15
gdb 2355	5.55519	2.10978	1.59691	3.6859	58.21	-0.2335	0.056	0.2894	762.123	0.126756	-341.859618	-341.852585	-341.851641	-341.890833	25.235	
N	-0.0904599213	 1.3399602324	 0.062485767	-0.556812
C	-0.0010483306	-0.0465699128	 0.1129255888	 0.406587
O	 1.0539715458	-0.6506707798	 0.0447854515	-0.393602
N	-1.2148437183	-0.6824691683	 0.2164844085	-0.097639
C	-2.5299050176	-0.2552682998	-0.2931691343	-0.175054
C	-2.8897423117	-1.7516782754	-0.5042935745	-0.238111
C	-1.4205719764	-2.0956871067	-0.1266912967	-0.152498
H	 0.7971869291	 1.7909179349	 0.2251710271	 0.259395
H	-0.8677736065	 1.7753062334	 0.5362331156	 0.250255
H	-3.1437054709	 0.2887832197	 0.4342299492	 0.105503
H	-2.4667878491	 0.3365585899	-1.2141626023	 0.118716
H	-3.6302991084	-2.1300396504	 0.2013197791	 0.116359
H	-3.1911011358	-2.021289189	-1.5165021994	 0.117185
H	-0.7889411491	-2.4249796283	-0.9580726187	 0.123594
H	-1.2824383193	-2.7837931197	 0.712212689	 0.11612
