20
gdb 52620	3.49677	0.77754	0.74424	4.3123	88.79	-0.2588	0.0243	0.2831	1621.7759	0.167622	-366.018031	-366.006948	-366.006004	-366.055765	38.656	
C	 0.0049436747	 1.4665497411	 0.0631243163	-0.499532
C	 0.0101147989	 0.0108770155	 0.0188685448	 0.065956
C	 0.0106320431	-1.1927429109	-0.0253775085	 0.071951
C	 0.0151572368	-2.658878011	-0.0715501678	 0.033909
C	-1.4334291135	-3.1867883643	-0.1603851222	-0.40786
C	 0.8320126816	-3.1442319725	-1.2889927259	-0.407859
C	 0.6839431017	-3.1582365805	 1.252065743	-0.342258
C	 0.7603638167	-4.6144240758	 1.3505207863	 0.26607
N	 0.8149219734	-5.7672325367	 1.4165329072	-0.32139
H	 0.5561869251	 1.891798084	-0.7826463859	 0.151368
H	-1.0161189935	 1.8616748793	 0.0265302204	 0.151339
H	 0.4709846392	 1.8376494871	 0.9824757061	 0.150183
H	-1.910300506	-2.8251264494	-1.074809021	 0.127365
H	-1.4420503348	-4.2808255335	-0.1730024839	 0.138529
H	-2.0284981847	-2.8430835502	 0.690533785	 0.122548
H	 1.8588789695	-2.7700544816	-1.2460966758	 0.122551
H	 0.8600572322	-4.2375802241	-1.319874698	 0.138529
H	 0.3784092838	-2.7821336551	-2.2150086708	 0.127362
H	 1.696184431	-2.7479442685	 1.325741274	 0.155618
H	 0.121143135	-2.7775483731	 2.1103972563	 0.155621
