19
gdb 95868	2.42914	1.33262	1.09402	1.7782	76.48	-0.257	0.0354	0.2924	1175.014	0.159233	-422.994926	-422.986244	-422.9853	-423.027967	33.692	
O	-0.0978895639	 1.4851504922	 0.0830125542	-0.437765
C	 0.0393609973	 0.0714661635	 0.0514924376	 0.122807
C	 0.742467675	-0.4796040822	 1.2979148578	-0.233994
C	 0.6836727723	-2.0098461729	 1.310662396	-0.085435
O	-0.6555990464	-2.4808418331	 1.2252460238	-0.243788
C	-1.3339980336	-2.0521715951	 0.0485135909	-0.079954
C	-1.3684451071	-0.5124104303	-0.0394967985	-0.211792
C	-0.7732558423	-2.6659862744	-1.1660586457	 0.354577
C	-0.3205589507	-3.1703274268	-2.1592590826	-0.496106
H	 0.7837868149	 1.8676636824	 0.1389820991	 0.279197
H	 0.605120023	-0.2375802742	-0.8424348568	 0.07632
H	 1.7893081608	-0.1503608789	 1.330059991	 0.08506
H	 0.2396271565	-0.0815819792	 2.1870101498	 0.111017
H	 1.2817899221	-2.4236471374	 0.4846260531	 0.102271
H	 1.0783339506	-2.4129916616	 2.2468743778	 0.111577
H	-2.357846749	-2.4213381795	 0.1727167484	 0.117142
H	-1.9595439528	-0.1339304691	 0.8012659511	 0.112881
H	-1.8554329283	-0.1958831313	-0.9660901777	 0.115027
H	 0.0720525716	-3.6231600021	-3.0362556693	 0.200958
