16
gdb 132585	3.1101	1.31934	0.93248	3.3823	76.68	-0.2134	-0.0145	0.1989	1180.5026	0.124811	-442.098139	-442.090186	-442.089242	-442.13029	30.894	
C	-0.0110849604	 1.5045272945	-0.0183730926	-0.501646
C	 0.0004685157	-0.0015210732	 0.0035336766	 0.279778
N	-0.0588398457	-0.6345384441	-1.1667917728	-0.303962
C	-0.0407807577	-1.9683832763	-1.2052810353	-0.142584
C	 0.0367640933	-2.7177556405	-0.0422104515	 0.257846
F	 0.0506548254	-4.0528981259	-0.1080736884	-0.078947
C	 0.0950756816	-2.096693745	 1.192820283	-0.301796
C	 0.0792740543	-0.7011676286	 1.2313962253	 0.268029
N	 0.1979010096	-0.0141717048	 2.435599434	-0.592633
H	 0.8757587421	 1.922423461	 0.4739565846	 0.131926
H	-0.034039539	 1.8471685388	-1.0532408633	 0.145883
H	-0.8907739651	 1.9169619974	 0.4958737211	 0.117909
H	-0.0885521197	-2.4554362213	-2.1742358973	 0.112765
H	 0.154017486	-2.6913814507	 2.0982148179	 0.103764
H	-0.0477605595	-0.5437299691	 3.2590928147	 0.250375
H	-0.2041915309	 0.9109086979	 2.448982424	 0.253294
