21
gdb 102181	2.40911	1.18166	0.8503	3.6664	83.35	-0.245	0.0336	0.2786	1388.4314	0.18185	-383.259486	-383.249669	-383.248725	-383.294582	35.801	
C	-0.1144079163	 1.2896774551	 0.3495064066	-0.399605
C	 0.0887092355	-0.1953241828	 0.0392136369	-0.167372
C	 0.7294409434	-0.5000411875	-1.3251900511	 0.034539
C	 0.9192973505	-2.0320274619	-1.4483851661	-0.339603
C	 1.7688739039	-2.4483561935	-2.5615290274	 0.270495
N	 2.4578961657	-2.7771836008	-3.4294490964	-0.320487
N	-0.1332274439	-0.0458128238	-2.4114064735	-0.069243
C	 0.0495444807	 1.3209688119	-2.8966223674	-0.227365
C	 0.4831707699	 0.1670003344	-3.7237663573	-0.227136
H	 0.8272076209	 1.8459530562	 0.2819538843	 0.11412
H	-0.8312146667	 1.7512469164	-0.3336066011	 0.135113
H	-0.4981775446	 1.4146321479	 1.3665852456	 0.117183
H	 0.7254019568	-0.6386042882	 0.8150671475	 0.096207
H	-0.8757915675	-0.7156923551	 0.086597413	 0.109027
H	 1.7258838166	-0.0222669815	-1.3690639338	 0.073134
H	 1.3621688487	-2.4220353262	-0.5257971185	 0.14749
H	-0.0659830086	-2.4969724052	-1.5619229731	 0.16003
H	-0.8627690573	 1.8623328629	-3.129601377	 0.119547
H	 0.8336793703	 1.9251747504	-2.4444935428	 0.11506
H	 1.5521606783	-0.0016279612	-3.8232469188	 0.134992
H	-0.1077605864	-0.1604489973	-4.5734628896	 0.123873
