13
gdb 20688	6.87826	1.35189	1.13786	3.3676	69.21	-0.2403	-0.0142	0.2261	994.4947	0.095941	-357.644968	-357.637533	-357.636589	-357.67779	26.313	
C	-0.0448698824	 1.4893044539	 0.0469991053	-0.513915
C	-0.0012451957	 0.0019083641	-0.0452729366	 0.337687
N	-0.039833728	-0.7193147083	-1.1486878537	-0.333308
C	 0.0302011334	-2.0103995141	-0.688676729	 0.158704
N	 0.1082156276	-2.1219195123	 0.6353718485	-0.265711
N	 0.0869822819	-0.828148326	 1.0220492344	-0.223931
C	 0.0191633358	-3.1413153908	-1.5454558662	 0.295291
C	 0.0091320407	-4.0930674315	-2.2795033868	-0.388328
H	 0.8628381308	 1.8898622897	 0.5106019755	 0.144803
H	-0.1307581692	 1.8992088661	-0.9594533704	 0.169006
H	-0.9014827081	 1.8304531474	 0.6377269294	 0.144115
H	 0.1347856487	-0.6049158559	 2.0031109899	 0.281149
H	 0.0002621147	-4.9339712024	-2.9278811904	 0.194437
