21
gdb 107197	3.62425	1.27137	1.12809	1.2527	81.44	-0.2291	0.0794	0.3085	1177.9872	0.182938	-387.064366	-387.056174	-387.055229	-387.096915	32.89	
C	 0.1998255503	 1.529915174	-0.1221418748	-0.374132
C	-0.0881861875	 0.0396513221	 0.0969313652	-0.253961
C	 0.6662222574	-0.5362362998	 1.267742679	 0.45368
C	 2.0835257091	-1.0412025565	 1.1465128146	-0.357648
C	 0.9600964021	-1.9962789284	 1.5185771886	-0.138203
C	 0.6261772286	-2.2497821218	 2.9721864941	-0.070411
C	 1.4210295545	-1.5589896567	 4.0654189466	-0.32846
C	 0.1783982896	-0.9138872377	 3.5098663337	 0.093365
O	 0.305602709	 0.0607276433	 2.503857582	-0.30281
H	 1.2623699126	 1.6986782477	-0.3260681947	 0.114608
H	-0.3740808258	 1.9212639259	-0.9676160016	 0.106282
H	-0.0658524578	 2.1058568026	 0.7683980327	 0.134713
H	-1.1626265843	-0.1108633933	 0.2608351755	 0.099948
H	 0.1794007326	-0.5305742378	-0.8005326352	 0.093977
H	 2.4864573033	-1.1376286814	 0.1428854436	 0.108517
H	 2.816192987	-0.7515790617	 1.8896306253	 0.116294
H	 0.6743196981	-2.7593505479	 0.8039020371	 0.088405
H	 0.1026857325	-3.1684373945	 3.2073576178	 0.090335
H	 1.3437319071	-1.9827217471	 5.0617336556	 0.110532
H	 2.3885109357	-1.1266102455	 3.8412329729	 0.119532
H	-0.692382704	-0.7606849255	 4.138835582	 0.09544
