15
gdb 98653	3.56144	0.9845	0.85811	2.4265	62.34	-0.2822	-0.0521	0.2301	1296.4315	0.110477	-494.932072	-494.923521	-494.922577	-494.966592	30.146	
O	-0.4899402451	 1.3009043507	-0.9195968805	-0.418125
C	-1.0565731042	 0.0448899005	-0.7079555809	-0.134185
C	-0.6314214538	-0.52819702	 0.6299607574	 0.321596
O	 0.1346587757	 0.0793752975	 1.3459539969	-0.318766
C	-1.1877093991	-1.8659389761	 1.0715978848	 0.032956
C	-2.4710027535	-1.8258743747	 1.9346254066	-0.42302
C	-3.0830737337	-2.5845246045	 0.7559837879	 0.449688
O	-4.1246263686	-3.0593308316	 0.4531621141	-0.292973
O	-1.9140955597	-2.5743369774	 0.0184875607	-0.244597
H	 0.0711217638	 1.4702771854	-0.146556231	 0.296949
H	-2.1580114053	 0.0881194171	-0.7405415711	 0.126323
H	-0.7690341208	-0.6767706372	-1.4903539858	 0.140255
H	-0.3831107527	-2.4841662418	 1.4750300747	 0.137387
H	-2.435461689	-2.3845225824	 2.870166642	 0.16435
H	-2.903897984	-0.8398388755	 2.1115900142	 0.162161
