14
gdb 29993	3.33655	1.6311	1.14369	2.4501	69.26	-0.215	-0.0421	0.1729	988.8028	0.102928	-436.697399	-436.690628	-436.689684	-436.728625	26.136	
O	 0.1944536004	 1.4197308964	-0.2107900853	-0.41132
C	 0.0059229117	 0.0290840971	-0.0434342955	-0.046165
C	 0.5999198289	-0.5514533544	 1.2581597164	-0.121652
C	-0.2854572054	-1.3201056659	 1.9244130166	-0.21903
C	-1.5159108174	-1.2728950274	 1.1469305688	 0.314832
C	-1.4086864435	-0.4934936859	 0.0461312105	 0.174002
N	-2.5992504804	-0.5104663019	-0.6534985393	-0.333925
C	-3.3529919903	-1.2849249073	 0.0671955463	 0.027857
O	-2.7598522169	-1.8038207816	 1.1955886748	-0.196291
H	-0.3261595778	 1.8664572015	 0.4659664183	 0.289693
H	 0.524427702	-0.4369931284	-0.892772314	 0.127919
H	 1.6170658674	-0.3343325016	 1.5559950574	 0.11793
H	-0.1259449356	-1.8562307888	 2.8494985323	 0.124732
H	-4.379671033	-1.568633572	-0.0990652874	 0.151418
