19
gdb 1577	4.41106	1.35833	1.10529	1.8037	64.36	-0.2474	0.0804	0.3278	1090.3308	0.169201	-348.043466	-348.034159	-348.033214	-348.077616	32.093	
C	-0.0083263621	 1.4050412102	-0.1181492388	-0.234804
O	-0.0267403863	 0.0233046328	 0.1510565679	-0.245474
C	-1.3073123763	-0.5938614368	 0.0473353882	 0.138348
C	-1.7284805311	-0.7924680503	-1.4114973333	-0.40134
C	-1.2137889486	-1.920059074	 0.8021621868	-0.203335
C	-0.9177860242	-1.7516050783	 2.2937547311	-0.066951
O	-0.8781858011	-2.9921432418	 2.9854496046	-0.420862
H	 1.002836441	 1.7608197325	 0.0960986455	 0.126298
H	-0.2412861876	 1.6381346565	-1.1673195981	 0.106241
H	-0.718179998	 1.9537327428	 0.5210215785	 0.103044
H	-2.0516874392	 0.0507836382	 0.5484201775	 0.062342
H	-1.0034045948	-1.4261939962	-1.9321376807	 0.122426
H	-2.7102331044	-1.2734692332	-1.4636698984	 0.116751
H	-1.7978987243	 0.1591475208	-1.946120394	 0.11534
H	-2.1521089056	-2.4734912479	 0.6855743	 0.10199
H	-0.4220947636	-2.5244012842	 0.3380221967	 0.092571
H	 0.0129289787	-1.1840010283	 2.423875228	 0.104384
H	-1.7204272322	-1.1762631845	 2.769840723	 0.103533
H	-0.1203480403	-3.4849286384	 2.6552709756	 0.279498
