21
gdb 72090	2.73925	1.69955	1.55403	1.4644	80.93	-0.2152	0.0821	0.2973	993.7923	0.185673	-387.10251	-387.095067	-387.094123	-387.133981	30.597	
C	 0.0190005821	 1.5343036263	 0.0584999009	-0.492064
C	 0.0477510333	 0.0278073545	 0.019610415	 0.292351
C	 0.3485634317	-0.6912485263	-1.2907395112	-0.26512
C	 0.5208178206	-2.1564832459	-0.8377763955	-0.078007
C	 1.3396104064	-2.0281368527	 0.4662775875	-0.223978
C	 0.6743105564	-0.8322506077	 1.1302417066	-0.138764
C	-0.8199264455	-0.7975812911	 0.9347095071	 0.090698
O	-1.5305655434	-1.9216621902	 0.4829020697	-0.277569
C	-0.8593499982	-2.7214515479	-0.4916780372	-0.053308
H	 0.9798652175	 1.9595470317	-0.2573401296	 0.112395
H	-0.7556255454	 1.9363474576	-0.6054683025	 0.117607
H	-0.1891380191	 1.9032004353	 1.0683150292	 0.113918
H	-0.4499721085	-0.5777097128	-2.0337120882	 0.09505
H	 1.2729287622	-0.2995469093	-1.7336642581	 0.091779
H	 0.9965626104	-2.7915623415	-1.5894741074	 0.068662
H	 1.2961051409	-2.9407522255	 1.0716055979	 0.098084
H	 2.3943532051	-1.8177013282	 0.2544150079	 0.095101
H	 1.1141601184	-0.3836406074	 2.015146657	 0.074795
H	-1.4206541602	-0.272571568	 1.6700593934	 0.093368
H	-1.4905276815	-2.7689185445	-1.3906937597	 0.092364
H	-0.7667511235	-3.7423066065	-0.094433613	 0.092637
