13
gdb 3054	7.18579	1.47573	1.30819	5.013	51.44	-0.2756	0.0055	0.281	869.569	0.100407	-381.580932	-381.57388	-381.572936	-381.613012	23.526	
O	 0.3767252959	 0.2909924758	 0.6154184519	-0.269579
C	 0.4862781487	 1.4764863454	 0.5415745293	 0.178021
O	 0.6589469738	 2.1122382361	-0.6402397058	-0.183462
C	 0.8392312677	 3.5323856851	-0.5946593278	-0.120424
C	 2.2846077327	 3.8870637984	-0.3692943406	 0.084552
C	 2.6607997775	 5.0972506921	 0.37087833	-0.176094
O	 2.7309500981	 3.8108455628	 0.9867583977	-0.22607
H	 0.4512177987	 2.1695208291	 1.4019939925	 0.092887
H	 0.491899145	 3.9047872861	-1.5621675527	 0.133309
H	 0.2201068173	 3.9748341747	 0.1951534641	 0.120441
H	 2.9835022813	 3.4754815716	-1.0972380308	 0.116434
H	 3.617800838	 5.5735230777	 0.1668116664	 0.128933
H	 1.8855994952	 5.758803985	 0.7556541158	 0.121053
