17
gdb 84752	2.57485	1.56588	1.19872	1.411	69.46	-0.2521	-0.0307	0.2214	1060.1375	0.136902	-455.182366	-455.173956	-455.173012	-455.215302	31.384	
C	-0.1166511889	 1.5820984748	-0.0151799456	-0.392212
C	 0.0991078448	 0.0705903525	-0.0493031963	 0.031352
N	 0.8550342768	-0.308041407	-1.2505389625	-0.246676
C	 1.4559998153	-1.4126223957	-1.2305762013	 0.118698
O	 1.5011297714	-2.3366970882	-0.2065775204	-0.217793
C	 1.0335521677	-1.9713130896	 1.0483143626	 0.418816
O	 0.951994464	-2.8077591333	 1.8970669221	-0.311595
C	 0.7739255575	-0.4787985423	 1.2195197769	-0.121683
N	 2.0195445883	 0.2361621526	 1.5192195667	-0.514412
H	 0.8342643985	 2.1087288516	 0.082936317	 0.137941
H	-0.6033475424	 1.9029536591	-0.9391958587	 0.126457
H	-0.7495537842	 1.8605209721	 0.8328658175	 0.115062
H	-0.8836270534	-0.4181607267	-0.1312038513	 0.105292
H	 2.018849177	-1.7849708889	-2.0824387369	 0.143858
H	 0.1078905444	-0.3711295898	 2.0795814785	 0.115672
H	 2.4781389731	-0.1812195311	 2.3230568285	 0.248273
H	 2.6659198301	 0.18151735	 0.7373069632	 0.242949
