18
gdb 30740	3.15606	1.21475	0.91005	0.8955	77.44	-0.1732	0.041	0.2142	1293.0682	0.146427	-439.101746	-439.091957	-439.091013	-439.136754	34.725	
C	-0.2563748995	 1.3728548957	 0.2123134625	-0.32916
N	 0.4428640802	 0.1332189529	-0.1300938754	-0.39163
C	 0.8624104947	-0.6762920954	 0.9112841922	 0.358914
C	 0.7881417563	-2.0239978587	 1.1117230774	 0.030464
O	 0.0906380587	-2.8983381343	 0.3067661756	-0.45149
C	 1.4758385195	-2.3077635135	 2.3455880362	 0.176209
C	 1.6454888544	-3.6512605444	 2.9790122233	-0.506241
C	 1.9053414624	-1.1020628213	 2.7967699701	-0.132073
O	 1.5396540876	-0.0964494725	 1.9326272558	-0.185957
H	 0.3960355961	 1.9933910452	 0.8297944731	 0.14821
H	-0.4734106874	 1.9192984688	-0.7086280517	 0.122885
H	-1.1973356817	 1.2106733595	 0.7600011786	 0.112458
H	-0.0686097497	-0.4289463396	-0.7986386958	 0.244375
H	 0.7057188761	-3.539430883	-0.0655456932	 0.295888
H	 2.2562537303	-4.3206503265	 2.3600924194	 0.118479
H	 2.133584655	-3.5698523925	 3.9537667062	 0.12665
H	 0.6784014222	-4.1457810022	 3.1236852238	 0.135063
H	 2.4438857648	-0.7866895283	 3.6741732717	 0.126952
