20
gdb 104095	2.26996	1.55574	1.31831	2.3429	75.18	-0.2522	0.024	0.2762	1102.7463	0.169543	-440.305865	-440.296432	-440.295488	-440.339952	34.896	
C	-0.0487185087	 1.4294536866	-0.0127322262	-0.257843
O	 0.1050290149	 0.0181448006	-0.015157923	-0.260221
C	 0.6980855076	-0.5595097088	 1.1085373805	 0.449916
C	 2.0960925182	-0.0334087884	 1.4048521243	-0.456169
O	-0.1382323626	-0.2869357238	 2.2747932907	-0.255935
C	-0.7883436191	-1.4485846525	 2.5385111794	 0.096891
N	-0.48661919	-2.4998319859	 1.9035394695	-0.270858
C	 0.5934277634	-2.1147495049	 0.9733181177	-0.02398
C	 0.3355851778	-2.6380842726	-0.4361529978	-0.380703
H	 0.909257353	 1.9498800963	-0.138817277	 0.113544
H	-0.6885913228	 1.667377032	-0.8650108962	 0.131939
H	-0.5312943421	 1.7771050501	 0.9069706866	 0.130843
H	 2.0839141258	 1.0339051352	 1.6370703868	 0.12994
H	 2.5171902721	-0.5597072004	 2.2643258552	 0.132036
H	 2.7434012772	-0.1983493984	 0.5383870848	 0.131045
H	-1.5394344176	-1.3753024897	 3.3179270668	 0.134896
H	 1.5232451103	-2.5603313051	 1.3493488096	 0.087303
H	-0.5965842969	-2.235903432	-0.8351650011	 0.133571
H	 1.1483726785	-2.3590301009	-1.1128929581	 0.111904
H	 0.2648173109	-3.7281849173	-0.4043139427	 0.12188
