18
gdb 99684	2.64144	1.07233	0.80689	2.3623	71.76	-0.2627	0.0173	0.2799	1378.6411	0.14716	-439.066115	-439.056729	-439.055785	-439.101808	32.539	
O	 0.0426794381	 1.4441559519	 0.1052338615	-0.414083
C	 0.0179236878	 0.0377670576	 0.0889159731	-0.069276
C	-1.418496911	-0.5358459508	-0.0000156716	-0.190489
C	-2.0489871747	-0.0519916863	-1.2326032083	 0.261786
N	-2.5044995801	 0.3437139106	-2.2190811118	-0.323604
C	-1.4379593212	-2.0680076005	 0.0617357111	-0.035177
C	-1.1602991623	-2.7104573664	 1.4414151045	-0.09403
O	-2.4462408763	-3.3547780066	 1.4517306999	-0.266393
C	-2.8141502779	-2.759931739	 0.1905963283	-0.089275
H	-0.2585963661	 1.7622255235	-0.7537428208	 0.300317
H	 0.6225153363	-0.3800985174	-0.7300952509	 0.108562
H	 0.4615438801	-0.2906339519	 1.033745523	 0.126268
H	-1.9918847637	-0.1294869289	 0.8430110642	 0.138434
H	-0.8223230163	-2.476499274	-0.7431420157	 0.101038
H	-0.3356082858	-3.4316048091	 1.4779526918	 0.111603
H	-1.0477844585	-2.0017793302	 2.2739725876	 0.105263
H	-3.6703908739	-2.0798783068	 0.2877670007	 0.112518
H	-3.0445152743	-3.5136486057	-0.5702638367	 0.116538
