13
gdb 33277	3.41449	0.84271	0.71003	4.8736	88.12	-0.257	-0.0492	0.2078	1501.9686	0.087588	-378.391085	-378.382453	-378.381509	-378.424905	31.027	
C	 0.0615353941	-3.7362790374	-0.0308821614	-0.554633
C	 0.0337469885	-2.5294251195	-0.0146386656	 0.293899
C	 0.0033674034	-1.1709896855	 0.0038306759	-0.229427
C	-0.0183902181	 0.0391551071	 0.0282814815	 0.404142
C	-0.0290742371	 1.4739692472	 0.0405090722	-0.038601
C	 0.5318800779	 2.1877334939	 1.248578801	-0.249068
N	 1.2640468022	 2.215312576	-0.0068679231	-0.318913
C	-1.1088045103	 2.1003898342	-0.6995329959	 0.253174
N	-1.9848754819	 2.5952080939	-1.2670357255	-0.326183
H	 0.0830791633	-4.7982318848	-0.0472692472	 0.203558
H	 0.0796186974	 3.1309289818	 1.5382551009	 0.157691
H	 0.8739581118	 1.5541046187	 2.0611684539	 0.145787
H	 2.0214826088	 1.5354243843	-0.0015626066	 0.258574
