20
gdb 59620	3.56401	0.97254	0.79335	4.4655	75.44	-0.2371	0.0363	0.2734	1423.3717	0.171209	-440.335744	-440.3264	-440.325455	-440.370116	34.768	
C	 0.0339240252	 1.5529858828	 0.0118004193	-0.412457
C	-0.007925319	 0.0249943886	 0.0578415162	 0.124985
O	 0.6886955414	-0.4745042113	 1.1954245526	-0.429945
C	-1.4317460201	-0.5384234269	 0.000071854	 0.003135
C	-2.1974741883	-0.1864105304	-1.3028059676	-0.190696
N	-3.103038009	-1.308192357	-1.4553413452	-0.304747
C	-2.7455737312	-2.4404559674	-0.7666955249	 0.397158
O	-3.3024114503	-3.5134175989	-0.832031144	-0.377744
C	-1.5137228677	-2.0736413277	 0.0644769881	-0.344094
H	 1.0672732997	 1.9010883067	 0.0878184806	 0.129993
H	-0.3933695881	 1.9436851357	-0.9173303254	 0.122445
H	-0.5342491604	 1.9823933368	 0.8468867601	 0.10878
H	 0.5534328749	-0.3744796077	-0.7974311437	 0.090225
H	 0.2723923685	-0.1047071974	 1.9822917503	 0.277295
H	-1.9999735151	-0.1211290232	 0.8432137498	 0.074089
H	-2.7410929583	 0.7600842088	-1.222040751	 0.114068
H	-1.5055413378	-0.1003253587	-2.1558426247	 0.104143
H	-3.8029121356	-1.360528272	-2.1786665205	 0.249395
H	-0.637904172	-2.5426169881	-0.4002319436	 0.132796
H	-1.5924079266	-2.4784158728	 1.0736315897	 0.131174
