21
gdb 121548	8.14167	0.41833	0.40392	0.9231	94.75	-0.2459	0.0415	0.2874	2693.6083	0.179323	-349.90146	-349.890265	-349.889321	-349.940071	38.882	
C	-0.1448430741	 1.5902586837	 0.0103857011	-0.385519
C	-0.0002765768	 0.0660738176	 0.0169107842	-0.161212
C	 0.7057797324	-0.4717598998	-1.2310721103	-0.150238
C	 0.8506529514	-2.0070507195	-1.216884318	-0.357348
C	 1.523384326	-2.5325688882	-2.3998368942	 0.031671
C	 2.0805310496	-2.9401592113	-3.3854443603	 0.128856
C	 2.7599388259	-3.4412904633	-4.5823100644	-0.492181
C	 2.6494780598	-4.8913325212	-4.7576873468	 0.320141
C	 2.5670995216	-6.0789508391	-4.9130595212	-0.447791
H	 0.8340468289	 2.0797616393	-0.0389521448	 0.115519
H	-0.7268373197	 1.9288205046	-0.8539083719	 0.115653
H	-0.6506188409	 1.9471153648	 0.9128905981	 0.112913
H	 0.5557424692	-0.2460256803	 0.9110803569	 0.096061
H	-0.9925859825	-0.3969333711	 0.1004231459	 0.096247
H	 0.1526778558	-0.174508943	-2.1302624998	 0.105186
H	 1.7015614572	-0.020803251	-1.3198836639	 0.104776
H	 1.4015425677	-2.3109420104	-0.3165571923	 0.126036
H	-0.1441069672	-2.4642418349	-1.1287956635	 0.127083
H	 2.3559154497	-2.9404061539	-5.4732242121	 0.157886
H	 3.8228937908	-3.1642984938	-4.5473194868	 0.157774
H	 2.4907921151	-7.1296631092	-5.0449043157	 0.198488
