20
gdb 12571	3.24365	1.6949	1.23438	1.708	70.88	-0.2442	0.0786	0.3228	1011.709	0.178811	-386.142331	-386.134388	-386.133444	-386.174314	30.713	
O	-0.4112112795	 1.5112802106	-0.4919347913	-0.440437
C	-0.0393762285	 0.2043344124	-0.0630985226	 0.138
C	-1.3477153547	-0.5556182303	 0.1813459951	-0.17865
C	-1.1372868698	-1.8824371692	 0.9267089796	-0.241805
C	-0.7351458817	-3.0674313715	 0.0305145498	-0.059802
O	 0.0743748111	-2.7414399271	-1.0850713013	-0.240569
C	 1.2077505461	-1.9316750543	-0.8277313243	-0.089139
C	 0.8985351182	-0.4540137591	-1.0825842986	-0.214902
H	 0.3915732632	 1.9898646663	-0.7218861882	 0.277779
H	 0.4901426102	 0.2685697837	 0.9050617656	 0.057038
H	-1.9867350596	 0.1040585352	 0.7770742333	 0.105078
H	-1.8606748356	-0.7185480119	-0.7733388925	 0.108115
H	-0.3875253596	-1.7313988508	 1.7134728779	 0.09839
H	-2.0570708471	-2.1693129744	 1.4489783115	 0.10107
H	-0.2463539363	-3.8412635107	 0.6457933811	 0.085157
H	-1.6301500573	-3.5203665951	-0.4092389366	 0.10816
H	 1.5934706453	-2.0922495407	 0.1906548907	 0.088746
H	 1.9890767344	-2.2612203325	-1.5221808113	 0.105015
H	 0.4423609234	-0.3713850345	-2.0761693516	 0.114641
H	 1.8443804277	 0.1066636839	-1.1110929361	 0.078114
