18
gdb 35419	2.55782	1.63819	1.33251	3.9818	79.8	-0.2483	0.0143	0.2626	1017.0724	0.150236	-364.831784	-364.824345	-364.8234	-364.864205	28.908	
N	 0.2435425992	-1.0725002939	 0.8338911392	-0.343703
C	 0.1444885411	 0.0249967433	 0.4813545473	 0.288249
C	 0.0284608837	 1.4036800313	 0.0382369588	-0.161258
C	-0.5165527669	 2.4207920018	 1.0994473413	-0.244534
C	 0.8669903877	 3.1362521226	 1.1147288596	-0.050131
C	 1.7807781013	 2.7540713436	 2.2474566912	-0.079011
C	 2.740029131	 1.9089037659	 1.8700903102	-0.0483
C	 2.679402785	 1.5644784252	 0.3987218168	-0.285392
C	 1.3689762656	 2.2318665496	-0.0604780334	-0.0293
H	-0.5410590788	 1.4102927161	-0.8944104477	 0.123017
H	-1.3305553529	 3.029546793	 0.7004209188	 0.111045
H	-0.8340152061	 1.980583222	 2.0459743402	 0.123899
H	 0.8244540521	 4.2165294443	 0.9455219837	 0.078
H	 1.6423353826	 3.1328224024	 3.2546069727	 0.096735
H	 3.5017152619	 1.5008625163	 2.5253912277	 0.100688
H	 3.5477935317	 1.9637833029	-0.1415608946	 0.106632
H	 2.6784560082	 0.481696931	 0.2259580911	 0.132627
H	 1.4533074635	 2.7160828126	-1.0335031231	 0.080739
