16
gdb 62283	3.34966	1.5451	1.33952	5.2828	71.77	-0.2588	0.0163	0.2751	964.9452	0.125967	-396.869319	-396.861967	-396.861023	-396.900839	28.933	
N	-0.0272830721	 1.485424394	 0.0553953243	-0.577473
C	-0.0296356285	 0.045148795	-0.0721670605	 0.152955
C	 0.7878693133	-0.5240463492	 1.0072378215	 0.28769
N	 1.4644152151	-0.9487739792	 1.8417261577	-0.331895
C	-1.3762075206	-0.6608233297	-0.169095348	-0.064936
C	-1.7653353757	-0.7437883641	-1.6102292617	-0.053051
C	-0.6708737757	-0.1312731216	-2.4666948182	-0.266105
C	 0.2670743901	-0.7344911989	-1.4115291614	-0.047126
N	-0.8327663447	-1.7692561846	-1.0267486594	-0.146165
H	 0.9155391044	 1.8598196432	 0.0756149403	 0.24472
H	-0.5314017886	 1.9166423374	-0.7105423458	 0.241491
H	-2.0690520304	-0.8521210578	 0.6411001288	 0.118297
H	-2.7756638144	-1.0078492614	-1.9005932877	 0.112376
H	-0.5792968004	-0.6674320169	-3.4140604575	 0.128311
H	-0.6464091234	 0.9472918379	-2.6565328427	 0.094755
H	 1.2739545817	-1.0735660742	-1.6430641197	 0.106155
