25
gdb 95757	2.22759	1.40375	1.10603	1.1166	88.94	-0.2392	0.0793	0.3185	1282.488	0.228665	-389.524799	-389.515003	-389.514058	-389.558373	39.007	
C	 0.031567355	 1.5279967152	 0.0928939599	-0.396774
C	 0.0183735821	 0.0123929471	-0.0547523412	 0.146779
C	 0.777830775	-0.4771640457	-1.2920010319	-0.187139
C	 0.8518763246	-2.0083296562	-1.3057357563	-0.234643
C	 1.4253219006	-2.517797141	 0.022927474	-0.204364
C	 0.6855328387	-1.9394800117	 1.2489394681	 0.373027
C	-0.7133102575	-2.558549529	 1.4225116973	-0.421434
C	 1.5067419718	-2.167404104	 2.5197182315	-0.411879
O	 0.5987956775	-0.5096290955	 1.1373159414	-0.305643
H	 1.0602748043	 1.8930464928	 0.1747892452	 0.119182
H	-0.4394413831	 2.0039269612	-0.7727800707	 0.108498
H	-0.5095419036	 1.8283585016	 0.9942254698	 0.118851
H	-1.0294767092	-0.3234724976	-0.1352678926	 0.059073
H	 0.2894914646	-0.1000152389	-2.198076911	 0.088352
H	 1.7916762741	-0.0557569036	-1.2679717968	 0.094512
H	-0.1507706882	-2.4228059666	-1.4716990742	 0.096135
H	 1.4699784325	-2.3583690995	-2.1396735742	 0.092801
H	 1.401369072	-3.6128376205	 0.0632604976	 0.088636
H	 2.4788416837	-2.2188758468	 0.0913463447	 0.093566
H	-0.6305535002	-3.6240097638	 1.6595023075	 0.111197
H	-1.2372634057	-2.0628663795	 2.2450015888	 0.118752
H	-1.3310384288	-2.4693250241	 0.5254980861	 0.113772
H	 2.4760110193	-1.6681575797	 2.4361357985	 0.11621
H	 0.985948184	-1.7571951065	 3.3898905192	 0.115525
H	 1.6756791867	-3.2356910577	 2.6870870592	 0.107006
