16
gdb 16079	3.34379	1.66001	1.40869	1.1582	60.13	-0.2409	0.0514	0.2923	914.3316	0.129879	-420.812483	-420.804772	-420.803827	-420.844608	28.692	
O	 0.1387502504	 1.4049635039	-0.04395452	-0.410569
C	 0.0789146595	-0.0031120435	 0.1430498361	-0.181019
C	-1.3230172921	-0.5239535941	 0.0740068678	 0.199193
C	-2.4129468251	-0.3104737008	 1.1187826646	-0.138345
O	-2.9777834416	-1.6350035869	 0.8651213553	-0.307069
C	-1.9103563226	-1.9307481371	-0.0449199709	-0.031241
C	-2.0089266635	-1.0014166017	-1.2057865111	 0.062041
O	-3.2370826201	-0.5197797419	-1.6461673477	-0.435041
H	-0.2876976486	 1.6027333918	-0.8849373658	 0.287718
H	 0.7090418964	-0.5374953598	-0.5867554574	 0.089298
H	 0.5116948543	-0.18321019	 1.1339154283	 0.112954
H	-2.032929378	-0.2533712375	 2.1439466755	 0.119018
H	-3.1371424156	 0.4901696791	 0.9379636647	 0.118088
H	-1.4854856753	-2.9285400106	-0.020305351	 0.109483
H	-1.3206857008	-1.1963025197	-2.0253326853	 0.107128
H	-3.8982013872	-0.8829324211	-1.0404948332	 0.298362
