20
gdb 117591	2.10131	1.08226	0.916	3.7778	85.54	-0.2817	0.0143	0.2959	1421.257	0.167821	-365.999428	-365.988739	-365.987794	-366.035113	38.568	
C	-0.0508197554	 1.6187518757	 0.0730511907	-0.386592
C	 0.0046479389	 0.0906552412	-0.0232012233	-0.198516
C	 0.7452677399	-0.5273183281	 1.1670125879	-0.181046
C	 0.7730552782	-2.0904208022	 1.2061853934	-0.125368
C	 1.492253416	-2.6896408747	-0.0322475008	-0.406929
C	 1.4630143135	-2.5214965434	 2.4288647725	 0.334621
C	 2.0609780642	-2.8498992499	 3.4168560133	-0.439993
C	-0.6147394094	-2.5990329536	 1.2412526286	 0.299947
N	-1.7048868741	-2.9821096332	 1.242416995	-0.349498
H	 0.9544702433	 2.0537960103	 0.0956853447	 0.116644
H	-0.5797431208	 2.0465661008	-0.7835391702	 0.119718
H	-0.5717596052	 1.9396084084	 0.981437391	 0.12222
H	-1.0139101333	-0.3121637107	-0.0684136245	 0.127363
H	 0.4947647093	-0.1933862775	-0.9613565036	 0.103423
H	 1.789392743	-0.1946716684	 1.1811884663	 0.113527
H	 0.2929603473	-0.1802737721	 2.1019414093	 0.123851
H	 2.5077173805	-2.289197094	-0.0853225781	 0.133935
H	 1.5486730116	-3.7765247777	 0.0506534874	 0.146342
H	 0.957610472	-2.4369547085	-0.9496891487	 0.140242
H	 2.5768957906	-3.1491713623	 4.2959391593	 0.206109
