16
gdb 34692	4.08965	1.49065	1.37482	1.3682	75.65	-0.2308	0.0489	0.2797	947.0144	0.12551	-363.513377	-363.506809	-363.505865	-363.544234	27.089	
C	 0.0542404032	-1.2177737733	 0.0446980465	-0.465052
C	 0.0242557583	-0.0162603632	 0.0351901382	 0.32999
C	-0.0128628885	 1.4403343824	 0.0195960444	-0.198661
C	-0.5314898979	 2.0841636387	 1.3016924119	-0.076067
C	 0.6002684797	 2.3101954725	 2.2917144133	-0.102543
C	 0.0879284597	 3.4453952625	 1.446313609	-0.043333
N	 1.3355950722	 3.4643079258	 0.5840251919	-0.170178
C	 1.8515484364	 2.3135266176	 1.4019308859	-0.03374
C	 1.3686926126	 2.0834671864	 0.0195235731	-0.05996
H	 0.0808640297	-2.2792067319	 0.0534643506	 0.196041
H	-0.5945741888	 1.7872720287	-0.8437937881	 0.11257
H	-1.5324979463	 1.8975456243	 1.6674099484	 0.104563
H	 0.5412251865	 2.1277508208	 3.3544722682	 0.098304
H	-0.4246232033	 4.3688255225	 1.6782962045	 0.101544
H	 2.8831610681	 2.2627903806	 1.7278999409	 0.099372
H	 2.0530066383	 1.9361317456	-0.8074905188	 0.107151
