19
gdb 108840	2.87443	1.20308	0.94405	3.2772	77.15	-0.225	0.0155	0.2405	1261.5765	0.159165	-423.009975	-423.001184	-423.000239	-423.043535	33.293	
O	 0.040397445	 1.3988069578	-0.0205234923	-0.411463
C	-0.004141455	-0.0140768196	 0.0286554564	-0.181913
C	-1.4234178669	-0.4789584729	 0.0468967269	 0.314079
C	-2.5280598895	 0.2707801017	 0.0238070854	-0.236125
C	-3.795939608	-0.5663050584	 0.0579547036	 0.089617
O	-4.7506132281	-0.2225919838	-0.9394494445	-0.432703
C	-3.2672849554	-2.0046381455	-0.011758354	-0.060267
C	-2.4601906876	-2.4089796669	-1.2232846239	-0.293901
C	-1.7589125916	-1.94132412	 0.0374324583	-0.138657
H	 0.961903787	 1.670851129	 0.0049807751	 0.290433
H	 0.5093797369	-0.4677174075	-0.8383485694	 0.099171
H	 0.5115458044	-0.4036731427	 0.9248921712	 0.096576
H	-2.551330735	 1.3506591515	-0.0406788284	 0.111511
H	-4.3392698622	-0.4139601166	 0.9992856762	 0.091002
H	-4.3256306673	-0.3454137691	-1.7956362333	 0.274045
H	-3.8134447677	-2.7828376776	 0.5068348153	 0.088186
H	-2.4354123314	-3.4682316429	-1.4575691444	 0.112302
H	-2.419679687	-1.7561590117	-2.0904549895	 0.103395
H	-1.1642139307	-2.6462626648	 0.6087623512	 0.08471
