22
gdb 82482	3.27238	1.44862	1.34523	1.6766	84.69	-0.2174	0.0795	0.2969	1086.8782	0.195463	-367.173314	-367.165181	-367.164236	-367.205328	33.026	
C	-0.1820507607	 1.6113979979	-0.0108410396	-0.425251
C	 0.0454392812	 0.1082145475	 0.0176695703	 0.040673
C	 1.0955573341	-0.5755969929	-0.8863954552	-0.015448
C	 2.5068644763	 0.0412414739	-0.8690489574	-0.299516
C	 2.741432808	-0.6915036546	 0.4713499617	 0.3842
C	 4.0574453694	-1.3950611975	 0.6907106854	-0.485326
C	 2.0747830136	 0.0239896269	 1.6681201016	-0.299514
C	 0.7386778495	-0.5898578311	 1.209218476	-0.015447
N	 1.4693203644	-1.5410805329	 0.248928391	-0.196553
H	 0.7434892893	 2.1727572191	 0.150605117	 0.116575
H	-0.5950170654	 1.9263590004	-0.9755947159	 0.117565
H	-0.8917770166	 1.9144975771	 0.7669187014	 0.117565
H	-0.9090822227	-0.4047532478	-0.1483708057	 0.081815
H	 0.7458738581	-0.995681847	-1.8323409771	 0.066349
H	 3.1321058918	-0.3746409688	-1.6644449533	 0.102665
H	 2.605042762	 1.130924831	-0.8860923329	 0.095137
H	 4.8645048895	-0.6656294893	 0.8333003953	 0.113148
H	 4.0159946174	-2.0352808725	 1.5779215475	 0.118608
H	 4.3136381449	-2.0231730491	-0.1686976661	 0.118601
H	 2.4024569332	-0.4037696956	 2.6200608004	 0.102664
H	 2.1593274694	 1.1131299945	 1.7310940574	 0.095138
H	 0.0965626433	-1.0216275292	 1.9804679583	 0.066349
