18
gdb 111450	3.04409	1.49576	1.20597	2.2836	70.	-0.2356	0.0616	0.2973	1043.5018	0.148838	-439.029834	-439.022301	-439.021357	-439.061893	29.668	
O	 0.1298033427	 1.3874286483	 0.0089419711	-0.425531
C	 0.0936011226	-0.0234355888	-0.0887529946	-0.057804
C	-1.3369349697	-0.5510833336	-0.0052961266	-0.022891
C	-1.5185642634	-2.0533378669	-0.1696280835	 0.013202
O	-0.9245006503	-2.8489225451	 0.8653536336	-0.252898
C	-2.3227085643	-2.5376485156	 0.962241231	 0.024966
C	-2.6300248952	-1.3574921441	 1.8557152034	-0.056292
C	-1.4633093428	-0.7327870118	 2.529548876	-0.254806
N	-1.9898880845	-0.1570055811	 1.2761721411	-0.13513
H	-0.4379137559	 1.6281447586	 0.7502230994	 0.29397
H	 0.5282371251	-0.2831992444	-1.0601848591	 0.108908
H	 0.7108457085	-0.5025430079	 0.6859399811	 0.099196
H	-1.9180581304	-0.0611223686	-0.798248258	 0.097351
H	-1.5299356279	-2.5033884226	-1.160515959	 0.103239
H	-3.0009542396	-3.3836478262	 0.9067194625	 0.105402
H	-3.6422810773	-1.2568616517	 2.2363474309	 0.096332
H	-1.6174685108	-0.0983234499	 3.3979459567	 0.116467
H	-0.5375461168	-1.2962829986	 2.5158194938	 0.146321
