18
gdb 31029	2.33665	1.33526	0.89835	1.5466	74.99	-0.1919	0.0544	0.2463	1297.2494	0.148405	-435.31387	-435.304385	-435.303441	-435.348663	34.525	
C	-0.0373923869	 1.6322413327	-0.2574803868	-0.362802
C	-0.058199443	 0.1460265222	 0.1347632596	-0.290456
C	-1.436313366	-0.4340213674	 0.161870144	 0.263372
C	-2.1203388375	-0.9545495198	 1.2277905035	 0.137599
N	-1.8517967643	-1.1581927964	 2.5977738008	-0.619652
N	-3.3624912193	-1.3459984906	 0.7094123506	-0.31303
C	-3.3413153001	-1.0395027007	-0.6056231795	 0.430613
O	-4.4101089239	-1.3038854559	-1.3794544337	-0.428497
N	-2.21913373	-0.4936006078	-0.9886699866	-0.422608
H	 0.9882004837	 2.0112860838	-0.3116429703	 0.10323
H	-0.5100911028	 1.7725428723	-1.2332022546	 0.135568
H	-0.5874337499	 2.2383173991	 0.4699854631	 0.107316
H	 0.5584253821	-0.417822105	-0.5772083461	 0.108588
H	 0.4016552856	 0.0119744042	 1.1211320853	 0.080409
H	-1.0625699725	-1.7761227307	 2.7502982849	 0.245504
H	-1.6673253918	-0.2914942343	 3.0902133907	 0.245544
H	-4.1092351595	-1.7728604046	 1.2305918485	 0.269094
H	-4.1730416641	-1.0066146911	-2.2670951733	 0.310208
