17
gdb 29830	3.65764	1.10058	0.85508	7.4511	80.61	-0.2342	-0.0288	0.2054	1318.7877	0.135574	-418.067273	-418.05822	-418.057275	-418.101948	31.534	
C	-0.0011348635	 1.451061464	 0.011004954	-0.343749
N	 0.0112139182	-0.0003102571	 0.0048362607	-0.027458
C	-0.002580404	-0.8114279333	-1.0949045852	-0.1745
C	 0.017406211	-2.1047185232	-0.6162105255	 0.154367
C	 0.0121299298	-3.3100706686	-1.441309525	 0.080197
O	 0.0293325033	-4.4502661453	-1.0403895244	-0.274568
N	 0.04326954	-2.093141702	 0.7646472059	-0.33103
C	 0.0390558751	-0.8306675841	 1.1113480782	 0.336051
C	 0.0609149113	-0.3111773345	 2.5088998294	-0.504234
H	 0.8935514957	 1.8471848844	 0.5007360656	 0.151178
H	-0.0231435008	 1.8122495274	-1.0178226495	 0.15154
H	-0.8838884501	 1.8319457513	 0.5333975044	 0.151177
H	-0.0248022774	-0.4122928965	-2.0965797806	 0.14368
H	-0.0103219754	-3.0845330379	-2.5343212514	 0.051338
H	 0.9431458359	 0.3102321612	 2.7027457832	 0.134248
H	-0.8238609492	 0.295168051	 2.735996625	 0.134248
H	 0.0809793704	-1.1626010367	 3.1894398151	 0.167513
