19
gdb 38241	3.09965	1.73217	1.3965	2.1408	80.12	-0.2286	0.0147	0.2433	970.4463	0.161486	-385.826624	-385.819819	-385.818875	-385.857424	28.758	
C	-0.0128721076	 1.649485351	 0.1901374611	-0.268092
C	 1.4385372196	 1.1737852341	 0.0595420174	-0.002223
O	 1.1069944367	 0.0139621196	 0.9445962392	-0.373734
C	 0.0069149444	 0.1076799508	-0.0478004505	 0.442185
C	-1.1455900032	-0.8117557717	-0.2857338365	-0.362822
C	-1.8104087023	-0.2977427184	-1.5988339299	-0.257834
C	-0.8796065294	 0.3058708961	-2.6380432673	-0.027307
C	 0.4084737284	 0.6248477961	-2.460126177	-0.141604
C	 1.0508158825	 0.2699264299	-1.1600405746	-0.028341
H	-0.3082422151	 1.9499491201	 1.1959457525	 0.101114
H	-0.4217005882	 2.2893432083	-0.5933786144	 0.103052
H	 2.3718570132	 1.6951178202	 0.2739928758	 0.090122
H	-0.770571933	-1.8321473224	-0.4218112564	 0.116662
H	-1.8737593947	-0.8272456808	 0.5309990294	 0.108135
H	-2.380566797	-1.1132445519	-2.0593414208	 0.114028
H	-2.5596300222	 0.4654466961	-1.3434377547	 0.12066
H	-1.3488720205	 0.5082571779	-3.5990127345	 0.09096
H	 0.9883309771	 1.0545162483	-3.2731836958	 0.087359
H	 1.7342047213	-0.5824881534	-1.2344296131	 0.087681
