16
gdb 64684	5.01297	0.87079	0.82479	3.7029	76.13	-0.2784	-0.0073	0.2711	1365.7957	0.120919	-400.708452	-400.699077	-400.698133	-400.742898	33.691	
C	-0.1478187367	 1.6816410759	 0.2487608138	-0.466052
C	-0.1246386579	 0.1770201928	 0.1351908831	 0.384921
C	-1.3682659293	-0.4856760626	-0.4598227534	-0.418237
C	-1.686511706	 0.0006963297	-1.7974489304	 0.306745
C	-1.9410377691	 0.4104395436	-2.897556384	-0.432495
O	 1.1134403849	-0.4008738239	-0.286714257	-0.255374
C	 0.6939959228	-0.6497026495	 1.056893796	-0.168166
C	 1.4839257594	-0.0544672622	 2.1132273842	 0.307536
N	 2.0985277372	 0.4048734757	 2.9776538006	-0.327065
H	 0.7779589707	 2.0542516871	 0.6897588003	 0.153369
H	-0.2712883089	 2.1216634283	-0.744223031	 0.152491
H	-0.9886548161	 2.004964521	 0.8707329996	 0.133037
H	-1.2108706375	-1.5696330003	-0.4886855613	 0.143797
H	-2.2169975332	-0.3035018315	 0.2123623695	 0.144287
H	-2.1678277305	 0.7629578854	-3.8734647892	 0.205986
H	 0.3869573602	-1.6740874295	 1.2633143791	 0.135221
