15
gdb 45020	2.55185	1.79788	1.15561	2.2482	68.33	-0.2659	-0.0078	0.2581	1010.6782	0.115074	-453.987491	-453.980393	-453.979449	-454.0193	27.432	
N	-0.0995468972	 1.2622034365	 0.3107408834	-0.525387
C	-0.0242044296	 0.0228479859	 0.034635331	 0.396007
N	 1.160851355	-0.7008448418	-0.1388400423	-0.43367
C	 1.3409030367	-1.9449470264	-0.7343653342	 0.46904
O	 2.4312139849	-2.3980967415	-0.9509918827	-0.368287
O	 0.2236046558	-2.6270871155	-1.0671343616	-0.238674
C	-1.0626791394	-2.1742935386	-0.7058021089	 0.111233
C	-1.4266901447	-2.038734992	 0.7343409056	-0.328077
C	-1.2445496348	-0.794967242	-0.1369106539	-0.104249
H	 0.8227191806	 1.6972264096	 0.3735981925	 0.211658
H	 2.036860256	-0.2227744037	 0.0180148712	 0.265372
H	-1.7848892383	-2.5604956575	-1.413758917	 0.131127
H	-2.4357049632	-2.2903513204	 1.0383004685	 0.138971
H	-0.6575032548	-2.2480717682	 1.469355105	 0.144863
H	-2.123328977	-0.2226510043	-0.4025917265	 0.130074
