23
gdb 52611	2.41941	0.97416	0.84601	1.7708	90.79	-0.2471	0.0451	0.2922	1544.8606	0.201175	-388.277792	-388.265823	-388.264878	-388.315663	42.865	
C	 0.0349732435	 1.4851813366	-0.0373141752	-0.501629
C	-0.0004933096	 0.0295396531	-0.0086427898	 0.054085
C	-0.0431052529	-1.1748079075	 0.0090670498	 0.065788
C	-0.0465050061	-2.6473644236	 0.0012028266	 0.15974
C	-1.484519964	-3.1763216676	-0.095375185	-0.404973
O	 0.5979767917	-3.1129077991	-1.1966897283	-0.454053
C	 0.7313796256	-3.1837757511	 1.2486426847	 0.035106
C	 0.1411297848	-2.7087178878	 2.5827567987	-0.403777
C	 0.8822509508	-4.7105596651	 1.2193995972	-0.409669
H	 0.8992804308	 1.8766322033	 0.5103693276	 0.147521
H	 0.0949772092	 1.8599848718	-1.0650584052	 0.150495
H	-0.8661428372	 1.9115340611	 0.4171910104	 0.150759
H	-1.9597851104	-2.7677798192	-0.9893836783	 0.129546
H	-1.4788641974	-4.2658510347	-0.1755814154	 0.124342
H	-2.0721891323	-2.8836669152	 0.7770434857	 0.121573
H	 1.4280118216	-2.6309300869	-1.2801740817	 0.276667
H	 1.7362881851	-2.7464729484	 1.1580158088	 0.064378
H	 0.0270448701	-1.6218939362	 2.6078223194	 0.123567
H	-0.8397020664	-3.1597029894	 2.7686885784	 0.114407
H	 0.7949088049	-3.001226187	 3.4107387448	 0.110229
H	 1.2358964338	-5.0501072776	 0.2437230116	 0.127339
H	 1.5992247032	-5.0327999826	 1.9813589208	 0.105396
H	-0.0669778088	-5.213045807	 1.4341946143	 0.113162
