21
gdb 121635	2.88981	0.90175	0.78879	2.9218	77.76	-0.2252	0.0632	0.2884	1544.3512	0.181251	-457.571255	-457.560081	-457.559137	-457.60888	38.298	
C	 0.000488002	 1.018085774	-0.8848976357	-0.340492
N	-0.0209335335	-0.1284880804	 0.0032830779	-0.118696
C	 1.2333860935	-0.5308175599	 0.6056042962	-0.349272
C	-1.1990800525	-0.831762994	 0.1503146773	 0.495643
O	-2.2661021077	-0.4367985942	-0.3016109744	-0.43124
N	-1.0979396422	-2.0015248616	 0.8913799492	-0.368904
C	-2.2568936676	-2.87854794	 0.9540788861	-0.146596
C	-2.3043965111	-3.8654613847	-0.2061968454	-0.078118
O	-1.1104311039	-4.6415998571	-0.1444504259	-0.427661
H	 0.3593174939	 1.9112416873	-0.3579039014	 0.115553
H	 0.6581939458	 0.8441881592	-1.7479312855	 0.111289
H	-1.0152215327	 1.1925615342	-1.2356970842	 0.169237
H	 1.0651234031	-0.9718976134	 1.5911135953	 0.14258
H	 1.8008352753	-1.2462104217	-0.0105062694	 0.11767
H	 1.8620334598	 0.3540256536	 0.7436489843	 0.130115
H	-0.2247957615	-2.5034639792	 0.8367827098	 0.246358
H	-2.2225896776	-3.4342870861	 1.8976884381	 0.104438
H	-3.1502803207	-2.253405759	 0.9428727175	 0.141459
H	-3.1992944993	-4.5006005192	-0.1158598496	 0.087298
H	-2.3723885527	-3.3075975363	-1.1504027814	 0.109117
H	-1.0423263306	-5.1588769215	-0.9514900687	 0.290223
