16
gdb 54650	3.9804	1.02299	0.8221	1.8264	72.61	-0.2468	-0.0371	0.2097	1311.7794	0.123467	-437.95561	-437.946841	-437.945897	-437.989985	31.501	
N	-0.020966283	 1.3322284951	 0.0359040299	-0.543771
C	 0.0411306347	-0.0337218023	 0.019012131	 0.327924
O	 1.1001628476	-0.636307846	 0.0183979729	-0.364405
C	-1.2783116721	-0.7306687375	 0.0179617179	 0.222883
C	-1.3684777267	-2.0667946543	 0.0053573301	-0.134701
C	-2.7825750557	-2.5610790774	 0.0110056804	-0.381308
C	-3.6137741389	-1.2667880987	 0.0310761549	 0.405699
O	-4.8119373046	-1.1924246243	 0.040885951	-0.297085
C	-2.6376758145	-0.0724984108	 0.035546829	-0.474769
H	 0.8459624983	 1.8410978505	-0.0176493084	 0.263619
H	-0.8839390459	 1.8383115938	-0.0520222853	 0.261417
H	-0.4977401147	-2.7106572118	-0.0059234781	 0.135198
H	-3.0420700345	-3.163834058	-0.8691735702	 0.148143
H	-3.0279585785	-3.1821206549	 0.882474207	 0.14848
H	-2.822179749	 0.5468571465	 0.9230467958	 0.143175
H	-2.8397933326	 0.5626027201	-0.8373656779	 0.139501
