15
gdb 42708	3.30525	1.92783	1.82305	4.1408	66.85	-0.2405	-0.0294	0.2112	799.3479	0.115306	-416.710801	-416.705077	-416.704133	-416.740747	24.056	
O	 0.0173295064	 0.0423951645	 0.0980605721	-0.311515
C	-0.011517618	 1.2348927673	 0.1023174482	 0.486619
C	-1.099971642	 2.3033558023	-0.0104329537	-0.145206
C	-1.0774945835	 3.2173011709	 1.2703958254	-0.037426
N	-0.0123513708	 2.7249925714	 2.2025026384	-0.322103
C	 0.9957746035	 3.2675778884	 1.2355474819	-0.037426
C	-0.0748305702	 4.1244421595	 0.5044171016	 0.003833
N	-0.0733298591	 3.2176163537	-0.7145296949	-0.180028
C	 1.0194791066	 2.3547538958	-0.0460586368	-0.145206
H	-2.0546329162	 2.1017698327	-0.4952589777	 0.100909
H	-2.0296401139	 3.5059751593	 1.7120392936	 0.088684
H	-0.0128618595	 3.3193270406	 3.0296238611	 0.225526
H	 1.9471105743	 3.6024089018	 1.6451945767	 0.088684
H	-0.1029267162	 5.2087285498	 0.3973942458	 0.083745
H	 1.9659633988	 2.199272412	-0.5628412515	 0.100909
