19
gdb 97481	8.79945	0.43806	0.43233	0.2853	109.57	-0.2155	-0.0017	0.2138	2579.9185	0.158137	-348.706137	-348.696128	-348.695183	-348.743172	35.217	
C	 0.002098404	 1.5680597984	 0.0795481271	-0.365304
C	-0.0446720319	 0.0319103902	-0.0336637019	-0.342681
C	 0.6386861632	-0.4757206256	-1.2144321525	 0.27126
C	 1.2120886404	-0.8804323284	-2.2021280773	-0.221107
C	 1.8542155027	-1.3335413423	-3.3108765474	-0.22486
C	 2.4308971838	-1.743012493	-4.2960154211	 0.31871
C	 3.1031302069	-2.2121573273	-5.466414579	-0.199873
C	 4.4948192558	-2.8234399421	-5.3615013506	-0.25084
C	 3.3257681034	-3.7042545772	-5.6796371477	-0.250699
H	 1.0349905635	 1.9219606063	 0.1323871433	 0.131426
H	-0.4713432609	 2.0354024948	-0.7878317965	 0.131554
H	-0.5238661782	 1.8972691846	 0.980550706	 0.115934
H	 0.403786359	-0.415315678	 0.8634095923	 0.134063
H	-1.0903782485	-0.3031868831	-0.0454170701	 0.133583
H	 2.9118155858	-1.6337176276	-6.3661660229	 0.115192
H	 5.1975775457	-2.5844120846	-6.1516430749	 0.12094
H	 4.9282541524	-2.8877811737	-4.3708218629	 0.130793
H	 2.9617603148	-4.3693034415	-4.9059310296	 0.130906
H	 3.214871698	-4.0778028598	-6.6912514644	 0.121002
