19
gdb 39256	2.92998	1.76972	1.27423	1.9936	80.21	-0.2325	0.01	0.2425	1012.2949	0.161947	-385.898614	-385.891626	-385.890682	-385.929906	28.714	
C	 0.05027673	 1.4232953445	 0.5836895811	-0.241022
C	 1.07907945	 2.0987930033	-0.3702321044	-0.230692
C	 1.9866318999	 0.9604085981	-0.8965362987	-0.055242
C	 2.4134638147	 0.9707721891	-2.3877730129	-0.307122
C	 1.9593826382	-0.3803313036	-2.9077327399	-0.068121
C	 1.2535307045	-1.076814464	-2.0122120937	-0.208381
C	 1.1188135398	-0.2978751807	-0.7665449727	 0.472837
O	 1.0426392259	-0.8610697103	 0.5463835622	-0.316585
C	-0.039152821	-0.020778177	 0.0994527938	-0.06429
H	 0.392095741	 1.4351910832	 1.6240536997	 0.116347
H	-0.9225184214	 1.9225369935	 0.5512287281	 0.100979
H	 0.539399895	 2.5440394901	-1.214774743	 0.099699
H	 1.6358970983	 2.9065548761	 0.1133361221	 0.099474
H	 2.8642046128	 0.8440509109	-0.2527159051	 0.087673
H	 1.9229527784	 1.782353575	-2.9431167498	 0.108459
H	 3.4906900404	 1.1200257054	-2.5235487029	 0.109967
H	 2.1698064385	-0.7065380264	-3.9207033122	 0.098603
H	 0.809239325	-2.0535068893	-2.1580048098	 0.103865
H	-0.99822757	-0.5239413677	 0.0019645779	 0.093551
