21
gdb 58947	2.64182	1.27297	1.07101	1.8696	77.6	-0.2323	0.0577	0.2901	1230.2288	0.18098	-424.180638	-424.171217	-424.170273	-424.214785	35.706	
C	 0.0439096934	 1.5121939704	-0.1137959936	-0.386805
C	 0.0467997364	-0.0140427955	 0.0788176438	-0.095556
C	 0.7992201692	-0.4150915202	 1.3574998411	-0.390957
C	-1.3618580797	-0.5553971129	 0.0402450338	 0.260948
C	-2.4425677402	-0.3822293468	 1.1079634279	-0.15303
O	-2.9894322802	-1.708816213	 0.8364786966	-0.309373
C	-1.9336050642	-1.9666503074	-0.1016409659	-0.045683
C	-2.0751651474	-1.0014489139	-1.2312937747	 0.062105
O	-3.3265667287	-0.5337675843	-1.624956846	-0.44097
H	 1.0652738424	 1.9049440534	-0.145118081	 0.111305
H	-0.4603267931	 1.7930160274	-1.0432003907	 0.125454
H	-0.4763169949	 2.0104667599	 0.7126416143	 0.114941
H	 0.5814373098	-0.4576958287	-0.7727822207	 0.075027
H	 0.3440362726	 0.0348381758	 2.2467004168	 0.115068
H	 0.8005817746	-1.5009690957	 1.4946630929	 0.115553
H	 1.8394392885	-0.0763694228	 1.3164532045	 0.113347
H	-2.0639115321	-0.3401877736	 2.1338706391	 0.114851
H	-3.1814359	 0.4102274245	 0.9459617359	 0.113057
H	-1.5066319779	-2.9640292529	-0.1170361151	 0.102314
H	-1.4072814014	-1.1550191769	-2.0755055748	 0.102845
H	-3.959459497	-0.9274424867	-1.0082492941	 0.29556
