16
gdb 124214	4.73204	0.99711	0.82784	2.1809	75.68	-0.2199	-0.0117	0.2082	1314.1777	0.127077	-430.256173	-430.248071	-430.247127	-430.28997	29.76	
C	 0.8220838295	-0.4891041828	 1.2879371652	-0.451822
C	 0.3183350481	 0.1025371399	-0.0014948845	 0.396449
N	 0.1869117769	 1.3708780196	-0.0884740797	-0.518784
N	 0.0201332282	-0.7734187712	-1.0394494014	-0.445608
C	 0.0958561764	-2.1531748566	-1.1350060395	 0.397378
N	-0.2686205124	-2.7197577555	-2.2909265681	-0.303469
N	-0.0840234456	-4.0186807423	-2.0611409357	-0.069477
N	 0.3646511945	-4.3499165997	-0.8688187504	-0.192124
C	 0.4928012386	-3.1772961476	-0.2441324011	-0.121036
H	 0.0892429707	-1.174774187	 1.7249936599	 0.140367
H	 1.7542729231	-1.0422368297	 1.1352330659	 0.140374
H	 1.0026288236	 0.330178827	 1.9816159228	 0.153199
H	-0.1610736663	 1.6552984809	-1.0073429012	 0.198064
H	-0.3152944335	-0.3421301995	-1.8891642505	 0.252774
H	-0.2795783493	-4.708395914	-2.7676452604	 0.296536
H	 0.8482682374	-3.1351096916	 0.7686249884	 0.127178
