16
gdb 51597	4.04986	0.75312	0.69389	3.936	70.87	-0.2915	-0.0134	0.2781	1559.4944	0.12277	-437.901678	-437.892632	-437.891688	-437.937133	31.097	
O	 0.2763366097	 0.0238571828	 0.3414302452	-0.260509
C	 0.367606345	 1.2034642295	 0.4839150287	 0.175473
O	 0.8357916041	 2.0148958456	-0.4966200708	-0.191347
C	 0.8674369483	 3.3983257926	-0.210851227	 0.075631
C	 1.9866775103	 3.9448638244	 0.6360408007	-0.312893
C	 1.9719312469	 4.1785777658	-0.8584680173	-0.033119
C	 2.9726282179	 3.4644213925	-1.754792693	-0.3626
C	 4.2730747861	 4.1352865115	-1.7660611508	 0.266206
N	 5.2936981058	 4.6765927645	-1.7678733811	-0.30266
H	 0.0909843325	 1.757074345	 1.3999252442	 0.091472
H	-0.1189745831	 3.8491629856	-0.1536647284	 0.123575
H	 1.7786923379	 4.7746968201	 1.3012378554	 0.136165
H	 2.7083932261	 3.2286873972	 1.0148694308	 0.141143
H	 1.7099156141	 5.177485471	-1.1913095439	 0.120557
H	 3.1065509711	 2.4297502339	-1.4262548616	 0.170709
H	 2.5947030074	 3.415893548	-2.7824388312	 0.1622
