20
gdb 104795	2.43079	1.51217	1.13434	2.7694	74.35	-0.2411	0.0622	0.3033	1136.6619	0.170129	-440.217573	-440.208504	-440.20756	-440.251348	34.037	
C	 0.7232890084	-0.2854438237	 1.190906289	-0.263412
O	-0.1005073589	 0.0334820852	 0.0821363491	-0.300252
C	-1.307343751	-0.7181096522	-0.0109193623	 0.364435
C	-2.3350655067	-0.1693096783	 0.9753659559	-0.10804
O	-2.5438753446	 1.2110318685	 0.7606915339	-0.426293
C	-1.8312547655	-0.8125825047	-1.4625292692	-0.226204
N	-1.8455374736	-2.3204761312	-1.4142382109	-0.124971
C	-0.4448630234	-2.7144058261	-1.2096824514	-0.244375
C	-1.2041377123	-2.2436025846	-0.0329689081	-0.108254
H	 1.6451498715	 0.2885850373	 1.0736732751	 0.132546
H	 0.2632756077	-0.0160532095	 2.1514563687	 0.115139
H	 0.9698010549	-1.3556864826	 1.2090538429	 0.11987
H	-3.2945149783	-0.6766669752	 0.833408142	 0.118522
H	-2.0081223546	-0.3745795657	 2.0089009986	 0.083565
H	-1.6667655332	 1.5903918368	 0.6221440086	 0.286997
H	-2.8381949924	-0.4155073036	-1.5938361602	 0.126847
H	-1.1656287442	-0.4013612481	-2.2262585527	 0.111959
H	-0.2860465145	-3.7847626218	-1.2974898404	 0.123748
H	 0.3461104052	-2.0940003167	-1.624921064	 0.1239
H	-1.5129156446	-2.9061180038	 0.7700032154	 0.094273
