19
gdb 60632	2.98243	1.12643	0.88726	4.0718	72.86	-0.2324	0.0138	0.2463	1311.086	0.157891	-456.340195	-456.330413	-456.329468	-456.375202	35.845	
C	-0.9905508464	 0.8310450718	 0.3929914694	-0.312864
N	-0.1728906742	-0.3677332106	 0.2538817961	-0.077592
C	 1.0762141673	-0.2734071479	-0.4833746607	-0.276382
C	 1.0721424665	-0.4930878978	 0.9995122076	-0.003161
C	 1.5542452366	 0.5870465772	 1.954170106	 0.018339
O	 0.7764893254	 0.5874761622	 3.1211985406	-0.440529
C	 3.0285129054	 0.3759053625	 2.3556693848	 0.370683
N	 3.92525762	 0.2784255936	 1.3463120611	-0.514986
O	 3.3331990878	 0.3354584865	 3.536293714	-0.376724
H	-0.4275220209	 1.7760746159	 0.3508498473	 0.10059
H	-1.7260091165	 0.8429198989	-0.4171477767	 0.120962
H	-1.5191128691	 0.7907185157	 1.348543129	 0.147849
H	 1.2983789597	-1.0872689027	-1.1692247065	 0.118627
H	 1.3783669787	 0.7136750681	-0.8396716939	 0.101339
H	 1.2417461207	-1.5004383822	 1.3786654577	 0.10056
H	 1.4995415324	 1.5689099557	 1.4562347352	 0.08867
H	 1.4227246724	 0.5304653484	 3.847271029	 0.294854
H	 3.6241662212	 0.19421883	 0.3909496856	 0.270704
H	 4.8898867331	 0.1000299148	 1.5737939841	 0.269061
