20
gdb 114640	3.40727	1.00457	0.8994	2.9403	74.66	-0.2377	0.066	0.3037	1341.0678	0.170951	-440.224643	-440.215519	-440.214574	-440.258715	34.132	
O	-0.2198865476	 1.5024392351	-0.3292836222	-0.4198
C	 0.0720600636	 0.1428890456	-0.0385239601	-0.102906
C	-1.2549034732	-0.5866694855	 0.0566117561	-0.052586
C	-2.1034796143	-0.8229243042	-1.2196126964	-0.17061
N	-2.2115861198	-2.3051843583	-0.9499062399	-0.186814
C	-0.8245357355	-2.8134703364	-0.9867205511	-0.278102
C	-1.2684849194	-2.1085665644	 0.2331305535	 0.26929
C	-1.5775576733	-2.8459330519	 1.5157083299	-0.155658
O	-2.1669702246	-4.1004609581	 1.2432677404	-0.416762
H	 0.6105993621	 1.9757334069	-0.4338171593	 0.289408
H	 0.6998796839	-0.3042055072	-0.8244837192	 0.085521
H	 0.6191362883	 0.0424638246	 0.9136227276	 0.08903
H	-1.8572804165	-0.1031027854	 0.8316200789	 0.090352
H	-3.0899876203	-0.3584179871	-1.1975755938	 0.116636
H	-1.6211134405	-0.5907732817	-2.1750433539	 0.107744
H	-0.7747292876	-3.8952843123	-0.9262162866	 0.133775
H	-0.1199775261	-2.356050444	-1.6772096155	 0.109355
H	-0.6646492328	-3.0380235836	 2.0924622333	 0.110413
H	-2.2347325336	-2.2172027589	 2.140640124	 0.086494
H	-2.8327390427	-3.9309802731	 0.5611628644	 0.295222
