18
gdb 31959	4.55538	0.89286	0.78607	3.3315	75.58	-0.2354	0.0016	0.2371	1467.5067	0.147378	-439.12478	-439.115545	-439.114601	-439.15986	32.398	
C	 0.1071683132	 1.6449359359	 0.2340391418	-0.374787
C	-0.023344265	 0.1199991363	 0.075847744	-0.300831
C	 0.6324435472	-0.6482794442	 1.1666166002	 0.331907
C	 0.2154686888	-1.4985813052	 2.1344328305	-0.205509
N	 1.3071710375	-1.9140679834	 2.8933834627	-0.328834
C	 2.3161592808	-1.306208271	 2.360861531	 0.360043
C	 3.7369998084	-1.4169497574	 2.8141657137	-0.140097
O	 3.841316446	-2.286102888	 3.9130247418	-0.421155
O	 2.0004693055	-0.5188140412	 1.3098038215	-0.212602
H	 1.158462523	 1.9448987306	 0.2523034129	 0.133668
H	-0.3798977758	 2.1600750904	-0.5987924471	 0.11924
H	-0.3567929041	 1.9822855042	 1.1655272956	 0.126199
H	-1.0790069061	-0.1694308746	 0.0571655598	 0.122064
H	 0.4007780777	-0.1830074934	-0.8901899229	 0.123163
H	-0.7852139293	-1.8436524454	 2.340248904	 0.126381
H	 4.3578229686	-1.7742448409	 1.9774276777	 0.119641
H	 4.1131955434	-0.4153129446	 3.0758820343	 0.119441
H	 2.9464228302	-2.601317408	 4.1019365288	 0.302068
