14
gdb 54885	2.89165	1.57632	1.02261	4.9293	70.91	-0.1992	-0.025	0.1743	1068.4957	0.103158	-470.081061	-470.073397	-470.072453	-470.113072	29.283	
N	 0.0245006366	 1.3353018654	 0.1344727814	-0.559597
C	 0.0214601546	-0.0163932708	 0.0067255801	 0.285668
N	 1.2103728758	-0.6612832608	-0.151281951	-0.551505
H	 1.147319435	-1.667029576	-0.0785699503	 0.285332
H	 2.030564962	-0.2453218331	 0.2619233538	 0.262398
C	-1.1697597016	-0.7169266871	 0.0297213985	 0.101971
N	-1.2772881148	-2.1138655012	 0.0229269352	-0.352114
C	-2.5428976881	-2.3232086286	 0.0188233315	 0.066075
O	-3.3467816776	-1.2199756703	 0.0235539975	-0.20997
C	-2.4693118074	-0.1160912379	 0.0347401828	 0.389408
O	-2.8614321112	 1.0329913018	 0.0478424495	-0.414438
H	 0.7828316498	 1.8505801798	-0.2834619516	 0.260132
H	-0.8983416726	 1.760818539	 0.0943550559	 0.293462
H	-3.0467206605	-3.2787888904	 0.0146504168	 0.143177
