18
gdb 123859	3.38612	1.50458	1.08713	3.6376	77.14	-0.2389	-0.0025	0.2365	1090.9012	0.151498	-401.973586	-401.966651	-401.965706	-402.004928	27.7	
C	-0.0216069627	 1.5177533821	-0.0524202328	-0.199914
C	 1.396084662	 2.1149744952	 0.012597838	-0.198959
C	 2.1034627189	 1.7998808291	 1.348213301	-0.333993
C	 1.8937683527	 0.3563721567	 1.6969529399	 0.121687
C	 0.95222967	-0.4237383245	 1.0995158139	 0.379482
C	-0.0077873546	-0.0243469563	 0.0338605842	-0.329988
O	 0.9818207762	-1.6695662982	 1.5969745891	-0.228887
N	 1.9822976973	-1.7400496791	 2.5723382171	-0.147545
C	 2.5058021076	-0.5386119242	 2.6173235638	-0.083164
H	-0.6189086099	 1.9161932363	 0.7772308384	 0.108435
H	-0.5196852101	 1.8275477794	-0.9763092548	 0.103029
H	 1.9936697003	 1.7090876899	-0.8137868287	 0.105338
H	 1.3508038515	 3.1987670562	-0.1348271345	 0.100041
H	 3.1707792263	 2.0372960659	 1.273333451	 0.111163
H	 1.7040769264	 2.4460313608	 2.1421349885	 0.113732
H	-1.0082685623	-0.4164226102	 0.2463599743	 0.126999
H	 0.2980015529	-0.4603160647	-0.9268318685	 0.126481
H	 3.3132157772	-0.3521640344	 3.3126659202	 0.126063
