18
gdb 76308	2.916	1.30316	1.15625	4.1477	72.63	-0.2727	0.0177	0.2904	1119.0323	0.146985	-439.08697	-439.077881	-439.076936	-439.120538	33.938	
C	 0.044874441	 1.6305658661	 0.0445253383	-0.410734
C	 0.1349671587	 0.1147493222	 0.0501555187	-0.023807
C	 1.1645024162	-0.6023335765	-0.8606002518	 0.075921
O	 2.3301748784	 0.1959880429	-0.9399022434	-0.425203
C	 1.2992220562	-1.7028423178	 0.2517650052	-0.234534
C	 2.6200796939	-2.264588456	 0.43561064	 0.275417
N	 3.7031061194	-2.6608697888	 0.5280558303	-0.332129
C	 0.7696379042	-0.6214495756	 1.2760723683	 0.124443
O	 1.7715047848	 0.0839392239	 1.9470208574	-0.419486
H	 1.0137923324	 2.0907413179	 0.2449589081	 0.132739
H	-0.3077083495	 1.9958373494	-0.9252030985	 0.120922
H	-0.6570841734	 1.9730448484	 0.8110289112	 0.124213
H	-0.8489583099	-0.3278798284	-0.1423423182	 0.085093
H	 0.8398885016	-0.9407331981	-1.8515362507	 0.082885
H	 3.0611557696	-0.3532548273	-1.2495687455	 0.30477
H	 0.5612673305	-2.4971351887	 0.1107943141	 0.126312
H	 0.0853068589	-0.9974540665	 2.039113886	 0.098228
H	 2.386331377	 0.4219285229	 1.2814813404	 0.29495
