23
gdb 118585	2.71648	0.69896	0.58159	1.4462	78.84	-0.2451	0.0712	0.3162	1913.213	0.202747	-462.537858	-462.526053	-462.525109	-462.576088	40.604	
C	 0.3711740962	 1.3493164245	 0.3761041262	-0.240167
O	-0.1923298959	 0.1286465495	-0.0504382515	-0.254879
C	 0.4664642938	-0.4978284284	-1.1573640673	 0.093092
C	 0.9889062275	-1.8696865709	-0.7172857404	-0.198148
C	 2.0361444417	-1.8019652408	 0.3952307783	-0.070672
O	 2.5319624506	-3.0823580245	 0.7571014843	-0.419382
C	-0.5183252326	-0.6120691963	-2.3260139311	-0.198147
C	-1.0073958448	 0.7376187476	-2.8534030353	-0.070672
O	-1.8873685402	 0.6051505877	-3.9598795369	-0.419382
H	 1.41070461	 1.2314031711	 0.7166297487	 0.107866
H	 0.3518745967	 2.1151278011	-0.4136096938	 0.107865
H	-0.231076251	 1.7035246836	 1.217259182	 0.126748
H	 1.3196955592	 0.1255557733	-1.4694340129	 0.070425
H	 0.1336331339	-2.4675567813	-0.3728389205	 0.092715
H	 1.421193042	-2.3919082678	-1.5784540454	 0.104388
H	 2.9108837578	-1.236015172	 0.053895453	 0.105423
H	 1.6202105768	-1.2728918072	 1.2644046381	 0.099804
H	 1.8020822096	-3.5811388067	 1.1377175253	 0.280397
H	-0.0500092176	-1.1644527083	-3.1486616733	 0.104386
H	-1.3815501992	-1.2032613011	-1.9899811608	 0.092717
H	-1.4728500867	 1.3081525509	-2.037176274	 0.099805
H	-0.1595619872	 1.3259614505	-3.2235502584	 0.105422
H	-2.6825629208	 0.1609416657	-3.6488811742	 0.280397
