18
gdb 87338	1.92765	1.46273	0.98594	2.1456	79.71	-0.2367	-0.0271	0.2096	1238.1118	0.143442	-401.884242	-401.874377	-401.873433	-401.919573	35.354	
C	-0.1413430589	 1.5134208702	 0.3369219323	-0.324823
N	 0.0197377064	 0.0726009888	 0.1858573889	-0.095978
C	 1.3145092742	-0.4405673744	-0.2133785097	-0.277938
C	 0.7999941426	-0.6922422727	 1.1781829674	 0.072276
C	 1.4970618783	-0.0029512194	 2.3540571968	-0.367223
C	 0.540272235	 0.3639882381	 3.4746731879	 0.165602
O	 0.545949167	 1.425140289	 4.0436480427	-0.244143
C	 0.2525806243	-1.9906733065	 1.5027252386	 0.303373
C	-0.1675763542	-3.0775972431	 1.7993724382	-0.418259
H	 0.7674349961	 2.0487192502	 0.6478503842	 0.110808
H	-0.458690394	 1.9198933048	-0.6282160058	 0.132957
H	-0.9297249629	 1.7173300062	 1.0670479322	 0.140161
H	 1.3107502497	-1.2436942991	-0.9450488565	 0.128162
H	 2.1464304772	 0.2592461641	-0.2983432749	 0.111647
H	 2.2285447385	-0.7106755879	 2.7677023876	 0.140899
H	 2.0402914422	 0.8936650139	 2.0514172677	 0.126303
H	-0.1800845886	-0.4372746951	 3.7486475214	 0.09743
H	-0.5539184828	-4.0350620771	 2.0483207109	 0.198746
