20
gdb 124487	2.49421	1.24188	1.01781	3.3912	81.58	-0.2411	-0.0031	0.238	1280.1813	0.169764	-403.164399	-403.154797	-403.153853	-403.199673	34.617	
C	-0.0136876281	 1.5947173588	-0.0089357148	-0.380146
C	-0.0424993319	 0.0551314236	-0.0173308316	-0.104735
C	-1.4879041731	-0.4691171124	 0.0676903055	-0.380146
C	 0.6774897028	-0.5036571311	-1.2150495263	 0.093123
C	 1.7868476806	-1.2981185315	-1.2690277243	 0.322719
C	 2.6773092744	-1.8957634637	-0.237397843	-0.495
O	 2.1002771855	-1.5697660573	-2.552640725	-0.21378
N	 1.184074826	-0.9466326702	-3.3948146519	-0.145069
C	 0.3566053099	-0.3257826558	-2.5946337496	-0.039014
H	 1.0125335674	 1.9724449078	-0.0330643127	 0.119358
H	-0.5396429239	 2.0018099247	-0.8795684149	 0.117652
H	-0.5034280787	 1.9863182644	 0.888632677	 0.113192
H	 0.4882401037	-0.2907302027	 0.8786501098	 0.075694
H	-2.0740882063	-0.1463367369	-0.799808571	 0.117652
H	-1.5122922149	-1.5622155758	 0.098168436	 0.119359
H	-1.9856266801	-0.0886982291	 0.9656771225	 0.113192
H	 2.6835733301	-2.9883677368	-0.3106785451	 0.150403
H	 3.7093837669	-1.5523675811	-0.3642286808	 0.150406
H	 2.3429177978	-1.619563544	 0.7643521049	 0.139968
H	-0.4572886281	 0.2394589491	-3.0281956246	 0.125174
