22
gdb 122908	4.4636	0.55191	0.50731	4.7733	84.94	-0.2634	0.0365	0.2999	2182.0988	0.191932	-404.365619	-404.354473	-404.353529	-404.403375	38.322	
C	 0.1243175611	 1.5570060983	-0.0404463187	-0.385213
C	 0.0322090026	 0.0410026933	-0.0218464104	-0.032188
O	 0.6808984478	-0.4641530289	-1.1729170126	-0.242104
C	 0.6498657394	-1.8685112882	-1.2611721422	-0.065021
C	 1.3483689324	-2.2665170278	-2.5578799584	-0.196103
C	 1.5135195071	-3.7950052961	-2.7203894626	-0.146556
C	 0.1771062305	-4.5556465228	-2.842152577	-0.390935
C	 2.3578721366	-4.0782101491	-3.8866901828	 0.267386
N	 3.0146596294	-4.2991680958	-4.8117412401	-0.322016
H	 1.1697622967	 1.8778672669	-0.0408835712	 0.129058
H	-0.3578728247	 1.9595503024	-0.9356649059	 0.128664
H	-0.3688337832	 1.9791663097	 0.840110709	 0.116503
H	 0.504777084	-0.3655356617	 0.8885248418	 0.086722
H	-1.022163426	-0.283733671	-0.0083020819	 0.086385
H	 1.1636155952	-2.3242158809	-0.3950190438	 0.084953
H	-0.3919233445	-2.2288799494	-1.2418774108	 0.089879
H	 0.7905102516	-1.8643938319	-3.4102425031	 0.124647
H	 2.3341656269	-1.7918560937	-2.5716930602	 0.130678
H	 2.0531857442	-4.1791792511	-1.8440986686	 0.127226
H	-0.4074844694	-4.1753814765	-3.6848038215	 0.138848
H	 0.3506026574	-5.6225998924	-3.0012702936	 0.139707
H	-0.4131813353	-4.4387035532	-1.9304558657	 0.129482
