21
gdb 78559	2.71608	1.45511	1.15645	1.0215	84.11	-0.2323	0.0763	0.3087	1156.2124	0.182115	-383.19943	-383.190586	-383.189642	-383.232329	34.601	
C	-0.0698853182	 1.524647205	 0.01356413	-0.333567
N	 0.1234125461	 0.0817480852	 0.1006641801	-0.11783
C	 1.401240254	-0.5536488903	-0.1714382706	-0.204893
C	 2.5714111322	 0.2498083932	 0.3711349365	 0.367048
C	 3.9899242991	 0.0968548755	-0.0069009382	-0.317125
N	 3.2750502826	 1.3657815123	-0.2627418203	-0.364399
C	 1.9530480897	 0.2660451591	 1.7797045722	-0.37124
C	 0.7772337779	-0.5715133431	 1.2150535408	 0.33128
C	 0.0687065058	-1.6644214008	 1.9589395771	-0.483687
H	 0.7936940627	 2.1297873124	 0.3174770053	 0.132079
H	-0.3137388195	 1.7781538606	-1.0233442197	 0.118623
H	-0.9272762787	 1.8018042941	 0.635140604	 0.120107
H	 1.4513870072	-1.3239437945	-0.9363264344	 0.08578
H	 4.766026113	 0.1560531747	 0.7518862015	 0.117949
H	 4.2302769216	-0.5479936138	-0.8496445572	 0.110869
H	 3.0200737238	 1.4285383043	-1.2459792035	 0.230115
H	 2.5505043578	-0.2924259091	 2.5052363902	 0.106748
H	 1.7054015496	 1.2443640663	 2.2008319783	 0.105085
H	-0.556818846	-1.2509215363	 2.7594187141	 0.120737
H	-0.5804542221	-2.2267636141	 1.2829802362	 0.130323
H	 0.7828788113	-2.3549272508	 2.4203436875	 0.115996
