19
gdb 38462	2.95567	2.19789	1.80299	1.6391	79.54	-0.2372	0.0625	0.2997	840.8494	0.162108	-385.747889	-385.742027	-385.741083	-385.777538	26.88	
C	-0.0765978433	 1.5725438259	 0.0882297321	-0.191714
C	 1.4365149876	 1.4337307903	 0.0060955017	-0.075787
C	 1.2089034514	 0.1888190668	 1.0152906227	-0.333407
C	-0.028480229	 0.006107982	 0.0356254286	 0.244859
C	-1.2784301688	-0.4823437673	-0.7767339612	-0.380724
C	-0.3404495043	-0.2221471956	-2.0545256368	 0.076432
O	 0.2728631103	 1.1024833434	-2.3196069872	-0.327397
C	 1.4800049709	 0.8163154837	-1.4625378756	 0.088754
C	 0.8423602102	-0.5006466512	-1.1692390991	-0.014206
H	-0.4293622853	 1.8649482802	 1.0811637179	 0.081721
H	-0.5928775145	 2.1331540394	-0.6841931054	 0.117139
H	 2.126457649	 2.2391404686	 0.2647898714	 0.063677
H	 1.9371796856	-0.6253652798	 1.0463906198	 0.096781
H	 1.0085655317	 0.5598892801	 2.022087784	 0.105886
H	-1.4892677116	-1.5583362993	-0.7771795249	 0.10734
H	-2.2044057374	 0.0751223577	-0.6149983586	 0.110371
H	-0.6144419049	-0.6998274643	-2.9971790662	 0.08162
H	 2.3877951555	 0.9707147753	-2.0477790332	 0.07216
H	 1.331244947	-1.4595086861	-1.0140094099	 0.076494
