12
gdb 8795	5.36175	1.22097	1.00079	3.7403	52.79	-0.2556	-0.124	0.1315	1078.7569	0.080226	-455.638361	-455.629777	-455.628832	-455.673469	27.215	
C	-0.0271595334	 1.3963376924	 0.0314581919	-0.247071
O	 0.0179017042	-0.0406812982	-0.0244748067	-0.204868
C	 0.6261705212	-0.5522148642	-1.0875360652	 0.361405
O	 1.1312221873	 0.076595715	-1.9873846242	-0.342335
C	 0.6283700329	-2.0905965212	-1.066483127	 0.188881
O	 0.1332288969	-2.7368834286	-0.1859091614	-0.229148
C	 1.3246540226	-2.7582137195	-2.2795218754	 0.09273
O	 1.3820366272	-3.9543093905	-2.3610249199	-0.207353
H	 0.985211068	 1.8068465333	 0.0431108902	 0.151454
H	-0.5625233382	 1.7924491749	-0.8345874378	 0.151449
H	-0.5526840128	 1.6367359023	 0.9541930058	 0.150835
H	 1.7484492541	-2.0743342556	-3.0354016601	 0.134021
