18
gdb 104521	2.66268	1.14171	0.92406	5.434	72.02	-0.2726	0.0316	0.3042	1269.7938	0.146312	-439.07631	-439.066748	-439.065804	-439.111005	34.825	
O	 0.3476621582	-1.1730905458	 1.5976500543	-0.426907
C	 0.102946931	-0.4310165762	 0.4146528682	-0.132858
C	-1.3625715576	-0.5034143126	 0.0144975812	 0.30298
C	-2.3056284203	 0.2188395928	 0.9713904817	-0.421359
C	-2.2133389268	 1.6759185505	 0.8581410155	 0.272444
N	-2.1295686209	 2.823655736	 0.7527941691	-0.31303
C	-1.7054348232	-0.5927719528	-1.4592653258	-0.37506
C	-1.8331085515	-1.8053019437	-0.569573818	 0.042878
O	-0.8818582063	-2.832298205	-0.6171262599	-0.426913
H	 0.2216486688	-2.0998642169	 1.3613262828	 0.296851
H	 0.3791986166	 0.6057889054	 0.6342524031	 0.12826
H	 0.7335288311	-0.7765514624	-0.4130918672	 0.09813
H	-3.3463991169	-0.0735811117	 0.7947456197	 0.14299
H	-2.0546683585	-0.0728447459	 1.9978261685	 0.169964
H	-2.6131811139	-0.119281833	-1.818620494	 0.125158
H	-0.8750253537	-0.5674861684	-2.1570954325	 0.124709
H	-2.840135005	-2.1369265595	-0.3154729439	 0.093856
H	-0.9951196711	-3.3248517409	-1.4365180128	 0.297908
