17
gdb 38324	3.93034	1.40841	1.40676	2.2132	72.26	-0.2317	0.0803	0.312	972.344	0.136035	-421.668696	-421.662167	-421.661223	-421.69946	26.999	
C	-0.1030310831	 1.6250257601	 0.0800485095	-0.230658
C	 1.4039407605	 1.2661329757	 0.0840020803	-0.082632
O	 1.1111534176	 0.1917620715	 1.0656844485	-0.318937
C	 0.0407599131	 0.08297514	 0.0356358387	-0.070664
C	 1.1340802336	 0.2325840146	-1.0314994712	 0.579819
C	 1.0411323361	 0.3016421941	-2.5716216294	-0.082639
C	 2.5805358706	 0.1449106043	-2.6454836523	-0.230657
C	 2.0262991713	-0.8715213805	-1.6157977752	-0.070657
O	 0.9241775769	-1.1782276153	-2.5696590698	-0.318939
H	-0.4758907014	 2.020179796	 1.0254021752	 0.111336
H	-0.5161283277	 2.1337328485	-0.7947506008	 0.099604
H	 2.2703353534	 1.8996138983	 0.2741024897	 0.096256
H	-0.7097055751	-0.6949831201	 0.1638464446	 0.105786
H	 0.3658435044	 0.8593577538	-3.2204778217	 0.096256
H	 2.9455628077	-0.2991713729	-3.5719885673	 0.111336
H	 3.2066006496	 0.9638033048	-2.2819412454	 0.099604
H	 2.5177643526	-1.7080217428	-1.1222557733	 0.105786
