19
gdb 107934	4.08581	1.17369	1.09368	2.3799	75.	-0.2298	0.0643	0.2941	1170.7976	0.158215	-422.959579	-422.951196	-422.950252	-422.992406	32.548	
C	-0.0526444581	 1.4614240054	 0.0522417079	-0.506914
C	 0.0603583963	-0.0285378296	-0.0617768513	 0.281991
C	 0.9198952857	-0.8485798366	-1.0283303213	-0.307169
C	 0.0976382701	-2.0663015156	-0.5320485801	 0.413066
C	 0.0259451092	-3.3938503826	-1.2263048912	-0.188705
O	 1.2989365689	-4.0158356618	-1.241664603	-0.416706
O	 0.5403898644	-2.2025565117	 0.8645364542	-0.348706
C	-0.1807474439	-0.9962888114	 1.1126773391	 0.060616
C	-1.0527261943	-1.0809937542	-0.0931097216	-0.267693
H	 0.8984920057	 1.9058655721	 0.3671940034	 0.126287
H	-0.3339465406	 1.9170742874	-0.9039204719	 0.122058
H	-0.8116178185	 1.7465736313	 0.7893056839	 0.119274
H	 0.689413799	-0.6047182345	-2.0695052742	 0.100032
H	 2.002117967	-0.8975750691	-0.8743585318	 0.100581
H	-0.7293227318	-4.0237755963	-0.7310465982	 0.097228
H	-0.2778779168	-3.2582517499	-2.2696146415	 0.111799
H	 1.6061445107	-4.0312112904	-0.3273892384	 0.299199
H	-0.3722115284	-0.6955896013	 2.134819837	 0.10594
H	-2.1205972544	-1.0367925812	-0.2590885009	 0.097822
