15
gdb 13155	4.23911	1.37519	1.13348	3.8705	67.11	-0.2898	-0.0841	0.2057	1027.8501	0.118688	-362.672875	-362.665114	-362.66417	-362.705948	27.182	
O	 0.4596295313	 0.1071875329	 0.6984211893	-0.269491
C	 0.1064310962	 1.2026569307	 0.3384413802	 0.281516
C	 1.1191276962	 2.2272660041	-0.0160833961	 0.222501
N	 1.8909719567	 3.0426903561	-0.2931267642	-0.30035
C	-1.3140029061	 1.6487560619	 0.1567194814	-0.079615
C	-1.8397815514	 1.6638728033	-1.3261813694	-0.230174
C	-3.1666100108	 1.0504474447	-0.8024222633	-0.20912
C	-2.4444176188	 0.6543530021	 0.5138346333	-0.244696
H	-1.4434206723	 2.6356869237	 0.6120476731	 0.110492
H	-1.8776444461	 2.6338059953	-1.8235776618	 0.12322
H	-1.2827213399	 0.9639826973	-1.9545509144	 0.124345
H	-3.927495143	 1.8175486976	-0.6371820543	 0.11342
H	-3.605456011	 0.2456191375	-1.3946457856	 0.112598
H	-2.0700726491	-0.3714189692	 0.4979306782	 0.132573
H	-2.969873292	 0.8242998919	 1.4550263636	 0.112778
