17
gdb 32775	3.2039	0.99253	0.79886	0.8832	71.74	-0.1985	0.011	0.2095	1393.7517	0.136578	-455.168789	-455.159719	-455.158774	-455.20362	32.288	
N	 0.2790556818	 1.4673530633	 0.2076718273	-0.598201
C	 0.068922041	 0.0984423737	 0.0601593693	 0.172012
C	-1.0868525409	-0.6073240496	-0.0980496994	 0.268277
C	-2.5331949274	-0.2769798264	-0.1338078086	-0.307254
C	-3.1529435083	-0.3909707902	-1.5307996602	-0.065685
O	-4.5253756612	-0.0535983804	-1.4114161918	-0.419089
O	-0.7154631107	-1.9336287679	-0.2745697685	-0.184506
C	 0.6241293368	-1.9261864279	-0.208352267	 0.06774
N	 1.1558677104	-0.7628947594	-0.0108988179	-0.301196
H	 1.177014775	 1.6542833245	 0.6342771025	 0.254641
H	-0.4595778289	 1.9448552266	 0.7061825471	 0.246778
H	-3.0991057829	-0.9256681112	 0.5462405684	 0.125422
H	-2.6739216494	 0.7493564157	 0.2227162952	 0.11242
H	-2.6254043379	 0.2856181114	-2.2204785337	 0.095977
H	-3.0187914456	-1.4170510676	-1.9051472995	 0.098941
H	-4.9329119408	-0.1355379347	-2.2783431822	 0.287956
H	 1.127190659	-2.8739889299	-0.3201884013	 0.145767
