23
gdb 91330	2.66877	1.49061	1.2208	1.5046	84.37	-0.2327	0.0799	0.3126	1153.977	0.206849	-388.298938	-388.290237	-388.289292	-388.331858	34.859	
C	-0.1464151972	 1.5376248127	-0.0165367109	-0.399519
C	 0.0162441514	 0.0093353366	-0.0052697798	 0.031915
C	 0.646342777	-0.5134811392	-1.3368334673	-0.223898
C	 2.0470481874	-1.0715261122	-1.1123181125	 0.100645
C	 2.8892877472	-0.1997957057	-0.1641345141	-0.296989
C	 2.1793316131	-1.0529400077	 0.9136841803	 0.411223
C	 2.9608349818	-1.552656288	 2.1074552634	-0.466855
C	 0.8019172553	-0.4770773767	 1.2576917393	-0.247506
O	 1.9620970056	-2.1011592254	-0.088195024	-0.331746
H	 0.8188652427	 2.0514903112	-0.0864881346	 0.116365
H	-0.7536136602	 1.8613353931	-0.8688593608	 0.111369
H	-0.6396211693	 1.8868416291	 0.8972174074	 0.111243
H	-0.9935283142	-0.4069221691	 0.062786226	 0.077732
H	 0.03320193	-1.3163491129	-1.7595635777	 0.103655
H	 0.677013552	 0.2900867044	-2.0831000708	 0.089206
H	 2.5079308622	-1.4452445002	-2.031317209	 0.068797
H	 3.9536985	-0.4356009706	-0.2270287098	 0.101484
H	 2.7427547855	 0.8816710877	-0.1658159009	 0.096564
H	 3.1919151034	-0.7282362976	 2.7904407486	 0.115367
H	 2.3845585189	-2.3020850464	 2.660545652	 0.122741
H	 3.8987555883	-2.0122713733	 1.7836513692	 0.119533
H	 0.9117821177	 0.3501903739	 1.9696033984	 0.088388
H	 0.2401846613	-1.2647343638	 1.7716026875	 0.100287
