19
gdb 93596	4.57888	0.93228	0.80032	1.2028	87.33	-0.227	-0.0143	0.2127	1404.2646	0.159148	-385.880313	-385.871508	-385.870563	-385.913522	34.09	
O	-0.0985005559	 1.4542703788	 0.0065269447	-0.441025
C	 0.0088505365	 0.0378566291	 0.0016340951	 0.131631
C	-1.4041140718	-0.5334126844	 0.0400059756	-0.209861
C	-1.374437727	-2.0634635412	 0.1354255124	-0.314001
C	-0.3743124135	-2.6852979179	-0.8257814917	 0.14487
C	 0.5711532096	-1.957012898	-1.4425890347	-0.141563
C	 0.7491975579	-0.4779764863	-1.2394755776	-0.2829
C	-0.4814474853	-4.0893817991	-1.036243017	 0.218342
C	-0.6162550564	-5.2786526641	-1.1780905441	-0.40886
H	 0.7905185662	 1.8223849228	-0.0218412829	 0.279692
H	 0.5483767566	-0.3064514588	 0.9004891023	 0.067674
H	-1.9492764565	-0.1046277413	 0.8861590349	 0.10532
H	-1.9276396577	-0.2213921567	-0.8718969743	 0.10813
H	-1.1251343741	-2.3807076088	 1.1573322451	 0.118708
H	-2.3690446718	-2.4756996324	-0.0655727577	 0.118574
H	 1.2525283311	-2.4526937424	-2.1280251043	 0.094938
H	 0.3776604164	 0.0737699137	-2.1158619203	 0.122092
H	 1.8204996816	-0.2420390006	-1.1700881474	 0.097113
H	-0.7204107459	-6.3262626724	-1.314811358	 0.191126
