21
gdb 110528	3.60343	1.13111	1.07708	1.8274	82.2	-0.2253	0.076	0.3013	1258.6948	0.181926	-387.033036	-387.024323	-387.023379	-387.066401	33.475	
C	 0.0848474668	 1.5231923926	 0.0905163562	-0.380806
C	 0.0487225463	-0.0053840243	-0.0128722214	-0.20654
C	-1.3660893017	-0.5693196729	 0.0175598333	 0.037066
C	-1.6111454103	-2.0811717033	 0.0067234489	-0.204014
C	-1.5786532786	-2.4915913882	 1.4940793087	 0.038502
O	-1.259810456	-1.3345665315	 2.2675598513	-0.291965
C	-2.1421937732	-0.6020710217	 1.3701071384	-0.002134
C	-2.8373227977	-1.9476114456	 0.9115176371	 0.290265
C	-4.2507881431	-2.4170086487	 0.8105049843	-0.531405
H	 1.1116398487	 1.9001254655	 0.0588468858	 0.111846
H	-0.4671418515	 1.9923360991	-0.7321525981	 0.108748
H	-0.363465641	 1.8677857351	 1.0287853094	 0.117575
H	 0.5373049734	-0.3238155325	-0.9431037631	 0.08844
H	 0.6163560216	-0.4504937112	 0.8104312844	 0.113215
H	-2.0005082512	-0.0937549753	-0.7404910531	 0.067472
H	-1.4471538213	-2.7900977625	-0.7963458598	 0.082954
H	-1.3015279387	-3.4693198021	 1.8669114707	 0.103988
H	-2.5919845563	 0.2766198078	 1.8293448975	 0.07989
H	-4.8201159917	-1.8324408314	 0.0786259957	 0.123102
H	-4.2849043053	-3.4643244045	 0.4913001025	 0.125516
H	-4.7675679194	-2.3449813446	 1.7741209613	 0.128285
