13
gdb 43259	2.04703	1.95121	1.07067	2.1123	71.83	-0.2504	-0.1036	0.1468	1047.5468	0.087776	-419.434093	-419.426283	-419.425339	-419.467158	28.5	
O	-0.0528199048	 0.0020393041	 0.1375822664	-0.293527
C	-0.0512205843	 1.2028024999	 0.07847888	 0.382167
C	-1.2487608961	 2.0801939999	-0.0446137529	-0.160302
C	-0.9066262203	 3.376130828	-0.0441780733	-0.160299
C	 0.567925953	 3.5479890139	 0.0792400662	 0.382164
O	 1.1592350899	 4.5930210486	 0.1391421313	-0.293526
C	 1.1931406204	 2.1285958591	 0.0991645356	-0.425827
C	 2.091864656	 1.8909592623	 1.2093794262	 0.346487
C	 2.8159700327	 1.6994719482	 2.1477635822	-0.440999
H	-2.2453527205	 1.6623636338	-0.1204999087	 0.147146
H	-1.5670902564	 4.231484717	-0.1196344498	 0.147146
H	 1.7226763984	 1.9891102945	-0.8542659378	 0.162421
H	 3.464304712	 1.5280488506	 2.9712805646	 0.206947
