21
gdb 108179	3.08272	1.46721	1.31037	1.4358	81.74	-0.2424	0.0142	0.2566	1086.8692	0.18415	-387.101739	-387.093781	-387.092837	-387.133916	32.201	
C	 0.036291841	 1.5538464519	-0.0566896955	-0.382993
C	 0.0363059809	 0.0245020098	 0.0337672098	-0.283267
C	 0.7000054201	-0.5094945113	 1.2869585138	 0.373805
C	 0.8509108767	-2.0691380325	 1.393746808	-0.253118
C	 2.0532941857	-2.1954297604	 2.3706354089	-0.216377
C	 2.3535628936	-0.6850803839	 2.6499023309	 0.008642
O	 2.0817478862	-0.1080410379	 1.3699906257	-0.279699
C	 1.1989131376	-0.1572837277	 3.4928562842	-0.087545
C	 0.1719834025	-0.0545135696	 2.6504833727	-0.114692
H	 1.0582646359	 1.9386231193	-0.0157792036	 0.137476
H	-0.4234991932	 1.8891425147	-0.9911194068	 0.106946
H	-0.5205915642	 2.0031528143	 0.7720189547	 0.114259
H	-0.9910460872	-0.3600062957	 0.0005962083	 0.096481
H	 0.5541607642	-0.3998565338	-0.8346368201	 0.103587
H	-0.0594955836	-2.552946791	 1.7547947991	 0.096814
H	 1.0926985049	-2.4832927944	 0.411173546	 0.100786
H	 1.8250660588	-2.7558289052	 3.2800935585	 0.097804
H	 2.912859799	-2.6631898992	 1.884621048	 0.104234
H	 3.3674007103	-0.4522937976	 2.9738515673	 0.07566
H	 1.2118680345	-0.0277271809	 4.5668243835	 0.101102
H	-0.8615297338	 0.1824485413	 2.8669058165	 0.100095
