16
gdb 127113	4.06581	1.12659	0.8926	4.7986	69.15	-0.2204	0.0219	0.2422	1256.1891	0.124228	-471.209765	-471.200829	-471.199885	-471.243947	31.203	
C	 0.0476311582	 1.4299191711	-0.0159088859	-0.344045
N	 0.1823392062	-0.0162703907	-0.0519007316	-0.181226
C	 0.1119316489	-0.735884367	 1.2085575131	-0.349981
C	 0.0920817029	-0.6624405078	-1.2293266017	 0.596295
N	 0.0320296748	-0.1314863212	-2.4308381216	-0.479288
C	-0.0020082771	-1.2533421922	-3.2105729346	 0.448569
O	-0.0609713723	-1.1785433573	-4.5416190636	-0.405562
N	 0.0235696719	-2.4103676012	-2.601507516	-0.228857
O	 0.0829037323	-2.000619567	-1.2272478771	-0.243
H	 0.790006419	 1.850141978	 0.6707834936	 0.13129
H	 0.2129518709	 1.8292878513	-1.0153683389	 0.174001
H	-0.9515964704	 1.7306783469	 0.3273841789	 0.129053
H	-0.8982661334	-0.7000728637	 1.6389999505	 0.132222
H	 0.3924685598	-1.777321222	 1.0587526303	 0.172603
H	 0.8064075485	-0.2809590515	 1.9219889161	 0.13384
H	-0.06984821	-0.2404196057	-4.7661743215	 0.314086
