12
gdb 132467	3.2047	1.36645	0.95798	2.8913	63.5	-0.2208	-0.0505	0.1703	1067.3693	0.076397	-521.896842	-521.889891	-521.888947	-521.928513	26.274	
F	 0.1220478416	 0.0767460192	 0.001898968	-0.03696
C	-0.0619121144	 1.3764908719	 0.0112170927	 0.405119
C	-1.258749128	 1.9791906963	 0.0306237666	-0.373649
C	-1.2567723042	 3.4178717326	 0.0381461571	-0.192635
C	-0.0897634034	 4.0890805868	 0.0258290459	 0.19478
F	-0.0401861172	 5.4143384257	 0.0321125269	-0.049418
C	 1.2004319293	 3.4174766433	 0.004791633	 0.315921
N	 2.319699011	 4.0019400901	-0.0073262448	-0.521709
O	 1.1112600383	 2.0123494427	-0.0013716894	-0.249288
H	-2.1672788741	 1.3967672085	 0.0398997743	 0.134896
H	-2.1891803064	 3.9688447061	 0.0536928772	 0.136862
H	 3.0900272675	 3.3346651467	-0.0212819875	 0.23608
