19
gdb 95053	2.23433	1.95012	1.24691	3.3125	75.67	-0.2039	0.0307	0.2346	1038.7557	0.161283	-419.229975	-419.221911	-419.220967	-419.262539	30.968	
C	-0.2122482578	 1.4524939724	-0.047801426	-0.326769
N	 0.0704868446	 0.0271624237	-0.0246061051	-0.051506
C	 0.7821029706	-0.4964624832	-1.1900639888	-0.166569
C	 1.1221717146	-1.9361399558	-0.7723668042	-0.229432
C	 1.4335548625	-1.8059918352	 0.7242950437	 0.015889
N	 2.7231741494	-1.1873947758	 1.0605584712	-0.326903
C	 2.2205056089	 0.0465356051	 1.4038220254	 0.411885
O	 2.7438380392	 1.0834255385	 1.7169754672	-0.368141
C	 0.7567364588	-0.4652487239	 1.1541511347	-0.1582
H	 0.6949237703	 2.0776703918	-0.072926367	 0.124378
H	-0.8204039299	 1.6857860763	-0.9279908221	 0.115424
H	-0.7866626997	 1.7273781832	 0.8426377184	 0.121719
H	 0.1451513671	-0.4433955414	-2.0788038395	 0.104636
H	 1.7055349733	 0.0692686035	-1.4132277376	 0.091887
H	 0.2472993265	-2.5813002344	-0.8994286637	 0.113509
H	 1.9492793206	-2.3657579757	-1.3439244211	 0.100906
H	 1.2116208324	-2.7007621495	 1.3098155344	 0.087442
H	 3.6713442051	-1.4914220612	 0.8884089592	 0.244664
H	 0.1156782333	-0.4555337384	 2.0391869508	 0.095181
