15
gdb 124145	6.79456	0.75953	0.68903	2.5119	83.	-0.2575	-0.0476	0.2099	1615.9783	0.111326	-416.800655	-416.791691	-416.790747	-416.83741	30.297	
C	-0.0737159894	 1.4389822774	 0.0514266368	-0.51495
C	 0.0011798475	-0.0101390358	 0.0174816895	 0.327955
C	 0.0684566742	-1.2129868047	-0.009333854	-0.121939
C	 0.1334412937	-2.6198316851	-0.042662684	 0.24054
N	 1.179472842	-3.3908268452	 0.07410902	-0.350548
C	 0.630780474	-4.6475710572	-0.0368738382	 0.325245
C	 1.4358873817	-5.898562555	 0.0333253414	-0.501498
N	-0.6675371175	-4.6571464665	-0.2107304443	-0.150442
O	-1.0141582873	-3.3059553395	-0.2166132476	-0.203018
H	 0.8946674298	 1.8866646956	-0.1945584628	 0.166028
H	-0.8129848353	 1.8095909766	-0.6663488287	 0.165527
H	-0.3654929334	 1.7913647071	 1.0467759334	 0.165712
H	 1.9598405967	-5.9578601135	 0.9918129996	 0.150479
H	 0.7905990948	-6.7708479874	-0.0790370004	 0.150431
H	 2.1934704785	-5.9055736768	-0.7558258306	 0.150478
