19
gdb 100417	2.90428	0.96611	0.81905	2.0354	75.65	-0.2336	-0.0289	0.2048	1441.8622	0.157346	-456.368995	-456.358878	-456.357934	-456.404654	36.383	
C	 0.8628784985	 0.5386736277	-0.5009351494	-0.471232
C	-0.1349309749	 0.0288350616	 0.5101950443	 0.390817
O	 0.0346124273	 0.1447495652	 1.7090092504	-0.31291
C	-1.3557786465	-0.7194460714	-0.0353341264	-0.264797
N	-1.0542013593	-2.1444370462	-0.1390549353	-0.323437
C	-1.0254766419	-2.8550299006	 0.9308654153	 0.349561
N	-1.2149983942	-2.4274616905	 2.2124940507	-0.543016
C	-0.8031160897	-4.3484723119	 0.7359853212	-0.107619
O	-0.7630197883	-4.6930579196	-0.6153947293	-0.421844
H	 1.1393167316	-0.2745342743	-1.1810065668	 0.160076
H	 0.4008830403	 1.3208993552	-1.1149838577	 0.145663
H	 1.7476745093	 0.9357737695	-0.0025773282	 0.142387
H	-2.2002429156	-0.5250280389	 0.6415094998	 0.117471
H	-1.6148086432	-0.3520918683	-1.0328443072	 0.109107
H	-0.9831647307	-1.4635012386	 2.4259947526	 0.280372
H	-1.0529381626	-3.0902405238	 2.9540698442	 0.255827
H	 0.1373118515	-4.624321678	 1.2440142264	 0.101733
H	-1.6110799749	-4.8885275624	 1.2573928763	 0.105246
H	-0.8445086566	-3.8378150247	-1.076995631	 0.286595
