17
gdb 38288	3.80113	1.59767	1.39632	1.8368	73.12	-0.2346	0.0021	0.2367	940.2892	0.138617	-421.774557	-421.768252	-421.767308	-421.805099	26.063	
C	-0.1342276703	 1.5170425045	-0.1380390631	-0.219321
C	 1.4007310235	 1.4308285587	-0.0112929135	-0.000011
O	 1.2120996401	 0.2705937421	 0.8797705424	-0.29797
C	 0.0590979386	-0.027757944	 0.016312207	-0.051541
C	 0.7107909892	-0.3116179238	-1.3106400222	 0.295672
C	 0.4432316715	-0.5979782795	-2.5771179981	-0.262143
C	 1.4392501727	 0.1753196474	-3.4333970376	-0.112349
O	 1.9906126007	 1.1723722631	-2.5523678387	-0.285528
C	 1.8973936427	 0.6317491616	-1.2499471154	 0.107498
H	-0.5855742876	 1.9535352933	 0.753962949	 0.115844
H	-0.5755731955	 1.9034088547	-1.0582242197	 0.111958
H	 2.020305194	 2.2203956802	 0.410217221	 0.087419
H	-0.6828412894	-0.689903286	 0.457118271	 0.094548
H	-0.3874927851	-1.1562407096	-2.9885962102	 0.107142
H	 2.2437159204	-0.4580484603	-3.8436354863	 0.104829
H	 0.9564354417	 0.6861149829	-4.2747172106	 0.116179
H	 2.8359743527	 0.1325470249	-0.962927225	 0.087775
