22
gdb 11827	2.96735	1.77427	1.42286	0.2142	81.86	-0.2582	0.0851	0.3433	1011.1915	0.200075	-313.053571	-313.044997	-313.044053	-313.086137	33.55	
C	 0.755505871	 1.4858484442	-0.236918048	-0.394473
C	-0.0163798526	 0.1929722966	 0.0089724764	 0.013427
C	 0.3725604285	-0.9641463716	-0.9646634482	-0.314769
C	 1.1804210872	-1.599923239	 0.1724405911	 0.384246
C	 1.6320208492	-3.0199537637	 0.3177649463	-0.336869
C	 2.6489171283	-1.9174743813	 0.1174895425	-0.317485
C	 0.4837793495	-0.69487911	 1.205390195	-0.036325
C	 1.2843485014	-0.0785600616	 2.3433795886	-0.417861
H	 1.8320465663	 1.3027812733	-0.3218638507	 0.118029
H	 0.427604494	 1.9535040879	-1.1719371678	 0.110368
H	 0.6018608373	 2.2111226149	 0.5694209436	 0.11102
H	-1.0876471945	 0.4132334005	 0.0451268899	 0.059999
H	-0.4862760352	-1.5715862962	-1.2684912088	 0.093987
H	 0.9270457085	-0.6727554506	-1.8626124601	 0.091281
H	 1.5708829932	-3.4803611032	 1.2996467056	 0.106112
H	 1.4476720796	-3.7046489047	-0.504541062	 0.106961
H	 3.1491966579	-1.8505220807	-0.8438188439	 0.106326
H	 3.273647709	-1.6435638223	 0.9618239009	 0.108859
H	-0.3761778394	-1.2301264313	 1.6278442508	 0.067262
H	 2.158716237	 0.4701426197	 1.9810882818	 0.116958
H	 0.6694698088	 0.6168877642	 2.9255301677	 0.111918
H	 1.6417333951	-0.8517738552	 3.0335566793	 0.111029
