22
gdb 100878	2.34612	1.0033	0.74283	3.6006	82.86	-0.2806	0.0287	0.3093	1566.3884	0.192403	-404.369003	-404.358016	-404.357072	-404.40556	39.197	
C	-0.1132413197	 1.6115510934	 0.0019791463	-0.397892
C	 0.0072059672	 0.0832429996	 0.0049174375	-0.184783
C	 0.7542556247	-0.4930941676	 1.2246586555	 0.023322
C	 0.0793970673	-0.1071523937	 2.5490866685	-0.413604
C	 0.886487185	-2.0400513735	 1.1122517048	-0.153752
C	 1.6116284796	-2.5388708748	-0.167419914	-0.076489
O	 1.7609020404	-3.9391386108	-0.1937153674	-0.418464
C	 1.6114069119	-2.5924522944	 2.2619713446	 0.263632
N	 2.2298775532	-3.0513868508	 3.1251647531	-0.342199
H	 0.8703148186	 2.0857806761	 0.0937726047	 0.118989
H	-0.5608385314	 1.9572110935	-0.9345986157	 0.119189
H	-0.7392245828	 1.9793033839	 0.8192898559	 0.125338
H	-0.995134364	-0.3648886976	-0.0434782652	 0.099873
H	 0.5214696744	-0.2175932015	-0.9137158964	 0.106801
H	 1.7733107191	-0.081157611	 1.2258580542	 0.089575
H	 0.069044829	 0.9765404049	 2.6852575572	 0.124504
H	-0.9590270169	-0.4587407128	 2.5752867662	 0.117048
H	 0.6033489136	-0.5417756642	 3.4044855962	 0.143571
H	-0.11686013	-2.4862583887	 1.1191725488	 0.129344
H	 1.0087974529	-2.2870314963	-1.0416888889	 0.123536
H	 2.5765619582	-2.0161803454	-0.2576606309	 0.104133
H	 2.3322271695	-4.1962097983	 0.5397098753	 0.298327
