14
gdb 46160	4.74266	1.05723	0.89264	3.3098	62.8	-0.2639	-0.0536	0.2103	1199.0496	0.10013	-473.827148	-473.819291	-473.818347	-473.860179	28.122	
O	 0.0071852643	 0.0336668142	 0.4182974947	-0.276624
C	-0.013871407	 1.1710482338	 0.0229746236	 0.348018
C	-1.3230989196	 1.9341138115	-0.1709861275	-0.193092
O	-1.2151408237	 3.0381498019	-1.0629836659	-0.233403
C	-0.0614639944	 3.7912555568	-0.8168353969	 0.07793
O	 1.1055844357	 3.0702802007	-1.0942077323	-0.233405
C	 1.2680405152	 1.9699745408	-0.2058898963	-0.193092
C	-0.0897038943	 4.9703401967	-1.699641856	 0.296966
N	-0.1117345231	 5.9218360724	-2.350666179	-0.300475
H	-2.0828191457	 1.2610763424	-0.5715003175	 0.163306
H	-1.6575767509	 2.2716729125	 0.8252929274	 0.137548
H	-0.0520830242	 4.1366915024	 0.2360672549	 0.105469
H	 1.6197651405	 2.31699811	 0.7811575239	 0.137546
H	 2.0350300872	 1.3180716139	-0.6269819231	 0.163307
