20
gdb 23453	2.81603	1.22828	1.10757	1.0866	82.69	-0.2257	0.0152	0.2409	1200.4947	0.171436	-403.115785	-403.107078	-403.106134	-403.149088	33.519	
C	-0.1312060471	 1.4977210244	 0.2438480131	-0.419763
C	 0.0848848036	 0.0133753451	 0.04179444	-0.007027
C	 0.5751198759	-0.6276773523	-1.2274588524	-0.067829
C	 1.2744955311	 0.2369691517	-2.2775220007	-0.238616
C	 2.5299238118	 0.8450949039	-1.5973336098	-0.314866
C	 2.6461910056	 0.1480027348	-0.2567261103	 0.428053
N	 3.6417091748	 0.1579761641	 0.5401998936	-0.246419
O	 4.682934861	 0.9638148359	 0.0323318902	-0.399314
C	 1.4457703345	-0.6765970721	 0.0226773743	-0.146324
H	 0.5964635531	 2.1137725094	-0.287975676	 0.123542
H	-1.1273181965	 1.7900528146	-0.1069585277	 0.117586
H	-0.0643180489	 1.7568310266	 1.3057840364	 0.125119
H	-0.6572007531	-0.589367072	 0.5613394052	 0.08977
H	 0.0657934219	-1.5204337674	-1.5737281526	 0.084634
H	 1.5714426484	-0.3957712331	-3.1191770059	 0.108224
H	 0.6140284598	 1.0102684278	-2.6834657996	 0.104064
H	 3.4439117463	 0.6814439048	-2.1759746157	 0.130646
H	 2.4610362855	 1.9294727372	-1.4590689703	 0.128974
H	 5.3674316118	 0.8490416254	 0.6995144901	 0.303805
H	 1.5752486605	-1.5685466687	 0.6231316381	 0.09574
