23
gdb 63979	2.84677	1.4279	1.23815	1.3775	84.51	-0.2367	0.0766	0.3133	1147.8212	0.206705	-388.298886	-388.290137	-388.289193	-388.331766	34.797	
C	 0.2035204227	 1.5135930741	 0.0405773669	-0.443942
C	 0.0502826683	-0.0019437405	 0.0010810377	 0.316899
C	-1.4139743516	-0.4046814106	-0.1889935972	-0.439484
C	 0.9974442779	-0.7793330316	-0.9732374785	-0.296468
C	 1.4389718719	-1.7158650693	 0.1894659712	-0.023218
C	 2.9016084665	-1.645749459	 0.6311301994	-0.238729
C	 2.9603096172	-0.2922247005	 1.3552430956	-0.085095
O	 1.6791145672	-0.1101432866	 1.9534484782	-0.260107
C	 0.6913437723	-0.79317588	 1.1967057108	 0.07818
H	 1.2365009783	 1.811859725	 0.2358385773	 0.119093
H	-0.1050595072	 1.9570091707	-0.9135571018	 0.105672
H	-0.4172168089	 1.9517086147	 0.8299702444	 0.114208
H	-1.8052795448	-0.0222212681	-1.1385869662	 0.111652
H	-1.5352690847	-1.4939607201	-0.1965377169	 0.108887
H	-2.0386223104	-0.006128003	 0.6187365937	 0.113292
H	 0.5028770345	-1.2705620852	-1.8154336326	 0.09344
H	 1.815527154	-0.1691675704	-1.3693842184	 0.090235
H	 1.0645661416	-2.7369425851	 0.1078627164	 0.06968
H	 3.1255548924	-2.4586385147	 1.3296688622	 0.104682
H	 3.609583571	-1.7057897023	-0.2007167205	 0.100892
H	 3.7096558355	-0.2516400825	 2.1511685621	 0.106499
H	 3.1778403633	 0.5218376144	 0.6463128422	 0.089521
H	-0.021931877	-1.2287125196	 1.9036364242	 0.064212
