22
gdb 102324	1.89641	1.1627	0.84619	3.0204	80.61	-0.2344	0.0351	0.2695	1479.4222	0.192075	-441.515656	-441.504686	-441.503742	-441.552507	38.945	
C	 0.0861379479	 1.5058373068	 0.1030118717	-0.373601
C	-0.1119817505	-0.0021222349	-0.0786329618	-0.170273
N	 0.5907320186	-0.5486727216	-1.235293673	-0.028366
C	 2.0291376959	-0.7756829998	-1.1771495911	-0.169089
C	 2.4044510798	-2.1763323779	-0.6864873867	 0.121334
C	 3.9073271441	-2.4264671492	-0.8022989685	-0.400894
O	 1.9660196408	-2.2642898143	 0.6708815317	-0.432104
C	-0.0699697737	-0.8799383023	-2.3767318817	 0.14509
O	 0.4441122625	-1.3529486653	-3.3724335	-0.358503
H	 1.1415270887	 1.7603699727	 0.241514101	 0.124833
H	-0.2832739248	 2.0572639037	-0.7670921558	 0.123148
H	-0.4571466974	 1.8531244983	 0.9876534479	 0.119098
H	 0.2189918362	-0.5469571852	 0.8092942739	 0.140305
H	-1.1776293869	-0.2186786826	-0.2104828922	 0.111508
H	 2.4263731067	-0.636951468	-2.1851654485	 0.135474
H	 2.4816864914	-0.0331404002	-0.5120507701	 0.108229
H	 1.8623982427	-2.9035983122	-1.3079784912	 0.093027
H	 4.2346763468	-2.3785330834	-1.8457087835	 0.127317
H	 4.4679634392	-1.6860425937	-0.2222741444	 0.122187
H	 4.1631452786	-3.4202497043	-0.4186398868	 0.107671
H	 2.09354772	-3.1702050608	 0.9685278583	 0.284136
H	-1.1554962465	-0.6684532457	-2.3040434994	 0.069475
