20
gdb 113167	3.12863	0.98622	0.87171	2.9102	76.88	-0.2372	0.0308	0.268	1412.6855	0.169488	-440.31523	-440.305221	-440.304277	-440.350111	37.341	
C	 0.1441158493	 1.462174351	 0.2019071859	-0.373894
C	-0.244587627	 0.0267784389	-0.1711667558	-0.199698
C	 0.5720456701	-0.5073750767	-1.3282370526	-0.006873
C	 1.9379423342	-1.1000132447	-1.1065995014	-0.341739
C	 0.7865646573	-1.9986769617	-1.5043115494	 0.241844
O	 0.2098459114	-2.8460696419	-0.5405284205	-0.471499
C	 0.7728004789	-2.5100965138	-2.9233240208	 0.35516
N	 0.1563706859	-3.716762645	-3.0732441557	-0.541385
O	 1.2829812008	-1.8894539216	-3.8398374036	-0.381865
H	 1.1960356698	 1.5212035995	 0.5003744316	 0.116842
H	 0.0026429296	 2.1440285344	-0.6435901297	 0.116995
H	-0.4642294154	 1.8309802275	 1.0336227585	 0.110731
H	-0.1239720051	-0.6346894689	 0.6923976552	 0.103873
H	-1.3091768076	-0.0085448807	-0.4348713188	 0.100077
H	 0.4557234381	 0.0214095517	-2.2702462151	 0.111873
H	 2.7064197959	-0.9345971657	-1.8520847987	 0.139392
H	 2.277845739	-1.1954787622	-0.0794862779	 0.108161
H	 0.89910435	-3.4344242364	-0.2135336331	 0.289926
H	-0.4027547926	-4.0721407604	-2.315606081	 0.262939
H	-0.0127493525	-4.0408988032	-4.0112346974	 0.259142
