14
gdb 1489	6.22083	1.48091	1.32427	5.0519	62.56	-0.2582	-0.0392	0.219	906.5553	0.112923	-320.770299	-320.762347	-320.761402	-320.802525	27.74	
C	 0.2544553831	 1.6391133902	-0.0034272653	-0.370717
C	-0.0726848505	 0.1494771757	-0.182275484	-0.164058
N	 0.6584653273	-0.4238498746	-1.3021576016	-0.255921
C	 1.7958691643	-0.9570735746	-1.0929615851	 0.264708
N	 2.4761881572	-1.1378132421	 0.098813177	-0.556367
C	 2.4937127531	-1.5183466498	-2.2389944828	 0.273279
N	 3.0801316308	-1.9663039179	-3.1284493952	-0.318289
H	 1.3067407513	 1.7919536934	 0.2592310976	 0.110501
H	 0.0620079785	 2.181748041	-0.9325166876	 0.141447
H	-0.3616895528	 2.0738975687	 0.7893332034	 0.121101
H	 0.0996570608	-0.3932657582	 0.7611597896	 0.089812
H	-1.1390674396	 0.0457370219	-0.4072162842	 0.119917
H	 2.2385434807	-0.5349054514	 0.8690631694	 0.270452
H	 3.4500122759	-1.3887249223	 0.0418130086	 0.274135
