21
gdb 40428	3.27844	1.29518	1.16184	1.2989	82.32	-0.2203	0.0855	0.3058	1164.3873	0.184067	-387.06811	-387.060089	-387.059145	-387.100726	31.994	
C	-0.1181536389	 1.4250715096	-0.2842899217	-0.269478
C	 1.259564131	 0.9077163134	 0.0516525323	-0.267255
C	 0.0864716587	-0.0402686752	 0.0092368278	-0.074405
C	-0.4443669742	-0.6474212641	 1.2633318075	 0.464816
C	-0.3289993537	-2.1259359376	 1.5551300498	-0.366112
C	-1.6950996938	-1.4794088504	 1.3709917696	-0.114146
C	-2.4097825848	-0.9923758057	 2.6195027498	-0.2391
C	-1.3073805027	-0.1997994929	 3.3574745503	-0.096095
O	-0.373646812	 0.2285385138	 2.367672925	-0.302433
H	-0.6218759372	 2.0128901045	 0.4736003718	 0.120362
H	-0.3290019824	 1.717996332	-1.3069386239	 0.103361
H	 1.9984090217	 0.8434530391	-0.7396015619	 0.1043
H	 1.6572975995	 1.1572765951	 1.0280911631	 0.126959
H	 0.0434581096	-0.7173439229	-0.8387287683	 0.078802
H	 0.0254032782	-2.7618484032	 0.7505934548	 0.11093
H	-0.0222051177	-2.4512151205	 2.5440967129	 0.111659
H	-2.2826579833	-1.7332381487	 0.4960897003	 0.087899
H	-3.239801782	-0.3378798688	 2.3329558614	 0.10821
H	-2.8155840785	-1.793335178	 3.2455461421	 0.103518
H	-1.6793448842	 0.6881571096	 3.8762985204	 0.108908
H	-0.8031232032	-0.8343709591	 4.0992839369	 0.099298
