20
gdb 114272	4.08267	1.12462	1.0635	0.6451	81.11	-0.208	0.0639	0.2719	1197.1028	0.171061	-402.998347	-402.990374	-402.98943	-403.030819	31.944	
O	 1.0737888398	-0.757081698	 0.4242434332	-0.416093
C	 0.2641786523	 0.0589848352	-0.4109828062	-0.096148
C	-1.1840111814	-0.4415693145	-0.4227506389	 0.020146
C	-2.1498180335	-0.0120577722	 0.755736746	-0.351713
C	-2.8348692902	 0.8523935601	-0.3187501552	 0.295038
C	-3.9991727972	 1.1968154212	-1.293931604	-0.275675
C	-2.6094515372	 1.3540062306	-2.053904316	-0.0217
C	-2.0984603091	 2.1391562881	-0.8404560078	-0.251587
N	-2.2666480668	 0.0023275511	-1.4155746168	-0.174219
H	 1.0797802394	-1.6452853988	 0.0522657214	 0.282812
H	 0.3613654156	 1.063321998	 0.005878816	 0.113479
H	 0.6434337773	 0.0890439422	-1.4450329937	 0.096146
H	-1.1177351522	-1.5304733584	-0.5353640361	 0.074885
H	-2.754269439	-0.8463761609	 1.1166137923	 0.116015
H	-1.7015756416	 0.5159612829	 1.6000471381	 0.111694
H	-4.6050011963	 0.3470650033	-1.6070851541	 0.110667
H	-4.5750717709	 2.1129423146	-1.1416288193	 0.094243
H	-2.4710858819	 1.5622434781	-3.1179108242	 0.082562
H	-2.5694077023	 3.1046699232	-0.6321595505	 0.089902
H	-1.0206707747	 2.1992505141	-0.7118249542	 0.099545
