15
gdb 127322	3.40858	1.70033	1.14265	6.2671	73.75	-0.2113	0.0019	0.2133	1001.6282	0.115261	-412.984852	-412.977386	-412.976442	-413.01845	27.37	
C	-0.002562925	 1.4805910892	 0.0175064306	-0.35271
N	-0.0110322869	 0.0346974377	 0.0184709768	-0.148502
C	-0.0427000566	-0.802003379	-1.1102825	-0.079776
C	-0.0188669348	-2.1239628601	-0.7467978927	-0.308617
C	 0.0327743751	-2.1264342063	 0.6841944176	 0.291999
C	 0.0371541233	-0.799367006	 1.0911059097	 0.437495
N	 0.0851791915	-0.8340319892	 2.4375517482	-0.371615
N	 0.1100571194	-2.1579905947	 2.8479480729	-0.128788
N	 0.0780253943	-2.9174476092	 1.7973810168	-0.289255
H	 0.9317609873	 1.8769278052	 0.4316797181	 0.14195
H	-0.0985375449	 1.8322567212	-1.010868947	 0.151312
H	-0.8423177674	 1.8811625764	 0.5962849379	 0.14144
H	-0.0815373113	-0.3502153086	-2.0895536506	 0.124995
H	-0.0385936131	-2.9647593282	-1.4208765777	 0.11554
H	 0.1075747892	-0.1098290285	 3.1337808493	 0.274532
