21
gdb 54147	2.34786	1.34689	1.19074	2.2598	79.08	-0.236	0.0216	0.2576	1188.7766	0.180417	-420.428426	-420.417881	-420.416937	-420.463554	39.111	
C	-0.038264366	 1.4731028862	-0.1270260361	-0.444748
C	 0.0496109028	-0.0284826049	 0.0632752416	 0.302264
C	-1.0662224799	-0.7868857963	-0.6329294091	-0.463319
N	 1.4211529556	-0.5964467829	 0.0105293675	-0.42889
C	 0.6737797495	-0.6211604551	 1.2879168331	 0.179258
C	 1.2347575408	 0.221179953	 2.4205852973	-0.446468
C	 0.0875926213	-1.9162530738	 1.8257017819	 0.313512
N	 0.748712678	-3.0625821793	 1.4573496543	-0.524304
O	-0.8941093948	-1.9283574804	 2.5408606123	-0.362154
H	 0.8340237304	 1.9892412305	 0.2746074279	 0.127686
H	-0.0978887699	 1.709092551	-1.1954737988	 0.117833
H	-0.9369527059	 1.874074254	 0.3541046622	 0.121765
H	-1.0667545993	-0.5570690366	-1.7046177278	 0.114937
H	-0.9659350618	-1.8692108161	-0.5173065303	 0.127246
H	-2.0417744398	-0.4990603396	-0.2277945573	 0.135977
H	 1.3772218292	-1.5057578748	-0.4462831869	 0.219495
H	 1.660411429	 1.1538531441	 2.0506117794	 0.127363
H	 0.4474343875	 0.4421687239	 3.1461674988	 0.142722
H	 2.0311630513	-0.3228283998	 2.9412312126	 0.115032
H	 1.7018758133	-3.0121452758	 1.1359811374	 0.263692
H	 0.4705212087	-3.9085762272	 1.93199999	 0.261101
