15
gdb 2269	3.85519	2.73623	2.13057	2.2121	56.74	-0.2286	0.0726	0.3012	670.6649	0.123708	-345.605635	-345.598793	-345.597849	-345.635909	26.014	
C	-0.0685586297	 1.5624756223	-0.0334151832	-0.414476
C	 0.0913010014	 0.0594531026	 0.0366218893	 0.101264
O	 1.1640964164	-0.4629759985	-0.8110786539	-0.306257
C	 1.6848427236	-1.2257159249	 0.2786326872	 0.053705
C	 2.1862184976	-0.3126059875	 1.3676135352	-0.365786
C	 0.709837672	-0.6337258787	 1.257652635	 0.294258
O	-0.023618911	-1.2413284517	 2.2563798258	-0.454435
H	 0.8429298046	 2.0792956326	 0.2790297261	 0.120443
H	-0.3033476954	 1.8730189117	-1.0563847671	 0.131662
H	-0.8932142341	 1.8820494903	 0.6133220123	 0.117812
H	-0.8461709327	-0.4466880587	-0.2292631991	 0.089256
H	 2.0321393635	-2.2337023278	 0.0883743935	 0.111984
H	 2.6699571158	-0.8269310287	 2.1932947915	 0.116482
H	 2.594569374	 0.6629156453	 1.1185634923	 0.114427
H	-0.0201407959	-0.6660419482	 3.029140025	 0.28966
