19
gdb 107847	3.45239	1.43762	1.35438	2.463	74.06	-0.2351	0.0801	0.3152	1024.3862	0.160113	-422.970207	-422.96281	-422.961865	-423.002112	29.576	
C	-0.0174990572	 1.3351787433	-0.0447696976	-0.263613
O	-0.0546994362	-0.0721659279	 0.0909005602	-0.303686
C	 0.6744185256	-0.5652422845	 1.1576348676	 0.410383
C	 2.2335546277	-0.5093576513	 1.2338096344	-0.322869
C	 2.0615115768	-1.7613113461	 2.1095090341	-0.08128
C	 0.9123745098	-1.5104067306	 3.1717218516	 0.067755
C	 0.2820794057	-0.2200212024	 2.6191409786	-0.278117
O	 0.078704145	-2.5286219188	 2.5365372752	-0.296196
C	 0.777935945	-2.1482194997	 1.3478112882	 0.049208
H	 1.00848513	 1.7029462681	-0.1904293972	 0.111279
H	-0.6110072008	 1.5865549156	-0.9265107747	 0.129949
H	-0.4488204354	 1.8421172863	 0.8299748856	 0.112854
H	 2.6991948205	-0.7684919554	 0.278539077	 0.106803
H	 2.7044953754	 0.3835901676	 1.6536146479	 0.095072
H	 2.855097626	-2.4615582664	 2.3580716322	 0.082317
H	 1.0363899282	-1.6479104421	 4.245017513	 0.081806
H	 0.7382947591	 0.7043214856	 2.9831522483	 0.094286
H	-0.7951078336	-0.2100307561	 2.7962085404	 0.113176
H	 0.6779246686	-2.8065264853	 0.4867634353	 0.090873
