23
gdb 74330	3.93774	0.90806	0.77597	0.3269	93.64	-0.2246	0.0338	0.2584	1554.1558	0.206474	-351.166272	-351.157083	-351.156138	-351.200526	35.21	
C	 0.0519364549	 1.5726984333	-0.0656992506	-0.489554
C	 0.0195981698	 0.0794911379	 0.0214145013	 0.323646
C	-0.3804497678	-0.7809396514	-0.9169957026	-0.176406
C	-0.2343033838	-2.2292662924	-0.4997966101	-0.018774
C	 0.0294578186	-2.1048451537	 1.0277468898	-0.22784
C	 0.5207535735	-0.655846925	 1.2495852888	-0.300143
C	-1.4199276108	-3.1070674416	-0.8482218143	 0.036792
C	-1.5173708946	-3.7698767655	-2.1994079256	-0.277128
C	-1.259056058	-4.6021236582	-0.9669385828	-0.273449
H	 1.0732086163	 1.9556383882	 0.0605050587	 0.122292
H	-0.3278610739	 1.9317955928	-1.0261999042	 0.120746
H	-0.5486645988	 2.0292663288	 0.7317361702	 0.122014
H	-0.7468341562	-0.4999519039	-1.8996202115	 0.080869
H	 0.6494549783	-2.661772203	-0.9977957894	 0.063784
H	-0.9170600885	-2.2536649314	 1.5594161632	 0.098643
H	 0.7278203801	-2.8592432784	 1.3993004312	 0.093012
H	 1.6180595763	-0.5975527652	 1.3049732987	 0.099354
H	 0.1483192674	-0.2199010348	 2.1849114059	 0.095275
H	-2.359488554	-2.7628117276	-0.4210288068	 0.076343
H	-2.4897357587	-3.8398004041	-2.6744460373	 0.107835
H	-0.6952407543	-3.6275426585	-2.8937612815	 0.10802
H	-0.263662054	-5.0144844499	-0.8356649067	 0.107309
H	-2.0543680517	-5.2413025663	-0.5997520247	 0.107358
