22
gdb 87144	2.80567	1.23225	1.06143	2.2207	82.5	-0.2305	0.0655	0.296	1257.7138	0.192462	-404.31233	-404.302373	-404.301429	-404.347259	38.18	
C	-0.2086464242	 1.6071758218	 0.406121314	-0.404687
C	-0.2274073419	 0.0965090948	 0.3730253612	-0.029252
N	 0.8208074725	-0.5931577133	-0.4030608018	-0.380748
C	 0.7588268012	-0.793512695	 1.0599680584	 0.273471
C	 1.9176015816	-0.1952309396	 1.8336497119	-0.481792
C	 0.2617673645	-2.1508218845	 1.5286718758	 0.326803
O	-0.8043756517	-2.6692410362	 0.7644843519	-0.459557
C	 1.2146400373	-3.2254829638	 1.9738278377	-0.296447
C	 0.2938384524	-2.5638438703	 2.9799384329	-0.328585
H	 0.8085699822	 2.0013116705	 0.4349887436	 0.125706
H	-0.6915965451	 2.0088074718	-0.4915001628	 0.120315
H	-0.7536818869	 1.987680511	 1.2774134519	 0.111146
H	-1.2295591889	-0.3156935189	 0.2694098149	 0.056626
H	 0.4081673339	-1.405097754	-0.8586919905	 0.235212
H	 2.2767125687	 0.7050555899	 1.3350036723	 0.133467
H	 1.6290216788	 0.070764183	 2.8557164944	 0.115172
H	 2.7631172923	-0.8879863877	 1.8859524033	 0.122154
H	-1.6213203991	-2.2744832173	 1.0875535267	 0.286707
H	 0.9663513647	-4.2312918678	 1.6568932052	 0.124777
H	 2.2748108298	-3.0110189703	 2.02414104	 0.120022
H	 0.7272393696	-1.8929856429	 3.7121389058	 0.117123
H	-0.5505035317	-3.1429135009	 3.3379276433	 0.112365
