17
gdb 84610	2.56236	1.56843	1.23733	1.6341	80.24	-0.2317	0.0013	0.2331	1051.8673	0.135127	-384.644562	-384.636322	-384.635378	-384.677005	32.255	
O	-0.0777557382	 1.4504972082	-0.0303825473	-0.431992
C	 0.0172688898	 0.0282289217	 0.0124734457	-0.00996
C	 0.6408066624	-0.4961634942	 1.2955886447	-0.120409
C	-0.1850653798	-1.2935976041	 1.9722141583	-0.073831
C	-1.5110637257	-1.4189157007	 1.2990920563	-0.129807
C	-2.292946091	-0.1347674082	 1.1732384867	-0.304015
C	-1.3972903726	-0.5764001347	 0.0260312551	 0.189329
C	-1.9840057066	-0.9879658022	-1.2114598986	 0.161529
C	-2.4603416089	-1.332389588	-2.2615273742	-0.392427
H	 0.81413651	 1.8045540314	-0.1055463183	 0.2834
H	 0.5585211764	-0.3338860267	-0.8742210403	 0.081756
H	 1.6344643794	-0.1965947525	 1.6112315769	 0.095061
H	 0.0334409007	-1.7730652581	 2.9201035363	 0.105379
H	-2.0413938811	-2.3636505977	 1.2855991649	 0.104835
H	-3.3594526448	-0.207918506	 0.9939166545	 0.125636
H	-1.9698378156	 0.722907166	 1.7510824443	 0.132323
H	-2.8860152245	-1.632891874	-3.1863424149	 0.183192
