18
gdb 90495	3.00865	1.24445	1.08843	3.1169	72.37	-0.2381	0.0521	0.2902	1158.0068	0.147673	-438.997165	-438.98908	-438.988136	-439.030199	30.737	
O	-0.2148786849	 1.544188651	-0.0263668605	-0.423883
C	-0.1159942318	 0.1350377038	-0.0468002222	 0.09309
C	 0.4428161877	-0.6370944898	 1.1830727663	-0.21346
N	-0.8212808391	-1.4479451539	 1.3039169568	-0.152939
C	-1.9288140977	-0.5058880483	 1.5713730045	-0.020161
C	-1.8446126892	 0.7035390376	 2.4437353057	 0.068832
C	-3.0576203369	 1.2282184183	 3.0862914011	-0.186568
O	-2.1074764423	 0.4778645694	 3.8377143353	-0.238039
C	-1.4257686513	-0.6014930988	 0.1807526762	-0.070233
H	 0.6398082981	 1.9125600889	-0.2726271268	 0.287657
H	 0.3633338421	-0.2066973445	-0.9722293742	 0.087991
H	 1.2786369553	-1.2983869134	 0.9467086748	 0.11111
H	 0.6915952249	-0.0435040027	 2.0666114782	 0.117529
H	-2.8419099358	-1.0732079787	 1.7430617686	 0.10185
H	-1.0442363331	 1.4072372706	 2.240479766	 0.113596
H	-3.1204449604	 2.2889414398	 3.3254090583	 0.115514
H	-4.0141855593	 0.7352057323	 2.9146750244	 0.11252
H	-2.0262896763	-1.0416365017	-0.6090337525	 0.095593
