17
gdb 51953	5.50542	0.67576	0.66029	2.3194	72.71	-0.2582	-0.038	0.2202	1671.2499	0.135093	-455.153582	-455.144263	-455.143319	-455.189536	32.083	
O	-0.2680505918	 0.1901893974	 0.3451499727	-0.22673
C	 0.1316364698	 1.2708151926	 0.0045382211	 0.1526
C	 1.5500652207	 1.541461652	-0.4781272138	-0.245962
N	 1.6008820558	 2.5621262186	-1.5022754292	-0.34607
C	 2.1454387332	 3.7946231374	-1.2764923259	 0.44678
O	 2.6216116812	 4.122585055	-0.2003847891	-0.393185
C	 2.1264867827	 4.7302088953	-2.447810984	-0.128314
C	 1.7538371414	 6.1476382226	-2.1551505844	-0.21985
N	 3.138283692	 5.7951497825	-2.449888492	-0.301752
H	-0.5172102273	 2.1764472475	 0.0224782027	 0.086342
H	 2.1275426707	 1.9291930552	 0.3703904744	 0.178709
H	 2.0037245548	 0.6019443	-0.8084733906	 0.136616
H	 1.2514039497	 2.3471286519	-2.4221051605	 0.257103
H	 1.896666115	 4.3075480699	-3.4228203281	 0.090906
H	 1.2450788416	 6.7251737474	-2.9213824843	 0.125702
H	 1.4856782067	 6.3775871189	-1.1283416136	 0.136097
H	 3.6437356337	 5.7172373759	-1.5664609353	 0.251008
