21
gdb 91390	2.26995	1.74985	1.4708	3.2174	76.65	-0.2372	0.0576	0.2948	1016.5937	0.185123	-424.231475	-424.223654	-424.222709	-424.263259	32.441	
O	 0.2679971604	 1.1546733245	-0.7906607319	-0.4417
C	 0.0518467125	-0.0370055018	-0.0866386892	 0.147401
C	 0.1473309992	 0.0057235433	 1.4696967357	-0.269676
C	-1.2977477323	-0.5627290218	 1.5860313641	-0.002215
C	-2.3886678516	 0.4075026365	 2.0752144881	-0.25478
C	-2.723797503	 1.307435902	 0.8706247925	 0.111356
O	-1.7934049997	 2.3937965664	 0.7193005485	-0.43363
C	-2.5502444981	 0.3863754978	-0.3460812856	-0.239954
C	-1.4172249907	-0.5854250052	 0.0215638706	-0.05135
H	-0.282820371	 1.8319428367	-0.3688511233	 0.289816
H	 0.7265731779	-0.7747555417	-0.5303379115	 0.078511
H	 0.9292573857	-0.6261622412	 1.8993789045	 0.093836
H	 0.27021497	 1.0173898376	 1.8647913613	 0.085071
H	-1.3568386769	-1.5276745191	 2.0925786887	 0.06276
H	-3.2918650765	-0.1492533877	 2.3531728418	 0.101061
H	-2.0903848756	 0.9887843422	 2.9568141053	 0.086845
H	-3.7385444365	 1.721526147	 0.9348445449	 0.069749
H	-1.7374004444	 2.8686338863	 1.554483929	 0.286956
H	-3.4812106529	-0.166208655	-0.5095598164	 0.098834
H	-2.3409903968	 0.9628930264	-1.2512874096	 0.121731
H	-1.5527821996	-1.5621539833	-0.4477363176	 0.059378
