17
gdb 14847	2.92746	1.7294	1.24026	5.	69.14	-0.2644	0.0322	0.2967	1003.6954	0.141934	-363.855482	-363.847241	-363.846297	-363.888631	29.222	
C	-0.3356447587	 1.5473618962	-0.0908404394	-0.243179
O	-0.3147551635	 0.3056531961	 0.5827993814	-0.229767
C	-1.2539931452	-0.6018898817	 0.1057834235	 0.174169
C	-1.0199744217	-1.3270335601	-1.2494435462	-0.258123
C	-1.5005719951	-2.6385264964	-0.5743718058	-0.230248
C	-1.2455042009	-1.9852564523	 0.8282640803	-0.226762
C	 0.043200989	-2.3435847346	 1.401557819	 0.296531
N	 1.0575627501	-2.6650220022	 1.8534045967	-0.330232
H	 0.4230069478	 2.1779811052	 0.3766078599	 0.139201
H	-0.0987822028	 1.4378549017	-1.1588862702	 0.114545
H	-1.3166591263	 2.0388950458	-0.0001426078	 0.108175
H	-2.2702548452	-0.1781289784	 0.1484205366	 0.075527
H	-1.5671619897	-0.9728069869	-2.1246409625	 0.105998
H	 0.0490413683	-1.3635677649	-1.4760072724	 0.131102
H	-2.5661327886	-2.8244009152	-0.7233254897	 0.117682
H	-0.9446743211	-3.550291275	-0.7901816684	 0.132121
H	-2.0205308763	-2.1292971473	 1.5844720551	 0.123259
