25
gdb 100107	3.43469	0.81574	0.80405	1.2907	88.87	-0.263	0.0718	0.3348	1594.2416	0.226712	-389.479381	-389.468346	-389.467402	-389.515383	41.32	
C	-0.028722479	 1.5689326216	 0.2111929518	-0.411748
C	 0.0192090833	 0.0390180008	 0.0378764193	 0.261434
C	 0.7394217831	-0.6017346208	 1.2377876351	-0.40538
C	-1.4213711394	-0.4989426065	-0.0311876829	-0.086417
O	-2.1059020938	-0.1754385477	 1.1716675941	-0.427532
C	 0.7013084579	-0.3450348763	-1.299701029	-0.230479
C	 2.1422971974	 0.09304966	-1.4735131501	 0.020831
C	 3.2886571649	-0.8030254324	-1.0706636715	-0.25075
C	 2.9985349595	-0.5600677097	-2.5304171986	-0.279461
H	 0.9721612676	 1.9876575136	 0.3505219542	 0.108173
H	-0.4768738972	 2.0514633596	-0.6655121203	 0.100137
H	-0.6308894857	 1.8321113031	 1.0837664437	 0.130571
H	 0.1964963471	-0.3918865228	 2.1623629463	 0.127299
H	 0.8006378803	-1.6905059936	 1.1243925006	 0.097443
H	 1.7582219109	-0.2184661285	 1.3372995523	 0.114132
H	-1.9325692792	-0.0573901799	-0.9024110116	 0.078559
H	-1.3936672461	-1.5906210843	-0.1828734048	 0.078322
H	-3.0028080789	-0.5144174432	 1.107795568	 0.286644
H	 0.6548877158	-1.4367731817	-1.4198985663	 0.082773
H	 0.1054623229	 0.0764843992	-2.122341754	 0.089129
H	 2.3132301913	 1.1575106397	-1.3410393431	 0.083697
H	 4.1747579291	-0.3516932074	-0.637462517	 0.108124
H	 3.0481117545	-1.7799177371	-0.6643782541	 0.109968
H	 2.5629960875	-1.3737909421	-3.101956892	 0.106931
H	 3.6838091062	 0.0602383966	-3.0976385304	 0.1076
