21
gdb 58426	2.05168	1.33463	1.21127	1.6881	74.85	-0.2341	0.0686	0.3027	1203.3908	0.178993	-461.340855	-461.330158	-461.329213	-461.375734	39.914	
C	 0.6014434501	 0.075877096	-1.2798461007	-0.417931
C	-0.1093916393	 0.1902534074	 0.0681385955	 0.065972
O	-0.4096001694	 1.5611030613	 0.3760908571	-0.461367
C	-1.4679856098	-0.4843536442	 0.0644330298	 0.413852
O	-2.3806563744	 0.1491768931	-0.7913971842	-0.484723
C	-1.6615825962	-1.9753330088	 0.163543631	-0.11449
C	-0.525721643	-2.9702395499	 0.2676034553	-0.428504
C	-2.0299464601	-1.0707598841	 1.3356451569	-0.012863
O	-1.2120081272	-1.0488466312	 2.4709694099	-0.416975
H	 1.5190210347	 0.6765173511	-1.2875793042	 0.09912
H	 0.8848419751	-0.9603657858	-1.4854926213	 0.123496
H	-0.0552780529	 0.4230771263	-2.0815794263	 0.133843
H	 0.5073615203	-0.2382050694	 0.8663628162	 0.088137
H	 0.3706781015	 2.089603726	 0.1844081422	 0.284225
H	-2.3063797838	 1.0904798731	-0.5821060086	 0.286551
H	-2.5154867946	-2.3173911831	-0.415656718	 0.097267
H	 0.2595758548	-2.6210532018	 0.9423176678	 0.127141
H	-0.8903094202	-3.9287519441	 0.6548003436	 0.113162
H	-0.073089274	-3.1667681386	-0.7098146118	 0.123508
H	-3.0885288438	-0.888167128	 1.5160413862	 0.090888
H	-1.3545097779	-1.8676258354	 2.9580190737	 0.28969
