18
gdb 68367	2.8478	1.67437	1.26948	5.1042	71.81	-0.2477	0.053	0.3006	1017.3921	0.148756	-439.128285	-439.120563	-439.119619	-439.160209	30.746	
C	-0.1464104286	 1.4969600333	-0.006009024	-0.468658
C	 0.0687203401	 0.0055228209	 0.0207452957	 0.41706
C	 1.1157514622	-0.6941450452	-0.8921515534	-0.27349
C	 1.0885023937	-1.8165071727	 0.1854889218	-0.007798
C	 0.7501544332	-0.7086489608	 1.2207566728	-0.263453
N	-0.1186698202	-2.6057212703	-0.0048947168	-0.34677
C	-1.3057570114	-1.9734703199	-0.279013117	 0.448999
O	-2.3425300289	-2.5228237716	-0.5470761234	-0.392924
O	-1.2272863248	-0.6088784148	-0.2063839759	-0.292838
H	 0.7993548622	 2.0195598886	 0.1627889945	 0.11616
H	-0.552131866	 1.8076796016	-0.9732612911	 0.135465
H	-0.8559681712	 1.7944790362	 0.7717148747	 0.135523
H	 0.8139373332	-0.9530392926	-1.9091414171	 0.113977
H	 2.0607973035	-0.1470680519	-0.896433476	 0.109851
H	 1.948415228	-2.4686211731	 0.3336029127	 0.082717
H	 1.6395202437	-0.1675645268	 1.549933016	 0.109404
H	 0.1243643777	-0.9831526564	 2.0718393604	 0.116401
H	-0.0828066764	-3.5900246846	-0.2083678141	 0.260372
