14
gdb 48488	2.05065	1.70868	1.21818	2.5976	62.57	-0.277	-0.0713	0.2057	1026.8667	0.099744	-473.822318	-473.814024	-473.81308	-473.856574	28.454	
O	-0.4311876699	 0.4336247194	 0.6660039731	-0.226813
C	 0.2961690498	 0.8089839713	-0.2093447113	 0.140707
C	 1.364886185	 1.9183107179	-0.0209015782	 0.129652
C	 1.3756127068	 2.5349161787	 1.4067253756	-0.164717
O	 2.7460326153	 2.4943133488	 1.7643882917	-0.222333
C	 3.2447694689	 1.3419404832	 1.1562253059	 0.014858
O	 2.632037047	 1.2696458493	-0.1349576469	-0.284526
C	 1.2249993036	 2.9136176065	-1.091604308	 0.250215
N	 1.0546633432	 3.6770597467	-1.9420863925	-0.314357
H	 0.3100239771	 0.3532325307	-1.218397905	 0.12901
H	 1.0348708396	 3.5693100625	 1.4349866384	 0.15281
H	 0.7559247425	 1.9132845692	 2.0638886272	 0.143454
H	 4.3249501446	 1.4337245832	 1.0247442555	 0.143649
H	 2.9934447966	 0.4362815126	 1.7327841745	 0.10839
