14
gdb 130672	5.73679	0.99132	0.899	4.5067	64.48	-0.255	-0.0165	0.2384	1226.9128	0.102583	-469.996258	-469.9889	-469.987956	-470.028889	26.895	
O	 0.6349365507	 0.2959447475	 0.8766699836	-0.385514
C	 0.1661488676	 1.2365588103	 0.3064769871	 0.51056
N	-0.8270380221	 2.1208694811	 0.7151519882	-0.440077
C	-1.0193548843	 3.0420843184	-0.2782812657	 0.456186
N	-0.2498261517	 2.8168291064	-1.2939480035	-0.200367
O	 0.5191699599	 1.6800943113	-0.9410574577	-0.229477
C	-1.9730262769	 4.163177944	-0.2109305554	-0.137035
C	-1.4484225462	 5.5573330032	-0.3665633435	-0.219772
N	-2.2370802279	 4.9365707028	-1.4273649532	-0.297001
H	-1.2814212815	 2.0706353406	 1.6105576165	 0.290238
H	-2.8400351474	 3.9885733958	 0.4214331745	 0.112997
H	-1.9407582711	 6.3665866923	 0.1651288802	 0.134462
H	-0.3764310055	 5.666210441	-0.5021572459	 0.140105
H	-1.6278744335	 4.5997814854	-2.1712317853	 0.264694
