16
gdb 49922	4.24106	0.89324	0.82271	1.7694	72.95	-0.2356	-0.0442	0.1913	1355.8101	0.12278	-437.893943	-437.885387	-437.884443	-437.928529	30.234	
O	-0.3293498402	 0.1940051248	 0.1647128712	-0.242543
C	 0.0052356869	 1.2920323773	-0.1894396157	 0.164357
C	 1.4230080095	 1.8558188859	-0.0379147881	-0.108472
N	 1.7259168716	 2.7940322535	-1.1232670009	-0.332696
C	 2.2069023232	 4.0737506194	-0.5932038803	-0.108472
C	 1.4003743279	 5.2394071369	-1.1777148685	 0.164357
O	 1.8425133752	 6.3389975609	-1.3738010218	-0.242542
C	 1.9510528528	 3.9431046869	 0.8902337864	-0.081131
C	 1.5197887871	 2.7229414045	 1.1957171847	-0.081127
H	-0.6973626742	 2.0181151147	-0.6573205669	 0.083285
H	 2.1075858276	 0.9965459628	 0.0225879965	 0.101816
H	 2.3255594397	 2.4039314107	-1.8348927011	 0.239022
H	 3.2679297067	 4.2795943257	-0.7993723524	 0.101816
H	 0.3436763887	 4.9636440726	-1.3947334219	 0.083284
H	 2.1221325376	 4.7607921661	 1.5784461174	 0.129523
H	 1.2707290299	 2.3519303774	 2.1815351013	 0.129523
