18
gdb 133608	2.9212	1.21137	1.07883	2.1757	63.72	-0.3295	0.0742	0.4037	1150.7833	0.146035	-533.487363	-533.479169	-533.478225	-533.521102	30.72	
F	-0.0382360703	-0.2093081333	 0.4552555295	-0.090085
C	-0.0546196377	 1.1039333758	 0.1525718976	 0.270125
F	 1.2227353988	 1.4791744058	-0.0327390159	-0.08357
F	-0.680522047	 1.2279035046	-1.0303744327	-0.084604
C	-0.7301214314	 1.9245633396	 1.2317952849	-0.107206
C	-2.2216383852	 1.5129142615	 1.4146098692	-0.234065
C	-2.4101034378	 1.3281189507	 2.9331676955	-0.197873
C	-1.035150521	 0.8412450964	 3.4124801228	-0.196275
C	-0.0556683604	 1.7219694016	 2.6188333093	-0.229918
H	-0.6421634294	 2.9634266923	 0.9037273815	 0.099861
H	-2.9037906109	 2.2495203015	 0.9850107532	 0.106833
H	-2.4096473416	 0.5658227917	 0.9004314422	 0.12089
H	-2.64774732	 2.2894729743	 3.4051521193	 0.09876
H	-3.2244240495	 0.6390275218	 3.1729889662	 0.100115
H	-0.8971547351	 0.9222628568	 4.4940343421	 0.096817
H	-0.8957101298	-0.2103341277	 3.1371723406	 0.110426
H	 0.9461369639	 1.294828205	 2.5358233837	 0.115957
H	 0.0513970545	 2.6952647416	 3.1080127911	 0.103813
