18
gdb 90207	3.09848	1.77087	1.54965	1.209	75.8	-0.2139	0.0444	0.2582	928.221	0.147748	-401.769079	-401.762037	-401.761092	-401.800037	29.05	
C	-0.4835816047	 1.382694067	-0.0534885202	-0.402285
C	 0.0627455176	-0.0271839312	 0.0247325828	 0.031714
O	 1.2146861082	-0.2532565974	-0.8991847237	-0.341545
C	 2.0843372258	-0.3337251937	 0.2361035335	 0.325952
C	 2.7863739034	 0.7975888974	 1.0027496156	-0.318773
C	 2.191918842	-0.1277725921	 2.0936493302	-0.109349
C	 2.4928835811	-1.4519669369	 1.2660091435	-0.068013
N	 1.1120744959	-1.978712303	 1.4476140694	-0.371796
C	 0.9319174722	-0.4965237157	 1.2246894616	 0.163066
H	 0.2728119856	 2.1326463515	 0.1843393937	 0.130865
H	-0.8548771435	 1.5803243188	-1.0636999483	 0.13397
H	-1.3163857731	 1.4930675176	 0.6488580414	 0.129101
H	-0.724548298	-0.7557074862	-0.1990919887	 0.100549
H	 3.8770778533	 0.8476451694	 0.9442975264	 0.103087
H	 2.3512354533	 1.7962209404	 0.9325826212	 0.107427
H	 2.2666533364	-0.0410931402	 3.1790379806	 0.09368
H	 3.3895259509	-2.0765069878	 1.342279008	 0.079992
H	 0.8426578935	-2.4841326478	 0.597901033	 0.212357
