15
gdb 49609	3.03162	1.60128	1.12958	6.2591	68.17	-0.2502	-0.0093	0.2408	1032.0588	0.113605	-453.964526	-453.957083	-453.956138	-453.996936	27.626	
N	 0.0604125894	 1.2835043691	-0.004621395	-0.41126
C	-0.0304413888	 0.0213110214	 0.0189060538	 0.078947
N	-1.2352731755	-0.6762791841	-0.0411630914	-0.149486
C	-1.286463671	-2.111491701	-0.0287395264	-0.036472
C	-1.9506476755	-2.7524654798	 1.1771605406	-0.340393
C	-2.7532564262	-2.4050372876	-0.0485751477	 0.07904
O	-3.4280980198	-1.1693979329	-0.0590833763	-0.244901
C	-2.5299507247	-0.1233960133	-0.0524276964	 0.498491
O	-2.8606401502	 1.0186038807	-0.0337138683	-0.337409
H	 1.040029228	 1.5578138222	 0.0461606467	 0.23268
H	 0.8101089033	-0.6806852866	 0.08245991	 0.098903
H	-0.5531340716	-2.634128419	-0.6307455648	 0.126097
H	-1.7541067414	-3.8059286122	 1.3432381411	 0.132798
H	-2.0838479363	-2.1513702921	 2.0698673373	 0.143705
H	-3.2277270896	-3.1553211648	-0.667008973	 0.12926
