19
gdb 82901	3.11226	1.83825	1.5716	2.3073	72.49	-0.252	0.0865	0.3386	915.9079	0.163014	-423.015142	-423.00868	-423.007735	-423.04574	27.481	
C	-0.2151900823	 1.5752863866	 0.0368107959	-0.444378
C	 0.0472140328	 0.0694876519	-0.015319819	 0.075667
C	 0.9891781419	-0.5047905364	-1.1121746022	-0.136616
C	 2.2866327058	 0.264261424	-0.783509335	-0.209211
C	 2.4280288757	-0.4582824829	 0.5671894321	 0.036335
O	 2.6630334599	-1.7800352443	 0.0528089614	-0.242551
C	 1.3467717463	-1.9451004306	-0.4426841922	 0.166151
O	 0.6056653811	-1.9667374303	 0.7649708734	-0.239775
C	 0.8870385697	-0.5983887373	 1.0971870628	 0.012961
H	 0.6593187903	 2.1694562782	 0.3115635924	 0.120875
H	-0.5787403363	 1.944082418	-0.9285420298	 0.121206
H	-0.9905114481	 1.7867587531	 0.7806104407	 0.119211
H	-0.9172491193	-0.4433854686	-0.0293445685	 0.085697
H	 0.6342754874	-0.5263849253	-2.141169751	 0.067829
H	 3.1386704359	 0.0201379987	-1.4186065102	 0.108599
H	 2.1552963649	 1.3449465717	-0.7584075334	 0.098203
H	 3.1949970176	-0.1702802722	 1.282340142	 0.083988
H	 1.2314575206	-2.861124257	-1.0165876015	 0.095035
H	 0.6832590762	-0.3943545472	 2.1465279821	 0.080774
