16
gdb 17005	3.85345	2.22233	2.03074	1.2205	62.93	-0.2356	0.0515	0.2871	730.1255	0.132347	-383.67762	-383.671522	-383.670578	-383.707484	24.572	
C	 0.0432837414	 1.4598537163	-0.0075285818	-0.364409
C	 1.3913016245	 0.76290338	-0.0419956305	 0.112339
C	 1.649403441	 0.0613529625	 1.298088326	-0.134892
O	 0.3478011483	-0.5949557958	 1.2789823757	-0.319822
C	 0.0975452918	-0.0295778603	-0.0142402208	 0.352033
C	 0.0456644272	-0.8225917948	-1.2962018342	-0.152865
O	 0.9513625623	-0.1295162358	-2.1661708181	-0.263072
C	 2.0141587418	 0.4459267128	-1.3794969415	-0.146927
H	-0.2677884104	 1.9668582072	 0.8995921833	 0.124445
H	-0.2578277352	 1.9301284823	-0.9374174943	 0.136784
H	 2.4591302427	-0.6760367312	 1.251155367	 0.111447
H	 1.7740469817	 0.6931855383	 2.1844442284	 0.111674
H	 0.3704492841	-1.8536507804	-1.0887836585	 0.105793
H	-0.9198511873	-0.8477953853	-1.8089927982	 0.116153
H	 2.3826458396	 1.3031913149	-1.9502280216	 0.115126
H	 2.8425292965	-0.2679055807	-1.2473366711	 0.096193
