17
gdb 122773	3.49724	0.72786	0.6304	3.6422	73.57	-0.2675	-0.0521	0.2153	1737.9844	0.134033	-455.138575	-455.128694	-455.12775	-455.175052	33.286	
C	 0.077702183	 1.3310075578	 0.0788754854	-0.228324
O	 0.0264357671	-0.0697249715	-0.0624096139	-0.227388
C	-1.2586273496	-0.5959538846	 0.1532574769	-0.066417
C	-1.1960132029	-2.1016550064	 0.0397942898	-0.076677
O	-0.4868040049	-2.5981264984	 1.1912861346	-0.227269
C	-0.294368705	-3.9166169609	 1.2392618285	 0.334419
N	-0.7044332092	-4.7303660847	 0.3564725345	-0.52041
C	 0.4402007287	-4.2953451683	 2.4358070335	 0.256523
N	 1.0165882917	-4.6676532541	 3.3656586168	-0.316665
H	 1.1093344053	 1.6384442955	-0.1056215243	 0.133949
H	-0.5802689122	 1.8389936208	-0.644065868	 0.105479
H	-0.2135511931	 1.6492781168	 1.0918826614	 0.110216
H	-1.643620916	-0.3120992758	 1.1465790376	 0.10293
H	-1.9739954402	-0.2204684191	-0.5989296009	 0.094689
H	-2.1990551873	-2.539104331	 0.0187221945	 0.128772
H	-0.6673005164	-2.4058349328	-0.8677816432	 0.143221
H	-0.4509082391	-5.6885952733	 0.5850370869	 0.252954
