19
gdb 76557	2.36778	1.39357	1.20672	2.9722	71.6	-0.2324	0.0416	0.274	1126.6191	0.157281	-460.110504	-460.101237	-460.100292	-460.144526	34.487	
C	-0.3246227551	 1.4417729539	 0.0596686028	-0.388482
C	 0.0844996234	-0.0177249094	 0.0143592997	 0.088933
O	 1.2917918051	-0.2149571031	-0.7756091688	-0.297169
C	 1.9957795636	-0.8114854147	 0.3307722695	-0.142104
C	 0.7792479491	-0.6423839225	 1.2296411811	 0.193786
C	 0.6879494012	-0.2789312645	 2.6897576118	 0.021954
O	-0.2755870401	 0.6262760167	 3.1354907708	-0.431361
C	 0.2105203754	-1.63063442	 2.2016781152	-0.046669
O	-1.1869508926	-1.7879110734	 2.1335523902	-0.427472
H	 0.4634104674	 2.0569546839	 0.5012514311	 0.124016
H	-0.5146619192	 1.7936193351	-0.9594871636	 0.120486
H	-1.2361019638	 1.575579267	 0.6485183645	 0.115019
H	-0.7340490503	-0.6354186665	-0.3782238688	 0.087533
H	 2.2920946463	-1.8491859609	 0.1236530881	 0.097718
H	 2.8871432112	-0.2348528393	 0.6133152679	 0.101816
H	 1.6064058747	-0.209974906	 3.2671902683	 0.104543
H	-1.1315046766	 0.2236768254	 2.9309882395	 0.284236
H	 0.7723493726	-2.5369354524	 2.4251976995	 0.094268
H	-1.4802360823	-2.1890382691	 2.9596758411	 0.298948
