20
gdb 126195	1.86102	1.74349	0.96952	2.0719	82.71	-0.1952	0.0379	0.2331	1259.4848	0.171612	-399.366588	-399.356607	-399.355663	-399.401775	36.121	
C	-0.2050175198	 1.5693712847	-0.057660545	-0.364424
C	-0.0188240888	 0.0404483456	-0.045872176	-0.321319
C	 0.7224346811	-0.4759605251	 1.1504343188	 0.089454
C	 2.0720961668	-0.7623497051	 1.2812860356	 0.293927
C	 3.2069100721	-0.6397615983	 0.3176112034	-0.505976
N	 2.2436611595	-1.2142690393	 2.5479973856	-0.26882
N	 1.0957575661	-1.2378927107	 3.274655054	-0.314251
C	 0.1765322404	-0.7959128008	 2.4248568257	 0.284232
N	-1.1762653724	-0.758773643	 2.7816654429	-0.59217
H	 0.7622845929	 2.0817340821	-0.0653069403	 0.115725
H	-0.7695607519	 1.892793089	-0.9385877903	 0.10913
H	-0.7460942851	 1.9124951739	 0.8311091854	 0.109241
H	-1.0039370235	-0.4412571204	-0.0876317529	 0.110669
H	 0.5015499689	-0.2589901617	-0.9638740334	 0.097136
H	 3.7536727035	 0.3030469608	 0.4406868612	 0.137524
H	 3.9259615337	-1.4568039823	 0.4406591184	 0.127659
H	 2.840798459	-0.6731857085	-0.7117504093	 0.14078
H	 3.0958033353	-1.5299670839	 2.976532805	 0.262337
H	-1.2902508185	-0.9156544618	 3.7757328155	 0.246488
H	-1.6332827191	 0.1040963848	 2.5160960955	 0.242657
