21
gdb 122736	10.47622	0.37722	0.36824	4.238	92.76	-0.2619	-0.0565	0.2054	2881.5372	0.179434	-387.082557	-387.071301	-387.070357	-387.121839	37.509	
C	 0.0120908304	 1.6036322126	 0.0105718595	-0.380396
C	 0.0122827188	 0.0726557288	 0.0022871217	-0.172475
C	-1.3971934764	-0.5286255558	 0.0125936236	-0.158266
C	-1.4011323836	-2.0597510519	 0.0043340427	-0.175606
C	-2.8281591887	-2.6444752683	 0.0148616975	-0.369437
C	-2.8663472497	-4.0985764178	 0.0073573142	 0.068466
C	-2.8903058003	-5.3069007266	 0.0012743068	 0.064889
C	-2.8824796392	-6.7453913739	-0.0065313921	 0.01614
O	-3.8731304065	-7.4407153388	-0.0015212198	-0.231114
H	 1.0310865251	 2.0023821359	 0.0029452667	 0.114669
H	-0.5088931712	 2.0045561549	-0.8659781247	 0.115289
H	-0.4919249789	 1.9949955526	 0.9012499198	 0.115288
H	 0.553089589	-0.2898606088	-0.8817980379	 0.098121
H	 0.5699609903	-0.2993472008	 0.8718305935	 0.098121
H	-1.9400201218	-0.1671481558	 0.8973692726	 0.095928
H	-1.9569080269	-0.1576399887	-0.8576044478	 0.095928
H	-0.8713841553	-2.4315898017	-0.8806209658	 0.111317
H	-0.8545084293	-2.4410975432	 0.8748578986	 0.111316
H	-3.3729819052	-2.2820207107	 0.897299886	 0.14333
H	-3.3897257253	-2.2725625327	-0.853008532	 0.143321
H	-1.8667757351	-7.1919498991	-0.0178553129	 0.09517
