22
gdb 5847	2.95047	1.36362	1.20671	2.4106	73.69	-0.2541	0.0583	0.3125	1134.1304	0.197623	-387.343316	-387.333165	-387.332221	-387.377469	38.293	
C	 0.016552033	 1.5109124637	-0.0828745625	-0.403667
C	 0.0078590522	-0.0249418549	 0.043742502	 0.239521
C	 0.7418041637	-0.4269221854	 1.3387996855	-0.431223
C	-1.4510756907	-0.5150683143	 0.1098551418	-0.414163
C	 0.6985952153	-0.6145781966	-1.2150053976	 0.100307
O	 2.0589673666	-0.1743040633	-1.3515044982	-0.452071
C	 0.6786925866	-2.1417977429	-1.3641631849	-0.084469
O	 1.3584214812	-2.5260215434	-2.5416617441	-0.425346
H	 1.0348583848	 1.8876240341	-0.2066357228	 0.123797
H	-0.5672758109	 1.8352459711	-0.9513421045	 0.110428
H	-0.4208549423	 1.9757538942	 0.8070336551	 0.105465
H	 0.2400906896	 0.0128309218	 2.2067296567	 0.120268
H	 0.7621993901	-1.5109576399	 1.4872410528	 0.118539
H	 1.7746056829	-0.0589569703	 1.3559534391	 0.104822
H	-1.9795774163	-0.3147780963	-0.8287866851	 0.115828
H	-1.5195142466	-1.5878386807	 0.3142527137	 0.117326
H	-1.9886825665	 0.0058892362	 0.9091195379	 0.113123
H	 0.2011329549	-0.1977583163	-2.0993752653	 0.092704
H	 2.5428876115	-0.4705877898	-0.5717574487	 0.282653
H	 1.1311544326	-2.6133979381	-0.4737303689	 0.074317
H	-0.3467401889	-2.5135187269	-1.4457320988	 0.108426
H	 2.1161183772	-1.9289660019	-2.6005754832	 0.283415
