20
gdb 107216	3.69902	1.21258	1.08347	1.9741	77.71	-0.2359	0.0721	0.308	1163.574	0.172967	-403.111893	-403.103985	-403.10304	-403.14422	31.78	
O	 0.1219818986	 1.3661283588	 0.1955527802	-0.41814
C	 0.0254970162	-0.0083416666	-0.1581176129	-0.147894
C	-1.3869549775	-0.5303372809	-0.0846483191	 0.311378
C	-1.883250877	-1.0817468332	 1.2358373125	-0.34179
C	-1.6850523787	-2.014490755	 0.0657000397	-0.089393
C	-2.8946775424	-2.3231269839	-0.7916486766	-0.048814
N	-4.1399414144	-1.6466299941	-0.3622384867	-0.33841
C	-3.3408784816	-1.0750582977	-1.4661165113	-0.032871
C	-2.4195149636	 0.0698043081	-1.0552871047	-0.28593
H	-0.2810584908	 1.4628282541	 1.0652246254	 0.281023
H	 0.4069025197	-0.0675380021	-1.1845237139	 0.103259
H	 0.6823033889	-0.6307375251	 0.4720273899	 0.079255
H	-1.1608511603	-1.1475218465	 2.044773021	 0.097557
H	-2.9033826609	-0.8814855967	 1.5393103212	 0.139986
H	-0.8878338624	-2.7487520158	 0.0997766654	 0.080164
H	-2.9664058591	-3.2962735434	-1.2649855354	 0.083159
H	-4.9423846275	-2.1389220192	-0.7471672756	 0.228684
H	-3.7686133359	-1.076560155	-2.4642156629	 0.084269
H	-2.9756091956	 0.9062858586	-0.6209725499	 0.111423
H	-1.8989062959	 0.4531292956	-1.9401035463	 0.103085
