21
gdb 103899	2.59007	0.96082	0.84813	3.939	80.47	-0.2679	0.0033	0.2712	1471.8828	0.17958	-424.241917	-424.231558	-424.230614	-424.27832	36.873	
C	 0.240468466	 1.250087946	-0.1519582012	-0.383495
C	-0.0429511167	-0.1950746539	 0.2766405676	-0.250902
C	-1.4941228953	-0.6179023976	 0.0957033014	 0.315191
C	-2.5097319001	 0.1010524251	 0.9650711397	-0.462251
C	-1.9342179276	-1.0476360847	-1.2950307117	-0.354817
C	-1.7862350653	-2.0698073993	-0.2130898195	 0.055842
O	-0.7230819122	-2.9913686194	-0.3832486995	-0.184019
C	-0.382493975	-3.7215759631	 0.6993682245	 0.17361
O	 0.4983912212	-4.527095227	 0.6801670484	-0.273274
H	 1.3028164304	 1.4843776147	-0.0355743156	 0.117913
H	-0.024523674	 1.4083598045	-1.2026837308	 0.119123
H	-0.32272103	 1.9729829511	 0.4463931732	 0.117768
H	 0.6011869653	-0.8729653035	-0.2914482776	 0.119242
H	 0.2349777279	-0.3222733005	 1.33212801	 0.095947
H	-2.5663522414	 1.1653591543	 0.7146084297	 0.127119
H	-3.5134743861	-0.3165284149	 0.8364737514	 0.114531
H	-2.2465567286	 0.0205370504	 2.0262849104	 0.118883
H	-2.9331511335	-0.8049054823	-1.6411217003	 0.117089
H	-1.1773428706	-1.0673161126	-2.0717846408	 0.131951
H	-2.6798876134	-2.5227527009	 0.2088992632	 0.10586
H	-1.008795511	-3.4958365866	 1.5839437474	 0.078687
