17
gdb 68508	2.55568	1.8677	1.45126	0.9653	71.17	-0.2456	-0.0075	0.2381	942.0366	0.136071	-421.801425	-421.794095	-421.793151	-421.832968	29.087	
C	 0.0076661203	 1.5508278679	 0.0247997564	-0.509358
C	 0.0101396912	 0.0438746076	-0.0138036171	 0.163357
C	 0.441145832	-0.8039429612	-1.2581954159	-0.276273
C	-0.3510924826	-1.9724634379	-0.5947867644	-0.200356
C	 0.3999085548	-2.1567271552	 0.7362637588	 0.033691
O	 1.7320416565	-1.6303960589	 0.7804651348	-0.249466
C	 0.6502579239	-0.7618318516	 1.1392077877	-0.002287
C	-1.2982550118	-0.8137745307	-0.1391927767	 0.398257
O	-2.4694154333	-0.6154020092	-0.0658376656	-0.312762
H	 1.022658803	 1.9524968127	-0.0600897439	 0.129411
H	-0.5922866498	 1.9625883564	-0.7923666058	 0.129151
H	-0.4197817371	 1.9164500921	 0.9645406536	 0.129815
H	-0.0275918486	-0.4522629124	-2.1784240574	 0.114921
H	 1.5103876176	-0.9615302183	-1.3810489981	 0.136258
H	-0.6977309047	-2.8453127059	-1.1413058702	 0.089418
H	 0.175725233	-2.9696690703	 1.4167288679	 0.115609
H	 0.6385488356	-0.3954314051	 2.1599885259	 0.110613
