17
gdb 62529	2.49273	1.37169	1.14912	3.9901	74.64	-0.2689	0.0047	0.2736	1129.9328	0.133035	-421.824702	-421.815418	-421.814473	-421.85857	33.985	
C	-0.1296325798	 1.4710841937	-0.133506649	-0.4459
C	-0.0275779866	-0.0436302998	 0.0443827469	 0.063253
C	-1.3805127393	-0.6853122123	 0.3426049908	-0.444987
C	 0.8803749357	-0.7668720209	-1.0106831146	-0.097935
O	 1.8379782984	-1.1104353108	 0.057275173	-0.25711
C	 1.0839297616	-0.4732748849	 1.011330808	 0.46157
O	 1.328464756	-0.3556396934	 2.1683824837	-0.330579
C	 0.3736788779	-1.9277811653	-1.7076068326	 0.344585
C	-0.0580222023	-2.8760962586	-2.3060849806	-0.432153
H	 0.8443647696	 1.9217045869	-0.3476341986	 0.130284
H	-0.8105675756	 1.7158638591	-0.9552120526	 0.128141
H	-0.5185821471	 1.9299191489	 0.7799949808	 0.143039
H	-2.0892568558	-0.4786754863	-0.465396282	 0.127234
H	-1.3006534494	-1.7690045155	 0.4545083831	 0.139641
H	-1.7855283337	-0.2721846589	 1.2707733354	 0.137443
H	 1.3626485396	-0.0756672233	-1.7080888466	 0.122069
H	-0.4315981894	-3.7189449286	-2.8342904852	 0.211405
