19
gdb 73557	2.73117	1.68923	1.35485	1.7768	76.72	-0.2377	0.0035	0.2413	1010.4741	0.160121	-423.02481	-423.016916	-423.015972	-423.056987	30.678	
C	 0.0202037268	 1.6589123896	-0.1210775015	-0.43252
C	-0.015458998	 0.1321306689	 0.0070480427	 0.323252
C	 0.8201145178	-0.5516479577	-1.0924566293	-0.118032
O	 2.1651809727	-0.4816824499	-0.5958934316	-0.277938
C	 2.1621048934	-0.5400420309	 0.84482807	-0.169243
C	 0.71850188	-0.4216802461	 1.2065743182	 0.266466
C	-0.1465225164	-0.9286692398	 2.0728177359	-0.272469
C	-1.542857138	-0.7505690784	 1.5182300375	-0.130231
O	-1.3554680914	-0.323724042	 0.1630958136	-0.320525
H	 1.0429453689	 2.0088657722	-0.2903260799	 0.127739
H	-0.5971873251	 1.9706925089	-0.9690374916	 0.125626
H	-0.3691472867	 2.1349388205	 0.7833804516	 0.115874
H	 0.4835672375	-1.590360129	-1.221042957	 0.097365
H	 0.8101989586	-0.0441788577	-2.060702757	 0.10628
H	 2.6030900245	-1.4833301736	 1.1931393307	 0.11474
H	 2.7850909434	 0.2829430921	 1.2176051414	 0.116835
H	 0.0625355828	-1.4585936971	 2.9937435321	 0.108334
H	-2.1058910339	-1.6935986579	 1.5190597913	 0.11405
H	-2.1432178769	-0.0129956621	 2.076137863	 0.104397
