16
gdb 3058	5.8671	1.42581	1.28025	1.7018	68.66	-0.2328	0.0459	0.2787	972.959	0.135635	-288.581144	-288.573069	-288.572125	-288.615229	27.539	
C	 0.0726151306	 0.9002528136	-0.8547442885	-0.497358
C	-0.0040671821	-0.3910657537	-0.1855793243	 0.023889
C	-0.0558235215	-1.451740001	 0.3847163936	 0.08216
C	-0.1354891564	-2.7541031722	 1.0554381766	-0.278551
N	-0.9127652218	-3.8104945552	 0.3923936007	-0.074354
C	-2.1160448966	-3.4333801061	-0.3403521621	-0.21758
C	-0.8922613009	-3.8796926003	-1.0642580808	-0.217475
H	 1.0551861849	 1.0561191308	-1.3135381561	 0.149048
H	-0.6793230697	 0.9810999818	-1.6472888703	 0.149875
H	-0.1004115241	 1.7222207129	-0.1513720538	 0.150279
H	 0.8776118962	-3.1482438835	 1.2040482745	 0.13301
H	-0.5652195989	-2.6214435546	 2.056201421	 0.13296
H	-2.9636126564	-4.1014591221	-0.2159861061	 0.112938
H	-2.3625010998	-2.3763552133	-0.4113095895	 0.119174
H	-0.3431954334	-3.1127631549	-1.6059162848	 0.119084
H	-0.8261869601	-4.8810423122	-1.48029859	 0.112902
