21
gdb 84032	2.64603	1.46524	1.19486	0.4359	78.68	-0.2315	0.0816	0.3131	1131.4364	0.184273	-424.204101	-424.195861	-424.194917	-424.236598	32.456	
C	-0.0287567951	 1.5706476914	 0.1217889626	-0.406285
C	 0.0410333807	 0.0655770768	-0.028083727	-0.067242
C	 0.6719635341	-0.6282683686	-1.234339521	-0.082839
C	 1.3387879001	 0.1362760751	-2.3621365839	-0.107171
O	 2.6334126906	-0.3626179698	-2.6821255614	-0.242791
C	 3.6601236538	 0.1256865587	-1.8436051444	-0.07208
C	 3.6186147483	-0.3915300299	-0.4061177437	-0.07832
O	 2.4933128522	 0.0920521183	 0.3205114969	-0.252795
C	 1.3408709575	-0.6711075084	 0.12011719	 0.090313
H	 0.9294374194	 2.0426967315	-0.1001873949	 0.133615
H	-0.7937595049	 2.0036104813	-0.5316577716	 0.113744
H	-0.2858350472	 1.8324277968	 1.1535857053	 0.119077
H	-0.8222712604	-0.4546646981	 0.3788374658	 0.086974
H	 0.198080609	-1.5542224592	-1.5483199494	 0.086349
H	 0.7466795439	 0.030638602	-3.2767455074	 0.106056
H	 1.4025195424	 1.2086532315	-2.1351115431	 0.095306
H	 4.6056923095	-0.186865375	-2.3030415195	 0.10282
H	 3.6418661312	 1.2282824635	-1.81918353	 0.090998
H	 3.6364974641	-1.4906246556	-0.4001828303	 0.098536
H	 4.5083749941	-0.0298861753	 0.1232576893	 0.103341
H	 1.3481647467	-1.6206987968	 0.6571647875	 0.082395
