24
gdb 104978	2.36979	1.26618	1.10008	3.0739	84.07	-0.2425	0.0606	0.3031	1271.8299	0.216045	-405.525609	-405.515276	-405.514332	-405.559981	40.384	
C	-0.4108504865	 1.484231082	-0.1601930967	-0.426465
C	-0.0080898592	 0.0031315946	-0.0199357902	 0.165299
C	 0.9561645904	-0.1223910167	 1.1807891812	-0.402871
C	-1.2884101375	-0.810866324	 0.2638875997	-0.41286
C	 0.6808512032	-0.5455186752	-1.2899135782	 0.303606
C	 0.8695933552	-2.0697725868	-1.3565441116	-0.120409
O	 1.7361481198	-2.4462409551	-2.4013222009	-0.426927
C	 0.595438157	 0.155353386	-2.5978538013	-0.283633
N	 1.8660971866	 0.143410183	-1.8413618177	-0.383706
H	 0.4322471347	 2.1264675429	-0.4387585869	 0.104758
H	-1.2040125315	 1.6226985866	-0.9002699974	 0.119899
H	-0.7879802497	 1.8537028104	 0.7985830957	 0.116828
H	 0.4747384351	 0.2436573768	 2.0935732147	 0.111508
H	 1.2589195151	-1.1574506996	 1.3597478468	 0.120874
H	 1.8657831472	 0.4671786299	 1.0249982193	 0.110817
H	-1.9697160711	-0.7883755576	-0.5932121164	 0.117133
H	-1.0681037679	-1.8565944068	 0.4949533966	 0.122945
H	-1.8192617993	-0.3907403353	 1.1245849088	 0.110678
H	 1.241284927	-2.4377045621	-0.3863265917	 0.084662
H	-0.0934026468	-2.5573796406	-1.5421126495	 0.106598
H	 2.4253741352	-1.7630773196	-2.4090954357	 0.291665
H	 0.6195495218	-0.4329356528	-3.5096935304	 0.128803
H	 0.0525567523	 1.0909639536	-2.6657973244	 0.111324
H	 2.0197760089	 1.0370459565	-1.3833285739	 0.229473
