18
gdb 67731	2.97542	1.88069	1.33795	2.0991	75.6	-0.2255	-0.0037	0.2217	963.8023	0.147705	-401.870532	-401.863031	-401.862087	-401.901686	31.144	
C	 0.0018076649	 1.5275029052	 0.0122852243	-0.511445
C	 0.0430920334	 0.0194598385	-0.0291783506	 0.34277
C	 0.4649139134	-0.7120756354	-1.2999174975	-0.160219
C	 0.3797252277	-2.0090509309	-1.0041043981	-0.198791
C	-0.0916436444	-2.0056806874	 0.4434095697	 0.364416
O	-0.3766975495	-3.1882799429	 1.1184416717	-0.486718
C	 0.6270634672	-0.8027316038	 1.1778678284	-0.132645
N	-0.6037863512	-0.4873975038	 1.9917023196	-0.356317
C	-1.1154440964	-0.8353774388	 0.6140928569	-0.094004
H	 0.9909941707	 1.9530159935	-0.1903040114	 0.113643
H	-0.6888210094	 1.9224187886	-0.7411279769	 0.114677
H	-0.3270298204	 1.868096512	 0.9967243828	 0.145879
H	 0.7563254355	-0.2345185845	-2.2257580645	 0.106386
H	 0.5706906869	-2.881587601	-1.6137654733	 0.106367
H	 0.4323587899	-3.7062457196	 1.1860931706	 0.285852
H	 1.6388582699	-0.7582262814	 1.5950262011	 0.069096
H	-0.7928883858	-1.2809693415	 2.6104812821	 0.215204
H	-2.1796462726	-0.8300807969	 0.3598661151	 0.075847
