19
gdb 37984	3.01305	1.80235	1.35917	0.292	75.17	-0.2425	0.1031	0.3456	972.4806	0.162456	-422.965183	-422.958496	-422.957551	-422.996056	27.906	
C	 0.0133465427	 1.6566308448	 0.0076718099	-0.230988
C	 1.501496391	 1.198663337	 0.0201345895	-0.153794
C	 1.0358339511	 0.1830511392	 1.1147191901	 0.164578
O	 1.7905205773	-0.9077030225	 1.5556441273	-0.27395
C	 2.7066460762	-1.4961622166	 0.6550128723	-0.088827
C	 2.0526762443	-1.95443222	-0.6366462273	-0.088804
O	 1.8138474584	-0.8927490246	-1.5380391739	-0.273953
C	 1.047680149	 0.190331956	-1.098023397	 0.164587
C	-0.0664886872	 0.1016490781	-0.0038500786	-0.153786
H	-0.3480277262	 2.1518780899	 0.9102295863	 0.101981
H	-0.3276445961	 2.1653076797	-0.8953479932	 0.101983
H	 2.3821789315	 1.8419733119	 0.024281844	 0.075076
H	 0.6763692147	 0.6501654038	 2.0359001509	 0.080639
H	 3.5268827464	-0.8016551976	 0.415429597	 0.101325
H	 3.129674798	-2.3547846926	 1.1868596442	 0.108448
H	 2.7147335567	-2.6462314306	-1.1678162226	 0.108446
H	 1.1191860049	-2.4871086021	-0.3970976242	 0.101322
H	 0.7324461295	 0.6875901291	-2.0196236794	 0.080641
H	-0.972678692	-0.5052015829	-0.0080058351	 0.075076
