23
gdb 122062	3.08979	0.66284	0.5719	1.7267	88.6	-0.2589	0.0534	0.3123	1987.7905	0.202679	-388.260749	-388.249258	-388.248314	-388.298161	40.826	
C	-1.5423763506	-0.2787970407	-0.0221000427	-0.390472
C	-0.0249174267	-0.096694769	 0.0375668125	-0.175692
C	 0.7199888504	-0.6217849852	-1.2129522767	-0.145183
C	 2.2268424429	-0.278019206	-1.152493379	-0.196628
C	 2.9960539154	-0.6296974054	-2.4275996807	-0.176977
C	 4.4758708149	-0.2822349102	-2.3344786719	-0.073836
O	 5.0861931789	-0.6327923431	-3.5675601338	-0.420953
C	 0.5106315778	-2.0592097304	-1.3878085389	 0.357313
C	 0.3492739646	-3.2456440863	-1.5039644548	-0.496962
H	-1.9713375965	 0.253239262	-0.878723961	 0.112489
H	-1.8076981156	-1.3354561768	-0.1186003396	 0.132402
H	-2.0182356128	 0.1100233366	 0.8832774955	 0.111714
H	 0.2168905632	 0.9675130522	 0.1473291699	 0.093822
H	 0.3779007224	-0.6033273821	 0.922821612	 0.104207
H	 0.2968392251	-0.1108086775	-2.0910337095	 0.101267
H	 2.3158048177	 0.7973497706	-0.950976235	 0.092627
H	 2.6698573602	-0.796272202	-0.2924234472	 0.102707
H	 2.8988529828	-1.6990808478	-2.6422270934	 0.122468
H	 2.5682223088	-0.0959025666	-3.2854996926	 0.102015
H	 4.5954146696	 0.7938311051	-2.1234080728	 0.080409
H	 4.9332146944	-0.8293124508	-1.4933632626	 0.083836
H	 6.0232068626	-0.4254929007	-3.5088127134	 0.284379
H	 0.2028946506	-4.290670006	-1.6223232643	 0.195048
