25
gdb 115049	2.28698	1.16536	0.84366	0.1739	94.13	-0.2339	0.0271	0.261	1497.4279	0.229537	-352.378826	-352.368853	-352.367908	-352.413653	37.95	
C	-0.0360239973	 1.7927494147	-0.2743141329	-0.389268
C	-0.3021409057	 0.2844624753	-0.3412637721	-0.193728
C	 0.7875471134	-0.4881399934	-1.0900231932	 0.030208
C	 2.1969157573	-0.4362077918	-0.4409496689	-0.261234
C	 2.8323545744	-1.7192469901	-0.9186633215	-0.075022
C	 1.9333501963	-2.5580861278	-1.4309711286	-0.065104
C	 0.5220979349	-2.0106490863	-1.3457058592	-0.054903
C	-0.3095882878	-2.7295044909	-0.2596979183	-0.164774
C	-0.5425969555	-4.2151262188	-0.5541513638	-0.390686
H	 0.8921030492	 2.0135357638	 0.262976508	 0.118005
H	 0.0532964859	 2.2233692457	-1.2782384111	 0.112264
H	-0.8482619291	 2.3153544923	 0.2406283928	 0.109013
H	-0.4052817478	-0.1094633394	 0.6775382605	 0.096095
H	-1.2687956229	 0.1146514436	-0.8334922288	 0.092197
H	 0.8900473112	-0.0332564263	-2.0847771517	 0.071377
H	 2.7608992682	 0.4554593633	-0.7367516986	 0.100094
H	 2.1398205857	-0.4105936636	 0.6583354812	 0.099183
H	 3.8945319436	-1.9192859126	-0.8256074372	 0.087054
H	 2.1558970385	-3.5456272681	-1.8198440299	 0.08908
H	-0.0132955595	-2.1382861121	-2.2971564929	 0.063679
H	 0.1912432685	-2.6243909515	 0.7110478015	 0.094818
H	-1.281228741	-2.230959848	-0.1643896172	 0.093579
H	-1.0390681571	-4.3527615279	-1.5217399043	 0.111196
H	 0.3978207386	-4.7742803753	-0.5816853937	 0.117024
H	-1.1765350119	-4.6735352849	 0.2113818999	 0.10985
