17
gdb 49286	3.06899	1.39188	1.0218	2.5519	77.12	-0.2495	-0.0582	0.1912	1132.2828	0.136311	-421.825126	-421.81744	-421.816496	-421.85755	29.176	
O	-0.117160314	-0.0292404767	 0.0162194388	-0.268584
C	-0.0297540776	 1.1769241708	 0.0360418313	 0.088063
C	 1.2405130635	 1.9207692123	 0.1037864651	 0.211694
C	 1.2387949744	 3.2598944388	 0.0411160636	-0.15803
C	 2.5232864105	 4.0375773076	 0.0793651977	-0.124284
O	 3.5681776324	 3.3620412628	 0.7578855594	-0.258357
C	 3.7514927699	 2.0136763375	 0.4153465612	 0.084441
C	 3.3082834374	 1.0087732708	 1.4418331148	-0.300584
C	 2.5274976787	 1.1833055599	 0.1486855114	-0.151517
H	-0.934799788	 1.8245062417	-0.0130814208	 0.066202
H	 0.3074154997	 3.8136702839	-0.0525566409	 0.110127
H	 2.8180801874	 4.2972819841	-0.953625023	 0.115777
H	 2.3859100568	 4.9830058557	 0.6144908901	 0.128158
H	 4.6572634631	 1.830729038	-0.158506981	 0.095841
H	 3.8783978824	 0.0949510825	 1.5653806886	 0.119844
H	 2.8771750333	 1.4167489809	 2.3487716559	 0.125899
H	 2.6061860599	 0.3702292194	-0.5652933921	 0.115311
