15
gdb 54511	3.38145	1.47712	1.17261	2.3605	65.35	-0.2445	-0.0005	0.244	1011.2788	0.113816	-453.97799	-453.970438	-453.969494	-454.010156	28.76	
N	 0.0320152434	 1.0530414291	-0.6997463828	-0.544124
C	-0.0331882691	 0.0612156558	 0.221784764	 0.335351
O	 0.8233855396	-0.165887219	 1.0590503831	-0.384602
C	-1.2745760508	-0.7740046284	 0.1256819681	 0.236207
C	-1.8264106936	-1.4135556166	 1.3904645876	-0.342604
C	-1.2789098033	-2.2929973672	 0.3229220433	 0.038079
O	-2.205981202	-2.7727480608	-0.6432138446	-0.208201
C	-2.6845970965	-1.6683197572	-1.2659965849	 0.090708
N	-2.2245584345	-0.527357945	-0.9366337053	-0.334671
H	 0.8195366369	 1.6786323758	-0.6877433391	 0.262134
H	-0.7338093874	 1.199765953	-1.3366650223	 0.275918
H	-1.1903047893	-1.2940281938	 2.2596282931	 0.15653
H	-2.8979502636	-1.3726760299	 1.5524513378	 0.128319
H	-0.4101295844	-2.9242876764	 0.4482617153	 0.138579
H	-3.4370320955	-1.8593660995	-2.0210445232	 0.152377
