14
gdb 49458	3.13923	1.30467	1.1699	3.9517	63.82	-0.2584	-0.0399	0.2185	1049.8984	0.100589	-473.818512	-473.811184	-473.81024	-473.851009	26.917	
N	-0.0764841469	 0.9894506215	-0.6307905386	-0.562959
C	-0.0030186898	-0.0808035931	 0.0142174896	 0.489392
O	 1.1331891217	-0.7872619631	 0.3358585624	-0.242964
C	 0.7683378038	-1.9471827767	 1.0453807462	 0.022788
C	-0.7077897781	-1.9107632951	 1.1364946789	 0.032683
O	-1.1067209108	-0.7349366354	 0.4777754245	-0.218897
C	-0.0455585404	-3.0032171128	 0.2921805639	-0.194781
C	-0.1374355184	-3.0550207166	-1.1926739002	 0.160154
O	-0.1825529502	-4.0955181382	-1.8012154116	-0.258957
H	 0.8490528686	 1.3169289957	-0.8946586925	 0.243245
H	 1.4674306417	-2.2207168484	 1.8241636914	 0.143695
H	-1.3181361185	-2.1541479425	 1.9955726668	 0.145544
H	-0.0391393419	-3.9826186065	 0.7604861877	 0.130156
H	-0.1638907307	-2.0809928688	-1.7193868285	 0.110901
