21
gdb 77367	2.45135	1.61951	1.33292	1.5525	82.2	-0.2449	0.078	0.3229	1086.9099	0.181569	-387.054693	-387.045811	-387.044866	-387.087376	35.089	
C	 0.0203632108	 1.4804849174	 0.038020066	-0.511704
C	 0.0097481794	-0.0172751869	-0.0492447375	 0.295883
C	-0.9579129997	-0.8891374015	 0.7719221341	-0.120129
C	-1.0681569223	-2.2529112627	 0.0938172576	-0.294487
C	 0.4444533185	-2.1015864722	-0.2341199921	 0.286727
C	 1.3255336789	-3.3010411335	-0.4592209545	-0.513546
C	 0.5364566593	-1.0375200946	 0.9400134088	-0.184156
C	 0.4842726709	-0.8823005392	-1.2099541375	 0.070818
O	-0.2123619202	-0.9152326345	-2.4342008367	-0.449022
H	 1.0075141992	 1.885545937	-0.2117916196	 0.119745
H	-0.7042420436	 1.9238109489	-0.6546429349	 0.12217
H	-0.2343801968	 1.8227654213	 1.0468587985	 0.117365
H	-1.65474796	-0.4275480729	 1.4606101258	 0.083114
H	-1.2342889708	-3.0487562405	 0.826132693	 0.098967
H	-1.7641307554	-2.3934497801	-0.744845736	 0.072589
H	 1.0422859711	-3.8126924594	-1.3866031913	 0.126556
H	 2.3783504546	-3.0110577006	-0.5490268727	 0.11612
H	 1.2442052035	-4.0229702327	 0.3605812225	 0.113787
H	 1.1901068014	-0.926709479	 1.7929798669	 0.088481
H	 1.5229607972	-0.6449194647	-1.4651912697	 0.079007
H	-1.1532074057	-0.9734898495	-2.2396460107	 0.281717
