15
gdb 11890	4.77795	1.66806	1.39657	4.7658	61.6	-0.2582	0.054	0.3122	879.5151	0.120319	-399.835612	-399.828831	-399.827887	-399.866703	25.83	
O	 0.0605887982	 0.0195016223	-0.0041090921	-0.389328
C	-0.0014226834	 1.216143491	-0.0002667693	 0.461911
N	-1.103294246	 2.014845597	-0.2192319639	-0.366599
C	-0.8472589205	 3.3958193392	 0.1429305564	-0.253561
C	 0.6783366872	 3.3895783	 0.1057656301	 0.447093
C	 1.500541535	 4.2691010188	-0.785198727	-0.319781
C	 1.5541144578	 4.4197121504	 0.7286020933	-0.332243
O	 1.0775196949	 2.0315640429	 0.2246048929	-0.267178
H	-2.0103264342	 1.5887862414	-0.1255522931	 0.263235
H	-1.2727060459	 4.099962226	-0.578749939	 0.123859
H	-1.2319325159	 3.645594061	 1.142742053	 0.11508
H	 2.3557664887	 3.8125189481	-1.2698420114	 0.137581
H	 0.9934451556	 5.0325451757	-1.3659594447	 0.11953
H	 1.0837336263	 5.2851013972	 1.1842268385	 0.121434
H	 2.4446924224	 4.065474069	 1.2348223861	 0.138967
