21
gdb 119281	2.2264	1.18153	0.91002	1.6031	84.92	-0.2508	0.0278	0.2786	1398.485	0.180086	-387.044017	-387.033953	-387.033008	-387.079587	36.71	
C	 0.1984940695	 1.5384414157	 0.0794642336	-0.383562
C	 0.1133989593	 0.0102894714	 0.0491565137	-0.171205
C	 0.5911480322	-0.5802605081	-1.281184315	-0.22579
C	 0.5797772015	-2.1116256935	-1.3105890125	 0.222095
C	 1.4056982075	-2.772693306	-2.4561800205	-0.337892
C	 2.2863296901	-3.3257371345	-1.3220564992	-0.064549
O	 1.4974595451	-2.6594681145	-0.3141928949	-0.30716
C	-0.7676893579	-2.6549747219	-1.1522037788	 0.345839
C	-1.8767095492	-3.1076540746	-1.0467795721	-0.48351
H	 1.2271823596	 1.8836397698	-0.0742932456	 0.112384
H	-0.4208325714	 1.98767261	-0.7052161674	 0.111684
H	-0.1440112441	 1.9347091446	 1.0403753528	 0.112859
H	 0.7206317578	-0.4153483925	 0.8556759219	 0.117533
H	-0.9186201569	-0.3084425381	 0.2349282409	 0.108661
H	-0.0294216194	-0.2134879424	-2.1095257597	 0.10128
H	 1.6202297949	-0.2563236552	-1.4812251275	 0.093424
H	 0.8661916508	-3.5142509958	-3.044091352	 0.122329
H	 1.8875067982	-2.0546632973	-3.1218244528	 0.113655
H	 2.2643631029	-4.4150828281	-1.2003548319	 0.10857
H	 3.329083795	-2.9881902209	-1.3113042145	 0.104848
H	-2.8547245555	-3.5087134682	-0.9428269186	 0.198506
