17
gdb 125908	3.94846	1.34215	1.12486	5.2994	74.53	-0.2023	0.015	0.2174	1083.0866	0.139352	-414.17899	-414.171622	-414.170678	-414.210904	28.74	
C	 0.1239599724	 1.4816912481	 0.0809016059	-0.398383
C	-0.0350140866	-0.0334673959	-0.0376843066	 0.041325
C	 0.7338136654	-0.6148652572	-1.2874879633	-0.360995
C	 1.9339148093	-1.2228810887	-0.6271983283	 0.281857
C	 1.7563774766	-1.2334092242	 0.7286875881	 0.403615
N	 2.840181752	-1.8535898517	 1.219605032	-0.337882
N	 3.6819864875	-2.2071008542	 0.1755628118	-0.146068
N	 3.1063475351	-1.8265999199	-0.9304387333	-0.283172
N	 0.5405635369	-0.735833078	 1.1717028199	-0.418959
H	 1.183380719	 1.7589400465	 0.1099271359	 0.132351
H	-0.3359401623	 1.9832656177	-0.7763292952	 0.128434
H	-0.3603025346	 1.8629230107	 0.9870609682	 0.114739
H	-1.0977718529	-0.2841416987	-0.0935615719	 0.092908
H	 0.1228960503	-1.3608180033	-1.8084700203	 0.122647
H	 0.9612304374	 0.1782453025	-2.0070583157	 0.119499
H	 3.117667641	-2.0659260667	 2.1627975318	 0.273435
H	 0.5675723835	-0.144567857	 1.994447551	 0.234651
