15
gdb 31428	3.05811	1.40464	0.96839	3.6886	73.36	-0.2294	-0.0453	0.1841	1153.6284	0.113416	-453.978752	-453.970919	-453.969974	-454.011509	28.736	
C	-0.0334127119	 1.3956773107	-0.015418361	-0.239212
O	 0.0213491424	-0.0376361875	 0.0298972489	-0.253557
C	 0.6440591695	-0.5846360506	 1.0723476546	 0.456485
N	 1.1694815654	 0.1555560919	 1.9923012418	-0.385501
C	 1.8059645962	-0.428575621	 3.0575102243	 0.424033
N	 2.3447178094	 0.2235152496	 3.9965118223	-0.526992
O	 1.8616871697	-1.8582376368	 3.1043881214	-0.232478
C	 1.3021785367	-2.5788063659	 2.1270430947	 0.104972
C	 0.6748147227	-2.0266806113	 1.0767345556	-0.283504
H	 0.973706012	 1.8179180871	-0.0389234434	 0.150783
H	-0.5754956449	 1.6335880939	-0.9305574204	 0.134251
H	-0.5564308819	 1.7878782762	 0.8596548622	 0.150792
H	 2.7570319537	-0.4117306067	 4.6775835781	 0.224251
H	 1.4177406432	-3.6451040032	 2.2882709887	 0.147296
H	 0.2242468077	-2.6115444765	 0.2896344823	 0.128383
