22
gdb 109871	1.91625	1.68439	1.07611	2.0504	82.14	-0.1978	0.0646	0.2623	1224.4076	0.19233	-404.297078	-404.287219	-404.286275	-404.33146	37.244	
C	 1.3184168971	 1.1131909546	-0.8943988222	-0.381193
C	 0.2296752765	 0.8019312444	 0.1390405074	-0.203117
C	 0.7610982843	-0.0698406205	 1.271734213	-0.011522
N	-0.1678460019	-0.5178227457	 2.3694756984	-0.094662
C	-1.5591100525	-0.1070814322	 2.3908318779	-0.324749
C	 0.1405306008	-1.9175581322	 2.106894909	-0.064314
C	-0.1472653288	-2.3402712242	 0.6745229596	-0.37057
C	 1.0954679028	-1.5465307422	 1.0004019247	 0.359397
O	 2.3773408764	-2.0264798395	 0.8012685103	-0.46694
H	 1.6941735936	 0.1979378535	-1.3650552796	 0.107104
H	 0.9367231613	 1.759734219	-1.6899926491	 0.11539
H	 2.1720416821	 1.6190666932	-0.4306567633	 0.122405
H	-0.1553171203	 1.7408471567	 0.5566030563	 0.100347
H	-0.6176622654	 0.3143669753	-0.355904276	 0.096923
H	 1.6296599325	 0.4254529468	 1.7269615361	 0.083414
H	-2.1467870181	-0.3950621109	 1.5017888821	 0.091228
H	-2.0432580129	-0.5569344447	 3.264519779	 0.119392
H	-1.623217034	 0.9797408927	 2.5027810274	 0.118322
H	 0.2440601631	-2.6335608147	 2.9150472647	 0.098294
H	 0.0511619044	-3.3897504379	 0.477756426	 0.113125
H	-0.9756281275	-1.9209071862	 0.1108482965	 0.105837
H	 2.5213724564	-2.1200224756	-0.1462645184	 0.28589
