19
gdb 22419	3.62579	1.0783	0.95596	1.8014	79.69	-0.2312	0.0009	0.2322	1269.4326	0.158738	-419.087705	-419.078954	-419.07801	-419.121901	32.697	
C	-0.0481322804	 1.5040427281	 0.0088592029	-0.486029
C	 0.0094601601	 0.0002901462	 0.0123635643	 0.186323
N	 0.0789474856	-0.717421215	 1.0696175176	-0.171792
O	 0.0948811213	 0.072804341	 2.2282857792	-0.396298
C	-0.0132690568	-0.7458340334	-1.2743146915	 0.287146
C	 0.9746027912	-0.6771511871	-2.4730422698	-0.205753
N	-0.0432546628	-1.720266096	-2.9607789254	-0.150117
C	 0.0348789931	-2.2658208075	-1.5196243119	-0.206794
C	-1.0955046198	-0.7560199693	-2.3906600026	-0.205752
H	 0.8340232132	 1.9209977483	 0.5052183549	 0.15004
H	-0.1031777257	 1.8965097896	-1.0083293644	 0.118765
H	-0.9178172826	 1.8540721343	 0.574157124	 0.150031
H	 0.1478826716	-0.589531048	 2.9255069203	 0.307456
H	 0.9926220911	 0.2318406349	-3.080877667	 0.100061
H	 1.9800235161	-1.0803555201	-2.32459859	 0.105783
H	 0.9679778742	-2.7896173945	-1.2996985458	 0.105543
H	-0.8353301134	-2.8583193565	-1.2279321749	 0.105542
H	-2.0524267498	-1.2339952252	-2.1641249635	 0.105782
H	-1.2306973961	 0.1471330503	-2.9923996766	 0.100062
