16
gdb 88246	3.49019	0.73364	0.63435	2.4495	78.65	-0.2676	0.0006	0.2682	1693.9168	0.122098	-400.711311	-400.701821	-400.700877	-400.748005	32.575	
C	-0.5928826943	 1.3649830493	 0.4960217887	-0.425454
C	-0.0030240829	 0.0321477682	 0.1240273174	 0.097712
O	 1.3547178477	 0.0095867125	-0.3112769213	-0.239745
C	 1.0402797943	-0.6489737678	 0.9275220827	-0.166039
C	 1.575333391	-0.0811037328	 2.1358397959	 0.121833
C	 2.0270100756	 0.3613080897	 3.159361683	 0.11055
C	 2.5849883758	 0.9068767813	 4.3935860638	-0.476691
C	 1.6187189506	 1.7056937777	 5.1600456685	 0.279852
N	 0.8671539071	 2.3351473083	 5.7697112105	-0.297749
H	 0.0921247555	 1.9346396996	 1.1270265592	 0.141823
H	-0.8045928122	 1.9472499001	-0.4064156708	 0.133674
H	-1.5346449454	 1.2254312046	 1.0367766216	 0.130611
H	-0.6559387251	-0.625934661	-0.4531119213	 0.098625
H	 1.0904829592	-1.7364194477	 0.8738667117	 0.116916
H	 2.9516340643	 0.0982654458	 5.0388498454	 0.185786
H	 3.4546000688	 1.5389434823	 4.171594405	 0.188296
