11
gdb 25153	3.87318	1.2973	0.9718	3.7798	69.35	-0.2922	-0.1073	0.1849	1084.7851	0.06534	-451.558914	-451.551735	-451.550791	-451.591096	25.791	
O	-0.0719837713	-0.0337770179	 0.004091955	-0.304465
C	 0.0344286652	 1.1491105615	 0.0086901269	 0.454815
O	-1.2039099027	 1.9041383183	 0.0299478461	-0.188651
C	-1.1447295018	 3.224136299	 0.0358797919	 0.158018
N	-0.0763867868	 3.9398909516	 0.0245592576	-0.306633
C	 1.0924339639	 3.1960053804	 0.0043154374	 0.165723
N	 1.1861241415	 1.894557393	-0.0036617152	-0.344082
C	 2.2992915885	 3.9590031051	-0.0086712519	 0.286364
C	 3.3086895848	 4.6120069171	-0.0194781372	-0.307933
H	-2.1289713523	 3.6872538741	 0.0521033497	 0.167411
H	 4.205263691	 5.1832913478	-0.0291140402	 0.219433
