19
gdb 89397	2.92106	1.47685	1.13841	4.7289	76.73	-0.2416	0.0351	0.2767	1125.0515	0.159749	-419.234906	-419.226197	-419.225253	-419.268063	32.393	
C	-0.0387738057	 1.3937986641	 0.0112514402	-0.340525
N	-0.0068771217	-0.0485707296	 0.019161533	-0.083236
C	-1.1946605308	-0.8697295404	 0.0869071545	-0.244844
C	-0.6203985442	-2.2864345462	 0.0310632681	 0.32558
C	-1.2884195307	-3.3556468918	 0.8565705958	-0.477742
C	 0.2020986683	-2.6203761563	-1.1560385193	-0.291805
N	 0.8526714816	-2.1758121308	 0.1042437226	-0.190144
C	 1.1662270787	-0.7671097389	 0.0488125997	 0.411326
O	 2.2829208005	-0.3116521968	 0.0349547846	-0.384093
H	 0.9942633073	 1.7443760716	-0.0165285052	 0.16842
H	-0.5741755819	 1.7754491633	-0.8670825476	 0.121816
H	-0.5287748522	 1.788087838	 0.9110246922	 0.122558
H	-1.7409601431	-0.7114470973	 1.0291354416	 0.108032
H	-1.8894143147	-0.6525511064	-0.7362312981	 0.112348
H	-2.3073642237	-3.5415369461	 0.498737469	 0.122805
H	-0.7284628706	-4.2921250721	 0.7999469179	 0.136322
H	-1.3468377855	-3.0565848988	 1.908386464	 0.128475
H	 0.3835118356	-3.660153149	-1.4106619181	 0.126908
H	 0.2180310028	-1.9306862965	-1.9965391248	 0.127799
