19
gdb 94315	2.41256	1.54345	1.21473	2.6179	72.02	-0.2318	0.0562	0.288	1097.261	0.15657	-460.121054	-460.111714	-460.11077	-460.154961	35.269	
C	 0.0082316095	 1.5204728719	 0.1540680868	-0.444436
C	-0.0235085277	 0.0131490193	 0.1417890573	 0.281542
O	-1.2907008601	-0.5562723311	-0.1267369195	-0.468763
C	 1.1943888913	-0.7830923889	-0.3130039769	-0.431972
C	 0.7770138449	-0.7706018674	 1.1297350226	 0.404333
O	 1.5587420303	-0.1698892933	 2.1532099068	-0.314959
C	 1.1103751604	-1.1668100088	 3.1126202891	-0.092047
C	 0.2841690951	-1.8998595996	 2.0337767401	 0.000297
O	-1.0915021057	-1.9463290236	 2.3077484359	-0.443231
H	 0.9707198221	 1.8810474052	 0.5249960554	 0.141003
H	-0.1521093479	 1.9297189865	-0.8503641543	 0.108882
H	-0.776546021	 1.9050648791	 0.8124527321	 0.132424
H	-1.4540583458	-0.5129073879	-1.0753908866	 0.288883
H	 1.0284873565	-1.6968152764	-0.8761049052	 0.114598
H	 2.086194003	-0.2255266733	-0.5811259335	 0.124519
H	 1.9549367967	-1.7111481617	 3.5463211679	 0.105648
H	 0.4879534413	-0.7296571244	 3.8992842365	 0.116827
H	 0.6754799681	-2.8903472097	 1.7639157937	 0.075957
H	-1.547696251	-1.7153886058	 1.487701242	 0.300497
