17
gdb 26490	3.66433	1.29353	1.04053	1.1541	76.03	-0.2084	0.0173	0.2257	1139.6731	0.136128	-421.836872	-421.829019	-421.828075	-421.869451	30.575	
O	-0.0042944622	 1.372162679	 0.0580429662	-0.453049
C	 0.0023991462	-0.025771144	-0.0263751238	 0.288254
C	-0.539051937	-0.8163332665	 1.1480630923	-0.323593
C	-1.3625803614	-0.656724946	-0.1076375192	-0.289618
C	 1.1246807727	-0.5551057322	-0.8242601294	 0.335642
C	 2.0706099229	 0.0600103613	-1.5861893607	-0.309136
C	 2.902244167	-0.9834334295	-2.1144709366	-0.168069
C	 2.3983406056	-2.1477216858	-1.636191001	-0.027996
O	 1.3140646738	-1.9048432189	-0.8431215803	-0.192253
H	 0.7584872398	 1.6341145059	 0.5869463895	 0.284353
H	-0.0970565447	-1.7835385221	 1.3563485065	 0.128016
H	-0.8319466034	-0.2351585362	 2.0151296404	 0.117448
H	-2.2015354841	 0.0287635934	-0.0791588254	 0.128263
H	-1.4804026047	-1.5150883469	-0.758441641	 0.127307
H	 2.1491573292	 1.1200096997	-1.7635577072	 0.112524
H	 3.7564106306	-0.87356985	-2.7641330248	 0.110491
H	 2.6689498396	-3.1842025212	-1.7490399856	 0.131415
