19
gdb 78551	2.60127	1.5633	1.19623	1.7612	76.13	-0.2235	0.0692	0.2926	1100.2867	0.157373	-422.967108	-422.958548	-422.957604	-422.999793	33.612	
C	-0.1032141374	 1.4690058937	 0.0711136109	-0.4927
C	 0.0920487285	-0.0098862309	 0.0893683959	 0.378525
O	-1.0889381852	-0.8351179448	-0.0672692277	-0.362582
C	-0.6012277797	-1.7310073947	 0.9545625226	 0.463093
C	-1.5024700427	-2.2275007305	 2.0324756168	-0.348099
C	-0.9588625207	-3.177227297	 0.9686719784	-0.33578
C	 0.7145272764	-1.0144215498	 1.0682566999	-0.333414
C	 1.2687331056	-0.8218945896	-0.3404284574	 0.084735
O	 1.1861070171	-1.7792051052	-1.3441352321	-0.438268
H	 0.8490281948	 1.9796965483	 0.2415698371	 0.12673
H	-0.4910734541	 1.7928619939	-0.9014108889	 0.134985
H	-0.8122914914	 1.7833845311	 0.8434029532	 0.130658
H	-1.1105733928	-2.2954582903	 3.042200884	 0.117469
H	-2.5494867823	-1.9526672534	 1.9662239216	 0.126463
H	-1.6594379077	-3.5221635375	 0.215389127	 0.123269
H	-0.1971289782	-3.8979490224	 1.2450903136	 0.124767
H	 1.2851035537	-0.8663720871	 1.9762797755	 0.099004
H	 2.2168639514	-0.2915358761	-0.3686227171	 0.106059
H	 0.2420944546	-1.9019056477	-1.5137836332	 0.295088
