21
gdb 109592	1.99472	1.63222	1.1911	1.7251	74.78	-0.2364	0.0608	0.2973	1155.8518	0.181468	-461.338598	-461.328929	-461.327984	-461.372503	36.505	
C	-0.3345544491	 1.3218696742	-0.1382965299	-0.24798
O	 0.0779321985	-0.0267842053	 0.0356448115	-0.260628
C	 0.757606813	-0.5616465151	-1.0881911673	 0.030422
C	 1.1957212612	-2.0168441871	-0.7591207991	-0.034065
C	 1.6250402028	-2.3829393046	 0.6527841922	-0.407552
C	-0.1734162545	-2.5005091799	-1.3202752798	 0.062995
O	-1.2253455631	-2.5354621803	-0.3663627417	-0.452209
C	-0.2391347055	-1.1757583751	-2.1381497098	 0.128303
O	-1.5081542454	-0.6127386017	-2.2989441308	-0.438085
H	 0.5365168052	 1.9748659025	-0.2951297183	 0.108879
H	-1.0202839321	 1.4244479738	-0.9848070153	 0.140762
H	-0.8378427718	 1.621838677	 0.7841216946	 0.124547
H	 1.5192557842	 0.1452786165	-1.4438532523	 0.060024
H	 1.9727806339	-2.3053452295	-1.4757028225	 0.083621
H	 0.8717762852	-2.1014163208	 1.3912577149	 0.124647
H	 1.794842733	-3.4610852475	 0.7360597018	 0.119141
H	 2.5559480413	-1.8722186505	 0.9193005186	 0.117679
H	-0.2101780776	-3.4506237857	-1.8577216683	 0.079827
H	-1.0907776499	-1.7753953664	 0.2195206133	 0.292269
H	 0.2445644494	-1.2681440646	-3.1167149415	 0.081165
H	-2.0688566188	-1.06956821	-1.6541605504	 0.286239
