17
gdb 31831	4.84408	1.00691	0.83987	2.6913	81.38	-0.1899	-0.0147	0.1752	1333.9998	0.138226	-418.070517	-418.062449	-418.061505	-418.103058	30.976	
C	 0.0402802692	 1.4486970774	 0.0722407987	-0.323443
N	-0.1546525158	 0.0232024929	-0.1056326178	-0.376056
C	 0.5500263749	-0.668055183	-1.0912052171	 0.295095
C	 1.2101260868	-0.0339523811	-2.1474356732	-0.079316
N	 1.8454835636	-0.6920482931	-3.128027711	-0.360797
C	 1.8614750082	-2.0124473552	-3.095555877	 0.415431
O	 2.5112694464	-2.6653962659	-4.0915147683	-0.428655
C	 1.2459224036	-2.7601724119	-2.0845702795	-0.196614
C	 0.5876027278	-2.0748544398	-1.0840822518	-0.14826
H	 1.0954191061	 1.7366828393	 0.2076496604	 0.115016
H	-0.3485265991	 1.9989195742	-0.7917945266	 0.136664
H	-0.5233791132	 1.774227164	 0.9493301751	 0.12439
H	-0.2307973828	-0.4866903012	 0.761292395	 0.234354
H	 1.2311609848	 1.0484586063	-2.2191958818	 0.099422
H	 2.8580778239	-1.9744768918	-4.6719227344	 0.292839
H	 1.2922735698	-3.8420286247	-2.1024820228	 0.106949
H	 0.0907587956	-2.6204970564	-0.286480938	 0.092981
