18
gdb 108646	2.21798	1.57457	0.93689	2.2817	78.68	-0.2354	-0.0161	0.2193	1221.4658	0.147117	-439.113488	-439.104199	-439.103255	-439.148383	33.193	
C	 0.1837074292	 1.5260592438	 0.0463544045	-0.504609
C	 0.0055620291	 0.0431122071	 0.0380602665	 0.166507
C	-1.091982169	-0.7258269213	-0.0178375963	 0.126505
C	-2.5526220102	-0.4176749236	-0.0929963038	-0.182764
O	-2.7830494911	 0.9813548539	-0.1056716335	-0.418473
C	-0.6783310831	-2.138989204	 0.0042306391	 0.36687
N	-1.4544902923	-3.1408001124	-0.0350205291	-0.560663
O	 0.6888983778	-2.1982713385	 0.0744546901	-0.250118
C	 1.2054581902	-0.8682059193	 0.1001949163	-0.169687
H	 0.8039265696	 1.8431582117	-0.8019831439	 0.127503
H	-0.7734453004	 2.0396903279	-0.0030799389	 0.170353
H	 0.7138071756	 1.8441507689	 0.9533879328	 0.127503
H	-2.9595172297	-0.9050595763	-0.9929983962	 0.120474
H	-3.0495566912	-0.9040014573	 0.7612008936	 0.120473
H	-3.7324983247	 1.1216792669	-0.1543046336	 0.292927
H	-0.9238072519	-4.0120901484	-0.0072583253	 0.220706
H	 1.8834241442	-0.7276601331	-0.7531707299	 0.123247
H	 1.7924739379	-0.7266217961	 1.0183399076	 0.123246
