20
gdb 107834	3.28002	1.41846	1.24321	2.1281	77.51	-0.2334	0.0697	0.3031	1068.32	0.172848	-403.106977	-403.099221	-403.098277	-403.139063	31.003	
O	-0.0780828731	 1.4221634895	 0.118585633	-0.42433
C	-0.0150990503	 0.0077196899	-0.0130314561	-0.188458
C	-1.4258424005	-0.5262842627	-0.0171422351	 0.343564
C	-2.232583918	-0.4258730076	 1.3226886318	-0.283847
C	-2.6354033984	-1.8937398059	 1.1378160455	-0.041789
C	-1.6448711493	-2.0726340321	 0.0338355799	-0.123287
N	-3.0677475449	-2.1980827222	-0.2365553345	-0.099186
C	-3.529112653	-1.0446382981	-1.0456829714	-0.171852
C	-2.3237381643	-0.0791844436	-1.1768819449	-0.254515
H	 0.8207456701	 1.7636349621	 0.1363479078	 0.288428
H	 0.4893156674	-0.2824489306	-0.95045614	 0.083952
H	 0.5517354414	-0.4433628552	 0.817794819	 0.084694
H	-1.5683041372	-0.305780315	 2.1824267319	 0.103297
H	-3.0239872553	 0.3285140399	 1.3783086224	 0.09546
H	-2.9479135231	-2.5815315338	 1.91634414	 0.088085
H	-0.9505816766	-2.8691569079	-0.2098731333	 0.082687
H	-3.8654371645	-1.4187980227	-2.0166751219	 0.106186
H	-4.3908262799	-0.576817895	-0.5592789221	 0.106239
H	-2.6055452972	 0.9737863199	-1.097694771	 0.113433
H	-1.8096240033	-0.2187476688	-2.135642661	 0.091238
