15
gdb 84480	4.12351	1.2076	1.04088	1.0807	67.05	-0.2666	-0.0513	0.2153	1104.7503	0.111573	-457.747737	-457.740021	-457.739077	-457.78012	29.012	
O	-0.0300332456	 1.4575312992	-0.0660926505	-0.427337
C	 0.0549743735	 0.0452298983	-0.0386643929	 0.07763
C	 0.7527674394	-0.4942195848	 1.203644671	-0.12907
C	-0.0173316749	-1.3270372974	 1.9034061883	-0.13703
C	-1.3565667635	-1.460529453	 1.2502596121	 0.286772
O	-2.0865696364	-0.1989715444	 1.1494807752	-0.29228
C	-1.3274488277	-0.6258710469	 0.027186017	-0.067255
C	-2.2215223006	-2.661356558	 1.3772837396	 0.081771
O	-1.8618179822	-3.6873936673	 1.8970590469	-0.249282
H	-0.5921613222	 1.7066183076	 0.6791198254	 0.292423
H	 0.5797976259	-0.2402288572	-0.9570732569	 0.105293
H	 1.7435248376	-0.1531578279	 1.4800494252	 0.120604
H	 0.2311330832	-1.8375323128	 2.824171263	 0.130307
H	-1.8939515338	-0.8474184047	-0.8732265453	 0.115405
H	-3.2385291128	-2.5272800609	 0.9509027418	 0.09205
