17
gdb 45825	2.33703	2.0628	1.23589	1.0306	73.37	-0.2494	-0.0245	0.2249	992.1147	0.139403	-418.048297	-418.041099	-418.040155	-418.080394	27.862	
O	-0.1280645735	 0.0237850998	 0.4287534722	-0.356442
C	-0.0557946444	 1.2106297915	 0.1985819651	 0.415452
N	-1.195855742	 1.9878844189	 0.0593884071	-0.340772
C	-1.2055677341	 3.3680100128	-0.1558032469	 0.087773
N	-0.1964954204	 4.1344580269	-0.1881276706	-0.24202
C	 1.09252721	 3.5217723378	 0.0451607242	 0.027306
C	 1.6069558565	 3.501530833	 1.5165932807	-0.226892
C	 2.1200507415	 2.051456078	 1.2873396909	-0.224627
C	 1.2430605828	 1.9648157256	 0.0047536128	-0.173318
H	-2.0723076297	 1.4890503268	 0.1195202142	 0.25845
H	-2.206180148	 3.7758322463	-0.2964863716	 0.124329
H	 1.8253513054	 3.9999668925	-0.6105983569	 0.090394
H	 2.3362284992	 4.2632286687	 1.7977495744	 0.107793
H	 0.7726183771	 3.5373680977	 2.2223795995	 0.112574
H	 3.1844545979	 2.0145186553	 1.045716859	 0.111291
H	 1.9136386524	 1.3134591599	 2.064133766	 0.122743
H	 1.7282600595	 1.5334844186	-0.8753602299	 0.105964
