23
gdb 76486	2.87826	1.08352	0.97571	1.5101	86.8	-0.2157	0.078	0.2937	1381.9924	0.20359	-388.272952	-388.262799	-388.261855	-388.308019	37.839	
C	 0.3016980041	 0.7054737412	-2.3993384299	-0.411026
C	 0.1979572348	-0.3456737311	-1.3152480707	-0.102027
C	 1.3220203008	-0.6365191192	-0.3130960036	-0.10218
C	 2.6470383245	 0.0947292836	-0.316524489	-0.411285
C	 0.0495698432	 0.0205125028	 0.1271617875	 0.439815
C	-0.1658789395	 1.3769446818	 0.7881318049	-0.383996
C	-1.0998959224	 0.5896246959	 1.7386455138	 0.159755
C	-2.5615230977	 0.9827717449	 1.795774844	-0.397038
O	-0.8865242218	-0.6358800872	 0.9871109748	-0.325964
H	 0.8147532507	 1.6068103925	-2.0513027931	 0.115523
H	 0.851366869	 0.329956409	-3.2696566287	 0.11811
H	-0.6937127225	 1.0091291952	-2.7425726805	 0.117816
H	-0.3690429729	-1.2290738149	-1.6006722082	 0.091456
H	 1.389762969	-1.6847079265	-0.0304119724	 0.091281
H	 2.5301148981	 1.159232797	-0.5399001782	 0.115034
H	 3.1363864868	 0.0184549171	 0.6610425508	 0.117705
H	 3.3319535131	-0.3233553474	-1.0627478754	 0.117919
H	 0.7108173674	 1.8356554935	 1.2497682748	 0.108322
H	-0.6772807299	 2.1188176189	 0.1687276345	 0.106277
H	-0.6928122415	 0.4834996848	 2.7532247652	 0.074993
H	-2.9682190905	 1.1104361062	 0.7877696497	 0.119563
H	-3.145090612	 0.210187581	 2.3062359506	 0.126475
H	-2.6839612506	 1.9230864209	 2.344941319	 0.113471
