19
gdb 95096	2.41573	1.55254	1.16377	1.0799	81.5	-0.2271	0.0477	0.2747	1117.5777	0.15864	-385.84918	-385.840633	-385.839688	-385.881951	33.42	
C	 0.0074782723	 1.5722486097	-0.0200976733	-0.408329
C	 0.0371258934	 0.0461648596	 0.0356771418	-0.069437
C	 0.7939765585	-0.6052355877	-1.1450613346	-0.113288
O	 1.326557565	-1.8429494203	-0.6749062643	-0.255873
C	 1.5409459764	-1.7238610689	 0.7008051002	 0.070808
C	 2.2799057901	-0.5301638627	 1.2278981539	-0.371696
C	 0.7447955468	-0.5562688485	 1.2580290798	 0.133587
C	 0.0531658743	-0.6002983905	 2.5075106351	 0.183891
C	-0.5413653116	-0.6234218559	 3.5540290943	-0.39029
H	 1.0209007266	 1.9876285618	-0.009330393	 0.116495
H	-0.4907484494	 1.9237598005	-0.9298870691	 0.116801
H	-0.5336357715	 1.981003719	 0.8380484152	 0.13216
H	-0.9913787788	-0.3323280748	 0.0535371647	 0.090428
H	 0.1510860312	-0.8226800605	-2.0019234323	 0.116022
H	 1.6040092407	 0.0539237811	-1.4910938746	 0.096647
H	 1.6018622324	-2.6846462986	 1.1967250163	 0.1178
H	 2.7748018521	-0.6381327503	 2.185883416	 0.12949
H	 2.7752188987	 0.1409196105	 0.5348574613	 0.120647
H	-1.0628336673	-0.6504500633	 4.4782706627	 0.184136
