17
gdb 133102	2.79081	1.44368	1.02515	2.9081	77.73	-0.2498	-0.0258	0.224	1154.613	0.137069	-426.050028	-426.042166	-426.041221	-426.082763	29.617	
C	-0.0181504662	 1.5735634652	-0.0739407492	-0.375399
C	-0.0416536572	 0.0378168583	 0.0219213657	-0.298669
C	 0.6737609557	-0.4905428965	 1.2399172501	 0.131825
C	 0.0197213049	-1.0188623026	 2.3478718164	-0.155877
C	 0.7500081361	-1.4780578056	 3.4445329549	-0.121555
C	 2.1331992789	-1.3942641316	 3.393805296	-0.006761
N	 2.7944306216	-0.8927675914	 2.3408219153	-0.313692
C	 2.0715838456	-0.4709370782	 1.3343444605	 0.291326
F	 2.7519267411	 0.024911251	 0.2944535419	-0.077199
H	 1.0097863057	 1.9410504024	-0.1290399361	 0.13623
H	-0.5492826588	 1.911729986	-0.9687285041	 0.117054
H	-0.4963068317	 2.0292531908	 0.7987387218	 0.119047
H	-1.0782389163	-0.3154293287	 0.040947337	 0.103147
H	 0.4199594007	-0.3823260228	-0.8785923002	 0.121343
H	-1.0650441961	-1.0731236937	 2.348636294	 0.108406
H	 0.254582137	-1.8932126196	 4.3142614833	 0.103814
H	 2.7469779488	-1.7400933533	 4.2207371128	 0.116961
