16
gdb 12463	3.67749	1.95079	1.33766	5.2983	72.25	-0.2001	-0.0052	0.1949	893.8365	0.133623	-379.933621	-379.926543	-379.925599	-379.964942	26.943	
N	-0.0118750296	 1.0330519897	 1.0120317545	-0.525262
C	 0.0386198824	 0.14980987	 0.0921357874	 0.329034
O	 1.2632192931	-0.3623143768	-0.274953409	-0.259394
C	 1.446882325	-0.957935539	-1.5493009746	-0.082577
C	 0.7848855414	-2.3282477588	-1.6794875501	-0.16949
N	-0.62027101	-2.2099455512	-2.0059313731	-0.303357
C	-1.4617117714	-1.3421199882	-1.3680950668	-0.011776
C	-1.1977795502	-0.3283564076	-0.5141988517	-0.135477
H	 0.9367818946	 1.2579503473	 1.316585905	 0.210791
H	 1.0986568817	-0.2936960723	-2.3501839887	 0.122525
H	 2.5294219165	-1.0753564105	-1.645891201	 0.120892
H	 1.2722439148	-2.8876931891	-2.4850158648	 0.112101
H	 0.9523524056	-2.8760949705	-0.7387519765	 0.119606
H	-1.0518037086	-3.0140354305	-2.4292220554	 0.24874
H	-2.5015157117	-1.4968083813	-1.6429012863	 0.114317
H	-2.0545662037	 0.2325306289	-0.163995159	 0.109329
