14
gdb 127622	3.55921	1.71385	1.16546	0.8757	69.63	-0.2336	-0.0205	0.2131	973.4107	0.104221	-432.881741	-432.874832	-432.873888	-432.913945	25.141	
C	-0.0045064995	 1.4211230003	-0.0229545032	-0.336158
N	-0.0148249145	-0.0239158396	 0.0344986588	-0.097583
N	 0.0541511941	-0.7622278414	-1.1067980451	-0.259885
C	 0.0948489316	-2.0550307216	-0.7548975647	-0.150734
C	 0.0589441867	-2.1330755415	 0.6431110802	 0.22675
C	-0.0054143841	-0.8435797446	 1.11004116	 0.386245
N	-0.0540769368	-0.811211767	 2.4876576992	-0.360272
C	-0.017484439	-2.0773557807	 2.782275978	 0.052935
O	 0.0505983098	-2.9599390049	 1.736093972	-0.205828
H	 1.0144334167	 1.8069947967	-0.1316116117	 0.145666
H	-0.6013306529	 1.7434010704	-0.8772894197	 0.157106
H	-0.4385901327	 1.8116502207	 0.899265998	 0.15626
H	 0.1406394283	-2.8181040049	-1.5147575561	 0.129224
H	-0.0339534076	-2.519275282	 3.7666091244	 0.156275
