20
gdb 38160	2.41126	2.14536	1.43489	1.7889	83.71	-0.236	0.0135	0.2496	963.1669	0.174289	-365.960245	-365.953325	-365.952381	-365.991003	29.696	
C	-0.0111070316	 1.5454154403	-0.0672964183	-0.257731
C	 1.523137346	 1.3355865689	 0.0411495861	 0.000559
C	 1.2145733205	 0.0320463093	 0.8694101303	-0.312757
C	-0.0685890173	 0.0278877621	 0.027778896	 0.343592
N	-1.2289015959	-0.7784191268	-0.3221600361	-0.452894
C	-0.019273956	-0.8081204754	-1.1890300889	-0.076649
C	 0.2029431305	-0.11994295	-2.4844669689	-0.109564
C	 1.2410572372	 0.7242873401	-2.5375707619	-0.036551
C	 2.149620661	 1.1279282994	-1.3745515412	-0.262151
H	-0.4228886093	 2.0115723423	 0.833439609	 0.090993
H	-0.4115070472	 2.032340058	-0.9560830506	 0.104392
H	 2.0962585391	 2.0942319352	 0.5788557995	 0.066376
H	 1.8897003683	-0.8235955583	 0.7769374723	 0.091636
H	 1.0698840522	 0.2793256773	 1.9265507459	 0.0949
H	-1.2817053231	-1.6495388401	 0.2013352278	 0.229204
H	 0.5808589616	-1.7147081049	-1.0807758768	 0.090091
H	-0.3859342702	-0.3471749947	-3.3690880964	 0.090752
H	 1.4966637178	 1.1802535515	-3.4921632139	 0.087377
H	 2.6183166005	 2.0776506063	-1.6567970609	 0.106703
H	 2.9827499058	 0.4125238796	-1.301691923	 0.11172
