17
gdb 46252	3.18163	1.47857	1.22388	1.5241	72.51	-0.243	0.0133	0.2563	1031.5869	0.137354	-417.950238	-417.942891	-417.941947	-417.982227	28.408	
N	-0.0300794505	 1.2104612027	-0.3339486982	-0.551754
C	 0.0015924909	-0.0073401697	-0.0375788966	 0.390096
O	 1.0277044073	-0.7997278136	 0.4353158259	-0.260681
C	 0.1507965636	-1.9700354933	 0.4913618235	-0.152241
C	-1.0210176821	-1.1233769826	-0.0394369352	 0.197027
C	-2.3857682367	-1.0630369728	 0.69152313	-0.242484
N	-3.1360034174	-1.5413447839	-0.5232563574	-0.127975
C	-2.8686979856	-0.5297897758	-1.563189888	-0.239949
C	-1.8173183555	-1.5244529247	-1.2757705046	-0.108859
H	 0.877218409	 1.6586266339	-0.195784248	 0.230733
H	 0.5141428922	-2.762280919	-0.1687294882	 0.125392
H	 0.0551210026	-2.3393552998	 1.5160007794	 0.123512
H	-2.467865439	-1.7949152697	 1.4984973588	 0.117925
H	-2.7009233767	-0.0792300651	 1.0516710173	 0.126607
H	-3.4625313322	-0.6819752573	-2.4588204009	 0.125627
H	-2.7148005554	 0.5077658012	-1.2777809872	 0.145551
H	-1.5337683944	-2.3125207406	-1.9666535307	 0.101472
