16
gdb 47070	3.3135	1.55317	1.10999	1.7462	73.81	-0.2509	-0.039	0.2119	1044.5836	0.126626	-437.892591	-437.885577	-437.884633	-437.924209	26.959	
N	-0.0794552848	 1.2954773243	-0.0981995499	-0.544902
C	-0.0528835122	 0.0332432089	-0.0647254605	 0.344302
O	 1.0875511188	-0.7305034067	 0.0976917191	-0.261326
C	 0.7597709981	-2.1371105763	 0.2442718717	-0.120304
C	-0.6005547351	-2.2689824342	-0.4603070885	 0.051928
O	-1.5408483786	-3.1887901477	 0.0590314101	-0.281463
C	-2.7860955405	-2.4931985023	 0.2397560724	-0.115754
C	-2.4241749868	-1.0237402096	 0.2437645033	-0.246936
C	-1.167172567	-0.9107974252	-0.1683639124	 0.230994
H	 0.8592300686	 1.6757212232	 0.0370647418	 0.227263
H	 1.575615225	-2.7061709288	-0.203605305	 0.123716
H	 0.6636931266	-2.3916830956	 1.3059850496	 0.122684
H	-0.4461834263	-2.4422975384	-1.5382101849	 0.094019
H	-3.4927420696	-2.7554103152	-0.5650323234	 0.115715
H	-3.234708547	-2.8129595344	 1.1884864716	 0.125321
H	-3.0744640192	-0.239299512	 0.606870095	 0.134742
