23
gdb 38375	2.00065	1.99954	1.24868	1.4428	83.83	-0.2385	0.0722	0.3107	1110.2763	0.209301	-388.289528	-388.281506	-388.280562	-388.321708	32.577	
C	-0.1198452605	 1.6118757522	-0.0614169668	-0.306423
C	 1.4218926935	 1.6114234762	-0.0409631534	 0.150675
C	 2.1117633446	 2.2074524722	 1.1878028246	-0.228696
C	 2.1215011127	 1.3384519761	 2.4586282112	-0.172198
C	 0.7887266737	 0.7853635896	 3.0136320848	-0.197062
C	 0.3446738329	-0.590241906	 2.4652246024	-0.172198
C	-0.5265452967	-0.6563388641	 1.1976042814	-0.228696
C	 0.0068371479	 0.0754303178	-0.035706829	 0.150675
O	 1.4559555073	 0.1600621505	-0.0861926671	-0.30385
H	-0.6065813013	 2.0632520924	 0.8046541245	 0.104047
H	-0.5658178249	 2.0196250532	-0.9702372044	 0.101908
H	 1.8685560661	 2.028151633	-0.9526772781	 0.071009
H	 3.1565890569	 2.4337638635	 0.9419283236	 0.097728
H	 1.6350059149	 3.1763862204	 1.3926609183	 0.095126
H	 2.7952090794	 0.4908159701	 2.291382369	 0.108595
H	 2.5916064204	 1.945886008	 3.241577436	 0.086857
H	 0.9308124214	 0.6581596125	 4.0933993755	 0.094707
H	-0.0156048421	 1.5260341679	 2.9178258476	 0.088482
H	 1.2440248119	-1.1929467566	 2.2971319475	 0.108595
H	-0.2195725372	-1.1055757847	 3.2520163232	 0.086857
H	-0.6674412925	-1.7170802145	 0.9561339253	 0.097728
H	-1.5305360509	-0.2596970908	 1.4044257119	 0.095126
H	-0.3750491378	-0.4072050187	-0.9443426679	 0.071009
