21
gdb 86617	2.40661	1.36384	1.27207	2.3165	77.42	-0.2498	0.0704	0.3202	1142.3665	0.182186	-424.191931	-424.182829	-424.181885	-424.226044	34.541	
C	 0.8233197552	 1.3721367975	-0.2484562846	-0.421933
C	 0.0941610957	 0.0544073351	-0.0079652002	-0.003885
C	 0.5806770244	-1.1405315346	-0.882886155	-0.267897
C	 1.1545241791	-1.8575050902	 0.3739519903	-0.078551
C	 2.6496887213	-1.9633205927	 0.5165188513	 0.077545
C	 3.5915729329	-2.0455403051	-0.6048711819	-0.189329
O	 3.4288702616	-0.819262785	 0.1165490494	-0.24814
C	 0.5182263117	-0.736327212	 1.2757794101	 0.124728
O	 1.3380247261	-0.1058992389	 2.227087214	-0.429201
H	 1.9071891743	 1.223553048	-0.2922448116	 0.131422
H	 0.5145285057	 1.8087098597	-1.2042397209	 0.110716
H	 0.6045226956	 2.0965214222	 0.5422265177	 0.121465
H	-0.9861745221	 0.2227914909	-0.0551485087	 0.066527
H	-0.2180286903	-1.7015399931	-1.3725788228	 0.098629
H	 1.3174344907	-0.8621245051	-1.6406558483	 0.104391
H	 0.7332835157	-2.8516780524	 0.5577945346	 0.074431
H	 2.9770400169	-2.3842640643	 1.4679297961	 0.105328
H	 4.5526975981	-2.5378637721	-0.4657997082	 0.1198
H	 3.218891598	-2.0366716182	-1.6271791963	 0.119542
H	-0.344738367	-1.1042563439	 1.8370777687	 0.084498
H	 2.1268389464	 0.2187254643	 1.7775369364	 0.299912
