23
gdb 92461	2.45757	1.61087	1.58957	0.1132	87.99	-0.2352	0.0283	0.2635	1045.4163	0.210091	-351.185957	-351.178233	-351.177289	-351.217665	32.451	
C	-0.2016074667	 1.552637631	 0.0083541968	-0.419254
C	 0.0220328043	 0.0365372497	 0.0001760477	 0.068529
C	 0.7796877	-0.4537686802	-1.2695235421	-0.218881
C	 1.9528652272	-1.3847662084	-0.8615464513	-0.045522
C	 2.9614242322	-0.5277233506	-0.0489727705	-0.195512
C	 2.256479238	 0.01465582	 1.2248027199	-0.203769
C	 0.7871782192	-0.4915409076	 1.2542713661	-0.04933
C	 0.8223726343	-1.9988959865	 1.154110747	-0.083767
C	 1.418865509	-2.4620065607	 0.053607947	-0.070746
H	 0.7417289183	 2.1067617859	-0.0442902782	 0.114527
H	-0.8047867754	 1.8580842554	-0.8535125275	 0.111829
H	-0.7289961572	 1.8739201094	 0.9136178305	 0.107248
H	-0.9650928392	-0.4384318049	 0.0202810291	 0.067936
H	 0.1001499985	-0.9793359436	-1.9468747852	 0.092756
H	 1.1834997668	 0.4011659317	-1.8258880442	 0.085514
H	 2.4359687266	-1.7994233484	-1.7501914522	 0.053825
H	 3.8325115191	-1.1337814054	 0.2158582984	 0.093182
H	 3.3228217787	 0.2950272315	-0.6764973281	 0.087861
H	 2.7693840918	-0.3276645854	 2.1279731326	 0.095053
H	 2.2786142191	 1.1085125866	 1.2498632897	 0.093229
H	 0.2873046071	-0.1516919653	 2.1660621048	 0.051048
H	 0.3893444653	-2.6293139806	 1.9237635906	 0.081811
H	 1.5331510328	-3.5153767635	-0.179779991	 0.082431
