18
gdb 86992	3.40608	0.91664	0.77458	3.9332	72.45	-0.265	0.0078	0.2728	1438.0761	0.146296	-439.065666	-439.056499	-439.055555	-439.100864	33.084	
O	 0.4978869022	-0.2077314325	-0.8159395154	-0.428064
C	-0.0872516525	-0.6199848282	 0.3883790429	 0.173178
C	-0.1388683187	 0.3473686468	 1.6056543996	-0.28381
C	-1.530883556	-0.227679808	 1.9486688497	 0.117306
C	-1.6301787027	-0.7779683015	 0.4954498265	-0.300605
O	-1.3716384762	-1.2315379298	 2.9487965428	-0.24173
C	-2.5624846417	-1.7219965863	 3.5000163615	-0.200001
C	-3.3061748048	-2.652485246	 2.6235238224	 0.261517
N	-3.8929648455	-3.3843674047	 1.9489995583	-0.308109
H	 0.0571296309	 0.5980980474	-1.106209098	 0.276827
H	 0.4163228089	-1.5512994561	 0.6586180467	 0.109357
H	 0.6272832167	 0.2611640507	 2.3783423809	 0.116956
H	-0.2135223193	 1.3903382533	 1.2810858622	 0.098273
H	-2.3060297385	 0.4810034369	 2.2664931807	 0.072952
H	-2.1435535432	-0.0565003426	-0.1504092495	 0.096081
H	-2.0686749936	-1.764458111	 0.3447306523	 0.138338
H	-2.2911678265	-2.2623860366	 4.4125542593	 0.161649
H	-3.2452306697	-0.9060386217	 3.784250697	 0.139886
