18
gdb 65402	3.39578	0.96941	0.92564	3.0361	74.72	-0.2422	-0.0211	0.2212	1316.8615	0.146064	-439.044843	-439.035824	-439.03488	-439.079048	33.249	
O	-0.0964596787	 1.2945588033	 0.5159177888	-0.459824
C	 0.0184556463	-0.0661868426	 0.1856148878	 0.350533
C	 1.0827528037	-0.4684435266	-0.777692847	-0.373394
C	 1.2584166771	-0.784972537	 0.7104866317	-0.14046
C	 2.2809383694	-0.0335928821	 1.4773772884	 0.171818
O	 2.911805789	-0.5007247046	 2.3935564199	-0.269349
C	-1.2809738195	-0.8216476279	 0.2368712547	-0.022179
C	-2.2872919066	-0.5004240059	 1.2754961645	-0.24179
N	-2.5368271286	-0.1584487078	-0.1398737297	-0.329533
H	-0.1401363861	 1.8010544163	-0.3016050926	 0.296085
H	 0.9056303881	-1.300258142	-1.4499364812	 0.137385
H	 1.7175143244	 0.3169512331	-1.1779558344	 0.125082
H	 1.1309477736	-1.8140010008	 1.0283061418	 0.114227
H	 2.4357119211	 1.013772385	 1.1409740114	 0.074885
H	-1.2026653217	-1.8483608779	-0.1146209629	 0.093908
H	-2.9206378219	-1.2853252143	 1.6776858718	 0.121273
H	-2.0544547094	 0.3083607922	 1.9613019472	 0.129842
H	-2.3577553604	 0.8372930597	-0.2554680902	 0.22149
