18
gdb 50466	3.59578	1.05226	0.90771	3.0763	73.02	-0.2183	-0.0345	0.1837	1270.4886	0.147866	-439.112037	-439.103561	-439.102617	-439.145691	31.275	
O	 0.0249925887	-0.0827859799	 0.1003158754	-0.244876
C	 0.0353448536	 1.1042907934	-0.0992430946	 0.155171
C	 1.2952733118	 1.9467349989	-0.1195020689	-0.057695
C	 1.3002198291	 2.819121118	 1.1664017099	-0.22213
C	 2.6120223217	 3.6166689469	 1.2736035047	-0.312795
C	 3.8311250646	 2.7210799974	 1.0922926877	 0.388777
O	 4.7932334941	 2.76408952	 1.8218150617	-0.300937
C	 3.7438501102	 1.7801143065	-0.1106666243	-0.262933
N	 2.4605460319	 1.0969636486	-0.2623147526	-0.289587
H	-0.9078295364	 1.6793624342	-0.2317627869	 0.086669
H	 1.2328188352	 2.623093096	-0.9877745637	 0.093886
H	 0.4396931027	 3.4985004354	 1.1815477965	 0.108696
H	 1.203357492	 2.1569131451	 2.0359831426	 0.120276
H	 2.6419242464	 4.3707447287	 0.4734905886	 0.121952
H	 2.6956618844	 4.1412547415	 2.2284143454	 0.126249
H	 3.9293549521	 2.3861869808	-1.0124009647	 0.119589
H	 4.5486671588	 1.0449809696	-0.0445430737	 0.132606
H	 2.3764240393	 0.2974393789	 0.3554653771	 0.237081
