19
gdb 69310	2.94951	1.33933	1.27519	2.4291	76.45	-0.2336	0.0087	0.2423	1090.7699	0.157298	-423.014604	-423.005721	-423.004777	-423.047285	35.116	
C	-0.1329793701	 1.5774562293	 0.0281064711	-0.427291
C	 0.0189833548	 0.0523673045	-0.0057644124	 0.337905
O	-1.2784601419	-0.5587994585	 0.045687137	-0.470122
C	 0.8182817044	-0.4428051445	-1.2058811773	-0.134462
C	 1.8052713419	-1.2666969805	-0.8531277388	-0.163129
C	 1.8895470164	-1.4168571396	 0.6338619565	 0.370148
O	 2.1562876506	-2.6660783614	 1.1911036002	-0.469901
C	 2.2421536498	-0.1474633492	 1.3844988239	-0.359995
C	 0.7935773528	-0.5349366507	 1.1757464422	-0.099991
H	 0.8361094695	 2.0823242046	 0.0678817639	 0.118094
H	-0.6536654691	 1.9291301361	-0.8710828124	 0.101129
H	-0.7224224668	 1.8739695298	 0.9001525609	 0.125326
H	-1.7564249788	-0.3047324791	-0.7511751558	 0.272943
H	 0.5922066427	-0.1169276399	-2.2165149348	 0.089853
H	 2.4985999687	-1.7607681564	-1.5255319343	 0.097182
H	 3.1118692865	-2.7710796014	 1.2475922536	 0.283218
H	 2.6164031636	-0.2748984743	 2.3959398441	 0.1119
H	 2.670877426	 0.6851160006	 0.8361689742	 0.110381
H	 0.215196789	-0.8478434496	 2.0356455783	 0.106812
