16
gdb 48319	2.73454	1.51406	1.1449	3.1323	74.73	-0.2662	-0.0496	0.2166	1062.4642	0.123854	-400.738374	-400.73034	-400.729396	-400.771048	29.789	
O	-0.4805184869	 0.4825889936	-0.7171045228	-0.261368
C	 0.1105644767	 1.0377195016	 0.1747672206	 0.095483
C	 1.3105831404	 1.9236230717	 0.0016930526	 0.056466
C	 1.8051224474	 2.4485355532	 1.2517944046	 0.228356
N	 2.1808304518	 2.8553112058	 2.2674679274	-0.330735
C	 2.4316832924	 1.6988523718	-1.0398920048	-0.081124
C	 1.8917110847	 1.0945235529	-2.342036791	-0.244279
C	 0.9530073285	 2.3368046489	-2.4923521281	-0.244276
C	 1.5297484334	 2.8922125623	-1.1841888839	-0.081132
H	-0.206990461	 0.9265001735	 1.2330538439	 0.10781
H	 3.4468892389	 1.6409836065	-0.6668423223	 0.123546
H	 2.6692147944	 1.068479131	-3.1083451813	 0.117337
H	 1.4133276633	 0.1186048382	-2.2745427972	 0.136517
H	 1.234077596	 2.9677467908	-3.3381266422	 0.117368
H	-0.118769795	 2.1461334732	-2.5199412043	 0.136474
H	 1.7154106051	 3.9318768751	-0.9438070513	 0.123555
