14
gdb 14589	8.14282	0.6128	0.60262	1.8116	68.69	-0.2568	-0.0366	0.2203	1738.341	0.102892	-382.527084	-382.517906	-382.516962	-382.564564	29.274	
O	-0.6245597866	 0.488764971	 0.5466062213	-0.226428
C	-0.1146854348	 1.5072958825	 0.1694431766	 0.170998
C	 1.3391649669	 1.5994081276	-0.3050681263	-0.413907
C	 1.5014283694	 2.5206224952	-1.4198096007	 0.052191
C	 1.5729903363	 3.27599735	-2.3548673883	 0.058789
C	 1.7008504047	 4.2293688412	-3.4469570638	-0.413438
C	 2.340031749	 5.5472898443	-2.9995661049	 0.170696
O	 1.9981202261	 6.6227272626	-3.407390779	-0.226166
H	-0.663355712	 2.4735986966	 0.1520997324	 0.097168
H	 1.9292001386	 1.9446044704	 0.5579629475	 0.159004
H	 1.6865440309	 0.5887310506	-0.5427776112	 0.158058
H	 2.3494657977	 3.8148502726	-4.2340871489	 0.159596
H	 0.738555822	 4.4574584914	-3.9165431098	 0.158613
H	 3.167970462	 5.4276748239	-2.2675460348	 0.094825
