17
gdb 50410	2.20264	1.71817	1.09815	3.1642	75.01	-0.2506	-0.0255	0.2251	1094.1259	0.135064	-421.823053	-421.814955	-421.814011	-421.856903	29.892	
O	 0.2085786253	-0.1580944026	 0.1897617104	-0.256803
C	 0.1065723789	 1.0376059001	 0.099311767	 0.155182
C	 1.2627743547	 2.009565997	 0.0185064082	-0.155108
C	 1.0620986898	 3.022242118	-1.1468973257	-0.310011
C	 0.9359966315	 4.3627199883	-0.4648786269	-0.071784
C	 1.0718672349	 4.2836662506	 0.8573800565	-0.137935
C	 1.3236943843	 2.8873034111	 1.2939440059	 0.389947
C	 1.0662447308	 2.3756030599	 2.6513306133	-0.249332
O	 2.397099828	 2.6514046419	 2.2129770841	-0.270947
H	-0.8953166794	 1.5300526624	 0.0778242016	 0.076317
H	 2.1875972839	 1.4365439706	-0.067131703	 0.115653
H	 1.9004468981	 2.999315251	-1.8522150296	 0.128843
H	 0.1654791357	 2.7872856384	-1.7365965535	 0.116818
H	 0.7577896158	 5.2755657019	-1.0219182561	 0.109414
H	 1.0392686947	 5.106012089	 1.5615504812	 0.11049
H	 0.6739855645	 3.0452111976	 3.4162824593	 0.115615
H	 0.8303213887	 1.3212099749	 2.7912645072	 0.133642
