17
gdb 52518	2.28814	1.03441	0.77031	1.8804	81.08	-0.2539	-0.0682	0.1856	1501.0354	0.130975	-421.829584	-421.818675	-421.817731	-421.870199	35.366	
C	-0.1624939336	 1.3634389244	-0.624263698	-0.505934
C	-0.0388630324	 0.0267093113	-0.0721456933	 0.155121
C	 0.0569480724	-1.084262228	 0.3904188021	 0.018062
C	 0.1994171414	-2.4176755063	 0.9216075348	 0.166938
O	-0.6304997736	-2.9345541438	 1.6386022763	-0.288636
C	 1.482496045	-3.1572524819	 0.4964556	-0.162583
C	 1.71574995	-4.4038859948	 1.3544551564	-0.413501
C	 1.3382102083	-3.5375079802	-0.9774116312	 0.162154
O	 1.8860175816	-2.9790781184	-1.8889921266	-0.237425
H	 0.391058458	 1.4544782571	-1.5643591814	 0.167755
H	-1.2105244558	 1.6174638417	-0.8134992995	 0.165061
H	 0.2397733446	 2.1043233532	 0.0756010112	 0.165978
H	 2.3149519918	-2.4490359074	 0.5515422772	 0.114957
H	 2.6448528078	-4.9030044823	 1.06522664	 0.121933
H	 1.777419042	-4.1340645835	 2.4111551209	 0.138531
H	 0.8878666314	-5.1090373146	 1.2464895688	 0.141686
H	 0.6606147108	-4.4051868964	-1.1471106876	 0.089906
