20
gdb 36865	4.36178	0.93475	0.83446	1.3082	80.67	-0.2384	0.0292	0.2676	1432.1392	0.172329	-403.157098	-403.148368	-403.147423	-403.192311	31.526	
C	 0.2845369027	 1.0340460183	-0.855415951	-0.315613
C	-0.0262480326	-0.0969611361	 0.1117438116	 0.032306
C	-0.6665559557	 0.1923754586	 1.4436801954	-0.245718
C	-1.4569611108	-0.5017293426	 0.361776714	-0.278428
C	 1.5697335295	 1.7315444977	-0.5319894096	 0.410211
N	 2.6545017353	 1.6526619723	-1.1884467367	-0.309452
C	 3.6365908411	 2.4879445396	-0.4817901644	-0.183789
C	 2.8661255556	 3.053482708	 0.7400951267	-0.110218
O	 1.5380186213	 2.5065654944	 0.5913549808	-0.252037
H	 0.3621751029	 0.6558033762	-1.8778131854	 0.129788
H	-0.5275789676	 1.7702631025	-0.8254883609	 0.113478
H	 0.70457779	-0.9005999289	 0.0933456946	 0.093025
H	-0.3500503515	-0.3870077766	 2.3038453464	 0.110485
H	-0.906193754	 1.2253496759	 1.6698302415	 0.120443
H	-2.2369179766	 0.0624700916	-0.1393941598	 0.110692
H	-1.6797892161	-1.5564596614	 0.4782932437	 0.112329
H	 4.501186029	 1.8831704498	-0.1881980971	 0.114837
H	 4.0051488621	 3.2758711555	-1.1475723987	 0.114726
H	 3.2685193411	 2.7238446965	 1.702479507	 0.116511
H	 2.7898247643	 4.1444983988	 0.7452291019	 0.116422
