20
gdb 88024	2.25072	1.37242	1.08687	3.9924	83.75	-0.2784	0.0268	0.3052	1215.5625	0.170906	-366.011439	-366.002441	-366.001497	-366.045316	33.769	
C	-0.1027237526	 1.4782462913	-0.0599630445	-0.410235
C	 0.0650849352	-0.0233673419	-0.007598777	-0.053634
C	 1.428915351	-0.6551595018	-0.1821636937	-0.357494
C	 0.7499279971	-0.6904638372	 1.1542224078	 0.342547
C	 1.1545263815	-0.0401916584	 2.4841608414	-0.304254
C	 0.2946343113	-1.1023915158	 3.2255489885	-0.22723
C	 0.2233416466	-1.9388843379	 1.9040851159	-0.218824
C	-1.0645500645	-2.4820655051	 1.5073566532	 0.283401
N	-2.094989098	-2.8898500298	 1.175493939	-0.34157
H	 0.7637535689	 1.9929651912	 0.3677697572	 0.115247
H	-0.2110307351	 1.8210191979	-1.0943947781	 0.124229
H	-0.9917425597	 1.802110946	 0.4925107094	 0.122209
H	-0.7653519942	-0.5851375259	-0.4294123055	 0.109998
H	 1.505313723	-1.5804427281	-0.7450333249	 0.117481
H	 2.2843981106	 0.0058755818	-0.2914612579	 0.112656
H	 2.2232790526	-0.1378483721	 2.6981800447	 0.108845
H	 0.8652928181	 1.002736277	 2.6314009707	 0.112472
H	 0.7437012409	-1.6080258265	 4.0813533084	 0.115553
H	-0.6870778226	-0.7209245853	 3.5104452069	 0.128484
H	 0.9629189099	-2.7465265396	 1.9045920984	 0.120121
