20
gdb 78395	3.77036	1.2263	1.08416	0.4063	79.48	-0.2231	0.0743	0.2974	1182.5433	0.169604	-403.081632	-403.0729	-403.071956	-403.11428	34.406	
C	-0.1016878526	 1.5227028421	 0.0131520869	-0.421798
C	 0.1159003868	 0.0330541031	-0.1054393408	 0.036223
C	 0.8017053279	-0.6634651475	-1.2224423538	-0.094419
C	 1.9684639619	 0.1027269199	-1.7706895098	-0.132586
C	 2.4815098781	 0.1843241056	-0.3246845442	-0.087455
N	 1.3904045811	-0.651512613	 0.2107753373	-0.164067
C	 3.2716631183	-0.5536838014	-1.3728158878	 0.396451
C	 3.5237177137	-2.0418083952	-1.3518162794	-0.464277
O	 4.3404026921	 0.2065646137	-1.8840869401	-0.472357
H	 0.6913284695	 2.0995102896	-0.4652320604	 0.130357
H	-1.0515725573	 1.7976989081	-0.4574681954	 0.121647
H	-0.1554102421	 1.8181926938	 1.0668168826	 0.123615
H	-0.7037206459	-0.5525656363	 0.3096773113	 0.094081
H	 0.3995609359	-1.5797234674	-1.6458032882	 0.09465
H	 1.9541672994	 0.8461260887	-2.5594004645	 0.097629
H	 2.8958450573	 1.019712877	 0.228462829	 0.089672
H	 2.6893545579	-2.579727913	-0.8989955623	 0.144529
H	 3.6911456904	-2.4172230045	-2.3663418078	 0.121302
H	 4.4191077233	-2.2640723648	-0.7573862695	 0.104594
H	 5.1043878343	 0.0555414417	-1.316496443	 0.28221
