20
gdb 10851	4.60284	1.42148	1.14336	1.1151	78.07	-0.2333	0.0291	0.2624	1098.2106	0.177065	-349.026545	-349.018238	-349.017294	-349.058838	31.598	
C	-0.0297602336	 1.525576445	 0.0848316877	-0.402507
C	 0.0275370133	 0.0096301123	-0.0205322716	 0.139227
C	 0.759659553	-0.4890781906	-1.2719771863	-0.250215
C	 1.0657467381	-1.9588958053	-1.157809874	-0.162532
C	 1.0021712377	-2.613950671	 0.0015781836	 0.293846
C	 1.2515028726	-4.0881497393	 0.1469994344	-0.477919
C	 0.6533401569	-1.8714072496	 1.2702738278	-0.14912
O	 0.689199848	-0.465980863	 1.1471349855	-0.259391
H	 0.9819113043	 1.9389903767	 0.1442667017	 0.123295
H	-0.5299312602	 1.9542239015	-0.7890578936	 0.1118
H	-0.5756468762	 1.8271623593	 0.9827924783	 0.120567
H	-0.9998353184	-0.3955949732	-0.0377939552	 0.061183
H	 0.1411318464	-0.2974183898	-2.1585900337	 0.099271
H	 1.6849481076	 0.0883889188	-1.4142021936	 0.106722
H	 1.3390381683	-2.4908200396	-2.0667683406	 0.077007
H	 1.4620151456	-4.554708546	-0.8189753085	 0.123013
H	 2.1000130749	-4.2868785433	 0.8146333137	 0.12357
H	 0.3842323553	-4.5984008253	 0.5865401109	 0.122989
H	-0.3400461151	-2.2054565443	 1.6280974788	 0.089518
H	 1.3692859914	-2.1246936232	 2.0627489048	 0.109676
