13
gdb 125137	3.42747	1.14474	0.8628	1.2886	65.28	-0.2618	-0.0591	0.2027	1230.063	0.086096	-489.878176	-489.869527	-489.868583	-489.913411	28.683	
C	-0.0120188383	 1.499082763	 0.057086135	-0.49959
C	 0.0137707929	 0.0114036984	-0.0034396424	 0.116491
C	 0.0005015627	-0.8404993263	-1.0747341774	 0.475424
O	-0.0454237315	-0.4951668889	-2.3732186392	-0.22928
C	-0.0074817385	-1.4688213797	-3.3608358387	 0.158303
O	-0.0544704661	-1.155637508	-4.5029612199	-0.231353
O	 0.0328801072	-2.1002800542	-0.7006568236	-0.255594
N	 0.0734838747	-2.0216926066	 0.8137660285	-0.021082
N	 0.059073703	-0.8129966231	 1.0938839014	-0.119868
H	 0.8788064651	 1.892540937	 0.556286553	 0.151268
H	-0.0475553426	 1.9102026294	-0.9541756304	 0.150019
H	-0.8878816931	 1.8599483876	 0.6050072125	 0.151401
H	 0.0671023846	-2.4841720786	-2.9523986288	 0.153863
