17
gdb 44052	2.61537	1.71876	1.56898	2.6513	71.51	-0.2182	-0.0293	0.1889	933.3797	0.136388	-417.917136	-417.909634	-417.90869	-417.949015	29.572	
O	-0.002703968	 0.075817083	-0.6118274226	-0.282314
C	-0.0280250906	 1.1918160098	-0.1918889508	 0.369187
C	-1.1686510925	 2.1129737382	 0.3682700553	-0.424902
C	-0.0842033021	 3.1921013321	 0.6305492288	 0.245779
C	 0.7189106401	 3.2621719821	 1.9640741329	-0.216362
N	 1.6895072923	 2.2595064865	 1.4036471267	-0.377455
C	 1.0244828749	 2.3023600543	 0.0912246366	 0.133249
C	 1.2708735893	 3.3889711063	-1.0000439462	-0.247916
N	 0.2280982535	 4.2530964834	-0.3541234613	-0.364265
H	-1.9442408044	 2.3713488099	-0.3595407027	 0.128253
H	-1.6581402958	 1.702795015	 1.2571572996	 0.140926
H	 1.1265011369	 4.2626962972	 2.1401103869	 0.112958
H	 0.2226776557	 2.9054430741	 2.8733760273	 0.105673
H	 2.6741744137	 2.495900831	 1.4336315325	 0.227155
H	 2.2675687753	 3.8440335371	-0.9893718022	 0.112267
H	 1.0538425063	 3.0596721635	-2.0228838066	 0.114937
H	-0.5388118549	 4.5302353065	-0.9555517841	 0.22283
