20
gdb 66832	2.5869	1.95275	1.44859	1.7881	82.37	-0.213	0.0914	0.3044	992.5354	0.171488	-365.938449	-365.930678	-365.929734	-365.970148	31.236	
C	-0.0401798155	 1.4512559245	-0.0242948344	-0.522987
C	 0.0377674982	-0.0429805196	 0.0503611221	 0.285819
C	 0.2322043595	-0.9693590332	-1.1788915082	-0.197706
C	 0.9262733647	-2.1516550905	-0.4955572868	-0.006848
C	 1.9367035028	-1.6086885816	 0.5301327806	-0.250509
C	 0.6771439293	-0.9479275687	 1.1166680164	-0.058817
N	-0.1898445273	-2.1050572907	 0.5736638813	-0.219631
C	-0.9704926048	-1.1087248939	-0.284948041	 0.328893
C	-2.4432428137	-1.1352092019	-0.50721084	-0.524567
H	 0.9554619141	 1.9019627822	-0.1145572059	 0.120944
H	-0.6246533142	 1.7725426731	-0.893326213	 0.12023
H	-0.5171291668	 1.8737812025	 0.8676337192	 0.12105
H	 0.3125636521	-0.5846771446	-2.1883795168	 0.081759
H	 1.0812627068	-3.0816451624	-1.0435645002	 0.073139
H	 2.310811228	-2.4032043334	 1.1816690857	 0.110027
H	 2.7576161624	-0.9758648579	 0.1831057104	 0.0953
H	 0.5843560043	-0.6812242808	 2.170743439	 0.069776
H	-2.986160842	-1.0486712853	 0.4407065433	 0.126137
H	-2.7518500835	-0.3055608712	-1.152416802	 0.120323
H	-2.7524667445	-2.0700272967	-0.9878956896	 0.127666
