19
gdb 109610	1.97152	1.36231	1.01893	6.0084	77.34	-0.248	0.0224	0.2703	1261.2762	0.158569	-419.200882	-419.191114	-419.19017	-419.235567	35.993	
C	-0.245709295	 1.489791453	-0.204971197	-0.378189
C	 0.1839594856	 0.0430287196	 0.0636299647	-0.209277
C	 0.8353564711	-0.5882043567	-1.1494948985	-0.072035
C	 0.9173047931	-2.079886956	-1.3698526194	-0.137078
N	 0.2209679211	-2.9649482088	-0.4731203104	-0.522842
C	-0.0353799911	-1.2294380258	-2.2279275128	 0.265157
O	-1.3905271516	-1.3920652719	-1.9767137288	-0.460518
C	 0.2900079746	-1.0094134861	-3.6147970318	 0.266237
N	 0.5884451455	-0.8262656154	-4.7175147135	-0.35012
H	 0.6057236001	 2.1082237073	-0.5084500046	 0.117427
H	-0.9910280988	 1.5259781302	-1.0046480746	 0.141304
H	-0.6845814544	 1.939841485	 0.6903434008	 0.114551
H	 0.8916175469	 0.0128469516	 0.9025102707	 0.096611
H	-0.687631104	-0.5447599076	 0.362667603	 0.110515
H	 1.6971480691	-0.0460657422	-1.530519424	 0.109052
H	 1.8154615597	-2.4523037673	-1.8563965669	 0.10978
H	 0.3455387249	-3.9328401564	-0.7458732349	 0.252648
H	 0.5342002337	-2.8644692189	 0.4858875687	 0.252274
H	-1.4333907805	-2.1411285435	-1.3529318307	 0.294504
