19
gdb 104707	2.73744	1.11179	0.98406	4.6447	72.18	-0.2431	-0.0208	0.2223	1256.3937	0.157138	-460.161307	-460.151931	-460.150987	-460.195996	34.959	
O	-0.0333596608	 1.5550612191	 0.1174603499	-0.425069
C	 0.0922620928	 0.1404941973	 0.2777541854	-0.151249
C	-1.2640995896	-0.4995997006	 0.0216329747	 0.28807
C	-2.3295372361	-0.0012563538	 1.0089475897	-0.10473
O	-2.7301849152	 1.3311111027	 0.7746986419	-0.426834
C	-1.761970045	-0.43688036	-1.4603439006	-0.386498
C	-1.8549698758	-1.9673762148	-1.4481528458	 0.415871
O	-2.2838606704	-2.7831869302	-2.209981384	-0.287371
C	-1.2083072595	-2.0615889623	-0.052527171	-0.422521
H	 0.7940806047	 1.9736152493	 0.3726145997	 0.297779
H	 0.8369326247	-0.2595528163	-0.4275957606	 0.093428
H	 0.4291385076	-0.1072523709	 1.2965173913	 0.098726
H	-3.232756441	-0.6158119017	 0.9117871688	 0.102573
H	-1.9550501968	-0.1434850313	 2.0385881948	 0.08071
H	-1.9180488544	 1.8471938641	 0.6813873858	 0.291763
H	-2.6976715199	 0.1034176991	-1.6238854892	 0.148918
H	-1.0214725221	-0.0642921303	-2.1758807649	 0.129664
H	-0.1972273559	-2.4824146292	-0.0932109767	 0.12544
H	-1.7783498472	-2.6119468202	 0.7019189608	 0.131331
