17
gdb 65439	2.6128	1.16771	1.04242	6.5841	74.42	-0.2649	0.0061	0.2709	1207.4854	0.13498	-418.035205	-418.025841	-418.024897	-418.070024	33.237	
C	-0.1836599017	 1.4228944348	 0.3391011682	-0.45918
C	 0.0578953332	-0.0531946078	 0.0766199265	 0.16651
C	 1.4056010804	-0.5219996063	-0.4587238224	-0.361611
C	 1.0292879519	-0.8502723046	 0.953146077	 0.014427
N	 1.7167436377	-0.1893947732	 2.0168088969	-0.290482
C	 1.1306473612	 0.0266842453	 3.2339110182	 0.154863
O	-0.0323823916	-0.1905177468	 3.4818632505	-0.305381
C	-1.096813239	-0.7862276738	-0.3813811826	 0.251944
N	-2.0214982971	-1.3699868162	-0.7587238504	-0.341666
H	 0.7336321733	 1.8991610606	 0.6909220328	 0.120956
H	-0.5087891478	 1.9276203062	-0.5747704856	 0.137047
H	-0.9522676752	 1.5522630355	 1.10494516	 0.160749
H	 1.4257681917	-1.3263157742	-1.1835913287	 0.147885
H	 2.1442441304	 0.2569941869	-0.6167477954	 0.128651
H	 0.7226900868	-1.8698232452	 1.1683799697	 0.136891
H	 2.7159831096	-0.074024559	 1.942973863	 0.254752
H	 1.8491445761	 0.4411229777	 3.9686620122	 0.083643
