19
gdb 52687	3.31636	0.8048	0.69853	1.5443	81.72	-0.2498	0.0302	0.28	1668.7256	0.155245	-422.976339	-422.965395	-422.964451	-423.014785	37.103	
C	 0.2959441211	 1.409960054	 0.0678161559	-0.499556
C	 0.0738703669	-0.027159176	 0.0107474402	 0.077033
C	-0.0966162038	-1.2193029921	-0.0172453473	 0.046576
C	-0.3442551423	-2.6585653574	-0.1079496986	-0.088248
O	-1.7402608171	-2.964823332	-0.1067188503	-0.417915
C	 0.3130581668	-3.2464783296	-1.3515231498	 0.0542
O	 1.7107552435	-3.5239583356	-1.2883850282	-0.259031
C	 0.8046621328	-4.6293712524	-1.43472668	 0.07831
C	 0.7467738312	-5.6455059867	-0.3238064037	-0.417267
H	 1.2013579017	 1.6436615005	 0.6383301224	 0.156147
H	 0.4144713288	 1.8369660154	-0.9338571065	 0.150953
H	-0.542631505	 1.921516615	 0.5527440747	 0.151645
H	 0.0702929972	-3.1533749349	 0.7757045622	 0.118609
H	-2.1815076149	-2.2919824229	-0.6360762206	 0.28591
H	-0.0106242951	-2.7633271297	-2.2765381062	 0.086134
H	 0.8227455049	-5.0656195024	-2.4360419201	 0.088832
H	 0.7503182494	-5.1783624457	 0.6625840553	 0.12978
H	-0.1584419983	-6.2544620956	-0.4168791315	 0.130804
H	 1.6116674621	-6.3144191018	-0.3821910179	 0.127086
