18
gdb 73998	2.93535	2.16036	1.62386	2.0788	81.02	-0.2009	-0.0245	0.1763	876.2763	0.149001	-364.703573	-364.696899	-364.695955	-364.734301	27.715	
C	 0.2895652351	 1.2476699578	-0.1239543068	-0.47646
C	-0.3038577365	-0.122233981	-0.0489967981	 0.269829
C	-0.5563379386	-0.9485873916	-1.0973590706	-0.089932
C	 0.7031337586	-1.3075679991	-1.9157495747	-0.279231
C	 0.8098688328	-2.4428878629	-0.8167069962	-0.03977
C	 0.888423108	-2.099718917	 0.7092502944	-0.073098
C	-0.0852961863	-0.9876773079	 1.1265293616	-0.119966
N	-0.5704271429	-2.3683854155	 0.9367944081	-0.148264
C	-0.7086589586	-2.3815234162	-0.5664775047	-0.004292
H	 1.3021578338	 1.2741173973	 0.301398841	 0.1246
H	 0.3318792376	 1.6043643507	-1.1564476842	 0.12973
H	-0.3084358028	 1.9674174612	 0.4490608323	 0.133609
H	 0.5498679007	-1.7661230697	-2.8988237327	 0.107061
H	 1.4811307936	-0.5435253359	-1.9830316895	 0.106705
H	 1.3158760445	-3.3760891452	-1.074244457	 0.087336
H	 1.6404918226	-2.4720517681	 1.3959900631	 0.101228
H	-0.0470251201	-0.6429496123	 2.1559474884	 0.092122
H	-1.4437315015	-3.0652642446	-0.9859549044	 0.078794
