20
gdb 9962	2.45544	1.73332	1.48082	1.9968	71.03	-0.2276	0.054	0.2815	1001.2632	0.17487	-386.121034	-386.111588	-386.110644	-386.154478	35.286	
C	 0.2610793587	 1.3532500311	 0.3531023034	-0.38448
C	-0.2242051872	 0.0069867936	-0.2001490644	-0.231269
C	 0.6082678463	-0.5228144706	-1.3579338446	 0.259088
C	 0.4440139721	 0.2102615994	-2.6770004908	-0.460037
C	 1.9921114957	-1.077148012	-1.0887512717	-0.012026
O	 2.4006670833	-1.1301842144	 0.2604862432	-0.42753
C	 0.8687992841	-2.0232783628	-1.4540855849	 0.042565
O	 0.4252178685	-2.893223722	-0.4585966791	-0.433908
H	 1.2828222554	 1.2663549479	 0.7327647135	 0.131286
H	 0.2488818121	 2.1374843126	-0.4111116162	 0.109573
H	-0.3803379383	 1.6878479149	 1.1747689921	 0.107455
H	-0.2424380216	-0.7321300044	 0.6044056016	 0.099946
H	-1.2623652667	 0.0988866966	-0.5453617702	 0.092472
H	 0.7557212416	 1.2579727612	-2.6007075459	 0.120019
H	 1.041608129	-0.2506013386	-3.4708972826	 0.109861
H	-0.6031727263	 0.1922964442	-3.0004192236	 0.119734
H	 2.7904846363	-0.8548278228	-1.7946375813	 0.084753
H	 3.1638333921	-1.7162112385	 0.3124423383	 0.296247
H	 0.8469944412	-2.4877153712	-2.43647145	 0.092982
H	 0.9487476735	-2.6853817041	 0.3281439731	 0.283268
