21
gdb 113951	3.56463	0.79597	0.70979	1.2742	80.11	-0.241	0.0843	0.3253	1634.465	0.180834	-424.172935	-424.163297	-424.162353	-424.208473	34.773	
C	 0.0533379221	 1.0143589689	-0.2946210971	-0.236251
O	-0.3877466415	-0.0735739378	 0.4944101796	-0.234011
C	 0.6185598369	-0.5970895651	 1.3045970676	 0.111125
C	 0.3845889315	-1.9695423143	 1.8470527036	-0.328999
C	 1.4711028066	-1.743835544	 0.806990053	-0.029664
C	 1.2950763824	-2.299555857	-0.5922790298	-0.253486
C	 1.634566731	-3.7694587421	-0.6676743863	 0.10547
C	 2.2741450628	-4.3706149636	-1.843384993	-0.180559
O	 3.0281570153	-4.1012825976	-0.6599540438	-0.23967
H	 0.858067021	 0.722711941	-0.9839473335	 0.110274
H	-0.8059022187	 1.3614064284	-0.8732858126	 0.127112
H	 0.4177644225	 1.8427834661	 0.3316248021	 0.108298
H	 1.0946027207	 0.1423526965	 1.950983404	 0.082469
H	 0.6620635884	-2.1842452271	 2.8726907648	 0.114552
H	-0.523179362	-2.4601675289	 1.5105289147	 0.121168
H	 2.4942302903	-1.7707636689	 1.171838551	 0.097218
H	 0.259135346	-2.1479563614	-0.9168743355	 0.112695
H	 1.9393764791	-1.7598146673	-1.2969755298	 0.099104
H	 1.0294098509	-4.4192265845	-0.032746154	 0.091839
H	 2.1177685274	-5.4244094197	-2.0708177981	 0.111884
H	 2.513228367	-3.7437653216	-2.702152217	 0.109431
