21
gdb 102717	3.11694	0.92123	0.75572	4.6327	83.14	-0.2469	0.0322	0.2791	1553.2797	0.182486	-383.265046	-383.255093	-383.254149	-383.30064	35.74	
C	-0.0802280682	 1.6130290094	-0.0846901878	-0.399705
C	 0.0995819425	 0.0962516895	-0.0023125072	-0.184458
C	 0.7442465727	-0.5290931475	-1.2616661046	-0.124658
C	 0.9710834618	-2.0539961972	-1.1046033143	-0.241637
C	 1.8586410011	-2.661975619	-2.1682682396	 0.020677
C	 1.6329597592	-4.0555129862	-2.6278922594	-0.247282
N	 1.3694339754	-2.9239021358	-3.5293410601	-0.303645
C	-0.0804326924	-0.2575117849	-2.4450647426	 0.29547
N	-0.7645066083	-0.0610585957	-3.3565380438	-0.341763
H	 0.8807702152	 2.1190554267	-0.2278205614	 0.119837
H	-0.7331355359	 1.8913516241	-0.9172259247	 0.146553
H	-0.5261806611	 1.9986921536	 0.8364556727	 0.122144
H	 0.7400644833	-0.1594682865	 0.8495824017	 0.106465
H	-0.8674872868	-0.3887497206	 0.1749945584	 0.116594
H	 1.7174969293	-0.047624769	-1.4275596179	 0.12631
H	 1.4295097994	-2.2185724733	-0.121630195	 0.112287
H	-0.0016429536	-2.560198882	-1.0897094647	 0.110504
H	 2.8837927248	-2.2922611966	-2.1536071202	 0.091973
H	 2.4738005424	-4.6827176592	-2.910163541	 0.120206
H	 0.7900179899	-4.5958529448	-2.2029439523	 0.110823
H	 0.3720720792	-2.7353882552	-3.5938805763	 0.243306
