16
gdb 9587	3.67418	1.27737	1.18804	2.9349	74.14	-0.2469	-0.0296	0.2173	1059.436	0.127504	-346.570795	-346.562274	-346.56133	-346.603652	31.224	
C	-0.0407106883	 1.5526167914	-0.1187014434	-0.461187
C	 0.0156612297	 0.0325835359	-0.0283862874	 0.122328
C	 1.334198986	-0.6758391641	-0.183074851	-0.322632
C	 0.6806430048	-0.669191552	 1.1846998759	-0.127824
C	 1.2835633384	 0.1162267966	 2.2865433543	 0.157714
O	 1.1954130753	-0.1819941476	 3.4522134564	-0.262551
C	-1.1574711358	-0.6328466962	-0.532954055	 0.281857
C	-2.1484456868	-1.164047596	-0.9598177839	-0.444868
H	 0.8955085913	 2.0142188842	 0.2029776056	 0.121776
H	-0.2249064993	 1.851466659	-1.1547071716	 0.137104
H	-0.8518597142	 1.9517000996	 0.4968906093	 0.140079
H	 1.3612933279	-1.6185974572	-0.7152744745	 0.139405
H	 2.2117084804	-0.0501691233	-0.3149051235	 0.127055
H	 0.1970144141	-1.5811214106	 1.5142924923	 0.122713
H	 1.8572076138	 1.0163174774	 1.9695284419	 0.069086
H	-3.0217732674	-1.6381977669	-1.3342081756	 0.199946
