16
gdb 55236	2.98837	1.24589	1.05177	3.4979	64.35	-0.2482	-0.032	0.2162	1136.4213	0.123998	-475.077426	-475.069036	-475.068092	-475.111282	30.814	
N	 0.5423351356	-0.253158891	 0.6665653142	-0.517246
C	-0.1516166521	 0.1356236175	-0.4313347377	 0.364361
O	 0.3329605706	 0.6954661487	-1.3955948755	-0.360291
C	-1.6640908498	-0.1628514712	-0.3534647487	-0.007771
C	-2.2122833646	-0.6963827014	-1.677174349	-0.354562
C	-2.2909749163	-2.2041636648	-1.4418849539	 0.381716
O	-2.5353395242	-3.0603704307	-2.2468878295	-0.292664
C	-1.990593809	-2.429248513	 0.0440161327	-0.194026
O	-1.9764536312	-1.145777411	 0.6497463355	-0.272428
H	 1.5220606064	-0.0331333247	 0.7316307608	 0.266538
H	 0.0590807517	-0.6792344396	 1.4391882934	 0.273984
H	-2.1506159076	 0.7656115177	-0.0397761112	 0.125855
H	-3.2191311248	-0.3221233034	-1.8872868565	 0.141848
H	-1.5708444063	-0.4508895467	-2.5250028638	 0.171757
H	-2.75471055	-3.0488835213	 0.5211910466	 0.144731
H	-1.0188512682	-2.9392504852	 0.1369821826	 0.128198
