16
gdb 45824	2.54373	1.8803	1.20526	2.353	70.44	-0.229	-0.0239	0.2052	991.6256	0.126982	-437.909131	-437.901881	-437.900937	-437.941843	27.367	
O	-0.0136105451	-0.0544712923	-0.0607875527	-0.364121
C	-0.0230654147	 1.158608149	-0.0201071563	 0.41655
N	-1.201584001	 1.8723027616	 0.0212653841	-0.349399
C	-1.2998099766	 3.2653488271	 0.0402538634	 0.02651
C	-0.2431366079	 4.0804722843	 0.0391250621	-0.134741
C	 1.1452681385	 3.5341218133	 0.042877394	 0.068404
O	 1.7908716307	 3.5828849424	 1.3498624256	-0.288901
C	 1.892572815	 2.1484685669	 1.4134068966	-0.071941
C	 1.2462524011	 1.9862534383	 0.0134979874	-0.217635
H	-2.0402947937	 1.3120179903	-0.0006087945	 0.257891
H	-2.3193683168	 3.6337738643	 0.0456991794	 0.124951
H	-0.3909687439	 5.1531336276	 0.0521515596	 0.104777
H	 1.7751743141	 4.04428217	-0.6965021806	 0.084487
H	 2.9310164359	 1.8067423856	 1.4881102791	 0.112529
H	 1.3177662711	 1.7258381605	 2.2464680496	 0.113858
H	 1.9234920834	 1.578895341	-0.7370800468	 0.116781
