16
gdb 102344	1.78472	1.40287	1.33489	4.1391	70.06	-0.2669	-0.0248	0.2421	1126.6311	0.122347	-434.05607	-434.046023	-434.045078	-434.090956	34.738	
C	-0.1008607727	 1.4045698479	 0.0293753172	-0.271544
O	-0.0131926916	-0.0188696089	-0.0344056428	-0.257509
C	 0.6449088801	-0.5509580476	-1.1567021245	 0.079376
C	 0.5679304769	-2.0920193463	-1.0055166224	-0.183877
N	-0.8217632881	-2.4993857052	-1.0213669883	-0.503206
C	 0.0005994079	-0.1225068041	-2.4252968504	 0.305962
N	-0.4899063687	 0.2402925871	-3.4053706745	-0.328245
C	 2.0720479658	-0.1344831029	-1.1867662566	 0.284371
N	 3.1862631295	 0.1681621778	-1.1677482944	-0.324986
H	 0.895856085	 1.8607565696	 0.0610940871	 0.144524
H	-0.6615942173	 1.8060375896	-0.8225719564	 0.149007
H	-0.6325945779	 1.6278941052	 0.9548099415	 0.147783
H	 1.0922605847	-2.544345502	-1.851579406	 0.142047
H	 1.1294506836	-2.3319657982	-0.0894836943	 0.122595
H	-0.900583841	-3.5021785758	-1.1379601204	 0.245133
H	-1.2764833265	-2.2439538562	-0.1526476248	 0.248569
