24
gdb 11565	5.10925	0.90361	0.81887	0.1312	85.76	-0.2687	0.0884	0.3571	1500.8151	0.222558	-314.26898	-314.259069	-314.258125	-314.304006	36.6	
C	 0.0571996464	 1.5718066459	-0.0184543208	-0.391405
C	-0.0392184149	 0.0440691353	 0.0479466354	-0.166689
C	-1.4688281656	-0.5237942217	-0.0411360004	 0.049317
C	-2.1346997391	-0.2049759591	-1.3871859759	-0.387597
C	-1.4530897235	-2.0381173536	 0.2520438676	-0.202954
C	-2.8188713577	-2.6810091006	 0.3901561517	 0.026602
C	-3.5043397264	-3.343111416	-0.7810118304	-0.249556
C	-2.9577724668	-4.1822090124	 0.3469872803	-0.281398
H	 1.0899122835	 1.9041593895	 0.12786284	 0.110182
H	-0.2775895375	 1.9643799083	-0.9832858381	 0.117566
H	-0.5547927523	 2.0404283587	 0.7608497731	 0.111423
H	 0.5692875754	-0.3961446523	-0.7548075736	 0.089645
H	 0.4120646779	-0.2965369738	 0.9888539377	 0.088963
H	-2.0636802277	-0.0434572973	 0.7515788368	 0.064482
H	-1.5670588051	-0.6471241126	-2.2156562357	 0.105211
H	-3.151240901	-0.603705396	-1.4317128238	 0.12169
H	-2.1937890442	 0.8727815047	-1.5638717253	 0.110015
H	-0.888862771	-2.5552372658	-0.5377882969	 0.085121
H	-0.890435884	-2.2035955297	 1.1814116903	 0.089989
H	-3.4777661694	-2.1730872944	 1.091650003	 0.077114
H	-4.5804752287	-3.2469159578	-0.8779393831	 0.107597
H	-2.9760186904	-3.3649730247	-1.7285743863	 0.109413
H	-2.0624898549	-4.7653554005	 0.1556820197	 0.107826
H	-3.6593344631	-4.6584795539	 1.0230686648	 0.107443
