23
gdb 85858	2.00076	1.48922	1.32805	2.2555	81.5	-0.2371	0.0655	0.3026	1180.3944	0.201564	-425.429173	-425.418358	-425.417413	-425.463971	41.04	
C	 0.1336586885	 1.5778493145	-0.1762146487	-0.421413
C	 0.0777540506	 0.0805596095	 0.049594378	 0.128303
O	 0.9557706683	-0.6493901399	-0.8339209634	-0.351114
C	 1.3747583882	-1.5539670753	 0.2304687387	 0.393284
C	 0.6710341082	-2.9031675847	 0.096910309	-0.41554
C	 2.8874351075	-1.7244684339	 0.2251397414	-0.439356
C	 0.7218393092	-0.6033299894	 1.2926912883	 0.264242
C	 1.6688797686	 0.2550811456	 2.1197689059	-0.467596
O	-0.1769566475	-1.2962625512	 2.1398097987	-0.471611
H	 1.1508920953	 1.9654886091	-0.0768186357	 0.117731
H	-0.2176354774	 1.812670243	-1.1861139037	 0.129406
H	-0.5154205891	 2.1024355383	 0.5338691923	 0.110815
H	-0.9595413386	-0.2723930386	-0.0540754394	 0.070245
H	 0.9954581013	-3.3878081896	-0.8292438392	 0.111596
H	 0.9168556767	-3.5565396744	 0.9392099011	 0.116902
H	-0.4134523435	-2.7871096317	 0.070512765	 0.126057
H	 3.4045010038	-0.7630032236	 0.2370400477	 0.114169
H	 3.2173699525	-2.3145482253	 1.0865262443	 0.11683
H	 3.1916808486	-2.2559312258	-0.6823567961	 0.123271
H	 2.389206463	 0.7970830878	 1.5044043806	 0.132864
H	 1.1013038671	 1.0023070551	 2.6891202534	 0.107284
H	 2.2203584598	-0.3671583603	 2.8308389964	 0.126377
H	-0.454066791	-0.6979436293	 2.8408449453	 0.277255
