21
gdb 110687	4.57394	1.04271	1.00127	1.2901	82.79	-0.2601	0.0779	0.338	1268.1252	0.184856	-387.048388	-387.040575	-387.039631	-387.080865	31.102	
O	-0.1053237228	 1.477664984	-0.2964626884	-0.422409
C	 0.0404799387	 0.113698991	 0.0861750281	-0.132562
C	-1.3298809953	-0.5262428951	-0.003805063	 0.052045
C	-1.9504770556	-0.9005671076	-1.3755899286	-0.058018
C	-1.0307673475	-2.164592943	-1.46477452	-0.004474
C	-1.7954902133	-3.2937949477	-2.1575419629	-0.240763
C	-3.2029964714	-3.0871830249	-1.5304562126	-0.246731
C	-2.9080031063	-1.8891087918	-0.6305096075	 0.004273
C	-1.4984253785	-2.0674306425	 0.0269143884	-0.089061
H	 0.7508658787	 1.9063765981	-0.2084828095	 0.284759
H	 0.7681995066	-0.3998017527	-0.5585096271	 0.08331
H	 0.4098216367	 0.03215481	 1.1222117534	 0.080514
H	-2.0151162135	 0.0169044841	 0.6577083475	 0.065298
H	-2.2162604767	-0.2253447675	-2.1910412797	 0.067376
H	 0.0251862983	-2.048861184	-1.7091828314	 0.058798
H	-1.7963667778	-3.1811711874	-3.2466319866	 0.09569
H	-1.371132205	-4.2776228026	-1.9317165547	 0.094113
H	-3.9706505661	-2.8618214564	-2.2777549665	 0.096294
H	-3.5457562848	-3.9574092484	-0.9612720469	 0.094796
H	-3.7161582208	-1.4746120419	-0.0240919387	 0.058261
H	-1.2424678736	-2.7528554938	 0.8391616666	 0.058493
