17
gdb 90270	3.40245	1.58188	1.30469	2.064	67.66	-0.2307	0.0457	0.2763	976.1526	0.135901	-458.885075	-458.877748	-458.876804	-458.916732	28.887	
O	-0.2276829767	 1.4194299027	 0.1197359718	-0.412748
C	-0.0304573865	 0.0308168356	 0.0436739192	 0.076344
C	 0.3379704535	-0.6801045331	 1.4023979632	-0.383416
C	-1.1157161891	-1.100566826	 1.4936512861	 0.435224
O	-1.6920720369	-2.1844174623	 2.1951055397	-0.337589
C	-2.9342862181	-1.4361688961	 2.3791313204	-0.1166
C	-2.3103008867	-0.1652339875	 1.7582489254	 0.000225
O	-2.567409658	 0.0359593883	 0.3538349333	-0.29033
C	-1.4058263134	-0.7389308048	 0.0157132903	 0.033075
H	 0.6304257197	 1.8319335596	 0.2610387284	 0.288467
H	 0.6302444543	-0.2456894135	-0.7877020251	 0.077047
H	 1.0046566944	-1.5331363076	 1.2409960341	 0.116302
H	 0.7406389461	-0.0504777225	 2.2009345371	 0.101599
H	-3.7641436135	-1.8568543925	 1.802713112	 0.118372
H	-3.1979382614	-1.3748491672	 3.440440462	 0.111191
H	-2.3051982161	 0.7602609779	 2.3347603903	 0.097273
H	-1.5647539116	-1.4292127011	-0.8145973983	 0.085564
