16
gdb 64071	2.566	1.53037	1.21045	4.2526	65.64	-0.2413	-0.0745	0.1668	1044.78	0.123583	-475.073375	-475.064746	-475.063802	-475.106594	32.021	
C	 0.1541213691	 1.5380432633	 0.0112317446	-0.430263
C	-0.0863128212	 0.0191961293	-0.0395122943	 0.295251
O	-1.4618399756	-0.2822831832	-0.0633949565	-0.472493
C	 0.6470393146	-0.6368387261	-1.2335511347	-0.214799
N	 1.9180352633	-1.0702808778	-0.6567294775	-0.326725
C	 1.9680809049	-1.1671777028	 0.7054102046	 0.335195
O	 2.870528648	-1.5810107476	 1.3928684753	-0.351033
C	 0.5961956251	-0.6355843353	 1.1633349377	 0.252388
O	 0.0976112959	-0.7586202456	 2.2495269312	-0.308669
H	 1.2201399883	 1.7814698887	-0.042962959	 0.130069
H	-0.3601810746	 2.0069361885	-0.8321160863	 0.136385
H	-0.2485707005	 1.9491719784	 0.9413142466	 0.135982
H	-1.7415038346	-0.3499590113	 0.8607049439	 0.294363
H	 0.051498455	-1.4795616186	-1.601432676	 0.136476
H	 0.8137032835	 0.061950663	-2.0583372379	 0.12237
H	 2.6780720488	-1.4202528628	-1.2198605617	 0.265501
