22
gdb 103957	2.04434	1.7387	1.21166	1.7139	81.55	-0.222	0.0618	0.2838	1139.2344	0.193484	-404.295241	-404.285861	-404.284917	-404.328745	36.637	
C	 0.3348989734	 1.8535007222	-0.7112085704	-0.45144
C	 0.1441900663	 0.3536486931	-0.6754258148	 0.028222
C	 0.704352204	-0.6285094892	-1.621755437	-0.044921
C	 2.126876639	-0.2843334824	-2.0565423161	-0.322677
C	 2.5175570714	-0.3815495198	-0.5518354277	 0.333858
C	 3.297869468	-1.6597452018	-0.2515976296	-0.429554
C	 3.2025977009	 0.8271094855	 0.1403057366	-0.151227
O	 3.5361253631	 1.9127953782	-0.7166172871	-0.400792
N	 1.0778362549	-0.67000181	-0.1405134292	-0.192818
H	 1.3075781903	 2.166796702	-1.0896134335	 0.161837
H	-0.4401802234	 2.2926231665	-1.3497778563	 0.113445
H	 0.2097638082	 2.2797474374	 0.2906514315	 0.119424
H	-0.8548513532	 0.0796706092	-0.3359561516	 0.092542
H	 0.1010079239	-1.4110811971	-2.0726805187	 0.087592
H	 2.6033721851	-1.0540239231	-2.6674701539	 0.101465
H	 2.2528420002	 0.6843832565	-2.5448650698	 0.106577
H	 4.3162969679	-1.595372694	-0.6528154828	 0.100086
H	 3.3607931636	-1.8211722195	 0.8297678431	 0.12287
H	 2.804220589	-2.5309439217	-0.6907642649	 0.120094
H	 2.5255810053	 1.2374878005	 0.8939882854	 0.127596
H	 4.101837471	 0.4825524341	 0.6699270219	 0.091674
H	 4.2174410011	 1.6120206733	-1.3258507252	 0.28615
