17
gdb 115248	3.80635	1.07087	0.93854	2.3831	64.95	-0.2454	-0.0383	0.2072	1237.3903	0.134927	-496.101031	-496.092455	-496.091511	-496.134853	31.141	
O	 0.1736347953	 1.3308177105	 0.0319994946	-0.412985
C	 0.0287987815	-0.0641827071	-0.0730385038	-0.077412
C	-1.4323317156	-0.4989943991	-0.0474875113	 0.189663
O	-1.9952059985	 0.0535512322	 1.1251961517	-0.262984
C	-3.3560565481	-0.2943979248	 1.3162793775	-0.190009
C	-4.1992683408	-0.2223820312	 0.0453913938	 0.34485
O	-5.3993643243	-0.1113481034	 0.0844815626	-0.284767
C	-3.4389043884	-0.4105326475	-1.2633440796	-0.191029
O	-2.0811178227	-0.0152905282	-1.1919019648	-0.236606
H	-0.3961476407	 1.6105157531	 0.7579973919	 0.292989
H	 0.4695475677	-0.3722016614	-1.0252451178	 0.122671
H	 0.5480499671	-0.5991250789	 0.73801902	 0.094937
H	-1.5096594176	-1.6037311126	-0.0090014978	 0.058285
H	-3.4425540152	-1.3261243743	 1.7010825304	 0.127981
H	-3.7767309631	 0.376946635	 2.067995763	 0.149599
H	-3.5248620244	-1.4786958482	-1.5349666275	 0.123923
H	-3.9211785121	 0.173157286	-2.0501818129	 0.150894
