18
gdb 85687	2.47216	1.37082	1.0548	3.9347	76.45	-0.275	0.0228	0.2978	1178.0777	0.146909	-401.936796	-401.92814	-401.927196	-401.970335	32.185	
C	-1.0187324717	 1.0968293979	-0.0627671261	-0.4211
C	-0.0449228123	-0.070203942	-0.0561112908	-0.058933
C	 1.2993388721	 0.0561633985	-0.8372439591	-0.256704
C	 2.0348806633	-0.6684451679	 0.3399604423	-0.240801
C	 3.3208206133	-0.1578643485	 0.7772429516	 0.277901
N	 4.3299787374	 0.275705408	 1.1396724946	-0.332981
C	 0.7872310712	-0.3597417311	 1.1993678637	 0.436076
C	 0.7475761964	 0.261245797	 2.5222302191	-0.2624
O	 0.3802608134	-1.1161068298	 2.3088857575	-0.267561
H	-0.5218972372	 2.0288900806	 0.2264821202	 0.121576
H	-1.4489052043	 1.2405087412	-1.0592221265	 0.125628
H	-1.8465490168	 0.9224891036	 0.6326794312	 0.130342
H	-0.5574523206	-0.9937818839	-0.3506704594	 0.096292
H	 1.3656882057	-0.4277411097	-1.811657127	 0.122375
H	 1.6231054475	 1.0953641353	-0.9262545114	 0.128157
H	 2.1067129296	-1.7454159284	 0.1602212842	 0.136251
H	 1.6750857122	 0.4158413952	 3.0702332411	 0.141922
H	-0.0748003491	 0.923334674	 2.7860068148	 0.123959
