25
gdb 122517	4.44496	0.53447	0.50846	1.3964	90.88	-0.2566	0.0793	0.3358	2268.9842	0.227417	-389.479674	-389.468408	-389.467464	-389.517448	40.23	
C	-0.3157472097	 1.5963257091	 0.2217254908	-0.379535
C	 0.0547952357	 0.1275166514	-0.0012132783	-0.165576
C	 0.6800092021	-0.5306660243	 1.2329907876	-0.150228
C	 1.0624791996	-2.0009467797	 1.013758313	-0.213003
C	 1.6912380743	-2.6265497339	 2.2442798347	-0.008658
C	 0.8465529335	-3.2635202683	 3.3220986187	-0.282564
C	 1.7703753745	-4.1176748545	 2.4881477918	-0.002162
C	 1.2193239285	-5.1352400548	 1.5249119414	-0.097289
O	 0.9422258531	-6.3241076972	 2.2574379301	-0.421057
H	 0.565562681	 2.1905205839	 0.4882657855	 0.112857
H	-0.7562887412	 2.0398286534	-0.6768097967	 0.10976
H	-1.0417577646	 1.7022943542	 1.0355650559	 0.113346
H	-0.840611308	-0.4353824914	-0.2971729921	 0.092451
H	 0.7527286108	 0.0495133526	-0.8456577748	 0.092641
H	 1.5738735941	 0.0347866901	 1.5318122778	 0.089861
H	-0.0167365262	-0.4621282035	 2.0791840552	 0.096621
H	 0.1671399903	-2.5617602713	 0.719370064	 0.091967
H	 1.7582046529	-2.0687859132	 0.1654019542	 0.091649
H	 2.557617946	-2.0739384579	 2.6027864246	 0.079194
H	 1.0917090926	-3.0906223333	 4.3640668078	 0.108175
H	-0.2180102169	-3.358427237	 3.1277536382	 0.107985
H	 2.6736404739	-4.4636184228	 2.9838048515	 0.086651
H	 0.3086033827	-4.7525689727	 1.0400748843	 0.080875
H	 1.9543559157	-5.3311605733	 0.726854894	 0.083273
H	 0.6685064154	-7.0006757857	 1.6309008106	 0.282766
