16
gdb 19495	3.36022	1.93055	1.78013	1.5777	69.75	-0.2251	0.0449	0.27	818.0226	0.13111	-346.55544	-346.548359	-346.547415	-346.586679	27.174	
C	 0.2107128245	-1.2477592224	-0.0084872009	-0.45465
C	 0.1580743291	-0.0453704972	 0.0193238592	 0.346206
C	 0.0637414546	 1.3817094473	 0.0427309899	-0.276711
C	 0.4232708239	 2.2238289921	 1.2775792041	-0.101504
C	 1.2916438167	 1.582745659	 2.3472757717	-0.253883
C	 2.5528827028	 1.118410355	 1.5757730903	-0.085626
O	 2.5478515762	 1.7844545068	 0.3029004502	-0.255095
C	 1.2838523887	 2.3090273371	 0.0610793386	 0.107278
H	 0.2681921293	-2.3072757433	-0.0446180442	 0.194646
H	-0.7731277179	 1.7821889999	-0.5246806822	 0.11423
H	-0.2635772066	 3.0119165375	 1.5620319955	 0.097338
H	 1.538588012	 2.3341780064	 3.1032504306	 0.11053
H	 0.8056798285	 0.7431508903	 2.851993938	 0.119314
H	 3.4856001923	 1.3821390416	 2.0839124155	 0.106443
H	 2.5347693697	 0.0372127317	 1.414766644	 0.122844
H	 1.3068078263	 3.1524686482	-0.6196382204	 0.10864
