19
gdb 102951	2.13588	0.8587	0.63928	3.7223	78.79	-0.2469	-0.0183	0.2286	1696.2616	0.155197	-422.995711	-422.984973	-422.984029	-423.032904	37.054	
O	-0.0209152239	 1.5691971853	-0.1692385583	-0.41947
C	 0.0193754805	 0.1696988908	 0.0550663776	-0.092845
C	-1.434227273	-0.3338473959	 0.0906116428	-0.156582
C	-2.1480934448	-0.0797271817	-1.256013239	-0.197019
C	-3.6488101737	-0.4057863908	-1.2178243859	-0.281599
C	-4.3332010445	-0.0261507307	-2.5109252281	 0.158642
O	-4.9854014783	-0.7712783832	-3.1953295906	-0.236761
C	-1.4642829642	-1.7433957793	 0.4720521832	 0.319538
C	-1.4685076494	-2.9089201738	 0.7666750396	-0.466114
H	 0.8815904523	 1.8900065527	-0.250934227	 0.293309
H	 0.5653936619	-0.3560080218	-0.7430620885	 0.100037
H	 0.5063037212	-0.0726843139	 1.010228606	 0.103505
H	-1.949550431	 0.2527038116	 0.8644687159	 0.115088
H	-1.9947023154	 0.9723533833	-1.5148220789	 0.125994
H	-1.6603396505	-0.6808050615	-2.0327235542	 0.113977
H	-3.8278650213	-1.4649246125	-1.0171878932	 0.134055
H	-4.1218541491	 0.1801936491	-0.4152462558	 0.117223
H	-4.1857958985	 1.039925371	-2.8082562476	 0.069274
H	-1.4833009284	-3.9363242987	 1.0352831818	 0.199748
