19
gdb 91858	2.98582	1.21919	0.99056	2.6865	76.47	-0.2546	-0.0356	0.219	1236.4705	0.158506	-423.037491	-423.028981	-423.028037	-423.071023	32.056	
C	-0.1600855069	 1.4297378549	-0.0824558525	-0.406728
C	 0.0164977987	-0.0864425864	-0.1218513691	 0.04482
C	 1.0720595746	-0.5804208792	-1.1528762258	-0.252426
C	 1.6716790629	-1.841416801	-0.5499926309	-0.023998
O	 2.6183547507	-1.5980988596	 0.4809493867	-0.281456
C	 1.2731349248	-1.9214173514	 0.8840076491	 0.304767
C	 0.4256789744	-0.7160629658	 1.2400345429	-0.317678
C	 1.1318341732	-3.2389665941	 1.5582290504	 0.090083
O	 0.2244942986	-3.5306916415	 2.2968085854	-0.260297
H	 0.776470557	 1.9247001392	 0.1993948592	 0.120327
H	-0.4649819431	 1.8211475009	-1.0587886164	 0.11574
H	-0.9245026169	 1.720763096	 0.6455086904	 0.119341
H	-0.942294892	-0.5381539153	-0.4063992594	 0.08338
H	 0.6252396682	-0.7771127713	-2.1317246461	 0.107566
H	 1.8697567489	 0.1573939892	-1.296379627	 0.119015
H	 1.8667302266	-2.7232912255	-1.1570770993	 0.105055
H	 1.0225314343	-0.0206715265	 1.840316121	 0.115874
H	-0.4382267507	-1.0182189726	 1.8365777019	 0.129862
H	 1.9521475467	-3.9483965	 1.3106800295	 0.086755
