17
gdb 71522	2.59789	1.53419	1.43672	2.5472	77.73	-0.2583	0.0118	0.2701	1003.3153	0.136181	-380.796528	-380.788833	-380.787889	-380.828522	29.811	
C	 0.0109341698	 1.49695621	-0.0241965766	-0.519074
C	-0.0064749656	 0.0019114746	-0.0951887851	 0.32304
C	 0.5762794144	-0.9344878988	-1.1626610794	-0.305194
C	 0.0547735488	-1.8508216565	-0.058966028	-0.035288
N	 0.567804017	-0.8978274643	 1.0486561939	-0.190686
C	-0.8016895203	-0.9413010508	 1.7110927632	-0.237627
C	-1.2058397342	-0.9740679295	 0.2393094822	 0.174684
C	-2.5083039643	-1.0280433952	-0.3813660127	 0.141432
N	-3.5496647053	-1.0601105186	-0.8846433572	-0.342711
H	 1.042579563	 1.8610259072	-0.055348144	 0.141959
H	-0.5320887084	 1.9253415432	-0.8726120697	 0.141095
H	-0.4529759055	 1.8623384144	 0.8971840497	 0.133121
H	 0.0614932676	-0.970550401	-2.1252919341	 0.11945
H	 1.6625502555	-0.9007314569	-1.2778287485	 0.117638
H	 0.1269263225	-2.9317761231	 0.0634857555	 0.101794
H	-0.9730082181	-1.8468878814	 2.2995304181	 0.118619
H	-1.0469606671	-0.0486516034	 2.2922801929	 0.117749
