25
gdb 114078	3.18321	1.09967	0.98499	0.058	92.75	-0.2846	0.0863	0.3709	1375.6225	0.230404	-352.363924	-352.35485	-352.353906	-352.397233	36.472	
C	-0.0444312602	 1.5820871201	 0.0597071242	-0.381238
C	 0.001724417	 0.0505490243	 0.0924252216	-0.200246
C	-1.3800386463	-0.5980405449	-0.0245765585	 0.062521
C	-2.0811382135	-0.4522149377	-1.4195638584	-0.262196
C	-2.3596240976	-1.9381287141	-1.7431895481	 0.356957
C	-3.0753689032	-2.2528535256	-3.0364909251	-0.497167
C	-2.8592358463	-2.4628500158	-0.3589034924	-0.265189
C	-1.4012063019	-2.1412599819	 0.0720069764	-0.03705
C	-0.9948371052	-2.5910299805	-1.3607328486	-0.260121
H	 0.9573594453	 2.0133287765	 0.151710811	 0.109111
H	-0.4791833014	 1.9500887189	-0.875896635	 0.117055
H	-0.6530324007	 1.9751764282	 0.8819993971	 0.111778
H	 0.652970287	-0.3118488836	-0.7129676659	 0.092836
H	 0.4686776543	-0.2757402196	 1.0313903607	 0.089468
H	-2.0172791312	-0.177412755	 0.7641880906	 0.058809
H	-3.0012373524	 0.139538714	-1.3776339722	 0.08841
H	-1.4257174125	 0.0072418721	-2.1686006942	 0.088606
H	-2.5103550938	-1.8861599859	-3.9018173676	 0.112124
H	-3.2166515248	-3.3316208795	-3.1632424137	 0.10963
H	-4.0646193331	-1.7807929501	-3.0662888866	 0.112221
H	-3.6747152571	-1.9236466826	 0.1350723437	 0.080718
H	-3.0717430026	-3.5352568075	-0.3744982053	 0.088052
H	-0.953618428	-2.5860181389	 0.9623064415	 0.051242
H	-1.0108433573	-3.678220265	-1.4756575618	 0.088939
H	-0.0819316546	-2.185070136	-1.8068642535	 0.084731
