15
gdb 28263	4.94035	1.20987	0.98389	2.7951	67.72	-0.1992	0.0455	0.2448	1121.4437	0.115286	-453.969593	-453.962233	-453.961289	-454.001575	27.521	
O	 0.1238486216	 1.2861741124	 0.1478204196	-0.423979
C	 0.0819387686	-0.0494605517	 0.0157672584	 0.420069
N	 0.0828073265	-0.7280808868	-1.1054780769	-0.448297
C	 0.0299252484	-2.0399701205	-0.672040211	 0.232318
C	-0.0012859348	-2.1308862223	 0.6739340109	 0.246544
C	-0.0586878895	-3.5434534338	 1.1355311362	-0.166878
O	-0.056536593	-4.2712836833	-0.1054792792	-0.283386
C	-0.0038490053	-3.4094458644	-1.2639714542	-0.171588
N	 0.0323226809	-0.8266616833	 1.1420728254	-0.433917
H	 0.1549302778	 1.6445027186	-0.7482838616	 0.317067
H	 0.8061223167	-3.8560210595	 1.7414296844	 0.107088
H	-0.9677072554	-3.7961665614	 1.7034838492	 0.107063
H	-0.8857076948	-3.5990858692	-1.8922937278	 0.111837
H	 0.8883310274	-3.6587675303	-1.8557842445	 0.111872
H	 0.0243512049	-0.4856917045	 2.087783631	 0.274187
