14
gdb 24992	4.7629	1.30482	1.04297	5.3454	63.57	-0.1972	0.0333	0.2305	1063.1613	0.103433	-473.856455	-473.849635	-473.84869	-473.887784	25.98	
O	 0.0613521462	 0.0357793376	 0.214303177	-0.366852
C	-0.0436327996	 1.222667515	 0.1287357738	 0.452747
N	-1.1696045432	 2.0217718798	 0.0405225869	-0.438191
C	-0.7652412065	 3.3472497166	-0.2473672911	 0.054445
C	 0.5628484947	 3.3188734826	-0.146979721	 0.449266
O	 1.2280534338	 4.4728854751	-0.0162762274	-0.265809
C	 0.1649209777	 5.4659936007	-0.2254482154	-0.088195
C	-1.2150671738	 4.7562253964	 0.0040389468	-0.336056
O	 1.0803238529	 2.0943258782	 0.0669192324	-0.247504
H	-2.0321412309	 1.5876498688	-0.2459024298	 0.273886
H	 0.3612220175	 6.2913488021	 0.4582460232	 0.136571
H	 0.2464956692	 5.8134355336	-1.2592346978	 0.133106
H	-1.9627668338	 5.157105651	-0.687308597	 0.120806
H	-1.5925652342	 4.9013534026	 1.0262754794	 0.12178
