21
gdb 84434	2.49729	1.62117	1.21984	1.1979	83.81	-0.2232	0.0205	0.2437	1117.6529	0.181317	-387.092962	-387.083763	-387.082819	-387.125998	36.064	
C	-0.1979340551	 1.5698477953	 0.0208931178	-0.401857
C	 0.0219171157	 0.051718645	-0.0234468125	-0.091246
C	 0.8415605476	-0.440664223	-1.199977352	-0.087532
C	 1.8328391286	-1.2521681836	-0.824846552	-0.145621
C	 1.8922938863	-1.4196977909	 0.6618149454	 0.261187
C	 2.2447216083	-2.7518396631	 1.2769992694	-0.48443
C	 2.2178742943	-0.119605946	 1.3999624655	-0.393086
C	 0.7816320718	-0.5267867368	 1.1777727966	 0.355074
O	 0.0275978576	-0.9417568734	 2.2793962438	-0.475797
H	 0.7534739672	 2.1099453088	 0.0538885061	 0.117103
H	-0.7491516663	 1.9153440145	-0.8597783151	 0.113903
H	-0.7803115381	 1.8521179712	 0.9051782564	 0.106314
H	-0.967446411	-0.4303869201	-0.0386424625	 0.088813
H	 0.6225471178	-0.1449207495	-2.220413621	 0.09088
H	 2.5379297394	-1.7373293726	-1.4918511446	 0.091904
H	 3.3033046968	-2.9933600045	 1.1280395336	 0.112349
H	 2.0434362615	-2.7417787827	 2.3513168147	 0.127609
H	 1.6508358892	-3.5593385241	 0.8352450074	 0.119352
H	 2.5750694125	-0.2269151112	 2.420334235	 0.105483
H	 2.65012629	 0.7047762682	 0.8424697845	 0.107357
H	-0.090765384	-0.1852975814	 2.8634861436	 0.282241
