17
gdb 88324	3.02801	1.06005	0.87575	3.4131	71.65	-0.2715	-0.0233	0.2482	1323.1337	0.13438	-455.139214	-455.129872	-455.128928	-455.174648	32.55	
C	-0.5704692747	 1.4099189154	 0.0740309009	-0.380906
C	 0.2130404739	 0.1219065885	 0.0813452914	 0.011983
N	 1.6850394437	 0.2240846365	 0.0520121997	-0.339853
C	 1.0167544905	-0.3684263262	 1.2293944342	-0.102559
C	 1.1297269158	 0.3565621397	 2.533145661	 0.374349
N	 0.1369406438	 0.855307448	 3.1258168843	-0.459175
O	 2.3787004367	 0.3043566685	 3.1527941025	-0.216477
C	 3.5265699119	 0.653079121	 2.4830818297	 0.139252
O	 4.5923872936	 0.516646029	 2.9969236938	-0.25199
H	-0.0553853128	 2.1867330479	 0.6400257751	 0.132732
H	-0.701618746	 1.7594196656	-0.9553039813	 0.117157
H	-1.5574887406	 1.2615205299	 0.5206251631	 0.13636
H	-0.2189111269	-0.6712643786	-0.5277073655	 0.095158
H	 2.0972675993	-0.5066988215	-0.5217028108	 0.242383
H	 1.0974891999	-1.4474363745	 1.3561322015	 0.120624
H	 0.4195513571	 1.2488028026	 4.0264325439	 0.238141
H	 3.3308503446	 1.0628714982	 1.4830639366	 0.142821
