16
gdb 7269	4.47321	1.2736	1.00387	2.1682	66.42	-0.253	0.0048	0.2578	1139.7071	0.129258	-417.097659	-417.088485	-417.087541	-417.13216	30.517	
C	-0.1254771465	 1.3883305467	 0.0738918515	-0.341579
N	-0.0382640374	-0.0582616531	-0.03162428	-0.151032
C	 0.0363286501	-0.7955593216	 1.2193850857	-0.346255
C	-0.0334749887	-0.6178456701	-1.2671501636	 0.551982
O	-0.0952914441	-0.0212432484	-2.3191622112	-0.414785
O	 0.0533579816	-1.9956512903	-1.179796578	-0.22781
C	 0.0688087193	-2.6962079047	-2.3541941428	 0.120699
N	 0.147771839	-3.9508481719	-2.2899696536	-0.434807
H	 0.752441247	 1.7872209681	 0.5966858534	 0.127548
H	-0.174913799	 1.8121534047	-0.9271332167	 0.172096
H	-1.0208444514	 1.6773981605	 0.637764348	 0.127539
H	-0.8516437134	-0.592258754	 1.8309082197	 0.128627
H	 0.0982068969	-1.8628736069	 1.0277986761	 0.177092
H	 0.9194864972	-0.4822476398	 1.7900266992	 0.12864
H	 0.0081653638	-2.049717444	-3.2295926346	 0.14558
H	 0.1495077755	-4.3404196152	-3.2313252931	 0.236464
