16
gdb 37191	3.66258	1.7492	1.64058	3.1098	66.85	-0.2391	0.0604	0.2995	852.6719	0.126193	-437.74868	-437.742753	-437.741809	-437.778602	25.531	
C	 0.1110662871	 1.4937675838	 0.2245447976	-0.179645
O	 1.5215237974	 1.431473564	-0.1462765088	-0.297254
C	 1.3092238872	 0.2290996342	-0.9323296475	 0.105781
C	 1.4838710867	-1.1768585919	-0.3313437993	-0.000086
O	 0.6976750234	-0.7567507732	 0.8171524392	-0.325316
C	-0.0346355512	 0.0439938658	-0.2065630995	 0.366873
C	-0.8020649367	-1.0475915091	-0.940090935	-0.17987
N	-0.2345286575	-1.2913016097	-2.2896797548	-0.333634
C	 0.3630885347	-1.9662325903	-1.1118983331	-0.038743
H	-0.0332209256	 1.6971358788	 1.2884311719	 0.125818
H	-0.4303138237	 2.2207517797	-0.393304756	 0.110316
H	 1.4446190578	 0.400729053	-1.9962812157	 0.112232
H	 2.4100311546	-1.7002790873	-0.0894222069	 0.082634
H	-1.7966240878	-1.3831560419	-0.6752147055	 0.106638
H	-0.824660514	-1.9614070353	-2.7806456917	 0.236513
H	 0.2849331077	-3.0407545106	-0.997921885	 0.107743
