18
gdb 45165	2.92625	1.80377	1.54686	3.116	74.2	-0.2116	-0.011	0.2005	914.5412	0.151749	-401.966523	-401.960103	-401.959159	-401.997187	26.973	
O	 0.0342751259	 0.0467772258	 0.5082885437	-0.337763
C	 0.0049037335	 1.1890821401	 0.1075793069	 0.40467
C	-1.3021428411	 1.9435930672	-0.16691603	-0.29983
N	-1.0832692945	 3.3169092225	-0.6466499214	-0.100661
C	-0.2267675648	 3.2641008246	-1.8522016986	-0.193879
C	 1.1792802345	 3.0076783202	-1.3139629418	-0.067366
C	 1.168430104	 3.5028302695	 0.0985598145	-0.067364
C	-0.2436024216	 4.0324330351	 0.3396155655	-0.193879
C	 1.225718927	 1.9963342345	-0.1659956679	-0.152072
H	-1.8846938756	 1.3820392232	-0.9056914947	 0.132615
H	-1.8974049028	 1.9633972458	 0.7527407761	 0.132619
H	-0.5942918757	 2.4985905825	-2.541745016	 0.111665
H	-0.2609544243	 4.2303542121	-2.3692879285	 0.10996
H	 2.0473793052	 3.0932068014	-1.9567111279	 0.097874
H	 2.0280557544	 3.9750945356	 0.5590446908	 0.097875
H	-0.2802257614	 5.1098853635	 0.1397459617	 0.109959
H	-0.6241933397	 3.8632057807	 1.3510815043	 0.111665
H	 2.1647391567	 1.4879581758	 0.0194292632	 0.103913
