18
gdb 77423	1.81462	1.68816	1.61567	1.2623	72.19	-0.1988	0.0654	0.2641	1026.1275	0.144788	-438.973127	-438.963961	-438.963016	-439.006715	34.564	
C	-0.1241309011	 1.6150517649	-0.0976743628	-0.432229
C	 0.1818818437	 0.1312993781	 0.0373843683	-0.148451
C	 1.4513148448	-0.6972421019	-0.178821794	 0.266994
O	 1.5385508486	-1.6880570153	-1.1415207302	-0.45472
C	 2.7288436576	-0.184881688	 0.5589280177	-0.127684
N	 2.4470282888	 1.0955908637	 1.2586135393	-0.339893
C	 2.0163658103	-0.1981784047	 1.8495721802	-0.090283
C	 0.7198651298	-0.711952299	 1.1680454169	 0.336453
O	 0.0219601438	-1.6716302779	 1.8796475418	-0.460969
H	-0.2026463025	 1.8890291608	-1.1568735464	 0.101418
H	-1.0925134362	 1.8360745083	 0.366692861	 0.108677
H	 0.6398004787	 2.2297029747	 0.3684343206	 0.157716
H	-0.6063416514	-0.4723592823	-0.4295198483	 0.076509
H	 1.5942832998	-1.2670378538	-2.0075598488	 0.286237
H	 3.7342340348	-0.5104322248	 0.3240413414	 0.099056
H	 3.3043348824	 1.3687148435	 1.7414127084	 0.229804
H	 2.3450611025	-0.5296350396	 2.8255502889	 0.103072
H	-0.6769464845	-2.0221901164	 1.317422606	 0.288293
