14
gdb 44978	3.83951	1.27014	1.08563	3.3395	68.56	-0.2506	0.0017	0.2523	1068.172	0.102201	-432.874437	-432.86714	-432.866196	-432.906284	27.958	
N	-0.0864917206	 1.2038619682	 0.4418209244	-0.571114
C	-0.0152178516	 0.0018727015	 0.0746100694	 0.451586
N	-1.1011741623	-0.8484315139	-0.1050191279	-0.38997
C	-0.7043682943	-2.0527052644	-0.7646463155	 0.172458
C	 0.0391120622	-1.9121607977	-2.0998997883	-0.352607
C	 0.8063297502	-1.9258986137	-0.8124872529	 0.054167
O	 1.1393155579	-0.6995688875	-0.2163827154	-0.238551
C	-1.3940266198	-3.2670371136	-0.4275124476	 0.24594
N	-1.9545591637	-4.2498205265	-0.1892192243	-0.333441
H	 0.8377697771	 1.6233171971	 0.5008392852	 0.235841
H	-1.9923737202	-0.4168779457	-0.2950780343	 0.275165
H	 0.1119113043	-2.8020041254	-2.7150323498	 0.152889
H	-0.0823705855	-0.97428453	-2.6302654711	 0.148055
H	 1.4796486664	-2.7311385484	-0.5512791122	 0.149581
