22
gdb 72604	2.05293	1.88655	1.59436	1.5377	85.07	-0.2248	0.0869	0.3117	1032.2265	0.194173	-367.169353	-367.160759	-367.159815	-367.201718	34.588	
C	-0.1664608509	 1.5999515948	-0.1045392209	-0.493637
C	-0.0109890382	 0.0993273994	 0.0316380487	 0.297699
C	 0.9114941789	-0.6248907442	-0.9886191058	-0.276828
C	 1.5961828449	-1.4170580589	 0.159606322	-0.258904
C	 0.7106442396	-0.7000290381	 1.207944918	 0.302704
C	 1.3848624453	-0.1301521232	 2.4326954371	-0.492939
N	-0.5086654013	-1.5486668082	 1.4498365356	-0.15488
C	-1.6052721544	-0.6249305199	 1.7885055358	-0.265085
C	-1.2284189558	-0.7489070121	 0.3681751339	-0.072137
H	 0.8091952086	 2.0986482155	-0.1257428203	 0.113436
H	-0.6820055287	 1.8523393407	-1.0398642189	 0.118081
H	-0.7453089926	 2.0305696213	 0.7187121347	 0.113351
H	 0.3953514755	-1.2175864886	-1.7493196117	 0.096197
H	 1.5907253975	 0.0632787687	-1.4991496863	 0.095478
H	 1.457602704	-2.5001417948	 0.1498542718	 0.109516
H	 2.6615080743	-1.1978136454	 0.2672006529	 0.095017
H	 2.2172932103	 0.5224781932	 2.1496291274	 0.116108
H	 0.7007063595	 0.4525598114	 3.0568647874	 0.114746
H	 1.7892064607	-0.9434784321	 3.0470999002	 0.128654
H	-2.5004827644	-1.144238417	 2.1163704214	 0.118721
H	-1.3941617292	 0.2904758207	 2.3361334679	 0.108319
H	-1.8684952933	-1.2400700831	-0.3604700709	 0.086381
