18
gdb 72563	2.42349	1.97906	1.4871	2.2964	71.38	-0.2616	0.0256	0.2872	945.1335	0.149799	-439.114938	-439.107592	-439.106648	-439.146385	29.435	
C	-0.0310397936	 1.5039801858	-0.0114090095	-0.479701
C	 0.0118422027	-0.0078619082	 0.0233650298	 0.147466
C	 0.7506271054	-0.6983881814	-1.1575834612	-0.104025
O	 0.9207913467	-2.0621072727	-0.7131211435	-0.258652
C	 0.3519399825	-2.1003309967	 0.5714216722	 0.190266
C	 0.710821008	-0.7522600348	 1.1928982973	-0.291288
O	-1.0875478633	-2.0141365849	 0.4485215409	-0.254547
C	-1.3374795204	-0.7101420818	 0.0813796068	 0.429234
N	-2.4666220909	-0.2115157534	-0.1696272173	-0.568855
H	 0.9784393314	 1.9234524147	-0.0684736759	 0.112972
H	-0.6038404422	 1.849281041	-0.8764525531	 0.143563
H	-0.5220216342	 1.8993517417	 0.8816067429	 0.133431
H	 0.1755629468	-0.6840529867	-2.0880963371	 0.126329
H	 1.7333087821	-0.2429226132	-1.3315514236	 0.107159
H	 0.6022085422	-3.0371997061	 1.0625245554	 0.104575
H	 1.7878209841	-0.5800706077	 1.2465126352	 0.115083
H	 0.2434315294	-0.5811764176	 2.1642535963	 0.121149
H	-3.2037538867	-0.912001688	-0.0708304955	 0.225842
