17
gdb 93383	3.20378	1.36062	1.06526	1.7157	67.97	-0.2509	-0.0377	0.2132	1102.0032	0.136311	-458.969809	-458.961926	-458.960982	-459.002479	30.179	
O	 0.0830701265	 1.3638204292	-0.2874280252	-0.435858
C	 0.0335167706	-0.0359960024	-0.0551437498	 0.115682
C	 0.8414255562	-0.4469963566	 1.1823275134	-0.256239
C	 0.7663236584	-1.9559759507	 1.4487751866	-0.329036
C	-0.6358500382	-2.5559278433	 1.441956776	 0.410599
O	-0.8667774496	-3.6674724161	 1.8569809495	-0.311617
C	-1.735466765	-1.7385741674	 0.81009708	-0.075567
O	-1.9604507288	-0.4336741702	 1.374285279	-0.247513
C	-1.4026956655	-0.5107601384	 0.0611908758	 0.01187
H	-0.3126227601	 1.798501722	 0.477158236	 0.287851
H	 0.4717920303	-0.4861609762	-0.9554042982	 0.098453
H	 1.8804017656	-0.1362303866	 1.0430596989	 0.114053
H	 0.4484446246	 0.1007496258	 2.0454084405	 0.116172
H	 1.3122358448	-2.5000061637	 0.6639145435	 0.13813
H	 1.2499267856	-2.2299973808	 2.3905882193	 0.137926
H	-2.6398470002	-2.2997305605	 0.5838118727	 0.114566
H	-2.0739094754	-0.1924293739	-0.7359416981	 0.110529
