22
gdb 122940	5.06723	0.49684	0.47923	3.8623	81.66	-0.2401	0.0322	0.2723	2269.8937	0.192428	-441.505753	-441.494533	-441.493589	-441.543782	38.211	
C	-0.1791625432	 1.4191753205	 0.0363645643	-0.347965
N	 0.0248639621	-0.0169028484	-0.0448660368	-0.026814
C	-0.0279834263	-0.8079248491	 1.1722483751	-0.18335
C	-1.4412348653	-0.9865464392	 1.7463035215	-0.192476
C	-1.4400073582	-1.8277148583	 3.0254670168	-0.16241
C	-2.8332966022	-2.0209864407	 3.6100373318	-0.074543
O	-2.7056102609	-2.8062926767	 4.7846812516	-0.420523
C	 0.2786062704	-0.5932160384	-1.2547900022	 0.15096
O	 0.3308464901	-0.0139757524	-2.319755198	-0.343847
H	 0.509940169	 1.8618820366	 0.7655101146	 0.122383
H	 0.0134974097	 1.8369309757	-0.951890532	 0.169057
H	-1.2041697324	 1.6682221344	 0.3337216526	 0.126952
H	 0.4008802076	-1.7917395777	 0.9510383664	 0.118108
H	 0.620709899	-0.3428956619	 1.9277036614	 0.10868
H	-1.8813304987	-0.0030718147	 1.9527405855	 0.103882
H	-2.0732522223	-1.4564071412	 0.982139322	 0.106298
H	-1.0073872024	-2.8167952264	 2.829832911	 0.10874
H	-0.8075952366	-1.3572807643	 3.7885458438	 0.108552
H	-3.2823486507	-1.0387575131	 3.8323648845	 0.085274
H	-3.4822644253	-2.5136698915	 2.8674858771	 0.087074
H	-3.5825929798	-2.9402986078	 5.155454906	 0.28709
H	 0.4414594463	-1.6851588954	-1.1579758669	 0.068874
