20
gdb 112653	3.13667	1.04839	0.83787	4.5407	76.32	-0.2345	0.039	0.2735	1390.7556	0.171509	-440.337512	-440.328137	-440.327193	-440.371938	34.602	
C	-0.09002724	 1.6022074954	-0.0010169288	-0.399435
C	 0.105245972	 0.0892967973	 0.0100709424	-0.099245
C	 0.842630599	-0.5187572279	-1.1971662763	-0.251421
C	 1.5537316239	-1.7659419804	-0.6270352886	 0.046477
C	 2.8836076011	-2.0843635042	-1.2917741785	-0.084752
O	 3.427605445	-3.2121049868	-0.6205524705	-0.427728
N	 1.7286636986	-1.4082592911	 0.7696930594	-0.313741
C	 0.9338023869	-0.3902741378	 1.2152915383	 0.416556
O	 0.8831370335	 0.0425154436	 2.3468453465	-0.391011
H	 0.8612475642	 2.1188377679	-0.1687143738	 0.116174
H	-0.7867037048	 1.9095913879	-0.7868212918	 0.10927
H	-0.4815712355	 1.9300988883	 0.9653105408	 0.142655
H	-0.8758562184	-0.3950514114	 0.118505221	 0.100969
H	 0.1856264556	-0.7660465111	-2.0338166954	 0.107927
H	 1.5939871479	 0.1927300109	-1.5623175683	 0.104298
H	 0.9136095923	-2.6565994067	-0.7219368719	 0.087359
H	 2.7167586812	-2.2897299742	-2.3610300827	 0.091655
H	 3.5460673461	-1.2093113449	-1.2084559281	 0.09367
H	 4.308889282	-3.3798731502	-0.9661950551	 0.293355
H	 2.2817939394	-1.9696958045	 1.3977312114	 0.25697
