21
gdb 89176	2.30755	1.53656	1.16182	1.4344	79.43	-0.2412	0.0719	0.3131	1151.3532	0.18025	-424.196886	-424.187192	-424.186248	-424.23032	37.669	
C	-0.0895935071	 1.5840715027	 0.0766927225	-0.461072
C	 0.0637123871	 0.0786148629	 0.0808251411	 0.365743
O	-1.0784543004	-0.5786406316	-0.4275954853	-0.474137
C	 1.3401369686	-0.6765364932	-0.2436836442	-0.189761
C	 2.5860831984	-0.0462829814	 0.3479285042	 0.11364
O	 2.9919546046	 1.1641101245	-0.2643323441	-0.432632
C	 1.9032461467	-0.0103967156	 1.7606212492	-0.355564
C	 0.6905338114	-0.744744255	 1.1694366254	 0.298939
C	-0.0106470522	-1.8773330708	 1.8633593306	-0.493848
H	 0.8189421011	 2.0938480571	 0.3945368375	 0.137624
H	-0.3075019805	 1.9307538079	-0.9414026921	 0.103155
H	-0.9258482139	 1.8821533554	 0.7181588694	 0.114216
H	-1.1657359277	-0.3277295761	-1.3535790045	 0.280357
H	 1.3267497151	-1.4194542822	-1.0337536671	 0.077016
H	 3.414409158	-0.7675287146	 0.3500056125	 0.074856
H	 3.8045317165	 1.4565890499	 0.1609562478	 0.281619
H	 2.4405983415	-0.6083175242	 2.5015475661	 0.098562
H	 1.7178410412	 0.9829166638	 2.1795277659	 0.096852
H	-0.5187041047	-1.5227440786	 2.7689638896	 0.115393
H	-0.7613527543	-2.3286761522	 1.2127652824	 0.141241
H	 0.7010274005	-2.6528771086	 2.1694359331	 0.1078
