14
gdb 15966	3.1877	1.92646	1.36646	3.7364	62.03	-0.2628	0.0048	0.2676	876.954	0.107537	-378.67762	-378.670543	-378.669598	-378.709194	25.854	
N	-0.2994341691	-0.9865724552	-0.6883272406	-0.325999
C	-0.1581743384	 0.0973405088	-0.3129030383	 0.306107
C	 0.0476175588	 1.4754530948	 0.1298813636	-0.213955
N	 0.1455284694	 1.6665407001	 1.5986355041	-0.313432
C	 1.3194301583	 2.5716087557	 1.4584599901	-0.255106
C	 1.4692253415	 2.0738046244	 0.0208224592	 0.422535
C	 2.6238121268	 1.5962128416	-0.7298065333	-0.250563
O	 1.9315462997	 2.8181979074	-1.0678978129	-0.254601
H	-0.678705953	 2.1250970073	-0.3778479358	 0.127296
H	-0.6773324334	 2.081288759	 2.0197038519	 0.236925
H	 1.0868550195	 3.6441255683	 1.4904040345	 0.118063
H	 2.1332152684	 2.3562455597	 2.1569434747	 0.127015
H	 3.6231538762	 1.7288506092	-0.320160399	 0.130041
H	 2.5032168854	 0.7825942089	-1.4419499182	 0.145676
