21
gdb 70866	2.76712	1.54686	1.18638	1.413	83.09	-0.2251	0.0779	0.303	1126.1098	0.181141	-387.051148	-387.042296	-387.041351	-387.083649	35.469	
C	-0.0815072782	 1.4685308498	 0.0527654821	-0.502324
C	 0.0385315829	-0.0250099133	 0.0086373423	 0.308843
C	 0.9226605506	-0.8672368745	-0.909725221	-0.32032
C	 0.0749967875	-2.0892497072	-0.4489767765	 0.324576
C	-0.0930776185	-3.3072816844	-1.3184840517	-0.501218
C	 0.4571899059	-2.228414247	 1.0596219143	-0.338336
C	-0.2544979971	-0.8944725659	 1.2383228537	 0.357508
O	-0.5958047034	-0.2670266139	 2.4205291321	-0.464013
C	-1.0701809972	-1.0711744661	-0.0267439412	-0.277022
H	 0.8650769764	 1.930184357	 0.3582685674	 0.11836
H	-0.3490297195	 1.8756082476	-0.9288484752	 0.110659
H	-0.8437839462	 1.7765406526	 0.7736270258	 0.129243
H	 0.7411864407	-0.6239092427	-1.962450395	 0.088904
H	 2.0039798252	-0.9022380471	-0.7234235466	 0.08113
H	 0.8621109669	-3.8320826195	-1.441793008	 0.117647
H	-0.8070429665	-4.0153968146	-0.8833864829	 0.113475
H	-0.4548429813	-3.0368018812	-2.3165694199	 0.115746
H	-0.0979401857	-3.0455753745	 1.5350980302	 0.081856
H	 1.5217935795	-2.3076213492	 1.3113629391	 0.08701
H	-1.2436650507	-0.815102616	 2.8764809677	 0.284151
H	-2.1271541913	-0.99870609	-0.2425046268	 0.084125
