20
gdb 107425	2.74475	1.4637	1.34393	1.1885	77.32	-0.2231	0.0688	0.2918	1075.4148	0.171572	-403.112032	-403.104001	-403.103057	-403.144549	31.638	
C	-0.2256148958	 1.5580664245	-0.1426757916	-0.381802
C	 0.1686983996	 0.0861566355	 0.0343554959	-0.282132
C	 0.7609061984	-0.5322608367	-1.2140595339	 0.310994
C	 1.8934462125	-1.497047703	-1.1831736014	-0.293455
N	 2.1268938079	-0.1125425004	-1.6233091622	-0.146932
C	 2.1292587402	 0.1205884936	-3.085452578	-0.199859
C	 0.7330265879	-0.1760960555	-3.6107754013	 0.036473
O	 0.3273333695	-1.5416314462	-3.447085967	-0.253552
C	-0.094719632	-0.5842464612	-2.4658812271	-0.021978
H	 0.6437319393	 2.1489999062	-0.4462559191	 0.131857
H	-1.0019875565	 1.6847718622	-0.9049054001	 0.112569
H	-0.6117061371	 1.9751308516	 0.7921372945	 0.114532
H	 0.9054207758	 0.0032469424	 0.8399558992	 0.108035
H	-0.7024958159	-0.5052601392	 0.3459700229	 0.098627
H	 2.3589896311	-1.7439593162	-0.2316919303	 0.106915
H	 1.8963963866	-2.2890142724	-1.9247564438	 0.132107
H	 2.3694967615	 1.1753713384	-3.2635817043	 0.111749
H	 2.8971163487	-0.4857298179	-3.5773644783	 0.119852
H	 0.3469398608	 0.3260685575	-4.4959048914	 0.09879
H	-1.1666410326	-0.4187648132	-2.4031585228	 0.097211
