18
gdb 81947	2.38036	1.77642	1.192	4.3231	70.83	-0.2346	-0.0208	0.2139	1054.4836	0.147646	-439.086186	-439.077656	-439.076712	-439.119594	32.073	
C	 0.2370110085	 1.6310012924	 0.0419296355	-0.396565
C	 0.1008115865	 0.1103906193	 0.0055974501	-0.093815
C	 0.7662409831	-0.5947142023	-1.1644729253	-0.052188
N	 2.2394704552	-0.6184311221	-1.0272027145	-0.348845
C	 1.4522720359	-1.8309401663	-0.7064260114	-0.082509
C	 1.2870629266	-1.9784212004	 0.7924969116	 0.058548
O	 2.427308381	-2.3871386803	 1.5003702982	-0.420244
C	 0.76141033	-0.5779013975	 1.2125698508	 0.323538
O	 0.9118256946	-0.0949298356	 2.3021291686	-0.304326
H	 1.2854248919	 1.9158536868	-0.0821844328	 0.136031
H	-0.348181682	 2.1005717979	-0.7543142139	 0.108552
H	-0.1078516836	 2.0153798488	 1.0050006173	 0.137581
H	-0.9639619695	-0.1698498203	 0.0237240185	 0.101313
H	 0.334177519	-0.5290814959	-2.1576862879	 0.093557
H	 2.6741451157	-0.7198075693	-1.9401358389	 0.239637
H	 1.5440429585	-2.708417143	-1.3368801675	 0.096404
H	 0.5051014772	-2.7184606587	 1.0118295287	 0.111067
H	 3.0784802815	-1.6804633334	 1.4147084828	 0.292263
