18
gdb 40395	3.98846	1.2592	1.14774	1.413	75.04	-0.2127	0.0679	0.2806	1103.4133	0.147795	-401.830044	-401.822582	-401.821638	-401.862291	29.555	
C	-0.4474094413	 1.1176627183	-0.5705589975	-0.176938
O	 0.6397135237	 1.5072756926	 0.2629818975	-0.225247
C	 0.3094112361	 0.1118238804	 0.1892839862	-0.0865
C	-0.2252008947	-0.5164012631	 1.4159418258	 0.356128
N	-1.2934879983	-1.554490382	 1.3650928233	-0.378029
C	-1.4773705124	-0.3195091086	 2.1719885664	-0.126791
C	-0.7184609037	-0.4807621331	 3.5208705366	-0.052087
C	 0.0174857183	-1.7915401416	 3.6171231638	-0.294679
C	 0.5740833969	-0.6970646693	 2.7470598667	-0.108975
H	-1.4333521852	 1.4241961128	-0.2237472227	 0.113163
H	-0.2805745286	 1.2160309908	-1.6423910775	 0.117732
H	 1.0531804672	-0.4770615711	-0.3513992924	 0.099806
H	-1.79863034	-1.4105084789	 0.4900650763	 0.226081
H	-2.311483593	 0.3465163839	 1.9911932728	 0.095817
H	-0.8871070643	 0.1693676087	 4.3686894908	 0.092493
H	 0.5524529885	-1.9338061331	 4.5511768194	 0.107936
H	-0.3964600882	-2.6899752902	 3.1781373601	 0.141513
H	 1.534881059	-0.2275944565	 2.9105208646	 0.098579
