16
gdb 37061	3.29988	1.80859	1.56617	1.0469	66.62	-0.2528	0.0036	0.2564	869.6144	0.127037	-437.869496	-437.863136	-437.862192	-437.899943	25.922	
C	 0.0088529347	 1.4684584724	-0.0510416165	-0.377565
C	 1.3306153833	 0.7586223719	 0.0086947808	 0.323398
C	 1.9974014364	 0.4894426302	 1.3345726424	-0.151422
O	 0.9351993459	-0.0014056142	 2.1624407464	-0.266525
C	-0.0227171446	-0.7130415667	 1.3619766424	-0.146215
C	 0.0478920018	-0.0432949669	 0.0063657448	 0.251622
N	 0.0348316548	-0.7623983054	-1.2489807008	-0.312837
C	 1.1057459363	-0.4122875225	-1.8431504518	 0.071119
O	 1.9655292249	 0.4553789138	-1.2225635392	-0.256234
H	-0.2995096778	 1.9915897389	 0.847648418	 0.137027
H	-0.2823810277	 1.9255278906	-0.9893974169	 0.13019
H	 2.794264856	-0.2562981722	 1.1896549375	 0.107021
H	 2.4141050246	 1.360632539	 1.8475995409	 0.117205
H	 0.2411942924	-1.775417625	 1.2567470579	 0.108041
H	-0.9815789612	-0.6340560234	 1.8814322358	 0.116517
H	 1.4249189701	-0.7340772406	-2.8274169016	 0.148657
