14
gdb 11216	4.62379	1.36137	1.20517	2.4794	58.05	-0.2683	-0.0427	0.2256	963.2626	0.106954	-419.728054	-419.720764	-419.71982	-419.760779	25.333	
O	-0.3076825347	 0.1273962698	 0.088295544	-0.241207
C	-0.077876366	 1.3066019425	 0.1295344917	 0.159822
C	 1.3062624328	 1.9150896261	 0.0108590417	-0.111116
C	 1.3584920833	 2.9347053696	-1.1572368113	-0.108225
O	 1.114655906	 4.2259520321	-0.5916312154	-0.210543
C	 1.2960656302	 4.2265449149	 0.7594243177	 0.43611
O	 1.1984899472	 5.2164363337	 1.4194513361	-0.323353
C	 1.6278085987	 2.8099029137	 1.2211204667	-0.386122
H	-0.8981248664	 2.0517681536	 0.2584702781	 0.092975
H	 2.0191399284	 1.1016679205	-0.1304937482	 0.112732
H	 2.3429495343	 2.9326509644	-1.6371687831	 0.131771
H	 0.5988169582	 2.7564828433	-1.9232394079	 0.13741
H	 1.0652079129	 2.5740866409	 2.1269746088	 0.154325
H	 2.6902356552	 2.7699661747	 1.4803457611	 0.155421
