23
gdb 91762	2.30228	1.71192	1.54356	1.398	83.77	-0.235	0.0765	0.3115	1046.8662	0.209532	-388.324025	-388.316188	-388.315244	-388.355743	32.58	
C	-0.130143223	 1.5228619509	-0.0762196525	-0.415343
C	-0.0052591516	 0.011392185	 0.0377188033	 0.161629
O	 0.6511614537	-0.5251389849	-1.1274785174	-0.301047
C	 1.5152757159	-1.6047492743	-0.7277107566	 0.121558
C	 1.0256976416	-1.9866033637	 0.6752401687	-0.233425
C	 0.7834350796	-0.5717942299	 1.2276423173	-0.033113
C	 2.1497167388	 0.1014523408	 1.4828706432	-0.212327
C	 3.0471773079	 0.1592068938	 0.2246364344	-0.192544
C	 2.9673123893	-1.1087630011	-0.6489175713	-0.203799
H	 0.8413458519	 2.0217964716	-0.0863960974	 0.121755
H	-0.6538507164	 1.7838013382	-1.0004466752	 0.12546
H	-0.711773424	 1.915329284	 0.7647497357	 0.110532
H	-1.0260011536	-0.4053966103	 0.0782010006	 0.063192
H	 1.4098796293	-2.4094884094	-1.4622100514	 0.06638
H	 0.0958759619	-2.5623875086	 0.6284805908	 0.094539
H	 1.7617833944	-2.5615028611	 1.2431479033	 0.091839
H	 0.1807676982	-0.5639232979	 2.1409413311	 0.060726
H	 2.0131772862	 1.1143097557	 1.8786555832	 0.09426
H	 2.6537524237	-0.4679354447	 2.2743000134	 0.092125
H	 2.7399464274	 1.0064900605	-0.3942320488	 0.113297
H	 4.0841664519	 0.3546901837	 0.51798405	 0.08906
H	 3.5885198677	-1.9157038397	-0.2395653347	 0.088621
H	 3.3497043292	-0.8904845588	-1.6516862999	 0.096625
