16
gdb 85786	3.11875	1.22579	0.92445	1.8633	67.61	-0.2419	-0.0178	0.2241	1216.0783	0.125145	-471.263852	-471.254753	-471.253809	-471.298333	32.28	
N	 0.0398095212	 1.5054912108	 0.185730908	-0.506488
C	 0.0044345182	 0.0739424417	-0.0050676418	-0.117079
C	-1.4099103751	-0.5902962985	-0.0718006322	-0.170982
N	-1.0163067794	-1.1592376698	-1.3676284468	-0.157678
C	-1.730026958	-1.9905088861	-2.2521318808	 0.466703
N	-1.018128223	-2.2775104322	-3.3725952677	-0.567101
O	-2.8465314257	-2.3805174877	-1.987347611	-0.386764
C	 0.2259211571	-0.5492582869	-1.4145918882	 0.397956
O	 1.0720942605	-0.5376812754	-2.2754721181	-0.38422
H	 1.0000389983	 1.8350436644	 0.1821834704	 0.246891
H	-0.4336603009	 1.9824638487	-0.5766550751	 0.237496
H	 0.6512042122	-0.4015849332	 0.737788508	 0.120249
H	-1.6345876266	-1.3385063588	 0.6901987226	 0.136661
H	-2.2322579852	 0.1255429223	-0.1449744735	 0.132619
H	-0.1133438903	-1.8562457544	-3.530110309	 0.282906
H	-1.4663376833	-2.828016665	-4.0834139349	 0.26883
