14
gdb 47195	2.42886	1.75359	1.06992	4.1324	65.72	-0.2733	-0.0712	0.2022	1043.1425	0.102882	-473.89182	-473.884518	-473.883574	-473.924092	26.974	
O	-0.0416093488	-0.0509544941	 0.0689230361	-0.348728
C	 0.0187966341	 1.1400938261	-0.063888022	 0.457668
N	-1.1352954408	 1.9030070686	-0.3059308263	-0.420031
C	-1.5482429942	 3.1748456623	 0.1267799104	 0.385651
O	-2.7363252568	 3.4150624274	 0.1804074794	-0.337745
C	-0.5423378321	 4.202160389	 0.4679198286	-0.112753
C	 0.7356149412	 4.1911038577	 0.0910404331	-0.083934
C	 1.3627483127	 3.0522378931	-0.6609083302	-0.148777
O	 1.1959731761	 1.7879764448	-0.0007595738	-0.218246
H	-1.9378998198	 1.2979935234	-0.4371799613	 0.274868
H	-0.9689563374	 5.0458362914	 0.9983565708	 0.135382
H	 1.3708693141	 5.0396637109	 0.3275350065	 0.127951
H	 0.9622446076	 2.9865772111	-1.680382492	 0.144562
H	 2.4437601741	 3.1792252682	-0.7296152192	 0.144134
