16
gdb 19114	4.47393	2.19981	2.13645	1.6766	65.69	-0.2345	0.0796	0.3141	702.534	0.132528	-346.524532	-346.518852	-346.517908	-346.553932	24.116	
O	 0.1083465436	 1.4529955216	-0.0731583134	-0.444577
C	 0.0228060509	 0.0553015285	-0.0104561955	 0.158225
C	 0.273940398	-0.6941164968	 1.3215708115	-0.107864
C	-0.8595388886	-0.2712275653	 2.2870939358	-0.089822
C	-2.0551293903	-0.2417312595	 1.3154971995	-0.089802
C	-1.6855254341	-1.5121245813	 2.0439758635	-0.096122
C	-0.7254989081	-1.8215619531	 0.853161448	-0.057156
C	-1.3541754659	-0.653829627	-0.0015775625	-0.107875
H	-0.4532081501	 1.8021632077	 0.6285839063	 0.282729
H	 0.6613706773	-0.338723703	-0.8081759889	 0.087196
H	 1.2694422909	-0.8791587935	 1.7214987667	 0.064943
H	-0.8095041271	 0.3461360042	 3.174288826	 0.087568
H	-2.9151340851	 0.3980684987	 1.4631558635	 0.087569
H	-2.253654013	-2.1319275299	 2.724277854	 0.088683
H	-0.4294444002	-2.7892572519	 0.4594034133	 0.071365
H	-1.9541314581	-0.7993934294	-0.8982769179	 0.064939
