16
gdb 50254	2.39472	1.67202	1.25901	2.5866	68.98	-0.2435	-0.0435	0.2	1012.3471	0.123089	-437.855763	-437.847844	-437.8469	-437.889403	28.68	
O	-0.6637593731	 0.7184958847	-0.6306803472	-0.239924
C	 0.3441984701	 0.7952169786	 0.0251831571	 0.142027
C	 1.3149887846	 1.9480101974	-0.0473455909	-0.107446
C	 0.9420389626	 3.1612242755	-0.9298092874	-0.198233
N	 1.0485317364	 4.1085666521	 0.2309946484	-0.123325
C	-0.270243102	 4.3900476801	 0.8804835453	-0.30689
C	-0.0476763678	 3.2090984268	 1.8451940768	 0.404346
O	-0.6432703508	 2.7192798884	 2.7553624285	-0.278428
C	 1.3099517169	 2.9427208062	 1.1625567888	-0.141698
H	 0.6185161129	 0.001194431	 0.7540527902	 0.092351
H	 2.319522996	 1.548527658	-0.2181754293	 0.110835
H	 1.6560752468	 3.3989431479	-1.7210846751	 0.118641
H	-0.0606099048	 3.0879547261	-1.3617699091	 0.13145
H	-0.293106612	 5.3649462175	 1.3799424993	 0.143105
H	-1.1465227675	 4.3087550988	 0.2278319926	 0.142983
H	 2.1936317616	 2.961052641	 1.805535202	 0.110207
