18
gdb 74083	3.02422	1.36154	1.01958	3.6009	81.43	-0.2409	-0.0462	0.1947	1182.2831	0.148252	-401.973593	-401.965355	-401.964411	-402.006437	31.205	
C	-0.0302571073	 1.4713723243	 0.0469512134	-0.484525
C	-0.0001088859	-0.0194258492	-0.01044748	 0.310496
C	-0.0382716113	-0.7892347698	-1.1140751727	-0.292856
C	 0.022317391	-2.2151629228	-0.7570243637	 0.347221
O	 0.0932787687	-3.1852043449	-1.4847496063	-0.367764
C	 0.0240771833	-2.275449237	 0.7536877831	 0.234067
C	-0.6908163241	-3.4101749495	 1.4022102142	-0.271869
N	 0.7710551537	-3.3645543342	 1.3979534595	-0.352905
C	 0.0902704085	-0.8455823872	 1.2586201488	-0.402426
H	 0.8672487643	 1.8575437191	 0.545993927	 0.141959
H	-0.0939994731	 1.9181064298	-0.9478053456	 0.135823
H	-0.8857682496	 1.8176675857	 0.6402784379	 0.140214
H	-0.0861793267	-0.4396816689	-2.1378066489	 0.113294
H	-1.1555859859	-3.2532221543	 2.3720261867	 0.118909
H	-1.1901399069	-4.1166210604	 0.7443276613	 0.131601
H	 1.1104980049	-3.9766915524	 0.6540861774	 0.244448
H	 1.0311358926	-0.6514185732	 1.7882113606	 0.13546
H	-0.7190831762	-0.5911003552	 1.9542584274	 0.118853
