15
gdb 31330	2.73036	1.33812	0.90319	6.0456	74.68	-0.2283	-0.0472	0.1811	1220.6453	0.112141	-457.788892	-457.780728	-457.779783	-457.822195	29.033	
C	-0.0346627233	 1.4109669133	-0.0204829813	-0.255173
O	 0.0090069762	-0.0094701321	 0.0076885833	-0.252692
C	 0.6338781335	-0.5748413124	 1.0520455925	 0.276595
C	 0.7577847988	-1.9438327116	 1.2169237378	 0.147363
O	 1.4464337118	-2.1827126345	 2.3811530859	-0.154422
C	 1.7420496167	-0.995178001	 2.9240082283	 0.024028
C	 1.2770096998	 0.0419554822	 2.1672299364	-0.328771
C	 0.3017887464	-3.0451628357	 0.4036003226	 0.06638
O	 0.4684240623	-4.2229872321	 0.6475394773	-0.300817
H	 0.9747700701	 1.8379042187	-0.0555028015	 0.13295
H	-0.5736579585	 1.6805817263	-0.9291123178	 0.148253
H	-0.5683423239	 1.8084495012	 0.8510995839	 0.132945
H	 2.28869557	-1.0231947933	 3.8534999281	 0.15254
H	 1.3829414927	 1.0919393959	 2.3826516337	 0.128382
H	-0.2384416627	-2.7027079747	-0.5044619691	 0.082437
