20
gdb 63158	2.94927	1.41029	1.32702	2.1156	79.52	-0.2295	0.0235	0.253	1078.2441	0.171752	-403.152917	-403.144303	-403.143359	-403.185828	32.854	
C	 0.0376911898	 1.5535007972	 0.0140532363	-0.464737
C	 0.047777278	 0.0374813283	-0.0242498469	 0.301205
C	-1.1858227228	-0.592768392	 0.5983938921	-0.447217
C	 0.6583546517	-0.7088878448	-1.1934220788	-0.136126
C	 1.4077499167	-0.0188048363	-2.3120937045	-0.100005
O	 2.5510925306	 0.7570883783	-1.897757326	-0.23215
C	 3.0719326729	 0.5629308118	-0.6642477883	 0.112826
N	 2.602258374	-0.0791907644	 0.3197333261	-0.254963
C	 1.3477918967	-0.7425163698	 0.1526946946	-0.039919
H	 0.909018834	 2.0028847554	-0.4637620534	 0.137226
H	-0.8539385227	 1.9369247923	-0.4961733525	 0.112761
H	 0.0023051685	 1.9106627412	 1.0490090351	 0.122952
H	-2.0939977064	-0.2893116362	 0.0640563245	 0.114611
H	-1.135640767	-1.6859580624	 0.5756402606	 0.113835
H	-1.2963472798	-0.2847338061	 1.6443486786	 0.120741
H	 0.142433504	-1.6068715302	-1.5227634508	 0.086209
H	 1.7772122126	-0.7766776937	-3.012814213	 0.120583
H	 0.7755292264	 0.6769089631	-2.8747870074	 0.118171
H	 4.0224608298	 1.0865927659	-0.5842808045	 0.123726
H	 1.2759828031	-1.6474430577	 0.748105448	 0.090273
