19
gdb 69547	2.65206	1.56686	1.36754	0.7394	74.87	-0.2319	0.0599	0.2918	1038.3853	0.158297	-422.964586	-422.956478	-422.955534	-422.996597	32.479	
C	-0.0017740013	 1.5488189304	 0.0204494172	-0.50661
C	 0.0380514926	 0.0475249979	 0.0016126231	 0.358446
C	-0.8487363902	-0.8283878353	 0.8362095271	-0.349679
C	 0.6410252196	-0.9591109752	 1.0045491381	-0.14653
C	 1.3026853647	-1.7508443705	-0.1405414434	 0.376006
O	 2.667799961	-1.9034727258	 0.0746628015	-0.477657
C	 0.4888767312	-2.857725864	-0.8549168712	-0.165836
O	-0.1676528827	-1.8689637656	-1.6894295468	-0.295288
C	 0.6438643715	-0.7901656365	-1.1562974507	-0.041177
H	 0.9559423355	 1.9824280814	-0.2893165651	 0.118853
H	-0.7757268493	 1.933369458	-0.6550549567	 0.124248
H	-0.2248830581	 1.921879137	 1.0255085561	 0.119608
H	-1.3463929161	-0.3173113009	 1.655005184	 0.109985
H	-1.4433531448	-1.6085412828	 0.3735223622	 0.127777
H	 1.1411138562	-0.7783603573	 1.9485949244	 0.094167
H	 3.0695161192	-2.2416379789	-0.7333686954	 0.282811
H	 1.1134277282	-3.5360767112	-1.4548993563	 0.088559
H	-0.2185795057	-3.4486300143	-0.2627660889	 0.108783
H	 1.1891168185	-0.2363823964	-1.9257126991	 0.073535
