21
gdb 94944	2.84301	1.34359	1.04586	2.8231	82.25	-0.2361	-0.0174	0.2187	1206.4224	0.183365	-387.121132	-387.112746	-387.111801	-387.154458	32.659	
C	-0.5511345718	 1.2323771962	-0.06532103	-0.412495
C	 0.1306303084	-0.1343288819	-0.0407316621	 0.037026
C	 1.0955045273	-0.3992913517	-1.2153232251	-0.197225
C	 1.9168614689	-1.6346604301	-0.7865384739	-0.248838
C	 2.0066333354	-1.4995396635	 0.7511087866	-0.122621
C	 1.0034866879	-0.3897082531	 1.2087440876	-0.019927
C	 0.4108793516	-1.3416536242	 2.2907080863	-0.367211
C	 1.1977753956	-2.4849190284	 1.6203782486	 0.390019
O	 1.1375449316	-3.6788970332	 1.671399221	-0.297251
H	 0.1904798443	 2.0394557264	-0.0392078059	 0.113693
H	-1.152940983	 1.362311468	-0.9708136655	 0.114577
H	-1.2150852335	 1.3628040797	 0.7959239649	 0.115234
H	-0.6486056563	-0.9105355533	-0.0742550919	 0.073314
H	 0.573881052	-0.542347737	-2.1670310783	 0.096786
H	 1.7604670597	 0.4659990387	-1.3382571999	 0.095078
H	 1.399614008	-2.5623768486	-1.0543767005	 0.115862
H	 2.8993313178	-1.6701938033	-1.2632349551	 0.103363
H	 3.0285783309	-1.3867896245	 1.1243680172	 0.094576
H	 1.4404852729	 0.5367991859	 1.5878642244	 0.066173
H	 0.7893072645	-1.1466346931	 3.3000501733	 0.126799
H	-0.6756064521	-1.456092779	 2.3445428783	 0.123068
