19
gdb 85667	2.50885	1.2609	1.09489	1.68	77.79	-0.2498	0.051	0.3008	1190.031	0.155667	-422.981806	-422.971853	-422.970909	-423.015934	37.649	
C	-0.114543868	 1.5390979583	-0.0996337074	-0.445969
C	-0.0266484357	 0.0211431247	-0.0394978808	 0.358533
O	-1.2930701689	-0.5829128725	-0.1952169247	-0.476395
C	 1.1268651377	-0.5750409704	-0.8973032326	 0.08153
O	 1.5215266287	 0.2200857869	-1.9891719214	-0.436231
C	 2.017078215	-0.6334234525	 0.3708319143	-0.298937
C	 0.712194384	-0.5432526446	 1.224689412	-0.196963
C	 0.7215335469	 0.2209094096	 2.4521822629	 0.318507
C	 0.7381866459	 0.8733907378	 3.462735155	-0.455471
H	 0.8568241484	 2.0109670934	 0.062973779	 0.131544
H	-0.4663745367	 1.8544450753	-1.0877907182	 0.117686
H	-0.8075825443	 1.8979483822	 0.6655704379	 0.130092
H	-1.7727620906	-0.1061567526	-0.8810713289	 0.279284
H	 0.8328191257	-1.5849717919	-1.2148574594	 0.075508
H	 2.2173004578	-0.2403961533	-2.4683055221	 0.286479
H	 2.647995671	-1.5108127843	 0.5219873644	 0.104504
H	 2.6191554874	 0.2723789808	 0.46904686	 0.118854
H	 0.3147907874	-1.5466910813	 1.4071271757	 0.115051
H	 0.7511057283	 1.4402574544	 4.3603036642	 0.192395
