23
gdb 60399	3.73054	0.7919	0.73058	1.604	83.61	-0.2448	0.0888	0.3336	1676.0603	0.202461	-425.407031	-425.396217	-425.395273	-425.443946	38.978	
C	 0.3744360226	 1.2600343565	-0.9683037535	-0.402725
C	 0.1207519185	 0.0371137568	-0.0846507877	 0.145829
C	-1.3526333434	-0.1179863141	 0.2777645556	-0.38386
O	 0.4994608623	-1.186836984	-0.7188827149	-0.259217
C	 1.8821351698	-1.4761744713	-0.7750468809	-0.105162
C	 2.4937345154	-1.1522083312	-2.1216873372	 0.04792
O	 3.1148240335	 0.1262410056	-2.3089000457	-0.252712
C	 3.9418900224	-1.0424244022	-2.3663648407	 0.074991
C	 5.0116607722	-1.1955429497	-1.3134572535	-0.419573
H	 1.4326138222	 1.3638558464	-1.2172646349	 0.149237
H	-0.1914146952	 1.1740989114	-1.902176669	 0.114871
H	 0.0504200957	 2.1707052755	-0.453006876	 0.105373
H	 0.7073763804	 0.1415986199	 0.8438002899	 0.063757
H	-1.9532341011	-0.2492627159	-0.6279868729	 0.121852
H	-1.5015954625	-0.9924335346	 0.916641088	 0.116796
H	-1.7148462735	 0.7692082923	 0.8055351917	 0.110987
H	 2.42661248	-0.9587533002	 0.0251654335	 0.097177
H	 1.9807316655	-2.5578062518	-0.606406889	 0.105121
H	 1.8624045841	-1.4614782866	-2.9568751558	 0.096275
H	 4.2789416789	-1.2785746491	-3.3782080682	 0.08949
H	 4.6434872915	-0.9498510039	-0.3157113311	 0.127793
H	 5.3899269953	-2.2235800908	-1.3028174391	 0.124376
H	 5.8548141553	-0.5331683489	-1.5356732886	 0.131406
