19
gdb 79206	2.55665	1.6195	1.28307	0.7345	85.96	-0.2434	0.0391	0.2825	1061.917	0.158809	-348.67594	-348.667896	-348.666951	-348.708063	32.439	
C	-0.0019301235	 1.5905259532	 0.029238964	-0.431094
C	 0.1015503075	 0.0728645095	-0.0190747913	-0.004738
C	 0.8128614118	-0.6518152812	-1.1598658705	-0.090563
C	 2.3023214592	-0.7745066869	-0.7937698245	-0.079759
C	 2.5048079963	-0.1318801185	 0.5734427699	-0.280519
C	 1.0926140415	-0.6960413467	 0.933560736	 0.226146
C	 0.7276802943	-0.9769777885	 2.2900336817	 0.045558
C	 0.4128107482	-1.2082844069	 3.428673301	-0.344723
C	 1.2913670552	-1.7517677259	-0.2497113818	-0.134899
H	 0.9549119315	 2.0791803394	-0.1731696781	 0.118549
H	-0.7167381345	 1.9473953673	-0.7204797729	 0.11524
H	-0.3560839376	 1.9251660248	 1.0105551521	 0.123745
H	-0.8892975591	-0.3734276727	 0.1177635811	 0.081538
H	 0.4858800801	-0.748290092	-2.1874578126	 0.085814
H	 3.0475448207	-0.9590549802	-1.5562812146	 0.089425
H	 3.2768089092	-0.6534370247	 1.1442770325	 0.110308
H	 2.6554252668	 0.9490954711	 0.6549658477	 0.094954
H	 0.1372982349	-1.4120927684	 4.43345589	 0.177584
H	 1.2071275674	-2.8275763028	-0.2875363997	 0.097431
