19
gdb 50673	2.10596	1.43542	1.04099	2.9213	80.96	-0.2432	-0.0207	0.2225	1207.0652	0.158737	-385.88061	-385.871557	-385.870613	-385.915247	33.158	
O	 0.3157360084	-0.2651134545	-0.0830648603	-0.257964
C	 0.1789301233	 0.9296363541	-0.0075684454	 0.140826
C	 1.3182237299	 1.9194607175	 0.0566556377	-0.061237
C	 1.3050683768	 2.9209470882	-1.1286977379	-0.229902
C	 1.9536545632	 4.2300963108	-0.5914902239	-0.204803
C	 2.3136147374	 3.9466880925	 0.8821017822	-0.21092
C	 1.3221031332	 2.8382837074	 1.318052157	-0.197973
C	 0.0063627182	 3.3904909491	 1.6353164726	 0.340736
C	-1.0650598853	 3.8705691497	 1.8963621975	-0.486881
H	-0.8311558884	 1.395473382	 0.0048311601	 0.088933
H	 2.2491723559	 1.3452328463	 0.0613984693	 0.09609
H	 1.8337338335	 2.5057553628	-1.9896880808	 0.115324
H	 0.2747679375	 3.1092997304	-1.4483947064	 0.114117
H	 2.8337692674	 4.5195483082	-1.1709567011	 0.105529
H	 1.2420777521	 5.0571619389	-0.6558550467	 0.116714
H	 3.330084517	 3.5461082005	 0.9603356918	 0.104516
H	 2.2525427546	 4.8307858381	 1.5202627	 0.112132
H	 1.6930295971	 2.2881136646	 2.1893485087	 0.11261
H	-2.0132909516	 4.2840508234	 2.1369977657	 0.202154
