20
gdb 24725	3.38262	1.52975	1.10023	2.2112	85.86	-0.1891	0.0467	0.2358	1114.3627	0.175676	-366.072936	-366.065666	-366.064722	-366.104516	29.59	
C	-0.0190703133	 1.5260590144	-0.0598679924	-0.208095
C	 1.3992576459	 2.1068363617	 0.0020507501	-0.200545
C	 2.0473553594	 1.7673478587	 1.3536611903	-0.307972
C	 1.8797937991	 0.3170578547	 1.7005919019	 0.31497
C	 2.547959465	-0.4943450442	 2.5931998442	-0.267812
C	 1.9235291489	-1.7712036233	 2.5700801905	-0.163799
C	 0.8925474504	-1.7023913486	 1.6634837956	-0.111299
N	 0.8622019534	-0.4304886458	 1.1427410308	-0.034954
C	 0.0222170628	-0.0002063916	 0.0341218016	-0.152724
H	-0.6172455834	 1.9308703326	 0.7662294507	 0.107771
H	-0.5217245486	 1.8077218862	-0.9906716724	 0.101229
H	 1.9988927104	 1.6877656094	-0.8164657296	 0.101783
H	 1.3764520572	 3.1917052734	-0.1418828543	 0.096131
H	 3.1111175247	 2.0271126258	 1.3501290092	 0.110396
H	 1.5842032002	 2.3954080138	 2.1295837756	 0.109356
H	 3.3823152449	-0.1920507275	 3.2087977069	 0.084414
H	 2.1940407508	-2.6362960103	 3.1561742434	 0.088723
H	 0.1843734364	-2.4456439568	 1.3317059511	 0.104865
H	-0.9824689099	-0.4124103018	 0.1746839803	 0.11373
H	 0.4151121056	-0.4139874507	-0.9056899835	 0.11383
