21
gdb 41614	3.76572	1.23498	1.10705	1.6313	81.84	-0.2264	0.0793	0.3057	1174.1646	0.184635	-387.059165	-387.051396	-387.050452	-387.092173	30.811	
C	 0.0502718231	 1.4698847927	-0.0664086836	-0.099637
O	 1.4968731314	 1.4380081686	-0.2229533889	-0.287294
C	 1.4946855236	 0.0237726534	-0.0174565699	 0.043421
C	-0.0147946721	-0.0483512221	 0.0640816591	-0.217769
C	 0.726652468	-0.6990048495	-1.0882562555	 0.351918
C	 0.7025549314	-0.2204002118	-2.537070434	-0.28764
C	 1.4155352046	-1.3543159106	-3.2927689869	-0.205711
C	 0.9083143607	-2.624950975	-2.5880268164	-0.197476
C	 0.8259279935	-2.2376030359	-1.0903277689	-0.295494
H	-0.2193788886	 2.0016963497	 0.852808009	 0.10841
H	-0.4514112179	 1.9339035141	-0.9238227092	 0.105448
H	 2.2932902914	-0.405270336	 0.579473387	 0.097402
H	-0.6614029834	-0.6011682169	 0.7338207097	 0.091976
H	-0.3313325198	-0.1247583949	-2.8946450978	 0.091744
H	 1.1855709655	 0.7529031819	-2.6507817382	 0.114148
H	 1.2133891188	-1.3505909683	-4.3676028913	 0.091926
H	 2.5006264979	-1.2603659773	-3.1628982632	 0.100749
H	-0.0920485181	-2.8738363044	-2.9610969943	 0.099177
H	 1.5418978047	-3.499047323	-2.7618099935	 0.094832
H	 1.7211879151	-2.5700774627	-0.5513823118	 0.100763
H	-0.0298144199	-2.7101876519	-0.5975263212	 0.09911
