19
gdb 111770	1.92296	1.63477	1.09669	3.5363	72.29	-0.2331	0.0541	0.2872	1168.7157	0.157356	-460.087515	-460.07816	-460.077216	-460.122069	33.555	
C	 0.0417229277	 0.923421961	 0.5734268372	-0.243919
O	-0.2296329769	 0.0171356806	-0.4840123573	-0.234524
C	-1.4048580762	-0.6841644133	-0.2833993727	 0.064253
C	-1.6122662069	-2.0267646786	-0.8973236561	-0.023468
O	-0.4022257787	-2.7609856463	-1.0115439447	-0.281089
C	-0.2161348066	-2.7184024001	 0.4276584774	-0.118833
C	-1.4901066302	-1.8952899433	 0.6268440253	 0.225496
C	-2.4493634541	-2.0323157678	 1.761015977	-0.210411
O	-1.880102126	-1.3720083044	 2.8897980456	-0.41735
H	 1.0407238479	 1.329355119	 0.3997854884	 0.12648
H	-0.6829540522	 1.751731341	 0.5852707816	 0.105181
H	 0.0067867725	 0.4215580484	 1.5494213305	 0.130401
H	-2.3116431212	-0.0722246373	-0.2502150493	 0.083614
H	-2.4305029301	-2.2947611298	-1.5583555744	 0.105667
H	-0.2833261851	-3.7265623275	 0.8521581206	 0.104354
H	 0.7326701237	-2.2512285065	 0.7080192275	 0.117129
H	-3.4179397851	-1.5862120585	 1.4833131226	 0.088187
H	-2.6303546387	-3.096867621	 1.980446669	 0.090582
H	-2.4524739938	-1.5243840356	 3.6483332519	 0.288251
