16
gdb 9166	7.49482	0.77481	0.71706	3.558	70.62	-0.2387	-0.0109	0.2278	1545.9544	0.126187	-383.720409	-383.710395	-383.709451	-383.75768	32.643	
C	 0.1085368899	 1.489758888	-0.0774010769	-0.498173
C	 0.0467516005	 0.0365244484	-0.0314642106	 0.118436
C	-0.011544572	-1.1640658864	 0.0093147157	 0.058391
C	-0.0947040534	-2.6131194396	 0.056414906	-0.490299
C	-1.5206295311	-3.1649857253	 0.2481507575	 0.385194
O	-2.4383603277	-2.5071380635	 0.6536885201	-0.257799
C	-1.6551796729	-4.6419033008	-0.1162378075	-0.172634
O	-2.9106034692	-5.1168413521	 0.286565525	-0.393825
H	 0.822837843	 1.8821677329	 0.6548044914	 0.146778
H	 0.417817586	 1.8456462675	-1.0663651433	 0.145862
H	-0.8693326042	 1.9312557245	 0.1435702793	 0.154956
H	 0.3425116739	-3.0655479674	-0.8445842956	 0.137167
H	 0.5024077856	-3.0081282043	 0.8927321796	 0.154018
H	-1.5007773713	-4.7159736672	-1.2079867583	 0.113027
H	-0.8177944513	-5.1892648622	 0.351747532	 0.105058
H	-2.987267876	-6.0338657524	 0.0076546758	 0.293843
