18
gdb 56512	2.59515	1.23743	1.05577	2.8468	77.87	-0.2754	0.0059	0.2812	1195.421	0.143701	-401.924803	-401.914426	-401.913481	-401.959556	37.978	
C	-0.0634160387	 1.577397906	 0.0787307694	-0.436442
C	-0.0210248231	 0.0345601466	 0.0344205519	 0.019136
C	 0.7353592986	-0.5171191008	 1.2636004228	-0.423816
C	-1.3842073007	-0.5021327654	 0.0179602056	 0.337262
C	-2.4994108836	-0.9491370526	 0.0294439911	-0.465283
C	 0.6893457051	-0.4572411184	-1.2761531455	-0.007307
O	 0.0405048035	-0.0576181579	-2.461729408	-0.410909
C	 2.1095383096	-0.04480626	-1.2965712179	 0.260287
N	 3.2085014393	 0.3118188614	-1.3295869521	-0.329558
H	 0.9496023044	 1.9914729249	 0.0587223759	 0.139968
H	-0.6345379952	 1.9834929287	-0.7609272805	 0.12378
H	-0.5537435436	 1.9105406971	 0.9963252081	 0.138379
H	 0.2111287734	-0.2336151351	 2.1792579469	 0.134515
H	 0.7915354914	-1.6091432068	 1.2328207395	 0.130264
H	 1.7513601775	-0.1149967841	 1.3056247402	 0.143329
H	-3.4865662571	-1.3412742405	 0.0311174791	 0.200197
H	 0.6567638246	-1.551393026	-1.279541044	 0.147515
H	 0.1558275947	 0.892586773	-2.5733913624	 0.298683
