14
gdb 1871	5.73693	2.21815	1.70552	4.9124	53.69	-0.2604	0.0537	0.3141	720.3875	0.115126	-361.773017	-361.766571	-361.765626	-361.803395	23.489	
C	-0.1309999896	 1.5469896553	 0.0232777348	-0.404818
C	 0.1307349652	 0.0539081676	 0.0066189764	 0.145799
C	 0.8986203793	-0.46983633	-1.2258146421	-0.195742
N	 1.6846568459	-1.5186638959	-0.6067020062	-0.362548
C	 1.860620034	-1.2756369855	 0.7417355284	 0.469958
O	 2.6336724589	-1.8011546059	 1.4921611017	-0.38898
O	 0.970314248	-0.308916052	 1.1200941216	-0.249577
H	 0.8079090773	 2.1032686021	-0.0521458727	 0.131675
H	-0.7727448674	 1.826727316	-0.818615367	 0.123607
H	-0.6329436964	 1.8384355303	 0.9491927509	 0.140215
H	-0.8109840638	-0.4996300302	 0.1146859535	 0.098817
H	 0.2228417827	-0.8542816225	-1.9948806954	 0.121756
H	 1.5216067091	 0.319732536	-1.671726811	 0.108646
H	 2.4415905467	-1.9764028753	-1.0880362727	 0.261193
