21
gdb 92095	2.69685	1.41858	1.02531	1.8384	83.27	-0.2424	0.0155	0.258	1210.0635	0.183998	-387.084149	-387.075911	-387.074967	-387.11675	32.749	
C	-0.569058152	 1.434380171	 0.0136348751	-0.396293
C	 0.0457076803	 0.021916337	 0.0103427267	-0.023519
C	 0.7391439967	-0.260790712	-1.3358361232	-0.246465
C	 1.1824708948	-1.7015165677	-1.4523135776	 0.057804
O	 2.4460159811	-1.9751648989	-2.0719072475	-0.267968
C	 2.314553922	-2.1859015711	-0.6596717864	 0.065429
C	 3.0551265696	-1.2384453442	 0.2712825133	-0.300689
C	 2.1680188995	-0.6442528504	 1.3483142817	-0.089176
C	 0.9332583402	-0.1497376313	 1.226600879	-0.016208
H	 0.2080369372	 2.1972249076	-0.1057681143	 0.120464
H	-1.2862194256	 1.5501311669	-0.8053276624	 0.112491
H	-1.0941846659	 1.636792031	 0.9525155559	 0.113206
H	-0.7909317939	-0.6885841652	 0.1161765469	 0.083495
H	 0.0529711704	-0.0156095995	-2.1550566431	 0.096668
H	 1.6083230724	 0.394226464	-1.4502736786	 0.112241
H	 0.3990873851	-2.4145871603	-1.7148706572	 0.08603
H	 2.3241883576	-3.2362500177	-0.3675541886	 0.090312
H	 3.8882210242	-1.7686176336	 0.7437449832	 0.10366
H	 3.5118905337	-0.4494200261	-0.3372901356	 0.129982
H	 2.6050281813	-0.625636572	 2.3444943346	 0.086759
H	 0.4676390414	 0.2141878426	 2.1428516279	 0.081779
