24
gdb 8949	3.68315	1.05967	0.87925	1.3573	81.97	-0.2603	0.0736	0.3339	1420.1394	0.221044	-351.419173	-351.408367	-351.407423	-351.45485	39.25	
C	-0.2076044393	 1.5442847383	 0.0319380894	-0.39184
C	 0.0565613193	 0.0354470154	 0.0152969605	-0.170224
C	 0.8040878828	-0.4723712079	-1.2348910093	 0.026092
C	 2.2706307352	-0.0139974904	-1.238521621	-0.406449
C	 0.668847871	-2.0084870575	-1.3530917062	 0.134778
O	-0.7069429971	-2.3998321808	-1.3471843259	-0.429116
C	 1.3901102341	-2.614438168	-2.5656601748	-0.200663
C	 1.2302551915	-4.1345662176	-2.6598757516	-0.377022
H	 0.7166381491	 2.1310429198	 0.0295956645	 0.114128
H	-0.7956586728	 1.8516265212	-0.840680847	 0.109198
H	-0.771079418	 1.8303362543	 0.9257841516	 0.112035
H	 0.6318679523	-0.247123152	 0.9082416686	 0.087063
H	-0.8953538853	-0.4986364472	 0.0826474254	 0.111803
H	 0.3092098679	-0.042140827	-2.1220975146	 0.052418
H	 2.8383332899	-0.5205260581	-0.4483065576	 0.11349
H	 2.7680536431	-0.2158037784	-2.1905362476	 0.115802
H	 2.3460036521	 1.0617102146	-1.0570323895	 0.115467
H	 1.0781281046	-2.4620972594	-0.438963379	 0.081606
H	-1.1138836362	-2.0284972625	-2.1386455824	 0.273681
H	 1.0009022784	-2.139139334	-3.4792025216	 0.081503
H	 2.454434969	-2.3620894238	-2.5211646156	 0.101707
H	 1.6760462698	-4.6292994689	-1.789689484	 0.113247
H	 0.1746533784	-4.414487516	-2.6911967661	 0.125132
H	 1.7215830699	-4.5277694342	-3.5550673363	 0.106164
