21
gdb 120778	3.284	0.84142	0.74744	2.8692	78.96	-0.2361	0.0648	0.3009	1568.0511	0.183567	-420.344123	-420.334646	-420.333702	-420.379278	34.732	
O	-0.0119625279	 1.2990152396	 0.4059174122	-0.419919
C	-0.1800855967	-0.108894034	 0.4406948345	-0.052751
C	-1.3718352622	-0.5843837219	-0.39628703	-0.231856
C	-1.4912760195	-2.0915719069	-0.4140871899	-0.013096
N	-2.0135460645	-2.7516045267	 0.8013569561	-0.346725
C	-2.7842803271	-2.831971176	-0.4486439768	-0.058919
C	-4.125850485	-2.155269274	-0.4399248685	-0.002428
C	-5.1664351755	-2.6075183	 0.5176807938	-0.240394
N	-4.50679311	-1.3023179789	 0.6934068585	-0.31675
H	-0.7967263422	 1.696543294	 0.7968059279	 0.282548
H	 0.7520963946	-0.5254384306	 0.0412891527	 0.103483
H	-0.2863786638	-0.4799110399	 1.4714132637	 0.099353
H	-2.2938294516	-0.1413908541	-0.0047400118	 0.117756
H	-1.2519257932	-0.2177110285	-1.4230717688	 0.107521
H	-0.6577636132	-2.5957410368	-0.9039540235	 0.086429
H	-1.5236387542	-3.6206291782	 0.9890692898	 0.236138
H	-2.7693091927	-3.7803051057	-0.9855176561	 0.088502
H	-4.4465707816	-1.7771189195	-1.4090536072	 0.093818
H	-6.2170543203	-2.5645731525	 0.2449047926	 0.115579
H	-4.9019679779	-3.4089371199	 1.2031383514	 0.110532
H	-3.7814793756	-1.4164565895	 1.4020765193	 0.241179
