22
gdb 32581	3.07162	1.04945	0.84965	1.728	91.76	-0.1919	0.0532	0.2451	1471.6865	0.19345	-367.265837	-367.255582	-367.254638	-367.301522	37.153	
C	 0.0169174034	 1.5394637546	 0.0048612805	-0.366505
C	-0.0055781692	 0.007628665	 0.0046972911	-0.153129
N	-1.3451562844	-0.5515864735	 0.0138020098	 0.021285
C	-2.099345191	-0.807196809	 1.133628247	-0.193454
C	-3.3501916132	-1.2311552156	 0.7440028422	 0.181836
C	-4.4780243756	-1.6371708456	 1.6435122045	-0.500725
C	-3.3614417967	-1.2274889929	-0.6882557929	 0.181886
C	-4.5032318722	-1.6291046904	-1.5719903302	-0.500728
C	-2.1168671824	-0.8014587499	-1.095332789	-0.193487
H	 1.0487659862	 1.9054422743	-0.0019153838	 0.115635
H	-0.4948740164	 1.9355471061	-0.8769448167	 0.128831
H	-0.4831658543	 1.9350946541	 0.8935562283	 0.128857
H	 0.5149431583	-0.3779115475	-0.8782622053	 0.115951
H	 0.5266966992	-0.378246691	 0.8804443458	 0.11596
H	-1.6813402441	-0.6718751721	 2.1199718316	 0.106406
H	-5.3691698516	-1.0154042497	 1.4904029821	 0.118911
H	-4.7872420406	-2.6759733835	 1.4715894963	 0.119048
H	-4.1946292319	-1.5498442821	 2.6967147459	 0.114535
H	-5.3924776833	-1.0094665119	-1.4003950511	 0.118909
H	-4.2370492847	-1.5346067344	-2.6290573851	 0.114535
H	-4.8084366159	-2.6693962711	-1.4018481525	 0.119057
H	-1.7144284695	-0.6611251938	-2.0874335883	 0.106385
