17
gdb 124886	3.66218	1.26645	1.02745	2.0788	74.26	-0.2516	-0.0065	0.2451	1151.9054	0.136842	-417.979195	-417.97136	-417.970416	-418.01192	29.734	
C	-0.298938095	 1.3118168793	-0.8719014425	-0.472228
C	-0.0541862593	 0.0684154853	-0.043244141	 0.192083
C	 1.0691960534	-0.8409191647	-0.4253271378	-0.264176
N	 1.1624340833	-0.025473083	 0.7920367835	-0.342724
C	-1.2538581831	-0.5302115772	 0.5985481729	 0.392743
N	-2.4599329244	-0.2612775205	 0.1522654369	-0.221917
O	-3.3332556246	-0.9862973165	 0.9575410695	-0.168738
C	-2.6173384592	-1.6652897574	 1.8668508919	 0.078962
C	-1.2935825144	-1.4289842553	 1.7064303985	-0.345231
H	 0.6316562627	 1.6497666991	-1.3386315521	 0.105095
H	-1.0321089956	 1.1157608486	-1.6585361126	 0.150857
H	-0.6934883734	 2.121982714	-0.2507412995	 0.133749
H	 0.9840300719	-1.9104209014	-0.2554510172	 0.122809
H	 1.6590747155	-0.5637801055	-1.2954658564	 0.118072
H	 1.7499055004	 0.7882056943	 0.6266883665	 0.23423
H	-3.1881326776	-2.2644838215	 2.5594374085	 0.150452
H	-0.4621408607	-1.7970381176	 2.2815794209	 0.135963
