17
gdb 91668	2.48197	1.88087	1.43124	2.0497	66.99	-0.2463	0.0632	0.3095	944.1372	0.136648	-458.906051	-458.89887	-458.897926	-458.937402	28.938	
O	-0.0665751315	 1.4119485203	-0.0353854441	-0.44821
C	-0.0313096183	 0.0061721926	 0.0378487149	 0.144485
C	 0.4663312447	-0.6055038809	 1.3991499537	-0.265507
C	-0.8126741848	-1.3828181319	 1.760386205	-0.02447
O	-1.1585353279	-2.0121177929	 0.4795392757	-0.299661
C	-1.4363861135	-0.6519554024	 0.0263399393	-0.066168
C	-1.9133304321	-0.3669412911	 1.4519202461	 0.478717
C	-3.2082104283	-0.0617220774	 2.0288890409	-0.29672
O	-2.1151766329	 0.8934895447	 2.0602661024	-0.294105
H	-0.6662112647	 1.732028392	 0.6508617812	 0.298222
H	 0.5724849372	-0.332128438	-0.8060636544	 0.096895
H	 1.3200393668	-1.2753267572	 1.282079105	 0.113645
H	 0.7170912992	 0.1785488076	 2.1185753015	 0.115528
H	-0.8247171432	-2.0579535912	 2.614607617	 0.09147
H	-2.055918925	-0.5760836585	-0.8654059714	 0.091801
H	-4.0410915198	 0.2115514097	 1.3841134445	 0.132622
H	-3.4811011259	-0.4668009354	 3.0011045127	 0.131456
