18
gdb 13541	2.79964	1.75636	1.21318	4.1913	72.65	-0.2467	0.0301	0.2768	1028.0451	0.152546	-343.970808	-343.962001	-343.961057	-344.004209	31.786	
C	-0.5464878047	 0.8180962052	-2.506506148	-0.387354
C	-0.1642571375	-0.3076110566	-1.5337158821	-0.10453
C	 0.8482543409	 0.1589233738	-0.5705465132	 0.302891
N	 1.6562308391	 0.5177369592	 0.1731475256	-0.329498
N	-1.3539120234	-0.7422276605	-0.802486067	-0.082968
C	-2.1480800441	-1.8118764511	-1.4084320666	-0.258135
C	-1.381890828	-2.0606052868	-0.1541937078	 0.035254
C	-0.1990017134	-3.0039690287	-0.1211892237	-0.425216
H	 0.3327116414	 1.1811745387	-3.0442379879	 0.133827
H	-1.2702335879	 0.436976879	-3.2317951816	 0.127668
H	-1.0016233235	 1.6466344874	-1.9601782955	 0.14865
H	 0.3046409614	-1.1210541286	-2.1118194046	 0.106737
H	-3.2246149213	-1.6660925804	-1.3992518074	 0.122405
H	-1.7622080618	-2.2778150913	-2.3155281113	 0.109579
H	-1.9372723921	-2.0289763923	 0.7814898681	 0.102327
H	 0.2820836906	-3.1149349522	-1.0963838147	 0.120556
H	 0.5552720704	-2.6662003262	 0.5965024656	 0.14891
H	-0.535106696	-3.9981592886	 0.1905369422	 0.128898
