19
gdb 71747	2.80166	2.20552	1.67511	1.3385	76.63	-0.2462	0.074	0.3202	866.3966	0.162721	-385.875149	-385.868824	-385.86788	-385.90521	28.101	
O	-0.0868275359	 1.3587999924	 0.0908510279	-0.505181
C	 0.0170008542	-0.0352216945	 0.066079182	 0.437608
C	 0.8960046034	-0.7287394153	 1.1039083552	-0.311939
C	 0.5802522341	-2.1500234656	 0.6948298759	-0.073646
C	 0.3201905913	-2.1746894527	-0.8038966886	-0.064069
C	-0.8463453505	-2.1903294867	 0.1719544574	-0.064071
C	-1.370907231	-0.7572281529	-0.0101247741	-0.079379
C	-1.3196056788	-0.5346415338	-1.5509836856	-0.23367
C	 0.2088795351	-0.7387818486	-1.3355076308	-0.121063
H	 0.7763968042	 1.7275557362	-0.1246142924	 0.278689
H	 1.9572693973	-0.4734666292	 0.9898470866	 0.08534
H	 0.5835429366	-0.4879784258	 2.1257511925	 0.102438
H	 1.0127382983	-3.0080063622	 1.1947622673	 0.080521
H	 0.5824933132	-3.0179922462	-1.4291702806	 0.081637
H	-1.4979676671	-3.0434514164	 0.3058935255	 0.081969
H	-2.2084929626	-0.4256232668	 0.6035407956	 0.063721
H	-1.846379599	-1.2478091576	-2.1905806441	 0.084078
H	-1.5672818905	 0.4920213357	-1.8274675351	 0.10618
H	 0.9548633577	-0.3924437701	-2.0532174646	 0.050836
