17
gdb 40484	3.73363	1.32461	1.18409	2.1036	72.01	-0.2364	0.0711	0.3075	1060.1223	0.135588	-421.700475	-421.693355	-421.692411	-421.732492	27.741	
C	-0.33561159	 1.0780901862	-0.5266019828	-0.180737
O	 0.6164854252	 1.5225428667	 0.4387785087	-0.233913
C	 0.4121800651	 0.1103657367	 0.2880657863	-0.093977
C	-0.1955462278	-0.5954425073	 1.4424966235	 0.346313
C	-1.3933161786	-0.2182211747	 2.3419709315	-0.335945
C	-0.9255405767	-1.5646522604	 2.9376243073	-0.102846
C	-0.5209842993	-2.1271742965	 1.540196303	 0.04374
O	 0.8263575567	-2.5133625624	 1.9403084454	-0.331053
C	 0.5729903393	-1.2584979515	 2.6408719863	 0.048787
H	-1.3765025588	 1.2908315884	-0.2874326436	 0.113698
H	-0.0563672941	 1.2318200665	-1.568123998	 0.117577
H	 1.2481134482	-0.4161503677	-0.1741339355	 0.104334
H	-1.2660181145	 0.6671749204	 2.9691886012	 0.114539
H	-2.3790378699	-0.2138303803	 1.8679134262	 0.10011
H	-1.3195178934	-2.133948743	 3.7784006453	 0.088525
H	-1.0711698441	-2.7696602622	 0.8523675514	 0.097624
H	 1.3507607026	-0.8454135991	 3.2824562339	 0.103224
