17
gdb 23493	3.31982	1.46166	1.24853	1.5087	75.31	-0.2261	0.0073	0.2334	1023.8625	0.137867	-417.933523	-417.926314	-417.92537	-417.96516	28.523	
O	-0.1355930358	 1.325478815	-0.0217800537	-0.399815
N	 0.0454082374	-0.0755770324	-0.0109353529	-0.289506
C	-1.0705250636	-0.6630659482	 0.1127989462	 0.481518
C	-1.4235201833	-2.0935583829	 0.0523666268	-0.159381
C	-2.5780945279	-2.3743548806	 0.9669476335	-0.014145
C	-2.8561126735	-1.4586850161	 2.1551019836	-0.256325
C	-3.1276661078	-0.0887137334	 1.4813694542	-0.212927
C	-2.538011501	-0.2802459286	 0.0854128637	-0.100659
N	-2.8684180742	-1.7275509985	-0.321361474	-0.145434
H	 0.7631285306	 1.6425831928	-0.1596395113	 0.307251
H	-0.8671730778	-2.8783551732	-0.4479169974	 0.111192
H	-2.8840527894	-3.4154011191	 1.0159728408	 0.101568
H	-3.7210544593	-1.8134056257	 2.721377177	 0.111885
H	-2.0060849433	-1.4210248133	 2.8422051581	 0.120437
H	-4.2026296844	 0.1022168662	 1.4037987015	 0.113838
H	-2.6680872375	 0.7508356393	 2.0076635066	 0.125207
H	-2.8234754092	 0.4567656288	-0.6641055528	 0.105296
