10
gdb 23697	3.93181	2.04814	1.34665	2.3958	51.72	-0.2737	-0.0744	0.1994	786.0268	0.060836	-458.623936	-458.618107	-458.617163	-458.654188	21.23	
F	 0.0699049212	 0.0912309809	 0.0024721624	-0.026005
C	-0.071180065	 1.3883255975	 0.011427527	 0.433201
N	-1.2393169778	 1.9058639596	 0.030092411	-0.371304
C	-1.2431065245	 3.2832088697	 0.0374524787	 0.022505
C	-0.1273028133	 4.0510797835	 0.0263424048	-0.253607
C	 1.1761647722	 3.4400322362	 0.0056317059	 0.441669
O	 2.2680752528	 3.9125587513	-0.0071998909	-0.304219
O	 1.0991268152	 1.9860049944	-0.0012829403	-0.228142
H	-2.2294867437	 3.7356719575	 0.0531594398	 0.144244
H	-0.1639359571	 5.1315108996	 0.0323959215	 0.141659
