13
gdb 43605	2.4104	1.44939	1.05325	3.2548	71.6	-0.2937	-0.0392	0.2545	1105.9917	0.087257	-415.568959	-415.560801	-415.559857	-415.602001	29.854	
N	 0.0248763404	 1.0950127768	 0.775514031	-0.524999
C	-0.0253432526	 0.0195921432	 0.1459842339	 0.446457
C	-1.1322543702	-0.9176180476	-0.2776832884	-0.400578
C	 0.0353687326	-1.7541814094	-0.902081592	 0.090391
O	 0.9902686744	-0.7435529203	-0.4213407314	-0.258908
C	 0.2761911172	-3.0651888742	-0.3286680022	 0.300634
C	 0.4551160152	-4.1459371839	 0.1615265075	-0.407343
C	 0.0359667211	-1.7997664989	-2.3697142328	 0.271869
N	 0.0104769286	-1.8264892298	-3.5238663698	-0.319827
H	 0.9788049121	 1.4461268747	 0.8690662124	 0.243599
H	-1.6558066693	-1.4210258603	 0.5341489831	 0.165526
H	-1.8422165011	-0.508535834	-0.9961178326	 0.169852
H	 0.6227962016	-5.1047251063	 0.5887702413	 0.223326
