17
gdb 33347	6.24072	0.67977	0.63815	1.2985	97.05	-0.2384	-0.0089	0.2295	1708.9235	0.135524	-347.514902	-347.506323	-347.505379	-347.548758	32.102	
C	-0.2716325119	-3.8873619032	-0.4934313591	-0.569883
C	-0.1667088081	-2.6977274332	-0.3124562833	 0.295591
C	-0.0492764541	-1.3575891343	-0.109075134	-0.269096
C	 0.057106099	-0.1651263492	 0.074533993	 0.425437
C	 0.18682762	 1.2626626889	 0.2976130772	-0.211909
C	-0.3898426804	 1.7619565847	 1.6624913124	-0.25738
C	 0.5148691163	 2.9220430489	 1.999066174	-0.063445
C	 1.6149170951	 2.9392472332	 1.2493084182	-0.063444
C	 1.6570404227	 1.7939691808	 0.2673971386	-0.257379
H	-0.3635484384	-4.9328104355	-0.6523669444	 0.188034
H	-0.3615888228	 1.7872862405	-0.4949879312	 0.115689
H	-1.4463441762	 2.0354468992	 1.5770050933	 0.114306
H	-0.3289693496	 0.9775510201	 2.4281540256	 0.122473
H	 0.28794938	 3.6205837705	 2.7966725859	 0.097113
H	 2.4251790042	 3.6540038209	 1.3400062509	 0.097114
H	 2.3640852752	 1.0196718398	 0.5926469186	 0.122473
H	 1.9576807592	 2.0886905677	-0.7430765056	 0.114306
