18
gdb 68201	3.70842	1.22311	1.13753	2.0045	77.28	-0.231	0.0358	0.2668	1113.1343	0.147971	-401.872997	-401.865103	-401.864158	-401.904995	31.836	
O	-0.1299816069	 1.4223480533	-0.0452191234	-0.484393
C	-0.0169185188	 0.0374786084	 0.0119997682	 0.400075
C	 0.2859698967	-0.7812248297	 1.3033899521	-0.246314
N	-0.4203843949	-1.9168449089	 0.589386809	-0.131597
C	-1.2868859168	-0.8357960388	-0.0295395064	-0.208078
C	 0.5379080628	-2.1504438087	-0.5586637644	-0.155248
C	 0.8779999211	-0.6849828227	-1.0160057802	-0.31381
C	 1.6898013767	-2.9450504977	-0.1627957217	 0.337853
C	 2.6563378834	-3.5879039035	 0.1493996594	-0.444334
H	 0.7491983426	 1.802781494	-0.1440024855	 0.284098
H	 1.3197126187	-0.9899322838	 1.5899834171	 0.108776
H	-0.3011109082	-0.4588551879	 2.1651447588	 0.112919
H	-2.0547769278	-0.5225680145	 0.6799156107	 0.115894
H	-1.7336110711	-1.08683405	-0.9962920962	 0.099967
H	-0.0129908807	-2.6858775761	-1.338036674	 0.110968
H	 0.5783537824	-0.4795791707	-2.0467542783	 0.109497
H	 1.9380130227	-0.4435314083	-0.8994437109	 0.106998
H	 3.5006506882	-4.1685985744	 0.4281159257	 0.19673
