15
gdb 29148	3.01047	1.46585	0.99179	2.7853	74.8	-0.2106	-0.0625	0.1481	1125.941	0.112252	-453.96969	-453.961649	-453.960705	-454.002231	30.366	
C	 0.0878750172	 1.4484554273	-0.0008195559	-0.457099
C	 0.0419582553	-0.0464907783	-0.0074326689	 0.27599
N	-0.0027665811	-0.688747948	-1.1257401358	-0.305772
C	-0.0442316871	-2.0640380371	-1.0967780194	 0.310072
O	-0.0889462701	-2.6161153026	-2.3377662942	-0.407873
C	-0.0393783944	-2.7514548737	 0.0591924163	-0.10721
O	 0.0075027508	-2.1005684982	 1.2621412496	-0.218154
C	 0.0504018955	-0.729153222	 1.3037769284	 0.343639
N	 0.0946765145	-0.086878689	 2.4001522094	-0.527668
H	 0.9846596961	 1.7978234312	 0.5209327195	 0.151843
H	 0.0765339728	 1.8215759265	-1.0250293866	 0.137882
H	-0.761860169	 1.8512836829	 0.5597115645	 0.151837
H	-0.1165790178	-3.5760191413	-2.2611456867	 0.30163
H	-0.0697357487	-3.826629872	 0.1737047656	 0.12575
H	 0.0929677261	-0.7256036856	 3.1964947442	 0.225133
