14
gdb 125535	5.53546	1.33654	1.08389	6.1553	69.36	-0.2341	-0.0088	0.2253	1043.1183	0.103847	-429.057325	-429.050396	-429.049452	-429.088666	26.083	
C	-0.0229757279	 1.4591908761	 0.0067561476	-0.502643
C	-0.0014278988	-0.0280882082	-0.0229142155	 0.390544
N	-0.0498474443	-0.7404112998	-1.1219285111	-0.298677
N	-0.0032663691	-2.0374651839	-0.6551437113	 0.01956
C	-0.0046131045	-3.3440177956	-1.0706836288	-0.008406
N	 0.0648551845	-4.12223066	-0.0131926744	-0.216697
N	 0.1152428591	-3.3459798786	 1.1433064895	-0.365908
C	 0.0715139023	-2.1161309173	 0.7004193792	 0.511476
N	 0.0728655994	-0.804139499	 1.1194616103	-0.447985
H	 0.8862305861	 1.8588376049	 0.4682334312	 0.151033
H	-0.0911540499	 1.8314790638	-1.01561194	 0.17266
H	-0.8812022956	 1.8310889993	 0.5762963396	 0.150732
H	-0.0552570081	-3.6578742589	-2.0989569774	 0.154085
H	 0.1197404269	-0.4801903429	 2.069094701	 0.290227
