17
gdb 17560	3.23203	2.13077	1.63081	1.4944	68.2	-0.2407	0.0683	0.3091	842.1269	0.14156	-363.797154	-363.789774	-363.788829	-363.82843	28.507	
C	-0.1147201835	 1.5318519033	 0.0341031257	-0.521274
C	 0.1222650421	 0.0583012242	-0.0066587301	 0.337697
O	-0.7666117717	-0.806789794	 0.7261342736	-0.285822
C	 0.6433250126	-0.9133854899	 0.9749009456	-0.043018
C	 1.2294702185	-1.8148231602	-0.1249981405	-0.328292
C	 0.6684835185	-0.7988238333	-1.1490576629	 0.310982
C	 0.1296019597	-0.9589354225	-2.5119595106	-0.302756
N	 1.4511680698	-0.3257837516	-2.2857340242	-0.369334
H	 0.7705362282	 2.0831032569	-0.3003509971	 0.126943
H	-0.9552683639	 1.8133631095	-0.6109120606	 0.132117
H	-0.3533285598	 1.846318353	 1.0532058199	 0.142042
H	 0.9801872379	-0.7701542647	 1.9954409286	 0.103502
H	 2.3219519795	-1.8338289483	-0.1434023868	 0.118672
H	 0.8316577505	-2.8317836142	-0.1536575141	 0.112462
H	 0.1709068601	-1.927279263	-3.0028512455	 0.12317
H	-0.7076449006	-0.3336355623	-2.8126655961	 0.112927
H	 1.3709994622	 0.6849566872	-2.377835905	 0.229983
