18
gdb 20040	5.33807	1.30736	1.16183	1.9344	75.79	-0.2188	0.0233	0.2421	1061.5592	0.154746	-347.792436	-347.784885	-347.78394	-347.825035	27.883	
C	-0.1615089205	 1.4491597847	-0.1341204461	-0.271794
C	 1.2527412113	 0.9884530234	 0.0637733034	-0.271795
C	 0.1241911502	-0.0293873427	 0.071033328	-0.093798
C	-0.2773473764	-0.733636754	 1.3006079469	 0.341018
C	-0.7029545486	-1.9923279222	 1.4118790426	-0.2357
C	-1.0102668202	-2.3202806134	 2.8421886111	-0.102091
O	-0.7221263914	-1.1264248544	 3.5673128347	-0.265757
C	-0.2681916807	-0.112888243	 2.6799477554	-0.162937
H	-0.6396058996	 1.9920848631	 0.6731463114	 0.120428
H	-0.4726349734	 1.7626830341	-1.1242338608	 0.118006
H	 1.9219166155	 0.9826864282	-0.7892364785	 0.117997
H	 1.7378775017	 1.2177593215	 1.005630921	 0.120426
H	 0.0499785302	-0.6412976695	-0.8226707587	 0.085717
H	-0.8209556456	-2.7022291546	 0.6025107966	 0.094088
H	-2.0640730308	-2.6041618796	 2.9971766593	 0.101273
H	-0.3955173789	-3.1485767163	 3.2308726301	 0.101298
H	 0.737591828	 0.2214213603	 2.9818815096	 0.101833
H	-0.9315106507	 0.7645467647	 2.748286234	 0.101789
