20
gdb 101311	2.08585	1.50749	1.02105	3.628	76.48	-0.2425	-0.0164	0.2261	1221.0968	0.168601	-440.253248	-440.243301	-440.242356	-440.288873	35.57	
C	-0.3106206687	 1.5167649118	-1.032207241	-0.247253
O	 0.0937868082	 0.3864440314	-0.2823851233	-0.243603
C	 0.8887487011	-0.5413818153	-1.0076780706	 0.120569
C	 1.8079542127	-1.2398666707	-0.0110509044	-0.392534
C	 0.0491806618	-1.5440061602	-1.8133973324	-0.037047
N	-0.508420309	-2.7055677547	-1.1268701192	-0.327187
C	-1.4394709536	-1.7080368055	-1.6718036608	-0.120834
C	-2.2476494798	-0.9633356998	-0.6535200234	 0.178565
O	-3.1752551599	-0.2513584029	-0.9521974604	-0.278162
H	 0.5609142759	 2.0701327902	-1.4122256405	 0.106322
H	-0.9580681215	 1.2487046163	-1.878088	 0.122307
H	-0.8771294526	 2.1611299367	-0.3566297903	 0.137356
H	 1.50035865	 0.0151488209	-1.7350602842	 0.067638
H	 2.4626836191	-1.9496455264	-0.5260521601	 0.110819
H	 2.4251171788	-0.5029395867	 0.5083516843	 0.119284
H	 1.2142374184	-1.7931274648	 0.719184365	 0.145987
H	 0.4180135234	-1.7092486024	-2.8255827327	 0.092959
H	-0.4739919198	-3.5357646541	-1.7108872614	 0.241184
H	-1.9869783081	-1.9193813904	-2.5883724726	 0.104957
H	-1.9462664762	-1.1497695831	 0.394662658	 0.098671
