15
gdb 78127	2.88577	1.32742	1.09762	3.2432	72.69	-0.2388	-0.0194	0.2194	1104.8749	0.110504	-420.569759	-420.561532	-420.560588	-420.602662	31.034	
O	-0.2589601906	 1.4204004804	 0.0756891159	-0.409379
C	-0.0839783062	 0.0415524021	-0.027838031	 0.080659
C	-1.2634771808	-0.8416164275	 0.0010155491	-0.090996
C	-0.3902847779	-0.7443444497	-1.2988153235	-0.245587
C	-1.5697732175	-0.1499188602	-2.0004151814	 0.423191
O	-1.8195279592	 0.0709644698	-3.1468728853	-0.305901
C	-2.4594102268	-0.1475847036	-0.6989531914	-0.328613
C	-3.6582409366	-0.9463804032	-0.8272130606	 0.30629
C	-4.6439462264	-1.6242902533	-0.9444377846	-0.414145
H	 0.4115380236	 1.8553313294	-0.4618712661	 0.297618
H	 0.7930970848	-0.3460977225	 0.4918086663	 0.110926
H	-1.3663316113	-1.6940174916	 0.6581316213	 0.123957
H	 0.3326628048	-1.4249536169	-1.7319161708	 0.114121
H	-2.6768364899	 0.8509024913	-0.3111446777	 0.140064
H	-5.5226615899	-2.2108957646	-1.05064332	 0.197794
