16
gdb 33338	5.25502	0.77702	0.73865	1.711	92.25	-0.2359	-0.025	0.2109	1518.4796	0.123576	-363.506254	-363.498062	-363.497118	-363.539455	30.958	
C	-0.0118939248	-3.8476366895	-0.1246913348	-0.561004
C	-0.0024641666	-2.6407865024	-0.079636108	 0.306132
C	 0.0075567191	-1.2818784273	-0.0277577494	-0.333835
C	 0.015979302	-0.0712019543	 0.0206635331	 0.522502
C	 0.0245801249	 1.3729271153	 0.0874648642	-0.203308
C	-0.2457329486	 2.0637621955	 1.4664747956	-0.264608
C	 1.1469982091	 2.6666640607	 1.3324257427	-0.007793
C	 2.1698158194	 1.6247610009	 1.133596151	-0.236602
N	 1.3840131423	 2.0530058538	-0.0407717073	-0.129974
H	-0.019401711	-4.9085347535	-0.1656186396	 0.193555
H	-0.619148291	 1.7824972373	-0.6956917439	 0.121617
H	-1.0541729765	 2.7931287967	 1.4016136073	 0.120408
H	-0.4169414751	 1.4111366543	 2.3257469834	 0.117845
H	 1.3999660292	 3.7022992828	 1.5330930475	 0.100668
H	 3.2057609709	 1.941932055	 1.0692797839	 0.126716
H	 2.0235090966	 0.6237452048	 1.5323845644	 0.127681
