17
gdb 23560	2.42731	1.56275	1.0817	2.0505	78.15	-0.2298	0.0048	0.2347	1121.0915	0.135527	-417.891676	-417.883638	-417.882694	-417.924181	31.099	
O	-0.1246217345	 1.3250586047	 0.0851397116	-0.396131
N	 0.0185580893	-0.0732323279	-0.0138383507	-0.280295
C	-1.1079147115	-0.6494351303	-0.0460663079	 0.403219
C	-2.5541826919	-0.2606349131	 0.0626711202	-0.161922
N	-3.2529348194	-0.9194673958	-1.0934160616	-0.335423
C	-2.9248043029	-1.7146944073	 0.1064827966	-0.173882
C	-1.4582735354	-2.1123353979	-0.029886775	 0.329577
C	-0.8388412049	-3.249651864	-0.7862412724	-0.307809
C	-0.7220027517	-3.1921220904	 0.7165656052	-0.333542
H	 0.7919551936	 1.6198058755	 0.1030791451	 0.306118
H	-2.9823547332	 0.5964983477	 0.5620476013	 0.11492
H	-4.233303199	-0.6429882332	-1.0123443986	 0.232281
H	-3.6852979593	-2.20518849	 0.7004971991	 0.104996
H	-1.5056266109	-3.9838886937	-1.2252770872	 0.119459
H	 0.0433444403	-3.0249554189	-1.3753666422	 0.130837
H	 0.2347897972	-2.9243869371	 1.1509788052	 0.13181
H	-1.3110755058	-3.8882730783	 1.3050228013	 0.115787
