19
gdb 69784	3.11069	1.35293	1.2814	1.2265	74.55	-0.2446	0.0804	0.3251	1065.2784	0.159273	-423.004091	-422.996057	-422.995113	-423.035979	32.937	
O	-0.0415751982	 1.3957299684	-0.048285101	-0.473063
C	 0.0124048477	 0.002601904	 0.0330518596	 0.411161
C	-0.412646833	-0.8186623968	-1.1598053799	-0.356529
C	-1.283814553	-0.7687687015	 0.0838085967	-0.091757
C	-1.1139978706	-1.8946683808	 1.0567138883	-0.091757
C	-0.8992455135	-1.5012747504	 2.5083064405	-0.356528
C	 0.2825688105	-1.8142440429	 1.6231965305	 0.411162
O	 0.9895031411	-3.0008301571	 1.8295776893	-0.473062
C	 1.023800533	-0.6286205827	 0.9959598725	-0.376296
H	 0.6788354878	 1.6889752174	-0.6167634861	 0.280857
H	-0.7679999388	-0.2601825772	-2.0190894553	 0.110163
H	 0.1168726203	-1.7382539804	-1.3905025574	 0.115057
H	-2.2244640652	-0.2310877107	 0.0262127315	 0.093968
H	-1.5485058278	-2.8673441644	 0.8509358404	 0.093968
H	-1.0866596887	-0.4734673485	 2.8045303688	 0.115056
H	-1.147829518	-2.2508023702	 3.2519183567	 0.110163
H	 1.508325977	-2.9020688349	 2.6353204431	 0.280857
H	 1.9231926886	-0.990967599	 0.4844444259	 0.098289
H	 1.3327818997	 0.1159668137	 1.7389064907	 0.09829
