19
gdb 126525	5.7087	0.75124	0.70315	3.0048	80.07	-0.2252	0.0093	0.2345	1649.0966	0.159716	-419.218119	-419.208926	-419.207982	-419.252854	33.7	
C	 0.1371704217	 1.5930998769	 0.0864542976	-0.38339
C	 0.0628335974	 0.0652879582	 0.0648894707	-0.160971
C	 0.5563815289	-0.5286079733	-1.2693380519	-0.304614
C	 0.5083187884	-2.0185143925	-1.301702628	 0.468629
C	-0.2270137255	-2.9125907425	-2.0139765868	-0.425595
C	 0.2142285881	-4.180092807	-1.5267372064	 0.419542
N	-0.2778533861	-5.4267518022	-1.8791936332	-0.589693
N	 1.1450083369	-4.0544935939	-0.605416447	-0.231158
O	 1.3243800195	-2.669508011	-0.4552707511	-0.226008
H	 1.1655866232	 1.9425043134	-0.0575810438	 0.1178
H	-0.4761046554	 2.0334116254	-0.7078545375	 0.114181
H	-0.218905675	 1.9915000055	 1.0411672175	 0.117532
H	 0.6628250634	-0.3531485486	 0.8798901203	 0.122774
H	-0.9684346637	-0.2632603086	 0.2400477933	 0.105481
H	-0.049147228	-0.1457369327	-2.0975193643	 0.112798
H	 1.5877498695	-0.1994171066	-1.4501776499	 0.123587
H	-0.9771721677	-2.7088730932	-2.7601112885	 0.107982
H	-0.4998880975	-5.5194921467	-2.8600710724	 0.25255
H	 0.3146601419	-6.1820903506	-1.5600784984	 0.258573
