18
gdb 68335	3.29015	1.17851	1.02456	3.9061	73.37	-0.2487	0.0295	0.2782	1187.4273	0.147858	-439.058731	-439.050372	-439.049428	-439.09252	31.615	
O	 0.0021673047	 1.3473356156	 0.1038604887	-0.477441
C	 0.0649796463	-0.0320574842	 0.0197380454	 0.344185
C	 0.6504987147	-0.9363146619	-1.1094931816	-0.289616
C	-0.0067880804	-1.8945753638	-0.0740875343	-0.055239
C	 0.655737522	-1.0502009566	 1.0505848453	-0.294678
C	-1.2083187408	-0.8979461575	-0.0553880508	 0.062918
N	-2.0975330531	-0.855623347	 1.0822512464	-0.308723
C	-3.0110757969	-1.8332155491	 1.3261970063	 0.144422
O	-3.0919276492	-2.8722317858	 0.7064401217	-0.323794
H	 0.8962656239	 1.6931590119	 0.1977200683	 0.287342
H	 0.1775818832	-0.8656119295	-2.092188918	 0.101137
H	 1.7394914191	-0.9824254229	-1.1817235085	 0.093295
H	-0.0780150084	-2.9753566802	-0.133698445	 0.106215
H	 1.7460354988	-1.0997692312	 1.1131600624	 0.089495
H	 0.1893990681	-1.0877654274	 2.0353292796	 0.101079
H	-1.7654753039	-0.8443296812	-0.9960651322	 0.090949
H	-2.1779369487	 0.0145932396	 1.5860100185	 0.255447
H	-3.6769987894	-1.5778446589	 2.1754252477	 0.073007
