20
gdb 63543	2.90602	1.43042	1.27961	2.1259	78.92	-0.2285	0.0708	0.2993	1085.1189	0.169589	-403.084317	-403.075602	-403.074658	-403.117131	34.242	
C	-0.1087528268	 1.5655773975	-0.0763863685	-0.435692
C	 0.0045755735	 0.066846327	 0.02545922	 0.391543
O	-1.1580445228	-0.5550540703	-0.454538175	-0.48076
C	 1.3446248077	-0.616426846	-0.1936889711	-0.437674
C	 0.7070064567	-0.6000787649	 1.1693302457	 0.293493
C	 1.2723904208	-0.1224345387	 2.5111398512	-0.352436
C	 0.614976963	-1.3735653184	 3.0951031078	-0.019045
C	-0.8188052361	-1.4328072909	 2.7613571818	-0.236188
N	 0.1571903175	-1.8701356462	 1.7293655878	-0.184383
H	 0.7912968295	 2.0545717173	 0.3057007322	 0.114656
H	-0.2438039784	 1.8650363354	-1.1208643124	 0.129416
H	-0.9712805005	 1.926957373	 0.4930323096	 0.120758
H	-1.1699381814	-1.4566668877	-0.1100272232	 0.294103
H	 1.342917572	-1.5679698475	-0.7166239808	 0.119495
H	 2.224131081	-0.0011755373	-0.3601310237	 0.109558
H	 2.3639548907	-0.1558495772	 2.5393200246	 0.11633
H	 0.9318652539	 0.8381077778	 2.9097635939	 0.107169
H	 1.0755977619	-2.0494212592	 3.8075085405	 0.101712
H	-1.3961896426	-2.2585286142	 3.165337118	 0.122106
H	-1.3795645194	-0.5169679894	 2.5918872816	 0.125837
