21
gdb 119856	3.22541	0.9689	0.7993	3.083	86.93	-0.2345	-0.0375	0.197	1509.2688	0.182463	-387.145633	-387.136175	-387.135231	-387.18077	34.401	
C	 0.0632953444	 1.5796916513	 0.0781837522	-0.379392
C	 0.0672551619	 0.0500001528	 0.0424589926	-0.163657
C	 0.6116673083	-0.5074189037	-1.287959691	-0.302377
C	 0.6477112162	-2.0041320445	-1.3209138058	 0.223053
C	-0.1221646534	-2.8593812023	-2.009475841	-0.163919
C	 0.2108885247	-4.312111068	-1.7767381496	-0.264228
C	 1.3835266281	-4.2695193515	-0.7784483543	-0.324759
C	 1.6354217934	-2.7776725577	-0.5192957035	 0.334632
O	 2.4896757976	-2.3133009811	 0.2028379027	-0.338548
H	 1.0761041506	 1.9797996634	-0.0412581896	 0.118777
H	-0.5539527259	 1.9958033473	-0.7263254076	 0.109899
H	-0.3319077562	 1.9531278973	 1.0279617417	 0.112258
H	 0.6799719747	-0.3415170789	 0.8609297607	 0.125948
H	-0.9502346724	-0.3294106796	 0.1993497289	 0.091542
H	 0.0092370896	-0.1284625962	-2.1220519726	 0.094883
H	 1.6328596032	-0.1302370048	-1.4273674808	 0.117076
H	-0.9187050612	-2.5620824904	-2.685396161	 0.104339
H	-0.6571411779	-4.8566016452	-1.3850288511	 0.119037
H	 0.477167166	-4.8095607644	-2.7174519152	 0.11923
H	 1.1596906095	-4.7682746395	 0.1691598607	 0.133097
H	 2.2965681989	-4.7298310543	-1.1669860965	 0.133108
