19
gdb 3155	3.63385	2.62422	1.8503	0.1622	71.38	-0.2602	0.0929	0.3531	773.5312	0.171871	-273.764529	-273.757266	-273.756322	-273.7955	28.11	
C	-0.5559059844	 1.2926682659	 0.0463903112	-0.411214
C	 0.1009988477	-0.0744056636	-0.0637832046	-0.017724
C	 1.4739507824	-0.1829975027	-0.794477436	-0.223227
C	 1.9760916074	-1.1438713771	 0.3215324564	-0.296704
C	 0.7785130399	-0.701692532	 1.1725559763	 0.379744
C	 0.8718166889	-0.0811088748	 2.5379296077	-0.316879
C	 0.1527112531	-1.3980964362	 2.340710043	-0.331671
H	 0.1376231136	 2.0316765678	 0.4621602178	 0.113761
H	-0.8772391952	 1.6518075154	-0.9377034048	 0.112308
H	-1.4424234001	 1.2650859161	 0.690863454	 0.111162
H	-0.6096831165	-0.7898386315	-0.4966903494	 0.067653
H	 1.4658203584	-0.5646766229	-1.8180850577	 0.092735
H	 2.0091233029	 0.7713443645	-0.7824918769	 0.098093
H	 1.9158099474	-2.1965194507	 0.0255862536	 0.097746
H	 2.9734412233	-0.9549522495	 0.7285211751	 0.095006
H	 1.8350619203	-0.0932251672	 3.0389346646	 0.106663
H	 0.271992182	 0.7977198227	 2.7524504529	 0.109249
H	-0.9308143602	-1.4008518086	 2.4170935932	 0.106278
H	 0.6249240193	-2.3024751256	 2.7124783536	 0.107021
