24
gdb 15904	2.51454	1.61996	1.25849	0.1033	84.59	-0.2724	0.0749	0.3473	1139.7279	0.22287	-314.272502	-314.262871	-314.261927	-314.306308	36.343	
C	 0.3741481314	 1.8414833531	 0.1150304746	-0.385472
C	 0.3575896963	 0.3216730125	-0.0896918088	-0.193397
C	 0.734350809	-0.4553604021	 1.1688069461	 0.040958
C	-0.273368079	-0.5971104396	 2.364968446	 0.017813
C	-1.7584379777	-0.3965454331	 2.0684247541	-0.406013
C	 0.1585241729	-2.0883675695	 2.4998686684	-0.239234
C	 0.8841984481	-2.0146606242	 1.1235828113	-0.000401
C	 0.1852255306	-2.755945887	-0.0144769753	-0.399773
H	 1.3699295759	 2.1865479493	 0.4156416558	 0.112129
H	 0.1015374676	 2.3710892164	-0.803411981	 0.109037
H	-0.3280172205	 2.1502533405	 0.8965345803	 0.118384
H	-0.629650208	 0.0118844084	-0.4516211958	 0.093269
H	 1.0648374252	 0.0616270375	-0.8887880475	 0.091204
H	 1.6696219325	-0.0319497465	 1.555654749	 0.061258
H	-0.0068288666	 0.0208539464	 3.2283276798	 0.061485
H	-2.0990152296	-1.0055591169	 1.2248479991	 0.11679
H	-2.357688443	-0.6859974592	 2.9391803587	 0.110998
H	-1.9935965996	 0.6482178741	 1.8384181527	 0.113858
H	 0.8392524074	-2.2663783709	 3.3365774487	 0.09198
H	-0.6598519373	-2.8130459906	 2.5667465728	 0.087482
H	 1.9284859495	-2.3427213708	 1.1563412177	 0.060911
H	-0.8755204657	-2.4963461804	-0.0907033673	 0.11528
H	 0.6493854477	-2.5394151699	-0.9828068026	 0.111676
H	 0.244651483	-3.8384336474	 0.1458671633	 0.109779
