17
gdb 35535	3.93814	1.15605	1.08878	1.7276	81.56	-0.2372	-0.0014	0.2358	1157.5437	0.135466	-384.619716	-384.611948	-384.611004	-384.652215	30.242	
C	 0.0297648282	-1.1684146894	 0.1666649659	-0.462503
C	 0.0068058733	 0.0286457342	 0.065817572	 0.334466
C	 0.0029546371	 1.4831688595	-0.0831057169	-0.076679
O	-0.7476969455	 2.0986344326	 0.9943639453	-0.283768
C	-0.0008962562	 3.2038715276	 1.4627396284	 0.09567
C	 0.7475617906	 3.2507383501	 2.8479983858	-0.254879
C	 2.042273127	 3.7035850752	 2.0662694561	-0.312272
C	 1.3577488644	 3.0997466899	 0.8587941335	 0.223003
C	 1.4168095253	 2.0740919019	 0.0216953246	-0.246411
H	 0.039751164	-2.2262106253	 0.2610772907	 0.200071
H	-0.4907460595	 1.7351923359	-1.0357072405	 0.112066
H	-0.552160547	 4.1376921082	 1.2861487561	 0.082713
H	 0.3572474851	 3.934652308	 3.6048544422	 0.10505
H	 0.8621858138	 2.2467384896	 3.2594678033	 0.126377
H	 2.1253108423	 4.7936862475	 2.0289108984	 0.119015
H	 3.002402756	 3.2798041682	 2.3634841995	 0.120621
H	 2.2761285113	 1.5769627363	-0.4068800844	 0.11746
