19
gdb 58887	3.31721	1.33363	1.0909	1.9962	75.82	-0.251	-0.0036	0.2474	1148.7114	0.158788	-423.018883	-423.010546	-423.009602	-423.051587	32.699	
C	 0.0157934332	 1.5758087747	 0.2485909198	-0.404719
C	 0.0647763183	 0.0747365959	-0.0605588824	 0.018807
O	 0.7984344295	-0.6270772896	 0.9279322345	-0.433612
C	-1.3248449092	-0.5219704373	-0.1888561448	 0.388432
O	-1.9099893721	-0.905283701	 1.0939032424	-0.319878
C	-1.6581434892	-1.9255087714	 0.1098010127	-0.03274
C	-2.8826572364	-2.3146517236	-0.7077971812	-0.298051
C	-3.225514066	-1.0289237006	-1.4341124016	-0.074596
C	-2.3571780698	-0.0507583231	-1.1657361408	-0.150321
H	 1.0314996961	 1.9490943191	 0.4002668153	 0.125593
H	-0.4428989773	 2.1439479037	-0.5672382521	 0.112628
H	-0.5612559686	 1.7596031171	 1.1611540215	 0.124484
H	 0.5988879854	-0.0831462682	-1.0062457769	 0.094592
H	 0.1888468985	-0.7308682451	 1.6722699285	 0.287851
H	-0.908212805	-2.6577679037	 0.3907513112	 0.107204
H	-2.651237608	-3.1308503271	-1.4040504864	 0.116942
H	-3.7039396527	-2.6633169064	-0.0701708564	 0.128764
H	-4.1026431842	-0.9330163183	-2.064205791	 0.104908
H	-2.3919237223	 0.9558923649	-1.5621704722	 0.103712
