22
gdb 13614	3.02513	1.29108	1.01796	1.5854	78.22	-0.2545	0.0723	0.3268	1232.2734	0.198821	-350.194054	-350.184265	-350.18332	-350.228511	35.995	
C	-0.5482137694	 1.0686843158	 1.1544104357	-0.383562
C	-1.1393497695	-0.0693160074	 0.3117392983	-0.021293
C	-2.5810749152	 0.2505570793	-0.1173248997	-0.060656
O	-3.4537115851	 0.5130837068	 0.9725965476	-0.419978
C	-0.282757502	-0.360154226	-0.9081553896	 0.01904
C	 0.9755677366	-1.1908082843	-0.8102439653	-0.311331
C	-0.2082173082	-1.7118885504	-1.5894656621	-0.001073
C	-0.9749829863	-2.9290211104	-1.1172893602	-0.409163
H	 0.4364895236	 0.7989978546	 1.5474359577	 0.109638
H	-0.4293287714	 1.9754980018	 0.5491806207	 0.109121
H	-1.2093030936	 1.311105442	 1.9900499106	 0.121082
H	-1.1780027246	-0.9729130644	 0.9377492951	 0.055397
H	-2.5891831973	 1.1638762841	-0.7246364229	 0.10568
H	-2.9689774172	-0.5625530221	-0.749518624	 0.089061
H	-3.5277078782	-0.2960897958	 1.4886813954	 0.279466
H	-0.2188313259	 0.4900062075	-1.5859600058	 0.077148
H	 1.8639909596	-0.8694251457	-1.3430577804	 0.107259
H	 1.1827569057	-1.6631531355	 0.1462493246	 0.105539
H	-0.10639629	-1.6630266959	-2.6710252121	 0.081334
H	-1.0320402548	-2.9811491691	-0.0259965776	 0.114122
H	-1.9997395112	-2.9373218251	-1.5062116454	 0.1157
H	-0.4858317354	-3.8481822499	-1.4587827105	 0.117469
