20
gdb 58488	2.21254	1.2703	1.06579	2.4549	82.18	-0.2404	0.0379	0.2782	1254.3083	0.167684	-403.089542	-403.07924	-403.078296	-403.124378	38.524	
C	 0.1391377988	 1.362391932	-0.373254818	-0.425179
C	 0.0160158657	-0.0077953418	 0.2917404744	 0.08891
O	 0.447452448	 0.0147919092	 1.65012191	-0.434878
C	-1.3977235735	-0.5839950082	 0.1802644515	 0.320595
C	-2.459903172	 0.0786215573	 1.0332332027	-0.493426
N	-1.7393285134	-1.0190626659	-1.1783868696	-0.359479
C	-1.5694414506	-2.0469380228	-0.1168084077	-0.315168
C	-0.4786940677	-2.9727559382	-0.2475821687	 0.388331
C	 0.4171144113	-3.7701513277	-0.3338555798	-0.433529
H	 1.1744217995	 1.7107624736	-0.3234580298	 0.124244
H	-0.1637138551	 1.3038931691	-1.4219083794	 0.140205
H	-0.4936698756	 2.1096782455	 0.122429036	 0.102525
H	 0.6908132179	-0.7045467806	-0.2135195798	 0.108355
H	 0.1306208879	 0.8313059699	 2.0495143356	 0.278742
H	-2.6065577321	 1.1259928605	 0.745653879	 0.123452
H	-3.4223585965	-0.4321033895	 0.9297285619	 0.117401
H	-2.1778899088	 0.0499944731	 2.0898954263	 0.134759
H	-2.7318619336	-0.8853650965	-1.3601348154	 0.230752
H	-2.4798968218	-2.4924423371	 0.2805018465	 0.106528
H	 1.2148595615	-4.4666510518	-0.4107208758	 0.196861
