16
gdb 26134	2.671	1.29489	1.0543	1.7379	67.5	-0.2202	-0.0037	0.2165	1162.7495	0.12378	-475.0518	-475.043074	-475.04213	-475.085677	31.733	
C	-0.2516942814	 1.6311567868	-0.1068023897	-0.401687
C	 0.0046341005	 0.1264356801	 0.0393890309	 0.001312
O	-1.2169944644	-0.582376332	 0.2657615522	-0.423971
C	 0.778359208	-0.4387683158	-1.1010244843	 0.242691
C	 1.9222892477	-1.1599446871	-1.2377188958	 0.238845
O	 2.7639650514	-1.5596838734	-0.2665591268	-0.427379
N	 2.1551924443	-1.4535701255	-2.5666302377	-0.337286
C	 1.1521741903	-0.9111193181	-3.1831888482	 0.073012
O	 0.2781098989	-0.2782903561	-2.385869769	-0.19395
H	 0.6898687489	 2.186563359	-0.1551642287	 0.12253
H	-0.8130537463	 1.8393060512	-1.0239889238	 0.119108
H	-0.8333503223	 1.9892142627	 0.7462715876	 0.125775
H	 0.602568771	-0.0557379798	 0.9381640768	 0.117182
H	-1.752237785	-0.4940783302	-0.5307582162	 0.281526
H	 3.471413266	-2.0557363805	-0.6956590856	 0.308282
H	 0.9449840223	-0.9106357414	-4.2416894518	 0.154011
