20
gdb 78927	4.40932	1.36324	1.33625	1.0013	82.45	-0.2154	0.0893	0.3048	1053.6125	0.171535	-365.930693	-365.923126	-365.922182	-365.962181	30.813	
C	-0.0868450814	 1.5616906268	 0.0074182984	-0.323082
N	 0.0241134847	 0.1137267089	 0.0061496282	-0.0645
C	 1.0544349059	-0.5225848323	-0.8389583126	-0.036822
C	 2.4782637935	-0.1169393682	-0.3292566059	-0.143476
C	 2.202898191	-0.1394299195	 1.1798580835	-0.143474
C	 0.692940205	-0.5520179028	 1.1419910092	-0.036833
C	 1.1596942047	-1.6997370602	 0.1864377856	-0.129895
C	 2.6674012125	-1.3888416719	 0.4661491728	 0.341222
C	 3.852604138	-2.2742996943	 0.669183767	-0.524446
H	 0.8728786356	 2.074065368	 0.1901491145	 0.100869
H	-0.4773771311	 1.8992238938	-0.9586698046	 0.115936
H	-0.7951085595	 1.8733465707	 0.7826627383	 0.115936
H	 0.8637056764	-0.6094138712	-1.9087665706	 0.065694
H	 3.227343816	 0.5213273764	-0.7795376879	 0.082067
H	 2.7413675208	 0.4816175808	 1.883853422	 0.082066
H	 0.1371629286	-0.66857249	 2.0725464208	 0.065692
H	 0.6665507256	-2.6621623991	 0.0821494956	 0.074332
H	 4.0361488727	-2.9076270003	-0.2069013602	 0.11917
H	 4.7564915126	-1.6801836807	 0.8434422913	 0.120376
H	 3.7179359785	-2.934230465	 1.5344427845	 0.11917
