16
gdb 132537	3.07248	1.38548	0.96628	1.6048	75.71	-0.2523	-0.0476	0.2048	1172.5921	0.123451	-442.104238	-442.095872	-442.094928	-442.137682	30.195	
C	-0.0347302987	 1.4982616997	 0.0245475474	-0.471689
C	-0.0314274985	-0.0048636828	-0.0128723283	 0.304683
C	-0.1021754012	-0.7200201015	-1.2042324212	-0.075103
N	-0.0989330003	-2.0599482749	-1.2329356227	-0.290835
C	-0.025247556	-2.6531984237	-0.0733218939	 0.284433
F	-0.0199427194	-3.985876663	-0.0681082397	-0.064725
C	 0.0481840214	-1.9825844806	 1.1588804264	 0.18185
C	 0.1309876987	-2.7318224486	 2.4569871319	-0.485922
N	 0.0434660952	-0.6539363773	 1.162926345	-0.340557
H	 0.8752083682	 1.8726343214	 0.5041386462	 0.143178
H	-0.0981345395	 1.9228199748	-0.9803137065	 0.125016
H	-0.8817640232	 1.8661049999	 0.6122320967	 0.143178
H	-0.1631451582	-0.212411134	-2.1627024902	 0.117348
H	 1.0155998398	-3.3771118623	 2.4830875608	 0.14317
H	 0.1792648116	-2.0219960628	 3.2834406194	 0.142804
H	-0.7388897701	-3.3836770643	 2.5912142588	 0.14317
