19
gdb 64179	2.16831	1.5	1.37926	1.5395	77.66	-0.2499	0.0265	0.2764	1082.1191	0.155349	-422.981429	-422.971601	-422.970657	-423.015171	37.858	
C	-0.5926459759	 1.340890809	 0.1728060902	-0.453207
C	 0.1230920617	 0.0326506304	-0.1062131984	 0.376442
O	-0.7095511197	-0.8983440473	-0.7736291302	-0.474135
C	 1.4779855577	 0.0371131621	-0.858257391	-0.252858
C	 1.9912081077	-1.0658936229	 0.1040047723	-0.275326
C	 0.8603877795	-0.6715687218	 1.1069508094	 0.167617
O	 1.2813534466	 0.3372659744	 2.0149948155	-0.468405
C	 0.1261468861	-1.7323183819	 1.782196911	 0.269585
C	-0.4969643226	-2.5988620515	 2.3390667458	-0.454803
H	 0.0592747115	 2.048142679	 0.688438849	 0.134102
H	-0.9283088469	 1.7802904931	-0.7717820381	 0.120036
H	-1.4741661331	 1.171357891	 0.8020044144	 0.110898
H	-1.3659465896	-1.2144291192	-0.1403376858	 0.278361
H	 1.4108809067	-0.2127943464	-1.9175726278	 0.109645
H	 2.0112174033	 0.9806983196	-0.7306217038	 0.10979
H	 1.8459636341	-2.0692733365	-0.2974311132	 0.122664
H	 3.0044183549	-0.9676125511	 0.4999432549	 0.09613
H	 1.8409865969	-0.0811083998	 2.6784479876	 0.284384
H	-1.0345245788	-3.3684505101	 2.8363875082	 0.19908
