19
gdb 41979	2.51961	2.06872	1.64834	2.3755	73.37	-0.2223	0.0782	0.3005	903.7171	0.163008	-423.011798	-423.005087	-423.004143	-423.042713	27.552	
C	 0.0573586469	 1.5746069985	 0.0919538988	-0.073232
O	 1.39055092	 1.9985050462	-0.2090121931	-0.255213
C	 2.01377284	 0.9972060211	-0.9657995444	 0.094759
C	 2.5846300852	-0.2091115342	-0.2577645738	-0.090363
C	 2.702182031	-0.3587122914	 1.2484740817	-0.092873
O	 1.5353612052	-0.0177643889	 1.9783817889	-0.239604
C	 0.350879523	-0.5681216422	 1.4356883264	-0.090392
C	 0.0612966177	 0.027925449	 0.0541740592	-0.056702
C	 1.2140629769	-0.2715448211	-0.9157545922	-0.134471
H	-0.2066215561	 1.977780326	 1.0737808743	 0.113788
H	-0.6391858467	 1.9810353399	-0.6562930569	 0.089209
H	 2.4879825923	 1.3581602004	-1.8737460406	 0.092976
H	 3.3871193204	-0.7095005404	-0.7950597897	 0.087669
H	 2.9764338702	-1.4064000314	 1.4642551517	 0.086847
H	 3.4963266544	 0.2818819299	 1.6452148642	 0.116355
H	 0.4199287272	-1.6675906758	 1.3688021374	 0.083908
H	-0.4453365824	-0.320994235	 2.1455722497	 0.104311
H	-0.8859478025	-0.3661962343	-0.3252808458	 0.075935
H	 1.0387246074	-0.8955268464	-1.7835441155	 0.087093
