15
gdb 5130	3.46144	2.04827	1.3061	2.1294	63.77	-0.1891	0.0373	0.2264	894.5503	0.120189	-396.012252	-396.004104	-396.00316	-396.045141	28.947	
C	-0.0024411589	 1.4510008417	-0.0186821893	-0.32966
N	-0.005482894	 0.0040597462	 0.013665355	-0.002635
C	-0.0123047971	-0.8405124738	-1.0430298015	-0.009352
N	 0.0215869276	-2.1105783402	-0.6712638235	-0.361109
C	 0.0624916357	-2.0729489338	 0.6871703261	 0.303883
O	 0.0938392489	-3.2007774203	 1.4384844791	-0.445092
C	 0.050041745	-0.7840162522	 1.1661546202	 0.119385
N	 0.0330290971	-0.2026074522	 2.44841222	-0.618588
H	 1.0051619765	 1.8542578601	 0.1304066872	 0.136355
H	-0.3781221756	 1.7867064435	-0.9873430687	 0.136201
H	-0.644685561	 1.8348778527	 0.7758168276	 0.155387
H	-0.0394391441	-0.4858894417	-2.0625883336	 0.123303
H	 0.0708696223	-3.9360719568	 0.8143274621	 0.297524
H	 0.9228774413	-0.2994074094	 2.9282283215	 0.245083
H	-0.6722711239	-0.6313693839	 3.0380338181	 0.249314
