21
gdb 78589	2.46429	1.57062	1.18193	1.2543	82.15	-0.2313	0.0708	0.3022	1135.6905	0.18199	-387.033425	-387.024565	-387.023621	-387.066508	34.663	
C	-0.1374903226	 1.5742979949	-0.3537004547	-0.434702
C	 0.1209571146	 0.0724912491	-0.2679228795	 0.054335
C	 0.8461413468	-0.7118729989	-1.3621792571	-0.139476
C	 2.3617023554	-0.835058648	-0.9784281137	-0.181772
C	 2.5797573793	-0.1349022071	 0.3634517891	 0.055474
C	 3.074514062	 1.3049636859	 0.4726254923	-0.432179
C	 1.1294393793	-0.5934359284	 0.7244219612	-0.19427
C	 1.3142112516	-1.738428957	-0.3865651162	 0.385119
O	 1.1050906468	-3.0926212554	-0.3951686011	-0.457401
H	 0.7144689932	 2.1368598162	-0.7371970147	 0.12017
H	-0.9808546919	 1.7677418235	-1.0264180022	 0.111059
H	-0.4014969928	 1.9864472342	 0.6268583469	 0.111529
H	-0.8410219301	-0.4275194243	-0.0993644778	 0.080287
H	 0.5442746208	-0.8811358019	-2.3886799557	 0.083694
H	 3.0878239565	-1.0723371429	-1.7469089501	 0.080557
H	 3.2551626434	-0.7664365331	 0.956064112	 0.064507
H	 2.6025040811	 1.9767216542	-0.2448992696	 0.121936
H	 2.9020026704	 1.7072872824	 1.4772978973	 0.11179
H	 4.1541673225	 1.341786889	 0.2873822625	 0.109748
H	 0.8491036585	-0.7383024565	 1.7674049546	 0.060832
H	 1.8303852152	-3.5184831359	 0.0758177665	 0.288765
