25
gdb 101483	2.61166	1.10336	0.95063	1.0825	88.89	-0.2485	0.0794	0.328	1416.8623	0.229381	-389.504771	-389.494573	-389.493629	-389.540766	37.778	
C	-0.1027952328	 1.3327834264	 0.0643675103	-0.232036
O	-0.2005945538	-0.056238297	-0.1354984526	-0.244631
C	 0.6502338034	-0.5857717194	-1.1487902266	 0.117662
C	 2.1134015369	-0.643113166	-0.6977258256	-0.40796
C	 0.0888670525	-1.9623097034	-1.5307241143	 0.035375
C	 0.0464527811	-2.97043478	-0.3467899972	-0.210288
C	-1.2554683175	-3.7644876286	-0.5425779145	-0.201933
C	-2.2293153652	-2.7034530815	-1.0749173701	-0.185923
C	-1.3749660795	-1.8919467328	-2.0680084574	-0.220394
H	 0.868121609	 1.6365409298	 0.48232209	 0.105376
H	-0.2622242193	 1.8909197311	-0.8720571187	 0.100938
H	-0.8848123578	 1.6119327084	 0.7755965882	 0.124527
H	 0.5829696587	 0.0680327542	-2.0362953733	 0.05818
H	 2.2205244358	-1.2675461431	 0.1939042654	 0.125993
H	 2.7382088821	-1.0646055583	-1.4918477144	 0.113539
H	 2.5035847932	 0.3520599303	-0.4659717205	 0.112251
H	 0.74232537	-2.353492083	-2.3186523943	 0.062038
H	 0.9336860063	-3.608543453	-0.3048410533	 0.085042
H	-0.0067747774	-2.4159725206	 0.5956189249	 0.113922
H	-1.1117700402	-4.5516758716	-1.2944053404	 0.08892
H	-1.6002256266	-4.2509341344	 0.3750555192	 0.088297
H	-3.1287374511	-3.1271527863	-1.5315687839	 0.083992
H	-2.5490150972	-2.0562419441	-0.2503409838	 0.104992
H	-1.7233881524	-0.8602302318	-2.1610537489	 0.09477
H	-1.4276088483	-2.3431775654	-3.0648099082	 0.087351
