21
gdb 107428	2.77305	1.41147	1.27702	2.4147	81.4	-0.2188	0.0728	0.2915	1121.3055	0.184477	-383.226707	-383.218603	-383.217659	-383.259238	32.329	
C	-0.3228479006	 1.5233709092	 0.0369789306	-0.380504
C	 0.1532037457	 0.0643795117	 0.0249438102	-0.299106
C	 0.7848975557	-0.3673284757	-1.2798463947	 0.35214
N	 1.8044115517	-1.4447424081	-1.2942883384	-0.386716
C	 2.192099705	-0.0668227627	-1.6645494079	-0.092609
C	 2.2321103224	 0.1821380334	-3.1660447312	-0.169377
N	 0.8536598204	 0.0411923413	-3.6962155986	-0.111371
C	 0.2692357273	-1.3069923505	-3.6302290855	-0.249093
C	-0.0282051093	-0.3187515075	-2.5623541079	-0.080214
H	 0.5086726841	 2.2094857915	-0.1528335633	 0.120941
H	-1.0847654632	 1.707444895	-0.7262298926	 0.127955
H	-0.7583571196	 1.7797927859	 1.0073903733	 0.116011
H	 0.8855785959	-0.0818268916	 0.8293062242	 0.09169
H	-0.6889395884	-0.6010102269	 0.2563807241	 0.108381
H	 2.1032980305	-1.633081325	-0.3390899024	 0.223902
H	 2.8647325966	 0.4821242591	-1.0102482767	 0.084424
H	 2.5615259174	 1.2094198946	-3.3591669217	 0.105429
H	 2.9160517646	-0.4952389449	-3.6875639871	 0.113072
H	-0.47027403	-1.5068477225	-4.4019185009	 0.103857
H	 0.9064013851	-2.141997139	-3.3594829357	 0.138382
H	-0.9928528313	 0.1791968727	-2.5181787079	 0.082805
