19
gdb 36810	3.28419	0.79462	0.66977	2.7959	76.7	-0.2415	0.0091	0.2506	1649.3134	0.158302	-419.16499	-419.155366	-419.154422	-419.201821	33.365	
N	 1.2162313348	-0.5761505917	 0.4282133509	-0.30968
C	 0.57347107	 0.3745130898	 0.2927320971	 0.264263
C	-0.2567633213	 1.5868869162	 0.1268476875	-0.199013
O	 0.4057963334	 2.7831053338	 0.4331972079	-0.226215
C	 1.2295591828	 3.3240760941	-0.5973134064	-0.079821
C	 2.6495731325	 2.7514539813	-0.6116674316	-0.164977
N	 3.4297676494	 3.4619158493	-1.6161368463	-0.066996
C	 4.1803780454	 4.627709328	-1.1530374909	-0.222476
C	 4.879385894	 3.3604091341	-1.5007041308	-0.217366
H	-0.6562555817	 1.5908245607	-0.8986726403	 0.142276
H	-1.1061864976	 1.5062493455	 0.8134834256	 0.161196
H	 0.7592824133	 3.1864673394	-1.5810865957	 0.108482
H	 1.273494842	 4.399278418	-0.3971835933	 0.1197
H	 3.0770353753	 2.8290097031	 0.4035148803	 0.094901
H	 2.6342636273	 1.6899185502	-0.8778791444	 0.127524
H	 4.2045188204	 5.4763865186	-1.8302991986	 0.119284
H	 4.1201901869	 4.8869498729	-0.0967774666	 0.112538
H	 5.2855604424	 2.7751209598	-0.6774675943	 0.116214
H	 5.4216022708	 3.2668117268	-2.43715133	 0.120166
