19
gdb 118632	2.771	0.80128	0.6597	4.1687	74.08	-0.2488	-0.0348	0.214	1685.8298	0.154822	-460.164984	-460.154227	-460.153283	-460.202922	35.397	
C	 0.0361696989	 1.4927109257	-0.0787984888	-0.233746
O	-0.0378811361	 0.084039624	-0.056308416	-0.237858
C	 0.6729887584	-0.5225206164	-1.1097752162	-0.073897
C	 0.5542367481	-2.0490930193	-0.9597829642	-0.122281
C	 1.1665188822	-2.7840814076	-2.166402667	-0.292946
C	 0.7256579178	-4.2323003934	-2.2628551556	 0.142602
O	 0.1604938591	-4.6966000765	-3.2201859979	-0.237368
C	 1.1688797679	-2.4822538935	 0.36239771	 0.154248
O	 1.9982611198	-3.3515322425	 0.4724425441	-0.249027
H	 1.0738168437	 1.8465520681	 0.0195152462	 0.111867
H	-0.3830183179	 1.9048739381	-1.0093905728	 0.111935
H	-0.5470813093	 1.8621661242	 0.7673085012	 0.135545
H	 0.2627136598	-0.2172184793	-2.0861634051	 0.103727
H	 1.7341805062	-0.2185415123	-1.0935510951	 0.099702
H	-0.523472472	-2.2590271065	-0.8857141714	 0.120894
H	 0.8918601262	-2.2897629562	-3.1023665353	 0.117965
H	 2.2593649613	-2.7736305523	-2.0656867015	 0.134634
H	 0.9639881226	-4.8517391744	-1.373785204	 0.102017
H	 0.8014656433	-1.91879268	 1.2428663592	 0.111986
