19
gdb 112359	3.00789	1.1785	0.91817	0.8463	78.57	-0.2554	-0.0062	0.2492	1288.592	0.160647	-419.277633	-419.268832	-419.267888	-419.312179	32.695	
C	-0.0119893776	 1.5554422715	 0.1737278207	-0.387744
C	-0.0430473347	 0.0382863835	-0.0217856545	-0.17962
C	 0.6991926851	-0.4611851082	-1.2823706101	-0.05432
C	 0.824503613	-2.001008009	-1.3265099643	-0.370633
C	-0.0483213107	-2.4624632178	-2.488520084	 0.409381
O	-0.3190919252	-3.5876170685	-2.8253581292	-0.351658
N	-0.4843921952	-1.3110013541	-3.1293628327	-0.353187
C	-0.0480735182	-0.1116344087	-2.5690622341	 0.377979
N	-0.2221707797	 1.0687395053	-3.0042404603	-0.523897
H	 1.0178821131	 1.9111987832	 0.2897659883	 0.111805
H	-0.4459865929	 2.0726679399	-0.6840298878	 0.155213
H	-0.5659678988	 1.8371832471	 1.074642656	 0.107814
H	 0.4176903879	-0.4524627659	 0.8445249534	 0.10087
H	-1.0811475229	-0.31808927	-0.0569256454	 0.101413
H	 1.6805520463	 0.0206029378	-1.318715978	 0.107779
H	 1.8478602145	-2.3395435529	-1.5146012864	 0.142128
H	 0.4914646721	-2.4897183232	-0.4072847292	 0.1385
H	-1.0502594594	-1.3650315167	-3.9641358785	 0.25867
H	-0.7601185566	 1.0809531867	-3.8727509039	 0.209508
