19
gdb 103026	2.34411	1.73056	1.18623	3.2086	80.35	-0.2461	0.0276	0.2737	1087.3239	0.160504	-382.02037	-382.012064	-382.01112	-382.053203	31.937	
C	-1.477249293	-0.3489165567	 0.0094811926	-0.344
N	-0.0429635118	-0.0590520278	-0.0065311701	-0.340069
C	 0.6657616017	-0.5523035906	-1.1689655247	 0.232802
C	 0.1550465246	 0.0659762151	-2.4081765782	 0.22485
N	-0.3050994388	 0.6079479633	-3.3215491811	-0.359742
C	 2.2260589252	-0.6912469729	-1.0573603741	-0.093559
C	 1.9818547431	-1.8652467593	-0.0637842037	-0.238033
C	 0.9817404754	-2.09161682	-1.2358502052	-0.068368
C	 2.1510746245	-1.7429021464	-2.2010913742	-0.249025
H	-2.0217034002	 0.0324390711	-0.8681405064	 0.128324
H	-1.6280663709	-1.4319406071	 0.0601607493	 0.129792
H	-1.9156574096	 0.0910024107	 0.908819207	 0.126494
H	 0.1078163845	 0.9409431822	 0.0795822512	 0.230017
H	 2.9258862906	 0.1394598398	-0.9598449929	 0.085144
H	 2.7911520588	-2.5943439752	 0.0078145592	 0.097383
H	 1.5588181157	-1.6095911968	 0.9045778541	 0.120961
H	 0.2442459981	-2.8865112177	-1.3478250879	 0.086467
H	 1.8923915889	-1.3862769395	-3.1995380131	 0.127603
H	 2.9679698031	-2.4655084423	-2.2318190818	 0.10296
