17
gdb 113347	2.5151	1.05338	0.84543	3.2914	70.25	-0.275	0.0067	0.2818	1357.0558	0.135307	-455.113219	-455.10363	-455.102686	-455.148467	33.914	
O	-0.0473018333	 1.3217142351	-0.5451961981	-0.410938
C	 0.0327539834	 0.1262728253	 0.2088893496	-0.080206
C	-1.3104017215	-0.5707964933	 0.2294128417	-0.068964
N	-1.6642715	-1.3487301258	-0.9659211062	-0.375896
C	-1.5106039404	-2.0559275632	 0.3317036087	 0.104708
C	-0.3881753119	-3.0861503685	 0.3564100932	-0.12
O	-0.7249128162	-4.2137964765	-0.4187633848	-0.405463
C	-2.7301822023	-2.4828558488	 0.9863895147	 0.257203
N	-3.7076751724	-2.8151378605	 1.5075622025	-0.331838
H	-0.2509552022	 1.0705603702	-1.4532655818	 0.293341
H	 0.8123967504	-0.5410307422	-0.1793477017	 0.101254
H	 0.313312515	 0.4212152995	 1.2250223194	 0.126745
H	-2.1010483981	 0.032546087	 0.6710944218	 0.120646
H	-2.6488093826	-1.2376148399	-1.1951171293	 0.257728
H	 0.5397149912	-2.6149992861	 0.0104206535	 0.103488
H	-0.2300832147	-3.442929617	 1.3782125394	 0.132909
H	-0.8711094643	-3.9014826652	-1.3196344726	 0.295284
