14
gdb 18233	4.44415	1.70124	1.40014	3.5036	57.63	-0.254	-0.0325	0.2214	856.3091	0.106411	-419.657894	-419.651032	-419.650088	-419.689686	24.567	
O	-0.7815956245	 0.8702580886	 0.414191319	-0.243063
C	 0.2830681057	 0.7299473817	-0.1255347306	 0.148543
C	 1.4314601737	 1.7226078863	 0.0212687027	 0.019633
O	 2.6529890331	 1.0388920091	-0.2200758182	-0.274026
C	 3.5652893092	 1.87729705	-0.9292392418	-0.106444
C	 2.710206953	 2.9196946182	-1.6116671687	 0.029784
O	 1.6216898929	 2.3504631526	-2.3457436444	-0.245627
C	 1.3738442889	 2.8316295777	-1.0200975996	-0.005512
H	 0.5169537788	-0.1230695673	-0.7959271973	 0.103848
H	 1.388145847	 2.1664220954	 1.0274177579	 0.101775
H	 4.2753782133	 2.3672975148	-0.2454885235	 0.105775
H	 4.1252010857	 1.2461297986	-1.6262430883	 0.128544
H	 3.1375072419	 3.8377474934	-2.0044244714	 0.113735
H	 0.6795870411	 3.659063411	-0.915187416	 0.123033
