20
gdb 12781	3.48716	1.51886	1.27834	1.7704	74.86	-0.2425	0.0885	0.331	1055.7552	0.17576	-348.981538	-348.97302	-348.972076	-349.014303	32.031	
C	 0.0534036521	 1.5343277842	 0.144230604	-0.381577
C	-0.1346955715	 0.0381948574	-0.1266777725	-0.190514
C	 0.7153933157	-0.4754255215	-1.2833469223	-0.032608
C	 2.27952179	-0.554186233	-1.1032810954	-0.266326
C	 2.1842261379	-2.0591965705	-1.3728848223	-0.039576
O	 1.3081243908	-2.6075248714	-0.3753088909	-0.290557
C	 0.7212338972	-2.0020300608	-1.5404174454	 0.405537
C	-0.2436920823	-2.8117094589	-2.3438507089	-0.505486
H	 1.0958879157	 1.7668516077	 0.3873013468	 0.117486
H	-0.222947375	 2.1350491216	-0.7298034398	 0.110022
H	-0.564593733	 1.865864164	 0.9844719255	 0.112298
H	 0.1143880276	-0.5414719658	 0.7689976435	 0.112382
H	-1.1930106996	-0.1616056491	-0.3428096808	 0.090338
H	 0.4732329319	 0.0639728453	-2.2067646136	 0.067419
H	 2.8267761958	-0.0011783734	-1.870331058	 0.101718
H	 2.6710587268	-0.293103073	-0.1162605165	 0.106736
H	 2.9211313247	-2.7305205019	-1.8006362202	 0.097104
H	-1.2212859029	-2.8582571328	-1.8502986369	 0.130243
H	-0.3900213846	-2.3710329314	-3.3355180405	 0.122076
H	 0.1232529627	-3.8345890165	-2.4640723159	 0.133282
