14
gdb 131798	6.68224	0.77577	0.70111	4.3052	59.89	-0.2845	-0.0171	0.2674	1488.8939	0.099691	-510.973226	-510.964909	-510.963964	-511.007517	28.652	
O	-0.2242564889	 1.4809139715	 0.0125685111	-0.4174
C	 0.0284095183	 0.0879746677	 0.0032495069	-0.079916
C	-1.3418252209	-0.5861432227	 0.0111687898	-0.30884
C	-1.2684448091	-2.0676229501	 0.0027399548	 0.44418
N	-0.2057521867	-2.7850312428	-0.0089462021	-0.177032
O	-0.6813057702	-4.1233845179	-0.012467675	-0.231585
C	-2.0375345541	-4.1138262039	-0.0023558312	 0.512218
O	-2.7669886047	-5.0466893657	-0.0018766904	-0.355057
O	-2.4214297727	-2.7817443096	 0.0075037574	-0.227968
H	 0.6198539404	 1.9414057146	 0.0092438436	 0.295488
H	 0.5903045813	-0.2229953618	-0.8887854976	 0.115671
H	 0.6051084324	-0.2321829936	 0.882483289	 0.115699
H	-1.9069725883	-0.2651443771	 0.8941415488	 0.15727
H	-1.9216452267	-0.2559286487	-0.8587927251	 0.157272
