17
gdb 10411	2.61264	1.94735	1.38494	1.2387	69.95	-0.2309	0.0365	0.2674	948.0866	0.140674	-363.784742	-363.776231	-363.775287	-363.817821	30.961	
C	-0.0078787643	 1.5008810249	 0.1087094593	-0.332691
N	-0.1201877747	 0.0582447208	-0.0882725061	-0.322984
C	 0.6496483753	-0.4733007631	-1.2046232973	 0.055118
C	 2.2082539936	-0.5628829882	-1.01501581	-0.114122
O	 2.127474193	-1.9739532782	-0.7437221851	-0.269811
C	 0.7446879557	-2.0244034995	-1.1354547565	-0.11752
C	 0.2066041199	 0.0922503268	-2.4709856334	 0.347912
C	-0.1255759702	 0.541359838	-3.5352706365	-0.468582
H	 1.0255219272	 1.8645896058	 0.2407205788	 0.098968
H	-0.4373014247	 2.0177210481	-0.7537258638	 0.142021
H	-0.5832492314	 1.7823912463	 0.9946317012	 0.122962
H	 0.1692735396	-0.4272608962	 0.7552769172	 0.226249
H	 2.7931848587	-0.3477445445	-1.9169893642	 0.106598
H	 2.6128574058	 0.002769675	-0.1673256245	 0.103601
H	 0.103251591	-2.4847348144	-0.3751378271	 0.109454
H	 0.5998131653	-2.5288756512	-2.0972654186	 0.112768
H	-0.4292898099	 0.9391187397	-4.4721255034	 0.200058
