21
gdb 59590	2.4927	1.40136	0.94058	3.3386	84.89	-0.2332	-0.0437	0.1895	1278.3392	0.182324	-387.137187	-387.128024	-387.12708	-387.171452	34.638	
C	-0.0393098027	 1.5614291601	 0.0216498467	-0.389314
C	-0.0870821528	 0.0247887838	 0.023557752	 0.024423
C	-1.5483066304	-0.4462323306	-0.0216591805	-0.39679
C	 0.7541203477	-0.5606104466	-1.135079741	-0.09788
C	 2.2261706443	-0.0827739369	-1.1912371363	-0.294148
C	 3.0305895637	-1.3332952393	-1.4286230773	-0.058189
C	 2.287917554	-2.4439016858	-1.395840945	-0.160656
C	 0.867619593	-2.1057646278	-1.1520802208	 0.370293
O	-0.0364118333	-2.8999405646	-1.010748516	-0.338645
H	 0.9764713668	 1.9547134773	 0.1226532003	 0.108686
H	-0.4614439101	 1.9604447062	-0.9087261809	 0.111676
H	-0.6324516674	 1.9622246324	 0.8500003958	 0.113436
H	 0.3603178351	-0.3285811677	 0.9644458465	 0.073673
H	-2.0392535113	-0.0826779234	-0.9330667075	 0.1042
H	-1.6218655168	-1.5332389187	-0.0141198443	 0.153059
H	-2.1013762836	-0.0432308084	 0.833360083	 0.101157
H	 0.2562110974	-0.2909770531	-2.0777749034	 0.10202
H	 2.4055988562	 0.6692159538	-1.9679101569	 0.118643
H	 2.5384528511	 0.3813571066	-0.2464956882	 0.123877
H	 4.1041873265	-1.3012465371	-1.5841023106	 0.114921
H	 2.6250258026	-3.4663131102	-1.5080366055	 0.115558
