17
gdb 87357	2.13003	1.30335	0.97414	1.1353	71.01	-0.2537	-0.0351	0.2186	1224.0682	0.132135	-458.960077	-458.950425	-458.94948	-458.996048	33.6	
O	-0.206264683	 1.299166194	 0.0684033323	-0.40381
C	-0.1549449722	-0.0808960952	 0.1371907907	 0.117496
C	-0.7812735789	-0.8443857322	 1.2333727668	-0.375124
C	-1.4612092934	-0.905403153	-0.1374189863	 0.179013
C	-2.7407478439	-0.1167636321	-0.3913265973	-0.382474
C	-3.7791938482	-0.414107025	 0.6708042519	 0.161374
O	-3.9229911492	 0.2493811827	 1.6674776599	-0.245759
C	-1.2254017396	-2.1383374772	-0.9215759738	 0.083191
O	-0.3117496068	-2.906136301	-0.7217030862	-0.275497
H	-0.471906509	 1.6510866334	 0.9238402495	 0.304536
H	 0.728250938	-0.4939131967	-0.3402277358	 0.13489
H	-0.2985483202	-1.760560301	 1.5558173177	 0.151748
H	-1.3208972738	-0.2942750059	 1.9992766772	 0.141728
H	-2.5192639283	 0.9543581934	-0.37928044	 0.135426
H	-3.1341258562	-0.3830030559	-1.3798656621	 0.115335
H	-4.3894496348	-1.3303319763	 0.5030182233	 0.083969
H	-1.9436811604	-2.306040572	-1.755805338	 0.073958
