20
gdb 123202	2.04209	1.26568	0.88594	3.1581	76.04	-0.2618	0.0189	0.2807	1367.1819	0.168696	-440.276416	-440.265992	-440.265048	-440.312964	35.857	
C	-0.9889996036	 1.3589055043	-0.5477411344	-0.392905
C	-0.7479437505	-0.1239452066	-0.7658611433	-0.031296
O	-1.7851147005	-0.8495499814	-0.1229681906	-0.250357
C	-1.6621234883	-2.2483203606	-0.2541386629	-0.071227
C	-2.9351004565	-2.895998688	 0.2670669915	-0.089103
O	-4.0542317596	-2.8033838498	-0.6060062277	-0.236129
C	-4.6003618408	-1.5177467732	-0.7859454966	-0.187401
C	-4.0509274986	-0.8205151801	-1.9658160811	 0.283735
N	-3.6502392215	-0.2852360039	-2.9084235454	-0.331286
H	-0.1902490767	 1.9433650598	-1.0137993488	 0.117814
H	-1.9407383986	 1.6576310261	-0.9946915012	 0.141108
H	-1.012833661	 1.5940331191	 0.5204095858	 0.120196
H	-0.7425026816	-0.3592181398	-1.8408196061	 0.1106
H	 0.2277314753	-0.428155694	-0.351959589	 0.085221
H	-1.504801363	-2.5366458864	-1.305225125	 0.109984
H	-0.8020008174	-2.6211024025	 0.3290373338	 0.092423
H	-2.7708730226	-3.9696750438	 0.395473642	 0.119197
H	-3.179942916	-2.4616836035	 1.2481359362	 0.107281
H	-5.677762938	-1.6429686015	-0.9439063465	 0.151574
H	-4.4506746503	-0.8785246144	 0.0926345993	 0.150571
