20
gdb 9555	2.87898	1.56322	1.44883	2.3499	70.76	-0.2419	0.0593	0.3012	1016.9265	0.174946	-386.127908	-386.118701	-386.117757	-386.161374	33.961	
C	-0.0007833626	 1.6534403405	-0.0744451621	-0.415385
C	-0.0007114536	 0.1319032639	 0.1192408009	-0.222615
C	-1.3925023426	-0.4961941814	 0.04048244	 0.322871
O	-2.2688383057	 0.0109749207	 1.0250139552	-0.482413
C	-1.9587153099	-0.624595996	-1.4010725788	-0.11957
O	-1.679153708	-2.0373206549	-1.4157065594	-0.297325
C	-1.4443333573	-2.047219259	 0.0142809158	 0.136879
C	-0.2653325842	-2.906746648	 0.4155239319	-0.418879
H	 1.020423704	 2.0445212983	-0.0726947906	 0.125515
H	-0.4623141425	 1.9404875009	-1.0257516152	 0.123761
H	-0.5354073449	 2.1699999346	 0.7313715533	 0.112675
H	 0.6320482456	-0.328718517	-0.6471791898	 0.111639
H	 0.4427472883	-0.1154675846	 1.0908709123	 0.10542
H	-2.2505903466	 0.9727443223	 0.9888175982	 0.279328
H	-3.0349126064	-0.4113254609	-1.4498857172	 0.094915
H	-1.4385797294	-0.0972157585	-2.2093730033	 0.093447
H	-2.3486349741	-2.374424901	 0.5479263739	 0.080002
H	 0.6538293112	-2.5995552894	-0.0898126014	 0.11889
H	-0.1086533314	-2.8587074935	 1.4982835884	 0.122444
H	-0.4643912098	-3.9497842768	 0.1499308979	 0.128404
