18
gdb 41320	3.22144	1.76743	1.35999	2.3035	75.81	-0.2208	0.0087	0.2295	957.9123	0.150147	-401.907872	-401.901044	-401.9001	-401.93894	27.906	
C	 0.0049048056	 1.4601274668	-0.0133983266	-0.07941
O	 1.4606211281	 1.4874460166	 0.0114376608	-0.345845
C	 1.529445084	 0.0619252876	 0.0618315093	 0.474097
C	 2.5597777161	-0.658791618	-0.7922748598	-0.372389
C	 2.7592617196	-1.9445030046	-0.0184418498	-0.062113
C	 2.1700607687	-1.9352960518	 1.1812355245	-0.092471
C	 1.4689914252	-0.6339439377	 1.4602475427	-0.079483
N	-0.0358279519	-0.6208907452	 1.4159640426	-0.340326
C	-0.0109523912	-0.0823602195	 0.0324979413	-0.118993
H	-0.4380577902	 1.9470181883	 0.8610300336	 0.111418
H	-0.3754239795	 1.9141430958	-0.9362174937	 0.100128
H	 2.2165651958	-0.8245787106	-1.8206056249	 0.108833
H	 3.4843659505	-0.0682413873	-0.8634274722	 0.123454
H	 3.3369600686	-2.772262107	-0.4162883675	 0.099033
H	 2.2003720249	-2.7526331463	 1.894786697	 0.096602
H	 1.8658635518	-0.0971932141	 2.3285770697	 0.085704
H	-0.430577076	-1.5548404552	 1.4614567437	 0.215749
H	-0.5850554502	-0.6171613976	-0.7257673408	 0.076015
