22
gdb 103970	3.33311	1.17991	1.06683	2.332	82.41	-0.2245	0.0629	0.2874	1249.9369	0.192685	-404.300643	-404.291092	-404.290148	-404.334344	36.884	
C	-0.2140430493	 1.5568271691	-0.0483763659	-0.413008
C	 0.0253661258	 0.0439524244	-0.0054503013	-0.205507
C	 0.8054252687	-0.4353516897	 1.225834189	 0.384473
O	 2.0912789735	 0.1590918526	 1.2853365041	-0.480773
C	-0.0629124893	-0.441571122	 2.5393117199	-0.334972
C	-0.0476213964	-1.9808078048	 2.493391529	-0.03444
C	 0.8602284584	-1.9745534133	 1.2796081341	-0.083136
N	 1.2779447018	-2.5392855761	 2.5378974573	-0.087824
C	 2.3558397931	-2.0218066315	 3.3720396698	-0.30859
H	 0.7280003343	 2.1140348281	-0.1085334233	 0.11199
H	-0.7997636116	 1.8328003528	-0.9299359721	 0.122509
H	-0.7594891305	 1.9073988836	 0.8346286519	 0.120855
H	-0.9352598937	-0.4831460588	-0.0388742539	 0.101488
H	 0.5852597529	-0.26312733	-0.8976344988	 0.103704
H	 1.9801049784	 1.1153955488	 1.3135225845	 0.277582
H	 0.3923026863	 0.0172580454	 3.4211173671	 0.098619
H	-1.0589719237	-0.0167945238	 2.3936349117	 0.100123
H	-0.8947378694	-2.6236977018	 2.7082364361	 0.089773
H	 0.8599483918	-2.6113368699	 0.3994266889	 0.083411
H	 2.3988242398	-0.9315868194	 3.4550742493	 0.118968
H	 2.2498245429	-2.4562952559	 4.3715757155	 0.111023
H	 3.3075687163	-2.361098788	 2.952790317	 0.123733
