16
gdb 65696	3.1026	0.96821	0.92019	2.1115	71.25	-0.2918	-0.0169	0.275	1298.7578	0.121909	-437.908952	-437.899877	-437.898933	-437.94313	32.248	
C	 0.0237463649	 1.5573380985	-0.3768719497	-0.456503
C	-0.0122820875	 0.0874084286	-0.0407709427	 0.398865
C	 1.2072954335	-0.7607204388	-0.1439564132	-0.321925
C	 0.62738075	-0.4637066321	 1.2376212921	-0.247284
C	 1.3131477841	 0.4130351487	 2.142258963	 0.296311
N	 1.8606955405	 1.1340916127	 2.8627196405	-0.332681
O	-1.1936237159	-0.5743056506	-0.4559012788	-0.225138
C	-2.3138137789	-0.3777852118	 0.285928378	 0.156786
O	-3.3663985855	-0.8426870943	-0.0231854173	-0.257744
H	 0.9727014925	 2.0027051047	-0.070907202	 0.152593
H	-0.0962714094	 1.6893478957	-1.4560389415	 0.147377
H	-0.7805983108	 2.1010851666	 0.1282543183	 0.138692
H	 1.0826739063	-1.7748574389	-0.5031082905	 0.152667
H	 2.1392439688	-0.2778130539	-0.4113388011	 0.148988
H	 0.1021785558	-1.2843066816	 1.7143070162	 0.150409
H	-2.1315661782	 0.2326425865	 1.1887636788	 0.098586
