20
gdb 62647	2.77235	1.71499	1.23521	1.3686	79.77	-0.2287	0.0673	0.296	1064.4141	0.169313	-403.057452	-403.048915	-403.047971	-403.0897	34.09	
C	-0.0923929256	 1.5813230322	-0.0262001794	-0.474653
C	-0.0685937044	 0.0632725958	-0.0233287776	 0.423114
O	-1.3377469493	-0.4930356177	-0.3060734389	-0.482021
C	 1.1554798312	-0.6435496266	-0.6464788573	-0.127095
N	 2.0305442763	-0.2461520644	 0.573179614	-0.174996
C	 2.4837276071	-1.6944512212	 0.6961646742	-0.226304
C	 1.031472013	-1.9090206568	 0.2731640757	 0.321797
C	 0.277245233	-3.1926081609	 0.04701664	-0.526291
C	 0.6399735714	-0.6542189384	 1.1309188439	-0.094819
H	 0.8892641902	 1.9796729511	 0.238525464	 0.150962
H	-0.3594731937	 1.9618170918	-1.0207345593	 0.102916
H	-0.8357141703	 1.9513773275	 0.6871079518	 0.122439
H	-1.6957481238	-0.0416677734	-1.0776748161	 0.278613
H	 1.5672833872	-0.5892928427	-1.6579886113	 0.069632
H	 3.2755187119	-1.9641390629	-0.0122039314	 0.094572
H	 2.7734834862	-1.9747788527	 1.7154875674	 0.095505
H	 0.2628860905	-3.7994755221	 0.9595992424	 0.115945
H	-0.7536878074	-2.9873323072	-0.2484988784	 0.142072
H	 0.754837592	-3.7891860733	-0.7388966189	 0.113562
H	 0.4407502945	-0.6115880881	 2.2043952952	 0.075051
