20
gdb 59441	2.71852	1.05719	0.95866	3.995	76.59	-0.2513	0.0074	0.2588	1351.5174	0.168488	-440.305113	-440.294756	-440.293812	-440.341057	37.169	
C	 0.1149406429	-0.6771185305	-3.3616360082	-0.394105
C	 0.224715964	-0.7121780321	-1.8299862761	-0.010442
C	 0.4246008568	 0.6910118961	-1.24025966	-0.395974
C	-1.0213879404	-1.344292195	-1.2491593595	 0.075995
O	-1.1901701229	-2.7513322921	-1.3885818273	-0.241921
C	-1.0520110322	-2.2412124741	-0.0685120282	-0.062884
C	 0.2013058347	-2.6310757667	 0.6834677435	 0.394469
N	 0.0495835635	-2.5967232909	 2.0414872872	-0.52981
O	 1.2522023272	-2.9167230565	 0.145971471	-0.353093
H	 1.0224066072	-0.2544805121	-3.8041310629	 0.112803
H	-0.0232260894	-1.6847442279	-3.7638371944	 0.132752
H	-0.7325357154	-0.0614358634	-3.6874566206	 0.105851
H	 1.0713219621	-1.3444108222	-1.5521898773	 0.124745
H	 0.5410188056	 0.6572312984	-0.1521138971	 0.11506
H	 1.3208226695	 1.1594193251	-1.6583164382	 0.118627
H	-0.4261276578	 1.3451170519	-1.4681103904	 0.108837
H	-1.941681652	-0.7779359013	-1.4259219593	 0.087694
H	-1.9724069139	-2.2645655436	 0.5194683576	 0.0844
H	-0.8499522818	-2.5013615402	 2.4791733039	 0.261267
H	 0.8279688122	-2.8935125228	 2.6073854464	 0.265728
