19
gdb 78482	3.47267	1.32475	1.27915	1.2693	74.3	-0.2539	0.0806	0.3344	1083.088	0.1607	-422.994137	-422.986625	-422.985681	-423.026042	29.483	
C	-0.08985855	 1.4299137022	-0.016603981	-0.427577
C	 0.044770743	-0.0774166806	 0.0280572499	-0.008043
C	 1.4066417041	-0.6594229186	-0.2177176465	-0.085101
C	 0.7779734071	-0.673730883	 1.1945270349	-0.085095
C	 0.7208826765	-2.2063840986	 1.1548833636	 0.060571
O	-0.5545223108	-2.8103486084	 0.9850900663	-0.26279
C	-0.4756461963	-3.5173335095	-0.2384761676	 0.018163
O	 0.3754107806	-2.7892216882	-1.1037852768	-0.262796
C	 1.3505290433	-2.1920551991	-0.2595319239	 0.060584
H	 0.8019427646	 1.9229051279	 0.3853323164	 0.113764
H	-0.2300715512	 1.7807941861	-1.0443468584	 0.122382
H	-0.9498984118	 1.7644225212	 0.5728598819	 0.122382
H	-0.8118462668	-0.6217518045	-0.3587804589	 0.099393
H	 2.230795679	-0.0616570284	-0.5868733194	 0.084545
H	 1.0507590906	-0.0885305675	 2.0639849823	 0.084546
H	 1.2987534226	-2.704379403	 1.9396649444	 0.07914
H	-0.0751786642	-4.5331586227	-0.0704804115	 0.087126
H	-1.4733450865	-3.5745935377	-0.6832155257	 0.119668
H	 2.3241356861	-2.6810059578	-0.36363292	 0.079138
