15
gdb 64642	2.20427	1.61237	1.41466	2.3984	72.77	-0.2485	-0.0381	0.2104	1002.9236	0.110191	-420.608888	-420.600423	-420.599479	-420.642079	31.714	
O	 0.190259753	 1.5011873963	-0.037429329	-0.449054
C	 0.1317779331	 0.0902008876	 0.0250158989	 0.096797
C	 0.6722694878	-0.4433319443	 1.3319758854	-0.095195
C	-0.1784785249	-1.2758340157	 1.9330795226	-0.072817
C	-1.4757222934	-1.4502633884	 1.1839313109	-0.374307
C	-1.3603032872	-0.3779273446	 0.1035835753	 0.350615
O	-2.2375649919	 0.1387871436	-0.5311603822	-0.309153
C	 0.7763436378	-0.5432403583	-1.1321836522	 0.321683
C	 1.2780380049	-1.07149179	-2.0891584464	-0.495818
H	-0.4957753804	 1.7689108908	-0.6654589308	 0.293894
H	 1.6604736106	-0.171811393	 1.6801255698	 0.121694
H	 0.0202984502	-1.7897429496	 2.8662216182	 0.114022
H	-1.569088436	-2.4412821921	 0.7187671188	 0.150071
H	-2.3772733947	-1.2998233869	 1.7873823948	 0.143252
H	 1.7305664508	-1.5285149854	-2.9346339144	 0.204316
