22
gdb 105086	2.72529	1.2252	1.05469	1.5542	82.04	-0.2216	0.0887	0.3103	1270.3093	0.192656	-404.296677	-404.286957	-404.286013	-404.331159	36.465	
C	-0.095856819	 1.6000417454	 0.0642402631	-0.401486
C	-0.0161761857	 0.0789143326	-0.0816321776	-0.246885
C	 0.6992521956	-0.4268299467	-1.3277594151	 0.377839
C	 0.7748036887	 0.3772585173	-2.5608884166	-0.227242
O	 1.9041688036	 0.2655681875	-1.6878591748	-0.267133
C	 0.7296233403	-1.9294067739	-1.4634997596	-0.063519
C	 1.8403890377	-2.6245307573	-2.1677124499	-0.261067
N	 1.6563754121	-2.7976850857	-0.7295470891	-0.096226
C	 2.6657738355	-2.2058996548	 0.1445936269	-0.327335
H	 0.8936648342	 2.0498377892	-0.0534102633	 0.137998
H	-0.7657167825	 2.0472586021	-0.6767164782	 0.115977
H	-0.4782160278	 1.8678369523	 1.053178257	 0.115283
H	 0.5007496803	-0.3438983133	 0.7884368497	 0.115193
H	-1.0226520225	-0.3584870245	-0.0706312463	 0.106083
H	 0.8765427875	-0.1312140669	-3.5181728017	 0.113929
H	 0.3242908129	 1.3658909477	-2.6037534587	 0.115908
H	-0.2732300979	-2.3522918637	-1.5336037593	 0.089622
H	 1.6449203526	-3.4983793181	-2.7843586409	 0.108625
H	 2.6651124933	-1.9951123123	-2.4965715746	 0.122396
H	 3.0676088238	-1.2470710475	-0.2075039361	 0.134593
H	 2.23845518	-2.0631346778	 1.1428016358	 0.117934
H	 3.4941027774	-2.9157593916	 0.2376497695	 0.119514
