19
gdb 19177	3.4606	1.79814	1.39088	0.8882	72.75	-0.2144	0.0702	0.2846	955.6271	0.164604	-364.971444	-364.963134	-364.96219	-365.003841	31.529	
C	-0.3298873277	 1.552441063	-0.0232439918	-0.481026
C	 0.0466194122	 0.0744137544	 0.0897185478	 0.065565
C	 1.2322980064	-0.5606493813	-0.6991293996	-0.100273
C	 2.2498539032	 0.0523688141	 0.3366669027	 0.166512
O	 2.6470064789	 1.3961646955	 0.3930698924	-0.450649
C	 1.0462879122	-0.526496207	 1.1377909801	-0.113041
N	 1.0536285256	-1.7447207625	 0.2323584119	-0.09219
C	 2.1013880456	-2.7561252744	 0.358017985	-0.332937
H	 0.4395644217	 2.1711816824	-0.4919834156	 0.129241
H	-1.2209072416	 1.6549839246	-0.6503297546	 0.127342
H	-0.5808253748	 1.9843511176	 0.9527379092	 0.123891
H	-0.8427065492	-0.5573241087	 0.0315799756	 0.085
H	 1.3335923222	-0.6913447371	-1.7788590164	 0.075334
H	 3.1764398524	-0.511955754	 0.4222829938	 0.083917
H	 1.8916387454	 1.9472372596	 0.6080397372	 0.287555
H	 0.9154756146	-0.6177259873	 2.2192757905	 0.073194
H	 1.878120652	-3.3662292757	 1.239567135	 0.123254
H	 2.042124147	-3.4107077515	-0.5178726461	 0.123837
H	 3.1413041137	-2.4101788318	 0.4458593028	 0.105472
