14
gdb 129018	4.08865	1.66335	1.18235	2.5831	81.82	-0.2058	-0.0723	0.1334	951.9844	0.105002	-395.733551	-395.727558	-395.726614	-395.763753	24.403	
N	 0.021440838	 1.3090170913	 0.0093311503	-0.320501
N	 1.1088706502	 2.0923855211	 0.0030944915	-0.078598
N	 2.2761765221	 1.5252192891	-0.0113849257	-0.231947
C	 2.4060265607	 0.1731513232	-0.0201190673	-0.068169
C	 1.3340834056	-0.6864333658	-0.0144596751	 0.242759
C	 1.0988555605	-2.0742946776	-0.0198835206	-0.294782
C	-0.2855865907	-2.2490044944	-0.0073517796	-0.059157
C	-0.9764879891	-1.003929951	 0.0062717857	-0.30395
C	 0.0109788251	-0.0396652778	 0.0019781507	 0.39647
H	-0.8364985635	 1.845880021	 0.0206508204	 0.284571
H	 3.4350920339	-0.1724854122	-0.0320584972	 0.130622
H	 1.8474397929	-2.8516249035	-0.0314906236	 0.100254
H	-0.7834926386	-3.2110521765	-0.0078313499	 0.105354
H	-2.0457341671	-0.8583328969	 0.0174932304	 0.097074
