17
gdb 84259	3.12313	1.46765	1.09866	3.4565	75.32	-0.2389	-0.0258	0.2131	1099.0404	0.135383	-421.802434	-421.794467	-421.793522	-421.835111	29.871	
C	-0.0915986776	 1.5843470715	-0.0183089344	-0.3987
C	 0.0245766233	 0.0608050593	-0.0271656345	-0.133475
C	 0.8547348761	-0.5273841106	-1.1631947183	-0.203985
C	 1.498779308	-1.6095928221	-0.7298780695	 0.167245
C	 2.8386596354	-2.2998713393	-0.6827692573	-0.148434
O	 2.7838320934	-2.2181749702	 0.7813166986	-0.30144
C	 1.3718045309	-1.8601195453	 0.7317466836	 0.010042
C	 0.8180334477	-0.4950167896	 1.2134060582	 0.337721
O	 0.9995403317	 0.075728444	 2.2483480373	-0.283367
H	 0.8927674367	 2.0531922999	-0.1122887982	 0.12727
H	-0.7197829173	 1.9341178573	-0.8427059973	 0.116978
H	-0.5318845354	 1.9231025444	 0.9226692619	 0.139895
H	-0.9847029879	-0.3753032457	 0.0152804672	 0.110775
H	 1.0058007086	-0.0076014209	-2.1026620079	 0.109978
H	 2.859410942	-3.3477003276	-1.0068196021	 0.116625
H	 3.6934726496	-1.7628728907	-1.1062867478	 0.128269
H	 0.7422646647	-2.6817257944	 1.1010879505	 0.104603
