17
gdb 53020	4.89514	0.95125	0.90733	1.8045	82.72	-0.2308	0.0241	0.2549	1342.2316	0.134835	-384.59611	-384.587982	-384.587038	-384.630248	30.3	
C	-0.0937249371	 1.4874617371	 0.0543197158	-0.517433
C	-0.0137992845	 0.036595597	 0.0007501716	 0.420118
C	 0.0427281628	-1.1660147285	-0.0417988419	-0.408216
C	 0.1383988522	-2.590802797	-0.1007309661	 0.368044
C	 1.2761399229	-3.4089624738	 0.5877195155	-0.267778
C	 0.9002537974	-4.520881994	-0.3864264186	-0.14439
C	-0.6209190478	-4.3698992747	-0.5668345548	 0.09813
O	-1.0699219315	-3.3283523751	 0.2954659182	-0.33378
C	 0.2972203134	-3.5297886607	-1.3768186924	-0.200689
H	 0.5445908287	 1.8943958857	 0.8461206599	 0.152289
H	 0.222380876	 1.9360550478	-0.8939209364	 0.152518
H	-1.1202427963	 1.8156340575	 0.2506732879	 0.157149
H	 2.2578689885	-2.9871473569	 0.3625015676	 0.111486
H	 1.1553140688	-3.5703782027	 1.6630133039	 0.104334
H	 1.4289287745	-5.4399406905	-0.6021871434	 0.094453
H	-1.3025812594	-5.1681673541	-0.8264105515	 0.109662
H	 0.4324824413	-3.3422378973	-2.4324334253	 0.1041
