17
gdb 125879	3.78492	1.15045	1.05494	1.7425	74.68	-0.2586	-0.0233	0.2353	1174.3011	0.138089	-414.169171	-414.161364	-414.16042	-414.202054	29.018	
C	-0.1024810481	 1.5327470365	-0.1725654366	-0.421831
C	 0.0118591342	 0.0354764663	 0.0000849516	 0.00746
C	 1.3210609433	-0.6772445929	-0.1664040428	-0.299607
C	 0.6914463377	-0.6043270069	 1.21117967	-0.113281
C	 1.3187280732	 0.1884600753	 2.2758972069	 0.410594
N	 1.084557334	-0.0196816091	 3.5715672465	-0.280444
N	 1.8596034189	 0.9053634258	 4.1246792951	-0.071281
N	 2.5383975904	 1.6488014078	 3.2680264252	-0.098196
N	 2.2091187458	 1.2042335148	 2.0838108256	-0.269294
H	 0.7916322826	 2.0463048019	 0.1878139948	 0.152843
H	-0.2348523271	 1.7828578734	-1.2308398733	 0.117213
H	-0.965492034	 1.9288560753	 0.3738306191	 0.115794
H	-0.8636137995	-0.5186858135	-0.329350536	 0.091502
H	 1.3454446504	-1.6436850751	-0.6575027251	 0.114337
H	 2.2034379249	-0.0649323268	-0.3181819698	 0.140173
H	 0.2220397687	-1.5038999457	 1.5922497849	 0.103778
H	 1.9364475746	 1.0293382429	 5.122979834	 0.300242
