17
gdb 18514	5.2926	1.15298	1.07141	1.8074	77.21	-0.2278	0.0372	0.265	1155.4175	0.141937	-326.653667	-326.645589	-326.644645	-326.687431	28.915	
C	 0.044986351	 1.55148408	-0.0782538828	-0.49814
C	 0.0377563026	 0.0973595842	-0.0129321832	 0.033127
C	 0.0365706321	-1.1072810631	 0.0278077356	 0.138163
C	 0.0323847749	-2.5550842629	 0.0960038722	-0.150255
C	 0.2682784641	-3.2457219862	 1.479998215	-0.263433
C	-1.1176796617	-3.8544643835	 1.3096521868	-0.009723
C	-2.1389575386	-2.81647981	 1.0801540415	-0.234584
N	-1.3198851978	-3.2445900063	-0.0692759432	-0.133427
H	 0.983018754	 1.9241370402	-0.5043751543	 0.150425
H	-0.7729649583	 1.922291708	-0.7058080491	 0.152476
H	-0.0696345155	 1.9989591595	 0.9152269052	 0.147431
H	 0.6958941097	-2.9680654436	-0.668297852	 0.109201
H	 1.0796233338	-3.9742104912	 1.4406109325	 0.11345
H	 0.413265906	-2.5927253828	 2.3442188815	 0.109765
H	-1.3741732108	-4.8901898925	 1.5073716395	 0.09438
H	-3.1721339018	-3.1377106881	 0.9912310075	 0.119949
H	-2.0044406236	-1.8133093917	 1.4776166774	 0.121195
