21
gdb 75183	4.23092	0.89557	0.78122	2.9165	86.42	-0.2369	-0.0186	0.2183	1485.8793	0.182439	-387.12921	-387.120039	-387.119095	-387.16361	34.134	
C	-0.0673742219	 1.5487722382	 0.0480494928	-0.475328
C	-0.0229717796	 0.0471076515	-0.0260540579	 0.330568
C	-0.0368414322	-0.6132080135	-1.1860807839	-0.151773
C	 0.0432960122	-2.1109816913	-1.324410473	-0.268786
C	 0.4753381523	-2.8056163657	-0.0172737195	-0.063982
C	-0.2704202627	-2.1783691336	 1.1776420645	-0.223837
C	 0.047711428	-0.6831131123	 1.2962815857	-0.299975
C	 0.184965947	-4.2871787526	-0.0900989004	 0.15016
O	 0.9990997268	-5.1668425509	 0.0211541389	-0.25043
H	 0.8035567866	 1.9432643178	 0.5879560381	 0.122901
H	-0.0839518819	 2.0037544712	-0.9458609704	 0.120249
H	-0.9531255773	 1.8933154428	 0.5974616681	 0.121806
H	-0.1031035179	-0.0517297234	-2.1160856956	 0.078984
H	-0.9326346561	-2.5061196041	-1.6501891184	 0.107099
H	 0.7441461504	-2.3728039013	-2.126860088	 0.116719
H	 1.5551654853	-2.689796931	 0.1254654369	 0.093311
H	-1.3506753035	-2.3125622505	 1.0343230768	 0.10381
H	-0.0056647945	-2.6957242855	 2.1059403513	 0.107696
H	 1.0483026207	-0.5450044467	 1.7327662109	 0.111798
H	-0.6446573865	-0.2160158559	 2.0090642493	 0.103457
H	-0.8948156452	-4.5246006632	-0.2568552262	 0.065553
