19
gdb 69843	2.30035	2.04422	1.55049	1.0183	74.05	-0.238	0.0715	0.3095	947.6644	0.159073	-422.981946	-422.974169	-422.973225	-423.013453	32.005	
C	-0.0266550369	 1.4923240963	 0.0864873471	-0.519764
C	 0.0125660495	-0.0052185409	-0.0131188994	 0.355878
C	 0.8832206939	-0.8153488056	-1.0185757086	-0.266758
C	 0.7174567334	-1.8278264056	 0.1441612735	 0.055166
O	 0.7244487	-0.6947419984	 1.0660565511	-0.320971
C	-0.780030255	-2.194071102	 0.0582168349	-0.110288
C	-1.6786395021	-1.6243836574	 1.1419796979	-0.361788
C	-1.3283610171	-0.797941553	-0.0684011456	 0.353681
O	-2.2613710783	-0.450650752	-1.0412111535	-0.473528
H	 0.9806507483	 1.9165745057	 0.0818184866	 0.128711
H	-0.583333131	 1.905503137	-0.7606410173	 0.127231
H	-0.5262039679	 1.8002469344	 1.0115953882	 0.126854
H	 0.4601023876	-1.0605457246	-1.9957479559	 0.104972
H	 1.8996871057	-0.424170255	-1.0963903971	 0.100075
H	 1.447993447	-2.5992803153	 0.385907355	 0.080228
H	-1.1179214055	-3.0110554069	-0.5668032735	 0.097991
H	-2.6891428924	-2.0206272396	 1.1437811003	 0.108791
H	-1.2632779044	-1.3781144933	 2.1111239202	 0.12748
H	-2.8419458649	 0.2227262764	-0.6705518641	 0.286038
