19
gdb 49645	3.9042	1.36925	1.28102	2.605	78.98	-0.2423	-0.0216	0.2207	1034.3323	0.161445	-385.864335	-385.857394	-385.85645	-385.895892	28.114	
O	-0.7496220093	 0.7647572025	-0.584904275	-0.248418
C	 0.1187760954	 0.899226874	 0.2417756881	 0.126759
C	 1.2347755051	 1.905458118	 0.2037527554	-0.07053
C	 1.3093979787	 3.0813617292	-0.806365538	-0.069178
C	-0.0196503088	 3.8247568985	-0.547810933	-0.217075
C	 0.3173745865	 4.2017832818	 0.9118875645	-0.040989
C	 1.5391389181	 5.1366523538	 0.7015514365	-0.237237
C	 2.2295431975	 3.8414381504	 0.251791122	-0.024918
C	 1.3462135859	 3.0351299949	 1.2575835261	-0.061327
H	 0.1533715673	 0.2335317265	 1.138450914	 0.070343
H	 2.1772752604	 1.3394494959	 0.2340224099	 0.092622
H	 1.6239113639	 2.9193616189	-1.8357306179	 0.069753
H	-0.1464857068	 4.7106914398	-1.1764056876	 0.091641
H	-0.8882564367	 3.1794063462	-0.6716247264	 0.125953
H	-0.4990089617	 4.4648467552	 1.5831657816	 0.065292
H	 1.4287649862	 5.9726112163	 0.0034777601	 0.091972
H	 1.9681284499	 5.4946164358	 1.6423217369	 0.096692
H	 3.3082671888	 3.7092254775	 0.1729531031	 0.067396
H	 1.6149957496	 2.871207795	 2.30014898	 0.07125
