20
gdb 112881	2.28549	1.36844	0.91836	1.9578	77.26	-0.2661	0.0245	0.2906	1320.0676	0.170208	-440.319731	-440.310402	-440.309458	-440.354213	34.202	
C	 0.0054052711	 1.5737583663	 0.0788420601	-0.39026
C	-0.0361867597	 0.0450760498	 0.0365396776	-0.18624
C	 0.7237073854	-0.5340955558	-1.1469371625	 0.031613
O	 2.1222131707	-0.2625890841	-1.0370960389	-0.268838
C	 2.7880908851	-1.3134984881	-1.6837598342	 0.217487
C	 4.1489626849	-1.5482876051	-1.0745662247	-0.404849
O	 1.9512035081	-2.4743558818	-1.5138647571	-0.248829
C	 0.6864314678	-2.0491136452	-1.2429423846	 0.382984
N	-0.3337877696	-2.7737395992	-1.0922324646	-0.541674
H	 1.0360076006	 1.9348951397	 0.1396272738	 0.132304
H	-0.4502623866	 2.0076096197	-0.8182551295	 0.114623
H	-0.5400847309	 1.954260799	 0.9472110566	 0.116042
H	 0.3890481795	-0.3761492131	 0.9542187767	 0.106734
H	-1.0655970669	-0.3208827718	-0.0331884175	 0.129926
H	 0.333455674	-0.1104161399	-2.0886925356	 0.096314
H	 2.856649958	-1.1216526566	-2.7684286184	 0.080531
H	 4.0441021587	-1.7641894794	-0.0087867761	 0.136599
H	 4.6423626099	-2.388792833	-1.5685342974	 0.133901
H	 4.7649487694	-0.6541626834	-1.2003249432	 0.135742
H	-0.1056504692	-3.760793458	-1.2186330705	 0.225891
