21
gdb 119837	4.18883	0.78487	0.73638	2.0606	82.12	-0.235	0.0258	0.2608	1620.4138	0.181691	-424.22567	-424.216077	-424.215133	-424.260739	35.058	
C	-0.0053453159	 1.3913010709	-0.0362741698	-0.223385
O	-0.0221177366	-0.0146753715	 0.0085666599	-0.227858
C	 0.5961920417	-0.6054687733	-1.1090311796	-0.165458
C	 0.5494241381	-2.0945953992	-1.0088707308	 0.287075
C	 0.0271604457	-2.823689272	-0.0194347951	-0.16723
C	 0.2111494094	-4.3045547604	-0.2570459228	-0.277989
C	 0.5623974178	-4.3708552477	-1.7649004685	 0.130903
O	-0.5918811617	-4.6177573527	-2.5576325082	-0.436581
C	 1.1704398838	-2.9785875127	-2.0717499877	-0.328326
H	 1.0222740854	 1.7881225659	-0.0576963023	 0.104568
H	-0.539691725	 1.7793295001	-0.9182852883	 0.104207
H	-0.5044009597	 1.7530572553	 0.8658056521	 0.128571
H	 0.1033488012	-0.2766062181	-2.0443762808	 0.091509
H	 1.6475483343	-0.2689013418	-1.1947765875	 0.093082
H	-0.4393830794	-2.4075235019	 0.8642198905	 0.104383
H	 1.0238516076	-4.7061792717	 0.3650016122	 0.105554
H	-0.6770239187	-4.9096393434	-0.0447711638	 0.106858
H	 1.2478743747	-5.1872392825	-2.0042946671	 0.081759
H	-1.2355094283	-3.9329894036	-2.3409038866	 0.278526
H	 0.9379631339	-2.6784877518	-3.1000540721	 0.105056
H	 2.2662051018	-2.9865208477	-1.9815078935	 0.104776
