10
gdb 21695	3.76128	1.99854	1.30618	3.6626	55.84	-0.2738	-0.0826	0.1911	819.4066	0.061348	-409.605905	-409.59942	-409.598476	-409.636631	23.39	
N	 0.0653499156	 1.3508248851	 0.1419796123	-0.598711
C	 0.0244153063	-0.0071966205	 0.0340984383	 0.295489
N	-1.0751880072	-0.7206460276	 0.0117278935	-0.151244
O	-0.6514686783	-2.0387073268	-0.0297376898	-0.138034
N	 0.6863940834	-2.14263627	-0.0443905457	-0.135873
C	 1.1407389122	-0.911911339	-0.0052499543	 0.228774
C	 2.516695739	-0.5739160348	-0.0113543456	 0.257563
N	 3.6159604562	-0.2130106891	-0.0211432334	-0.321235
H	 0.896735368	 1.8076318878	-0.1991563753	 0.28179
H	-0.7956476953	 1.8358434448	-0.05959038	 0.281481
