16
gdb 7310	3.38879	1.36485	1.09524	1.2589	63.69	-0.2463	0.0092	0.2555	1082.1688	0.129034	-417.093755	-417.084682	-417.083738	-417.128598	31.485	
C	-0.832198417	 1.6878400563	-0.9852723569	-0.394668
C	-0.2680640644	 0.5410768148	-0.1541897186	 0.015472
O	-1.3304691931	-0.3675033097	 0.1610040642	-0.204283
C	-1.3703339613	-0.8897378566	 1.4065738435	 0.126144
N	-2.1258198303	-1.8694086728	 1.6489915039	-0.444653
C	 0.8716625746	-0.1652333463	-0.9114126157	 0.376127
N	 0.6218107359	-1.451116245	-1.2596364487	-0.516533
O	 1.9002518289	 0.4329352833	-1.1611294469	-0.369521
H	-0.0146759677	 2.3446952486	-1.2881676239	 0.153259
H	-1.3250470587	 1.3000211271	-1.8812650007	 0.135397
H	-1.562405423	 2.2569976632	-0.4049780022	 0.126011
H	 0.1726004362	 0.9329514541	 0.7711198654	 0.111761
H	-0.715863214	-0.3690060963	 2.1187095417	 0.099933
H	-2.0693086984	-2.1195521403	 2.6339711284	 0.234412
H	-0.276212322	-1.868996083	-1.0830010355	 0.285488
H	 1.3109583442	-1.9447116574	-1.802263358	 0.265655
