21
gdb 40885	3.21383	1.53821	1.36658	1.5041	81.51	-0.2346	0.0879	0.3225	1039.36	0.185446	-387.069964	-387.062594	-387.06165	-387.101704	30.064	
C	-0.0261514694	 1.3520195862	-0.3345036246	-0.084825
C	 1.4308401557	 1.5259385178	 0.1358617585	-0.378882
C	 1.2459687885	 0.1217030223	 0.7413099201	 0.533699
O	-0.1082169626	 0.0420551176	 0.2647045558	-0.336798
C	 2.2382044418	-1.035137448	 0.4635019548	-0.101227
C	 3.0045217052	-0.4960920218	 1.7072923669	-0.237479
C	 1.5685330432	-0.1876669678	 2.2246251095	-0.101227
C	 0.9627960038	-1.5956991664	 2.3796111961	-0.212891
C	 1.4709571286	-2.2387863504	 1.0432000345	-0.212891
H	-0.7548563272	 2.045882314	 0.1009267639	 0.10297
H	-0.1765265775	 1.3140076166	-1.4198603601	 0.102969
H	 2.1742311104	 1.5987824771	-0.6604698941	 0.111381
H	 1.5972663406	 2.3288870471	 0.8567340144	 0.111381
H	 2.7169579632	-1.1553333919	-0.5094054042	 0.05466
H	 3.6006911174	-1.2121934885	 2.2785834835	 0.092589
H	 3.591647713	 0.4008684932	 1.4989245122	 0.098365
H	 1.3770590905	 0.540306174	 3.014304566	 0.05466
H	 1.3381715905	-2.109767141	 3.268821055	 0.090763
H	-0.1276663616	-1.5644415314	 2.4327520227	 0.111011
H	 0.6473130698	-2.545185164	 0.3946321314	 0.111011
H	 2.1221407262	-3.1019091748	 1.2070447577	 0.090762
