23
gdb 75463	2.46385	1.55049	1.15622	0.1701	91.5	-0.2212	0.0347	0.2559	1180.4548	0.206958	-351.168394	-351.159604	-351.15866	-351.20162	34.628	
C	-0.1393738016	 1.4344656859	 0.2935630253	-0.502827
C	-0.0148937722	-0.0452646053	 0.0878274613	 0.290417
C	-0.0305330803	-0.6751185691	-1.0899780533	-0.176911
C	 0.0589422537	-2.1736686434	-0.9584252057	-0.263
C	 0.4550367042	-2.3521927148	 0.5264903894	-0.295113
C	 0.0788560033	-1.0338007564	 1.238789868	 0.28494
C	 0.9395356535	-0.6090919939	 2.4732946634	-0.277071
C	-0.351549475	-0.2481763516	 3.2524947497	-0.208011
C	-1.1770559735	-1.0158436285	 2.1877524608	-0.264121
H	 0.718338851	 1.842661146	 0.8418383647	 0.124918
H	-0.2072842912	 1.9612819939	-0.6621551293	 0.120745
H	-1.0326033132	 1.6873232049	 0.8787366024	 0.125891
H	-0.1382013224	-0.1756288874	-2.0480843768	 0.07929
H	-0.9070552777	-2.6460823328	-1.1878040731	 0.101703
H	 0.7866950027	-2.6238310596	-1.6437383977	 0.097837
H	-0.0065456281	-3.2261854248	 0.9959088991	 0.089221
H	 1.5407604909	-2.4873861757	 0.5965805632	 0.09964
H	 1.4549278576	-1.4726487248	 2.9051939463	 0.095527
H	 1.6773614806	 0.1832132943	 2.3184046597	 0.09346
H	-0.4224598405	-0.6002286103	 4.2843966887	 0.093393
H	-0.5568490191	 0.8254407113	 3.2452684797	 0.100428
H	-2.0785909354	-0.5301975448	 1.8042140109	 0.094226
H	-1.4442241274	-2.0253292233	 2.5142954334	 0.095419
