20
gdb 103692	2.24383	1.34586	0.99135	3.1642	80.41	-0.2746	0.0355	0.3101	1255.3102	0.168681	-403.154218	-403.143892	-403.142947	-403.189091	37.599	
C	-0.0902354703	 1.5738077592	 0.0390299391	-0.470777
C	-0.0480139035	 0.0566536615	 0.0255178174	 0.313985
C	-1.3198353247	-0.5694332276	-0.5140469455	-0.157205
O	-1.4568335153	-0.1552490188	-1.8675247564	-0.422366
C	 1.2414172085	-0.6526665333	-0.2763453515	-0.340345
C	 0.6919073721	-0.690456679	 1.1472459021	 0.10179
C	 1.4109974458	 0.058617284	 2.2627010397	-0.459818
C	 0.132749028	-1.9444579995	 1.5951639065	 0.250583
N	-0.3055211818	-2.9422887669	 1.9858299756	-0.363855
H	 0.8778390689	 2.0214252617	 0.271394697	 0.116166
H	-0.3952093326	 1.923736683	-0.9504658928	 0.150382
H	-0.8210260107	 1.9426616726	 0.7676742271	 0.120141
H	-1.2697902204	-1.6634879215	-0.4373039067	 0.111783
H	-2.1772179468	-0.2351391519	 0.0919674512	 0.09488
H	-2.2961219371	-0.4888807545	-2.1977420193	 0.291725
H	 1.2039616776	-1.5650017627	-0.8602432261	 0.136426
H	 2.1361067818	-0.057092846	-0.4238524205	 0.121621
H	 1.898160839	 0.9581165259	 1.8838337323	 0.126591
H	 0.7151658407	 0.351686348	 3.0545143993	 0.137435
H	 2.180529841	-0.5781873143	 2.7086616014	 0.140859
