15
gdb 26872	3.11377	1.45076	0.99595	7.4673	74.14	-0.2227	-0.0464	0.1762	1123.6777	0.112231	-454.018492	-454.010003	-454.009058	-454.051547	31.044	
C	 0.0045549368	 1.5586676009	 0.0222262601	-0.526768
C	 0.0088338292	 0.0550248922	 0.0061995994	 0.113218
C	-1.1589889249	-0.6927624533	 0.0258573244	 0.428911
N	-2.4044962618	-0.1752518715	 0.0784147831	-0.563213
O	-1.1370811802	-2.0111334137	 0.015300899	-0.258593
C	 0.1405148802	-2.76908405	-0.0093560376	 0.438157
O	-0.0059268223	-3.9518200852	-0.0078499901	-0.332171
N	 1.27080753	-2.0293570889	-0.0327905583	-0.361292
C	 1.1791163176	-0.7152652956	-0.0246077507	-0.011602
H	 1.0295999992	 1.9385102253	 0.0066841688	 0.140909
H	-0.5079335984	 1.9878201496	-0.8494594055	 0.125457
H	-0.477387734	 1.9662537589	 0.9202533659	 0.131231
H	-2.5488124594	 0.8088906462	-0.0612379323	 0.278603
H	-3.1870369306	-0.798951001	-0.029526113	 0.281739
H	 2.1329423886	-0.1844915637	-0.0446427932	 0.115413
