22
gdb 59519	3.57151	1.05864	0.91649	1.9151	83.22	-0.2031	0.0778	0.2808	1355.5179	0.192384	-404.3002	-404.290625	-404.289681	-404.334092	37.021	
C	-0.0280298435	 1.5346109824	 0.0092051077	-0.38423
C	 0.1021206059	 0.010452247	 0.0781301137	 0.071108
C	 0.7024853903	-0.4357792992	 1.4133476873	-0.38742
N	-1.2185609403	-0.5935544924	-0.0831980859	-0.068997
C	-1.9016108331	-0.4932492651	-1.4094426135	-0.252212
C	-2.0837407854	-2.0156396698	-1.4104685135	 0.372283
O	-3.2601470173	-2.6623961376	-1.7349134857	-0.461728
C	-0.7431408511	-2.701266793	-1.3365277744	-0.363105
C	-1.3442811171	-2.0516055716	-0.0973674014	-0.068923
H	 0.9522054295	 2.0099400537	 0.1142200795	 0.108457
H	-0.454995805	 1.8589400532	-0.9449568129	 0.112021
H	-0.6801186233	 1.896262956	 0.8106914773	 0.120551
H	 0.7910345284	-0.3103550391	-0.7284149886	 0.047338
H	 0.8268992719	-1.5222455046	 1.4513461582	 0.117491
H	 1.6866080757	 0.0186322733	 1.5625728445	 0.109155
H	 0.0521434937	-0.1365895225	 2.242000118	 0.120038
H	-2.8439746549	 0.0598760686	-1.3453432475	 0.111278
H	-1.291047475	-0.0817877612	-2.2250480624	 0.089975
H	-3.2093565812	-2.9366085687	-2.6569579454	 0.286602
H	-0.8041075854	-3.7854805388	-1.3340123514	 0.113423
H	 0.1351352275	-2.2914471151	-1.8285304154	 0.106124
H	-1.5483453702	-2.6111133354	 0.8082084319	 0.100773
