17
gdb 48173	3.90785	0.85889	0.80411	2.0534	70.1	-0.2641	-0.0832	0.1809	1446.2609	0.134039	-458.977561	-458.968419	-458.967475	-459.013012	31.732	
O	-0.7301221697	 1.435324282	-0.4212372238	-0.211227
C	 0.1686518156	 1.3843913874	 0.3691132105	 0.095842
C	 1.422712223	 2.2686693401	 0.329049708	 0.344875
O	 2.271266773	 2.1645353326	 1.1821452607	-0.347475
O	 1.4264137662	 3.0896823449	-0.7148427572	-0.220844
C	 2.5681807557	 3.9796321339	-0.8567677877	-0.105138
C	 2.2868558931	 5.3288837868	-0.2598665726	 0.004787
C	 2.5016445975	 5.5647473907	 1.2157226334	-0.257441
C	 3.4511915686	 6.1666568797	 0.214410168	-0.271966
H	 0.1975150601	 0.6890017287	 1.2319818366	 0.114527
H	 3.4361998606	 3.5114806613	-0.3864304299	 0.133513
H	 2.7249224833	 4.0422138561	-1.9363120301	 0.125649
H	 1.4636410168	 5.8608604053	-0.72720244	 0.098056
H	 1.8092457503	 6.2239829316	 1.7268410958	 0.117362
H	 2.8486013886	 4.7260975409	 1.8077108743	 0.141204
H	 4.4470384116	 5.7422972497	 0.1400116966	 0.118569
H	 3.4113411757	 7.2347995485	 0.0346177174	 0.119707
