23
gdb 86403	2.49909	1.30285	0.96869	1.4767	85.16	-0.2568	0.0741	0.3309	1301.0093	0.206325	-388.293322	-388.284146	-388.283202	-388.327331	36.278	
C	-0.3199644711	 1.4884559665	 0.0033106384	-0.412604
C	 0.0402213955	 0.0039468731	-0.0209422338	-0.038568
C	 0.9625372997	-0.3959761129	-1.1871548337	-0.253677
C	 1.5352063867	-1.7522244695	-0.7508683356	 0.124659
O	 2.7165962574	-2.1530901133	-1.4250036945	-0.437441
C	 1.8427830471	-1.5383263554	 0.7365059131	-0.291828
C	 0.7782071262	-0.5465739293	 1.2256927644	 0.367749
C	 1.0610803366	 0.2966990114	 2.4451877738	-0.311341
C	 0.0236773279	-0.7963419091	 2.5060173723	-0.314247
H	 0.5753559345	 2.1127067279	 0.0926778538	 0.117493
H	-0.837328067	 1.773948563	-0.9188046267	 0.109781
H	-0.9856096068	 1.732798706	 0.8384619591	 0.112877
H	-0.8945639563	-0.5655875244	-0.1261948509	 0.071556
H	 0.4419080902	-0.4307706709	-2.1505110418	 0.081516
H	 1.7949040405	 0.3140333545	-1.2801591719	 0.101004
H	 0.7544172187	-2.5233471684	-0.8593574661	 0.062351
H	 2.4956928992	-2.3033704378	-2.3493754902	 0.279425
H	 1.8535404794	-2.4744903466	 1.3018208762	 0.097393
H	 2.8475361399	-1.1039877454	 0.8026929533	 0.109258
H	 2.0054182742	 0.1348628194	 2.9556696714	 0.106282
H	 0.7192176612	 1.3253640419	 2.4665604477	 0.10839
H	-1.0207273711	-0.4993382105	 2.5463105731	 0.103751
H	 0.2503765473	-1.6951346702	 3.0710001887	 0.106223
