13
gdb 2511	3.46009	2.16016	1.39685	1.0679	61.13	-0.2613	0.0259	0.2872	825.2619	0.098959	-307.23788	-307.230076	-307.229131	-307.26963	28.086	
O	 0.0834957619	 1.3911643887	-0.0134801251	-0.412594
C	 0.051596611	-0.0124599255	 0.0354689724	-0.05991
C	-1.4107655897	-0.5590520921	 0.0135459233	-0.34755
C	-2.0898929721	-0.089656911	-1.1981422577	 0.313092
C	-2.5905919447	 0.3478339638	-2.1994834493	-0.453874
C	-1.421575802	-2.0168565262	 0.1317477135	 0.323605
C	-1.380158395	-3.2118703968	 0.242461997	-0.442033
H	-0.3427445981	 1.6601090136	-0.8364920416	 0.289372
H	 0.6082992342	-0.4772201162	-0.7902602515	 0.109164
H	 0.5187107013	-0.3120989551	 0.9769202082	 0.125763
H	-1.9204824103	-0.1234789425	 0.8840553943	 0.145886
H	-3.062610323	 0.7089223267	-3.0800240449	 0.206589
H	-1.3603957434	-4.2693306974	 0.3390177814	 0.202489
