14
gdb 42177	2.1736	1.69114	1.02642	4.1996	74.53	-0.2703	-0.0902	0.1801	1105.5053	0.09839	-399.521073	-399.512359	-399.511415	-399.554959	31.424	
O	 0.0160722567	 0.1283106815	-0.7035440491	-0.294374
C	-0.053768883	 1.2251534254	-0.2001128168	 0.271374
C	 1.1763200946	 1.893519879	 0.2648979882	 0.223178
N	 2.1697254326	 2.3721413132	 0.6119717755	-0.314776
C	-1.3344659024	 1.9707996131	-0.0128062896	 0.061761
C	-2.3945385675	 1.6852941175	-1.0995684612	-0.273977
C	-2.5613353548	 1.0644748729	 0.2314221492	-0.274002
C	-1.2922587578	 3.2667883105	 0.5969631459	 0.161779
C	-1.2542116619	 4.3536905664	 1.1087294202	-0.373827
H	-3.0135058347	 2.5313116689	-1.3704240023	 0.149232
H	-2.0521448723	 1.0575756292	-1.913774246	 0.156035
H	-2.3336296452	 0.0098890287	 0.3323864289	 0.156022
H	-3.2997844466	 1.4657923623	 0.9139661865	 0.149225
H	-1.2065016476	 5.3130089814	 1.5623123605	 0.202349
