20
gdb 87422	3.37991	1.44299	1.3657	1.3417	82.89	-0.2205	0.0977	0.3181	1045.1535	0.171754	-365.925703	-365.918124	-365.91718	-365.957433	30.77	
C	-0.2374928674	 1.4014521048	 0.0404422022	-0.313388
N	-0.0176426363	-0.0364252699	 0.1121254099	-0.146165
C	 1.3575811749	-0.5039735123	-0.1406962391	-0.35436
C	 0.7654045607	-0.5476960248	 1.2134643326	 0.451192
C	 1.3037039536	 0.1173096357	 2.4618376964	-0.169631
C	 0.3863234246	-0.3310972722	 3.61575161	-0.075975
C	-0.7009051106	-1.2250514358	 3.0142491569	-0.228596
C	 0.4141770147	-1.7665616165	 2.0760523394	-0.166623
C	 1.4831663508	-1.2368812395	 3.120527029	-0.078485
H	 0.6118787187	 1.9994959039	 0.4096593102	 0.096198
H	-0.4278963816	 1.6876834795	-0.999006441	 0.119624
H	-1.1202225148	 1.6634550824	 0.6326348189	 0.122051
H	 1.4489221049	-1.400984984	-0.7489089086	 0.110663
H	 2.1220723939	 0.2504355045	-0.3286907924	 0.102231
H	 1.9460721053	 0.982638015	 2.5573271957	 0.087764
H	 0.3571354334	 0.230764547	 4.5408483942	 0.085005
H	-1.0299553116	-1.98096875	 3.7324904003	 0.096121
H	-1.5690691223	-0.7617559567	 2.5324677494	 0.097932
H	 0.3603353126	-2.7622360695	 1.6421117343	 0.072763
H	 2.3440238364	-1.6819861517	 3.5959085516	 0.091679
