18
gdb 93627	2.02871	1.6652	1.36101	4.9942	71.41	-0.2765	0.0237	0.3002	1050.9625	0.147271	-439.097291	-439.088226	-439.087282	-439.13124	32.885	
C	-0.7787693017	 1.2789624048	-0.1473425521	-0.424141
C	-0.0528410978	-0.0612157832	-0.0973346192	-0.018056
C	 1.0967602193	-0.2461084143	-1.1015938567	 0.080947
O	 1.8553658091	 0.9499452475	-1.1093976393	-0.419765
C	 1.8565491233	-1.4329288624	-0.4940689829	-0.094343
O	 1.5929726232	-1.4343647202	 0.9145133769	-0.257922
C	 0.6582492635	-0.4141352426	 1.2326159469	-0.030175
C	 1.3354575079	 0.7341361585	 1.8746095439	 0.292725
N	 1.8442649832	 1.6118478846	 2.427417057	-0.338619
H	-0.0826395293	 2.1072563675	-0.0084887885	 0.166097
H	-1.2744829426	 1.4062168236	-1.1142334166	 0.120768
H	-1.5460701172	 1.3344807941	 0.6311301851	 0.121154
H	-0.7659338617	-0.8751649059	-0.2735566876	 0.09409
H	 0.7225807778	-0.4825983584	-2.107789647	 0.074626
H	 2.6824174053	 0.7932021788	-1.5749125628	 0.291024
H	 1.5138732412	-2.3858794949	-0.9180527909	 0.107429
H	 2.9377136869	-1.3511080232	-0.6597625699	 0.106092
H	-0.0482496503	-0.8187987942	 1.9658983339	 0.12807
