18
gdb 17529	3.72095	1.83864	1.59629	1.8716	71.81	-0.2572	0.0804	0.3376	878.5673	0.153765	-347.753644	-347.746361	-347.745417	-347.784857	28.573	
C	 0.0100062459	 1.5661097813	 0.099278458	-0.41849
C	 0.1105630587	 0.0543315855	 0.091067818	-0.002932
C	 1.3499981365	-0.7423411982	-0.2060360622	-0.068419
C	 2.6124429815	-0.0683275692	 0.3567249032	-0.336639
C	 1.9566033056	-0.1376038248	 1.7494314754	 0.466715
C	 2.6024250605	-0.3506458546	 3.0425685473	-0.271517
O	 1.9779571334	 0.9008814599	 2.7212525334	-0.276659
C	 0.7076201215	-0.781065324	 1.1997660306	-0.16685
H	 0.874579046	 2.0394025288	 0.5686972488	 0.140656
H	-0.0805108943	 1.9552526962	-0.9211177311	 0.111811
H	-0.8758185587	 1.8856867619	 0.6582099252	 0.119915
H	-0.7752210887	-0.428427675	-0.3193776799	 0.086258
H	 1.3612421821	-1.5337003946	-0.9448426866	 0.087944
H	 3.504445805	-0.6959584438	 0.2855973807	 0.10859
H	 2.8503314567	 0.9298235043	-0.021935731	 0.109355
H	 2.1003472494	-0.9370260379	 3.8121290692	 0.113084
H	 3.6896760197	-0.3274616267	 3.1153841863	 0.111725
H	 0.1537108689	-1.578002379	 1.6821750747	 0.085454
