20
gdb 59351	3.07847	1.08001	1.00244	1.9428	76.41	-0.2061	-0.0286	0.1775	1287.9485	0.168651	-440.265429	-440.255456	-440.254512	-440.30047	36.047	
C	 0.0461707017	 1.4438702761	 0.0472997834	-0.330215
N	 0.0222371561	-0.0113398698	 0.1186837701	-0.057798
C	 0.8555291907	-0.5228188256	 1.201098412	-0.340127
C	-1.3045478169	-0.5572033879	 0.0449706324	-0.042954
C	-1.5424773004	-2.0942295782	-0.1852144611	-0.319164
C	-2.8088004421	-2.0426850461	 0.7327565005	 0.074567
O	-3.0514593539	-3.0585523104	 1.6594825088	-0.439189
C	-2.2007235348	-0.7516299958	 1.2950592312	 0.310451
O	-2.1487695752	-0.372295541	 2.4356833412	-0.321062
H	 1.0822362117	 1.785071394	-0.044805478	 0.120258
H	-0.4999201479	 1.7798186529	-0.8402891877	 0.11761
H	-0.396146155	 1.9357178463	 0.9306334653	 0.116442
H	 0.5074593714	-0.2249548586	 2.2025604868	 0.126176
H	 0.8984219368	-1.6145681266	 1.1629524133	 0.120936
H	 1.8755984443	-0.1505220871	 1.0650625562	 0.120625
H	-1.8652014827	-0.0027815937	-0.7161504173	 0.103314
H	-1.694863587	-2.4023061019	-1.2190203885	 0.118308
H	-0.7687688256	-2.707660102	 0.2787916452	 0.126737
H	-3.7065690292	-1.8520475528	 0.129988119	 0.100439
H	-2.8523595118	-2.689219992	 2.5305130672	 0.294647
