21
gdb 89217	2.93417	1.55428	1.23664	1.3917	81.24	-0.2453	0.0766	0.3218	1082.7534	0.183999	-387.074338	-387.066344	-387.0654	-387.106236	32.729	
C	-0.0458395561	 1.4573861064	 0.0360052594	-0.493106
C	 0.011631857	-0.050521691	-0.0162707968	 0.369935
C	 1.0532039976	-0.7230742422	-0.912242876	-0.34252
C	 0.3804219367	-2.0547064039	-1.3514972185	 0.144704
O	 1.2453572656	-3.1777872333	-1.3906293563	-0.440299
C	-0.7082202756	-2.2728232566	-0.2988008109	-0.059343
C	-0.0974689677	-2.2910706615	 1.1396683457	-0.242802
C	-0.4090968395	-0.7974558088	 1.2437717257	-0.099087
C	-1.267421003	-0.8545960826	-0.0135283513	-0.129288
H	 0.8776171497	 1.8780093306	 0.4512819926	 0.116601
H	-0.182927589	 1.8842513729	-0.9645541981	 0.11258
H	-0.8759994846	 1.8021481168	 0.6615520782	 0.114872
H	 1.2989963582	-0.0886295994	-1.7712079871	 0.08688
H	 1.9896000935	-0.935627557	-0.3833873825	 0.099342
H	-0.1015739474	-1.910148967	-2.3322784425	 0.059278
H	 1.9346947755	-3.0034143214	-2.0383588927	 0.282375
H	-1.4015465477	-3.0775332304	-0.5405513461	 0.068912
H	-0.7186241023	-2.8728589472	 1.8251949127	 0.097494
H	 0.9413508962	-2.6217143191	 1.2323706671	 0.101578
H	-0.5978301186	-0.248909421	 2.1606054942	 0.074291
H	-2.2576744085	-0.4652985545	-0.2123439669	 0.077601
