15
gdb 24575	2.21771	2.10225	1.24804	0.5024	79.45	-0.2104	-0.0185	0.1919	977.7725	0.113638	-416.803116	-416.795677	-416.794733	-416.835209	27.886	
O	-0.0581756895	 1.3232618128	 0.0519091557	-0.20787
C	 0.9762142487	 2.2218098025	-0.0246278838	 0.129298
N	 2.0353344838	 2.2074596318	-0.6933815075	-0.214098
C	 2.6971753664	 1.2302573317	-1.3995992126	-0.036458
C	 3.2709619	 0.1094771503	-0.9121235867	-0.126661
C	 3.1433970787	-0.4366698483	 0.4227541246	-0.126679
C	 2.0062200863	-0.7785178179	 1.065389079	-0.036451
N	 0.7416199591	-0.8785369388	 0.533881025	-0.214068
C	-0.0524373465	-0.0489045249	 0.033509549	 0.129281
H	 0.6824339909	 3.1177078968	 0.5176392387	 0.138403
H	 2.9606631539	 1.5507573343	-2.4051476277	 0.113703
H	 3.9919800828	-0.3728654631	-1.5687718809	 0.099745
H	 4.068070254	-0.7036506761	 0.9301080031	 0.099745
H	 2.086234348	-1.255532064	 2.0397237887	 0.11371
H	-0.9941747666	-0.382099437	-0.3967299148	 0.138401
