19
gdb 114356	2.77111	1.28887	1.19128	2.4775	70.93	-0.2509	0.0506	0.3015	1136.2588	0.158698	-460.116787	-460.108244	-460.1073	-460.150225	32.146	
C	 0.6908846405	 1.5347614938	-0.0363155974	-0.408272
C	 0.2400936381	 0.1012898316	 0.1209595139	 0.136601
O	 0.8715703585	-0.8266058822	-0.8184022965	-0.315862
C	 1.2321195415	-1.7341868127	 0.2385114181	 0.032577
C	 2.6361678506	-1.488390331	 0.8194984483	 0.103184
C	 3.7533323264	-0.9506778697	-0.0532442517	-0.081902
O	 4.7754814249	-0.3886445761	 0.7520612431	-0.425126
O	 2.102339722	-0.4479104882	 1.7040794987	-0.329591
C	 0.7475682397	-0.7404227827	 1.3085013147	 0.048199
H	 1.7523410966	 1.6349291138	 0.1985849685	 0.131044
H	 0.5193614405	 1.8706682598	-1.0632867454	 0.131372
H	 0.1209588278	 2.1858457673	 0.6351324139	 0.120972
H	-0.8521092799	 0.0200673583	 0.021728803	 0.080946
H	 0.8877221113	-2.7552753893	 0.0685720451	 0.089972
H	 2.9941430405	-2.3283898667	 1.4299319292	 0.086187
H	 4.2078398935	-1.7685559574	-0.6232576767	 0.110193
H	 3.3442161565	-0.2249943328	-0.7675973044	 0.106211
H	 4.3407991695	 0.2471162199	 1.3329032587	 0.29331
H	 0.0896134615	-0.9335843256	 2.157079037	 0.089986
