21
gdb 53953	2.33567	1.22886	1.2003	4.6043	78.28	-0.2345	0.0291	0.2637	1205.2169	0.181355	-420.414384	-420.404026	-420.403082	-420.450421	38.179	
C	-0.296243512	 1.5114580193	 0.1387776657	-0.400331
C	 0.0481505207	 0.0110032732	-0.0064001095	 0.112784
C	 0.9226829278	-0.4293922037	 1.1769265327	-0.479069
C	-1.2712337198	-0.7697756417	-0.1157403289	 0.036181
C	-1.464858883	-2.1548959335	 0.3771720944	-0.257307
N	-2.1446069916	-1.0212519233	 1.0388817565	-0.336473
C	 0.7309056047	-0.1576274222	-1.3868201396	 0.42373
N	 1.9849445413	-0.6899756038	-1.4129168416	-0.543257
O	 0.1580324048	 0.1731919731	-2.4091078374	-0.383306
H	 0.6122886037	 2.1192858986	 0.2066599362	 0.11036
H	-0.869114874	 1.8495094968	-0.7264695268	 0.147057
H	-0.8898069378	 1.6798320189	 1.0426176993	 0.114464
H	 0.3873566636	-0.3124129493	 2.1248333772	 0.121337
H	 1.2372982656	-1.4748682084	 1.1060426197	 0.122087
H	 1.8169616931	 0.1978428646	 1.2514645941	 0.1243
H	-1.8214786361	-0.4795202722	-1.0059339814	 0.118931
H	-2.121587007	-2.8324320503	-0.1611472198	 0.120828
H	-0.65346944	-2.6465365028	 0.9056939684	 0.104862
H	-1.6620990819	-0.8016743491	 1.9074452522	 0.223625
H	 2.4984537652	-0.9403793331	-0.589047942	 0.258382
H	 2.4291965127	-0.7843265313	-2.3116827092	 0.260815
