18
gdb 77997	2.92688	1.28382	1.05667	3.1068	79.31	-0.2271	0.0077	0.2348	1172.3839	0.148843	-398.090429	-398.081797	-398.080852	-398.123372	32.977	
C	-0.1752447208	 1.4260138218	-0.3271940092	-0.409436
C	 0.2350544895	-0.0355638595	-0.2570933594	 0.048143
N	 1.4802486738	-0.4254201602	-1.0155739727	-0.397138
C	 1.9307168239	-1.2365984274	 0.1426732258	 0.218089
C	 2.4029358449	-2.5708750087	 0.0239866816	 0.167661
N	 2.7984578296	-3.655818454	-0.0769285579	-0.352959
C	 2.271347292	-0.252167407	 1.2520137794	-0.018595
N	 2.8390142061	 1.0417758312	 1.0062971305	-0.522993
C	 0.8280181517	-0.6186449411	 1.0341651871	-0.168558
H	-0.4070055804	 1.7099676395	-1.3591046092	 0.120361
H	-1.0757391629	 1.5890762961	 0.2747923552	 0.122063
H	 0.6084236974	 2.0841733288	 0.0523118829	 0.142648
H	-0.6032722379	-0.6721415569	-0.5658452766	 0.091016
H	 1.2724325383	-0.9964149339	-1.8273736243	 0.238786
H	 2.6724963055	-0.7328783554	 2.1395871648	 0.118898
H	 3.8402460723	 1.0032748261	 1.1733070213	 0.237224
H	 2.717739807	 1.2645078689	 0.0201297713	 0.250589
H	 0.24517859	-1.0965629185	 1.8113710996	 0.114202
