14
gdb 26901	3.16551	1.47763	1.01109	5.1638	72.48	-0.203	-0.0428	0.1602	1084.5468	0.101445	-470.031289	-470.023282	-470.022338	-470.0638	30.209	
N	 0.0268859973	 1.3165494383	 0.1109672169	-0.565986
C	-0.043690016	-0.0315092921	 0.037524078	 0.424268
C	-1.2139540424	-0.7499095184	 0.00211944	 0.09667
O	-2.4254576239	-0.0781171891	-0.0618760477	-0.456391
C	-1.0786230975	-2.1491750808	-0.097426581	-0.032086
N	 0.0596185783	-2.7911353717	-0.0963792048	-0.337275
C	 1.2230888907	-2.0650393106	-0.0020528284	 0.420661
N	 2.4136197796	-2.4901118304	 0.0628935476	-0.535753
O	 1.1369922725	-0.6411468361	 0.0131676592	-0.229997
H	 0.9095396591	 1.7486326649	-0.110371831	 0.279717
H	-0.8172518205	 1.8182135069	-0.1135163611	 0.280927
H	-2.866096821	-0.137596181	 0.7933460845	 0.303166
H	-1.9869738093	-2.7472652928	-0.1840470649	 0.119413
H	 2.3833378431	-3.507559477	 0.0316707227	 0.232666
