22
gdb 60438	4.38691	0.60461	0.55776	2.5016	81.21	-0.2556	0.0373	0.2929	2039.4713	0.191253	-441.501553	-441.490298	-441.489354	-441.539512	39.359	
C	-0.1240665991	 1.5623759323	 0.1659936526	-0.402449
C	-0.0405395958	 0.0410992268	 0.0407675875	 0.136116
O	 0.803175503	-0.5156879378	 1.0481027203	-0.427895
C	-1.4261944416	-0.6170975532	 0.0414331721	-0.214933
C	-1.3534618729	-2.1220077541	-0.1671779533	-0.049757
O	-2.6939463839	-2.6294736001	-0.0899686896	-0.243231
C	-2.8551390119	-3.9528759789	-0.2887507837	 0.393896
C	-4.3132333785	-4.3193454678	-0.1664320818	-0.459757
N	-1.8655789787	-4.7089297271	-0.5388641936	-0.518834
H	 0.8796720317	 1.9950458751	 0.1869497188	 0.125056
H	-0.6762594009	 2.0006731891	-0.6714578091	 0.117048
H	-0.6405106751	 1.8484625782	 1.0911192272	 0.106417
H	 0.468611768	-0.2090647238	-0.8989779465	 0.09227
H	 0.4296165219	-0.2776931371	 1.9043892885	 0.276075
H	-1.9278323762	-0.4062517953	 0.9962912562	 0.091974
H	-2.046517179	-0.1675972931	-0.7430853431	 0.102673
H	-0.9256009081	-2.3767356567	-1.1430909341	 0.116592
H	-0.7314826052	-2.6020975626	 0.5926578931	 0.128663
H	-4.4637435243	-5.3877379164	-0.3288977757	 0.124981
H	-4.6872513438	-4.0516597385	 0.8265645111	 0.143865
H	-4.9057017863	-3.7586062112	-0.8958669178	 0.1441
H	-2.1743064032	-5.6705704776	-0.6609597091	 0.217128
