18
gdb 28206	4.63807	1.19498	0.96876	0.5737	80.75	-0.164	0.0603	0.2243	1218.5435	0.149652	-401.981405	-401.973246	-401.972302	-402.014178	30.609	
C	 0.0402015397	 1.4897340709	 0.1034097806	-0.500449
C	 0.0230314212	 0.0067266008	-0.0520871008	 0.324307
C	-0.0542773188	-0.785989556	-1.1787683125	-0.419506
C	-0.0682723257	-2.1475096644	-0.7462478855	 0.204229
C	 0.0110849205	-2.1159179472	 0.608852575	 0.420419
N	 0.0700383537	-0.8391348823	 1.0656480724	-0.445028
O	 0.0705964783	-3.287397379	 1.2840511048	-0.294243
C	-0.1717063489	-4.2864446879	 0.240633037	-0.089632
C	-0.0334579505	-3.5939949034	-1.1599434381	-0.37366
H	 0.9412300667	 1.8487159961	 0.6188818813	 0.119765
H	 0.0193287172	 1.9600262554	-0.8827528312	 0.135173
H	-0.8253815531	 1.8675915354	 0.6646352467	 0.119878
H	-0.1033413917	-0.4083540662	-2.1894322687	 0.087719
H	 0.1092876227	-0.5449856874	 2.025606805	 0.2603
H	 0.5417376689	-5.0969807611	 0.4008848988	 0.117829
H	-1.1863897857	-4.670032633	 0.3902588236	 0.1157
H	-0.8506270136	-3.9071125339	-1.8189621931	 0.108864
H	 0.9041684491	-3.8771616268	-1.6568186554	 0.108333
