19
gdb 72476	2.60512	1.82664	1.46029	1.3169	75.02	-0.2389	0.0162	0.2551	962.9997	0.161308	-423.039764	-423.032384	-423.03144	-423.070999	30.507	
O	-0.0283167621	 1.3814846699	-0.0327293414	-0.499069
C	 0.0273584566	-0.029608169	-0.0090952386	 0.338257
C	 0.6143147088	-0.6153883967	 1.3001798567	-0.103212
O	 0.0522635535	-1.9214397168	 1.409848666	-0.276765
C	-0.9770986166	-2.0744125853	 0.4126673635	 0.091958
C	-1.3788171453	-0.6403114686	 0.059267069	-0.262523
C	-0.3916363804	-2.7963787686	-0.8138622142	-0.256054
C	 0.5473800805	-1.8891361845	-1.571823319	-0.057166
C	 0.7436451261	-0.6213953227	-1.2103902885	-0.12444
H	 0.8707797212	 1.7182439548	-0.1104873912	 0.277611
H	 1.7077137542	-0.6937848176	 1.2855127113	 0.092349
H	 0.3120509543	 0.0157224036	 2.1486398406	 0.094675
H	-1.7838036103	-2.6621399523	 0.8595188807	 0.077597
H	-1.9570938184	-0.1741140289	 0.8618304906	 0.108702
H	-1.9245171225	-0.5537911021	-0.8819679643	 0.108434
H	 0.1389040597	-3.6921288848	-0.4678631992	 0.117641
H	-1.196934469	-3.1520543418	-1.473430461	 0.10182
H	 1.0639683173	-2.3033140087	-2.4339428823	 0.091008
H	 1.4255589024	 0.02712145	-1.7557067186	 0.079176
