21
gdb 70921	3.42655	1.49225	1.2743	0.0862	88.63	-0.2364	0.0187	0.2551	1075.0719	0.184199	-349.899809	-349.892378	-349.891434	-349.931015	31.424	
C	 0.1146738526	 1.5277381528	 0.00752823	-0.510538
C	 0.0256894327	 0.024349443	-0.0095320821	 0.300806
C	 0.6050698773	-0.9437773082	-1.1251778316	-0.351358
C	-0.0738715072	-1.8629127125	-0.071013509	 0.338437
C	 0.6041618899	-0.9719122585	 1.0210172825	-0.281291
C	-0.6150352604	-3.2436981428	 0.2561086792	-0.406938
C	-1.8329945493	-2.8188180338	 1.0919738933	-0.036436
C	-2.1472246261	-1.5178107469	 0.9786985952	-0.158596
C	-1.2670194015	-0.8808644226	-0.0689208168	-0.044943
H	 1.1583462988	 1.8613826959	-0.0151471492	 0.116439
H	-0.3962555118	 1.965175706	-0.8573896629	 0.115804
H	-0.3477996178	 1.9367099756	 0.9125855841	 0.11811
H	 0.134930206	-0.8922287853	-2.1118851569	 0.087496
H	 1.6958842481	-0.9789063304	-1.2021495239	 0.086443
H	 1.6955412276	-1.0317452558	 1.0776103645	 0.077795
H	 0.1513099134	-0.9768337129	 2.0139994816	 0.092583
H	-0.9281823527	-3.8173676772	-0.6275112942	 0.108473
H	 0.0828815847	-3.8726788006	 0.8200241894	 0.104979
H	-2.3774228253	-3.5319813207	 1.7035746289	 0.090356
H	-2.9942649076	-1.0490030165	 1.4681497785	 0.08745
H	-1.8070128613	-0.7760553087	-1.0210117004	 0.064929
