22
gdb 103610	2.34343	1.20037	1.07115	2.46	83.12	-0.2347	-0.0194	0.2153	1309.8613	0.191832	-404.359943	-404.349509	-404.348565	-404.39529	38.204	
C	 0.520397328	 2.2741035084	-0.1381748245	-0.39635
C	 0.0608064165	 0.8157495792	-0.2255048114	-0.19095
C	 0.9350071821	-0.0542570925	-1.1395405311	 0.196026
C	 0.8641203978	 0.3522838492	-2.6159420205	-0.450148
N	 2.3299282167	-0.2449008611	-0.6140315733	-0.368123
C	 2.2397054167	-1.7348277567	-0.6513880363	-0.068396
C	 2.6404518998	-2.4646236476	 0.6225527537	-0.388299
C	 0.7401050407	-1.5727564214	-0.9502076149	 0.349952
O	-0.2015216906	-2.3093480934	-0.97425174	-0.309152
H	 1.5654905401	 2.3236091117	 0.1831045866	 0.128459
H	 0.4319129682	 2.7930380091	-1.0978933724	 0.113371
H	-0.0824181431	 2.8257707026	 0.5893571444	 0.116037
H	 0.0782507401	 0.3762721175	 0.7778928289	 0.1007
H	-0.9762293843	 0.7556324332	-0.5770060419	 0.105447
H	 1.2688530851	 1.3592317915	-2.7620117687	 0.125583
H	 1.4386229704	-0.3353027175	-3.245458694	 0.116861
H	-0.1711246427	 0.3480953535	-2.9704713799	 0.135609
H	 3.0446428394	 0.132308953	-1.2268887893	 0.215009
H	 2.747578451	-2.1861666629	-1.5179811482	 0.093365
H	 2.141553388	-2.0252225069	 1.4904804895	 0.125796
H	 2.3621074821	-3.521064624	 0.5549238182	 0.129319
H	 3.721282058	-2.4020245649	 0.7828221752	 0.119885
