15
gdb 84979	3.02192	1.28159	0.95159	6.1548	77.32	-0.2682	-0.0736	0.1946	1191.7836	0.113184	-416.851061	-416.843053	-416.842109	-416.88384	29.453	
C	-0.0442961214	 1.5572309861	-0.0360166504	-0.397112
C	 0.0271308577	 0.031734394	 0.0126258087	 0.064181
O	 0.7732252465	-0.4656517603	-1.1127077586	-0.25107
C	 1.8296940452	-1.2302035243	-0.6945456162	 0.343644
N	 2.6726469474	-1.811259667	-1.4304476641	-0.532035
C	 1.7974256578	-1.2487153209	 0.7873854075	 0.147276
C	 0.7510650505	-0.5245490559	 1.203533484	-0.220993
C	 2.7476885807	-1.9383517154	 1.5861173382	 0.253166
N	 3.5130692052	-2.494056912	 2.2518655995	-0.326254
H	 0.9569542636	 1.9910231648	 0.0280554482	 0.139827
H	-0.508766738	 1.8764479664	-0.9720295144	 0.144931
H	-0.6465974759	 1.9333336606	 0.7964516503	 0.13084
H	-0.9887959133	-0.3844155273	-0.0516415056	 0.12114
H	 2.4774325341	-1.6440944189	-2.4180986157	 0.233728
H	 0.45009921	-0.3429481499	 2.2261091086	 0.148732
