19
gdb 117376	4.57409	0.69294	0.65785	2.5415	73.55	-0.2683	0.0145	0.2828	1761.8734	0.156857	-460.177655	-460.167767	-460.166823	-460.214542	34.009	
C	 0.4544970963	 1.4592742563	-0.0992833138	-0.391943
C	 0.1531245035	-0.0238764522	-0.0091975043	-0.044058
O	 0.6188039815	-0.6391961015	-1.2294786951	-0.243026
C	 0.4358830405	-1.9675999045	-1.3218574202	 0.45539
O	-0.0743438665	-2.6417065281	-0.462086313	-0.360123
C	 0.9241638833	-2.4961239072	-2.6600627158	-0.364946
C	 1.4343270786	-3.9128787343	-2.5510437632	 0.114649
C	 2.3915431822	-4.458112838	-3.5185654044	-0.18586
O	 2.8147935976	-4.0623282772	-2.2126616629	-0.232157
H	 1.5284991579	 1.6337787312	-0.208654087	 0.132212
H	-0.0565608947	 1.9113650633	-0.9539957791	 0.129304
H	 0.1144925481	 1.962119039	 0.8108889914	 0.124498
H	 0.6597416808	-0.4966754608	 0.8375993669	 0.12713
H	-0.918129921	-0.2208110966	 0.0989727352	 0.122244
H	 0.067025503	-2.4654115509	-3.3464893201	 0.137625
H	 1.6935516208	-1.8367646572	-3.0675866979	 0.133475
H	 0.7694496166	-4.596749776	-2.0262235873	 0.115919
H	 2.4118118344	-5.528983354	-3.7155522451	 0.117709
H	 2.7485081971	-3.8309837712	-4.3351667844	 0.111958
