18
gdb 122732	9.5181	0.39606	0.38385	5.1614	88.02	-0.2768	-0.0369	0.2399	2637.5046	0.14606	-401.937234	-401.926848	-401.925904	-401.974265	35.16	
O	-0.0951091009	 1.4789117663	 0.0110462862	-0.419462
C	 0.0297551544	 0.06652863	 0.0022123201	-0.082206
C	-1.3761835193	-0.5209010074	 0.0124032735	-0.163432
C	-1.3778663428	-2.0509022114	 0.004131287	-0.186186
C	-2.8124239964	-2.6239135972	 0.0146487092	-0.3821
C	-2.8444523995	-4.0762261224	 0.0070747714	 0.051095
C	-2.8440888361	-5.2848222643	 0.0005718636	 0.09021
C	-2.8471190561	-6.6496725138	-0.0066574947	 0.20388
N	-2.8477630452	-7.8115928326	-0.0126816518	-0.339259
H	 0.787264824	 1.8609445991	 0.0047909566	 0.288845
H	 0.5717759835	-0.2830343671	-0.8918750626	 0.088933
H	 0.5886452098	-0.2926390191	 0.8819919338	 0.088934
H	-1.9020876051	-0.1454604194	 0.8988221713	 0.111353
H	-1.9188148335	-0.1359307039	-0.85973174	 0.111353
H	-0.8531213778	-2.4274777225	-0.8813423897	 0.118858
H	-0.836439427	-2.436996612	 0.8753482064	 0.118859
H	-3.3503725831	-2.2593266186	 0.8995234635	 0.150164
H	-3.3670402788	-2.2498193037	-0.8558487438	 0.150162
