15
gdb 46851	2.74738	1.84377	1.21493	4.7292	67.12	-0.2605	-0.0533	0.2072	972.6732	0.114678	-453.947847	-453.940753	-453.939809	-453.979527	27.095	
N	 0.0336299782	 0.8935177289	-1.0018428555	-0.480892
C	 0.059995213	-0.1132959053	-0.2309834966	 0.179625
N	-1.099418717	-0.7595063576	 0.2114168532	-0.065173
C	-1.9373015057	-1.543775666	-0.6828176393	-0.245571
C	-1.0344884701	-2.2121739932	 0.3098535299	-0.039536
C	 0.2963972243	-2.7710758722	-0.1283395731	-0.113398
O	 1.3692296991	-2.0363272453	 0.5064853695	-0.228488
C	 1.3527267702	-0.6914089534	 0.3408454459	 0.396594
O	 2.3092037063	-0.0206635163	 0.6082801801	-0.322829
H	 0.9837797167	 1.2532769703	-1.1121859533	 0.246318
H	-3.0029628386	-1.4908964077	-0.4852960928	 0.141201
H	-1.6584424499	-1.5701141757	-1.7328104123	 0.140267
H	-1.4586169264	-2.6249981569	 1.2218056928	 0.119061
H	 0.4381896682	-3.808574308	 0.1754249261	 0.142286
H	 0.4192766718	-2.7065301916	-1.2155232145	 0.130536
