15
gdb 80160	2.48241	1.64142	1.36181	5.3519	66.11	-0.2551	-0.0819	0.1733	982.7407	0.112264	-457.796606	-457.788938	-457.787994	-457.829016	28.508	
C	-0.0753090488	 1.5675386108	-0.0371798534	-0.427425
C	 0.0620728365	 0.0628611183	 0.0278528857	-0.052751
C	 1.339320808	-0.675713125	-0.166738364	 0.063108
O	 2.5312160233	 0.0958215386	-0.1337582597	-0.212742
C	 2.804388716	 0.5350881567	 1.1302016143	 0.329719
O	 3.7510666751	 1.2016250524	 1.40882815	-0.301801
C	 1.6748914557	 0.024771278	 2.070193268	 0.296886
O	 1.6846777096	 0.1724732389	 3.2614157895	-0.28307
C	 0.7104167135	-0.7015370688	 1.2095956306	-0.221789
H	 0.8390048305	 2.0900201147	 0.2509911173	 0.150448
H	-0.3214047546	 1.8742668194	-1.0585635411	 0.137343
H	-0.879303318	 1.9083499624	 0.6214424256	 0.140704
H	-0.804621015	-0.4781759318	-0.3441813309	 0.117971
H	 1.4331667408	-1.544825759	-0.8054416396	 0.130147
H	 0.1895973773	-1.5552977155	 1.6220314578	 0.133252
