18
gdb 45261	3.05273	1.64139	1.32318	3.7359	74.49	-0.2378	0.0348	0.2725	987.1246	0.150514	-401.96964	-401.96255	-401.961606	-402.001154	28.578	
O	 0.0827732158	-0.0111739282	-0.3144990575	-0.359399
C	 0.0515754332	 1.1613250091	-0.0583785055	 0.416407
N	-0.9709581765	 2.007428073	 0.3171787135	-0.331452
C	-0.176436331	 3.2457674227	 0.2488511519	 0.023923
C	 0.0590306531	 4.0270573216	 1.5556651197	-0.248247
C	 1.3291130484	 3.4563601753	 2.183855745	-0.027405
C	 1.3567791925	 1.9986096352	 2.5557471049	-0.29248
C	 1.946159376	 2.4385258791	 1.2356528994	-0.035975
C	 1.0720361315	 2.3333097353	-0.0060392539	-0.19563
H	-1.9705499847	 1.8610541608	 0.3128794433	 0.245465
H	-0.4760424366	 3.8908332276	-0.582775899	 0.086828
H	 0.2115676253	 5.0856020843	 1.3188340159	 0.104009
H	-0.8106205175	 3.9684448284	 2.2198242646	 0.10566
H	 1.9590144806	 4.1355385573	 2.7485103537	 0.084654
H	 2.0561275767	 1.6948004399	 3.3272907607	 0.112442
H	 0.4283266316	 1.4377938006	 2.5545666516	 0.127618
H	 3.0196171798	 2.3709735144	 1.1071732419	 0.089365
H	 1.6232945918	 2.4900066636	-0.9336758701	 0.094217
