20
gdb 52155	4.52834	0.77876	0.76146	3.4088	82.17	-0.2562	0.0254	0.2816	1563.422	0.171314	-403.108703	-403.099774	-403.09883	-403.144594	32.258	
N	 0.4095576979	 0.4257219141	 1.3013630731	-0.440946
C	 0.0052132943	-0.1793998617	 0.2690373054	 0.134089
O	-0.9432335553	-1.1267508517	 0.367363608	-0.183525
C	-1.279905524	-1.8182011249	-0.8443163403	-0.108802
C	-2.5335305824	-2.6092582869	-0.5926126452	-0.013985
C	-2.9314982322	-3.8530041634	-1.3437876518	-0.085237
C	-1.7287928843	-4.7537162496	-1.661210614	-0.231125
C	-1.3781409559	-4.8004755679	-0.1379971401	-0.23461
C	-2.5953714986	-3.9140345633	 0.1537248876	-0.043958
H	 1.1127086613	 1.1151361165	 1.0435881594	 0.226233
H	 0.352170092	-0.007911221	-0.7606036533	 0.079232
H	-1.4449755076	-1.0905921172	-1.6510443519	 0.105107
H	-0.4434773326	-2.4612659522	-1.13985836	 0.110096
H	-3.3849430422	-1.9707793926	-0.3675207333	 0.097391
H	-3.8973942449	-3.9188928951	-1.8308365456	 0.086331
H	-2.0381654956	-5.7321859603	-2.0345205104	 0.106937
H	-0.9733659219	-4.354185121	-2.3458544398	 0.094639
H	-1.4822531399	-5.8059483072	 0.27410681	 0.107272
H	-0.4051431731	-4.4047110314	 0.1697380403	 0.105575
H	-3.263262125	-4.0335293932	 0.9980073018	 0.089286
