16
gdb 77303	2.9873	1.14454	0.90863	2.891	66.02	-0.2518	-0.0357	0.2162	1238.2135	0.122325	-475.045165	-475.036128	-475.035184	-475.079764	31.744	
O	 0.1945965298	 1.3467879591	 0.2855874439	-0.429714
C	 0.1564332094	-0.0199321531	-0.0384967921	-0.047775
C	-1.2421150269	-0.7115569701	 0.0976770612	 0.030167
C	-2.4031249449	 0.1936178224	 0.4836151937	-0.2993
C	-3.7539583592	-0.3855588483	 0.140153003	 0.151105
O	-3.9224824289	-1.399145522	-0.4935079699	-0.248217
N	-1.1385749955	-1.0159515823	-1.3364519026	-0.323495
C	 0.0305342743	-0.3412022516	-1.5523677686	 0.39599
O	 0.6746990107	-0.059290745	-2.5292837729	-0.371034
H	 0.7281718926	 1.7828451968	-0.3893447775	 0.304757
H	 0.9581036455	-0.5792668249	 0.4607143777	 0.100868
H	-1.2352877379	-1.6115439698	 0.7206510457	 0.095741
H	-2.3827402003	 0.416240198	 1.559019769	 0.136414
H	-2.3143421209	 1.1701411789	-0.010848166	 0.145496
H	-4.6216789258	 0.2055461626	 0.5083706341	 0.091882
H	-1.7987096719	-1.4741518008	-1.9474221688	 0.267116
