21
gdb 105184	1.9184	1.50761	1.00398	3.7788	79.81	-0.2467	-0.02	0.2267	1272.3544	0.18055	-424.237254	-424.227173	-424.226229	-424.272083	37.36	
C	 3.0347357605	-1.7550396194	 0.5213586236	-0.418888
C	 1.7724095744	-0.987566854	 0.1852083634	-0.04466
C	 0.4439844017	-1.6551130573	 0.0511833091	-0.31852
C	 0.6825459306	-0.6968007074	 1.2212865547	 0.192448
C	 0.760154145	-1.2926172156	 2.6234896397	-0.140073
O	-0.5122367699	-1.5849361154	 3.1620054244	-0.427538
C	-0.0229992327	 0.6243976784	 1.1877281356	 0.352592
C	-0.0023371614	 1.4763046389	-0.0707147256	-0.494107
O	-0.606064177	 1.0305595536	 2.1793852316	-0.336801
H	 2.8359294549	-2.6364088415	 1.1353049394	 0.128725
H	 3.5133538746	-2.1023388606	-0.4005436667	 0.124949
H	 3.7560463901	-1.1270727892	 1.0547700733	 0.125547
H	 1.9498066208	-0.1720675957	-0.5101497786	 0.088659
H	-0.2302320293	-1.3547075412	-0.7428599653	 0.119521
H	 0.3610519442	-2.7008346799	 0.3291252496	 0.132585
H	 1.3096117098	-2.2369789244	 2.602193237	 0.096412
H	 1.3194378739	-0.6017869867	 3.2732860852	 0.092599
H	-0.9555438729	-0.7281543773	 3.2224493	 0.294119
H	-0.7731719662	 2.2426188339	 0.0155314433	 0.146003
H	 0.9715944182	 1.9712486627	-0.1608671205	 0.149041
H	-0.1563521296	 0.8954623082	-0.9837282233	 0.137387
