14
gdb 21235	3.45145	1.94036	1.26179	3.8842	61.89	-0.2325	-0.021	0.2116	922.233	0.105215	-415.835384	-415.827275	-415.826331	-415.868529	27.497	
C	 0.0722971752	 1.4434039216	 0.0050188116	-0.254455
O	 0.060547735	 0.0083039939	 0.0094185026	-0.257329
C	 0.5844637764	-0.6010935899	-1.0441524942	 0.45185
C	 0.6899310126	-1.9532678129	-1.2754168142	 0.11622
C	 0.2610879795	-3.1100489677	-0.4392603315	-0.49826
N	 1.3008264031	-2.0567010315	-2.4939985375	-0.136298
N	 1.5706516846	-0.9552784927	-3.0143598525	-0.045309
O	 1.0915286968	 0.0899119107	-2.0434425469	-0.249746
H	 1.0972467971	 1.8210045683	-0.0430804834	 0.15072
H	-0.4977803981	 1.8316150318	-0.8433489762	 0.150703
H	-0.3961281772	 1.7408718916	 0.942597585	 0.147685
H	-0.4712203368	-3.7350813956	-0.9605344857	 0.142602
H	 1.1086030059	-3.7483445674	-0.169129193	 0.142624
H	-0.1982597742	-2.7481534202	 0.4837959457	 0.138992
