18
gdb 114648	2.86401	1.37782	1.18453	4.3816	72.09	-0.2419	-0.0111	0.2308	1105.4842	0.148265	-439.053086	-439.045096	-439.044152	-439.085882	30.21	
C	 0.0946591476	 1.2844334457	 0.1186417854	-0.239149
O	-0.1827223355	-0.0723403638	-0.1508661855	-0.241005
C	 0.5611052998	-0.6112306241	-1.2146518409	 0.129708
C	 2.04664725	-0.9955887681	-0.8499702139	-0.270982
C	 1.9460779327	-2.5252759557	-1.0471696821	-0.127263
N	 1.13786732	-2.6819690208	-2.3076426826	-0.326826
C	 0.0219381021	-2.0217947999	-1.5525001464	-0.167791
C	 0.5922576377	-2.8236340985	-0.3575251714	 0.491264
O	 0.1892257985	-3.455574779	 0.5634049057	-0.307024
H	 1.1375836769	 1.4404763577	 0.4315121756	 0.109393
H	-0.1009418905	 1.9181174059	-0.7602726018	 0.107669
H	-0.565690816	 1.5927882804	 0.9320625548	 0.13584
H	 0.5110836838	 0.0549230397	-2.0896915516	 0.06865
H	 2.7851343064	-0.5543049744	-1.5255308532	 0.10496
H	 2.2915891057	-0.7013690926	 0.1747028123	 0.123277
H	 2.8327045622	-3.1436916835	-0.9205034552	 0.093584
H	 1.4906662055	-2.0960498097	-3.0657346973	 0.220158
H	-0.9958624268	-2.1134841595	-1.9247039419	 0.095538
