15
gdb 32493	6.5017	0.81747	0.7353	3.7369	73.94	-0.2464	-0.0611	0.1853	1447.765	0.112349	-457.794507	-457.786289	-457.785345	-457.828053	29.249	
O	 0.3464251903	 0.9637520744	 0.8276425365	-0.405803
C	 0.0426658868	 0.0642105444	-0.2243273393	-0.172244
C	-1.3798894081	-0.4186457253	-0.1816959737	 0.210351
C	-2.2171599929	-0.3767603879	 0.9003846535	-0.078886
O	-3.4281017063	-0.8927433563	 0.6083599592	-0.155783
C	-3.3860024348	-1.2884752432	-0.6955830945	 0.281619
C	-4.5638707289	-1.889617826	-1.3002153785	 0.074124
O	-5.6212464214	-2.0844180997	-0.745106879	-0.277397
C	-2.1494426497	-1.0149527701	-1.2226453949	-0.371015
H	-0.1970799612	 1.7496081784	 0.7055931141	 0.286948
H	 0.258280824	 0.5008286589	-1.2119484034	 0.104687
H	 0.7347238562	-0.7765414261	-0.0976279208	 0.135606
H	-2.0815084729	-0.017069533	 1.9070161811	 0.159391
H	-4.396885678	-2.1660675655	-2.3647225287	 0.077934
H	-1.8357890931	-1.217283483	-2.2362260316	 0.130467
