16
gdb 48478	2.2169	1.61121	1.20201	2.5499	71.95	-0.2286	-0.0499	0.1787	1062.21	0.122983	-437.89658	-437.888106	-437.887162	-437.930208	30.33	
O	-0.14551968	-0.0496387242	-0.5370027796	-0.258415
C	 0.1322878311	 0.8298114982	 0.2355413921	 0.122589
C	 1.2646539576	 1.8459095463	-0.0043320874	 0.069768
N	 1.3435468542	 2.8487950381	 1.0490445795	-0.361702
C	 2.6984061238	 2.8334236791	 1.6419226608	-0.212787
C	 3.3871321548	 1.6826456153	 0.9604599821	-0.063963
C	 2.6033694147	 1.1233100679	 0.0449282787	-0.118578
C	 1.0508091828	 2.4639742503	-1.393705095	 0.136542
O	 1.028626131	 3.6522753408	-1.580193771	-0.25435
H	-0.3943732367	 0.9896253776	 1.2006525704	 0.10476
H	 1.1331967745	 3.7560161725	 0.646330699	 0.240725
H	 3.233177538	 3.7804043626	 1.4802441108	 0.116713
H	 2.6516821004	 2.6849694792	 2.7305070863	 0.118004
H	 4.3901038189	 1.3617823413	 1.2142946146	 0.116165
H	 2.8133229275	 0.2666164468	-0.5810817137	 0.126469
H	 0.9062382775	 1.7294772582	-2.2091999076	 0.118058
