14
gdb 4180	3.64958	1.8211	1.37468	2.7895	61.97	-0.2372	-0.0027	0.2345	869.6187	0.106974	-415.752282	-415.745125	-415.74418	-415.783651	27.104	
O	-0.06516989	 1.336757679	-0.0463719531	-0.383369
N	 0.0619812474	-0.060334474	-0.0735939958	-0.266278
C	-1.0631682874	-0.6285616836	 0.0383241948	 0.432814
C	-1.4207742952	-2.0706448458	-0.0369922723	-0.16045
N	-2.3088372759	-2.3176213315	 1.1506561834	-0.35415
C	-2.877838125	-1.716655344	-0.0701604962	-0.077739
C	-2.5593656757	-0.2080052021	 0.0683737077	 0.054539
O	-3.0748695024	 0.4492185104	 1.183383391	-0.425256
H	 0.8481508486	 1.6255289983	-0.1487622428	 0.308321
H	-0.8859339983	-2.8819089498	-0.5110688485	 0.114425
H	-2.5399072218	-3.310705021	 1.1472781403	 0.240453
H	-3.6881986189	-2.1854026149	-0.612955829	 0.107219
H	-2.8171171678	 0.377990495	-0.8180078726	 0.114479
H	-2.9086748276	-0.138188556	 1.9334361231	 0.294993
