21
gdb 69805	3.06044	1.54883	1.24741	0.3849	87.73	-0.2212	0.0248	0.246	1087.4461	0.184627	-349.949655	-349.941892	-349.940948	-349.981282	32.316	
C	 0.0213143494	 1.5264168224	-0.0152862644	-0.47116
C	-0.0435781726	 0.0103813474	 0.0088944613	 0.324836
C	-0.8800169422	-0.6463831707	 1.0975077204	-0.335203
C	 0.6234373541	-0.7474090686	 1.1481071475	-0.083461
C	 1.3899141045	-2.0127731675	 0.8604090044	-0.03489
C	 0.7336673316	-3.3211245679	 0.5116815099	-0.301259
C	 1.446809926	-2.5229496725	-0.5689136049	-0.077687
C	 0.6757946814	-1.7735781255	-1.5839512056	-0.075654
C	 0.0072372951	-0.644885469	-1.3220693072	-0.138985
H	 0.9524619338	 1.8781384732	-0.4734664746	 0.118963
H	-0.8120592914	 1.9466389729	-0.5915742895	 0.114372
H	-0.0333321486	 1.9417058934	 0.9958726633	 0.111
H	-1.365156529	 0.0048464193	 1.8180324788	 0.104674
H	-1.456583816	-1.5254499045	 0.8334079372	 0.11223
H	 1.0994935747	-0.1197259936	 1.8949350832	 0.08001
H	 2.3148028838	-2.0921941108	 1.4217665826	 0.08276
H	 1.207454808	-4.2332631041	 0.8586508556	 0.108031
H	-0.3483964079	-3.3677224822	 0.4674384175	 0.114718
H	 2.3855633133	-2.9442219297	-0.9181429931	 0.083718
H	 0.6726637636	-2.1730321626	-2.5952532373	 0.084059
H	-0.5268992615	-0.1413507894	-2.1255449551	 0.078927
