18
gdb 118377	1.70472	1.24703	0.75595	3.0101	79.09	-0.2751	0.0104	0.2856	1491.4658	0.144168	-401.919641	-401.909273	-401.908329	-401.956023	35.963	
C	 0.0299747217	 1.5240569059	 0.050716488	-0.38684
C	 0.1886495289	 0.0161600939	 0.1101832121	-0.053873
O	 0.541191527	-0.4416435254	-1.193813727	-0.23418
C	 0.6906182924	-1.8302861377	-1.3038478986	-0.017136
C	 0.7620359977	-2.1856666304	-2.8044609183	-0.37235
C	-0.4989488468	-1.931580274	-3.4859749527	 0.302869
C	-1.5471328575	-1.739656608	-4.0398624803	-0.430616
C	 1.9136661275	-2.3011093629	-0.6080776692	 0.2697
N	 2.8665610906	-2.660271101	-0.0620617534	-0.321913
H	 0.9675528306	 1.9969382898	-0.2536681666	 0.134964
H	-0.746231651	 1.801123959	-0.6677233184	 0.133475
H	-0.250401727	 1.9105069948	 1.0347605992	 0.122752
H	 0.9696583425	-0.2678503676	 0.8305577599	 0.116002
H	-0.7491848579	-0.4668779154	 0.426660191	 0.098437
H	-0.1660933698	-2.3554050899	-0.85264704	 0.123936
H	 1.5690347696	-1.5941671662	-3.250616	 0.1598
H	 1.0428683597	-3.2402200101	-2.9028330161	 0.152431
H	-2.4682104882	-1.5645116348	-4.5385239696	 0.202542
