23
gdb 108472	2.08581	1.56659	1.19907	1.2861	85.06	-0.2469	0.0716	0.3185	1188.9489	0.205562	-388.270565	-388.261174	-388.26023	-388.304489	36.304	
C	 0.0641733571	 1.5603959293	-0.0895708496	-0.37708
C	 0.0385167989	 0.0259260005	-0.0830504841	-0.302758
C	-1.3654666132	-0.5396483749	 0.0115925514	 0.39493
C	-2.1110522843	-0.3795827137	 1.3759613848	-0.285114
C	-2.2089813264	-1.9280902072	 1.5136444321	-0.219371
C	-1.7092740243	-2.0815596168	 0.0615800458	-0.083854
C	-2.8098802342	-1.8477535846	-1.0139532459	-0.283473
C	-2.2929247539	-0.3912625031	-1.2136260859	 0.076925
O	-3.2065522671	 0.6822081853	-1.1318733347	-0.433603
H	 1.0860458269	 1.938784441	-0.1918227487	 0.105762
H	-0.5322757763	 1.9611900214	-0.9151749752	 0.126849
H	-0.3514424337	 1.9663392456	 0.8385600071	 0.119053
H	 0.5193235954	-0.3529846479	-0.9956117121	 0.086765
H	 0.6402694934	-0.3494879601	 0.7557638934	 0.089051
H	-1.5223738712	 0.1134174817	 2.1536510119	 0.09467
H	-3.0666953218	 0.1399207898	 1.2884282861	 0.117145
H	-1.4970149833	-2.3236930627	 2.2436789339	 0.095438
H	-3.194706758	-2.349021717	 1.735483922	 0.091039
H	-0.9760935409	-2.8589064226	-0.1603352916	 0.056682
H	-2.7598191634	-2.4866460937	-1.8989852968	 0.093295
H	-3.8265248984	-1.8870274255	-0.6102770109	 0.09726
H	-1.6891238297	-0.3170649317	-2.1315765221	 0.057918
H	-3.7729930616	 0.6585060569	-1.9096422108	 0.282472
