9
gdb 23645	4.21797	2.02779	1.36944	3.3672	46.87	-0.3115	-0.0934	0.2181	760.292	0.049085	-474.680042	-474.674305	-474.67336	-474.710405	20.246	
F	 0.045072244	 0.0938801341	 0.0027080973	-0.020721
C	-0.021139942	 1.3977672772	 0.0107914551	 0.374314
N	-1.1954669312	 1.925904431	 0.0296187385	-0.370135
C	-1.282433727	 3.2903598768	 0.03799508	 0.473522
O	-2.2468022459	 3.9775381249	 0.0547977246	-0.296419
O	 0.0055442461	 3.994441515	 0.0240259807	-0.189531
C	 1.1140598822	 3.2902541083	 0.0050798511	 0.174159
N	 1.2005440488	 2.0012706973	-0.0029061474	-0.321501
H	 2.011291255	 3.9047294853	-0.0040342199	 0.176312
