19
gdb 41206	2.79149	1.83755	1.64552	2.0021	75.63	-0.234	0.05	0.284	918.3957	0.160954	-422.906328	-422.899507	-422.898563	-422.937033	28.832	
C	 0.104583073	 1.5769925923	-0.1875959947	-0.177106
O	 1.5726073049	 1.4002600847	 0.0063994436	-0.330342
C	 1.1996773124	 0.2789478298	 0.8912478927	 0.115385
C	 1.2547302889	-1.2802000393	 1.1413545307	-0.105654
C	-0.3575464164	-1.0941423705	 1.1491422941	-0.320119
C	-0.0558280704	 0.0628635353	 0.1377350972	 0.365667
O	 0.1154201438	-0.5860759636	-1.1375215401	-0.303321
C	 1.3346481179	-1.2952469676	-1.3230959226	-0.066582
C	 1.6935797917	-2.0993235846	-0.0681139819	-0.224763
H	-0.2987921583	 2.2748153681	 0.5551362824	 0.103603
H	-0.1289086692	 1.8801919883	-1.2090409073	 0.124614
H	 0.9957225738	 0.7264936887	 1.8723531438	 0.087903
H	 1.7161420902	-1.614427276	 2.0726998717	 0.079458
H	-0.9411397193	-1.9282212411	 0.7558615318	 0.11391
H	-0.7282126721	-0.7840829133	 2.127148456	 0.11216
H	 1.1891656012	-1.9346396239	-2.1984217209	 0.102094
H	 2.1401841265	-0.5827822058	-1.5435511671	 0.113292
H	 2.7730887858	-2.2848004361	-0.0419379511	 0.105311
H	 1.1952745558	-3.0755114254	-0.0547138384	 0.10449
