19
gdb 119846	4.50841	0.96054	0.84351	2.0567	77.9	-0.2394	0.0248	0.2642	1409.6852	0.160591	-419.19545	-419.187073	-419.186129	-419.22897	31.337	
C	 0.0458657834	 1.4905414792	-0.0793694953	-0.39161
C	-0.0382955226	-0.0230020209	-0.0447195925	-0.039877
O	 0.6704800157	-0.5255446164	-1.1923049526	-0.274888
C	 0.7369258973	-1.8530158501	-1.3023872808	 0.489195
N	 0.2218433979	-2.6944503624	-0.4932622343	-0.334385
C	 0.5847659982	-4.0477012547	-0.9463704278	-0.158331
C	 1.3636888006	-3.8860247558	-2.2518701332	-0.045723
N	 0.5545391772	-3.2430373391	-3.3074782736	-0.328552
C	 1.4761559972	-2.4228810463	-2.4710554474	-0.187963
H	 1.0864279539	 1.8251756625	-0.0381053738	 0.126285
H	-0.4063849159	 1.8857427924	-0.9934236256	 0.129673
H	-0.486136041	 1.9118716587	 0.778743398	 0.121237
H	 0.4131817497	-0.4426487133	 0.8606577229	 0.119344
H	-1.0725647403	-0.3802137538	-0.0860934209	 0.123546
H	 1.1932850656	-4.5391011335	-0.1768726784	 0.104185
H	-0.3195456741	-4.6500342757	-1.0864600209	 0.118595
H	 2.1481676204	-4.58086176	-2.5309642784	 0.094509
H	 1.0097555618	-3.4036857806	-4.2048198521	 0.232636
H	 2.317845745	-1.9118291303	-2.9223449533	 0.102125
