23
gdb 113857	2.77557	1.05056	0.84445	1.0174	87.12	-0.2356	0.0811	0.3167	1458.0582	0.20548	-388.253085	-388.24357	-388.242626	-388.287947	35.566	
C	 0.1206996263	 1.0220352379	-0.3449723931	-0.240742
O	-0.422036128	-0.051389214	 0.3981833258	-0.233764
C	 0.4795305417	-0.5850323411	 1.3169494849	 0.121953
C	 0.1716736294	-1.9522587343	 1.8315718457	-0.341325
C	 1.3752029364	-1.7446368294	 0.923654576	-0.060378
C	 1.3658232323	-2.3160345356	-0.467071566	 0.0507
C	 2.5027105128	-1.9313839105	-1.4614985466	-0.233147
C	 2.4982849154	-3.3956707508	-1.9753269582	-0.212867
C	 1.7667397077	-3.8085999873	-0.6704615976	-0.228476
H	 0.9949798698	 0.7123332933	-0.9341514461	 0.115815
H	-0.6620958832	 1.3736185876	-1.0212847758	 0.125422
H	 0.4222210684	 1.8530305178	 0.31110628	 0.105831
H	 0.8857373805	 0.1505602123	 2.0138993126	 0.078558
H	 0.3247860754	-2.1647317252	 2.8836642193	 0.109457
H	-0.6905503316	-2.4412851999	 1.3901717965	 0.122504
H	 2.3469392247	-1.7705006197	 1.4137277729	 0.073732
H	 0.3917441201	-2.1274285788	-0.9289198885	 0.078404
H	 2.3054278565	-1.1333951461	-2.1822922933	 0.09234
H	 3.4299527382	-1.6951147879	-0.928289885	 0.094088
H	 1.8569596783	-3.5138048257	-2.853714098	 0.100425
H	 3.4628571637	-3.8627279172	-2.187521273	 0.093539
H	 2.4728333125	-4.1351252557	 0.1002821464	 0.094777
H	 0.9642344728	-4.5473403199	-0.7393179891	 0.093155
