18
gdb 97829	3.94039	0.70417	0.6373	2.4996	83.44	-0.2515	0.022	0.2735	1785.6524	0.14678	-401.922	-401.912511	-401.911566	-401.959528	33.081	
C	 0.1336884585	 1.3953935985	 0.5934733985	-0.365602
C	-0.0518436226	 0.2401362886	-0.4073732419	-0.315398
C	-1.3973035203	-0.3235257209	-0.3862570933	 0.083484
C	-2.5123109486	-0.7763336925	-0.3394834595	 0.077601
C	-3.8469570011	-1.3342612797	-0.3060367983	-0.31467
C	-4.4249258204	-1.9622160628	-1.6056964897	-0.087548
O	-4.5978598646	-3.2382306848	-0.9211675989	-0.249394
C	-4.0304586716	-2.7549768616	 0.238407999	 0.444603
N	-3.7810506149	-3.3143486136	 1.3280587909	-0.536528
H	 1.1558949116	 1.7817014471	 0.5426842057	 0.115885
H	-0.5561929506	 2.2147251108	 0.3740279789	 0.127461
H	-0.0577194871	 1.0572456872	 1.6152001247	 0.134212
H	 0.1782313681	 0.5913422607	-1.42155847	 0.129343
H	 0.6746760534	-0.5535653747	-0.1915854576	 0.134912
H	-4.5520147631	-0.6436591209	 0.1683402649	 0.134559
H	-5.3820046163	-1.5665942839	-1.9520971439	 0.123992
H	-3.7147794565	-2.0499270544	-2.4298029409	 0.131706
H	-4.0551690937	-4.2981886531	 1.3160721313	 0.231381
