19
gdb 80430	2.50933	1.74688	1.30004	2.0086	69.85	-0.2467	0.0576	0.3043	1007.3635	0.160121	-460.148398	-460.140344	-460.1394	-460.180368	32.812	
O	 0.2290542611	 1.3649222283	 0.0287173729	-0.449635
C	 0.0504479013	-0.0479132385	-0.0239019138	 0.102347
C	-1.3923907448	-0.5168243291	-0.2650630412	-0.082201
C	-1.1688535506	-1.991677298	-0.7220508318	-0.281728
C	-0.5250010452	-1.3001215859	-1.9473645705	 0.431972
O	-0.3406380386	-1.9928532392	-3.1347565143	-0.496786
C	-1.601222566	-0.1810315915	-1.7712700961	-0.319498
C	 0.7242601403	-0.6635828703	-1.3088307442	 0.050388
O	 1.3154902759	 0.3028819096	-2.1444597452	-0.462109
H	-0.5646597224	 1.7831525784	-0.321552625	 0.293682
H	 0.4769795765	-0.4488134642	 0.8993262137	 0.089508
H	-2.1302529475	-0.2604540709	 0.4946132216	 0.072845
H	-0.5391540817	-2.6387671931	-0.1034450457	 0.097264
H	-2.1048235787	-2.4949481867	-0.9706401945	 0.112287
H	 0.2682438274	-1.4703509855	-3.6718831337	 0.290026
H	-2.5792767297	-0.4966518672	-2.1376708569	 0.108208
H	-1.3633434151	 0.8205421089	-2.1414912986	 0.084318
H	 1.4655756194	-1.434519352	-1.0603407325	 0.072362
H	 1.2699270583	 1.1349529169	-1.6482552343	 0.28675
