14
gdb 20388	4.91822	2.09046	1.50277	5.2269	63.41	-0.2036	0.0139	0.2176	785.5654	0.111586	-374.885692	-374.879689	-374.878745	-374.915759	23.14	
C	 0.0124090688	 1.4381004245	 0.0419884764	-0.170134
C	 1.5099673983	 1.8982160831	-0.0626251717	-0.339497
C	 2.2064275067	 0.5747074423	 0.0638308444	 0.27627
C	 1.2932270453	-0.4368897976	-0.0561673037	 0.400311
N	-0.0142838822	-0.0306243673	-0.2849358596	-0.409086
N	 2.0157334866	-1.5667112605	-0.0295817127	-0.333654
N	 3.3580550077	-1.2525600721	 0.1212530306	-0.145129
N	 3.4487548106	 0.0474277299	 0.1583947805	-0.280706
H	-0.3537565625	 1.5996686154	 1.0631996581	 0.114329
H	-0.6418030645	 1.9786590199	-0.6453321334	 0.121577
H	 1.7070661377	 2.374752745	-1.0303086056	 0.125595
H	 1.7541951666	 2.6264505662	 0.7154160494	 0.12465
H	-0.7379106036	-0.5373818529	 0.2095650256	 0.241447
H	 1.7436735346	-2.5340667359	-0.0738976783	 0.274028
