20
gdb 31651	3.50863	1.07877	0.8383	2.5101	84.75	-0.1798	0.0503	0.2301	1405.6366	0.169957	-403.175956	-403.166071	-403.165127	-403.210965	35.424	
C	 0.0166536177	 1.3966758343	 0.0079611255	-0.238546
O	 0.0300046238	-0.014011392	 0.0101846561	-0.262198
C	-1.1945381011	-0.6051683548	 0.0174895584	 0.361936
C	-2.4447352276	-0.0248224866	 0.0332977368	-0.257632
N	-3.3751675633	-1.0526814796	 0.057867533	-0.05239
C	-4.8047082791	-0.8575815947	-0.0267598057	-0.337982
C	-2.7234989264	-2.2627430295	 0.0420564077	 0.333877
C	-3.4521821095	-3.5665459162	 0.0449509929	-0.502498
C	-1.3669235621	-2.0147054825	 0.022364754	-0.387528
H	 1.0577942728	 1.7247929393	-0.0006401801	 0.126669
H	-0.4955740094	 1.7913495725	-0.8813508334	 0.112374
H	-0.4817257449	 1.7942649292	 0.9037942148	 0.112491
H	-2.7610443002	 1.0038858855	 0.0359683801	 0.107479
H	-5.1789142184	-0.9646479376	-1.0532700119	 0.131028
H	-5.3292337184	-1.5778501098	 0.6068630579	 0.136657
H	-5.0516327346	 0.1461946141	 0.3259766474	 0.137044
H	-4.103095283	-3.687462964	-0.8303149818	 0.124304
H	-2.730700606	-4.386453893	 0.0337267082	 0.135632
H	-4.0816303296	-3.6949133092	 0.9349979347	 0.125262
H	-0.5801934306	-2.7527731556	 0.0263649955	 0.094021
