15
gdb 56105	4.36334	0.75397	0.65823	3.1727	69.82	-0.2643	-0.1014	0.1629	1604.1804	0.109663	-453.996836	-453.986888	-453.985944	-454.034645	32.68	
C	-0.1174120345	 1.4411259162	-0.0433834646	-0.488269
C	-0.1249487501	-0.0746964956	 0.0282105645	 0.411228
O	-0.6192729839	-0.6966560944	 0.9489164649	-0.360652
N	 0.4648681251	-0.7098728724	-1.0364119426	-0.332124
C	 0.3749775989	-2.1363373741	-1.1725585354	-0.240045
C	 0.3125506945	-2.5331279895	-2.6277415019	 0.278801
O	 0.3765592753	-1.7575870083	-3.5491571851	-0.269482
C	 0.1933831445	-3.9830498271	-2.8662156518	 0.238936
N	 0.0970005987	-5.121611377	-3.0419691413	-0.285461
H	-1.0988949622	 1.7862177901	-0.3845557399	 0.15711
H	 0.0441190882	 1.8390313156	 0.9595490534	 0.159108
H	 0.6443403532	 1.834362754	-0.7211394715	 0.124902
H	 0.7223014318	-0.1933128524	-1.8636263128	 0.262619
H	 1.2290718946	-2.6691207447	-0.7224675219	 0.159591
H	-0.5102580543	-2.5069503704	-0.6388534838	 0.18374
