16
gdb 51255	4.46735	1.09422	1.00545	3.3554	72.7	-0.215	-0.0173	0.1977	1172.6311	0.125386	-437.859046	-437.851752	-437.850808	-437.891238	28.066	
O	-0.2602690105	 0.0500349887	 0.0725340802	-0.292368
C	-0.0476020795	 1.2384943295	 0.0249955855	 0.141563
N	 1.2009531938	 1.8106459072	-0.0195687002	-0.446106
C	 2.3958969539	 1.1122404897	-0.0402201563	 0.458685
C	 2.7129464856	-0.1897722517	-0.0605525255	-0.190374
C	 4.2481606389	-0.0958332814	-0.0673452852	 0.024836
C	 4.525784164	 0.9521030247	 1.0533479523	-0.213777
C	 3.7882278689	 1.7819364451	-0.0375156724	-0.059171
O	 4.4898583757	 0.9913868787	-1.0397390922	-0.278576
H	-0.8445803611	 2.0063289086	 0.0144485386	 0.085691
H	 1.24381824	 2.8167116518	-0.0807470383	 0.256168
H	 2.0905269982	-1.0665264414	-0.0689835352	 0.138589
H	 4.8480734292	-0.9892518715	-0.2294236872	 0.08643
H	 4.0518010155	 0.8152652127	 2.0272522729	 0.102185
H	 5.5810609002	 1.2228495136	 1.1364227381	 0.109994
H	 3.8723497573	 2.8637559257	-0.1565910952	 0.07623
