21
gdb 112129	2.56931	1.3776	1.1361	0.8444	86.16	-0.2356	-0.0012	0.2343	1195.2429	0.183402	-387.080623	-387.071787	-387.070843	-387.114149	33.676	
C	 0.0788233899	 1.4766066405	-0.0192308582	-0.233459
O	-0.2100866467	 0.1023681437	-0.1521540488	-0.24242
C	 0.5882798166	-0.5599852425	-1.1459009717	 0.039734
C	 2.0573455304	-0.6352097451	-0.7610719947	-0.078196
C	 2.5129005868	-1.3404893594	 0.2723201418	-0.053547
C	 1.6236416136	-2.1968628767	 1.1387692411	-0.260622
C	 1.042011796	-3.3914928424	 0.3649302084	-0.24294
C	 0.135557598	-3.0603097798	-0.7911312307	-0.01744
C	-0.0651469508	-1.8984638049	-1.414578277	-0.086987
H	 1.1034798131	 1.6540361895	 0.3370006101	 0.108014
H	-0.0542379191	 2.0129096238	-0.9730014005	 0.09781
H	-0.6243003591	 1.8828583399	 0.7123325801	 0.123595
H	 0.5177175689	 0.0292530163	-2.074427303	 0.059805
H	 2.7512217964	-0.061271641	-1.3698948038	 0.086701
H	 3.5782714291	-1.3325556331	 0.4920406798	 0.088579
H	 2.180708009	-2.5706689286	 2.003306046	 0.089948
H	 0.7940066302	-1.5910198094	 1.5186939143	 0.133597
H	 1.8588733113	-4.0323406727	-0.0021158251	 0.108996
H	 0.4759810425	-4.0221252752	 1.0639155563	 0.105801
H	-0.4341911145	-3.9144512783	-1.1566036224	 0.085365
H	-0.8037191316	-1.8795412446	-2.2122925019	 0.087664
