18
gdb 75564	2.44033	1.57616	1.00441	1.9823	76.8	-0.2347	-0.0068	0.2279	1157.4016	0.150893	-435.31743	-435.309333	-435.308389	-435.35013	31.003	
N	 0.0012446878	 1.3844844938	-0.0367994391	-0.561702
C	-0.036903971	-0.0094408945	 0.0149991569	 0.425754
N	-1.1544922319	-0.6117404297	 0.0995108476	-0.318783
C	-1.2226830069	-2.0616937863	 0.00216663	-0.14787
C	 0.072961632	-2.7408462411	-0.4573102707	-0.223858
C	 1.257735709	-2.0745429711	 0.2368617412	-0.177964
N	 1.2247212449	-0.6375017706	-0.0594285419	-0.140359
C	 2.3592351128	-0.026129026	-0.5589895444	 0.142063
O	 3.4364285143	-0.570674195	-0.6532123636	-0.325445
H	 0.6654278187	 1.8150531125	 0.5940459797	 0.251546
H	-0.9325180801	 1.7522770367	 0.0925882871	 0.259317
H	-1.5160009221	-2.4480933528	 0.9890132849	 0.107284
H	-2.0475328543	-2.3199428538	-0.672517936	 0.109753
H	 0.0509830665	-3.8114841472	-0.2310699767	 0.105557
H	 0.194513053	-2.6364170136	-1.5415028703	 0.114275
H	 1.203893808	-2.2211467154	 1.3227571457	 0.117007
H	 2.22208208	-2.4456493968	-0.108746366	 0.15079
H	 2.1754919394	 1.0108564007	-0.8766539643	 0.112634
