17
gdb 38749	2.57356	2.37094	1.88707	1.6276	70.24	-0.2396	0.002	0.2416	813.5887	0.139724	-421.821772	-421.815908	-421.814964	-421.85162	25.404	
C	-0.0262202034	 1.569356528	-0.0077408516	-0.246143
C	 1.5192999768	 1.5333081694	 0.0109195539	 0.079908
O	 2.0987376182	 1.4571153961	 1.3141315886	-0.279122
C	 2.1763095168	 0.0699233578	 1.6619435792	 0.12024
O	 2.3921552164	-0.6089763859	 0.4288299375	-0.244022
C	 1.479372734	 0.0416946034	-0.4127944176	 0.078379
C	-0.0440096009	 0.0011839321	 0.0388522093	-0.131316
C	-0.1677784935	-0.5290611717	 1.4387566504	-0.075156
C	 0.8834499397	-0.4518979485	 2.2549565808	-0.053096
H	-0.5122948271	 2.0929225741	 0.8166155784	 0.112116
H	-0.4001293675	 1.9559474457	-0.9606525418	 0.102006
H	 2.0742742686	 2.2733190478	-0.5690607298	 0.082043
H	 3.0470901523	-0.0733245211	 2.3035473876	 0.092436
H	 1.669814215	-0.227990813	-1.4498933998	 0.092936
H	-0.7394057448	-0.4848778356	-0.6485306466	 0.071971
H	-1.118313397	-0.9434461629	 1.7617466269	 0.099196
H	 0.8643991265	-0.7860215757	 3.2860637945	 0.097624
