21
gdb 82548	2.95028	1.42137	1.30392	2.159	81.5	-0.2161	0.0712	0.2873	1088.3853	0.184406	-383.225468	-383.217251	-383.216306	-383.25803	32.513	
C	 0.2940326917	 1.780622981	-0.1983679792	-0.443085
C	 0.0751247585	 0.2865377317	-0.1069324941	 0.016571
C	 0.4618572783	-0.7212806006	-1.1332675459	-0.044299
C	 1.4499347353	-0.369783976	-2.2355007557	-0.318805
C	 2.690020894	 0.1422929291	-1.4954502432	 0.312736
C	 4.0162296078	 0.2513384111	-2.1444458462	-0.301058
N	 3.2666000227	 1.4704189324	-1.7796443058	-0.339167
C	 2.5167657041	-0.2556293035	-0.0225350569	-0.223547
N	 1.1295986199	-0.7046617611	 0.1919792103	-0.123472
H	 1.2042165135	 2.0663639937	-0.7260111755	 0.152071
H	-0.5587214676	 2.2472536721	-0.7043803384	 0.116689
H	 0.3488815242	 2.2122002958	 0.8074726197	 0.124957
H	-0.8331564504	 0.0431252746	 0.4445119133	 0.087597
H	-0.2043062656	-1.5601091042	-1.3211108139	 0.083998
H	 1.6814322258	-1.2714157348	-2.8134830195	 0.113122
H	 1.060515412	 0.3730146198	-2.9415381755	 0.103878
H	 4.9214730894	 0.0813521872	-1.5663008975	 0.118571
H	 4.0990687303	-0.0132685146	-3.1962089236	 0.109876
H	 2.8379774273	 1.8632087324	-2.6153519315	 0.22591
H	 3.1683961296	-1.1015270575	 0.2245231769	 0.106991
H	 2.7803325192	 0.5735207916	 0.6408785322	 0.120463
