16
gdb 70135	2.44858	2.00745	1.24923	3.222	71.12	-0.2274	-0.021	0.2064	983.5013	0.125199	-437.920638	-437.913019	-437.912075	-437.952485	29.594	
C	-0.0895756702	 1.5022203946	 0.0228720712	-0.467879
C	 0.0829808502	 0.0065333536	 0.0022786782	 0.233703
O	-0.7279039937	-0.7382625011	 0.9202923273	-0.28393
C	 0.6997410854	-0.75118	 1.1300731294	-0.052142
C	 1.3887617885	-2.0225485027	 0.8533214837	-0.140955
C	 1.3023336633	-2.5527198401	-0.3727845945	 0.019652
N	 0.666675928	-1.8993044152	-1.4199809725	-0.371203
C	 0.1597737593	-0.6128746227	-1.3745279906	 0.42444
O	-0.1859610094	-0.0304903125	-2.3830442808	-0.359333
H	 0.7633970852	 1.9990739667	-0.4485313355	 0.131517
H	-0.9861457305	 1.782323006	-0.535643018	 0.149184
H	-0.184409064	 1.8519509179	 1.0533170657	 0.123564
H	 1.013012072	-0.1789079605	 2.001310844	 0.096255
H	 1.9197968704	-2.5384747907	 1.6416908195	 0.107439
H	 1.7365839365	-3.509988699	-0.6344677965	 0.130288
H	 0.6984525489	-2.2985384143	-2.3465095507	 0.2594
