16
gdb 44178	4.96049	1.00902	0.91616	1.7148	73.76	-0.258	-0.0408	0.2171	1222.8724	0.124491	-400.75457	-400.746831	-400.745886	-400.78765	28.832	
O	 0.1974898057	 0.1463201771	-0.748275349	-0.285378
C	 0.0661536237	 1.2148571959	-0.2298210127	 0.404701
C	-1.1455958319	 1.9928941353	 0.3284048383	-0.367038
C	-0.1694544498	 3.1103126159	 0.7801757792	-0.042904
C	 0.4539441899	 2.867831688	 2.1980878734	-0.151478
C	 1.6929856954	 2.1730300442	 1.5309403667	-0.251119
C	 1.0439413264	 2.3476497335	 0.1275800099	-0.147784
C	 0.7562857395	 4.0673949278	 2.9596697824	 0.265897
N	 1.0022469758	 5.0325006713	 3.5473316511	-0.32082
H	-1.8066582399	 2.3115586503	-0.4850628131	 0.144931
H	-1.7538808041	 1.493113008	 1.0878154871	 0.133642
H	-0.4297358252	 4.1370147853	 0.5348768025	 0.106023
H	-0.1477022556	 2.2011239464	 2.8225048652	 0.127586
H	 2.6040916992	 2.761262163	 1.6427857313	 0.142626
H	 1.8928710834	 1.1490978748	 1.8517589937	 0.133258
H	 1.6729549672	 2.734260313	-0.674091226	 0.107857
