19
gdb 119445	4.54961	0.85068	0.79292	3.6219	78.16	-0.2406	-0.0086	0.232	1473.5686	0.157727	-423.004984	-422.995989	-422.995045	-423.03948	32.789	
C	 0.1081561766	 1.4015293861	 0.0207356053	-0.222358
O	 0.1873457336	-0.003992302	 0.0618161095	-0.234298
C	 0.5476616858	-0.5678255754	-1.1828326827	-0.183156
C	 0.5355374011	-2.0570236015	-1.0508928766	 0.359984
C	 1.68360325	-2.8591564477	-0.5565498355	-0.316099
C	 1.2212233715	-3.0878431592	-1.9939352207	-0.236174
C	-0.0483584606	-3.8862806931	-1.9839424294	 0.428387
O	-0.4508179383	-4.8052402394	-2.6389337415	-0.317538
C	-0.7373172214	-2.9210555386	-0.9815771775	-0.412709
H	 1.0756790602	 1.8583870208	-0.2420565305	 0.104453
H	-0.6421965628	 1.7478696822	-0.7077493546	 0.105678
H	-0.183332782	 1.7412521095	 1.0172238086	 0.130729
H	-0.1616820588	-0.2471352818	-1.9656424289	 0.090461
H	 1.5495309124	-0.221827263	-1.4915923102	 0.087347
H	 2.6367226389	-2.3442466225	-0.4854532239	 0.126877
H	 1.5378383931	-3.631376409	 0.1933492773	 0.124406
H	 1.8946069936	-2.9429124859	-2.8302443794	 0.109588
H	-1.0189123661	-3.3087922826	 0.0009976123	 0.123665
H	-1.6128645267	-2.4613295569	-1.4502858515	 0.130757
