14
gdb 25508	4.44192	1.15264	0.91516	4.0452	73.63	-0.2527	-0.0456	0.2071	1173.7869	0.103947	-432.940199	-432.933052	-432.932108	-432.972457	26.122	
O	 1.7513701174	 3.9709961685	 0.9260042592	-0.293205
C	 0.9329138421	 3.1118481036	 0.6967128481	 0.15726
N	 1.2024942591	 1.8295448329	 0.2879556296	-0.40673
C	 2.4508274633	 1.239565611	 0.0498853186	 0.293213
C	 2.5020687294	-0.0944996649	-0.3646072428	-0.044109
N	 3.6412130724	-0.7297296904	-0.6118095515	-0.241848
C	 4.7569072685	-0.0162594843	-0.4412004443	 0.069301
N	 4.8325143814	 1.2545802081	-0.0519558626	-0.237412
C	 3.6853001248	 1.8881051671	 0.1950766105	-0.044834
H	-0.1579384448	 3.2707015607	 0.7945190773	 0.094814
H	 0.3986282629	 1.2357639068	 0.1401621063	 0.257959
H	 1.5811020716	-0.6633324525	-0.4991808941	 0.107183
H	 5.6958981086	-0.5252286561	-0.6405648428	 0.123263
H	 3.7314757534	 2.9215788095	 0.5123554486	 0.165146
