21
gdb 116342	2.84014	1.26769	0.97132	2.5517	77.63	-0.2417	0.0735	0.3152	1248.4753	0.184414	-424.207514	-424.199001	-424.198057	-424.240658	32.975	
O	-0.0855282812	 1.4440410816	 0.0304021022	-0.424973
C	 0.0156189756	 0.025984051	 0.0138181819	-0.083783
C	-1.3971502587	-0.5499060795	-0.0179375811	-0.006077
C	-2.1723130395	-0.0925837685	-1.2645241051	-0.097105
O	-3.4399232332	-0.7151117063	-1.3319559463	-0.240308
C	-3.339429757	-2.0976693389	-1.6252660245	-0.094722
C	-2.4012424446	-2.8623609685	-0.6914041384	-0.061922
C	-0.9300974307	-2.9592514898	-1.0196224854	-0.29521
C	-1.3922120575	-2.0654238316	 0.1052941319	-0.027296
H	 0.8025515241	 1.8112656567	 0.0075547173	 0.28754
H	 0.5775065063	-0.3229105912	-0.8676045723	 0.08544
H	 0.5440762406	-0.3471253805	 0.9058892612	 0.084144
H	-1.9352975611	-0.1481556506	 0.8501957188	 0.089162
H	-2.3461265597	 0.9835720149	-1.2202528953	 0.125521
H	-1.5910871139	-0.2997063761	-2.1814448549	 0.07618
H	-4.3556570416	-2.4917504299	-1.5381100979	 0.107768
H	-3.0217010448	-2.2277545838	-2.6741952488	 0.085979
H	-2.8467012441	-3.7191526948	-0.1967406497	 0.087481
H	-0.3988817382	-3.8694764887	-0.7634400441	 0.108733
H	-0.5977112149	-2.5023140002	-1.9473461562	 0.109875
H	-1.1818026659	-2.4282079456	 1.1078351567	 0.083573
