11
gdb 123323	1.98186	1.97621	0.98952	3.8022	72.99	-0.2762	-0.0732	0.203	1073.1414	0.063907	-414.295432	-414.28798	-414.287036	-414.327613	27.39	
C	-0.0339776031	-1.1883003649	-0.0036703642	-0.372469
C	-0.0340961967	 0.0133886323	 0.0030504783	 0.249433
C	 0.004187199	 1.4239766705	 0.0104485627	 0.129351
N	-1.0693233901	 2.1798853624	 0.0279351916	-0.145938
O	-0.6161679774	 3.4630770832	 0.0295110927	-0.143818
N	 0.7429479399	 3.5299440223	 0.0130693251	-0.145935
C	 1.1598304761	 2.2848791367	 0.0009335694	 0.129362
C	 2.5222266316	 1.917730495	-0.0179836759	 0.249422
C	 3.6734684769	 1.5735171453	-0.034112829	-0.372472
H	-0.0416384834	-2.250917372	-0.0095280828	 0.211532
H	 4.6936976272	 1.2765580893	-0.0481019979	 0.211532
