21
gdb 92625	3.46887	1.23798	1.06895	2.02	77.67	-0.2492	0.0758	0.325	1199.5512	0.184921	-424.244625	-424.236519	-424.235575	-424.278097	31.209	
C	 0.1118343253	 1.6044182709	 0.0390979364	-0.40806
C	 0.1392274182	 0.0879121805	-0.0238100897	 0.163044
C	 0.8694896188	-0.5204083501	-1.2470337918	-0.277047
C	 1.545937031	-1.7854419915	-0.6796136192	-0.023327
C	 3.0840830926	-1.7725096045	-0.61974558	-0.093975
O	 3.4218422523	-2.5146664575	 0.5395017632	-0.249652
C	 2.4793164371	-2.1684963144	 1.5505921145	-0.102187
C	 1.1834014723	-1.7612616573	 0.8279487012	 0.083156
O	 0.8468086798	-0.4110217167	 1.1096312089	-0.275122
H	 1.1308066028	 2.0038091864	 0.0247251007	 0.121904
H	-0.4349629897	 2.0123616377	-0.816657954	 0.116183
H	-0.379358083	 1.9446958448	 0.9548784945	 0.126296
H	-0.8947332008	-0.2987123148	 0.0007696003	 0.062632
H	 0.1763038326	-0.7384491515	-2.0630438518	 0.102908
H	 1.6158454332	 0.1844198803	-1.630126682	 0.101923
H	 1.1999434435	-2.7031858346	-1.1599188805	 0.077524
H	 3.5698355105	-2.2483351521	-1.4757089539	 0.108052
H	 3.449171141	-0.7342583172	-0.5441785379	 0.087091
H	 2.362390708	-3.0369700869	 2.2041327544	 0.105529
H	 2.826919252	-1.3139579384	 2.1486982887	 0.105341
H	 0.3373166925	-2.4200887733	 1.0690337681	 0.067787
