23
gdb 111786	2.38839	1.33232	1.09413	1.6256	84.57	-0.2423	0.072	0.3143	1249.6343	0.207357	-388.280649	-388.271773	-388.270829	-388.313989	35.057	
C	-0.1262465915	 1.6136098545	 0.0339596592	-0.378812
C	 0.1323491277	 0.1100585685	-0.1209827547	-0.230299
C	 0.7102243886	-0.5165968428	 1.1425400937	 0.041584
C	-0.1431272982	-0.7329426179	 2.440271624	-0.075598
C	-1.2924400628	-1.6330487634	 1.9500325984	-0.220977
C	-0.4672520392	-2.6412621165	 1.0746882753	-0.218738
C	 0.9416036906	-2.0572922933	 1.2878406873	-0.091322
C	 0.917510819	-1.8134341106	 2.832903407	 0.188641
O	 2.101027997	-1.3903501623	 3.4631179216	-0.460156
H	 0.7949151409	 2.1509882787	 0.286142787	 0.112315
H	-0.5212985596	 2.0472315805	-0.8898620023	 0.112437
H	-0.8508023868	 1.8105734801	 0.8313897294	 0.119479
H	-0.798576853	-0.3874319449	-0.4125868713	 0.099627
H	 0.8350141898	-0.0567518991	-0.948415515	 0.09509
H	 1.6321203847	 0.0262958742	 1.3870818563	 0.043713
H	-0.3916243297	 0.0857026688	 3.1171732206	 0.057975
H	-1.8058290589	-2.1246863255	 2.7813772043	 0.097965
H	-2.0456504532	-1.0885335637	 1.3746507588	 0.098804
H	-0.5406987723	-3.6692614086	 1.4411330725	 0.097455
H	-0.7732862886	-2.6427210312	 0.0254941208	 0.09892
H	 1.7801240556	-2.5628142289	 0.8061559005	 0.056686
H	 0.5511125061	-2.644682494	 3.4432491097	 0.073738
H	 2.4715985837	-0.6463147427	 2.9787022468	 0.281474
