18
gdb 53489	4.0016	0.76007	0.73689	3.9118	81.63	-0.2604	0.0152	0.2756	1598.0677	0.143668	-401.94064	-401.929743	-401.928799	-401.977823	37.579	
C	 0.0822443166	 1.5167842568	-0.1030911923	-0.499689
C	 0.0495971405	 0.0643649348	-0.0108779018	 0.106242
C	 0.0274446773	-1.1370144317	 0.0617197873	 0.04603
C	 0.0053644166	-2.5899606946	 0.1485686292	-0.395384
C	-1.4323913667	-3.1874951669	 0.0537526178	 0.194857
C	-2.3350775106	-2.6997509806	 1.1898555737	-0.396284
O	-2.0743553522	-2.8154343247	-1.152348093	-0.429747
C	-1.3033776551	-4.6669097168	 0.1122687651	 0.255244
N	-1.1813213926	-5.8160469579	 0.1306971815	-0.336406
H	 0.9828993766	 1.8598047877	-0.623871508	 0.152046
H	-0.7844780628	 1.8971624331	-0.6544401531	 0.15393
H	 0.0753968025	 1.9804709705	 0.8892815034	 0.150815
H	 0.6107477707	-3.0288325695	-0.6558465449	 0.134069
H	 0.4601876688	-2.9311886901	 1.0866814369	 0.146832
H	-2.3905721648	-1.6103183349	 1.1476937817	 0.147746
H	-3.3369257794	-3.1162479199	 1.0698922569	 0.144589
H	-1.9355523816	-3.0047085463	 2.1598415407	 0.132121
H	-1.5142804039	-3.0699094188	-1.8947592413	 0.29299
