16
gdb 133755	2.13735	1.25575	0.95619	1.9613	58.19	-0.2669	-0.0407	0.2262	1226.8549	0.118127	-569.411087	-569.401507	-569.400562	-569.446675	33.012	
C	 0.9291976388	-0.3018535592	 1.2666649554	-0.397901
C	 0.0546696187	-0.039417269	 0.0388028355	-0.208632
C	 0.7575414439	-0.4075466498	-1.2905975354	-0.209198
C	 0.8830284738	-1.9214701016	-1.4092139328	 0.158213
O	 1.8739614738	-2.5343589759	-1.1139345843	-0.245489
C	-0.0020996931	 0.1438742209	-2.4871165118	 0.272938
F	-0.0508764134	 1.4828147189	-2.4701746794	-0.074223
F	 0.5797189441	-0.2263659605	-3.638899776	-0.076919
F	-1.2695160955	-0.3055318772	-2.5181540451	-0.083728
H	 1.2414500887	-1.3482051232	 1.32631824	 0.141035
H	 1.8354755264	 0.3118654272	 1.2424636352	 0.126441
H	 0.382650316	-0.0576618643	 2.1817963716	 0.123391
H	-0.8855894237	-0.598151823	 0.1114261984	 0.120192
H	-0.2184951823	 1.0194607951	-0.0099466959	 0.126919
H	 1.7644579904	 0.0196119199	-1.3143546893	 0.126043
H	-0.0417790668	-2.4375626484	-1.7475138761	 0.100917
