21
gdb 91382	2.31387	1.67296	1.37352	2.4545	77.41	-0.234	0.0643	0.2983	1060.2133	0.183323	-424.219944	-424.211406	-424.210462	-424.252929	33.339	
C	 0.7161331385	 1.2688854901	 0.4514121061	-0.389552
C	 0.0552663253	-0.0218024889	-0.0318076862	 0.126285
C	 0.6873561721	-0.6525609728	-1.2981022536	-0.256875
C	 1.547863242	-1.8108555093	-0.7778302454	-0.032701
C	 2.9731704099	-1.4722536874	-0.2459116519	-0.288772
C	 2.5100158706	-1.8077808832	 1.2037037256	 0.103868
O	 2.610878773	-0.8013094912	 2.1812723112	-0.414128
C	 1.0507084	-2.0299146249	 0.6822247204	 0.093177
O	 0.1002884573	-1.0384476195	 0.9807238953	-0.256951
H	 1.7682726853	 1.1123612986	 0.6969613039	 0.12883
H	 0.6340270335	 2.0481578072	-0.314500543	 0.099821
H	 0.2170491153	 1.623569226	 1.3576867977	 0.121605
H	-1.0090197089	 0.1808551848	-0.2035523464	 0.077265
H	-0.099032435	-1.0375877921	-1.9540950026	 0.102553
H	 1.267617408	 0.0758025557	-1.8721060306	 0.101908
H	 1.5121409664	-2.6830497085	-1.4318644832	 0.069058
H	 3.7799749033	-2.0986783753	-0.6351816256	 0.096015
H	 3.2552170429	-0.4236751149	-0.3748145674	 0.099625
H	 2.9397562701	-2.7543752784	 1.5625799938	 0.063637
H	 3.53989639	-0.7074910191	 2.4153433107	 0.283799
H	 0.6233231004	-3.0001474568	 0.9528602411	 0.071534
