16
gdb 46590	2.6465	1.90076	1.46184	3.2906	67.85	-0.2163	-0.0294	0.1868	914.7767	0.125253	-437.821189	-437.814131	-437.813187	-437.852614	27.906	
O	 0.0248072044	-0.0052570187	-0.1232773928	-0.305147
C	 0.0135626821	 1.195009325	-0.0549155354	 0.327904
C	-1.2710410655	 2.0926454405	-0.1183716088	-0.302384
N	-0.8830626156	 3.3941822488	-0.7180471067	-0.364046
C	 0.5623669322	 3.4580539166	-0.5805389966	 0.18688
C	 1.1461347301	 3.4127035568	 0.7872188029	-0.36349
C	 1.151705661	 2.1543140239	-0.0646391992	 0.23923
O	 2.2332680807	 2.170682636	-1.0085178972	-0.311259
C	 1.6487320589	 3.3402810531	-1.6561906951	-0.134273
H	-2.0410867896	 1.5859485205	-0.7033178562	 0.142672
H	-1.6736312988	 2.2301164046	 0.893419046	 0.138394
H	-1.121941275	 3.3931559599	-1.703414233	 0.230904
H	 2.1216533851	 3.8433208813	 0.9870129881	 0.139849
H	 0.4418493036	 3.4532962543	 1.6098094533	 0.139702
H	 1.2479913525	 3.0805813412	-2.6436150269	 0.114525
H	 2.3675398541	 4.1610520861	-1.7478586525	 0.120539
