19
gdb 86278	1.93954	1.54181	1.17907	2.4013	76.56	-0.2628	0.0211	0.284	1161.4429	0.157844	-419.206012	-419.196244	-419.195299	-419.240307	35.796	
C	-0.4446680695	 1.2424207373	-1.3157034385	-0.427066
C	 0.2952019618	-0.0135067982	-0.9152571662	 0.16203
O	 1.6938250307	 0.0211779796	-1.2607760046	-0.306372
C	 2.0817256705	-0.5147794015	 0.0194679573	 0.162032
C	 3.2668825897	 0.2010167591	 0.6262227234	-0.427059
C	 0.6456309664	-0.2607862788	 0.5914126126	 0.022031
N	 0.5553198521	 0.9409301881	 1.4084831571	-0.537182
C	-0.0022648363	-1.4263410037	 1.2046862559	 0.223148
N	-0.5222969278	-2.3237898187	 1.7173050987	-0.342036
H	-0.0108129657	 2.1200967507	-0.8337787213	 0.144082
H	-0.376293786	 1.3657574925	-2.4008422082	 0.1377
H	-1.5054262865	 1.1678231757	-1.052201478	 0.120365
H	-0.1858721849	-0.9022765161	-1.3470648427	 0.086453
H	 2.2773686726	-1.5934274726	-0.0582717077	 0.086452
H	 3.0504482688	 1.261145077	 0.7679300067	 0.144083
H	 3.5399146706	-0.2478272962	 1.5875750877	 0.120363
H	 4.1249032187	 0.1028046671	-0.045765394	 0.137697
H	-0.4189528906	 1.1707873137	 1.5832566169	 0.246639
H	 0.9817175853	 0.7776570649	 2.316290605	 0.246641
