16
gdb 5074	3.2493	1.98654	1.24525	1.1408	67.68	-0.1629	0.0596	0.2225	937.8787	0.130251	-379.950642	-379.941762	-379.940818	-379.983576	32.045	
C	 0.0859747033	 1.529830193	 0.0043029763	-0.530972
C	 0.0416898264	 0.0332395118	 0.0014054818	 0.098971
C	 0.0107384913	-0.8077188884	-1.0890044688	 0.313535
O	-0.0166269406	-0.5722681459	-2.4283426948	-0.438682
N	 0.0246663401	-2.1005627888	-0.6731101427	-0.305334
C	 0.0435386615	-2.1303705647	 0.7204718608	-0.186612
C	 0.0624054361	-0.8277835309	 1.1524526255	 0.168595
N	 0.1853140027	-0.3531807381	 2.4771364606	-0.604584
H	 0.8282437874	 1.8986227823	 0.7216323246	 0.138271
H	 0.3688121228	 1.932227074	-0.9766716436	 0.09704
H	-0.875121677	 1.9928566663	 0.2689248635	 0.116293
H	-0.0613788718	 0.3792281584	-2.5628889968	 0.302665
H	-0.016574549	-2.893271453	-1.2872348233	 0.260812
H	 0.0606093254	-3.0628264748	 1.2588286938	 0.100393
H	 0.0695862894	-1.0975004173	 3.1542742872	 0.23378
H	-0.495543528	 0.368868286	 2.6857735758	 0.235828
