21
gdb 96121	2.14488	1.7552	1.20301	2.0658	77.57	-0.2468	0.0666	0.3134	1111.2281	0.182947	-424.216311	-424.207608	-424.206664	-424.249067	34.379	
C	-0.0787230508	 1.5445750474	-0.0278128573	-0.414195
C	 0.0438613902	 0.0168973451	-0.0064109366	-0.049981
C	 0.7159191715	-0.5171708274	-1.2805310754	-0.101441
O	 0.8751545308	-1.9190896729	-1.2317916848	-0.239826
C	 1.845526982	-2.3200936194	-0.2781456687	-0.103451
C	 1.6504358723	-1.6974263485	 1.1020000703	-0.103905
C	 2.2423018748	-0.3316846112	 1.4140850469	-0.359455
C	 0.7549877524	-0.5006232808	 1.2364328157	 0.424421
O	-0.0289121189	-0.4910323187	 2.4026636877	-0.477421
H	 0.9068235016	 2.0228057146	-0.0455714219	 0.117672
H	-0.6343039991	 1.8847479697	-0.9081407679	 0.116876
H	-0.6141458224	 1.9127505923	 0.8539673928	 0.106908
H	-0.9621901781	-0.4196006776	 0.0275137485	 0.091232
H	 0.0863480972	-0.3047312245	-2.1501393965	 0.108432
H	 1.6877190059	-0.0184834037	-1.4487047858	 0.081559
H	 1.7603305104	-3.408146352	-0.2141500243	 0.112805
H	 2.8544237444	-2.0868991963	-0.6590028353	 0.088255
H	 1.6107524462	-2.3926176545	 1.9333443881	 0.10195
H	 2.5982910158	-0.159469693	 2.4236338202	 0.110856
H	 2.8205181893	 0.1601566525	 0.636722624	 0.107996
H	-0.1011777956	 0.4215261089	 2.7029143704	 0.280712
