21
gdb 103830	3.27663	0.88071	0.82872	1.8906	75.2	-0.2579	0.0664	0.3243	1489.9029	0.178908	-461.342335	-461.331541	-461.330597	-461.378515	38.993	
C	-0.1485510293	 1.3595565297	-0.4538367915	-0.407866
C	 0.0380934324	 0.0261463957	 0.2679735971	 0.093586
O	 0.6507696364	 0.1830371759	 1.5446755016	-0.427101
C	-1.2849804081	-0.7016771327	 0.4255121969	-0.008227
O	-1.8881948192	-1.2436152557	-0.7557353804	-0.310234
C	-1.4715548897	-2.1546811489	 0.2949158484	 0.350695
C	-0.3544808191	-3.1094553369	-0.0571645231	-0.468838
C	-2.6666318646	-2.7909512129	 0.9838325886	-0.116845
O	-3.3207556556	-3.7121702761	 0.1276746215	-0.416567
H	 0.8102635165	 1.8751727244	-0.5538186892	 0.125705
H	-0.5737787892	 1.2003283307	-1.4489181644	 0.138772
H	-0.8344767792	 2.0107606204	 0.1034459865	 0.105935
H	 0.729606878	-0.5973921177	-0.3047112354	 0.094844
H	 0.1584898625	 0.8561725822	 2.0277011987	 0.279869
H	-1.9886394489	-0.1651806328	 1.0718031244	 0.073241
H	 0.3442094103	-2.6681898965	-0.768939099	 0.128816
H	 0.1975456943	-3.4004806123	 0.8426489087	 0.130244
H	-0.7809569414	-4.0119679101	-0.5037430913	 0.139356
H	-2.3427112646	-3.3612652449	 1.861124708	 0.113007
H	-3.3554082599	-2.0039899955	 1.324735171	 0.088822
H	-3.5734657815	-3.216298086	-0.6601122371	 0.292784
