18
gdb 30034	3.22679	1.63938	1.15471	1.4912	85.78	-0.1985	-0.0013	0.1972	1061.5303	0.150295	-364.859722	-364.852421	-364.851477	-364.891258	29.35	
C	-0.0892841987	 1.578498112	-0.0037942477	-0.381932
C	 0.0104894149	 0.0418196751	 0.0085763079	-0.205256
C	 0.850380404	-0.5234008543	-1.1324716579	-0.133493
C	 1.859928308	-1.2552076267	-0.6473312211	-0.03779
N	 1.8062936375	-1.2692287956	 0.7551756458	-0.001302
C	 2.5063528303	-1.7911210498	 1.8129945228	-0.140009
C	 1.8684386131	-1.3661990835	 2.9591861523	-0.140671
C	 0.7480845938	-0.5612436424	 2.578987792	-0.333633
C	 0.736216857	-0.5210515004	 1.2057003448	 0.369131
H	 0.9054547418	 2.030352635	 0.0414214572	 0.125696
H	-0.5882286022	 1.929286712	-0.9130030011	 0.112184
H	-0.6644078578	 1.9325269987	 0.8570701102	 0.122042
H	-1.0093667087	-0.3656014003	-0.0536377262	 0.104053
H	 0.6484157671	-0.3405560744	-2.1778203247	 0.106554
H	 2.6417151329	-1.7928502977	-1.163977345	 0.131248
H	 3.3776467157	-2.408523702	 1.6669866023	 0.11662
H	 2.1689612398	-1.6063650859	 3.967970546	 0.093466
H	 0.0470278215	-0.0831178898	 3.2458437722	 0.093093
