15
gdb 80692	3.4957	1.25794	1.21551	2.3983	68.67	-0.2275	-0.07	0.1575	1047.6629	0.112645	-453.937847	-453.929929	-453.928985	-453.970426	29.298	
O	-0.0251291459	 1.4550148178	-0.4481104417	-0.4201
C	-0.0718385388	 0.1060319323	-0.126041808	 0.087115
C	-1.4082491533	-0.5107989544	 0.187606152	-0.081427
N	-2.5474914032	 0.1403459151	-0.3785476357	-0.312553
C	-2.3632084315	 0.2371183502	-1.7290818433	 0.282617
C	-3.3073990903	 1.0111027625	-2.5649732992	 0.109036
O	-4.2033080721	 1.6737261204	-2.0975712248	-0.267811
N	-1.3604678	-0.4163041853	-2.2243901433	-0.302051
C	-0.6257450464	-0.9214209383	-1.1019519589	-0.090266
H	 0.383150494	 1.5438963201	-1.3169282853	 0.296922
H	 0.7556239527	-0.2632730023	 0.4782493819	 0.10227
H	-1.5671878666	-1.1271260758	 1.0645814535	 0.111527
H	-3.143618161	 0.7833492751	 0.1169901549	 0.271189
H	-3.1134629227	 0.9298003988	-3.6512353582	 0.109274
H	-0.1004503047	-1.8598461562	-1.2346634839	 0.104257
