17
gdb 35032	3.2769	1.44457	1.39804	0.8177	73.16	-0.2476	0.0429	0.2905	985.7723	0.137218	-421.786439	-421.779211	-421.778267	-421.817919	28.852	
C	-0.0386042531	-1.2083605564	-0.0943654581	-0.435259
C	-0.0007182663	-0.0086893859	-0.0269216318	 0.320769
C	 0.0186818691	 1.4365467045	 0.0544025755	-0.22669
C	-0.2801838363	 2.0692107004	 1.4425750599	 0.068899
C	 0.9231819274	 1.5800265178	 2.2561562364	-0.09219
O	 1.9998511862	 1.6174716349	 1.2925087465	-0.278007
C	 1.4221613514	 2.1013112723	 0.0804030878	 0.072695
C	 1.0255728313	 3.5662181247	 0.2976640998	-0.098477
O	-0.1109106069	 3.4641604497	 1.1858672256	-0.282506
H	-0.0635704874	-2.2680785712	-0.1571293867	 0.196029
H	-0.6316958814	 1.8827936741	-0.7033168803	 0.114101
H	-1.2629535793	 1.8977289495	 1.878179185	 0.09682
H	 1.1362651921	 2.2597276476	 3.0873365264	 0.112527
H	 0.8029018314	 0.5580743643	 2.6322325956	 0.116084
H	 2.0990497665	 1.8977267769	-0.7476715354	 0.096213
H	 1.8347069716	 4.1236775649	 0.7807291614	 0.115628
H	 0.7281831038	 4.0816245316	-0.6242089175	 0.103364
