24
gdb 113696	2.89272	0.93206	0.8763	1.9229	85.71	-0.2467	0.0666	0.3133	1488.861	0.215788	-405.523143	-405.512329	-405.511385	-405.558997	40.626	
C	 0.5547085218	 0.7073180835	 1.0402301841	-0.422304
C	-0.0020488466	-0.661514764	 0.6175681479	 0.249634
C	 0.2464462849	-1.6958759914	 1.731198158	-0.401904
C	-1.5207827469	-0.5166491809	 0.3788222501	-0.400367
C	 0.5884770928	-1.2122503264	-0.6847337314	-0.011985
N	 0.850767714	-0.3199679329	-1.8227132998	-0.363884
C	 1.959697163	-1.1246162669	-1.2686345361	-0.04303
C	 3.1631461096	-0.3523849864	-0.7813929086	-0.07948
O	 3.9670525041	 0.0484978427	-1.8836994201	-0.422635
H	 1.5753835813	 0.6340944213	 1.4253309991	 0.113699
H	 0.5480878929	 1.4084156318	 0.2018509242	 0.131548
H	-0.0625859475	 1.1255417866	 1.842418877	 0.104008
H	-0.217262265	-1.3743843772	 2.6699042898	 0.110949
H	-0.1759304851	-2.6728965225	 1.4703691527	 0.106889
H	 1.3176352353	-1.8313549513	 1.913901723	 0.113045
H	-1.7201787264	 0.2157698599	-0.4100122722	 0.121853
H	-1.971642368	-1.469186636	 0.0778951764	 0.103233
H	-2.0270538851	-0.1815190838	 1.2901985724	 0.108348
H	 0.099794836	-2.155804532	-0.9394639406	 0.075172
H	 0.5005621796	-0.7176249892	-2.6890669859	 0.231469
H	 2.2572966558	-1.997769929	-1.8508298808	 0.087341
H	 2.8629508347	 0.5120583826	-0.1819381457	 0.096343
H	 3.7991986517	-0.9937369015	-0.1614633123	 0.105785
H	 3.4095213031	 0.6138624729	-2.4303232812	 0.286273
