21
gdb 96139	2.53798	1.70681	1.28895	0.8404	77.51	-0.2383	0.0829	0.3212	1065.3078	0.184828	-424.217347	-424.209532	-424.208588	-424.249257	31.521	
C	 0.0547125876	 1.5536254725	-0.0105519348	-0.412112
C	-0.0113548256	 0.0211099826	 0.023663771	-0.003017
C	 0.6151897305	-0.5435710075	-1.269309854	-0.069299
O	 0.7669130541	-1.9557259475	-1.2890974596	-0.256036
C	 1.9258018045	-2.4364757263	-0.6321154059	-0.096508
C	 1.9537540423	-2.1028781011	 0.8555197956	 0.101924
C	 0.5562127911	-2.0597138589	 1.5015085785	-0.283109
C	 0.6820474021	-0.5378286936	 1.2753235788	 0.114738
O	 2.1162895181	-0.6731571574	 1.0630960888	-0.305791
H	 1.0947704224	 1.8936981797	 0.0422434455	 0.132125
H	-0.3840635116	 1.9537604096	-0.9307304946	 0.113187
H	-0.4860844031	 1.9916303735	 0.8340184715	 0.114665
H	-1.0636662569	-0.2919890247	 0.0677427237	 0.077143
H	-0.0330477256	-0.2981073642	-2.117230394	 0.101321
H	 1.5887168725	-0.0601861323	-1.434799024	 0.099834
H	 1.9199376482	-3.5237721165	-0.7707406668	 0.10494
H	 2.8367826922	-2.031220077	-1.1020489877	 0.099242
H	 2.7415139636	-2.6716336031	 1.362841516	 0.075476
H	-0.2469892878	-2.58218758	 0.9820439378	 0.115789
H	 0.5677582458	-2.3294417662	 2.5585478854	 0.104271
H	 0.4735706457	 0.0947809285	 2.145501279	 0.071221
