18
gdb 68908	2.72105	1.5215	1.18307	3.0728	73.38	-0.244	0.0246	0.2687	1080.5923	0.146657	-439.09378	-439.085281	-439.084336	-439.126518	32.995	
C	-0.1479304867	 1.4493037174	 0.0048264751	-0.467994
C	 0.0995160134	-0.0285517255	 0.0096243457	 0.373192
C	 1.4700571526	-0.6501281065	-0.1651040212	-0.408433
C	 0.7013879721	-0.814156707	 1.1362042518	 0.332522
O	 1.1262249546	-0.1454259658	 2.2811981592	-0.470725
C	-0.1525727798	-2.0599524066	 1.2809010485	-0.379073
C	-1.0963154753	-1.996215402	 0.0921117788	 0.390829
N	-1.8902715164	-2.9089164187	-0.2639903148	-0.535061
O	-0.9672475725	-0.7883521676	-0.5483656466	-0.268056
H	 0.6414927834	 1.9566082941	 0.5637848439	 0.136774
H	-0.166149816	 1.8432764964	-1.0158963984	 0.129825
H	-1.1069042254	 1.6766768737	 0.4800092416	 0.132687
H	 1.5766916075	-1.498166058	-0.8344130195	 0.123795
H	 2.3140440653	 0.031048116	-0.1365114381	 0.121679
H	 1.9364347129	-0.5635723287	 2.5922743991	 0.288631
H	 0.3980384646	-3.0040509635	 1.2834100952	 0.132617
H	-0.7252281488	-2.0024956975	 2.2124475638	 0.143799
H	-2.4178521853	-2.6208105602	-1.0900986441	 0.222993
