18
gdb 88323	3.08339	1.01859	0.9513	4.8743	75.55	-0.248	-0.021	0.227	1308.1581	0.148337	-435.278942	-435.269928	-435.268984	-435.313189	32.706	
C	 0.0776972048	 1.5470069779	-0.1578905937	-0.403714
C	-0.0339390978	 0.0615609471	 0.0803432234	 0.025846
N	 1.191553753	-0.7483711608	 0.0294993598	-0.366238
C	 0.4641152097	-0.6393896776	 1.3055866926	-0.085813
C	 1.1668739266	 0.0552744108	 2.4357632431	 0.373892
N	 0.6055280712	 0.1269802401	 3.5715327971	-0.51984
N	 2.433957526	 0.5473565607	 2.0713683429	-0.335955
C	 3.3142251682	 1.2208939474	 2.8749332435	 0.159838
O	 3.1220458438	 1.5372973227	 4.0286972498	-0.302554
H	 0.9749535785	 1.9642088514	 0.3034710204	 0.126872
H	 0.115191403	 1.7605866505	-1.2312018586	 0.124747
H	-0.7921216668	 2.0629324081	 0.2608013521	 0.134962
H	-0.9232997151	-0.3926824115	-0.3547069686	 0.098232
H	 1.0389031247	-1.6501504262	-0.4105522434	 0.243814
H	-0.1297906439	-1.4796929924	 1.6514128146	 0.114142
H	 1.2004598034	 0.6264793112	 4.2334674925	 0.251624
H	 2.7133087778	 0.3046465903	 1.126593943	 0.267763
H	 4.2538607331	 1.4559049103	 2.3387679594	 0.092381
