15
gdb 87085	4.7416	0.70127	0.67853	2.1826	87.6	-0.2338	-0.0281	0.2057	1627.3103	0.108907	-420.543635	-420.534313	-420.533369	-420.577754	34.663	
O	 0.0278794701	 1.3878948215	-0.0226785593	-0.427871
C	 0.0661151281	 0.0065693906	 0.0523226305	 0.130771
C	-0.4110180083	-0.7215541054	 1.279267116	-0.371637
C	-1.2580389403	-0.7482172408	 0.0023292782	 0.004723
O	-2.346514879	 0.142359633	-0.0519577582	-0.447779
C	-1.395509171	-1.9605249844	-0.7429685848	 0.489936
C	-1.5203346831	-2.9953185422	-1.3621054827	-0.268521
C	-1.6490912309	-4.1552574242	-2.0580878239	 0.295046
C	-1.7658792187	-5.1870602808	-2.6754952289	-0.575711
H	-0.9061018435	 1.6402010016	-0.0075533401	 0.299624
H	 0.8995381983	-0.4152361255	-0.4991778822	 0.124296
H	 0.0849819835	-1.6387948554	 1.5753262426	 0.131971
H	-0.8082000396	-0.1146472304	 2.0864392345	 0.124002
H	-3.0513879726	-0.1980018684	 0.5100079954	 0.297814
H	-1.8646532828	-6.0929402793	-3.220303757	 0.193334
