15
gdb 50301	3.31087	1.47443	1.11483	4.9418	67.45	-0.256	-0.0325	0.2235	1037.0523	0.114083	-453.959278	-453.951984	-453.95104	-453.991286	27.248	
N	-0.155345592	 1.2402570699	-0.3560853418	-0.535585
C	-0.0535187637	 0.0055575449	-0.1089324032	 0.418808
C	-1.2001512169	-0.8863395597	 0.2415428134	-0.042601
O	-1.3174822409	-2.0001721065	-0.667100012	-0.242394
C	-0.6633711839	-2.2107922463	 0.577540233	 0.029866
C	 0.8472282579	-2.1651920604	 0.4577173724	-0.213866
N	 1.1063886472	-0.8233701303	-0.0882864986	-0.135021
C	 2.3567883392	-0.4304898591	-0.4901639311	 0.162225
O	 2.6524468487	 0.6770482486	-0.8818937598	-0.311653
H	 0.7588933325	 1.6423656964	-0.5689240039	 0.256769
H	-2.1226787375	-0.4601172529	 0.6162889313	 0.129944
H	-1.1363001853	-2.8974339314	 1.27236069	 0.119567
H	 1.3152523859	-2.2883276224	 1.4418040442	 0.130888
H	 1.225611815	-2.9436568588	-0.2125172666	 0.142072
H	 3.0921826737	-1.2547746619	-0.4131779974	 0.09098
