16
gdb 39084	3.67743	1.77722	1.54917	0.8377	66.89	-0.2538	-0.0028	0.251	859.4395	0.127583	-437.845735	-437.839819	-437.838875	-437.8757	25.013	
C	-0.0678446326	 1.5860773931	 0.1579463064	-0.275402
C	 1.4369394969	 1.3795851477	-0.0252985841	 0.04365
O	 1.7933334006	 0.5754842427	 1.1344607871	-0.292356
C	 0.7032855046	-0.4007307192	 1.2369014551	-0.157446
C	-0.0396092736	 0.0134234053	-0.0164548156	 0.312999
N	-1.108312037	-0.6025920705	-0.7734699121	-0.348485
C	-0.7886557975	-0.3195947953	-1.9751281034	 0.084979
O	 0.394278975	 0.3304107203	-2.2388640622	-0.252721
C	 1.1392989373	 0.2248057905	-1.0069812563	 0.090986
H	-0.4016358803	 1.9914085265	 1.1138310254	 0.110287
H	-0.556626227	 2.079489955	-0.6807932585	 0.122663
H	 2.1817334981	 2.1620907266	-0.152687516	 0.089496
H	 1.1120626601	-1.4147905673	 1.197885571	 0.115325
H	 0.1592344154	-0.2565008222	 2.1754905988	 0.113868
H	-1.3809905657	-0.5363423968	-2.8568564537	 0.146076
H	 1.9262863956	-0.5250211364	-1.1228019417	 0.096081
