17
gdb 2482	4.88875	2.58298	2.39157	1.6594	62.96	-0.2425	0.0913	0.3338	656.0419	0.150447	-309.702591	-309.696621	-309.695677	-309.731993	24.007	
C	-0.0541867987	 1.5139120795	 0.0286604277	-0.410264
C	 0.0332093054	-0.009645064	 0.0305512079	 0.044167
C	 0.9825426374	-0.6063616092	-1.0661184652	-0.23588
C	 1.9758753075	-1.3063807979	-0.1171485705	 0.087673
C	 1.0648068777	-2.0513762968	 0.8835573602	-0.232659
C	 0.7981558621	-0.5772124813	 1.2527282153	 0.077528
O	 2.190735471	-0.2834446491	 0.9086645364	-0.29919
H	 0.9419239402	 1.9467092056	 0.1611726915	 0.131892
H	-0.4654141568	 1.8870899396	-0.9150901316	 0.110858
H	-0.6965048204	 1.8773171404	 0.838772787	 0.107356
H	-0.9708286311	-0.4433467567	-0.0307805715	 0.067213
H	 0.4834280181	-1.2990887841	-1.7492172968	 0.095581
H	 1.4744256	 0.1714130192	-1.6558301008	 0.105091
H	 2.8953580397	-1.7270956893	-0.5243233125	 0.076714
H	 0.2433394933	-2.6661831184	 0.5052051411	 0.090905
H	 1.6375604771	-2.5708090579	 1.6522385818	 0.109126
H	 0.5076196174	-0.2463247295	 2.25071396	 0.073888
