17
gdb 82852	3.12974	1.79369	1.76536	0.9743	64.87	-0.251	0.07	0.321	848.5227	0.139528	-458.958692	-458.952587	-458.951643	-458.988914	26.071	
O	 0.1158952418	 1.4254120521	 0.0704618344	-0.443308
C	 0.0028948277	 0.0321345336	 0.0154600145	 0.157349
C	-1.4077156586	-0.6426977984	-0.0305812217	-0.140244
C	-2.3347836501	 0.1287337588	-0.995357401	-0.247575
C	-1.7194557246	-0.3198110939	-2.3330311837	 0.169136
O	-0.3523719566	 0.1240208147	-2.3749739154	-0.294701
C	 0.2926241434	-0.6433499874	-1.3402561665	 0.011123
C	-0.8117091745	-1.7078793651	-1.0319509554	 0.067101
O	-1.6279754583	-1.720995057	-2.1887372902	-0.235944
H	-0.0264482226	 1.7385311329	-0.8327018125	 0.290352
H	 0.6128506898	-0.3900318129	 0.8206647475	 0.086601
H	-1.8713919517	-0.9597203912	 0.9020224078	 0.075672
H	-3.3717894763	-0.2091138021	-0.9269689132	 0.113158
H	-2.2994754104	 1.2090062383	-0.8411663746	 0.11357
H	-2.2177397847	-0.0470731424	-3.2617481248	 0.098205
H	 1.3054067804	-0.893586393	-1.6570485715	 0.083841
H	-0.5471784046	-2.7092813468	-0.7068937438	 0.095664
