20
gdb 9678	3.00106	1.39149	1.23134	0.8127	71.86	-0.2352	0.0719	0.3071	1111.8812	0.174173	-386.113928	-386.104332	-386.103388	-386.14804	34.86	
C	 0.1670482765	 1.3031111226	-0.1117085474	-0.393853
C	-0.0339001791	-0.1699436857	 0.2637217947	-0.225581
C	-1.4664872073	-0.6347209019	 0.0983667726	 0.358655
O	-2.3927333468	-0.0477376051	 0.9787173639	-0.471086
C	-1.9747973467	-1.0157628833	-1.2844693832	-0.388394
C	-1.7803196333	-2.0702746456	-0.2311706405	 0.080872
O	-0.7615231562	-2.9923637379	-0.4496354159	-0.233536
C	-0.3814645164	-3.6791117365	 0.7284712117	-0.238108
H	 1.2084214259	 1.6072622244	 0.0287998724	 0.115945
H	-0.098500253	 1.4864640665	-1.1585075866	 0.117048
H	-0.4495355221	 1.9587286682	 0.5134508609	 0.108234
H	 0.6132416304	-0.8077824833	-0.3460658709	 0.110853
H	 0.259386887	-0.3213342609	 1.3100402883	 0.100436
H	-2.5727159716	 0.8463300316	 0.6680729632	 0.282644
H	-2.9921576733	-0.7519636319	-1.5510563188	 0.111698
H	-1.2606400466	-1.0089710747	-2.1011755557	 0.121524
H	-2.6754487418	-2.4752806294	 0.2433831662	 0.092509
H	 0.4038081981	-4.3853621555	 0.4490523712	 0.125989
H	 0.0051518634	-2.9937609605	 1.4950885989	 0.114099
H	-1.2270564572	-4.2372924111	 1.1574128753	 0.110053
