19
gdb 63885	2.67848	1.59106	1.34124	2.8691	74.82	-0.2371	-0.0037	0.2334	1022.8542	0.159139	-423.034967	-423.026827	-423.025883	-423.067099	32.545	
C	-0.0859380885	 1.5323057918	 0.0077765086	-0.462044
C	 0.0344465595	 0.0102427977	 0.0244050378	 0.411642
O	-1.2555291166	-0.5921661521	-0.0219810347	-0.481755
C	 0.9966373758	-0.5663534483	-1.0886861519	-0.282361
C	 2.014195301	-1.3282648205	-0.2107506188	-0.144687
C	 1.0756112083	-2.0070034692	 0.8426779519	-0.254193
C	 0.7495512453	-0.5383161523	 1.2787518028	-0.158859
C	 2.2267002597	-0.2918509218	 0.9083387323	 0.432859
O	 3.1490618051	 0.3007846118	 1.3832449303	-0.331302
H	 0.8914755362	 2.0123272809	 0.115548665	 0.135471
H	-0.5227973713	 1.8745997234	-0.9384615858	 0.107392
H	-0.731394493	 1.8708701969	 0.823587935	 0.12823
H	-1.7064388173	-0.2659453677	-0.808579075	 0.275137
H	 0.4448429661	-1.2413297278	-1.748767548	 0.105349
H	 1.4630537143	 0.2159374414	-1.6943167004	 0.107422
H	 2.8379894811	-1.8473827645	-0.6964037552	 0.083656
H	 0.2316893417	-2.5746003351	 0.4508866023	 0.127183
H	 1.6176246153	-2.5700875286	 1.6037184495	 0.115318
H	 0.3288104175	-0.278169716	 2.2474117945	 0.085543
