17
gdb 129964	5.54931	0.97081	0.88483	3.1336	75.84	-0.2133	0.0294	0.2428	1314.7368	0.138781	-414.207786	-414.199638	-414.198694	-414.241156	30.625	
N	 0.0043706784	 1.3575241355	-0.0932271078	-0.600381
C	-0.0428726141	-0.0216206031	-0.0131618486	 0.404864
N	-1.1335943725	-0.762966953	-0.0712651631	-0.373177
C	-0.6556037162	-2.0324813593	 0.1380125044	 0.357026
N	 0.6523585373	-2.1143985878	 0.3108215052	-0.302152
N	 1.035647899	-0.8009342934	 0.2102513743	-0.246595
C	-1.5500832264	-3.2039926851	 0.1542778151	-0.09058
C	-1.0790016111	-4.5310717416	-0.4083067206	-0.258737
C	-1.2563504497	-4.3743815248	 1.0721751205	-0.258464
H	 0.7870573987	 1.729016044	-0.6141337169	 0.254092
H	-0.8727394411	 1.7295599928	-0.4314668906	 0.269116
H	 1.9949214327	-0.5438208319	 0.3667301108	 0.271084
H	-2.5893972989	-2.9401311976	 0.0012863141	 0.096051
H	-1.7977524667	-5.1275748323	-0.9594018463	 0.109354
H	-0.0665613789	-4.5568949923	-0.7943039397	 0.128942
H	-0.36324392	-4.2950373532	 1.6810067351	 0.129925
H	-2.0985863103	-4.8617426869	 1.5508737441	 0.109633
