19
gdb 38478	3.56631	1.67482	1.53956	1.2322	78.56	-0.2366	0.0846	0.3212	931.125	0.162226	-385.791066	-385.784818	-385.783874	-385.82117	27.72	
C	 0.0363809685	 1.5254957892	-0.1475170898	-0.328422
C	 1.3360185278	 0.8023432081	 0.0398052895	 0.097387
O	 1.8643867732	 0.6736535562	 1.3584272135	-0.307082
C	 0.8857795625	-0.0205637515	 2.0728414646	 0.398748
C	 0.8196860195	-1.167620491	 3.1166387354	-0.295259
C	-0.6458474373	-0.9467408407	 2.5588184701	-0.115036
C	-0.4115969123	 0.5652500322	 2.7464439797	-0.280261
C	 0.033899671	-0.8592104611	 1.1322363379	 0.013669
C	 0.0212920283	 0.0011543075	-0.1177846597	-0.159027
H	-0.3525423015	 2.136294001	 0.6538623481	 0.12664
H	-0.1303345475	 1.9494049524	-1.1333694469	 0.114453
H	 2.1230485607	 0.8393196586	-0.7036022785	 0.099488
H	 1.3144033172	-2.1037590039	 2.8478307468	 0.099899
H	 0.9684640936	-0.907466497	 4.1670806491	 0.097653
H	-1.5245519399	-1.5166039882	 2.8525465391	 0.083412
H	-0.301506567	 0.9147727921	 3.776050633	 0.090075
H	-1.0555674723	 1.2246953689	 2.1717981926	 0.100543
H	 0.4869406031	-1.8168838303	 0.8502038296	 0.070212
H	-0.1882167477	-0.4886241827	-1.0622127441	 0.09291
