16
gdb 77717	2.85728	1.74774	1.60651	2.0785	67.01	-0.2243	0.0046	0.2289	894.0543	0.125308	-437.829544	-437.8225	-437.821556	-437.860549	28.223	
O	-0.1958235107	 1.3649657092	-0.0986844614	-0.412273
C	-0.1393531841	-0.0208731327	 0.0032206095	 0.013109
C	-0.5054233395	-0.7178254276	 1.2856276087	 0.197456
C	-1.6417609991	-0.0768568927	 2.0968460669	-0.279818
C	-2.551288647	-0.0724857288	 0.8138018042	-0.276849
C	-1.4228601445	-0.7839777741	 0.0477536291	 0.204763
N	-1.4143790557	-2.1671553529	-0.3752954161	-0.302427
C	-0.6191122121	-2.7516788987	 0.4327225661	 0.080684
O	-0.0308350987	-2.0453195125	 1.4610402728	-0.245568
H	 0.5230473509	 1.7310818634	 0.4286502739	 0.293841
H	 0.6523881892	-0.5126009194	-0.5615655977	 0.107217
H	-2.0092504786	-0.7630344026	 2.8613134712	 0.123024
H	-1.4213333283	 0.88870523	 2.5588388068	 0.106472
H	-3.4360909035	-0.7013596196	 0.916696323	 0.120121
H	-2.8372178957	 0.9060308776	 0.4252043801	 0.122847
H	-0.3375769624	-3.7978023487	 0.3987792029	 0.147402
