18
gdb 22477	3.17779	0.68659	0.58953	1.2894	85.17	-0.2272	-0.0241	0.2031	1861.6273	0.144357	-439.008628	-438.997812	-438.996868	-439.046822	36.899	
C	-0.5809355356	 1.7557605902	-0.1695416245	-0.37471
C	-0.1464748488	 0.334849063	 0.2305128158	-0.277671
C	-1.254470773	-0.6762930725	 0.0216392214	 0.190697
N	-1.5268404329	-1.2572987512	-1.095926734	-0.168308
O	-0.6609283788	-0.8394901295	-2.1110856099	-0.394248
C	-2.0886521798	-1.0026071733	 1.1288573375	-0.027105
C	-2.746882101	-1.2199649803	 2.1160001437	 0.211978
C	-3.5753999709	-1.5164904297	 3.2761136004	-0.225616
O	-3.0110193309	-0.9143430124	 4.4335511014	-0.408886
H	 0.2348466544	 2.4647360076	 0.0001214805	 0.116272
H	-0.8524009433	 1.790122613	-1.2274028539	 0.136011
H	-1.4429642164	 2.0835274391	 0.4191943342	 0.127037
H	 0.7144925514	 0.0305305681	-0.3705325382	 0.129583
H	 0.1478443561	 0.3158380408	 1.2830942837	 0.116766
H	-0.9614202452	-1.3652451954	-2.8599729083	 0.310752
H	-4.5970330657	-1.1461613543	 3.0887656535	 0.122312
H	-3.6511525289	-2.6107248007	 3.3883580367	 0.123361
H	-3.5834615506	-1.1300152726	 5.17684729	 0.291775
