23
gdb 95071	2.65764	1.44166	1.14702	1.4246	84.22	-0.2573	0.0746	0.3318	1164.8556	0.209106	-388.293533	-388.285475	-388.284531	-388.325487	33.53	
O	-0.2196064416	 1.5013163814	 0.2131522225	-0.441759
C	 0.0167860913	 0.1058143028	 0.0255439189	 0.124236
C	 0.8986972376	-0.4538574044	 1.150098514	-0.211337
C	 1.4500944623	-1.8736568558	 0.9200421701	-0.222347
C	 0.4212937797	-2.954738678	 0.5553944376	 0.017042
C	-0.2722476388	-2.7536333613	-0.8247579195	-0.230697
C	-1.4542935752	-2.053409146	-0.08989563	-0.003781
C	-0.9767628073	-2.7641506917	 1.2117742478	-0.230933
C	-1.3814612587	-0.5218583946	-0.0598261401	-0.196484
H	 0.6337579742	 1.9461120167	 0.2226760273	 0.275713
H	 0.5380494461	-0.0491572685	-0.9338623201	 0.061303
H	 1.7550482366	 0.2226172581	 1.2786943371	 0.076358
H	 0.3365511452	-0.403197524	 2.0900849551	 0.10447
H	 2.212381075	-1.8424052251	 0.1292193978	 0.092866
H	 1.9764136207	-2.1787419267	 1.8330678698	 0.095081
H	 0.8808923305	-3.9373292463	 0.6980660482	 0.059954
H	 0.2671883642	-2.1905093251	-1.5919830193	 0.089824
H	-0.5808074345	-3.7101323224	-1.2559906797	 0.09153
H	-2.4533528606	-2.3434169027	-0.4274445028	 0.062969
H	-1.4865073103	-3.7218625768	 1.3492065851	 0.091585
H	-1.0360189577	-2.2063940505	 2.1508466332	 0.091285
H	-1.9593140616	-0.1479359778	 0.7953980934	 0.103355
H	-1.8636608769	-0.1149897712	-0.9562229164	 0.099767
