21
gdb 122582	3.30445	0.89346	0.85159	2.212	80.41	-0.2433	0.025	0.2683	1466.8699	0.182636	-424.224882	-424.215678	-424.214733	-424.260382	33.921	
O	-0.0780698554	 1.4339218904	-0.310540671	-0.423247
C	-0.0419259555	 0.0612941673	 0.0260393288	-0.057337
C	-1.4453146157	-0.5233161095	 0.084344526	-0.079449
O	-2.0056734492	-0.3416293405	-1.2038636764	-0.275322
C	-3.3980319058	-0.6242263331	-1.30217447	 0.133164
C	-4.2619801244	 0.5652128937	-0.7948809351	-0.274452
C	-4.6764099664	 1.2689834841	-2.0641053964	-0.056966
C	-4.3900238168	 0.5546615036	-3.1504118643	-0.056608
C	-3.7304356843	-0.7577169551	-2.8075153505	-0.273221
H	-0.6509973289	 1.4913069522	-1.0849089397	 0.288585
H	 0.5570126371	-0.5159300479	-0.6964631273	 0.091843
H	 0.438616989	-0.0230487742	 1.0063077643	 0.10581
H	-1.4196383778	-1.5928530269	 0.3510699916	 0.086436
H	-2.0309410883	 0.0072874561	 0.8496744059	 0.097234
H	-3.6102555193	-1.5497347848	-0.7506815346	 0.065046
H	-5.1365208391	 0.2169000851	-0.2285444318	 0.105141
H	-3.6878888578	 1.2070480299	-0.1170278985	 0.114653
H	-5.1659909586	 2.2364576445	-2.0596500692	 0.092604
H	-4.6127456733	 0.845990997	-4.1706849065	 0.092076
H	-2.8117437107	-0.9496101311	-3.3715495366	 0.11811
H	-4.4030925789	-1.6048540807	-2.9962257086	 0.105899
