15
gdb 98935	4.18311	0.91312	0.75306	3.0559	73.95	-0.2594	-0.0486	0.2108	1437.1496	0.110349	-453.934958	-453.925338	-453.924394	-453.970954	33.111	
C	-0.099669582	 1.4905182398	 0.0563064281	-0.224968
O	-0.0314901499	 0.0613337594	 0.0393776412	-0.197096
C	-1.1991519089	-0.5730518139	-0.0117560384	 0.515945
N	-2.3164857026	 0.0328325706	-0.044178336	-0.587841
N	-1.0386493949	-1.9699177293	-0.0249325486	-0.423722
C	 0.1158111165	-2.7482335986	 0.0066680165	 0.316697
O	 1.2516417618	-2.3454164355	 0.0537038781	-0.311897
C	-0.2119317041	-4.1706448676	-0.0247199671	 0.176003
C	-0.4469605394	-5.3495857215	-0.0493994757	-0.380667
H	 0.9368989819	 1.8246671156	 0.0981429704	 0.138162
H	-0.5922484732	 1.8633754634	-0.8450519247	 0.142219
H	-0.6560663327	 1.839293561	 0.9297486155	 0.142194
H	-3.1060982605	-0.6058776189	-0.0816075421	 0.215916
H	-1.9025089464	-2.4882810799	-0.0636121153	 0.263006
H	-0.6372661557	-6.3953266046	-0.0706005318	 0.216049
