15
gdb 98936	3.14928	0.95377	0.83569	3.8002	68.68	-0.2704	-0.0627	0.2077	1380.069	0.108534	-457.768004	-457.758141	-457.757197	-457.804834	32.971	
C	 0.7083559399	 1.0410945867	 0.4030570243	-0.242316
O	 0.0418380156	-0.0660719912	-0.2230983131	-0.23032
C	 0.699256661	-0.6213624911	-1.2554995699	 0.452907
O	 1.77871701	-0.2606805651	-1.6476636215	-0.345273
C	-0.1232560093	-1.743357688	-1.8672218013	-0.438674
C	 0.6892455008	-2.5750463829	-2.8521226992	 0.272892
O	 0.4363868755	-2.6041989056	-4.0341729132	-0.270631
C	 1.7625931382	-3.3625540159	-2.2749805937	 0.292957
C	 2.6317028905	-4.0356358313	-1.7854777854	-0.453614
H	 0.873070534	 1.8463889467	-0.316796956	 0.14624
H	 0.0451037985	 1.3706317602	 1.202335414	 0.137972
H	 1.6732570299	 0.7274169904	 0.8083738419	 0.145514
H	-0.5183622295	-2.3760333542	-1.0656504765	 0.151818
H	-0.9716412649	-1.3100110232	-2.4052870215	 0.160687
H	 3.4100183898	-4.6278792956	-1.3687641689	 0.219841
