25
gdb 121143	2.84893	0.89489	0.82369	0.9805	90.04	-0.2492	0.0782	0.3275	1589.2054	0.227042	-389.47867	-389.467938	-389.466994	-389.514456	39.772	
C	-0.1549449498	 1.3746116038	 0.0641779307	-0.22328
O	-0.1102710976	-0.0277791852	-0.0201347462	-0.233204
C	 0.6975189669	-0.4910545087	-1.0844693237	-0.086769
C	 0.6416500323	-2.0051533964	-1.0930242648	 0.00055
C	-0.6724968994	-2.7109068563	-1.5139658304	-0.228641
C	 0.1771554976	-3.7866862863	-2.2398771746	-0.255595
C	 1.4095400112	-2.8248958283	-2.1923909366	 0.316035
C	 1.5853301524	-2.0756305242	-3.5182615152	-0.437368
C	 2.7330543672	-3.4432172435	-1.7503159154	-0.450577
H	 0.8437723362	 1.8079883254	 0.2364812775	 0.100067
H	-0.5681640877	 1.8285281927	-0.8512481058	 0.100337
H	-0.8006097304	 1.6335847326	 0.9072650501	 0.124403
H	 0.3350618527	-0.0763852465	-2.0403331603	 0.079338
H	 1.7375333264	-0.1398901576	-0.9553565808	 0.079842
H	 0.9509835315	-2.3564977069	-0.1022881108	 0.073435
H	-1.3364023019	-3.0455327822	-0.7148040285	 0.100059
H	-1.2578226628	-2.1020965983	-2.2101989983	 0.096538
H	 0.3322138574	-4.6759069625	-1.6213046155	 0.09391
H	-0.1545656561	-4.1098700307	-3.2307725839	 0.089696
H	 0.6439776143	-1.6502279053	-3.8802670196	 0.11269
H	 2.3107432008	-1.2587712715	-3.4296469884	 0.11061
H	 1.9534796551	-2.7606731599	-4.2906091545	 0.109929
H	 3.1155632227	-4.1391364533	-2.5066299026	 0.109804
H	 3.5001413281	-2.6753204948	-1.5925523764	 0.109433
H	 2.6180042229	-3.9980927262	-0.8131959859	 0.108757
