21
gdb 87250	4.19901	0.73342	0.69476	3.0489	80.59	-0.2531	-0.026	0.2271	1682.559	0.178013	-424.215228	-424.204631	-424.203687	-424.251739	37.559	
C	-0.1387528225	 1.4063921289	-0.1857627782	-0.418774
C	 0.0174099566	-0.0572992224	 0.1597800466	-0.041455
C	 1.3403909154	-0.785063849	-0.0116795998	-0.352235
C	 0.7588461038	-0.5579804116	 1.3666301389	 0.436612
C	 1.4248257607	 0.3739621485	 2.3537363632	-0.461168
O	 0.1275958162	-1.6698414281	 1.9618786788	-0.294191
C	 0.9942446975	-2.647279495	 2.4880150941	-0.165132
C	 0.1720587269	-3.8893530561	 2.7855206832	 0.140352
O	 0.6004054732	-4.8497465154	 3.3679674652	-0.239084
H	 0.7723211958	 1.9767607883	 0.0170916719	 0.115877
H	-0.3648261847	 1.5252102893	-1.2508946099	 0.12254
H	-0.955091724	 1.8677568984	 0.3808483597	 0.122581
H	-0.8521146235	-0.6673328208	-0.069281849	 0.096603
H	 1.3173150995	-1.7913546816	-0.4155465497	 0.113722
H	 2.2101324733	-0.202610518	-0.3002840169	 0.110663
H	 1.8429961867	 1.2499227874	 1.8533939505	 0.12272
H	 0.7027413794	 0.7168899759	 3.1021518482	 0.127175
H	 2.2480824646	-0.1227332077	 2.8783335455	 0.120796
H	 1.7853417751	-2.9195864206	 1.7699552634	 0.122759
H	 1.4929982624	-2.3257618572	 3.4142691691	 0.125308
H	-0.8711594326	-3.8337312033	 2.4029937551	 0.094329
