19
gdb 41292	3.64111	1.69891	1.60908	1.8812	78.3	-0.2462	0.0691	0.3152	907.4081	0.162626	-385.802623	-385.796561	-385.795617	-385.832599	26.732	
C	-0.0393024285	 1.5943571219	 0.092214767	-0.239709
C	 1.4918096202	 1.4170990486	-0.0675377234	-0.048918
C	 1.8640411875	 0.8425675466	 1.3490848479	-0.330928
C	 1.116794178	-0.4503677679	 1.0746995373	 0.278688
C	 0.9078555736	-1.8970237372	 1.5089434477	-0.201912
O	 1.1566263263	-2.3174283798	 0.1311003087	-0.314146
C	 1.8325263162	-1.047702479	-0.1466734934	 0.119927
C	 1.1581305974	 0.0644751004	-0.9187744662	-0.086063
C	-0.0377796824	 0.065630562	 0.0732177782	-0.045476
H	-0.4019362958	 2.1358774804	 0.9723448871	 0.088744
H	-0.5144248075	 1.9944446947	-0.8086462535	 0.099359
H	 2.1262370728	 2.2027017906	-0.4764231915	 0.069401
H	 2.9337659353	 0.6855855841	 1.5110478681	 0.098715
H	 1.4759814267	 1.4872724433	 2.1428371642	 0.098225
H	 1.6737679435	-2.296002801	 2.1887340551	 0.100511
H	-0.0876526573	-2.1944880937	 1.8544738114	 0.106578
H	 2.9183035725	-1.1876625313	-0.194713344	 0.066564
H	 1.0728812691	 0.1810416965	-2.0006566857	 0.066203
H	-0.9224764675	-0.5578078994	-0.0319135752	 0.074237
