16
gdb 55673	2.29653	1.02594	0.81074	4.4024	67.38	-0.2559	-0.0419	0.214	1395.1061	0.120426	-475.073049	-475.063044	-475.062099	-475.110308	33.644	
N	-0.2512167278	 1.40791748	-0.1976963764	-0.52453
C	-0.0117183317	 0.079269571	-0.3733212905	 0.421877
O	 1.022871446	-0.3423629315	-0.8560114551	-0.351359
C	-1.144432783	-0.84179784	 0.0850229442	-0.376538
C	-0.7060582821	-2.3006457732	 0.1250056465	-0.165868
C	-0.2285890001	-2.7841051419	 1.4895077558	 0.138691
O	 0.036001118	-3.9310791989	 1.736543402	-0.24439
C	-1.7450542021	-3.269859694	-0.4321375311	 0.145079
O	-2.7309239881	-2.927314107	-1.030836642	-0.244861
H	 0.4137701592	 2.0633238832	-0.5752095611	 0.266837
H	-1.1498490144	 1.7516162258	 0.0936451896	 0.263694
H	-1.5223131374	-0.5094061369	 1.0597909293	 0.118721
H	-1.9804250581	-0.7497424996	-0.618383997	 0.162643
H	 0.1778309867	-2.3998688913	-0.5296490425	 0.178145
H	-0.1445287716	-1.9884646419	 2.2644574387	 0.090195
H	-1.5094731334	-4.3345571739	-0.2417311003	 0.121665
