16
gdb 35827	2.4932	1.74857	1.31293	4.1676	67.07	-0.2686	0.0082	0.2768	976.6834	0.126047	-437.86985	-437.862435	-437.86149	-437.902576	27.306	
N	-0.3562946749	-1.0965886393	 0.2729589604	-0.330865
C	-0.1992779307	 0.03715776	 0.113634806	 0.292734
C	-0.0045214434	 1.487066384	-0.1027904822	-0.056079
O	-0.6925577836	 2.2475966024	 0.8754316263	-0.241685
C	 0.1828102268	 2.4658498417	 1.9866706779	-0.111325
C	 1.5983921363	 2.5326017463	 1.3953282302	 0.109361
O	 2.4783463782	 1.4711542045	 1.8186438342	-0.286119
C	 2.5556231087	 0.942377277	 0.4757231759	-0.094843
C	 1.4820587396	 1.931821876	-0.0233860598	-0.11367
H	-0.4495353234	 1.7347562274	-1.0709383413	 0.136805
H	-0.1452874557	 3.3893962929	 2.4682422515	 0.121882
H	 0.1328924593	 1.637678051	 2.7056214686	 0.129033
H	 2.071120863	 3.5147166837	 1.4950292351	 0.093489
H	 3.5439206065	 1.1127955475	 0.033269775	 0.108748
H	 2.3132187219	-0.12373068	 0.4322419508	 0.139663
H	 1.7485939513	 2.557454785	-0.8732938585	 0.102873
