20
gdb 23443	3.566	1.11127	0.95912	0.9869	82.62	-0.2395	0.0074	0.2469	1272.6877	0.172318	-403.113539	-403.105328	-403.104384	-403.14704	31.934	
O	-0.0884376425	 1.3906087356	 0.4136279783	-0.394931
N	 0.0585012063	-0.0108762337	 0.3683914276	-0.238474
C	-1.0310279976	-0.5702610992	 0.0479607993	 0.416416
C	-2.4324450269	-0.1134340972	-0.308948524	-0.348987
C	-2.770906822	-1.6017561593	-0.6465128468	 0.002719
C	-2.826157229	-2.0055397807	-2.1332295745	-0.22278
C	-1.8478011658	-3.1905417299	-2.2434095816	-0.188979
C	-0.6677681325	-2.7913106799	-1.3325635551	-0.225848
C	-1.3409281831	-2.0423946495	-0.1561235901	-0.102448
H	 0.7969618387	 1.6775761131	 0.6610528525	 0.304588
H	-2.9779953667	 0.3034657724	 0.5435596143	 0.123104
H	-2.5003418588	 0.6017937998	-1.1344657725	 0.121683
H	-3.6079818576	-2.0140950273	-0.080275968	 0.069503
H	-3.8370524988	-2.252962333	-2.4694953176	 0.097282
H	-2.4722937781	-1.1791001283	-2.7622793522	 0.09883
H	-2.3238891398	-4.1004116265	-1.8567612655	 0.097758
H	-1.540265738	-3.3994743135	-3.2725699407	 0.095951
H	-0.0789348477	-3.6502320119	-1.000761147	 0.099959
H	 0.0141604822	-2.1197545697	-1.8641395305	 0.108904
H	-1.3228235524	-2.6221749113	 0.7707358341	 0.08575
