16
gdb 45028	2.43172	1.69704	1.12457	4.5053	70.04	-0.2429	-0.0259	0.217	1050.4386	0.125673	-437.934427	-437.926932	-437.925988	-437.966714	28.935	
O	 0.0673963989	-0.1002172338	 0.1147119903	-0.361194
C	 0.0158495632	 1.1050222882	-0.0127904579	 0.393127
C	-1.3099474399	 1.8447433645	-0.2069037595	-0.447673
C	-1.2283094724	 3.2064576741	-0.8831563428	 0.402218
O	-2.0434886771	 3.5617805453	-1.7037155497	-0.319977
C	-0.0572336477	 4.0504583133	-0.5180037384	-0.142983
C	 0.41223521	 4.1687101511	 0.9351030806	-0.314289
C	 1.1813586144	 3.3255387269	-0.0327970542	 0.02484
N	 1.1345423087	 1.8946047295	 0.0365741639	-0.31822
H	-1.9936443953	 1.2027506254	-0.7627624024	 0.161179
H	-1.7418029723	 1.9766176834	 0.7949507325	 0.155627
H	 0.0707205336	 4.9185908779	-1.152884966	 0.119562
H	 0.8152258919	 5.1301993094	 1.2316231757	 0.136128
H	-0.1628514519	 3.6600643907	 1.7005840001	 0.133034
H	 2.134628581	 3.6927518485	-0.3953312424	 0.122903
H	 1.9846022249	 1.4014973255	 0.26723444	 0.255717
