18
gdb 84260	2.93646	1.57116	1.10583	1.5633	80.25	-0.2237	-0.0006	0.2232	1108.288	0.149453	-398.131179	-398.123132	-398.122188	-398.164013	30.272	
C	-0.0579317752	 1.5425505388	-0.1261230306	-0.378819
C	 0.028856863	 0.0254938044	 0.0218138913	-0.074565
N	 0.7718619902	-0.588163638	-1.1208450828	-0.362429
C	 1.610666006	-1.3412677683	-0.533092112	 0.38637
C	 2.8802204704	-2.1768597099	-0.645443504	-0.363795
C	 2.9414276808	-2.0446021862	 0.9261535372	-0.173315
N	 1.6132661741	-1.3976961234	 0.8451925615	-0.06599
C	 0.7591024121	-0.4210764917	 1.3370605405	 0.304467
N	 0.665944461	-0.057053182	 2.5484404033	-0.538242
H	 0.9413143984	 1.985302686	-0.164037666	 0.126107
H	-0.5825450287	 1.7976702072	-1.0498302745	 0.134336
H	-0.6012092573	 1.9857347637	 0.7147802818	 0.113309
H	-0.9854230036	-0.395834408	 0.0406870545	 0.114503
H	 2.7306362206	-3.1960959736	-1.0057385786	 0.143243
H	 3.6962822181	-1.7095683676	-1.1976199817	 0.144114
H	 2.9462760027	-2.9764158254	 1.4945882872	 0.133316
H	 3.7265197343	-1.3783329342	 1.2937449017	 0.137019
H	-0.031753277	 0.6797120481	 2.6483050212	 0.22037
