18
gdb 24399	3.55547	1.5486	1.10777	2.1671	86.24	-0.1782	0.0094	0.1875	1075.2927	0.151864	-364.87199	-364.864968	-364.864024	-364.903123	28.793	
C	-0.0210382044	 1.4977440768	 0.0894294051	-0.256342
C	 1.384334025	 2.1301120616	-0.0444702265	-0.336033
C	 2.1598915635	 1.3795552977	-1.0792323113	 0.246968
C	 1.9693094416	 0.0373461747	-1.3536655943	 0.269886
C	 2.9686924913	-0.3488184069	-2.296371101	-0.296685
C	 3.7311952808	 0.764014985	-2.560834582	-0.080711
N	 3.2331064432	 1.8080676042	-1.8083046825	-0.340456
C	 0.9089881977	-0.6878352915	-0.6705171915	-0.153689
C	-0.0091264634	-0.0175171189	 0.0408239699	-0.09576
H	-0.4930311188	 1.850232435	 1.0122086257	 0.098879
H	-0.6536243677	 1.8652021857	-0.7345923719	 0.110561
H	 1.2922402265	 3.1955203929	-0.2855739333	 0.097117
H	 1.9065072293	 2.0744449682	 0.9241627113	 0.110407
H	 3.1023889604	-1.3254927114	-2.7368356922	 0.091236
H	 4.5677247366	 0.9110969421	-3.2244455371	 0.115586
H	 3.6025023755	 2.7431532649	-1.8036722011	 0.256123
H	 0.8765855223	-1.771119135	-0.7434639177	 0.080416
H	-0.8134544793	-0.5443993653	 0.5444997702	 0.082497
