15
gdb 26791	3.69167	1.08789	0.8447	5.7947	79.52	-0.2067	-0.0119	0.1947	1285.9662	0.112984	-416.867826	-416.85907	-416.858126	-416.901603	31.447	
C	 0.0288345301	 1.5362757074	-0.0237198955	-0.523318
C	 0.030071886	 0.0371797355	 0.014925746	 0.153857
C	 0.0235168041	-0.8135015598	-1.0804238688	 0.32417
O	-0.0016977766	-0.5815792602	-2.4100592735	-0.426834
N	 0.0391824249	-2.1025239269	-0.6617310942	-0.371981
C	 0.0570228759	-2.1233219485	 0.7295463157	 0.21442
C	 0.0528909938	-0.8067393388	 1.1540825174	-0.318697
C	 0.0711804567	-3.328265128	 1.4536796403	 0.200007
N	 0.0832248471	-4.3304040336	 2.03975575	-0.358184
H	 1.0403536784	 1.9606439153	-0.0097087789	 0.1373
H	-0.4737044391	 1.9220922193	-0.9196504698	 0.109857
H	-0.5075908692	 1.9485605093	 0.8356953843	 0.142426
H	 0.0208564233	 0.3694516887	-2.5581460648	 0.313294
H	 0.0302048385	-2.9071632376	-1.2655414256	 0.283325
H	 0.0609647261	-0.490254332	 2.1857713072	 0.120358
