17
gdb 104553	2.57709	1.2539	1.01178	2.8518	75.21	-0.2465	-0.0272	0.2194	1208.2628	0.131632	-421.784564	-421.775249	-421.774305	-421.819198	34.234	
C	-0.1036507467	 1.5358128212	-0.0366822018	-0.255895
O	-0.2041708368	 0.122841746	-0.0576400177	-0.269922
C	 0.5925874543	-0.5180446964	-1.0287166358	 0.226052
C	 2.1409664506	-0.540139294	-0.7135738474	-0.412834
C	 2.0584146354	-2.0730092851	-0.6808948763	 0.428207
O	 2.8786610506	-2.9404786636	-0.6233451212	-0.285756
C	 0.5310622076	-2.066022633	-0.8130821664	-0.406287
C	 0.2812120562	-0.0968036631	-2.392585173	 0.320625
C	 0.0305791181	 0.2458981926	-3.5174780353	-0.495259
H	 0.9250560929	 1.8677316441	 0.1661129165	 0.109174
H	-0.4352835217	 1.9788097128	-0.9838972249	 0.126701
H	-0.751944597	 1.8803544686	 0.77137324	 0.133506
H	 2.8180524254	-0.1114599255	-1.4546414036	 0.139999
H	 2.3571773542	-0.1163325742	 0.2722449502	 0.142101
H	 0.0220184201	-2.3028429468	 0.1259924652	 0.150324
H	 0.1103667495	-2.6658290746	-1.6215938316	 0.14402
H	-0.1942002927	 0.5446487411	-4.511919547	 0.205245
