17
gdb 29791	2.47834	1.53043	0.95772	2.0519	72.88	-0.1717	0.0507	0.2224	1183.9083	0.135479	-455.155935	-455.146294	-455.14535	-455.189882	35.206	
C	-0.05763397	 1.4692738253	 0.0155556926	-0.34457
N	 0.0120522484	 0.0263386097	-0.0036041443	-0.027369
C	-0.0434574114	-0.7638435862	-1.145734694	-0.219122
C	 0.037182634	-2.0741206155	-0.7453629961	 0.246015
O	 0.0363002561	-3.1788297476	-1.5461535729	-0.457646
C	 0.126582054	-2.0846203713	 0.6734921789	 0.049087
O	 0.1694270946	-3.2202139289	 1.4643692222	-0.463204
C	 0.092017257	-0.7744964662	 1.1074653282	 0.222801
N	 0.195985082	-0.2320223925	 2.4030292507	-0.61227
H	 0.4134076592	 1.8321399247	 0.9315205649	 0.153631
H	 0.4813687863	 1.8739828989	-0.8452164144	 0.13585
H	-1.091494186	 1.8375397641	-0.0191290789	 0.125074
H	-0.1402555015	-0.3264941573	-2.1243755949	 0.113731
H	-0.1045235891	-3.9364915373	-0.9661440924	 0.291898
H	 1.0805036105	-3.5327488615	 1.5070737459	 0.295498
H	 0.4898454469	-0.9618349734	 3.0430358617	 0.24641
H	-0.6950307308	 0.119350225	 2.7456366229	 0.244187
