19
gdb 72201	3.29833	1.8522	1.60387	1.2819	77.39	-0.2215	0.0839	0.3054	911.9284	0.161141	-385.849601	-385.842951	-385.842007	-385.880102	28.478	
C	-0.0093372224	 1.438374089	-0.0254004866	-0.478421
C	 0.0481053021	-0.0603887545	 0.0324648883	 0.452938
O	-0.1458094059	-0.658641399	-1.2327909728	-0.299301
C	 0.0166449386	-2.0554665819	-1.0538054557	 0.072365
C	-1.2423881359	-2.661884244	-0.3771688001	-0.249995
C	-0.5914944279	-2.3076891375	 0.9776462885	-0.046304
C	-0.4532568268	-0.7932015279	 1.2654782011	-0.15574
C	 1.0406521655	-0.8111339738	 0.857987675	-0.160273
C	 0.8170437671	-2.2299030163	 0.3107067853	-0.078077
H	 0.7298136709	 1.8212344312	-0.7358527748	 0.127996
H	-0.9994103401	 1.7761823499	-0.3470543472	 0.128202
H	 0.1980956702	 1.8689880624	 0.9578590886	 0.120513
H	 0.3853539545	-2.4891786555	-1.9850098982	 0.072945
H	-2.1986734985	-2.2073710182	-0.6477930283	 0.098667
H	-1.2923144717	-3.7463582367	-0.5183873376	 0.095076
H	-0.7736074349	-2.9183145457	 1.8629685209	 0.066144
H	-0.9377767138	-0.2588134747	 2.0759862225	 0.079298
H	 1.9235031434	-0.3961551636	 1.3276028444	 0.084793
H	 1.5669929655	-3.0117105531	 0.3954310168	 0.069174
