23
gdb 83822	2.70892	1.36884	1.0936	0.3031	90.59	-0.2303	0.0304	0.2607	1223.0536	0.208264	-351.156688	-351.148124	-351.14718	-351.18945	34.293	
C	-0.115949402	 1.5617544757	 0.275326881	-0.407772
C	-0.0279101299	 0.0823379609	-0.0334646768	-0.052225
C	 0.5955222329	-0.4814918545	-1.2951797662	-0.01106
C	 1.3238473595	 0.3544433057	-2.3273402412	-0.233246
C	 2.5447020913	-0.3837580706	-2.9001238763	-0.235382
C	 3.6725218136	-0.6708014653	-1.9379454443	-0.024929
C	 3.7172503024	-0.5581441395	-0.6082288511	-0.058917
C	 2.6154382008	-0.1134404394	 0.3354760997	-0.287304
C	 1.2538196412	-0.7280495299	 0.0417854276	-0.018536
H	 0.7557922147	 2.1248271007	-0.0659661305	 0.118276
H	-0.9951286466	 2.005002339	-0.2058263509	 0.11531
H	-0.2103048669	 1.7295239399	 1.3542454252	 0.114985
H	-0.9091855868	-0.460712311	 0.3011014372	 0.079104
H	 0.0784509271	-1.3348821856	-1.7294856814	 0.07286
H	 0.642014214	 0.6096217929	-3.14826289	 0.090227
H	 1.6537127541	 1.3076868566	-1.9031928954	 0.097873
H	 2.2161270545	-1.3332915164	-3.351266861	 0.10357
H	 2.9561321386	 0.1960360195	-3.7385948698	 0.096752
H	 4.5821207613	-1.016176063	-2.4291109153	 0.078316
H	 4.6639195119	-0.7992233563	-0.1278741633	 0.07878
H	 2.9049645496	-0.3726927244	 1.360275421	 0.097301
H	 2.5560001647	 0.9816241554	 0.3318455371	 0.109068
H	 1.1484511097	-1.7344519503	 0.4384393744	 0.076949
