19
gdb 113506	3.65464	0.99253	0.87789	3.8719	79.37	-0.236	0.0156	0.2515	1383.3046	0.158515	-419.180339	-419.171232	-419.170288	-419.214449	33.618	
C	-0.0533072282	 1.4852501643	-0.4620784331	-0.375453
C	-0.0523870443	 0.1809215594	 0.3447567448	-0.214789
C	-1.4072785663	-0.4818316831	 0.3513418271	-0.026427
O	-1.8050397447	-1.1588564049	-0.8579173352	-0.2817
C	-1.5868509047	-1.9335062395	 0.297335076	 0.35216
C	-0.5860860678	-3.1003900825	 0.4217820482	-0.250616
N	-1.7080074835	-3.8804201621	 0.9847946648	-0.355041
C	-2.6121049672	-2.8106132593	 0.9874711564	 0.313592
N	-3.7845983221	-2.5908286987	 1.4019462077	-0.549802
H	 0.9365222008	 1.9505638297	-0.4583078511	 0.11526
H	-0.3376459342	 1.2932556494	-1.5007355594	 0.136627
H	-0.7652183441	 2.2063705198	-0.0466598202	 0.120737
H	 0.6862965619	-0.5146168073	-0.0688173343	 0.103486
H	 0.2406906479	 0.3809618093	 1.3836659395	 0.104689
H	-2.2180525388	 0.0895892013	 0.8066930974	 0.114951
H	-0.2056345469	-3.4940783752	-0.5248462769	 0.125176
H	 0.2445043576	-2.9207814581	 1.1137732176	 0.113214
H	-1.6287485745	-4.5836474627	 1.7047827839	 0.242047
H	-4.1857599308	-3.4052787798	 1.8697397869	 0.211887
