19
gdb 71608	2.12764	1.99535	1.71753	2.4962	74.86	-0.2304	0.0749	0.3053	942.7348	0.159462	-422.990746	-422.982958	-422.982014	-423.022363	31.486	
C	 0.0465759965	 1.5128184074	-0.0891817865	-0.497489
C	-0.0047837347	 0.0152044684	 0.0381330921	 0.451886
O	 0.7362572999	-0.5947174807	-1.0130789263	-0.321341
C	 0.5692858969	-1.997125254	-0.7695430248	-0.113378
C	-0.2790826808	-1.9667021349	 0.489884666	-0.132741
C	 0.2326165636	-0.7782672868	 1.3678992193	-0.129825
C	-1.2206133149	-0.481326669	 1.8083600102	-0.32928
C	-1.3109289566	-0.793630049	 0.2949222818	 0.343523
O	-2.4019344364	-0.7524973709	-0.549938681	-0.478869
H	 1.0844806429	 1.8579141621	-0.0709948974	 0.127815
H	-0.3967967871	 1.8209380503	-1.0403999164	 0.138356
H	-0.4977549638	 2.0040685073	 0.7206015171	 0.121711
H	 0.0573391442	-2.4702501648	-1.6174152828	 0.103112
H	 1.5470275538	-2.476149566	-0.6340996942	 0.097886
H	-0.5886269267	-2.8990027129	 0.9635989646	 0.067394
H	 1.1294467052	-0.7717251836	 1.9831198862	 0.080136
H	-1.6727253924	-1.2159586299	 2.480409819	 0.08942
H	-1.4529868689	 0.5368694995	 2.1283691408	 0.09811
H	-3.0674174807	-1.3712057625	-0.2297446276	 0.283573
