13
gdb 132302	2.14044	1.81052	0.98106	5.6053	67.24	-0.2201	-0.0341	0.186	1081.6214	0.089457	-494.077948	-494.070368	-494.069424	-494.110201	28.483	
N	 0.0860646531	 1.3289966035	 0.1024416869	-0.56526
C	-0.0460018809	-0.0132934379	 0.0357916806	 0.521515
C	-1.2260474527	-0.7107784324	 0.0178736258	-0.43879
C	-1.0672443047	-2.1122917269	-0.0130612826	 0.353288
F	-2.1831095117	-2.8272042395	-0.0306974375	-0.060279
N	 0.0409841001	-2.7677056231	-0.0274505763	-0.388392
C	 1.2128573092	-2.0543209496	-0.0118936094	 0.432392
N	 2.401036601	-2.4825975369	-0.0217983721	-0.53466
O	 1.1321073299	-0.6315420407	 0.0161397978	-0.233376
H	 0.9994558946	 1.71990772	-0.0597067733	 0.283625
H	-0.7154702339	 1.9131648926	-0.0586767313	 0.279275
H	-2.1928211299	-0.233125724	 0.0337122537	 0.114041
H	 2.3731103657	-3.5001015152	-0.0438164222	 0.236622
