17
gdb 72879	2.95476	1.33192	1.08875	0.9107	69.33	-0.2489	-0.0322	0.2167	1112.6139	0.134479	-458.931235	-458.923004	-458.922059	-458.964711	30.608	
O	 0.6240082418	 1.3038017489	-0.2059887126	-0.467468
C	 0.1294417671	 0.0289967801	 0.0233377706	 0.371387
C	 0.3151497329	-0.9187221758	-1.1730134432	-0.11241
O	-1.0745972068	-1.3330148393	-1.1285975884	-0.284194
C	-1.3663757691	-0.4484932492	-0.0441945928	 0.020419
C	-1.1777129134	-1.1402260412	 1.3592595803	-0.103033
C	 0.2864883642	-0.6239889118	 1.4163439262	-0.338906
C	-2.1036884952	-0.5675077625	 2.3965181096	 0.13024
O	-1.8222347017	 0.3332627757	 3.1492605677	-0.247365
H	 0.5147720551	 1.8270473763	 0.5953966036	 0.290434
H	 0.5426035144	-0.3843211505	-2.1017985554	 0.120016
H	 1.0084139646	-1.7576371733	-1.0436045191	 0.105477
H	-2.2522439771	 0.1690176937	-0.2131459108	 0.090647
H	-1.3236067287	-2.2200626867	 1.2799240903	 0.102233
H	 1.0758770364	-1.3715789604	 1.520447806	 0.110039
H	 0.3885022866	 0.1206337282	 2.2120562343	 0.125941
H	-3.1262194912	-1.0068256721	 2.3931181436	 0.086544
