21
gdb 119014	3.60982	0.87854	0.84822	1.8105	74.35	-0.243	0.0582	0.3012	1443.5003	0.18164	-461.355519	-461.345637	-461.344693	-461.39075	35.972	
O	 0.0389581715	 1.4619570105	 0.4183749907	-0.416104
C	 0.0960023107	 0.0562982814	 0.2362584876	-0.095031
C	-1.3289501622	-0.4320155371	-0.0019342587	-0.220466
C	-1.4518629799	-1.9468738464	-0.1997365926	 0.33386
O	-1.0307933938	-2.6572495478	 0.9732025438	-0.479859
C	-2.8883080819	-2.4243866184	-0.4598308597	-0.247234
C	-2.6501067053	-3.7781001696	-1.1283759582	-0.074018
O	-1.4696212561	-3.6147108811	-1.9179713049	-0.266234
C	-0.7345685396	-2.4909797633	-1.4544936535	-0.09323
H	 0.9280896808	 1.7796856718	 0.6006405532	 0.286551
H	 0.7387276868	-0.2049856922	-0.6210007266	 0.088331
H	 0.5136074007	-0.4399936046	 1.126874136	 0.08175
H	-1.9390611315	-0.1386710356	 0.8589922779	 0.114639
H	-1.7319322572	 0.0872546716	-0.8786734907	 0.10538
H	-0.0691097156	-2.6718804829	 0.9942268258	 0.279436
H	-3.4578938907	-2.4910181965	 0.4692324237	 0.115253
H	-3.3955521553	-1.7344402777	-1.1413074407	 0.103416
H	-2.4934069607	-4.5600435884	-0.3734115612	 0.104119
H	-3.4641794316	-4.0886405424	-1.7905754293	 0.101692
H	-0.6907373141	-1.7294230982	-2.2466628021	 0.093807
H	 0.2980750849	-2.793130053	-1.2268116506	 0.083944
