18
gdb 105814	2.61292	1.46123	1.25375	1.424	71.52	-0.22	0.0418	0.2618	1073.1153	0.145605	-438.966858	-438.958268	-438.957323	-439.000225	32.39	
C	-0.1876027676	 1.5466164404	 0.0903702626	-0.303695
N	 0.1502691872	 0.1213644612	 0.1630033738	-0.115867
C	 1.3471049967	-0.5367228689	-0.2735899084	-0.17231
C	 2.6829260754	 0.1652792139	 0.1967012107	-0.003215
O	 2.3573790848	 1.3769617006	 0.8835474857	-0.23369
C	 2.2421733921	 0.1354976449	 1.5856543489	-0.045949
C	 0.8966633249	-0.5862362905	 1.1664383441	 0.274262
C	 0.2604093192	-1.6739725347	 1.9778838145	-0.173012
O	-0.4233131021	-1.1606120452	 3.1141762998	-0.41518
H	 0.4451657576	 2.0748420022	-0.6253237006	 0.130942
H	-1.231782324	 1.6361501212	-0.2330425223	 0.106113
H	-0.0769472042	 2.0371076514	 1.0601565106	 0.128462
H	 1.3070162811	-1.298109967	-1.0463353852	 0.098984
H	 3.6666448916	 0.0738024298	-0.2467486796	 0.112916
H	 2.7883981532	 0.0149363697	 2.5128804137	 0.115727
H	-0.406189285	-2.2588266676	 1.3282791583	 0.100381
H	 1.0257007105	-2.3504733119	 2.3748706977	 0.108453
H	-1.1241156114	-0.5870623495	 2.7857065656	 0.286678
