21
gdb 12097	3.28666	1.53774	1.46664	1.3034	78.64	-0.2176	0.086	0.3036	1008.6147	0.187985	-329.078862	-329.07016	-329.069216	-329.111731	33.315	
C	 0.1120600343	 1.4998972532	-0.459733805	-0.313761
N	 0.0637172651	 0.094041807	-0.0902078742	-0.085408
C	 1.2921842656	-0.6818491405	-0.1878261531	-0.261256
C	 0.7080175046	-0.3655413047	 1.1492969214	-0.072019
C	 1.3829087613	 0.5390150867	 2.1599683901	 0.373154
C	 2.7793733033	 1.0578846628	 1.8600212411	-0.476213
C	 0.4687781481	 1.4252536087	 2.9868023517	-0.289302
C	 1.098346896	 0.2101747724	 3.6121559434	-0.315752
H	 1.0563629254	 2.0117967884	-0.2229035633	 0.10274
H	-0.0531718815	 1.5806380184	-1.5392196009	 0.120302
H	-0.697840757	 2.0357049845	 0.0449372517	 0.121339
H	 1.2009582484	-1.6784598038	-0.6142573189	 0.108816
H	 2.204037928	-0.157596834	-0.4697956627	 0.103642
H	 0.1222277946	-1.153622841	 1.6209741596	 0.085716
H	 2.8113782127	 1.702933776	 0.9760861217	 0.12011
H	 3.1554675487	 1.6466519231	 2.7031610053	 0.11102
H	 3.4787684743	 0.231531855	 1.6924731812	 0.119788
H	 0.8357619519	 2.404382407	 3.2764833159	 0.1088
H	-0.5946901225	 1.3935073584	 2.776362805	 0.117235
H	 0.4603076587	-0.6403403923	 3.8285847144	 0.112633
H	 1.9002108502	 0.3554007147	 4.3281270953	 0.108417
