20
gdb 89749	2.29046	1.65294	1.17854	1.9128	79.66	-0.2247	0.0684	0.2931	1128.7338	0.169894	-403.088592	-403.079919	-403.078975	-403.121806	33.594	
C	-0.5170375536	 1.385354003	-0.0241619073	-0.40634
C	 0.142377371	 0.0218192478	-0.0199805611	 0.083371
O	 1.414877559	 0.0179156353	-0.7249052077	-0.344028
C	 2.0951221842	-0.5359072434	 0.4066163114	 0.433061
C	 3.0882564106	-1.6426937805	 0.2950505303	-0.332342
C	 3.5224799808	-0.2437242276	 0.7181715176	-0.342782
C	 0.8502078759	-0.4652370603	 1.2509617345	 0.17045
C	 0.63219013	-0.0607371495	 2.6536015485	-0.305997
N	 0.4313076075	-1.4620771871	 2.2200589108	-0.363031
H	 0.1425612977	 2.1360673263	 0.4195181668	 0.126518
H	-0.748926411	 1.6889689443	-1.0497743627	 0.130322
H	-1.4560759381	 1.3619369768	 0.540406668	 0.112302
H	-0.5292932233	-0.7372478517	-0.4479366618	 0.079866
H	 3.0504631601	-2.4265932317	 1.044126779	 0.128988
H	 3.3590531101	-1.9663513279	-0.7041125482	 0.121622
H	 4.0712993725	 0.3481841353	-0.0066695697	 0.123613
H	 3.8049258255	-0.0726214571	 1.7522682258	 0.114677
H	 1.4778501771	 0.093267179	 3.3186874114	 0.122574
H	-0.2381976517	 0.5501190066	 2.8815314694	 0.114721
H	-0.5605972444	-1.6676058076	 2.120717495	 0.232433
