17
gdb 96979	2.76287	1.49714	1.06355	5.3977	77.42	-0.2361	-0.052	0.1841	1132.8985	0.136525	-418.01613	-418.008006	-418.007062	-418.048983	30.482	
C	 0.0594659281	 1.4015964317	 0.0496653724	-0.339917
N	 0.0660604097	-0.0502004712	 0.0521278259	-0.277426
C	 0.5212603791	-0.6306630639	-0.9818199871	 0.253212
N	 1.0179599328	-0.0823814894	-2.1619018498	-0.346041
C	 1.6433962819	-1.0759614949	-3.0038735484	-0.01396
C	 2.8019433344	-1.8290458465	-2.4226926173	-0.300979
C	 1.388088531	-2.4178646971	-2.3677834744	-0.155453
C	 0.5956145659	-2.1490566111	-1.124347619	 0.36777
O	 0.0773510879	-2.9544897434	-0.3986910679	-0.30056
H	 1.0804748415	 1.8177456099	 0.0577193725	 0.108872
H	-0.4536300235	 1.8129425511	-0.8336785459	 0.117669
H	-0.449536687	 1.7683808217	 0.9437561042	 0.132123
H	 1.436441821	 0.8359564838	-2.1215465758	 0.249476
H	 1.5520801545	-0.9257434731	-4.0735154104	 0.114513
H	 3.4872508114	-2.3291266886	-3.0982216524	 0.13302
H	 3.2483326727	-1.4604508012	-1.5050177764	 0.134144
H	 1.1756895486	-3.3136908078	-2.9351189104	 0.123537
