23
gdb 120294	3.11629	0.89468	0.80967	1.3942	86.49	-0.2412	0.081	0.3222	1535.3834	0.205164	-388.261535	-388.251669	-388.250725	-388.296606	36.956	
C	-0.1305183508	 1.5556761037	 0.1038796403	-0.495694
C	-0.0273701367	 0.0580936329	 0.0356820035	 0.325433
C	-1.2463415431	-0.8819954894	 0.0238247383	-0.283438
C	-0.478923745	-1.8790191531	 0.9485930651	-0.226859
C	 0.72792046	-0.9331478194	 0.9397614656	-0.113421
C	 1.2017359272	-0.6542510913	-0.4691838508	-0.050287
C	 1.2566156486	-1.666633377	-1.5953555305	-0.215108
C	 2.499603639	-2.5468272108	-1.5189741712	-0.06289
O	 2.4742383721	-3.4380666882	-2.6246502415	-0.422719
H	 0.839906891	 2.0126167533	 0.3256534985	 0.114269
H	-0.481174039	 1.9754400377	-0.8475427256	 0.117839
H	-0.8350342767	 1.8729996493	 0.8819716141	 0.112565
H	-2.1092459055	-0.4388411502	 0.52802858	 0.097372
H	-1.5752718731	-1.2507279899	-0.9532598838	 0.094877
H	-0.9409340577	-1.9628694652	 1.934690647	 0.099688
H	-0.3129370717	-2.8903460875	 0.5626616827	 0.096378
H	 1.3585933895	-0.7241727357	 1.7973437896	 0.074545
H	 2.0632488107	 0.0143801992	-0.4664902186	 0.075149
H	 0.3779520838	-2.3184333822	-1.5939149242	 0.108373
H	 1.2566953935	-1.1507464374	-2.5637088764	 0.102018
H	 3.4041533682	-1.9162024108	-1.5371307991	 0.079671
H	 2.5057581643	-3.0938918391	-0.5624994237	 0.08864
H	 3.2525374512	-4.0004023888	-2.5752568795	 0.283599
