18
gdb 42528	3.26162	1.3057	1.09802	2.4234	79.59	-0.2277	-0.0212	0.2065	1150.8781	0.147075	-401.913537	-401.905302	-401.904357	-401.946485	31.573	
O	-0.0062524356	 0.1066275947	-0.4858920363	-0.331254
C	-0.0196624555	 1.2902928985	-0.2909826425	 0.269397
C	-1.0774753383	 2.3427477716	-0.0867982767	 0.242563
C	-2.4073080537	 2.4792748546	-0.7758979297	-0.3276
C	-2.3512509798	 2.2047013875	 0.7030316077	-0.295345
N	-0.0426920566	 3.3892996175	 0.1090996073	-0.452212
C	 1.0143704894	 2.3711951573	-0.1156348152	 0.242563
C	 2.3127119848	 2.2681284551	 0.6387384805	-0.295345
C	 2.3205028047	 2.5435710976	-0.8410710399	-0.3276
H	-2.693928129	 3.4762203303	-1.0955480177	 0.124091
H	-2.7025886823	 1.6804939588	-1.4481460498	 0.136632
H	-2.6078848285	 1.2119108203	 1.0571597012	 0.134445
H	-2.5838460391	 3.0187562012	 1.3804576215	 0.131055
H	-0.062353895	 4.0557367706	-0.659758207	 0.222388
H	 2.5416686744	 3.0884594986	 1.3098029043	 0.131055
H	 2.6059062008	 1.282814989	 0.9852861652	 0.134445
H	 2.6187539688	 1.7528627243	-1.5215014904	 0.136632
H	 2.570991707	 3.5478214825	-1.1681246424	 0.124091
