15
gdb 28211	4.94431	1.25917	1.02006	0.7872	69.36	-0.178	0.0213	0.1993	1120.1596	0.113013	-457.753848	-457.746318	-457.745374	-457.785949	27.793	
C	 0.0955302202	 1.4408105044	-0.0000528496	-0.486473
C	-0.0736187404	-0.0321301069	-0.0563218538	 0.356026
C	-1.1680541454	-0.8470138056	-0.2162411518	-0.432988
C	-0.6680528834	-2.1693181615	-0.0375397237	 0.232219
C	 0.6452216121	-2.0495142663	 0.1870749909	 0.325124
O	 1.3312862569	-3.2222616875	 0.1451364423	-0.282013
C	 0.2143327178	-4.1531411522	 0.2353463716	 0.007679
O	-0.9796818269	-3.5070024766	-0.2350666791	-0.281594
O	 1.0800338262	-0.7884964096	 0.1784196455	-0.227217
H	 0.8758062785	 1.7838836863	-0.688966543	 0.139066
H	-0.8434594546	 1.9236313962	-0.2813310996	 0.137165
H	 0.3672282346	 1.7902350403	 1.0039185212	 0.137249
H	-2.1752273705	-0.5112686105	-0.4031943165	 0.123201
H	 0.4310118086	-5.0228771331	-0.3851256024	 0.139326
H	 0.0867901464	-4.4212374074	 1.2950575081	 0.113229
