24
gdb 76922	2.41561	1.14619	0.99504	1.2932	91.06	-0.2079	0.082	0.2899	1381.8201	0.215138	-368.375082	-368.364482	-368.363538	-368.410652	39.479	
C	-1.6082231315	 1.1337333736	-0.4791608615	-0.312573
N	-0.7852142872	-0.0586246412	-0.3565846943	-0.143108
C	 0.2833361797	-0.3280763774	-1.3275891601	-0.048946
C	 0.5864592496	 0.5613686087	-2.4934404692	 0.010523
C	 1.5199753586	 0.0569464509	-3.5696982625	-0.275726
C	 0.0488639424	 0.1940271576	-3.8593050886	-0.268851
C	 0.612291491	 0.0098298708	 0.0981993424	 0.296465
C	 1.2686229712	 1.332273671	 0.4538559378	-0.456415
C	 0.9946438688	-1.1171425705	 1.0413819082	-0.433915
H	-1.0986412228	 2.0399807432	-0.8362670771	 0.095066
H	-2.4285043221	 0.9220434854	-1.1729061651	 0.122446
H	-2.0482258795	 1.3612625068	 0.4974882077	 0.118053
H	 0.3362216045	-1.384625295	-1.6023554617	 0.070415
H	 0.6470521274	 1.6236485269	-2.288437623	 0.080808
H	 2.2068474888	 0.761985827	-4.0242857227	 0.110965
H	 1.9233317966	-0.944246806	-3.4571787323	 0.113391
H	-0.5383983106	-0.7148938899	-3.9389129488	 0.11534
H	-0.2778388957	 0.9936067201	-4.5148325834	 0.11047
H	 1.0084459916	 2.1477568289	-0.2217233367	 0.117169
H	 0.9864639561	 1.6370761667	 1.4685223389	 0.116931
H	 2.3586295479	 1.2253249537	 0.4364722172	 0.120919
H	 2.075228782	-1.3004726832	 1.0201403376	 0.107797
H	 0.7174364206	-0.870560072	 2.0733334702	 0.110821
H	 0.4770749226	-2.0392408761	 0.7665946372	 0.121956
