13
gdb 130487	3.96286	1.73845	1.20836	0.9327	76.42	-0.2198	-0.0863	0.1335	924.8361	0.091761	-415.601376	-415.59541	-415.594466	-415.631585	23.957	
O	-0.0315105337	 1.2610988763	 0.009740565	-0.205772
C	 1.1257441049	 1.9608899984	 0.0016353446	 0.128517
N	 2.3267757703	 1.5061905252	-0.0129627947	-0.33625
C	 2.407187015	 0.1422191916	-0.021008132	 0.310788
C	 3.4472116356	-0.7310979609	-0.0358607137	-0.27965
C	 2.8816107444	-2.075405587	-0.0376436356	-0.061178
C	 1.5144962085	-2.0512305109	-0.0241416061	-0.235901
C	 1.1508423175	-0.6574819102	-0.0123790416	 0.358203
N	-0.0304692625	-0.1380823001	 0.0023292007	-0.185288
H	 0.907769027	 3.0238432702	 0.009600661	 0.153001
H	 4.4993704339	-0.4884298277	-0.0449899274	 0.115769
H	 3.4841749437	-2.9753532675	-0.0485952377	 0.117523
H	 0.8293727856	-2.8840228374	-0.0220773724	 0.120238
