19
gdb 66474	3.36051	1.5649	1.44125	1.2995	78.33	-0.2287	0.0779	0.3065	985.0054	0.159379	-385.81795	-385.810589	-385.809645	-385.849034	30.913	
C	-0.0307407273	 1.475846536	 0.0351187394	-0.509354
C	 0.0569883959	-0.0279734306	 0.0046827632	 0.351744
C	 1.1247440072	-0.8051163133	-0.8157604712	-0.292699
C	 0.8252444039	-1.9663474818	 0.1606798784	-0.131024
C	 0.369279254	-0.936650019	 1.2653903567	-0.098229
C	-1.0785925117	-1.507253991	 1.2894793698	-0.201818
C	-1.2444988519	-0.867957076	-0.0855807276	-0.159647
C	-0.6881778074	-2.2747087255	 0.039825805	 0.396912
O	-1.3067601935	-3.3267998326	-0.5997104251	-0.464697
H	 0.9380589976	 1.9260316304	 0.27810994	 0.111641
H	-0.3482760616	 1.8731398069	-0.936642878	 0.116508
H	-0.7570093597	 1.8133128295	 0.7834277329	 0.117429
H	 0.9481453256	-0.9661516824	-1.8843628686	 0.093751
H	 2.1266882271	-0.3891923686	-0.6628390606	 0.090647
H	 1.5183428379	-2.7861933188	 0.3511915876	 0.057219
H	 0.9820196304	-0.6359407176	 2.112359928	 0.06435
H	-1.8006191968	-1.6978465174	 2.0722522428	 0.086873
H	-2.157547248	-0.6678529557	-0.6321852582	 0.084941
H	-1.1613731815	-4.1234531622	-0.0777128246	 0.285453
