21
gdb 65638	3.35878	1.18289	1.09682	2.8737	82.56	-0.2422	-0.0163	0.2259	1199.8547	0.181972	-387.077524	-387.068722	-387.067778	-387.111328	33.561	
C	 0.0844043382	 1.5401286686	-0.0025936031	-0.461784
C	 0.0107472697	 0.0234511013	 0.0610691698	 0.218752
C	 0.9080188143	-0.8155205268	-0.9255097783	-0.294792
C	 1.4184967385	-1.6964562553	 0.2454847524	-0.002484
C	 2.7842562644	-1.2687299399	 0.8326836623	-0.223345
C	 2.0630168564	-0.2275626022	 1.7436034923	-0.246292
C	 0.6809540197	-0.7485870663	 1.2549927756	-0.056152
C	-1.4172246318	-0.4609834602	-0.0511494095	 0.136167
O	-2.3883118654	 0.2432856741	-0.1627444847	-0.266871
H	 1.1189621265	 1.89278977	 0.0172728724	 0.109321
H	-0.3812050896	 1.9058223113	-0.9226005794	 0.129509
H	-0.4539602762	 1.9960983435	 0.8338417994	 0.127229
H	 0.3576580285	-1.3447172376	-1.7085519633	 0.107531
H	 1.68513253	-0.2153673577	-1.4073459909	 0.104994
H	 1.2099809735	-2.7641007375	 0.167876412	 0.06739
H	 3.2707440979	-2.0624144154	 1.4054231822	 0.103171
H	 3.5090681104	-0.8745507321	 0.1137917681	 0.097159
H	 2.2298108781	-0.3797474718	 2.8122081688	 0.106908
H	 2.274515169	 0.8202932765	 1.5214343761	 0.105285
H	 0.0088003654	-1.1068123081	 2.0377485211	 0.068346
H	-1.5226936676	-1.5720866445	-0.0203477131	 0.069957
