16
gdb 27318	3.30039	1.38752	0.98384	6.7243	77.45	-0.1985	-0.0118	0.1867	1156.7642	0.125902	-434.138142	-434.129768	-434.128824	-434.171513	31.416	
C	-0.0262975002	 1.4974504369	 0.0191447723	-0.486179
C	 0.0058871084	-0.006695624	-0.0191038843	 0.388366
N	-0.075924325	-0.6337185214	-1.1559396661	-0.360346
C	-0.0734570971	-2.0208185618	-1.1874200167	 0.355351
O	-0.1170961094	-2.657720669	-2.2318968434	-0.392908
C	-0.0001276636	-2.7477972214	 0.1070766622	 0.182015
N	-0.0751265535	-4.117681951	 0.0023794454	-0.581287
C	 0.1014666267	-2.0300479242	 1.2514319282	-0.114099
N	 0.1055364418	-0.6447824889	 1.1733636851	-0.322727
H	 0.7257684971	 1.9021900565	 0.7048945903	 0.126655
H	 0.1596033004	 1.8774230165	-0.9845089601	 0.167798
H	-1.0084619677	 1.8561758571	 0.3481804835	 0.146119
H	 0.0767643141	-4.4126294534	-0.9554284808	 0.266953
H	 0.3886139977	-4.6729679037	 0.7039258649	 0.244368
H	 0.1781571848	-2.4551139585	 2.2439009649	 0.116234
H	 0.1749188357	-0.1057606596	 2.0210388944	 0.263687
