21
gdb 76498	2.85449	1.26762	1.12024	1.9139	82.75	-0.2433	0.0831	0.3263	1203.0518	0.181181	-387.038373	-387.029374	-387.02843	-387.071807	34.442	
C	-0.1832754201	 0.8465562703	-1.977357309	-0.409761
C	-0.0105561538	-0.2989517591	-1.0030316387	-0.079718
C	 1.3188181019	-0.6277011197	-0.3413693933	-0.099406
C	 2.5907316329	 0.1498768932	-0.6034153013	-0.411871
C	 0.1843680655	-0.0522041064	 0.4664978607	 0.341703
C	 0.1962869325	 1.2855656269	 1.2573865761	-0.347838
C	-0.5224967283	 0.534256607	 2.3941853933	 0.037145
O	-1.7420042189	 0.0058326464	 1.8639927478	-0.248184
C	-0.523099689	-0.722125965	 1.628895373	-0.073526
H	 0.3998178956	 1.7254615969	-1.6894433529	 0.116371
H	 0.1267654285	 0.5593745573	-2.9883927824	 0.115596
H	-1.2333923659	 1.1540669558	-2.0257660642	 0.124424
H	-0.6226926533	-1.1659800282	-1.2431411973	 0.082742
H	 1.4905878992	-1.6916445514	-0.1861426244	 0.079867
H	 2.4044801355	 1.2196123081	-0.7292750739	 0.119612
H	 3.2965582095	 0.0365085699	 0.2273662494	 0.116539
H	 3.0898758829	-0.2073264296	-1.5109300556	 0.118669
H	 1.2044567322	 1.6117142693	 1.5286642507	 0.106768
H	-0.3622946527	 2.1257756592	 0.8366856526	 0.109884
H	-0.478706306	 0.7149405071	 3.4618452207	 0.10228
H	-0.4921856682	-1.7574087379	 1.9505068187	 0.098703
