13
gdb 128925	7.27267	0.76715	0.73395	0.9648	64.15	-0.3343	-0.0657	0.2686	1423.4014	0.090036	-445.064522	-445.056782	-445.055838	-445.098766	25.855	
N	-0.0020158232	-1.1542323329	-0.0040780541	-0.280757
C	-0.0243068502	 0.0003846221	 0.0025288816	 0.26135
C	-0.0192141831	 1.4598925972	 0.0105387155	-0.34127
C	 1.4242346695	 2.0050075721	-0.00120656	-0.149625
N	 1.4258890182	 3.4589221605	 0.006691124	 0.159714
N	 1.3826622855	 4.2075970154	-1.0862953064	-0.116374
N	 1.3462436901	 5.43015248	-0.6562741773	-0.07479
N	 1.362347302	 5.4228157409	 0.6927559636	-0.074806
N	 1.4087217153	 4.1956678696	 1.1084823296	-0.11631
H	-0.5611246414	 1.8303390513	-0.8657034805	 0.184751
H	-0.543063976	 1.8205958647	 0.9017043337	 0.184701
H	 1.9734687819	 1.6755220432	 0.8811627956	 0.181722
H	 1.9553605815	 1.685006386	-0.8980417052	 0.181695
