20
gdb 117106	3.72365	0.84715	0.73336	1.2169	82.93	-0.262	0.0295	0.2915	1591.2605	0.168062	-403.131537	-403.120943	-403.119999	-403.167753	37.799	
C	-0.0680716291	 1.4832639041	 0.3161913508	-0.390782
C	 0.0216482402	-0.0012657303	 0.0172696694	-0.030002
O	 0.6709091295	-0.6295132605	 1.134954964	-0.25217
C	 0.8419633498	-1.9637561825	 1.0619897309	 0.418311
N	 0.4640237003	-2.6379406247	 0.0594667992	-0.538056
C	 1.5218388956	-2.4478897709	 2.3476330557	-0.265122
C	 0.5967372557	-2.2311765312	 3.5701559409	-0.388708
C	 1.9499037421	-3.8382739426	 2.2416341983	 0.319924
C	 2.2851701407	-4.9902453445	 2.1679591226	-0.448323
H	 0.9271926878	 1.9159915738	 0.4526155389	 0.126731
H	-0.5573606115	 2.0000487658	-0.5147669793	 0.121577
H	-0.6494160615	 1.6655763766	 1.2247091871	 0.125577
H	-0.9651531958	-0.4546524351	-0.122375637	 0.120378
H	 0.6001607336	-0.2053508926	-0.8896238707	 0.121315
H	 0.6913240943	-3.6219598583	 0.1942529909	 0.231143
H	 2.4081272597	-1.8145767067	 2.4843091701	 0.128938
H	-0.3085783352	-2.8364738272	 3.474335309	 0.132919
H	 1.1109309844	-2.5232861011	 4.4886310589	 0.128539
H	 0.3139468675	-1.1792043435	 3.6364594432	 0.136294
H	 2.5946680121	-6.0041830086	 2.1029644374	 0.201515
