16
gdb 23380	6.38777	0.95356	0.9215	2.2455	74.1	-0.2306	0.0314	0.262	1242.2674	0.12362	-437.752028	-437.744363	-437.743418	-437.784104	29.732	
O	-0.1178763868	 1.4050258746	-0.0113224329	-0.407184
N	 0.0789775744	-0.0011476522	-0.0054433247	-0.319329
C	-1.0271356197	-0.6073137982	 0.0092060218	 0.48408
C	-2.5204279071	-0.398188758	 0.0270932326	-0.174511
C	-2.7085660697	-1.660621425	-0.9054436823	-0.048635
C	-3.726487384	-2.2833477159	 0.0519801842	 0.093834
O	-3.7965183067	-3.6844825135	-0.0214329246	-0.437233
C	-2.6803595222	-1.6428714771	 0.9885545867	-0.080503
C	-1.4867120189	-2.0363052926	 0.0269485649	-0.145534
H	 0.788998597	 1.7277004711	-0.0260690116	 0.303276
H	-3.1139858976	 0.511449449	 0.0257840981	 0.096574
H	-2.693333667	-1.650139674	-1.9948891134	 0.091713
H	-4.7244759534	-1.8221512831	 0.0622376523	 0.070819
H	-4.3896772993	-3.9989014839	 0.6678162047	 0.286948
H	-2.6287262286	-1.6056599721	 2.0772204633	 0.086662
H	-0.9231497604	-2.9638264989	 0.0258206009	 0.099022
