19
gdb 114941	2.60689	1.17249	0.88112	2.8264	78.78	-0.2298	-0.0667	0.1631	1341.3701	0.159591	-419.237359	-419.228359	-419.227415	-419.271619	32.768	
C	-0.453089906	 1.4018009549	-0.0452331099	-0.393821
C	-0.094852205	-0.0853525631	-0.113264535	-0.178235
C	 0.8197745453	-0.4560521181	-1.2893080246	 0.018849
C	 1.1362202125	-1.9834508482	-1.3638023882	-0.189905
N	 0.26872619	-2.5407270629	-2.4167399876	-0.284586
C	-0.2147519253	-1.5201561099	-3.0287318406	 0.271866
N	 0.1845786843	-0.2732145463	-2.6055598248	-0.34369
C	-1.1691458449	-1.6605505527	-4.1572949401	 0.111121
O	-1.6973851589	-0.7130285723	-4.6888440501	-0.264879
H	 0.4464884113	 2.023089131	 0.0269269611	 0.120774
H	-1.0127612883	 1.7289330855	-0.9285980129	 0.115359
H	-1.0774198115	 1.6158720287	 0.8270482121	 0.123585
H	 0.4192480965	-0.3790244669	 0.8108765119	 0.103825
H	-1.0069297304	-0.6934481873	-0.1686835707	 0.108137
H	 1.7378480407	 0.1393042931	-1.2329104835	 0.083866
H	 2.1825153925	-2.1645986195	-1.6412577324	 0.119915
H	 0.9612453136	-2.4950851634	-0.4117388142	 0.114881
H	-0.4212461184	 0.511449797	-2.7956375942	 0.25341
H	-1.3647180281	-2.7093692796	-4.4502144962	 0.109527
