22
gdb 114394	3.96376	0.9664	0.92576	2.1344	83.57	-0.22	0.0836	0.3036	1402.5394	0.192339	-404.29433	-404.28466	-404.283716	-404.328395	36.477	
C	 0.3190596615	 1.2653918959	 0.2344827232	-0.239534
O	-0.1353709077	-0.01269682	-0.1494028899	-0.246925
C	 0.5975166424	-0.5627648493	-1.2157236292	 0.121843
C	 1.938723186	-1.2323693665	-0.8066706482	-0.208366
N	 1.3993919607	-2.6169455597	-1.0569728314	-0.175024
C	 0.0981511049	-1.9676810212	-1.5247357846	-0.112662
C	 0.962390147	-2.7060968103	-2.4748294819	 0.32905
C	 1.7202369406	-2.0528789149	-3.6149863096	-0.469796
C	 0.5109498165	-4.1199427705	-2.7962432478	-0.441909
H	 1.3558625922	 1.244744142	 0.6030809888	 0.108054
H	 0.2657005914	 1.9813873283	-0.6010113101	 0.104534
H	-0.3314368933	 1.6119403158	 1.0407367404	 0.1301
H	 0.6271894217	 0.1508501246	-2.054726946	 0.062158
H	 2.846409894	-0.9831268444	-1.3645241583	 0.097314
H	 2.1269111344	-1.115989776	 0.2629705044	 0.11715
H	-0.8747818102	-2.3280404204	-1.2034572075	 0.095146
H	 1.9697624968	-1.0051656916	-3.4416539225	 0.122168
H	 2.653472546	-2.5945955401	-3.8075359088	 0.123865
H	 1.1194840043	-2.0983371417	-4.529542591	 0.122933
H	-0.190954947	-4.1239928399	-3.6372264039	 0.111786
H	 1.3704755797	-4.7425595937	-3.0669548402	 0.118778
H	 0.0250129782	-4.5757344461	-1.9305164258	 0.129336
