16
gdb 14475	2.97031	2.31507	1.95918	0.9698	63.91	-0.2257	0.0653	0.291	774.832	0.129504	-383.671161	-383.6641	-383.663156	-383.701916	27.881	
C	 0.1078936166	 1.5816719202	 0.0586814713	-0.505696
C	-0.0685713736	 0.1000775834	-0.0447933674	 0.334641
C	 0.3423629554	-0.7478372972	-1.2820990289	-0.257075
C	-0.6013267685	-1.8108773673	-0.7291974195	-0.159528
C	-0.466882478	-1.6631557415	 0.8197492887	-0.004653
O	 0.5027894148	-0.6541823168	 1.0688900518	-0.320054
C	-1.403019182	-0.7966243948	 0.0506401075	 0.268792
O	-2.7482107077	-0.5498453142	 0.0345216692	-0.445482
H	 1.1731780103	 1.8379533378	 0.045963149	 0.134891
H	-0.3763570678	 2.0845800814	-0.7835128065	 0.128059
H	-0.3219831584	 1.9643267005	 0.9892149133	 0.124518
H	-0.0383275963	-0.3185763695	-2.2125756307	 0.104604
H	 1.4095121083	-0.9754547205	-1.3674185161	 0.098255
H	-0.9482797719	-2.7309765094	-1.1812049829	 0.094878
H	-0.5948359476	-2.4726972704	 1.5257397162	 0.109443
H	-3.0040247535	-0.1890512516	 0.8916782751	 0.294408
