21
gdb 118369	3.06017	0.78807	0.6615	0.884	90.71	-0.2558	0.049	0.3048	1742.7079	0.178728	-349.895733	-349.884799	-349.883855	-349.932196	39.529	
C	-0.048170648	 1.6086027924	-0.0169175585	-0.381161
C	 0.0098563238	 0.0790503847	 0.017975516	-0.180967
C	 0.6963878798	-0.5145737347	-1.2152977457	-0.168845
C	 0.7640763661	-2.0588870185	-1.2159909069	-0.165448
C	 1.3480495083	-2.576003152	-2.5628018223	-0.369433
C	 1.2868974939	-4.0232901202	-2.7121699993	 0.305143
C	 1.2146255623	-5.2168224759	-2.8309413753	-0.435614
C	 1.5361708582	-2.5652915639	-0.0835141548	 0.362387
C	 2.1963655012	-2.9590468617	 0.8408295537	-0.48747
H	 0.9572595316	 2.0418909317	-0.0600685569	 0.115647
H	-0.5999647505	 1.9674479722	-0.893127071	 0.112586
H	-0.5436458257	 2.0070057004	 0.8737276735	 0.113932
H	 0.5394762412	-0.2526699768	 0.9179204036	 0.115596
H	-1.0081187171	-0.3257619886	 0.0938867909	 0.094796
H	 0.1598865886	-0.19863729	-2.1196901442	 0.092983
H	 1.715721111	-0.1160949992	-1.2994465278	 0.103273
H	-0.2603896237	-2.4466959341	-1.1355613966	 0.114998
H	 0.7916348004	-2.1007124618	-3.380272134	 0.128683
H	 2.3866962897	-2.2349639353	-2.6505321036	 0.137607
H	 1.1621294583	-6.2720453581	-2.9348533107	 0.194441
H	 2.768075231	-3.3234394705	 1.6580475801	 0.196867
