13
gdb 20497	9.4139	0.99803	0.90748	5.2223	73.99	-0.2382	-0.0283	0.2099	1213.4727	0.096526	-357.625129	-357.617688	-357.616744	-357.658722	25.36	
C	-0.0620321557	 1.4847117218	 0.0106508141	-0.507673
C	-0.0046206024	 0.032482491	 0.0027707784	 0.134528
C	 0.0507316065	-1.1728342568	-0.0038077454	 0.01712
C	 0.111275804	-2.5778032064	-0.0114459519	 0.251027
C	 1.1568993866	-3.4854664977	-0.0225471001	-0.221175
N	 0.6522200231	-4.7454895449	-0.0259694392	-0.1717
N	-0.6505415295	-4.6868912301	-0.0176891253	-0.1099
N	-0.9864222167	-3.3876732881	-0.0089157871	-0.282299
H	 0.9452474488	 1.9145039875	 0.0034319654	 0.161478
H	-0.5943125068	 1.8658356689	-0.8678396841	 0.158125
H	-0.5778221576	 1.8569074516	 0.9027047836	 0.158132
H	 2.2163535576	-3.290539786	-0.0280285796	 0.128413
H	-1.957489328	-3.1176274007	-0.0015717088	 0.283925
