15
gdb 98064	3.19187	1.04088	0.93322	1.3054	63.83	-0.2505	-0.0988	0.1518	1301.3287	0.107835	-494.945689	-494.935366	-494.934422	-494.98361	33.146	
C	 0.4467272675	 1.4070161437	 0.0152347331	-0.248091
O	 0.4007612518	-0.0153505778	-0.2128015507	-0.225706
C	 0.2310728782	-0.3845512147	-1.4801067682	 0.393014
O	 0.0965763758	 0.3425120677	-2.4283460888	-0.35463
C	 0.1681540865	-1.9100238574	-1.6314228373	 0.216542
O	-0.8092445945	-2.5515289072	-1.3436298965	-0.264256
C	 1.4387951979	-2.544575331	-2.2317604543	 0.304901
C	 1.3292869729	-3.9800354168	-2.6670398249	-0.485971
O	 2.4391254732	-1.8696526324	-2.283442523	-0.261582
H	 1.2521458711	 1.8568288786	-0.5691719974	 0.154682
H	-0.5032075894	 1.8657148554	-0.2678544666	 0.150642
H	 0.6291378245	 1.5260609981	 1.0821944438	 0.144852
H	 0.9133874782	-4.5884751679	-1.8585837616	 0.163946
H	 0.6245167771	-4.0556958458	-3.5030548414	 0.16196
H	 2.3080410692	-4.3519364427	-2.9699291861	 0.149697
