17
gdb 53461	4.83483	0.4854	0.46943	0.8031	90.89	-0.2443	0.0368	0.2811	2331.2751	0.131766	-347.463645	-347.452713	-347.451769	-347.503934	36.486	
C	 0.0297091446	 1.4249313948	 0.5281565211	-0.495877
C	 0.0044771015	 0.0312586045	 0.108139163	 0.064114
C	-0.0191849006	-1.1205064586	-0.2373385389	 0.08509
C	-0.0408045858	-2.522821839	-0.6601653148	-0.496393
C	-1.3643243298	-3.1451737649	-0.5713585587	 0.092368
C	-2.4461707192	-3.6633494969	-0.498468225	 0.087004
C	-3.7689851684	-4.2851986483	-0.4116371175	-0.490388
C	-3.789923822	-5.5135873602	 0.3854401574	 0.318228
C	-3.8198087519	-6.5222867456	 1.035654488	-0.445791
H	 0.7179444826	 1.5761746806	 1.3670210683	 0.14804
H	 0.3514518532	 2.0817911674	-0.2874904603	 0.147548
H	-0.9628728445	 1.758599724	 0.8501229602	 0.1501
H	 0.3284388625	-2.6010311234	-1.6924716576	 0.155482
H	 0.6688361235	-3.1011445086	-0.0518214797	 0.158572
H	-4.4826240455	-3.5662609069	 0.0142212995	 0.16226
H	-4.1402586884	-4.504555643	-1.422341182	 0.159858
H	-3.8410474617	-7.4134000359	 1.6124918873	 0.199786
