18
gdb 32806	3.28251	1.07272	0.82093	0.3995	76.51	-0.2032	0.0084	0.2115	1400.5861	0.146789	-439.121943	-439.112687	-439.111743	-439.157183	32.328	
C	 0.0005630716	 1.4956845262	-0.0205864405	-0.389705
C	-0.0002085997	-0.0212638542	-0.040199006	-0.042671
O	 0.6853563696	-0.4641612203	 1.1377513667	-0.284175
C	 0.7948382332	-1.7932000556	 1.3073132533	 0.284515
C	 1.4110645283	-2.4181145128	 2.3492435316	 0.212384
C	 2.1219657613	-1.961256933	 3.565259909	-0.501925
O	 1.280657722	-3.7725194542	 2.1115606916	-0.174604
C	 0.601940214	-3.8621430959	 0.9556979146	 0.065937
N	 0.2822849928	-2.7244515321	 0.4231857179	-0.343252
H	 1.0231766947	 1.8836369967	-0.0194009885	 0.127524
H	-0.5148508937	 1.8801585581	-0.9056367226	 0.119644
H	-0.5111566423	 1.8728854529	 0.8694223304	 0.127578
H	-1.0199566843	-0.4233962742	-0.0440475067	 0.115131
H	 0.5078850045	-0.4127040534	-0.9292108475	 0.114846
H	 1.6366801402	-2.3137023546	 4.4831421924	 0.136127
H	 3.1624550678	-2.3062972121	 3.5881479167	 0.136128
H	 2.1252235303	-0.8688377212	 3.579972452	 0.148638
H	 0.3906964997	-4.8523476403	 0.5843840054	 0.147879
