23
gdb 116889	4.85393	0.49308	0.46853	0.9802	94.08	-0.2409	0.0401	0.281	2457.5567	0.202437	-388.257365	-388.245591	-388.244647	-388.296603	40.295	
C	-0.0086263907	 1.5033473132	 0.2974365148	-0.393766
C	-0.0924760025	-0.0190260899	 0.1573861867	-0.15764
C	-1.5093518484	-0.5475706389	-0.1792816397	-0.149664
C	-2.0241337471	-0.0563373276	-1.5477521173	-0.383978
C	-1.5380406398	-2.008808838	-0.1101226003	 0.144265
C	-1.5526636297	-3.2119593982	-0.0612530941	 0.006384
C	-1.5546877104	-4.6676421733	-0.0142666193	-0.203236
O	-2.6320848618	-5.1319392979	 0.7788022836	-0.227153
C	-2.6690725477	-6.5375549455	 0.8461480541	-0.217209
H	 0.9965335305	 1.8064155006	 0.60618983	 0.114553
H	-0.2305867504	 2.0173727622	-0.6424843509	 0.120081
H	-0.7120951257	 1.8713076659	 1.0531156878	 0.115174
H	 0.6025878836	-0.3648022174	-0.6177595015	 0.102322
H	 0.2318906532	-0.4893435435	 1.0918715737	 0.107118
H	-2.1939079299	-0.1677592932	 0.5937213907	 0.104416
H	-1.3510821831	-0.3773955832	-2.3493012153	 0.120786
H	-3.0156655864	-0.4663905345	-1.7556308684	 0.125902
H	-2.0946515257	 1.0344155323	-1.5727884919	 0.115214
H	-1.6314102024	-5.0768914467	-1.0373962614	 0.110518
H	-0.5957081353	-5.0323575809	 0.39506736	 0.110574
H	-3.5233642903	-6.8094948568	 1.4701365471	 0.129493
H	-2.7955416742	-6.9936120913	-0.1492485426	 0.102926
H	-1.7526613658	-6.9520004574	 1.2969360642	 0.10292
