15
gdb 47085	3.33205	1.55203	1.11314	3.4901	68.01	-0.2611	-0.053	0.2081	1023.8653	0.114485	-457.792389	-457.785508	-457.784563	-457.823974	25.983	
O	 0.0107502397	-0.0086453361	 0.1404857945	-0.336157
C	 0.0445623285	 1.1724558804	-0.0425946963	 0.402741
O	-1.0914867915	 1.9485471883	-0.0868196787	-0.241882
C	-0.7782374104	 3.3627981467	-0.1889084371	-0.111379
C	 0.6406503633	 3.3924465939	-0.7850720365	 0.046786
O	 1.5337607265	 4.3948299291	-0.3344861384	-0.278942
C	 2.7490385512	 3.7519198359	 0.0830806223	-0.114886
C	 2.3814897016	 2.2974989806	 0.2838957467	-0.232768
C	 1.1731577756	 2.1078879432	-0.2329268649	 0.120958
H	-1.5515808733	 3.8206140428	-0.8068359254	 0.129272
H	-0.7807275022	 3.8137421083	 0.8091944746	 0.128315
H	 0.5852142575	 3.395370479	-1.8857319319	 0.098114
H	 3.5383099194	 3.887721054	-0.6745185099	 0.12035
H	 3.098422512	 4.2215096682	 1.0108030037	 0.129818
H	 2.9856946421	 1.5891542257	 0.8353165571	 0.139659
