16
gdb 57010	2.59866	1.4235	1.19878	3.3972	68.1	-0.2635	0.0075	0.271	1068.1559	0.126136	-434.08179	-434.07346	-434.072516	-434.115449	29.864	
N	-0.0128162697	 1.4691260074	 0.0442584156	-0.502109
C	 0.0254533797	 0.0102342704	-0.0019668163	-0.140491
C	 0.7187298953	-0.5277872532	-1.1950260493	 0.267821
N	 1.2499233682	-0.9030071596	-2.1508260457	-0.325531
C	 0.6564301088	-0.5233944762	 1.292074385	 0.104442
C	 0.7926781391	-2.0648089076	 1.4096934301	-0.214525
N	 2.2356728323	-2.3095331278	 1.5687486938	-0.248565
C	 2.7878512062	-1.1743154134	 1.5190168494	 0.130208
O	 2.0259041705	-0.055010834	 1.3694229755	-0.24101
H	 0.9379145845	 1.8232594835	 0.1035831614	 0.254867
H	-0.4176710732	 1.8404511319	-0.8093936649	 0.247802
H	-1.0074181367	-0.3595987224	-0.0313577435	 0.137536
H	 0.1082494993	-0.0702454557	 2.1222106902	 0.11706
H	 0.2474924228	-2.4623442147	 2.2703622993	 0.126564
H	 0.429642711	-2.5867847428	 0.5172500993	 0.134668
H	 3.851728532	-0.9806701159	 1.5896480201	 0.151263
