18
gdb 75956	2.10263	1.8372	1.05312	3.6312	72.95	-0.2462	-0.0243	0.2219	1123.4663	0.148616	-439.155241	-439.146631	-439.145687	-439.188961	31.772	
C	 0.1214265441	 1.6709561598	 0.023301173	-0.391244
C	 0.3040903193	 0.1545334175	-0.0104707325	-0.208588
C	 1.0023428961	-0.3467663313	-1.2685337989	 0.370315
O	 1.2734524124	 0.3710363341	-2.201267567	-0.301368
C	 1.3595852068	-1.8226259118	-1.2269084884	-0.298754
C	 2.2894262788	-2.068462961	-0.0316782348	-0.169461
N	 1.7256980402	-1.5004039056	 1.184946178	-0.321345
C	 0.9558331764	-0.3720974661	 1.2882522081	 0.403278
O	 0.7445245902	 0.1600114782	 2.3593907425	-0.364134
H	 1.0878464519	 2.1787178282	-0.0331619073	 0.129396
H	-0.4758895581	 1.9994835963	-0.8292172725	 0.124415
H	-0.3684732353	 1.9609463211	 0.9530356509	 0.140182
H	-0.6866420641	-0.3289140487	-0.0139280418	 0.131275
H	 0.4448680678	-2.4137151474	-1.0993502306	 0.125736
H	 1.8446291897	-2.1091609207	-2.1613433777	 0.129508
H	 2.4304247039	-3.1431227675	 0.1187591157	 0.123805
H	 3.2782023223	-1.6378180069	-0.2474083743	 0.126046
H	 2.1400519476	-1.7743807482	 2.0649595676	 0.250938
