16
gdb 18078	4.83398	1.21834	1.13454	1.4475	73.84	-0.2224	0.0542	0.2766	1102.0694	0.129543	-346.530283	-346.522349	-346.521405	-346.563995	28.095	
C	-0.0286181073	 1.4859512567	-0.0119771241	-0.500038
C	-0.0560777174	 0.0306688876	-0.0160283701	 0.0923
C	-0.0852028911	-1.1738980305	-0.0288544998	 0.084996
C	-0.1184759925	-2.6076067076	-0.0408282976	-0.249635
C	-0.3624177273	-3.4602340255	 1.2076647704	-0.147229
C	-1.4479818986	-2.8042353935	 2.0539946612	-0.09431
O	-2.3521425841	-2.7478530352	 0.9132601985	-0.278241
C	-1.3905718013	-3.417062901	 0.1095104266	 0.095084
H	 0.6207126245	 1.8754592593	 0.7802792775	 0.144655
H	 0.3427256793	 1.8774824791	-0.9656904697	 0.147619
H	-1.0305819502	 1.900153114	 0.1463813667	 0.15051
H	 0.5909847958	-3.0869001101	-0.7132749433	 0.111337
H	 0.3230247732	-4.2345641509	 1.5238654054	 0.103562
H	-1.8557848331	-3.4623486538	 2.8282357218	 0.111339
H	-1.2366372269	-1.8117617781	 2.4650904495	 0.118792
H	-1.7431644729	-4.1406209405	-0.6171221931	 0.109259
