15
gdb 88929	3.3875	0.98828	0.8116	1.2265	70.22	-0.2565	-0.0524	0.2041	1355.7749	0.109103	-457.721643	-457.712454	-457.711509	-457.756849	32.472	
O	-0.0808608058	 1.4747930409	 0.0882909786	-0.42931
C	 0.002227704	 0.0855490774	 0.0671010358	 0.101526
C	-0.5741377835	-0.7276547549	 1.2096538599	-0.336354
C	-1.2387619298	-0.7272447347	-0.1436698377	 0.070406
O	-2.3963918512	 0.0797167466	-0.2943285172	-0.252863
C	-3.5862326605	-0.5658442742	-0.2727221238	 0.308821
O	-3.71672032	-1.7556383128	-0.1591523625	-0.339423
C	-4.6729799253	 0.3749825741	-0.417814097	 0.216047
C	-5.6124397982	 1.1151632655	-0.5305924246	-0.354318
H	-0.9772433344	 1.7193621801	-0.1703293847	 0.299879
H	 0.9179823362	-0.2662539756	-0.3997870771	 0.109775
H	-0.0749668112	-1.6338846426	 1.5339839746	 0.126244
H	-1.0700892189	-0.1609442764	 1.9899771378	 0.132295
H	-1.250242427	-1.6180307367	-0.7590432452	 0.129504
H	-6.4453569346	 1.7681361333	-0.6308477169	 0.217771
