17
gdb 47213	1.99891	1.74292	1.26038	2.7873	78.85	-0.2377	-0.0223	0.2153	1067.3364	0.135239	-384.68241	-384.673971	-384.673026	-384.716209	31.67	
O	-0.136219649	 0.5398326621	-1.3361420729	-0.308011
C	-0.0271445578	 1.3121998962	-0.4195502979	 0.400268
C	-1.1947788186	 1.6706548224	 0.4924198591	-0.299566
C	-0.8409667215	 2.5785744663	 1.681992669	-0.277314
C	 0.1111484832	 3.6703349655	 1.2631160163	-0.049208
C	 1.104324584	 3.4232835794	 0.41288033	-0.075033
C	 1.3260392961	 2.024700843	-0.1379883994	-0.303121
C	 2.0869635043	 1.194398167	 0.7971680102	 0.334653
C	 2.6789064271	 0.502768136	 1.5828952852	-0.478853
H	-1.9221202291	 2.1784717375	-0.1533057431	 0.141698
H	-1.6711159755	 0.7382099449	 0.81054656	 0.136171
H	-1.7571412046	 2.9998163789	 2.1057895399	 0.110373
H	-0.3788979971	 1.9825629404	 2.4806122984	 0.13391
H	-0.0216100208	 4.6650248284	 1.6781678639	 0.099456
H	 1.8059588164	 4.1934830087	 0.1101777633	 0.106048
H	 1.8551106713	 2.0548986181	-1.0960299267	 0.126811
H	 3.2189211517	-0.1056279348	 2.2654959647	 0.201719
