17
gdb 66824	2.71813	2.20389	1.83197	1.1373	77.18	-0.2023	-0.0259	0.1764	827.1745	0.136731	-384.585372	-384.578844	-384.5779	-384.615662	28.012	
O	-0.110134734	 1.4721336385	 0.3040353565	-0.505669
C	-0.055827249	 0.111606351	 0.0424758229	 0.440552
C	-1.3060262984	-0.7863741275	-0.0634100153	-0.176374
C	-0.7723063651	-1.9059821015	-0.9177166539	-0.075855
C	 0.4930609372	-1.5370714707	-1.5684807363	-0.093868
C	 0.9980127788	-0.4476998148	-0.9360340422	-0.100796
C	 1.984636734	-0.7888035974	 0.2038218647	-0.279806
C	 0.6294813506	-0.8721624408	 1.0217966771	-0.074601
C	-0.5229119379	-1.8676870689	 0.648100094	-0.101826
H	 0.026251956	 1.9358821237	-0.5293691677	 0.281956
H	-2.3485196441	-0.5071881089	 0.007785367	 0.095797
H	-1.4403112458	-2.6841085388	-1.2719460401	 0.090047
H	 1.1193838381	-2.2980848836	-2.0264794139	 0.096931
H	 2.5930349114	-1.685069164	 0.0726739081	 0.104167
H	 2.5945056046	 0.0320875905	 0.5929719203	 0.110683
H	 0.6488470889	-0.6370351829	 2.0888582034	 0.09315
H	-0.8855740755	-2.6789308539	 1.2646553153	 0.095515
