16
gdb 18892	4.4705	2.39785	2.04566	1.1402	65.77	-0.2297	0.0874	0.3172	711.5714	0.131611	-346.550837	-346.544938	-346.543993	-346.580387	24.667	
C	-0.0750519296	 1.4363465697	 0.0237888663	-0.49248
C	 0.0028642359	-0.0593925227	 0.0154997005	 0.445034
O	-1.1544887993	-0.7103710557	-0.4477599892	-0.265358
C	-0.7858332316	-2.0531562121	-0.3398992498	 0.06299
C	 0.6948490289	-2.261100742	-0.5933310925	-0.130137
C	 0.1448013583	-2.2976945056	 0.8322787212	-0.130136
C	 0.7026164159	-0.8844554275	 1.0844451754	-0.166443
C	 1.253210983	-0.8478954129	-0.3421954206	-0.166451
H	 0.8608130967	 1.8625319451	 0.3951109104	 0.123827
H	-0.2513590906	 1.821284645	-0.9853083321	 0.131117
H	-0.8889211089	 1.7789622809	 0.6701420238	 0.1311
H	-1.5450177646	-2.7578116209	-0.6508940602	 0.104936
H	 1.1210795989	-3.0404979728	-1.2090982148	 0.089602
H	 0.0607258868	-3.1110476439	 1.5391655719	 0.089602
H	 1.1043039178	-0.4883760306	 2.0069724771	 0.086397
H	 2.1634127624	-0.418064864	-0.7372475375	 0.086397
