21
gdb 89301	2.2393	1.64501	1.1427	1.8207	78.06	-0.2382	0.0637	0.3018	1137.3934	0.181232	-424.194882	-424.18557	-424.184626	-424.228763	36.029	
C	 0.5147196432	 1.5581620737	-0.3903060979	-0.392753
C	 0.0489642772	 0.1491034199	-0.0400493402	 0.038123
C	 0.4632321176	-1.0105990979	-1.0086118859	-0.318785
C	 1.1747127935	-1.7183829092	 0.1658931197	 0.424623
O	 0.9012873835	-3.068583039	 0.4166278506	-0.488628
C	 2.6405123109	-1.2381262427	 0.414559217	-0.348872
C	 2.1173840368	-0.377678771	 1.6067052233	 0.138925
O	 2.5111610529	 0.9708329713	 1.7212014944	-0.430274
C	 0.6612049161	-0.632896123	 1.1747884321	-0.113903
H	 1.5920604623	 1.6069924525	-0.5612011668	 0.121022
H	 0.0060984392	 1.8997937436	-1.2995024845	 0.099638
H	 0.2851240725	 2.2637262496	 0.413687194	 0.118889
H	-1.0385361393	 0.1665893622	 0.0781527455	 0.078295
H	-0.3918951537	-1.5855026738	-1.3740806775	 0.097664
H	 1.0953664801	-0.7313477048	-1.8581528226	 0.085542
H	 1.3136746768	-3.5917682152	-0.2801939381	 0.274746
H	 3.338792237	-2.0346509522	 0.6840651322	 0.093639
H	 3.0599407139	-0.6440335941	-0.4021602733	 0.096601
H	 2.2978356685	-0.9126382252	 2.550373293	 0.075573
H	 3.4244710741	 0.9918947501	 2.0240146923	 0.28248
H	-0.0464147432	-0.8624126646	 1.9719462728	 0.067453
