18
gdb 101154	3.79256	0.98537	0.8443	3.7686	69.65	-0.2559	0.012	0.2678	1361.6827	0.148121	-476.232432	-476.223404	-476.22246	-476.267168	32.156	
O	-0.2121774695	 1.5002203993	 0.2143486455	-0.421529
C	-0.2768948671	 0.1360092846	 0.5538172589	-0.058992
C	-1.3829869389	-0.557064838	-0.2662644994	 0.016708
O	-1.177140204	-0.2797718585	-1.6380589469	-0.446863
C	-1.3932974165	-2.0372655337	-0.0309161107	 0.402334
N	-1.0739997554	-2.8917795691	-0.9147301686	-0.339722
C	-1.1787575261	-4.2136145681	-0.2777094131	-0.188009
C	-1.6181058263	-3.9043204849	 1.1789449857	-0.115022
O	-1.7298644426	-2.4577222773	 1.2092258578	-0.257886
H	-0.195423201	 1.5237713524	-0.7514191967	 0.292328
H	 0.6778727623	-0.3809544193	 0.359662522	 0.08513
H	-0.4948995581	 0.0658768358	 1.6235322835	 0.118487
H	-2.3505129459	-0.1343893828	 0.0366106304	 0.109485
H	-0.8960703488	-1.1140742106	-2.043915824	 0.298293
H	-1.906688882	-4.8311676811	-0.8134734655	 0.12505
H	-0.2149417784	-4.7303412353	-0.3240914627	 0.124305
H	-2.5917159217	-4.3239961966	 1.4434593777	 0.128237
H	-0.88426284	-4.2030234669	 1.9317356459	 0.127666
