21
gdb 96683	4.04441	0.73119	0.65267	1.5736	83.32	-0.241	0.032	0.273	1774.1108	0.180718	-420.382881	-420.37228	-420.371336	-420.420505	36.4	
C	 0.1090199898	 1.4644318315	 0.1053934881	-0.325953
N	 0.1313166494	 0.0176587905	 0.1200329648	-0.288508
C	 0.446924412	-0.6318018096	-0.9198490063	 0.411143
C	 0.8345050994	-0.1217168891	-2.2901157275	-0.488196
O	 0.4696658667	-1.9868996737	-0.9031994456	-0.255613
C	 0.141630184	-2.6202506734	 0.3398719588	-0.079815
C	 0.2515780325	-4.1040590006	 0.139316436	 0.011702
C	-0.6430407569	-5.003911539	 0.9089621094	-0.246197
N	-0.8191861449	-4.845946202	-0.5432545362	-0.307875
H	 0.7860254509	 1.8466914124	 0.8788630759	 0.125062
H	 0.3904109773	 1.9310543356	-0.848662302	 0.100588
H	-0.8957700254	 1.816683971	 0.3686997146	 0.124268
H	 1.7397942759	 0.4900977593	-2.2352427775	 0.14421
H	 1.0186549464	-0.9620472775	-2.95907259	 0.145056
H	 0.0412815612	 0.5007661643	-2.713805704	 0.143379
H	 0.8244898846	-2.2642108271	 1.1196607996	 0.119002
H	-0.8721649724	-2.3311821753	 0.643441899	 0.104677
H	 1.2492345369	-4.4551568416	-0.115268798	 0.098245
H	-0.2879242069	-5.9801030246	 1.2257439035	 0.121249
H	-1.3686378913	-4.549252743	 1.5793779115	 0.112743
H	-1.5998612591	-4.2211307381	-0.7331104842	 0.230832
