16
gdb 14686	16.21454	0.51818	0.50689	1.5595	88.79	-0.2276	-0.0013	0.2263	2119.2297	0.128051	-346.560725	-346.550838	-346.549893	-346.598949	32.439	
C	 0.0069442784	 1.4843407032	 0.009695711	-0.518089
C	 0.0131724863	 0.0326526268	 0.0018725252	 0.249911
C	 0.0192761637	-1.1776967197	-0.0046656056	-0.206744
C	 0.0265156552	-2.5379347428	-0.0120113095	-0.179923
C	 0.0337856345	-3.7487671909	-0.0185511601	 0.244526
C	 0.0220356908	-5.2018799262	-0.0262413102	-0.356647
C	-1.3976196125	-5.7841762706	-0.0154988262	-0.064912
O	-1.2595439763	-7.1940531231	-0.0244595608	-0.412567
H	 1.027040292	 1.8850204309	 0.0020314372	 0.15551
H	-0.5134585672	 1.8843970768	-0.8679924357	 0.154726
H	-0.4964477432	 1.8749351142	 0.9014542197	 0.154725
H	 0.5453024043	-5.5839489335	-0.9119953653	 0.142992
H	 0.5624844686	-5.5934001262	 0.8449484467	 0.142986
H	-1.9302542867	-5.4303240421	 0.8794872851	 0.101594
H	-1.94762675	-5.420737331	-0.8960216872	 0.101594
H	-2.1382692878	-7.5841642156	-0.0176116043	 0.290318
