22
gdb 84656	2.21035	1.76782	1.28859	1.4518	86.84	-0.2262	0.0176	0.2438	1101.9115	0.196352	-367.205829	-367.197379	-367.196435	-367.238198	34.129	
C	-0.5290491042	 1.4422173	-0.0286232041	-0.391401
C	-0.0233772119	-0.0184792169	-0.023725176	-0.048494
C	 0.6588286945	-0.3314954747	-1.3350956749	-0.088511
C	 1.9821032064	-0.3229782802	-1.502102376	-0.023276
C	 2.9034377535	-0.0371890607	-0.3764327502	-0.094554
N	 2.6818193943	 1.2403132661	 0.3702943942	-0.33459
C	 2.3408436676	-0.0446240432	 0.9986216791	-0.019971
C	 0.8747372537	-0.3939318915	 1.1928356883	 0.013396
C	 0.3469907118	 0.1457819802	 2.5293338982	-0.410278
H	 0.3131714889	 2.1361308675	-0.0316960283	 0.150346
H	-1.1325977187	 1.6264130111	-0.9237819854	 0.101846
H	-1.1599518252	 1.6479472313	 0.8412654927	 0.104668
H	-0.9149988617	-0.6576056124	 0.0459253775	 0.071252
H	 0.0101944847	-0.5252605768	-2.1864406033	 0.085153
H	 2.420063684	-0.5295244396	-2.4745494394	 0.083059
H	 3.9368521161	-0.3475215653	-0.5048700124	 0.079113
H	 3.5711899744	 1.5745388428	 0.734765955	 0.227099
H	 2.9915970937	-0.3947915934	 1.799482497	 0.075622
H	 0.8547502039	-1.4923393705	 1.2497494726	 0.07558
H	 0.426632176	 1.235530728	 2.5777353535	 0.128946
H	-0.7028192946	-0.124970156	 2.6839653635	 0.110318
H	 0.921565433	-0.2679873158	 3.3652969184	 0.104678
