15
gdb 32379	6.4469	0.87077	0.77449	5.1965	76.77	-0.2626	-0.0611	0.2016	1413.5084	0.113187	-416.855336	-416.847207	-416.846263	-416.888737	28.966	
C	 0.3632880452	 0.7447253322	 0.9070322466	-0.393686
C	-0.3566356927	 0.3611559793	-0.3881314403	-0.292188
C	 0.559343584	-0.095575222	-1.4782938909	 0.25029
C	 1.9157715227	-0.2214886758	-1.4960695006	-0.100794
O	 2.298842366	-0.6778132903	-2.7206444472	-0.160716
C	 1.1328633298	-0.8086343756	-3.3989165671	 0.284408
N	 0.0757846485	-0.4807755525	-2.7200961203	-0.335444
C	 1.1964531229	-1.2758184727	-4.7375908395	 0.263854
N	 1.2502273722	-1.6566840502	-5.8284423851	-0.322212
H	 0.9212625976	-0.1025069052	 1.319102544	 0.125052
H	 1.0681737864	 1.5664445707	 0.7431696595	 0.125062
H	-0.3556287144	 1.0690297842	 1.6634675726	 0.127464
H	-1.0865076958	-0.4346236482	-0.1953212128	 0.132844
H	-0.9418383835	 1.2098624982	-0.7627971492	 0.13285
H	 2.704787871	-0.0463886222	-0.7860852297	 0.163215
