15
gdb 105863	2.15092	1.6663	1.24431	2.9058	61.61	-0.2512	-0.0123	0.2389	1038.7612	0.110243	-494.86508	-494.856617	-494.855673	-494.898502	30.518	
C	 0.1642634057	 1.3560871878	-0.2345733587	-0.264601
O	-0.1837587426	 0.0039140578	 0.0726146365	-0.26811
C	 0.5314110186	-0.5213108054	 1.1041837445	 0.167656
C	 1.9945296168	-1.042671923	 0.9710115922	 0.052694
O	 3.0663575348	-0.6855597268	 1.7642418644	-0.416807
C	 0.9186052104	-1.9634767831	 1.4114148988	-0.063435
O	 0.7131324066	-1.7315979878	 2.835543508	-0.286855
C	 0.1992343346	-0.448172025	 2.5749421716	 0.406131
O	-0.310714865	 0.2902033598	 3.3476403524	-0.320904
H	 1.2246841799	 1.438449706	-0.5040320245	 0.125226
H	-0.4533729975	 1.6473255969	-1.0854160299	 0.138974
H	-0.045038264	 2.017761473	 0.6134423205	 0.143636
H	 2.2711347333	-1.1144344854	-0.0783672283	 0.135759
H	 2.8736786192	-0.9804554294	 2.6642188254	 0.306752
H	 0.5770607593	-2.9074486753	 1.0092632171	 0.143884
