20
gdb 70154	2.43216	1.7535	1.26754	1.2352	79.39	-0.243	-0.0086	0.2345	1054.7159	0.172564	-403.118082	-403.109909	-403.108965	-403.150319	32.245	
C	 0.1377074539	 1.5181643233	-0.2086923976	-0.452592
C	 0.0498605154	 0.0186500545	-0.0398669724	 0.282081
C	-1.1761546345	-0.6470686589	-0.6561836485	-0.11989
O	-2.3744845369	-0.4790449623	 0.0812302791	-0.259039
C	-2.2860745288	-0.7393875639	 1.4854663092	-0.109239
C	-1.3837031589	-1.8903739912	 1.8856475731	-0.084656
C	-0.057603088	-1.8334160433	 1.750526665	-0.087153
C	 0.6257787808	-0.6439671779	 1.1664195292	-0.079126
N	 1.3304186266	-0.7150185722	-0.1345431289	-0.387257
H	 1.0150912063	 1.9196180819	 0.3041157617	 0.123995
H	 0.2134753742	 1.7851097189	-1.26874497	 0.119704
H	-0.7586637075	 2.0008857491	 0.195980322	 0.126346
H	-1.386712765	-0.213728087	-1.6398370612	 0.108627
H	-0.966217743	-1.7158767385	-0.8048555342	 0.084785
H	-1.9504116337	 0.1725369533	 2.0013257092	 0.104392
H	-3.3145093582	-0.9314529687	 1.802369219	 0.109994
H	-1.8511459124	-2.7787316933	 2.3017523027	 0.09762
H	 0.5688306438	-2.6610970746	 2.0792630228	 0.097957
H	 1.1623780938	-0.0210009347	 1.8830576108	 0.098634
H	 1.1704983522	-1.6292408246	-0.5564791611	 0.224815
