20
gdb 109127	4.01562	0.94553	0.81946	4.0215	82.8	-0.2366	0.0164	0.253	1437.149	0.172026	-403.20631	-403.197128	-403.196184	-403.241367	33.522	
C	 0.1822829026	 1.5204297964	 0.1591048891	-0.375282
C	 0.0072343112	 0.002216372	-0.0265979876	-0.271261
C	-1.431400466	-0.4552407561	-0.0622282658	 0.312537
C	-2.0147084271	-0.9120408715	-1.1691644498	-0.166113
C	-3.4379954758	-1.3741874027	-1.2474513851	-0.370931
C	-4.2297053371	-1.2931069754	 0.0490580607	 0.391868
O	-5.3980695104	-1.6306846903	 0.1095192119	-0.381326
N	-3.5616459253	-0.8213380082	 1.1406002146	-0.318073
C	-2.1828131204	-0.3808541819	 1.2400759039	-0.236959
H	 1.2429311181	 1.7891312801	 0.1449878621	 0.11802
H	-0.3186264628	 2.0704947502	-0.6435301529	 0.124134
H	-0.2307438165	 1.8676656889	 1.1112324596	 0.119185
H	 0.4939564577	-0.3028432818	-0.9587668208	 0.106782
H	 0.5374238906	-0.5172689981	 0.7841538609	 0.101716
H	-1.4364318533	-0.9652252541	-2.0896431776	 0.085622
H	-3.9992846735	-0.8025971791	-1.9982843355	 0.140278
H	-3.4960354692	-2.4157180033	-1.5904136009	 0.140336
H	-4.1287058499	-0.7854260686	 1.9755123427	 0.244687
H	-1.6506279207	-0.9883064634	 1.9905831331	 0.116142
H	-2.1566282722	 0.6504581369	 1.6233176472	 0.118638
