16
gdb 67901	2.51602	1.91226	1.37297	4.6741	68.09	-0.2427	0.0201	0.2628	949.7101	0.12372	-437.854289	-437.846881	-437.845937	-437.885834	29.204	
C	-0.0276039601	 1.5522082982	-0.0267485354	-0.483692
C	 0.0136584453	 0.0465924185	 0.0495902673	 0.341542
N	-1.2243406363	-0.6513646956	 0.4048516717	-0.362004
C	-0.6493339213	-1.4702443645	 1.3693456868	 0.447343
O	-1.0895999103	-2.3587045573	 2.0410719566	-0.355719
C	 0.7207146977	-0.7615948628	 1.1890250137	-0.319366
C	 1.6255163901	-1.4138356459	 0.1095530115	 0.032641
O	 0.7815312978	-2.0895998508	-0.8276619651	-0.225559
C	 0.9577438285	-0.6840819995	-0.9782164716	-0.044746
H	 0.9831809331	 1.9614618067	-0.1270508445	 0.127765
H	-0.6061675444	 1.8835758438	-0.8971579647	 0.126262
H	-0.4879726486	 1.9753306971	 0.8701831783	 0.135233
H	-2.0305857187	-0.862059971	-0.168426761	 0.247264
H	 1.2031767332	-0.2773455722	 2.0350524309	 0.10487
H	 2.6421507659	-1.7712107173	 0.2144861023	 0.118832
H	 1.3214084083	-0.3188517273	-1.9328346368	 0.109334
