21
gdb 86088	2.6117	1.34738	0.98062	2.1495	86.17	-0.23	0.0171	0.2471	1274.7298	0.181887	-387.097176	-387.088206	-387.087262	-387.130639	34.604	
C	 0.0134286618	 1.6008550966	-0.0834890568	-0.418191
C	 0.1197231959	 0.0816999957	 0.0202924774	-0.054765
C	 0.8444863345	-0.6040114381	-1.1664734132	-0.326255
C	 1.5835777281	-1.770385275	-0.5398596054	 0.306801
C	 2.2347361399	-2.8236515664	-1.3771305542	-0.48764
C	 1.5815496709	-1.6756218754	 0.7929170308	-0.256611
C	 0.8524212015	-0.4681616814	 1.2557565929	 0.434981
C	 1.2750133828	 0.326273447	 2.4228136663	-0.251788
O	 0.127145003	-0.5216720271	 2.4955631367	-0.289619
H	 1.0034042988	 2.0680058294	-0.1311314822	 0.113863
H	-0.5357355858	 1.8902886419	-0.9854945151	 0.113581
H	-0.5211066018	 2.019983238	 0.7750458442	 0.125047
H	-0.89368947	-0.3343246052	 0.0814076999	 0.095232
H	 0.1527115274	-0.9216637299	-1.956255159	 0.101746
H	 1.5574425237	 0.0836195771	-1.6452381178	 0.103964
H	 2.9808566856	-2.3865893357	-2.0532910688	 0.1267
H	 2.7318210392	-3.5803394019	-0.7644190812	 0.125615
H	 1.4981690494	-3.3285964507	-2.0152440598	 0.127686
H	 2.0611173832	-2.3607587767	 1.4830464966	 0.094836
H	 2.1349918468	 0.0033622528	 3.0103913698	 0.105237
H	 1.0729696951	 1.3958146651	 2.4585609787	 0.10958
