19
gdb 68320	3.43319	1.04621	0.93682	1.7698	81.67	-0.2552	0.0596	0.3148	1296.6953	0.158208	-385.804909	-385.796284	-385.79534	-385.838412	33.671	
O	 1.1738205065	 0.9464050893	 0.430977636	-0.476962
C	 0.4712608564	-0.2100675437	 0.1500389315	 0.381813
C	 0.464366898	-1.0625349444	-1.1599521012	-0.288928
C	-0.5870794881	-1.7042446342	-0.2087188794	-0.055227
C	 0.456922861	-1.5620883973	 0.9362793085	-0.301277
C	-1.0784692917	-0.252015048	 0.094313671	 0.024392
C	-1.9266905445	 0.0838825056	 1.3261998606	-0.414656
C	-3.3164114992	-0.3307841678	 1.1636927307	 0.310676
C	-4.4542340052	-0.6836710218	 1.0022366103	-0.458295
H	 2.1158049474	 0.7450792513	 0.4241231161	 0.28382
H	 0.084008044	-0.5745619375	-2.0608950978	 0.09543
H	 1.35934018	-1.6574846618	-1.3619706673	 0.085383
H	-1.2094361042	-2.56958976	-0.4198589669	 0.088881
H	 1.3528797052	-2.1830444764	 0.8453719173	 0.08667
H	 0.0941608767	-1.5540680357	 1.964574796	 0.097365
H	-1.5001103803	 0.2542876651	-0.7800732946	 0.077528
H	-1.5186069996	-0.3695069899	 2.2354216212	 0.130124
H	-1.8859269773	 1.1688269932	 1.4883278442	 0.1404
H	-5.462810295	-0.988783346	 0.8735312338	 0.192864
