16
gdb 46080	3.55378	1.20655	1.02353	4.1799	64.46	-0.2629	0.0325	0.2954	1147.3897	0.126094	-475.040445	-475.032825	-475.031881	-475.073529	27.629	
O	 0.1102715729	-0.0055917787	 0.3224526095	-0.363164
C	 0.0356506517	 1.1712722301	 0.1840612342	 0.500188
O	-1.111501759	 1.8912253641	 0.2172843912	-0.23866
C	-0.8424976157	 3.2493661555	-0.1422596744	-0.120684
C	 0.6878888163	 3.3662832671	 0.004354565	 0.060153
O	 1.1027085076	 1.9932895571	-0.0326641464	-0.261849
C	 1.362978599	 4.1631879023	-1.086231777	-0.016872
C	 2.7340699405	 3.8371333114	-1.5389838675	-0.240588
N	 1.5722873429	 3.583169245	-2.4167285641	-0.318068
H	-1.1690792722	 3.4198509433	-1.173691807	 0.138642
H	-1.3937831388	 3.9082756798	 0.5301738468	 0.138545
H	 0.9569597484	 3.7749101554	 0.9866805701	 0.111116
H	 1.0405618335	 5.2036795455	-1.1002005895	 0.104404
H	 3.3958921334	 4.6313623192	-1.8705886655	 0.126727
H	 3.2238804856	 2.9824283501	-1.083206728	 0.138178
H	 1.360388094	 2.5873316127	-2.3844572874	 0.241933
