20
gdb 79771	2.87877	1.94644	1.72942	1.7556	79.63	-0.2107	0.0588	0.2694	904.6604	0.173998	-365.927613	-365.920697	-365.919753	-365.960504	28.181	
C	-0.2589479041	 1.6136363569	-0.0151810037	-0.444223
C	 0.0748530891	 0.1158048995	-0.001935024	 0.049771
C	 1.0921696328	-0.5666992822	-0.943220883	-0.032649
C	 2.5818885014	-0.0943976374	-0.8025557165	-0.063811
C	 2.7825543725	 0.9566853201	 0.3159706528	-0.249422
C	 2.3424501018	-0.1288795526	 1.3279060692	-0.063815
C	 0.8603669755	-0.6000965089	 1.1193170186	-0.032648
N	 1.2921555481	-1.6698935554	 0.1059582218	-0.170354
C	 2.7246983685	-1.2165516059	 0.2742961585	 0.020883
H	 0.2400399226	 2.1353991658	-0.8375760266	 0.124394
H	-1.3337092057	 1.7788620511	-0.1330675957	 0.114455
H	 0.0436179042	 2.1071220823	 0.9135170631	 0.124398
H	-0.8468566563	-0.4660776138	-0.1149558141	 0.09223
H	 0.7764591145	-0.8646558613	-1.94594295	 0.067229
H	 3.1666316076	-0.0281366737	-1.7196318911	 0.065656
H	 3.8524251621	 1.1567734749	 0.4394527919	 0.100084
H	 2.2523169726	 1.9082561642	 0.2717702534	 0.098441
H	 2.7088660373	-0.0940580624	 2.3535134014	 0.065657
H	 0.3310962998	-0.9288232207	 2.0169327643	 0.067229
H	 3.534437466	-1.9428441305	 0.3535468295	 0.066493
