18
gdb 18355	3.29931	2.21736	1.61886	1.4249	73.1	-0.2356	0.0071	0.2427	845.3303	0.154932	-347.772495	-347.765401	-347.764456	-347.803538	27.654	
C	-0.008796583	 1.5517378906	 0.0159494422	-0.378572
C	 0.0070131115	 0.0214155029	-0.011444292	-0.041496
C	 0.938644817	-0.532331816	-1.1552893753	-0.254432
C	 2.3009024781	-0.6628369335	-0.4731840274	-0.205165
C	 2.1066660831	-0.7631170556	 0.8356191342	 0.203709
C	 2.513273358	-0.2581839764	 2.1964379392	-0.157561
O	 1.1459210769	 0.2261967773	 2.3778296051	-0.306131
C	 0.6822109704	-0.5884329573	 1.2400712438	 0.107615
H	 1.0051884806	 1.9533753589	 0.1022459801	 0.121138
H	-0.4566369364	 1.9460782624	-0.9017389841	 0.106788
H	-0.5835794419	 1.9244606955	 0.8680688281	 0.125054
H	-1.0170535889	-0.3476164845	-0.1300394263	 0.066677
H	 0.5677571195	-1.4893156624	-1.5460289346	 0.106563
H	 0.9804343474	 0.1549518013	-2.0080061286	 0.104523
H	 3.2426896291	-0.5633446292	-0.9996242922	 0.098927
H	 2.7596703071	-1.0228883138	 2.9450115556	 0.107727
H	 3.2570450314	 0.5449868828	 2.233403944	 0.118851
H	 0.14651612	-1.4657064428	 1.6271494281	 0.075784
