15
gdb 2522	2.62914	2.42583	1.34534	2.0129	58.75	-0.2583	-0.0554	0.2029	877.0696	0.121695	-345.674929	-345.666728	-345.665783	-345.708248	27.384	
C	 0.217718621	 1.482273301	 0.2421552599	-0.396449
C	-0.0559299483	-0.0192089103	 0.1139214507	-0.194532
C	-1.5439912832	-0.3485909576	 0.0015441483	-0.153265
C	-2.1690036358	 0.0538123903	-1.331480134	 0.140589
O	-3.3553675401	 0.1036486228	-1.525692376	-0.244973
C	-1.8568070635	-1.8347356594	 0.2153049922	 0.135537
O	-1.0338991415	-2.6618182057	 0.500411448	-0.226898
H	 1.2912000554	 1.6787836863	 0.3142616529	 0.125255
H	-0.1631172222	 2.0427799166	-0.619055257	 0.11966
H	-0.2582249282	 1.8951435459	 1.1384235719	 0.122384
H	 0.4629369209	-0.4245217586	-0.7639674354	 0.111197
H	 0.3557670912	-0.5583834927	 0.9715437459	 0.126134
H	-2.1350803527	 0.1711589049	 0.7712075152	 0.129638
H	-1.4366081805	 0.2591796883	-2.1444602133	 0.093952
H	-2.9300353125	-2.0867151116	 0.0852128103	 0.111772
