16
gdb 125837	2.95172	1.4646	1.03581	4.2179	71.6	-0.2495	-0.0295	0.22	1122.8113	0.124212	-434.002922	-433.994926	-433.993982	-434.036109	28.975	
C	-0.252385426	 1.418317007	 0.1042402976	-0.498274
C	-0.0240477388	-0.0535779821	 0.0579049096	 0.274089
N	 0.0625752119	-0.7334402771	-1.0508155688	-0.136378
O	 0.2897573099	-2.0343575263	-0.6893835242	-0.165076
N	 0.3380007125	-2.1711744014	 0.6759648394	-0.16166
C	 0.1516406078	-0.9671626788	 1.1502288874	 0.291808
N	 0.2084635912	-0.6323314278	 2.4967396966	-0.150628
C	-1.0459758683	-0.4659705215	 3.2471435728	-0.235733
C	-0.1579520272	-1.6376330318	 3.4880214805	-0.219042
H	 0.536817085	 1.910198115	 0.6814120046	 0.151393
H	-0.2656995604	 1.8297206929	-0.9062225327	 0.155872
H	-1.2051308377	 1.6539050477	 0.5904207723	 0.140759
H	-1.0576734161	 0.3685084431	 3.9407537706	 0.132504
H	-1.976850249	-0.6468520879	 2.7159837717	 0.134435
H	-0.4838824059	-2.6043971912	 3.1171066729	 0.152783
H	 0.4781803812	-1.6631490399	 4.3667036897	 0.133148
