17
gdb 19823	3.64169	2.20175	1.88426	2.9174	67.15	-0.2282	0.0676	0.2958	778.1537	0.143104	-363.779379	-363.772783	-363.771839	-363.809759	26.469	
C	-0.2031198417	 1.5774046172	-0.0879706107	-0.413318
C	 0.0614792851	 0.0924078206	 0.0425757774	 0.152243
O	 1.1203019758	-0.4120371492	-0.8321699361	-0.309158
C	 1.7337588478	-1.1308373079	 0.2475235764	 0.128449
C	 2.9153429664	-0.4426967916	 0.9839173275	-0.07831
N	 2.6510453523	 1.0100708472	 0.9902089546	-0.31466
C	 1.9559042326	 0.1483297903	 1.9716899162	-0.0672
C	 0.7534741242	-0.5415660204	 1.2812278486	-0.114621
H	 0.6994358022	 2.1542085488	 0.1078753771	 0.151919
H	-0.5584675006	 1.8020906139	-1.099291516	 0.119455
H	-0.9892269905	 1.8756015372	 0.6154369379	 0.105116
H	-0.8618403167	-0.4641540117	-0.1774688048	 0.069862
H	 1.8510327468	-2.2012767897	 0.0585250106	 0.075246
H	 3.9228116943	-0.8197395624	 1.1139637167	 0.090886
H	 3.4305053426	 1.4458288051	 1.4825777821	 0.231869
H	 2.0702370362	 0.321486127	 3.0348749104	 0.093742
H	 0.152660433	-1.1708529944	 1.9360985923	 0.078479
