18
gdb 117504	2.28902	0.85627	0.65126	3.4853	83.12	-0.2708	-0.003	0.2678	1751.505	0.143972	-401.922885	-401.911976	-401.911032	-401.961396	36.132	
C	-0.1018935278	 1.4744530674	 0.0069070426	-0.388655
C	 0.1759241448	-0.0152102239	-0.0715062882	-0.045509
O	 0.504858261	-0.4683148609	 1.2411385538	-0.239177
C	 0.7478183746	-1.8552123207	 1.3212328293	-0.184802
C	 2.0028723225	-2.2255521403	 0.6086096179	 0.280596
N	 2.9627612184	-2.4973660434	 0.026278449	-0.329867
C	 0.8158699499	-2.266043456	 2.7202833472	 0.003055
C	 0.8638712921	-2.6284824282	 3.8653913473	 0.190339
C	 0.9287615088	-3.0553429404	 5.2539080304	-0.503522
H	 0.781092675	 2.0101102909	 0.3654687126	 0.136799
H	-0.3638868333	 1.859612925	-0.9828048685	 0.122497
H	-0.9304225778	 1.6772144327	 0.6909694124	 0.131098
H	-0.7071199548	-0.562581515	-0.4392087475	 0.094969
H	 1.0065199275	-0.2228872845	-0.7614095057	 0.118735
H	-0.0657659258	-2.409359141	 0.8196497204	 0.135848
H	 0.1313087991	-3.7682664245	 5.4880905793	 0.155881
H	 1.8875786892	-3.5372074695	 5.4718571095	 0.161002
H	 0.8230355065	-2.1995133075	 5.9288913182	 0.160713
