13
gdb 9976	2.72147	1.55841	1.03915	2.4274	64.33	-0.2772	-0.0596	0.2177	1054.9235	0.092475	-361.445134	-361.436685	-361.435741	-361.47895	28.754	
O	-0.464524579	 0.6616957507	-0.7088684663	-0.219447
C	 0.1494277407	 1.0195534474	 0.2565329493	 0.154856
C	 1.3364554146	 1.9995399124	 0.1810678648	-0.241135
C	 1.4361896877	 2.6801749861	-1.2058659749	-0.366565
C	 2.6825396509	 3.4094005505	-1.3823562717	 0.28575
C	 3.7216123763	 3.9989345437	-1.5056995945	-0.4078
C	 1.2524618134	 2.9494334646	 1.2897576912	 0.274156
N	 1.1411767479	 3.6814278274	 2.1767623872	-0.30187
H	-0.0793097136	 0.6523287956	 1.2775825476	 0.124762
H	 2.237187162	 1.3884955243	 0.3438318125	 0.168124
H	 1.3312049936	 1.8942627311	-1.9601590636	 0.163153
H	 0.5771542611	 3.3468386458	-1.3373429633	 0.159177
H	 4.6331845845	 4.5308488803	-1.6248962384	 0.20684
