18
gdb 112678	3.35838	1.10494	0.87658	4.2191	69.24	-0.2508	0.0515	0.3023	1307.9563	0.148068	-476.270854	-476.26172	-476.260776	-476.305935	32.069	
C	 0.0030386235	 1.4054000449	 0.0462728144	-0.338613
N	-0.0143230922	-0.0374569935	 0.0648102278	-0.130235
C	-1.2173363437	-0.8203264211	-0.0930616076	-0.220699
C	-0.6545520503	-2.2579449674	-0.0838951299	 0.094048
C	-1.13892257	-3.1391838855	-1.226613845	-0.066406
O	-0.5336090739	-4.4105074141	-1.1999719406	-0.418428
O	 0.7716630892	-2.1015945549	-0.2169953144	-0.27373
C	 1.1240987323	-0.7815939979	-0.1097212085	 0.486683
O	 2.260635694	-0.3962358523	-0.1600911038	-0.401225
H	 1.0450762619	 1.7243167536	 0.0985432378	 0.170848
H	-0.447127613	 1.8021079812	-0.8740531818	 0.123061
H	-0.5443561228	 1.8144438592	 0.903031743	 0.127578
H	-1.9281212997	-0.6503746853	 0.723208235	 0.12218
H	-1.7314923832	-0.5870517455	-1.0394982067	 0.10805
H	-0.8408766435	-2.76069117	 0.8711981561	 0.10647
H	-2.219771118	-3.2957120557	-1.1343877847	 0.115356
H	-0.954855627	-2.6134295524	-2.178306534	 0.095582
H	 0.4197743566	-4.2653701134	-1.2169163972	 0.299481
