22
gdb 100722	2.15222	1.09366	0.9633	3.8684	78.41	-0.2571	0.0185	0.2756	1394.4091	0.191959	-441.531414	-441.5203	-441.519356	-441.567973	40.138	
C	-0.195384951	 1.7112611991	 0.2728255516	-0.394127
C	-0.1529488282	 0.1820385613	 0.1966864172	-0.171623
C	-1.527073546	-0.4858670832	 0.0009316178	 0.023637
C	-2.1862186085	-0.1083755696	-1.3330801549	-0.401262
C	-1.4159970943	-2.0302803099	 0.0912464834	 0.030616
O	-0.5706076203	-2.539225681	-0.9075391267	-0.439327
C	-0.8868366054	-2.5083859485	 1.4532076275	 0.383202
N	-1.6638045306	-2.2572033518	 2.5347528837	-0.518635
O	 0.1885210232	-3.0830292364	 1.525006153	-0.384237
H	 0.8005492138	 2.1153994008	 0.4795059344	 0.11424
H	-0.541740178	 2.161338825	-0.6623166262	 0.119506
H	-0.8625816749	 2.0532994228	 1.0728573257	 0.107247
H	 0.5034428642	-0.1355566064	-0.6207459051	 0.113415
H	 0.3039215011	-0.2018610603	 1.1171981673	 0.103439
H	-2.1888578601	-0.1568942671	 0.8168707719	 0.051458
H	-3.1715889812	-0.5770767551	-1.4313051285	 0.104894
H	-2.3245426409	 0.9721751596	-1.4232478599	 0.112384
H	-1.5690170425	-0.4500860157	-2.1689308182	 0.140255
H	-2.4275340378	-2.4510974722	-0.040313467	 0.076639
H	 0.158511478	-2.9594238508	-0.4186613618	 0.293421
H	-2.5758009973	-1.8440643391	 2.4513375495	 0.266752
H	-1.3599141533	-2.5866964515	 3.4363107555	 0.268108
