17
gdb 66142	3.10561	1.3451	1.24553	1.641	68.23	-0.2456	-0.0415	0.2041	1048.629	0.135312	-458.951818	-458.943892	-458.942948	-458.984296	30.475	
O	 0.1263115019	 1.5525522085	-0.2578690712	-0.475085
C	-0.0417337924	 0.1851163417	-0.00479255	 0.285914
C	 0.4122459406	-0.1653760209	 1.4539870911	-0.163891
O	-0.4392176726	-1.182590592	 1.9471953589	-0.249537
C	-1.6521476362	-1.1208366585	 1.2362992004	 0.119973
C	-2.3623705021	 0.1985270796	 1.1163942095	-0.339883
C	-1.4881397435	-0.3124701585	-0.0164837182	-0.124851
C	 0.7661154936	-0.6203537016	-1.0055717845	 0.108699
O	 1.4108427506	-0.095065552	-1.8809784613	-0.277568
H	 0.6783666462	 1.6074001695	-1.0543158367	 0.293652
H	 1.4445181055	-0.5234663106	 1.5205125199	 0.119449
H	 0.3342019257	 0.7628614965	 2.0337974789	 0.126133
H	-2.20125003	-2.0526089205	 1.2938389132	 0.108056
H	-3.4339337447	 0.1704167364	 0.9521131274	 0.121699
H	-2.0201247417	 1.0483413146	 1.6957260444	 0.136377
H	-1.9388744674	-0.5940225587	-0.9611164841	 0.098376
H	 0.7329194763	-1.7212531638	-0.8803946376	 0.112486
