16
gdb 26615	2.32782	1.87419	1.04382	6.0894	77.23	-0.1889	-0.004	0.1849	1079.7223	0.127576	-434.126738	-434.118674	-434.11773	-434.158794	31.485	
N	 0.0257423208	 1.4252099803	 0.0885361731	-0.614639
C	 0.0347493076	 0.0095213684	 0.0159586452	 0.076334
C	-1.2416737183	-0.6927317802	 0.0885301533	 0.341705
O	-2.3055817747	-0.0725908578	 0.1944267598	-0.433168
C	-1.1378973826	-2.1466956139	 0.046523023	-0.248828
C	 0.0627318581	-2.7618221108	-0.0511522708	 0.010391
N	 1.2289611165	-2.0418373508	-0.077052111	-0.387888
C	 1.2202646977	-0.6675807249	-0.0281685906	 0.340182
N	 2.4584940961	-0.0252292797	-0.0786023649	-0.587886
H	 3.1720167807	-0.4821477002	 0.4788240223	 0.244064
H	 2.3472055954	 0.937083975	 0.2275476542	 0.266632
H	 0.2800271904	 1.8491602106	-0.8000020635	 0.240487
H	-0.9412954614	 1.6886695511	 0.2786886354	 0.254434
H	-2.0512152667	-2.7271162028	 0.0768893351	 0.108636
H	 0.1830241867	-3.8366487129	-0.1081839065	 0.128962
H	 2.1001368236	-2.5131150214	-0.2568967841	 0.260582
