21
gdb 77528	2.29339	1.74301	1.25726	2.4399	77.79	-0.2417	0.0728	0.3145	1076.919	0.182188	-424.220529	-424.211614	-424.21067	-424.253138	35.719	
C	-0.1433448632	 1.5335575171	-0.0012721933	-0.432299
C	 0.0190893155	 0.0202640423	 0.013011537	-0.033783
C	 1.1389478297	-0.5969800115	-0.8756870859	 0.42862
O	 1.2742312937	-0.1125630819	-2.1746956543	-0.489967
C	 2.1491699645	-0.2747069307	 0.2726964818	-0.386192
C	 0.8920679675	-0.6042488496	 1.1411671804	 0.428672
O	 0.7095336822	-0.1290977418	 2.4378142023	-0.489972
C	 0.7150296047	-2.115514944	 0.8779552363	-0.281844
C	 0.9049676099	-2.1099228598	-0.6736473475	-0.281831
H	 0.8002281243	 2.0718993336	 0.1135311535	 0.11844
H	-0.5916510243	 1.8533006907	-0.9468892937	 0.122769
H	-0.8026242492	 1.8472875371	 0.8138018934	 0.122857
H	-0.9640367885	-0.4501114761	-0.1089818338	 0.059293
H	 2.0018083948	-0.5795111389	-2.5998118461	 0.276906
H	 3.031974861	-0.9139962426	 0.3784413336	 0.074954
H	 2.4315118377	 0.7760433266	 0.3110802026	 0.108085
H	 1.3137963848	-0.599281774	 3.0225562531	 0.276912
H	 1.4709391331	-2.7165796515	 1.3955299091	 0.085587
H	-0.2730143626	-2.4661420449	 1.1890462726	 0.103603
H	 0.0214530823	-2.4574945236	-1.2163649908	 0.103603
H	 1.7639379219	-2.7079409066	-0.9978535602	 0.085588
