19
gdb 61066	3.51764	1.05841	0.87906	2.4146	77.95	-0.2455	-0.0369	0.2086	1316.0365	0.15892	-423.044948	-423.036232	-423.035288	-423.079047	32.349	
O	-0.1489457688	 1.3827626138	 0.1351386292	-0.434001
C	 0.0133174034	-0.0091319752	 0.1168730636	 0.04131
C	 0.5081369348	-0.4531963483	-1.2422388103	 0.132532
O	 0.7672058678	 0.3432528857	-2.1141228895	-0.266619
C	 0.980650794	-0.4725356668	 1.248064679	-0.050996
C	 0.4491343291	-0.0553277256	 2.6477291106	-0.229462
C	-0.1885041899	-1.3319126659	 3.2535861986	-0.252638
C	 0.4278909382	-2.4410732677	 2.4355195522	-0.056934
C	 1.0743242652	-1.9801389485	 1.3654244797	-0.094246
H	 0.154645649	 1.6925046093	-0.7331906778	 0.293467
H	-0.9567124766	-0.5113147705	 0.283835201	 0.093362
H	 0.6256845243	-1.5429784595	-1.4000489976	 0.101521
H	 1.9494050319	-0.0040902419	 1.0376183652	 0.08318
H	 1.2949058264	 0.2575551444	 3.2666673688	 0.104843
H	-0.2370556857	 0.7907558891	 2.5857803208	 0.125555
H	 0.0214692548	-1.4322413276	 4.3242560237	 0.107698
H	-1.2833142624	-1.3396749257	 3.1583872024	 0.109966
H	 0.3306133864	-3.4885913896	 2.700174496	 0.0969
H	 1.5870315179	-2.5994274794	 0.6373090642	 0.094563
