19
gdb 126904	3.0982	1.05076	0.80363	2.67	80.04	-0.1862	0.0468	0.233	1434.0919	0.161489	-415.39508	-415.385664	-415.384719	-415.429902	34.182	
C	-0.0053639328	 1.5197849586	 0.064512642	-0.395644
C	-0.0700052495	 0.0075466627	 0.2497510949	-0.12636
N	-1.3204041684	-0.5191812395	-0.2904927956	-0.401438
C	-1.6193735591	-1.8593294716	-0.132969641	 0.456438
C	-2.863622878	-2.4536098778	 0.0376956348	 0.012298
N	-4.0683550996	-1.7007602158	 0.1581395973	-0.625848
C	-2.586075003	-3.8406246229	 0.0773333992	-0.052348
N	-1.2918653725	-4.103811353	-0.0449534477	-0.251543
N	-0.719325187	-2.8713406101	-0.1783013287	-0.279262
H	 0.9429679876	 1.9132340655	 0.440249686	 0.123321
H	-0.1000014471	 1.7847501691	-0.9923651469	 0.132653
H	-0.8134337495	 2.0157443657	 0.613881544	 0.122519
H	 0.7650974326	-0.4552608019	-0.2919754451	 0.103818
H	 0.0605876069	-0.2494914633	 1.3142056094	 0.100566
H	-2.1349545719	 0.0300430334	-0.037064488	 0.242948
H	-4.6673878777	-1.8126238506	-0.654533173	 0.238242
H	-4.6107726793	-1.9943928492	 0.9639672082	 0.236977
H	-3.2865929121	-4.6553556942	 0.2026682782	 0.096394
H	 0.2743158904	-2.810865095	-0.309981548	 0.26627
