16
gdb 45747	2.84896	1.54147	1.18704	2.8159	71.	-0.2366	-0.0101	0.2265	1040.1095	0.12572	-434.059041	-434.051264	-434.05032	-434.091905	28.764	
N	-0.0465985737	 1.2599543305	 0.1686748181	-0.545867
C	-0.001816489	-0.0041218836	 0.0797773969	 0.399705
N	 1.0760386985	-0.8894669041	 0.1092947901	-0.345389
C	 0.5943535386	-2.1823597023	-0.0380227619	 0.068765
N	-0.6671450734	-2.2992166264	-0.1804100629	-0.243227
C	-1.2102235857	-0.9355402105	-0.0850212928	-0.102728
C	-2.1757566654	-0.7743530354	 1.0789154633	 0.08814
C	-2.8966855721	-1.9105830772	 1.6580433002	-0.177068
O	-1.7670788298	-1.3302746822	 2.3237989939	-0.238171
H	 0.8780719448	 1.6748005585	 0.2922109356	 0.21032
H	 2.0344565315	-0.6342686258	 0.278356446	 0.260846
H	 1.2916020227	-3.0141331425	-0.0443382789	 0.139059
H	-1.7479148586	-0.6847496697	-1.0075425864	 0.123092
H	-2.5999933571	 0.2272569224	 1.1447231548	 0.114093
H	-3.8572047698	-1.7438910202	 2.143101608	 0.112598
H	-2.7271380916	-2.9024824416	 1.2482250961	 0.135833
