25
gdb 118761	3.08368	0.86813	0.789	0.8653	90.39	-0.2506	0.0816	0.3322	1626.4138	0.226938	-389.481394	-389.470646	-389.469702	-389.517313	39.799	
C	-0.0959491409	 1.3967107932	-0.1209479364	-0.22106
O	-0.1000151115	-0.0087018958	-0.0946170508	-0.238452
C	 0.7404210835	-0.5843982994	-1.0737592962	-0.113361
C	 0.6666760811	-2.1000632603	-0.9665299691	 0.335006
C	 1.1537426652	-2.5771591785	 0.4030162218	-0.447582
C	-0.6963713891	-2.738090653	-1.3814627411	-0.263671
C	 0.0686086496	-3.7681173952	-2.2595379564	 0.061042
C	-0.4748512088	-4.0907083112	-3.6431819702	-0.406513
C	 1.3327926052	-2.8675435845	-2.1510325549	-0.292944
H	 0.90806322	 1.807846339	 0.0723702857	 0.101564
H	-0.4427584961	 1.7895146364	-1.090436856	 0.101009
H	-0.7750642359	 1.7430537041	 0.6623169557	 0.12479
H	 0.4244473735	-0.2600081902	-2.0807549921	 0.073636
H	 1.7824978821	-0.2416277889	-0.9351076143	 0.078358
H	 0.5548861674	-2.1273234214	 1.1993166691	 0.130791
H	 1.0852367266	-3.6662122234	 0.4929714401	 0.107091
H	 2.201074293	-2.2949691753	 0.5647266762	 0.104745
H	-1.3248719973	-3.1273835792	-0.5763672963	 0.094124
H	-1.2990464123	-2.0529613441	-1.9867387633	 0.090766
H	 0.2222936683	-4.6986586012	-1.7027646922	 0.069591
H	-0.6383061456	-3.1749965532	-4.2235954885	 0.107707
H	 0.2187294722	-4.7236559107	-4.2086621322	 0.111331
H	-1.4327704122	-4.619757193	-3.5817566188	 0.112629
H	 1.4539437995	-2.2343181665	-3.037475	 0.088026
H	 2.2884853025	-3.3582514675	-1.9453357098	 0.091376
