14
gdb 12618	3.6796	2.09118	1.345	4.4056	67.84	-0.2253	-0.0796	0.1457	862.0707	0.108099	-378.760395	-378.752961	-378.752017	-378.792894	26.214	
C	 0.0186946511	 1.4640647435	 0.0261408957	-0.33993
N	-0.0337564667	 0.017523503	 0.0113821234	-0.07026
C	-0.0161918827	-0.7958227997	-1.1017519655	 0.002072
C	 0.0269051026	-2.124625348	-0.816455419	-0.305985
C	 0.0511547439	-2.2445861571	 0.6323588836	 0.340213
O	 0.0828164675	-3.2019021506	 1.3769181408	-0.34066
C	 0.0258384431	-0.7864758792	 1.1455629158	 0.269328
N	 0.0573770065	-0.357921796	 2.3369180044	-0.51787
H	 1.0500110909	 1.8360786408	 0.0509644294	 0.140578
H	-0.4813749838	 1.8585632007	-0.8619219881	 0.134724
H	-0.4963614546	 1.8219971358	 0.9193499897	 0.170267
H	-0.0447161735	-0.3279749232	-2.0781170528	 0.144107
H	 0.0279031509	-2.9348667262	-1.5269559532	 0.124685
H	 0.0916529848	-1.1706199637	 2.9604142957	 0.24873
