21
gdb 39297	2.55624	1.98897	1.78426	1.3534	79.91	-0.2362	0.0794	0.3157	915.2513	0.187674	-387.093972	-387.087487	-387.086542	-387.124375	28.331	
C	 0.0405507115	 1.5225693927	 0.1938170042	-0.269851
C	 1.5728393541	 1.3534447634	 0.0174812466	 0.114488
O	 2.2140986191	 1.004570247	 1.2360802252	-0.273414
C	 1.3961225539	 0.1710878287	 2.0601231624	-0.079628
C	 0.5358797409	-0.7983381416	 1.2294658263	-0.037116
C	 1.3954968373	-1.89774081	 0.5697569997	-0.203302
C	 2.1299316544	-1.1743972192	-0.5902989438	-0.236632
C	 1.2712587787	 0.0721998506	-0.8409772022	-0.006614
C	-0.0328675157	-0.0146951263	 0.0120218225	-0.039704
H	-0.3304082025	 1.9851181026	 1.1117908485	 0.097091
H	-0.3928683599	 2.0417562177	-0.6649517829	 0.0989
H	 2.1626670952	 2.1609017578	-0.4211745536	 0.071178
H	 2.0772881767	-0.3659951675	 2.7277973963	 0.101511
H	 0.7450408605	 0.7961417578	 2.6881454925	 0.092065
H	-0.2445121268	-1.2143851166	 1.8752866813	 0.063719
H	 2.0754131195	-2.379324613	 1.2795207864	 0.092109
H	 0.7410309309	-2.680573436	 0.1693110219	 0.092697
H	 3.1452237135	-0.8911861236	-0.2977840824	 0.111263
H	 2.205927507	-1.8054236373	-1.480066805	 0.090833
H	 1.1146381551	 0.3276337443	-1.8912921947	 0.062584
H	-0.9366574334	-0.4667576715	-0.4033040293	 0.057822
