19
gdb 117242	4.33187	0.78395	0.73403	4.0706	75.26	-0.2427	-0.0223	0.2204	1594.6736	0.156491	-460.147502	-460.137844	-460.1369	-460.182915	34.552	
C	-0.0548675426	 1.3565428227	 0.0535120607	-0.226594
O	 0.0256344459	-0.0498141219	 0.0121948155	-0.211438
C	-1.224078326	-0.6627534418	-0.0097659832	-0.157613
C	-1.0807582962	-2.1773694288	-0.0567806088	 0.387015
O	 0.0098881971	-2.7227935011	-0.0812363838	-0.354014
C	-2.3451176998	-2.9380709105	-0.0368691733	-0.202651
C	-2.3882666977	-4.2718467291	-0.7974496067	-0.324728
C	-2.298031874	-4.3133454876	 0.68195852	 0.158505
O	-1.1657564197	-4.7224359718	 1.3498510565	-0.417424
H	 0.9684750917	 1.7374237635	 0.0673061938	 0.136348
H	-0.5752892282	 1.7624524078	-0.8283928482	 0.105967
H	-0.5796806565	 1.7097789308	 0.9552118576	 0.106752
H	-1.8293100526	-0.4049861241	 0.8803453811	 0.111815
H	-1.8248681117	-0.349308251	-0.8849854835	 0.110005
H	-3.2629834132	-2.3633411166	 0.0273954592	 0.092261
H	-3.3236633216	-4.5236508655	-1.2846810966	 0.122722
H	-1.4887364722	-4.514330148	-1.3539407073	 0.139568
H	-3.1921103215	-4.5669065624	 1.2425591619	 0.116489
H	-0.4061521812	-4.3047580646	 0.9065826552	 0.307016
