22
gdb 114519	2.92495	1.20104	1.0009	1.9872	83.45	-0.2112	0.0788	0.29	1307.5249	0.193521	-404.303007	-404.293788	-404.292844	-404.337102	34.571	
C	 0.3185838809	 1.4388908367	 0.1939986451	-0.379297
C	-0.0243545655	-0.0394407621	-0.0168357719	-0.19511
C	 0.5286287165	-0.5798178673	-1.3188031112	 0.158327
O	 1.9840585959	-0.4679859892	-1.4250333549	-0.323678
C	 2.1128321464	-1.8368746676	-1.8467435344	 0.111053
C	 2.4372057891	-2.829139551	-0.7145408049	-0.192393
N	 1.0013673433	-2.8601505626	-0.3402161406	-0.062631
C	 0.3893754274	-4.1476051843	-0.105757954	-0.326658
C	 0.6189861282	-2.1051435986	-1.554397525	-0.087069
H	 1.4024814138	 1.5834878135	 0.1838307195	 0.135908
H	-0.1102911797	 2.0671351958	-0.5949146887	 0.108542
H	-0.0655865355	 1.7985513449	 1.1532819266	 0.108399
H	 0.3700283094	-0.6506043114	 0.8002638303	 0.113379
H	-1.1141695838	-0.1787855448	-0.0262977046	 0.087903
H	 0.0685839095	-0.0691144856	-2.1791157837	 0.066044
H	 2.623890051	-1.9410986994	-2.8058535929	 0.081056
H	 2.799701625	-3.7916871726	-1.1098486173	 0.086434
H	 3.1130994949	-2.4786731423	 0.0722907396	 0.109901
H	 0.8175238781	-4.5997941545	 0.7952764398	 0.123378
H	-0.6854918414	-4.024449257	 0.0633940372	 0.121611
H	 0.5255397053	-4.8637627625	-0.9395039378	 0.087793
H	-0.0942114188	-2.5901296281	-2.2253442663	 0.067109
