15
gdb 129816	3.16512	1.42978	0.98852	5.465	76.03	-0.2094	-0.0469	0.1625	1123.4499	0.11445	-450.115604	-450.10777	-450.106826	-450.14771	30.696	
N	 0.0897505794	 1.4020726671	 0.0828947893	-0.598622
C	-0.0235879393	 0.0244463615	 0.0177274873	 0.289092
C	-1.1728936356	-0.6816850665	 0.0530717393	-0.247113
C	-1.1536560323	-2.1234227065	 0.0035791606	 0.407342
N	-2.2044720895	-2.8394240479	 0.0522284331	-0.550231
O	 0.0892079741	-2.7297802014	-0.1453683851	-0.295942
N	 1.2894084282	-2.0230317845	-0.0940041568	-0.16921
C	 1.2232968071	-0.7380785281	-0.0328946819	 0.351727
N	 2.4211650049	-0.0187883645	-0.0761435444	-0.575633
H	 0.8518025289	 1.7796871001	-0.464626935	 0.265862
H	-0.7736130921	 1.9084367622	-0.0540753931	 0.260476
H	-2.1485900936	-0.213739076	 0.0987366389	 0.117132
H	-1.9634432752	-3.8291952586	-0.0127406705	 0.220405
H	 3.2194438836	-0.6434295547	-0.0822279879	 0.263683
H	 2.4993941914	 0.6575323776	 0.6755525365	 0.261031
