18
gdb 106857	2.15502	1.60512	1.11302	1.4949	81.22	-0.2004	0.0272	0.2276	1141.7979	0.145866	-401.848856	-401.839879	-401.838935	-401.882648	33.796	
C	-0.6741324011	 0.6171427872	 0.1694030106	-0.262916
O	 0.702906557	 0.4935320569	-0.138196696	-0.269181
C	 1.0376136539	-0.3464096595	-1.1692291372	 0.349958
C	 0.1696867249	-0.8292880296	-2.2892215427	-0.379292
C	 0.9015571047	-1.8708097254	-1.4493587417	 0.134813
N	 2.3012305911	-1.9231121814	-1.9538179171	-0.360623
C	 2.507984557	-0.4913359365	-1.5320482665	-0.233664
C	 0.2784057316	-2.9445141922	-0.7690642404	 0.193487
C	-0.2188132761	-3.86400816	-0.1690816519	-0.44555
H	-1.2381308956	 1.0628544994	-0.6603557194	 0.119716
H	-1.1201961775	-0.352834344	 0.4253552556	 0.129987
H	-0.7363709519	 1.2769598679	 1.0367354766	 0.134126
H	-0.8978572215	-0.7956535277	-2.1026113824	 0.127605
H	 0.4614726134	-0.7029406859	-3.33040565	 0.118838
H	 2.8515839676	-2.5362254743	-1.3591924809	 0.227234
H	 2.8917678143	 0.1556484069	-2.327690399	 0.108697
H	 3.1377107957	-0.3941117748	-0.6432954263	 0.118034
H	-0.6662611374	-4.6763411669	 0.3475662685	 0.188732
