19
gdb 67212	2.6644	1.68512	1.31052	2.3333	74.88	-0.2315	0.0755	0.307	1024.8569	0.15802	-422.965209	-422.95689	-422.955946	-422.997256	33.663	
C	-0.0111726838	 1.5706674486	-0.0018659523	-0.469293
C	 0.0697307675	 0.0501006461	 0.0315982445	 0.43782
O	-1.2327363689	-0.5084138572	 0.1640548171	-0.479946
C	 0.766001407	-0.7101143166	-1.0914451386	-0.139329
C	 2.2779238622	-0.8136346424	-0.7275724125	-0.165896
C	 2.477618901	-0.1257367703	 0.6230308664	-0.248394
C	 1.07443491	-0.6673123467	 0.9978127694	-0.20653
C	 1.2537082946	-1.7652418499	-0.1561599916	 0.390042
O	 1.078852048	-3.1190753578	-0.222106646	-0.451129
H	 0.9537851937	 2.035537956	-0.215440168	 0.121732
H	-0.7188007774	 1.8802742455	-0.777118268	 0.125416
H	-0.3696344632	 1.9635602372	 0.9584030789	 0.102236
H	-1.6093522192	-0.1757153151	 0.9862347739	 0.272009
H	 0.4317509284	-0.8322656552	-2.1137993021	 0.091021
H	 3.0041034257	-0.9996151662	-1.5090615273	 0.087174
H	 3.2695762326	-0.6141772226	 1.1993888419	 0.092952
H	 2.6296738376	 0.9576701682	 0.6581156363	 0.090604
H	 0.7826239977	-0.8429551311	 2.032846656	 0.060644
H	 1.8211597765	-3.5470091003	 0.2198070621	 0.288868
