18
gdb 74296	2.92127	1.18654	1.13071	1.2574	79.48	-0.2501	0.019	0.2691	1197.1884	0.145527	-401.942641	-401.933283	-401.932339	-401.977228	34.314	
C	 0.0170597346	 1.4895870386	-0.0768823351	-0.475258
C	-0.0490178564	 0.0009390553	-0.0681889876	 0.407291
N	-1.0572045678	-0.7051202605	 0.2485655178	-0.318432
C	-0.661321991	-2.1264003368	 0.0846597447	 0.07179
C	-1.5433028311	-2.7777491456	-0.9955869481	-0.417208
C	 0.8435547038	-2.035083635	-0.3503093887	-0.147896
O	 1.1010203408	-0.6236015672	-0.4456785883	-0.25251
C	-0.8052822111	-2.8432620572	 1.354248284	 0.346277
C	-0.904100154	-3.4555810313	 2.3834832747	-0.488013
H	 0.8023995834	 1.8349995206	 0.6026216324	 0.14807
H	 0.2703605229	 1.8513644032	-1.078221301	 0.145824
H	-0.9428112304	 1.9016548425	 0.2315666038	 0.154548
H	-1.4220662773	-2.2434170038	-1.9425917073	 0.117702
H	-1.2662711498	-3.8263299902	-1.1392831018	 0.121984
H	-2.5929637691	-2.7283541459	-0.6991720181	 0.141283
H	 1.5236043299	-2.4677305142	 0.3861534581	 0.129023
H	 1.0249868462	-2.4903563579	-1.3279755019	 0.118008
H	-0.9999251838	-3.9850069246	 3.2990856324	 0.197517
