15
gdb 44691	3.27237	1.41688	1.19123	4.1017	66.86	-0.2507	0.0076	0.2583	1024.2778	0.114463	-453.980574	-453.973359	-453.972415	-454.012824	27.287	
N	-0.0952810411	 1.2660963744	 0.5413765428	-0.52218
C	-0.0448295431	 0.0893479509	 0.098864673	 0.399885
C	-1.2403243557	-0.8218025559	-0.1272359319	-0.314085
C	-0.6905574274	-1.9829146544	-0.9506813604	-0.004917
N	-0.6082403182	-1.7850425423	-2.4018786477	-0.329701
C	 0.7541920161	-1.5976820306	-2.4705396175	 0.414573
O	 1.5111388244	-1.3808072212	-3.3728176806	-0.343112
C	 0.8568792604	-1.7758441539	-0.9186002695	-0.066054
O	 1.1202463389	-0.5755506636	-0.2132559812	-0.233117
H	 0.8399956765	 1.6697993936	 0.6126170082	 0.231819
H	-1.6093697714	-1.1710582951	 0.8424943922	 0.142488
H	-2.0521971575	-0.2800146108	-0.6145520172	 0.144625
H	-1.0709182387	-2.9637206733	-0.6595323643	 0.101369
H	-1.3221393854	-1.7589515022	-3.115804282	 0.258301
H	 1.505919792	-2.5715280957	-0.5536963539	 0.120107
