19
gdb 84449	2.83034	1.53098	1.25035	0.9495	75.75	-0.2459	-0.0013	0.2445	1060.6001	0.159378	-423.017923	-423.009662	-423.008718	-423.050598	32.172	
C	-0.2898164682	 1.4663387762	 0.0134980162	-0.457507
C	 0.0362451473	-0.0129029088	 0.0009954517	 0.412178
O	-1.1418419445	-0.8190032721	 0.3129526021	-0.327725
C	-0.4198098949	-1.5365831093	 1.3345986458	-0.087291
C	 0.8425763638	-0.6683479948	 1.1558024665	-0.158803
C	 2.0972335235	-1.3294789347	 0.5314986819	 0.077884
O	 2.3560806243	-2.6654060556	 0.9459612762	-0.431004
C	 1.8414526681	-1.1990600148	-0.9565415105	-0.132974
C	 0.7379446911	-0.5093262211	-1.2414637279	-0.1162
H	 0.6131376858	 2.0648716502	-0.1453277523	 0.121057
H	-1.0016375647	 1.7028307011	-0.7847099402	 0.127192
H	-0.7421565356	 1.7520901606	 0.9672136869	 0.12299
H	-0.9143161031	-1.4587613044	 2.3088918082	 0.108029
H	-0.3051490264	-2.6018160899	 1.0929553877	 0.082136
H	 1.0728482676	-0.0333783506	 2.0112291382	 0.077959
H	 3.0011758441	-0.784220954	 0.8282016716	 0.094897
H	 1.6844579467	-3.2307522775	 0.5491139165	 0.279476
H	 2.5102267743	-1.656041365	-1.6788462554	 0.104667
H	 0.3514096506	-0.3102364055	-2.2356961732	 0.103039
