14
gdb 46089	4.67262	1.05615	0.90372	2.8077	69.71	-0.2593	-0.0817	0.1776	1198.2159	0.100983	-436.705687	-436.698041	-436.697096	-436.738377	27.862	
O	-0.0287230747	-0.0282677663	 0.22644237	-0.304173
C	-0.012868206	 1.1607386456	-0.0029544537	 0.355627
C	-1.3014073451	 1.9732570521	-0.1130948846	-0.190506
O	-1.1549771078	 3.136903585	-0.9144597721	-0.252262
C	-0.1264944542	 3.9918922509	-0.4692473986	-0.046996
C	 1.1932703143	 3.2719595069	-0.2782113126	-0.058326
C	 1.2335085977	 1.9477498707	-0.1101507343	-0.172419
C	 0.0119043043	 5.0759453437	-1.4565675553	 0.27306
N	 0.1541353703	 5.9437589493	-2.2039642227	-0.300892
H	-2.0777514535	 1.3650979035	-0.57961588	 0.155098
H	-1.6352441735	 2.2335801982	 0.9066930402	 0.124646
H	-0.4073860351	 4.4677047486	 0.4912840491	 0.137492
H	 2.0898867862	 3.8844283877	-0.2745689207	 0.147454
H	 2.1661325071	 1.407627204	 0.0155843354	 0.132198
