18
gdb 30292	2.96356	1.55528	1.11819	3.5271	78.57	-0.2013	0.0406	0.2419	1083.6026	0.15095	-401.98973	-401.98208	-401.981135	-402.021861	30.154	
O	-0.2543835847	 1.5081635322	-0.2078890489	-0.432795
C	 0.0700342553	 0.130244248	 0.0017476878	-0.005403
C	-1.1935168005	-0.7840884916	 0.1744768053	-0.223977
C	-1.3993748024	-1.5952713756	-1.1476137821	-0.36244
C	-0.0618713013	-1.4104646672	-1.7889059469	 0.296835
C	 0.7590840715	-0.5025811052	-1.170157095	 0.255032
C	 1.9666213115	-0.4231373974	-1.9225058509	-0.33751
C	 1.8269586642	-1.3016573939	-2.9740665156	-0.070871
N	 0.5813596031	-1.9000412684	-2.8889611888	-0.370508
H	-0.4975374374	 1.5992578372	-1.1355378895	 0.270469
H	 0.6628878799	 0.1354722745	 0.9222231517	 0.081167
H	-1.0218163881	-1.4822400922	 0.9993102723	 0.105571
H	-2.059786876	-0.1722742797	 0.4366642847	 0.106555
H	-1.652796348	-2.6414870356	-0.9407419579	 0.106444
H	-2.2176566248	-1.1926533423	-1.7596686932	 0.107692
H	 2.8334574594	 0.18933666	-1.7269464006	 0.098744
H	 2.5052575961	-1.5601603614	-3.7718796375	 0.116532
H	 0.2305088323	-2.5912733713	-3.5286246749	 0.258463
