25
gdb 114887	2.92499	1.14676	1.03242	0.1319	91.57	-0.2713	0.0772	0.3486	1338.1517	0.231789	-352.371481	-352.362695	-352.361751	-352.404887	35.124	
C	 0.1967351892	 1.4865979207	 0.2314475481	-0.382183
C	 0.0749033447	-0.0352304332	 0.0937479611	-0.195956
C	 0.641052838	-0.5533400027	-1.2241761148	 0.063184
C	 2.1831705137	-0.5076796884	-1.4395882359	-0.25616
C	 2.1623520078	-1.9820307204	-1.9399981608	 0.010265
C	 2.9271950835	-3.0012471226	-1.0863005468	-0.210596
C	 2.0649647589	-3.1606820188	 0.1817372808	-0.20752
C	 0.615495401	-3.0758645348	-0.3406077129	-0.212664
C	 0.650953503	-2.0890807984	-1.5258432653	-0.047284
H	 1.2424638446	 1.807388887	 0.171101509	 0.117879
H	-0.3514746738	 2.000306494	-0.5663451569	 0.111965
H	-0.2028796266	 1.8354766386	 1.1888308668	 0.10884
H	 0.5890231485	-0.5159108016	 0.9363294583	 0.09431
H	-0.9809355785	-0.3264883784	 0.1757086927	 0.092222
H	 0.1338613545	-0.031478598	-2.0446557214	 0.061773
H	 2.547454442	 0.2341724361	-2.1546172032	 0.09175
H	 2.7464261341	-0.379552756	-0.5082922682	 0.089653
H	 2.3711888458	-2.0802767642	-3.0073601759	 0.057409
H	 2.9860480732	-3.9601044427	-1.6166914511	 0.091139
H	 3.9539571694	-2.6872060682	-0.8693367552	 0.090462
H	 2.2672655984	-4.0914560329	 0.7198551885	 0.090851
H	 2.2670655954	-2.3408475593	 0.8812130264	 0.099251
H	 0.3060786939	-4.0599817717	-0.7122498416	 0.091345
H	-0.1010386367	-2.7941488495	 0.4369731845	 0.093703
H	-0.0563278839	-2.3839077544	-2.3047144163	 0.056359
