17
gdb 29757	5.04015	1.20408	1.10185	4.2613	79.38	-0.2137	0.0168	0.2305	1121.4517	0.138243	-380.840945	-380.833841	-380.832897	-380.872465	27.84	
C	-0.149076172	 1.4348199852	 0.0936556471	-0.424445
C	 0.077803192	-0.0603874172	 0.1148265332	-0.014349
C	 1.4541517193	-0.566479919	-0.2454046027	-0.038983
C	 0.9769858286	-0.6388552588	 1.2068418352	-0.237162
C	 1.0130190457	-2.1443784622	 1.0358159983	 0.227041
C	 0.5673879615	-3.4328669944	 1.1817822863	-0.190057
N	 0.7788825746	-4.109645256	-0.0088149615	-0.259123
C	 1.2577288983	-3.2381834804	-0.8770400295	-0.028243
N	 1.4793993873	-2.0424084662	-0.2572027305	-0.003073
H	 0.7484972002	 1.9794032911	 0.4055687061	 0.121548
H	-0.4170401926	 1.7765213795	-0.9113469791	 0.129634
H	-0.9607031883	 1.7140323892	 0.7728953091	 0.132797
H	-0.7677654865	-0.6673186459	-0.1994095688	 0.112953
H	 2.2416897236	 0.0207042867	-0.698028354	 0.121038
H	 1.3200128228	-0.0554396077	 2.0498245336	 0.11122
H	 0.1530668886	-3.935717997	 2.041126846	 0.108298
H	 1.5315098469	-3.4527452667	-1.8985329188	 0.130906
