19
gdb 73464	2.85579	1.81445	1.5402	1.5799	73.08	-0.2221	0.0895	0.3116	946.0046	0.161448	-423.026849	-423.019631	-423.018687	-423.058191	29.259	
C	 0.0679249361	 1.5000421418	-0.0797282715	-0.475199
C	 0.0196293596	-0.010334047	-0.0388932191	 0.226992
C	-1.2575270071	-0.6635485607	-0.5559700206	-0.270181
C	-1.1929311237	-2.2141218559	-0.4655744582	-0.224046
C	 0.1541448046	-2.6204400159	 0.1244408958	 0.166967
O	 0.3085405074	-2.0164799666	 1.4045704636	-0.266826
C	 0.7352745209	-0.7042893338	 1.1106044724	 0.011284
C	 1.3230757177	-0.7604122395	-0.2701637556	 0.011282
O	 1.2003370254	-2.1016243977	-0.6902023857	-0.266822
H	 1.0178167255	 1.8827837113	 0.3090175581	 0.11574
H	-0.0427037579	 1.8697698503	-1.1058686836	 0.120563
H	-0.7365036791	 1.9360280515	 0.5241866998	 0.120562
H	-2.1081011937	-0.2814507244	 0.0196921883	 0.105824
H	-1.4221637216	-0.3468256789	-1.5920402582	 0.10582
H	-1.9887046411	-2.6097500921	 0.1721935133	 0.107687
H	-1.2972232875	-2.6756236777	-1.451812763	 0.10769
H	 0.2847929341	-3.7002925045	 0.223953992	 0.092739
H	 1.1447920168	-0.1843987638	 1.9674010984	 0.104962
H	 2.2390139936	-0.2888492064	-0.6029946662	 0.104963
