16
gdb 34936	2.85114	1.51552	1.23328	5.6695	73.15	-0.2745	0.0268	0.3013	1027.0527	0.124475	-400.706511	-400.699024	-400.69808	-400.738661	28.706	
N	 0.0495365256	-1.1627793517	 0.0654226196	-0.343446
C	 0.0838291858	-0.006834971	 0.0550813845	 0.309993
C	 0.0933404594	 1.4336964172	 0.0586596274	-0.190409
C	 0.5072784107	 2.2450543777	 1.2648955622	-0.064593
C	 1.6240443815	 1.5266743785	 2.0407079981	-0.351486
C	 2.4825996148	 1.6209095486	 0.7603270954	 0.466087
C	 3.9163039055	 1.8796893075	 0.6418561607	-0.269663
O	 3.340908974	 0.6228141892	 0.2546621178	-0.255894
C	 1.3586216995	 2.2736496438	-0.0084022238	-0.162376
H	-0.7303633445	 1.8663189166	-0.5020837141	 0.139271
H	-0.1412096302	 3.0167866286	 1.6572734323	 0.111211
H	 2.0272624386	 2.1162523505	 2.8665442064	 0.120055
H	 1.3902726672	 0.5179862527	 2.3901029333	 0.141821
H	 4.2943675963	 2.4911809483	-0.1768439086	 0.120214
H	 4.544025302	 1.8537925045	 1.5317394672	 0.121037
H	 1.456458334	 3.041906039	-0.7655827284	 0.108177
