18
gdb 77072	2.79693	1.26588	1.14935	4.3989	72.43	-0.2766	0.0006	0.2772	1147.281	0.144716	-439.083751	-439.074044	-439.073099	-439.118793	35.083	
C	-0.4634772724	 1.548210004	 0.1026843842	-0.419341
C	-0.0882512842	 0.0755611488	 0.0629122759	 0.388962
C	-1.245916694	-0.8186640317	-0.349831659	-0.434632
O	 1.0620830084	-0.139266219	-0.8309543276	-0.319627
C	 1.9157259736	-0.545425138	 0.2431022483	-0.066595
C	 3.0425871154	 0.3597941252	 0.4845835339	 0.282167
N	 3.9415069275	 1.051325203	 0.7066321524	-0.321539
C	 0.7447335163	-0.4338053251	 1.2733392369	 0.01568
O	 0.8566086416	 0.4977382775	 2.3057730248	-0.406422
H	 0.3843938204	 2.16448741	 0.4042796153	 0.144982
H	-0.7919005913	 1.8616502864	-0.8929491937	 0.124666
H	-1.2805359831	 1.719787296	 0.8094889116	 0.125491
H	-1.6145133261	-0.5283796813	-1.3383045976	 0.133582
H	-0.9363481161	-1.8667945677	-0.395973921	 0.118604
H	-2.0714038851	-0.7287511584	 0.3640305238	 0.126395
H	 2.3086239089	-1.5583537671	 0.0907655826	 0.121145
H	 0.4261234876	-1.4183529681	 1.6375399175	 0.086509
H	 1.4813528627	 0.1742935054	 2.9635219017	 0.299973
