16
gdb 84269	3.26296	1.46797	1.11031	3.509	71.86	-0.2363	-0.0267	0.2096	1060.7145	0.124847	-437.85055	-437.842976	-437.842032	-437.882598	29.129	
O	 0.2555475869	 1.4030202877	-0.0744139852	-0.439626
C	 0.1369269278	 0.0099642276	 0.0096780215	 0.033173
C	 0.6756379793	-0.5966821604	 1.3031423012	-0.249846
C	-0.0814879754	-1.6406924596	 1.63566293	 0.247541
C	-0.749819559	-2.3752236284	 2.7743108798	-0.249565
N	-2.0580913487	-2.1263737472	 2.0587752657	-0.325487
C	-1.3192512569	-1.8152500405	 0.8019049262	-0.125337
C	-1.3634078027	-0.4290677267	 0.1390061392	 0.330355
O	-2.279606461	 0.3159975638	-0.0708450913	-0.302592
H	-0.6502002426	 1.7441614196	-0.1253798407	 0.296321
H	 0.580471772	-0.4555513273	-0.8860082706	 0.099266
H	 1.4629491649	-0.1216582566	 1.8749859954	 0.119784
H	-0.4877781944	-3.4401087179	 2.8374480793	 0.112006
H	-0.6805998302	-1.9278823858	 3.7703189186	 0.129148
H	-2.6479225351	-2.9497774669	 1.9919679296	 0.225733
H	-1.3217994849	-2.6131359712	 0.0463050414	 0.099124
