22
gdb 59960	2.87206	0.8295	0.78074	3.8351	79.34	-0.2581	0.0203	0.2785	1599.2642	0.191666	-441.532334	-441.521166	-441.520222	-441.56954	40.198	
C	-0.1559962239	 1.5508384228	 0.1514786759	-0.390717
C	-0.0529222677	 0.0267894857	 0.0021487806	 0.051147
C	-1.4475439511	-0.6127828215	-0.0074665907	-0.395196
C	 0.7320819926	-0.387878098	-1.2552933994	-0.188384
C	 2.2239747637	 0.0004862668	-1.2136582347	 0.017976
O	 2.8518236932	-0.5259465752	-0.0736052288	-0.434509
C	 2.9636285175	-0.5283253345	-2.453115726	 0.385884
N	 2.638937876	 0.0288842128	-3.6446421365	-0.51797
O	 3.7909457584	-1.4185302709	-2.3356645405	-0.37918
H	 0.8265556399	 2.0254613431	 0.2317644076	 0.119686
H	-0.6784867026	 1.9970529249	-0.7044472858	 0.101473
H	-0.7187769979	 1.8142607158	 1.0528617054	 0.113463
H	 0.5013297053	-0.3650089546	 0.8627725312	 0.101968
H	-2.0364570261	-0.2655740101	-0.8657128655	 0.106002
H	-1.3864633931	-1.7045331704	-0.0661700409	 0.111973
H	-2.004623071	-0.3562231713	 0.8996767506	 0.110707
H	 0.6767022376	-1.4774844541	-1.3721856143	 0.102268
H	 0.2596356514	 0.0504685143	-2.1461213676	 0.074607
H	 2.3169854731	 1.0977902995	-1.2030574274	 0.08208
H	 3.4764197226	-1.185323363	-0.4234315845	 0.29204
H	 1.9953705665	 0.7970150333	-3.7162632913	 0.266544
H	 3.1133838156	-0.2877849654	-4.4742576373	 0.268141
