19
gdb 90246	2.80471	1.66582	1.44877	1.8216	75.17	-0.2378	0.0604	0.2982	972.8952	0.160612	-422.909283	-422.902132	-422.901188	-422.940461	30.01	
O	 0.0647464477	 1.3533365621	-0.1419803375	-0.442234
C	 0.0201435903	-0.0618652914	-0.0832976668	 0.153286
C	 0.481873607	-0.6593799804	 1.279627462	-0.302457
C	-0.8735526241	-1.2368378635	 1.7605846651	 0.425423
C	-1.3025541635	-2.0344376627	 0.4773303645	-0.3328
C	-1.4378409626	-0.5106722757	-0.0481640771	-0.103696
C	-1.9288505926	-0.2420647639	 1.4295996596	-0.01264
C	-1.6166718111	 0.2760329339	 2.8710623997	-0.179841
O	-1.0906327993	-1.0775796591	 3.1972779721	-0.36986
H	 0.9884772377	 1.6225608497	-0.1609557352	 0.282721
H	 0.5520666088	-0.5010288238	-0.9391311424	 0.064026
H	 1.2363588427	-1.4450567692	 1.1802086603	 0.096435
H	 0.8768302861	 0.1177572704	 1.9364610254	 0.101878
H	-0.570742143	-2.6758956795	-0.025688637	 0.096325
H	-2.2722640048	-2.5265836865	 0.5473443109	 0.118346
H	-2.056666439	-0.272992467	-0.9134159904	 0.080184
H	-2.9029725542	-0.7297977639	 1.5180605502	 0.091121
H	-0.8387588078	 1.0359028538	 2.974434824	 0.118537
H	-2.4805689683	 0.5199176867	 3.4931154829	 0.115247
