20
gdb 9853	3.23207	1.37989	1.32076	1.5532	71.28	-0.2535	0.0822	0.3357	1074.8277	0.173739	-386.115305	-386.105642	-386.104698	-386.149823	34.472	
C	 0.183306634	 1.2820631031	 0.3443484498	-0.232007
O	 0.0392061366	-0.0982591442	 0.1034828237	-0.252082
C	 0.5008455107	-0.5343823231	-1.167972202	 0.082811
C	 2.0282351134	-0.5342775979	-1.2829855565	-0.419785
C	-0.0929330474	-1.9230659373	-1.381118586	 0.423403
C	 0.2310811079	-2.976334174	-0.3467383318	-0.471491
C	-1.3117472109	-2.0391236325	-2.1922276762	-0.232288
O	-0.0287252188	-2.3503435917	-2.7491319322	-0.287656
H	 1.2350521759	 1.5920196118	 0.4241838044	 0.109381
H	-0.2939410345	 1.8832128979	-0.4457103343	 0.103397
H	-0.3124098101	 1.4951491794	 1.2948309521	 0.127482
H	 0.0922168052	 0.1226969971	-1.9530440099	 0.06539
H	 2.3220171001	-0.9910740849	-2.232301814	 0.138417
H	 2.4293882692	 0.4825995806	-1.2612803113	 0.11522
H	 2.4828401554	-1.0971138736	-0.4627417221	 0.12357
H	-0.074749168	-2.6327061325	 0.6447520957	 0.1407
H	-0.286092174	-3.9103079439	-0.5789414083	 0.120847
H	 1.3053676896	-3.1839658204	-0.3193464658	 0.124628
H	-1.9745325794	-2.8913930527	-2.0481502404	 0.110944
H	-1.7895269448	-1.1442050313	-2.5888499349	 0.109118
