12
gdb 3027	14.21654	1.04443	1.0355	5.7116	70.75	-0.2671	-0.0389	0.2282	1072.5538	0.090565	-286.218259	-286.211585	-286.210641	-286.249199	23.41	
N	 0.0344628205	-3.7173328943	-0.0302092496	-0.341821
C	 0.0265409193	-2.5549068651	-0.0187033751	 0.204401
C	 0.0186382057	-1.1915511028	-0.004271314	 0.000056
C	 0.016774289	 0.0187875117	 0.0120081654	 0.135561
C	 0.0089263719	 1.4436283699	 0.027552155	-0.182561
C	 0.4957163862	 2.1943943848	 1.2631085995	-0.249893
C	 1.3264898374	 2.2125180442	 0.0206017797	-0.249897
H	-0.8140482203	 1.8974545336	-0.5160841716	 0.132546
H	-0.0584961045	 3.0848930095	 1.5356317024	 0.134195
H	 0.8366882459	 1.5953625424	 2.0986357957	 0.14161
H	 2.2368949731	 1.6259094276	 0.004485235	 0.14161
H	 1.3544725957	 3.1157168685	-0.5776096323	 0.134193
