15
gdb 82661	4.47126	1.37893	1.32398	1.7696	64.45	-0.2364	-0.0236	0.2128	945.6398	0.113835	-457.723223	-457.716748	-457.715804	-457.754007	26.254	
O	 0.1636523255	 1.4231151068	-0.0494358626	-0.441562
C	 0.0256247901	 0.0420208204	-0.0245411515	 0.181402
C	 0.1261828512	-0.6943047091	 1.3314624527	 0.021631
O	-0.8448681228	 0.0478565275	 2.1125578606	-0.291037
C	-2.0208952329	-0.3120886421	 1.351481222	-0.0853
C	-1.372369759	-0.6205740584	-0.0598303574	-0.137824
C	-0.7508280638	-1.8608409238	 0.749041231	-0.224901
C	-2.0397592144	-1.8407975889	 1.5547881583	 0.484288
O	-2.8226930636	-2.6540827499	 1.943092332	-0.319486
H	-0.2256388944	 1.7445369588	 0.7752163572	 0.292618
H	 0.6794913619	-0.3909918365	-0.7850318762	 0.104709
H	 1.0446957863	-0.8385003192	 1.8958008542	 0.099998
H	-2.852469299	 0.3621826916	 1.534282119	 0.107667
H	-2.0164485971	-0.7168574297	-0.9294654275	 0.102315
H	-0.287728818	-2.7376266073	 0.3083566882	 0.105482
