18
gdb 34685	4.30196	1.08501	1.07839	4.656	80.22	-0.2643	0.0295	0.2938	1171.6477	0.149482	-364.772986	-364.765733	-364.764789	-364.804636	29.021	
N	-0.0540435281	-1.0475697399	-0.0511003834	-0.329166
C	-0.0078340239	 0.1075143367	-0.003350552	 0.265237
C	 0.0434566143	 1.5432506775	 0.0518409444	-0.201565
C	 0.5795438537	 2.1505095033	 1.3370171854	-0.060908
C	 1.4276520921	 2.1689033871	 0.0712268962	-0.060906
C	 1.35669861	 3.7127640476	 0.0254397817	-0.033158
C	 0.1978012551	 4.4127828622	-0.7458885339	-0.246011
C	-0.6740370692	 4.393928483	 0.5554455148	-0.246004
C	 0.4895176632	 3.6939634399	 1.3197820997	-0.033162
H	-0.7699582539	 2.0179359794	-0.4862874839	 0.129584
H	 0.6757790915	 1.531645811	 2.2204745836	 0.112349
H	 2.2895281118	 1.5666525405	-0.1880229996	 0.112347
H	 2.3348547521	 4.192717777	 0.00953865	 0.080766
H	 0.4558144398	 5.4215952325	-1.0751398	 0.10708
H	-0.2005706185	 3.8708858224	-1.6076802628	 0.107835
H	-0.8938213194	 5.3924028205	 0.9394028084	 0.107082
H	-1.6152502233	 3.8403074249	 0.5038905699	 0.107832
H	 0.8405399825	 4.1603090746	 2.2399465114	 0.080766
