15
gdb 8024	3.4852	2.04853	1.55855	4.6781	61.57	-0.2379	0.0083	0.2462	827.2463	0.118784	-399.792159	-399.785086	-399.784142	-399.823262	26.679	
C	-0.0409653451	 1.5741786586	-0.0432720078	-0.480031
C	 0.038508367	 0.0698847399	 0.0372836105	 0.312765
C	-1.2303568187	-0.769383626	 0.3356782947	-0.111953
O	-0.5401482861	-1.5462671281	 1.3403392082	-0.283314
C	 0.6755923618	-0.7863555703	 1.1754257271	-0.106983
C	 1.5663203835	-1.4141093478	 0.066982709	 0.43685
O	 2.3836477049	-2.2872562731	-0.0127937657	-0.352919
N	 0.9790669596	-0.5875741972	-0.8797287931	-0.37559
H	 0.9591656637	 2.0160511046	-0.02817915	 0.134991
H	-0.535069865	 1.8901392653	-0.9696956901	 0.126994
H	-0.6166099294	 1.9788439121	 0.7941289666	 0.132391
H	-2.052287466	-0.1971806432	 0.7826784381	 0.108988
H	-1.6110067856	-1.3827573413	-0.4885299032	 0.107219
H	 1.1073546058	-0.4279107963	 2.1104791036	 0.103548
H	 0.9230642897	-0.7113882073	-1.8825303378	 0.247044
