15
gdb 56127	4.32617	0.83805	0.826	5.1372	64.11	-0.2667	-0.0856	0.1811	1413.0673	0.107984	-494.942795	-494.933056	-494.932112	-494.979347	32.117	
C	-0.0602989603	 1.2470905915	 0.2744744552	-0.484969
C	-0.1791444243	-0.2466132782	 0.0604718098	 0.381379
O	 0.641616468	-1.0433945891	 0.4369485486	-0.275121
C	-1.4474746688	-0.699845586	-0.6749033027	-0.19082
O	-1.4945105578	-2.1144682973	-0.8009454244	-0.219004
C	-1.8611728949	-2.7819621086	 0.3130648053	 0.369953
O	-2.2395416918	-2.2839290755	 1.3353596661	-0.335088
C	-1.7419777067	-4.2891394657	 0.0485287661	 0.087068
O	-2.0807971271	-5.1006706869	 0.861086956	-0.200118
H	 0.9351486456	 1.4861594564	 0.6494105941	 0.156715
H	-0.2565892857	 1.7999955293	-0.6503831195	 0.139085
H	-0.8078933675	 1.5698063834	 1.008637558	 0.159282
H	-2.330375477	-0.3293638811	-0.1433472611	 0.153319
H	-1.4497072061	-0.2992444657	-1.6926313879	 0.144932
H	-1.3209614956	-4.5497481365	-0.9424043536	 0.113387
