23
gdb 9687	4.34264	1.09347	1.01271	1.0414	83.25	-0.2185	0.0834	0.3019	1307.7609	0.209836	-330.311445	-330.30141	-330.300466	-330.346143	36.815	
C	-0.2628429598	 1.5841074829	-0.3464628337	-0.371334
C	 0.0136857696	 0.1721942617	 0.1673377947	-0.114198
N	-1.2239349765	-0.5990236658	 0.1939160522	-0.112276
C	-1.5546219455	-1.406495319	-0.9780275023	-0.294684
C	-1.2157393072	-2.0620764141	 0.3228298229	 0.340934
C	 0.0913410506	-2.8253326701	 0.4444809991	-0.466346
C	-2.3517726457	-2.5886153328	 1.1914732135	-0.225873
C	-2.8485174045	-3.9871807482	 0.806371864	-0.382769
H	 0.6513227382	 2.1861223936	-0.3383892066	 0.10722
H	-0.6410638955	 1.556138991	-1.37378249	 0.116759
H	-1.0144964222	 2.0784356294	 0.2750739783	 0.12463
H	 0.8000476414	-0.2897721545	-0.4528491369	 0.079501
H	 0.402746298	 0.2191851328	 1.1919377868	 0.099378
H	-2.5838290753	-1.3515183685	-1.3267699284	 0.10496
H	-0.8132608862	-1.4687459007	-1.7754548029	 0.097685
H	 0.8691576478	-2.4335096411	-0.2136355915	 0.118046
H	 0.4677352499	-2.7924843276	 1.474045872	 0.117127
H	-0.0539387187	-3.8781683313	 0.1835085266	 0.123152
H	-2.0247026808	-2.5889542921	 2.2403944643	 0.090191
H	-3.175164108	-1.8702020228	 1.1280708565	 0.10484
H	-3.7084506157	-4.2745381155	 1.4191201957	 0.11321
H	-3.1603438567	-4.0201102489	-0.2432886848	 0.115085
H	-2.0779973673	-4.7517015584	 0.9478971204	 0.114763
