21
gdb 122538	2.23629	1.2663	0.88265	2.914	76.84	-0.2394	0.0729	0.3122	1366.5053	0.180271	-461.313985	-461.303856	-461.302912	-461.350086	36.261	
C	 0.5311358492	 0.7768941678	 0.2757768097	-0.23805
O	-0.0109755979	-0.3613018363	 0.9239223125	-0.230531
C	-1.263059844	-0.7327565465	 0.4431310269	 0.078731
C	-1.3427165272	-1.5457369752	-0.8351208218	-0.360616
C	-1.597399172	-2.2043711151	 0.4913845403	 0.094649
O	-0.6275275454	-3.0981550007	 0.9155925609	-0.255533
C	-0.6249638576	-3.3744412791	 2.3202652427	-0.094593
C	 0.8217044509	-3.4027244065	 2.7869575289	-0.038876
O	 1.4147208892	-2.1252464128	 2.7705175695	-0.438571
H	 1.5018086935	 0.9743117338	 0.7350395229	 0.139462
H	 0.6638024339	 0.5992619744	-0.7998195005	 0.116579
H	-0.115786751	 1.6551387055	 0.4104085914	 0.114288
H	-2.0533091116	-0.0098119326	 0.649316518	 0.092461
H	-2.1663688096	-1.3916995604	-1.5228373459	 0.117564
H	-0.3918627756	-1.7963874985	-1.292843365	 0.134968
H	-2.6233568113	-2.4734547247	 0.7445077139	 0.090009
H	-1.1698396254	-2.5942738149	 2.8664082108	 0.10518
H	-1.1161473233	-4.3416485176	 2.5015726746	 0.093854
H	 0.8618009803	-3.7730322444	 3.8188239117	 0.095098
H	 1.3730212611	-4.1206053349	 2.1561993453	 0.087447
H	 1.0970280837	-1.6663215113	 1.9788796932	 0.296481
