23
gdb 85944	2.46322	1.30331	1.08452	1.7443	86.48	-0.2424	0.0163	0.2587	1250.5882	0.205758	-388.314016	-388.304626	-388.303682	-388.347255	37.452	
C	 0.07817122	 1.5210577492	 0.0386657162	-0.420167
C	-0.0377282376	-0.0107908816	 0.0096599386	 0.254196
C	-1.5289639281	-0.3981716037	-0.0450708927	-0.412331
C	 0.6941626686	-0.562926225	-1.2372342497	-0.264234
C	 1.0255096675	-2.0300545684	-1.1438665858	-0.066388
C	 0.9773338915	-2.731032948	-0.0114012332	-0.089143
C	 0.6017453257	-2.1330401356	 1.3195514383	 0.082135
O	 1.4259935718	-2.6425747799	 2.3692883718	-0.438854
C	 0.6338772601	-0.5997229705	 1.2696033294	-0.232216
H	 1.1234902359	 1.8392571539	 0.1196128342	 0.10742
H	-0.3370705533	 1.964258034	-0.8737209395	 0.108158
H	-0.4670501963	 1.9413190382	 0.8909776996	 0.11012
H	-2.0259409818	 0.1061685755	-0.8810858967	 0.107589
H	-1.6679705488	-1.4744230281	-0.180677151	 0.12275
H	-2.0451822593	-0.1020612228	 0.8747976144	 0.109858
H	 0.0886185234	-0.3775327201	-2.1348533952	 0.099667
H	 1.625806726	 0.0006831761	-1.3987615326	 0.101837
H	 1.3217250504	-2.52207774	-2.0681835812	 0.087355
H	 1.2197465857	-3.7910799693	 0.0017748497	 0.089858
H	-0.4046358658	-2.4716759936	 1.5991929788	 0.09524
H	 2.338461204	-2.4303478441	 2.1421027372	 0.272239
H	 1.6875915104	-0.2854713228	 1.284010112	 0.07858
H	 0.1734464499	-0.1950547237	 2.1778941074	 0.096334
