18
gdb 49980	4.09123	1.16251	1.06162	3.6977	78.78	-0.2486	0.0037	0.2523	1160.0948	0.148199	-401.883851	-401.876295	-401.875351	-401.916125	29.242	
O	 0.2073708418	 0.1827361567	-0.6068052745	-0.284453
C	 0.1135206236	 1.2899581035	-0.1362897179	 0.124071
N	 1.1032369025	 1.9314342101	 0.5893795062	-0.168632
C	 2.5275088788	 1.8114208699	 0.2622874863	-0.356679
C	 1.8247737728	 3.1183121218	 0.2158573164	 0.457285
C	 1.5712938327	 4.1595174803	-0.8862157057	-0.132538
C	 0.689516063	 4.9100938173	 0.1651877648	-0.224763
C	 1.9595575612	 4.4591743978	 0.9542440835	-0.130315
C	 2.7909129544	 4.9245627384	-0.282702678	-0.214422
H	-0.8157286667	 1.8899406383	-0.1830113193	 0.082725
H	 3.1804950859	 1.5676751604	 1.0962800775	 0.128398
H	 2.7627684963	 1.3070139442	-0.6719662845	 0.138901
H	 1.3513055892	 3.9794419219	-1.9384171097	 0.08828
H	 0.5783084515	 5.9864747278	 0.0128717156	 0.098814
H	-0.2567099105	 4.4427385483	 0.4465414778	 0.104374
H	 2.1824327474	 4.618885705	 2.0083735863	 0.086444
H	 3.7762336435	 4.4734187687	-0.4194907008	 0.101933
H	 2.8076911625	 6.0016761997	-0.4624674139	 0.100578
