17
gdb 20856	5.31711	1.25612	1.09022	2.9794	71.55	-0.247	0.	0.247	1124.9894	0.141801	-363.879759	-363.871559	-363.870615	-363.91299	29.182	
C	 0.0953650571	 1.3591176961	-0.5556161537	-0.375359
C	-0.1074226275	 0.1467608626	 0.3673635794	-0.29135
C	-1.4578940716	-0.4852857256	 0.2126399908	 0.397695
N	-2.3168776449	-0.4534473027	 1.2042863528	-0.209917
O	-3.4607676053	-1.1062251509	 0.7383327132	-0.212618
C	-3.2551821034	-1.5147369204	-0.5269877559	 0.443312
C	-4.3737296286	-2.2383384765	-1.1894620724	-0.490721
C	-2.0061298206	-1.1530249057	-0.9231278193	-0.420158
H	 1.0925891745	 1.7865434222	-0.4154745671	 0.118076
H	-0.0058519321	 1.0807279268	-1.6093921881	 0.118462
H	-0.6430261918	 2.1376811259	-0.3427378669	 0.131078
H	 0.6648481351	-0.6040104369	 0.1597152676	 0.112534
H	 0.0088754998	 0.4454558928	 1.4131175291	 0.127564
H	-4.6342482276	-3.1471809245	-0.6371306792	 0.150468
H	-5.2716994827	-1.6134922876	-1.2354484246	 0.150393
H	-4.0926743021	-2.5181351847	-2.2064152818	 0.139771
H	-1.5408883084	-1.3359432209	-1.8778144041	 0.110769
