13
gdb 3237	5.34188	2.7421	2.3785	0.9706	52.35	-0.2323	0.0608	0.2932	584.469	0.100856	-344.360007	-344.354299	-344.353354	-344.389026	22.833	
O	-0.2136327701	 1.4172096201	-0.0144580448	-0.452311
C	-0.0858344204	 0.0438931675	 0.0003553452	 0.353657
C	-0.2511713702	-0.8501169442	-1.1959897959	-0.345533
C	-1.1991839102	-0.9796388007	-0.0149367161	-0.153918
C	-0.5094352248	-1.7045236575	 1.1841335964	 0.031276
O	 0.8311320512	-2.0793232828	 0.8206668109	-0.237024
C	 0.5685187074	-0.724901444	 1.2100133613	-0.058515
H	 0.5440941919	 1.7861432887	-0.4830504166	 0.289457
H	-0.6991607867	-0.3477321113	-2.0478816857	 0.115183
H	 0.4599208562	-1.6334462286	-1.4269144723	 0.135308
H	-2.2658508251	-0.824205332	-0.0991173207	 0.103087
H	-0.9899560024	-2.2685636826	 1.9737748929	 0.109969
H	 1.1449452931	-0.2944371827	 2.0207712853	 0.109362
