23
gdb 58687	2.54266	1.03492	0.96818	2.6314	85.84	-0.2506	-0.0253	0.2253	1390.3434	0.203088	-388.29299	-388.282488	-388.281544	-388.329092	38.578	
C	 0.443377611	 1.394125141	 0.2810713979	-0.398551
C	-0.0503394032	-0.0242947421	-0.0419606111	-0.027628
C	-1.5848043394	-0.0935317132	-0.044101695	-0.399266
C	 0.560478166	-0.5823402082	-1.3324915855	 0.371814
C	 0.1235084855	 0.1260446038	-2.6229724776	-0.344845
C	 0.9504457497	-0.2517778505	-3.8324871708	 0.136213
O	 0.6403736759	-1.098977508	-4.6319452835	-0.240728
C	 1.958973261	-1.1519830826	-1.2216596384	-0.323966
C	 0.775429152	-2.0747403568	-1.3951802453	-0.31267
H	 1.5368462453	 1.4434370545	 0.2829750085	 0.115
H	 0.0741821378	 2.128641505	-0.4431867431	 0.114433
H	 0.0889837853	 1.7101185365	 1.2675858364	 0.113078
H	 0.3059909951	-0.6814279728	 0.7635098739	 0.071029
H	-2.0170642528	 0.5869859572	-0.7858032836	 0.11596
H	-1.937043142	-1.1048170807	-0.27092566	 0.11814
H	-1.986350893	 0.1934123511	 0.933040554	 0.111896
H	-0.9197539584	-0.1204681891	-2.8439172661	 0.125779
H	 0.204996924	 1.2122394646	-2.4907794585	 0.10666
H	 1.9045142788	 0.3115901163	-3.946856915	 0.080106
H	 2.6521389868	-1.0488114401	-2.0489339904	 0.114429
H	 2.4385953719	-1.1135675109	-0.2489906184	 0.109722
H	 0.4610677843	-2.6687085563	-0.5433541412	 0.109627
H	 0.6545199984	-2.5678933488	-2.353702747	 0.133765
