21
gdb 114957	3.32622	0.99398	0.85477	1.6663	80.27	-0.2122	0.0609	0.2731	1445.8478	0.18349	-420.430592	-420.42102	-420.420076	-420.465403	34.772	
C	 0.127574119	 1.5107664429	-0.1259455384	-0.392327
C	 0.1625687926	-0.0156077121	-0.0085792127	-0.176713
C	 0.6647169789	-0.5343405304	 1.346556473	 0.021941
C	 0.7325364358	-2.0942925389	 1.409917515	-0.177882
N	 2.139740248	-2.4568432255	 1.190972061	-0.370039
C	 2.7865769392	-1.3616840406	 1.3086137769	 0.480663
N	 2.0760617666	-0.2099098579	 1.6159667492	-0.36968
O	 4.107810723	-1.2023169491	 1.1971430319	-0.263161
C	 4.8413133414	-2.3991268147	 0.9256531409	-0.232429
H	 1.1255417101	 1.9541412799	-0.0320606241	 0.109305
H	-0.2693529465	 1.8217209126	-1.0969589729	 0.120264
H	-0.5053977511	 1.9535445427	 0.6511697132	 0.1195
H	-0.8489035555	-0.4132450232	-0.1609144094	 0.101356
H	 0.7872436693	-0.4442242953	-0.8030235622	 0.106324
H	 0.0320454131	-0.1268712145	 2.1433339411	 0.076284
H	 0.4013172657	-2.4633683838	 2.3893721414	 0.102033
H	 0.0871151942	-2.5565187849	 0.6548336298	 0.099992
H	 2.4510473201	 0.6609843016	 1.2670613865	 0.238257
H	 4.5067638985	-2.8515602379	-0.0117709001	 0.138654
H	 5.8867701249	-2.0966483567	 0.8550451061	 0.126732
H	 4.7044038326	-3.1250103339	 1.7315147239	 0.140927
