17
gdb 123422	4.86274	0.96911	0.89683	5.8784	73.13	-0.2789	-0.0114	0.2675	1300.5054	0.137801	-414.155533	-414.147759	-414.146815	-414.189339	28.15	
C	-0.112528411	 1.6171949809	-0.0670393655	-0.201215
C	-0.2575996885	 0.1325640647	-0.3092613985	 0.015415
C	-0.0452967511	-0.8316832756	 0.8286946289	-0.246956
C	-1.4336565635	-0.5966378788	 0.2927910686	-0.271007
N	 1.2810068688	 2.054520019	-0.0332488244	 0.04925
C	 2.1002778887	 2.4697391148	-1.0148301144	 0.056426
N	 3.2942559145	 2.7019548268	-0.5139696327	-0.22334
N	 3.1916784696	 2.4150504081	 0.8107337694	-0.093547
N	 1.9971387959	 2.0256401121	 1.1112390457	-0.126322
H	-0.6185026526	 2.1996020909	-0.8431851767	 0.133353
H	-0.5454628474	 1.894149705	 0.8972852212	 0.145598
H	 0.0668181576	-0.1930827942	-1.2935929257	 0.0958
H	 0.4403441809	-1.7751489488	 0.6087706137	 0.12435
H	 0.2096562394	-0.414870347	 1.7966464085	 0.139318
H	-2.1257495586	-0.0267504125	 0.9042316631	 0.11929
H	-1.9035822878	-1.3754315053	-0.29659323	 0.12307
H	 1.800572065	 2.5932808698	-2.0427848112	 0.160516
