19
gdb 15069	3.00331	1.48738	1.12151	2.0418	71.53	-0.249	-0.0396	0.2094	1110.173	0.164151	-365.041608	-365.032626	-365.031682	-365.075841	31.857	
C	-0.1183516804	 1.5302954265	 0.1686812729	-0.395942
C	 0.0345848737	 0.0112584867	 0.0425988988	-0.194895
C	 0.6840673305	-0.4283818426	-1.2813747629	-0.070223
C	 2.1229706936	 0.061964374	-1.363349842	 0.130789
O	 2.7143728268	 0.2934115006	-2.3870378523	-0.249382
C	 0.626842218	-1.9483150165	-1.4586632462	 0.001961
C	 1.4314510358	-2.6595763319	-2.4783530941	-0.253419
N	 1.7175223566	-2.8516560793	-1.043072317	-0.324305
H	 0.8491149006	 2.0426826743	 0.1204822931	 0.122113
H	-0.7412425044	 1.9311072171	-0.6383034859	 0.123465
H	-0.5862914563	 1.8013899696	 1.1194508732	 0.122025
H	 0.6291120209	-0.3786935821	 0.8795587009	 0.108021
H	-0.9486066816	-0.4652125998	 0.1248060368	 0.106987
H	 0.1464858923	 0.0229782931	-2.1257266397	 0.105424
H	 2.6322553173	 0.1772259063	-0.3767038484	 0.082618
H	-0.356522566	-2.3529010037	-1.2235280558	 0.095616
H	 1.0177854168	-3.5294329987	-2.9804875476	 0.119301
H	 2.124901397	-2.0713047088	-3.072441376	 0.138471
H	 2.5500045287	-2.3256046248	-0.7869971379	 0.231376
