16
gdb 17694	4.86112	1.60817	1.56034	2.4904	64.9	-0.24	0.0802	0.3202	862.6727	0.130246	-383.641314	-383.634605	-383.63366	-383.672611	25.688	
C	 0.4423893346	 1.4769272418	 0.2895756017	-0.170045
O	 1.1753114488	 0.3495144561	-0.1959470692	-0.229126
C	-0.2021597063	 0.1674170326	 0.1300901761	-0.100956
C	-0.4948254967	-0.6914766561	 1.308272667	 0.435916
C	-1.8515447791	-0.9520200551	 2.0196298535	-0.262588
C	-0.7029214509	-1.5524005791	 2.8635732102	 0.047059
C	-0.0809315917	-2.1637287039	 1.5889923244	-0.254793
O	 0.0831681591	-0.3170167894	 2.624666329	-0.339477
H	 0.7090282758	 1.8060164954	 1.2908861874	 0.1388
H	 0.2506583465	 2.2619944986	-0.4402857711	 0.115273
H	-0.8557227925	-0.0023211449	-0.7270489734	 0.097529
H	-2.3269186619	-0.0672670382	 2.4447043265	 0.109543
H	-2.5585214758	-1.6373772294	 1.5452607747	 0.0967
H	-0.7214110549	-1.9390124013	 3.8816365961	 0.099902
H	-0.6277753991	-2.9585886719	 1.0757526226	 0.095475
H	 0.9950581043	-2.3313233151	 1.6281500347	 0.120786
