17
gdb 79715	2.86172	1.70209	1.36831	3.7503	66.24	-0.2498	0.066	0.3158	950.6034	0.137405	-458.903246	-458.896312	-458.895368	-458.934119	28.981	
O	 0.2472040305	 1.4737341989	-0.2299063718	-0.446348
C	 0.0655255487	 0.1136079014	-0.0293663585	 0.183245
C	 0.1948672626	-0.5764553262	 1.3733269588	-0.202277
C	-0.965778517	 0.0102087541	 2.1851766418	 0.03609
O	-1.5227552621	 1.252094843	 1.6980516382	-0.278308
C	-2.0517565816	 0.0071785894	 1.1920067008	 0.035164
C	-1.3429078279	-0.5818807864	-0.0356309011	-0.162732
C	-0.6073999664	-1.7645275977	 0.6886806133	 0.139417
O	 0.0932662216	-2.590557169	-0.2025915399	-0.434772
H	-0.3353990093	 1.9146909505	 0.4032131173	 0.293174
H	 0.712134511	-0.4038396899	-0.7358579019	 0.110972
H	 1.1547923899	-0.7270345291	 1.866823853	 0.067093
H	-1.0933118594	-0.1698956564	 3.246603804	 0.109688
H	-3.0974695519	-0.1769324255	 1.4105480014	 0.11131
H	-1.9148277954	-0.7406250756	-0.9481203742	 0.076626
H	-1.2314231808	-2.3519617487	 1.3747964752	 0.072377
H	 0.6205819174	-3.2117076527	 0.3095486436	 0.289283
