16
gdb 2601	3.10115	2.69006	1.73478	2.9423	61.29	-0.2473	-0.0239	0.2234	766.5243	0.135722	-325.765414	-325.75783	-325.756886	-325.79701	27.27	
C	-0.3917800215	 1.4717490952	-0.0281692622	-0.385305
C	 0.1733325743	 0.0494210626	 0.0850205731	-0.274446
C	 0.7909164355	-0.4546217933	-1.2039272917	 0.23095
C	 0.6255807928	-1.8911175336	-1.605498081	-0.278511
N	-0.0612076	-0.8453948553	-2.3556360515	-0.342346
C	 2.0647661386	 0.1907349652	-1.6462952366	 0.147978
O	 2.7265743483	 0.9332556636	-0.9644407548	-0.267314
H	 0.4000897687	 2.1842164132	-0.2711054075	 0.145834
H	-1.1595147445	 1.5369253812	-0.8068661605	 0.112312
H	-0.8478982686	 1.7813010334	 0.9166324352	 0.116725
H	 0.9416767991	 0.0244286921	 0.8651688429	 0.124691
H	-0.6170210312	-0.6457857459	 0.3936561892	 0.091148
H	 1.4141922967	-2.404840055	-2.149263658	 0.127974
H	 0.0633105435	-2.518343484	-0.9186088108	 0.125243
H	-1.0378507145	-0.7901716622	-2.0751331176	 0.24028
H	 2.3641603528	-0.0865970772	-2.6813470682	 0.084788
