22
gdb 81687	3.24592	1.26773	1.21483	0.1818	81.84	-0.2069	0.0845	0.2914	1174.1715	0.195491	-404.317857	-404.309434	-404.30849	-404.350397	33.654	
C	-0.2642932387	 1.4129416681	 0.0289732328	-0.420381
C	 0.0121885349	-0.0791539062	-0.0515925576	 0.059248
C	 0.892563365	-0.6050837808	-1.2113187753	 0.114053
C	 2.0774006291	-0.3474457892	-0.2579603091	-0.22232
N	 1.115770351	-0.5279444386	 0.8964335734	-0.133002
C	 0.9374479062	-1.9795086012	 1.092215164	-0.201588
C	 1.015113109	-2.7920240539	-0.2365681093	 0.145394
C	 0.128266277	-4.0268761188	-0.2346999523	-0.405635
O	 0.6511696046	-1.9954287045	-1.3759997112	-0.29205
H	 0.6344196068	 2.0126787671	-0.1412349464	 0.118257
H	-1.0093411853	 1.7033249719	-0.7194963521	 0.11603
H	-0.6524184226	 1.6704450324	 1.0189848167	 0.126639
H	-0.9169794389	-0.6439754781	 0.0786620624	 0.069934
H	 0.849202596	-0.1522188529	-2.2063644509	 0.071065
H	 2.9300599401	-1.0295520131	-0.2807679422	 0.107394
H	 2.4452924424	 0.6797991612	-0.2872735926	 0.109151
H	 1.7091838608	-2.3488489976	 1.7781950761	 0.101191
H	-0.0314277737	-2.130860126	 1.5819117439	 0.103617
H	 2.0572323927	-3.1154873098	-0.3778588179	 0.074002
H	-0.9207911092	-3.7460202466	-0.0978091594	 0.119736
H	 0.2183183836	-4.5657298537	-1.1821195141	 0.125305
H	 0.4163894492	-4.7040816099	 0.5762701009	 0.113961
