16
gdb 128649	3.60937	1.184	0.90171	3.4579	68.17	-0.2065	0.0463	0.2528	1248.2669	0.124665	-471.244427	-471.235479	-471.234535	-471.278449	31.237	
C	 0.0601097139	 1.3811630889	 0.0443873874	-0.239947
O	 0.0243089555	-0.0496900651	-0.0302680999	-0.264206
C	 0.6422259638	-0.5718760378	-1.0847486132	 0.538441
N	 1.2585997465	 0.0641106917	-2.0290685789	-0.370613
N	 1.7142388079	-0.9566406241	-2.8652091512	-0.081543
C	 2.4625902282	-0.6587629064	-4.0576853263	-0.325778
C	 1.3733543054	-2.214163125	-2.4283978741	 0.478367
O	 1.6107010755	-3.2987214983	-2.9177717687	-0.435022
N	 0.6646416317	-1.9282247583	-1.2467463298	-0.452882
H	 1.0933729337	 1.7352247831	 0.0968394244	 0.147054
H	-0.4227711219	 1.8216196259	-0.832304458	 0.14698
H	-0.4818447213	 1.6417272829	 0.9529262199	 0.140001
H	 1.8735819492	-0.0436108315	-4.745594272	 0.135458
H	 3.3903476147	-0.1303836232	-3.8154796474	 0.135464
H	 2.6985124778	-1.6131013187	-4.5313688148	 0.166207
H	 0.2534754692	-2.6216135743	-0.6469330174	 0.282019
