19
gdb 39869	3.34468	1.61215	1.48037	1.7201	78.69	-0.2341	0.0742	0.3083	966.0013	0.160892	-385.822569	-385.815766	-385.814822	-385.853504	28.457	
C	 0.0014443801	 1.5220762864	 0.0132143857	-0.327436
C	 1.2791363736	 0.7100476967	-0.0290811993	-0.344351
C	-0.0584081198	 0.0288085248	 0.0179813748	 0.420681
C	-0.5192854496	-0.9435795341	 1.111908155	-0.166168
C	-2.066187209	-0.9381110644	 1.277304027	-0.243078
C	-2.1965683039	-1.707743536	-0.0599840226	 0.105862
O	-2.0124660907	-0.846164214	-1.2061365022	-0.304149
C	-0.5709380259	-0.9114240036	-1.0713908572	-0.003762
C	-0.6791947219	-2.0455673534	-0.0111577131	-0.082654
H	-0.2367564115	 2.0452620125	 0.9341364426	 0.112166
H	-0.3087347032	 2.042518149	-0.8870775949	 0.118539
H	 1.8370962853	 0.680624596	-0.9601721102	 0.112799
H	 1.8989715709	 0.683356466	 0.86171052	 0.111401
H	 0.1000618438	-1.048547958	 2.0032845931	 0.065985
H	-2.3700697651	-1.576994969	 2.1136442825	 0.097881
H	-2.5753844301	 0.0266682477	 1.3486731047	 0.103755
H	-3.0235434296	-2.4057810472	-0.2036784689	 0.075853
H	-0.0683471877	-0.9472808512	-2.0409934422	 0.071405
H	-0.2108331859	-3.0249812382	-0.046383825	 0.075269
