18
gdb 34225	3.3804	1.59458	1.39179	1.6573	82.26	-0.2321	0.0251	0.2572	975.5468	0.149532	-364.726778	-364.719869	-364.718925	-364.757736	29.023	
C	 0.015698183	-1.1974663765	 0.0119971147	-0.352098
C	-0.0222333095	 0.0050850737	 0.0092670781	 0.144309
C	-0.0572920209	 1.4392631652	 0.0391092245	 0.220177
C	-1.1210488002	 2.2591973025	 0.7795847239	-0.291963
C	-0.6303467975	 3.3559224588	-0.1837900243	-0.020731
C	 0.7882302416	 3.6437354808	 0.3597602705	-0.229974
C	 1.3233269062	 2.2494807269	-0.0109042074	-0.100934
C	 1.0930733492	 2.2736124423	-1.5312119916	-0.171873
N	-0.3804975106	 2.2506321694	-1.2428354832	-0.174388
H	 0.0428683955	-2.2590155466	 0.0079726056	 0.184607
H	-2.1156957321	 1.8881403333	 0.5274816525	 0.123096
H	-1.0219988062	 2.4230588038	 1.8545486334	 0.100751
H	-1.2618169744	 4.1848039075	-0.4970167718	 0.080495
H	 1.3225521032	 4.4431531681	-0.1607505698	 0.100321
H	 0.7851298947	 3.8647579434	 1.4300578567	 0.100413
H	 2.2353593658	 1.8828936629	 0.4600507322	 0.071634
H	 1.458469225	 3.1333842338	-2.1018005427	 0.096844
H	 1.3571713773	 1.3441081606	-2.0411459013	 0.119313
