21
gdb 74651	3.65107	1.49743	1.37872	0.2852	87.24	-0.2176	0.0267	0.2443	1037.2486	0.186068	-349.956214	-349.949221	-349.948277	-349.987157	29.848	
C	-0.0366668989	 1.4904184106	 0.0659434239	-0.507914
C	 0.0699179777	 0.0055064009	-0.0494973147	 0.333047
C	 0.0220443693	-0.7654213067	-1.1462064892	-0.209041
C	 0.1150462928	-2.1977218378	-0.716100705	-0.037623
C	-1.0353306148	-2.7858676253	 0.2463799121	-0.036677
C	 0.1138744239	-3.4396068671	 1.0569471564	-0.239151
C	 0.880937581	-2.1669778495	 0.6393075921	-0.016135
C	 0.0711614724	-0.9312119214	 1.1519296578	-0.116287
C	-1.3654296637	-1.5894284935	 1.1490006365	-0.212123
H	 0.8223790761	 1.9105432806	 0.6047481604	 0.12359
H	-0.0891623846	 1.9687048643	-0.9162305857	 0.122176
H	-0.9299621445	 1.7840016991	 0.6331863354	 0.124748
H	-0.1017617418	-0.4240314783	-2.1674543228	 0.084655
H	 0.4554927651	-2.9315169136	-1.4474163488	 0.060226
H	-1.8644063512	-3.3659045763	-0.1581294476	 0.058381
H	-0.0584299843	-3.6368616939	 2.1194902889	 0.083465
H	 0.5243986917	-4.3311601922	 0.5751277586	 0.092288
H	 1.9688694307	-2.0844034129	 0.671063954	 0.057569
H	 0.3762363136	-0.4924907712	 2.1033489503	 0.052804
H	-2.1248425731	-0.9129067293	 0.7502912928	 0.091285
H	-1.6797220175	-1.9200211765	 2.1438560546	 0.090717
