14
gdb 20763	4.93586	1.43304	1.12803	1.1911	59.46	-0.2788	-0.0243	0.2546	1008.0084	0.106702	-415.865949	-415.858164	-415.85722	-415.898756	26.775	
C	-0.2176994543	 1.3779289631	 0.0513922411	-0.488797
C	 0.0687837918	-0.0826089577	 0.0195462453	 0.360679
N	 0.7677111528	-0.6405574457	-0.9327105548	-0.166592
O	 0.7864263283	-2.0038277281	-0.5716539727	-0.199023
C	 0.092613125	-2.0975475187	 0.5605450189	 0.397886
C	-0.0597292736	-3.4187923149	 1.2474233624	-0.152407
O	-1.0095904912	-3.3524768493	 2.2785225609	-0.412642
N	-0.3775964515	-0.965618353	 0.9853657972	-0.373294
H	 0.1792527671	 1.8213659152	 0.9693974364	 0.151608
H	 0.2327837714	 1.8712349041	-0.8107372277	 0.154486
H	-1.2979011969	 1.5510399282	 0.043142211	 0.15282
H	-0.3700379246	-4.175274096	 0.5157904031	 0.142001
H	 0.9317096929	-3.7275743208	 1.620035402	 0.129176
H	-1.1016764072	-2.4224453664	 2.5231154268	 0.304097
