17
gdb 104109	2.65741	1.32395	1.14561	4.1341	64.07	-0.2833	0.0353	0.3186	1117.9821	0.135475	-496.154344	-496.145784	-496.14484	-496.187819	31.496	
C	-0.0968193373	 1.6119532619	-0.0760287976	-0.443076
C	-0.008392476	 0.0949457523	-0.0700858802	 0.316261
C	-1.3893339553	-0.575494221	 0.0097281495	-0.089467
O	-2.0838129956	-0.2208225513	 1.1820162942	-0.415841
C	 0.8494437626	-0.4977149856	-1.203878748	-0.148181
O	 1.6520858235	-1.4869704486	-0.556957875	-0.242592
C	 1.6131914304	-1.308084272	 0.7881041488	 0.491217
O	 2.2616562571	-1.9205740896	 1.5733363085	-0.368924
O	 0.7260585166	-0.3294486204	 1.1084271096	-0.289116
H	 0.8949523208	 2.0557792997	 0.0411585697	 0.132205
H	-0.5243841853	 1.9562775577	-1.0234492248	 0.126816
H	-0.7429000125	 1.9532005986	 0.7349324142	 0.152211
H	-2.0018302869	-0.2462387663	-0.8368184282	 0.117678
H	-1.2586191423	-1.6665899187	-0.0751332216	 0.102743
H	-1.5294763793	-0.4824822793	 1.9270447161	 0.29875
H	 0.2521931291	-0.9833735981	-1.9802113587	 0.133371
H	 1.5023940704	 0.2500372105	-1.6659535366	 0.125946
