21
gdb 58951	2.55021	1.29652	1.0825	0.9975	78.33	-0.2426	0.0672	0.3097	1216.3646	0.181168	-424.192187	-424.182554	-424.181609	-424.226427	36.483	
C	 0.0663348973	 1.5032486808	-0.0972656813	-0.405756
C	 0.0116779617	-0.012762468	 0.1137799907	-0.001919
O	 0.7230688467	-0.3958027622	 1.2910424124	-0.427169
C	-1.4060215163	-0.5292008749	 0.1178181962	 0.35041
C	-2.4341109796	-0.2582879574	 1.2309935196	-0.293033
C	-2.9635408112	-1.7190273555	 1.089846548	-0.217751
C	-1.9473946376	-1.9755401975	-0.0272588503	-0.183009
C	-2.1120504337	-0.9611354276	-1.1235794466	 0.04094
O	-3.3438062264	-0.3854865696	-1.4619738834	-0.425432
H	 1.1033452145	 1.8499630442	-0.0879940256	 0.120365
H	-0.3936822609	 1.7848380161	-1.0493193441	 0.12659
H	-0.4775714857	 2.0250893294	 0.6999039053	 0.111175
H	 0.5552154923	-0.5066513946	-0.7012515936	 0.082367
H	 0.3740973373	 0.1228382605	 2.0236644936	 0.276548
H	-1.9642885598	-0.0907581436	 2.2037523356	 0.086306
H	-3.1483002782	 0.5442959941	 1.0344631267	 0.11039
H	-2.7706096628	-2.3193857313	 1.9806414556	 0.103791
H	-4.0160097078	-1.8254287506	 0.8112538297	 0.092353
H	-1.3980379641	-2.897388919	-0.1840117566	 0.085037
H	-1.4467523323	-1.1202697282	-1.9745227316	 0.08113
H	-3.881151603	-1.0625641552	-1.8865988203	 0.286667
