12
gdb 21659	3.74273	1.93516	1.27704	4.1979	63.43	-0.2264	-0.017	0.2094	859.5566	0.086986	-373.742768	-373.736	-373.735056	-373.773642	25.171	
N	-0.0314367365	 1.3521973713	 0.1565426069	-0.591883
C	 0.0216687067	-0.0192041859	 0.0480798305	 0.319725
N	-1.0730743714	-0.7688763686	 0.0314902115	-0.297847
N	-0.6047330426	-2.046924366	-0.0088890937	-0.183462
C	 0.7315442048	-2.1313597675	-0.0263829817	-0.109887
C	 1.2043375514	-0.8257432616	 0.0086333675	 0.060891
C	 2.5388305431	-0.3714814748	-0.0013966722	 0.182973
N	 3.6207474421	 0.0457068029	-0.016291724	-0.35811
H	 0.7583280057	 1.8443584947	-0.2339970709	 0.267466
H	-0.9199434188	 1.7515902979	-0.1084548604	 0.262448
H	-1.2684597171	-2.8019247691	-0.0234184675	 0.286514
H	 1.2590058526	-3.0708016933	-0.062408046	 0.161174
