11
gdb 3901	5.79468	2.86349	1.91646	3.0603	55.05	-0.2416	-0.0658	0.1759	604.5075	0.081654	-339.474134	-339.468985	-339.468041	-339.503018	19.353	
O	-0.037185969	-0.078921195	 0.0034588354	-0.387105
C	 0.0230796771	 1.1366458647	 0.00890158	 0.422179
N	-1.1502351591	 1.9100086567	 0.028407392	-0.249868
N	-1.2809513341	 3.2396146122	 0.037017557	-0.17183
C	-0.1737131627	 3.9275372132	 0.0259711795	 0.000165
C	 1.1169747517	 3.3160783472	 0.0057944709	-0.085081
C	 1.2203589603	 1.9642047828	-0.0025670074	-0.191483
H	-2.0204215713	 1.392924382	 0.0372198832	 0.276933
H	-0.2896925387	 5.0049340585	 0.0330782612	 0.130495
H	 2.001043769	 3.9458188651	-0.0025935379	 0.122238
H	 2.1705817868	 1.4439339226	-0.0177741739	 0.133357
