17
gdb 56460	2.76159	1.11296	0.81788	4.1473	77.06	-0.2532	-0.0253	0.2279	1360.1244	0.134264	-418.00885	-417.999221	-417.998276	-418.044095	34.455	
C	-0.0298245136	 1.6372246274	 1.178491621	-0.376838
C	-0.1716682226	 0.4381146923	 0.2240958316	-0.238694
C	 0.6401017793	-0.7003578049	 0.6569086259	 0.30152
C	 1.3038058274	-1.6414739843	 1.0052197651	-0.460294
C	-1.6477304052	 0.0598068947	 0.0003705441	 0.395783
N	-2.5602059179	 0.9152972265	 0.1913456638	-0.503313
N	-1.8212347769	-1.254408838	-0.4783384635	-0.349253
C	-3.0049857191	-1.8394861183	-0.8503421831	 0.166138
O	-4.0905558247	-1.3032641761	-0.8587029242	-0.299541
H	 1.0162332111	 1.9475002628	 1.2323802753	 0.119582
H	-0.6439809496	 2.4629931398	 0.8200496096	 0.152246
H	-0.3696942915	 1.3692171341	 2.1813765956	 0.134898
H	 0.2028043933	 0.745249646	-0.764745003	 0.137958
H	 1.9023537723	-2.4581039018	 1.3271400841	 0.207548
H	-3.473623804	 0.5299103053	-0.0512820912	 0.25571
H	-0.9991948492	-1.8436933583	-0.4714879136	 0.260365
H	-2.8549026392	-2.8922283672	-1.1572595174	 0.096185
