19
gdb 91540	2.68344	1.38243	1.16319	0.4979	75.34	-0.2502	0.0655	0.3157	1136.1084	0.157895	-422.96682	-422.958338	-422.957394	-423.00022	31.977	
C	 0.0301275813	 1.6327838093	 0.007462645	-0.415031
C	 0.029262059	 0.1113006771	-0.0459689156	-0.056271
C	 1.1191025919	-0.5944701322	-0.9388496906	-0.266983
C	 1.6309508865	-1.3059134151	 0.3169925767	-0.052534
O	 2.0045138469	-0.2936780415	 1.2642462146	-0.300495
C	 0.61743582	-0.6493586136	 1.1639963822	 0.440369
C	-0.0533766541	-1.1160998141	 2.3984130086	-0.053494
C	-1.1924873908	-0.403651578	 2.9955431551	-0.184538
O	-1.3918128811	-1.5988676916	 2.2394245058	-0.234471
H	 1.011325125	 2.0012062273	 0.3201924272	 0.133588
H	-0.1960090282	 2.055896542	-0.9769423755	 0.116341
H	-0.718764539	 2.0152065051	 0.7095147604	 0.113255
H	-0.9643394381	-0.2802383368	-0.2809676253	 0.093606
H	 0.6873006186	-1.2729006251	-1.6778696501	 0.109844
H	 1.846851173	 0.0620518376	-1.4229693759	 0.109622
H	 2.1128864263	-2.2721022968	 0.4163310203	 0.106103
H	 0.5803780181	-1.7185351198	 3.0495371435	 0.09995
H	-1.3744071095	-0.4890696317	 4.0657681547	 0.120873
H	-1.5614143259	 0.508932078	 2.531215129	 0.120267
