23
gdb 118793	2.10588	1.06352	0.81023	0.9417	93.42	-0.2369	0.0509	0.2878	1540.6053	0.20308	-351.123861	-351.113187	-351.112243	-351.159529	39.895	
C	 0.0686613461	 1.5975040885	-0.0109343998	-0.379795
C	 0.2223444985	 0.0756216287	-0.0820657151	-0.166662
C	 0.4497642566	-0.5591431625	 1.2975809313	-0.250981
C	 0.6579518893	-2.0656502847	 1.2641068624	 0.348283
C	-0.5443888911	-2.8862178381	 0.833977622	-0.460806
C	 2.0225091488	-2.5840667077	 0.9021903957	-0.319801
C	 1.5403905795	-2.7016942194	 2.3441154272	-0.263884
C	 2.1515111416	-1.9300672577	 3.3851440635	 0.333627
C	 2.6618731343	-1.2955003211	 4.2717484253	-0.458521
H	 0.9616230419	 2.0660470977	 0.4175374477	 0.11515
H	-0.0910119534	 2.0295207531	-1.0038241397	 0.109811
H	-0.7839930503	 1.8808393016	 0.6162846072	 0.114002
H	-0.6707193248	-0.3556391022	-0.5504179369	 0.096203
H	 1.0640637831	-0.1798942727	-0.7385340007	 0.09651
H	 1.3186701091	-0.0882940731	 1.7704866625	 0.107587
H	-0.4064447081	-0.3308792924	 1.947853207	 0.093534
H	-0.8381899259	-2.6542207938	-0.1952809137	 0.121949
H	-0.3320356773	-3.9589879696	 0.879426845	 0.113504
H	-1.4071301175	-2.6874016833	 1.4802269496	 0.119352
H	 2.1034186139	-3.5022002591	 0.3298324523	 0.11204
H	 2.8091148589	-1.8622772775	 0.7116012706	 0.120775
H	 1.2338049929	-3.6976417342	 2.6529655835	 0.107056
H	 3.1124011939	-0.7354328804	 5.052864043	 0.191066
