13
gdb 17230	5.59	1.74883	1.59817	4.9027	62.89	-0.2576	-0.0075	0.2501	783.8643	0.096396	-361.400343	-361.394437	-361.393493	-361.430305	23.014	
N	 0.0084823733	-1.0398194175	-0.0607964232	-0.342295
C	-0.0079660564	 0.1163107314	-0.0238416602	 0.198175
C	-0.0060672785	 1.5397674665	 0.0062437822	 0.394131
O	-1.005984278	 2.2621542726	 0.7168412795	-0.320352
C	-0.5233601421	 3.4479497248	 0.0172075906	 0.051957
C	 0.8666182592	 3.7030547672	 0.6573026478	-0.233332
C	 1.2812236695	 2.4126929023	-0.0479668943	-0.154212
C	 0.1779451921	 2.5580662469	-1.0789082285	-0.18706
H	-1.2848757944	 4.2119660939	-0.1106099015	 0.106681
H	 1.3646418535	 4.5671964647	 0.2114187426	 0.11966
H	 0.8973542746	 3.7519441721	 1.7487466811	 0.119431
H	 2.2598292872	 1.9672504583	-0.1662886116	 0.12085
H	 0.1427636799	 2.4865876569	-2.1563254345	 0.126365
