20
gdb 120389	3.09939	0.87761	0.75661	1.3486	76.93	-0.261	0.0269	0.2879	1534.654	0.169916	-440.285375	-440.275537	-440.274593	-440.320831	35.281	
C	-0.2501375055	 1.5720827495	 0.1785319553	-0.408254
C	-0.0789062708	 0.0630536594	 0.0579297668	-0.156184
C	 0.4819091658	-0.5820734349	-1.2426590677	 0.114185
C	 0.97587422	 0.2922289714	-2.3773516335	-0.219702
C	 1.7183755413	-0.5110251866	-3.4514897346	-0.067118
O	 2.1364813361	 0.2947342025	-4.5403593349	-0.417484
O	 1.5982949313	-1.150407837	-0.4652241915	-0.274678
C	 1.1522419721	-0.5527135796	 0.6948393804	 0.437152
N	 1.6417519433	-0.5416340757	 1.8490674426	-0.546301
H	 0.6475040394	 2.1128640257	-0.1319638746	 0.126093
H	-1.0915807289	 1.9239184617	-0.4262791258	 0.121417
H	-0.4477021631	 1.8335812517	 1.2216180111	 0.143889
H	-0.989199524	-0.4424768828	 0.3941346173	 0.109837
H	-0.1349431279	-1.4022206884	-1.6263250028	 0.091754
H	 0.1209147557	 0.799761811	-2.8402680461	 0.115009
H	 1.6397759688	 1.0703089382	-1.980728651	 0.097409
H	 2.5617923803	-1.0478316809	-2.9942334327	 0.111207
H	 1.0483759592	-1.2647860768	-3.8804448761	 0.112317
H	 2.8272378941	 0.8849796621	-4.223171306	 0.283193
H	 2.5094318429	-1.0790630903	 1.8920183537	 0.226256
