19
gdb 36697	4.91746	0.76875	0.73078	4.5213	80.41	-0.2392	0.0245	0.2638	1550.0388	0.160367	-382.037759	-382.029221	-382.028277	-382.071842	31.794	
N	-0.1258145125	-1.1262627351	-0.1900456441	-0.2987
C	-0.0449697994	 0.0107835477	-0.0041399192	 0.256552
C	 0.0707339089	 1.4478895161	 0.2595933234	-0.265275
N	 1.2732654216	 2.0000397984	-0.350458727	-0.302746
C	 1.4367416041	 3.4220498231	-0.1217409592	 0.059673
C	 1.7049669577	 4.0339804241	 1.3155547005	-0.270824
C	 2.965833516	 4.6981642793	 0.753530954	-0.034613
C	 3.9068249187	 3.6445149015	 0.253345362	-0.280249
C	 2.7400254797	 4.042433523	-0.6142161363	-0.075274
H	-0.8048105135	 1.9481582738	-0.1740466283	 0.154887
H	 0.0028687074	 1.5959834484	 1.3526523756	 0.134383
H	 2.0910679749	 1.4894554323	-0.0346912437	 0.2301
H	 0.5749167091	 3.9287045808	-0.5697618572	 0.088147
H	 0.9269018328	 4.7343136943	 1.6266054938	 0.105569
H	 1.8766393944	 3.3163494589	 2.1262861196	 0.093022
H	 3.2902825432	 5.7085155493	 0.9666500292	 0.092416
H	 4.8695189514	 3.997480966	-0.1015865702	 0.119011
H	 3.9535699754	 2.6732989591	 0.7425585672	 0.10112
H	 2.8931902003	 4.447140289	-1.6070696901	 0.092801
