20
gdb 117778	2.59051	0.97868	0.84261	2.6815	75.65	-0.2895	0.0211	0.3106	1464.378	0.168754	-440.300483	-440.289964	-440.28902	-440.336186	37.876	
C	-0.0726070115	 1.6065468352	 0.0212065147	-0.386344
C	-0.0418360899	 0.0764780287	-0.0043751434	-0.184138
C	 0.7511923025	-0.4694051969	-1.1971158033	-0.200115
C	 0.7592099798	-2.0001621234	-1.2943781331	 0.192819
O	-0.5737925955	-2.45527762	-1.3989645987	-0.442582
C	 1.5532506506	-2.4977774918	-2.5249559878	-0.109309
O	 1.3800036836	-3.8951786571	-2.6873763832	-0.427802
C	 1.4012505694	-2.6062171192	-0.0919697344	 0.245718
N	 1.9258548806	-3.129279285	 0.7959634008	-0.347941
H	 0.937571145	 2.025562815	 0.0900356417	 0.115437
H	-0.5378215282	 2.0104020994	-0.8849508824	 0.116079
H	-0.6434797515	 1.9733567366	 0.8792417206	 0.119228
H	 0.3992454305	-0.2998243769	 0.926464517	 0.117788
H	-1.0611205554	-0.3196932874	-0.0483574795	 0.125951
H	 0.3169688232	-0.0989331592	-2.133422431	 0.111435
H	 1.7888236906	-0.1154223069	-1.1563754677	 0.108391
H	-0.517569658	-3.3538709763	-1.7566205867	 0.295085
H	 1.1231561718	-2.0285684555	-3.4142221552	 0.129504
H	 2.6106278475	-2.2151705359	-2.4471428473	 0.115861
H	 1.9058837248	-4.3435204333	-2.0138654811	 0.304935
