19
gdb 116415	2.13072	1.67841	1.18615	3.502	74.18	-0.2278	0.0308	0.2586	1117.956	0.160345	-456.338886	-456.32984	-456.328896	-456.373021	32.874	
C	 0.6817267232	 1.0813085375	 0.3535120963	-0.242585
O	 0.6977060653	-0.3036441193	 0.0496419419	-0.244416
C	 0.4070216204	-0.5843337734	-1.2982011489	 0.147122
O	 1.4218122188	-0.1408070352	-2.1692222932	-0.270204
C	 2.6392245991	-0.889862962	-2.1752998179	-0.046114
C	 2.6031513071	-2.1152415006	-1.2594016103	-0.196673
N	 1.33911577	-2.8023540988	-1.47054037	-0.338492
C	 0.1691013932	-2.0870820282	-1.3903495496	 0.378277
N	-1.0331708401	-2.5133163353	-1.4156530585	-0.543593
H	 1.4271780478	 1.6327810433	-0.231838205	 0.121421
H	-0.3095080622	 1.5164116036	 0.1609782396	 0.11537
H	 0.9116541879	 1.1762724988	 1.4167264486	 0.126893
H	-0.5001544368	-0.061718703	-1.6189115609	 0.103917
H	 2.8110445082	-1.2122792337	-3.2094860669	 0.110973
H	 3.4633089044	-0.2295076361	-1.8791969402	 0.105243
H	 3.4252324812	-2.7840180336	-1.5287488985	 0.111142
H	 2.7321597647	-1.8128868572	-0.2132293645	 0.128145
H	 1.2935006664	-3.7989257903	-1.3271772161	 0.238465
H	-1.0652036988	-3.5349924766	-1.464874796	 0.19511
