21
gdb 71002	2.99858	1.5669	1.40303	1.6997	83.28	-0.2286	0.0646	0.2931	1042.2032	0.183134	-386.997281	-386.989593	-386.988649	-387.028676	32.362	
C	-0.1090189825	 1.5439606391	-0.0105069568	-0.493262
C	 0.0614981755	 0.0523490088	-0.0543384612	 0.334825
C	 0.3247280516	-0.6624596099	-1.3871788499	-0.244249
C	 0.1374529243	-2.1134471923	-0.8716188129	-0.249109
C	-0.1253819804	-1.7860110329	 0.6185277042	 0.406454
C	 0.4637009482	-2.7933159467	 1.640900559	-0.334312
C	 1.8241112803	-1.9692858328	 1.406671095	-0.305611
C	 0.8673237212	-0.7712468213	 1.0364189355	-0.028194
O	-1.1452549281	-0.7085883989	 0.4501829567	-0.405711
H	 0.8009489782	 2.0354401105	-0.3703389851	 0.122934
H	-0.9409809943	 1.8540598541	-0.6514088438	 0.12937
H	-0.3135315739	 1.8864666538	 1.0071732885	 0.12728
H	-0.4096775088	-0.3733511247	-2.1428444611	 0.102596
H	 1.3259157917	-0.4595761715	-1.7794714188	 0.095752
H	-0.7427415736	-2.6032746469	-1.295035737	 0.106612
H	 1.0012473944	-2.7593598215	-1.0459238634	 0.095102
H	 0.1033101374	-2.6481177374	 2.6610557783	 0.121118
H	 0.4504439369	-3.8573794904	 1.3886596024	 0.102283
H	 2.4612868993	-1.8226410688	 2.2806821356	 0.107955
H	 2.4191228204	-2.3813136775	 0.5912165266	 0.118084
H	 0.5299650022	-0.356679093	 1.9909281283	 0.090082
