16
gdb 56944	2.20701	1.27433	0.9682	4.6158	75.24	-0.277	0.0157	0.2927	1232.2357	0.122265	-400.705236	-400.695954	-400.695009	-400.739898	33.507	
O	 1.3592285774	 1.6830578262	-0.5088593746	-0.41497
C	 0.5047015085	 0.6815457869	 0.0338523653	-0.07526
C	 0.2382240269	-0.387835879	-0.9316640203	 0.300065
C	 0.0772984723	-1.2722524808	-1.7292852377	-0.444475
C	 1.0745171797	 0.1153560977	 1.3285894705	-0.008618
C	 1.0289538078	 0.9336286753	 2.5783010408	-0.301841
C	 0.1579394044	-0.3104054932	 2.4694833331	-0.168082
C	-1.2669834514	-0.1675396585	 2.3556133589	 0.291209
N	-2.4149077337	-0.0498973609	 2.2693775044	-0.340143
H	 2.0817159454	 1.2371642488	-0.9645916955	 0.287459
H	-0.4340327761	 1.2005607134	 0.2613746585	 0.137871
H	-0.0947555751	-2.045967806	-2.436705412	 0.207489
H	 1.9382084304	-0.527648858	 1.1866725482	 0.108114
H	 1.8646824043	 0.8923091494	 3.266621288	 0.132986
H	 0.5236838382	 1.8915903628	 2.5325754557	 0.149853
H	 0.464895751	-1.1833427842	 3.0350423967	 0.138344
