21
gdb 98829	3.12113	0.99559	0.92354	3.0771	79.23	-0.2605	-0.0268	0.2337	1374.8085	0.181203	-424.23569	-424.225996	-424.225052	-424.271035	35.516	
C	-0.7327711555	 1.3166889122	 0.2769113763	-0.401685
C	-0.2447676159	-0.1227211838	 0.1546109935	 0.00973
C	 0.7952079826	-0.3532650835	-0.9802555615	-0.223403
C	 1.9287904581	-0.3906006001	 0.0761748277	-0.23453
C	 0.8699638932	-0.573454181	 1.1932667515	-0.093001
C	 1.0088922587	 0.2517712091	 2.4413503365	 0.351353
O	 1.6181544039	 1.3041825388	 2.4782653458	-0.338825
C	 0.3220060627	-0.2391645443	 3.7084125912	-0.134081
O	 0.4481802876	 0.6787105138	 4.7507272473	-0.421199
H	 0.1006594171	 2.0219625412	 0.3455139346	 0.139207
H	-1.331104846	 1.5810478814	-0.6015436278	 0.115964
H	-1.361322872	 1.459939009	 1.1626265332	 0.117779
H	-1.1022625972	-0.8009423409	 0.1351529794	 0.077184
H	 0.6566239949	-1.3143474458	-1.4824058098	 0.101981
H	 0.8544743819	 0.4287101146	-1.7417332925	 0.102061
H	 2.6775210775	-1.1798720985	-0.0164918584	 0.103148
H	 2.43737443	 0.5690199887	 0.187704223	 0.129348
H	 0.7175672453	-1.6235237224	 1.4607005407	 0.078274
H	-0.737381817	-0.4399733169	 3.4750949556	 0.114617
H	 0.7651295859	-1.2164305638	 3.9702625306	 0.113104
H	 1.0044936442	 1.3876323421	 4.387844073	 0.292971
