18
gdb 13984	4.68954	1.26276	1.13751	2.722	68.84	-0.2293	0.0798	0.3091	1098.5094	0.152766	-384.877367	-384.869281	-384.868337	-384.91037	29.249	
C	-0.2350672003	 1.3897741584	-0.4669580501	-0.221214
O	-0.26193805	 0.0265723432	-0.8153767165	-0.233809
C	 0.9446981342	-0.6428229954	-0.5083902311	-0.18746
C	 0.7951738235	-2.0944244772	-0.8252502152	 0.27264
C	 1.9406947131	-2.9949514338	-1.249162056	-0.359891
C	 0.738978553	-2.8552140339	-2.1316100691	 0.074746
O	-0.3204074752	-3.7021793596	-1.688461909	-0.286997
C	-0.3922681357	-2.9714276528	-0.4310679957	-0.126055
H	-0.0642335223	 1.5337679428	 0.6120192969	 0.103805
H	 0.5507806127	 1.9366419262	-1.0123154241	 0.103568
H	-1.2067585381	 1.8140296323	-0.7305862912	 0.129409
H	 1.7845398357	-0.2150374799	-1.0827634761	 0.086962
H	 1.1904717409	-0.5045230181	 0.5605672542	 0.088202
H	 2.830103936	-2.4675346571	-1.5822578457	 0.113252
H	 2.125546212	-3.9359560119	-0.7378336305	 0.114598
H	 0.7443770421	-2.540665512	-3.1688009635	 0.106722
H	-0.2798585151	-3.6276449113	 0.4404724607	 0.098775
H	-1.3285998064	-2.4092865999	-0.3680854481	 0.122748
