17
gdb 97706	2.74697	0.86579	0.71261	2.3099	80.4	-0.2533	-0.0395	0.2138	1613.4056	0.132427	-421.785076	-421.775267	-421.774323	-421.822028	33.722	
C	 0.2163348369	 1.3371302652	 0.547855613	-0.367117
C	-0.0910561206	 0.2399568168	-0.4880165085	-0.3264
C	-1.4255495338	-0.3270982381	-0.3389857928	 0.206549
C	-2.532043687	-0.7801480504	-0.1956997362	-0.03649
C	-3.8623890962	-1.2861043086	-0.0229350135	 0.090032
C	-4.2763558318	-2.5862029471	-0.6213348258	-0.205456
O	-4.0346311811	-2.4912282142	 0.764769602	-0.252253
C	-4.9819244629	-0.3044843149	 0.2178719007	 0.112132
O	-4.8947123516	 0.885621946	 0.0953807908	-0.235223
H	 1.2236408184	 1.7335194103	 0.3908893263	 0.117261
H	-0.497718899	 2.1602189612	 0.4635326001	 0.138521
H	 0.1554019046	 0.9393254888	 1.5641446056	 0.132804
H	 0.0130101783	 0.6481095214	-1.5014817406	 0.136815
H	 0.6510862233	-0.5645903777	-0.408836194	 0.135607
H	-5.3151019379	-2.7378077731	-0.9156002425	 0.125381
H	-3.5315914312	-3.1241607725	-1.2042958398	 0.138566
H	-5.9202830684	-0.8137503231	 0.5310432851	 0.089272
