19
gdb 84908	2.63854	1.44892	1.07678	3.6357	77.73	-0.2492	-0.021	0.2282	1149.0022	0.158395	-423.036284	-423.027617	-423.026673	-423.069677	32.302	
C	-0.0376723954	 1.607929274	-0.1178795802	-0.395114
C	 0.0099841276	 0.0710193781	-0.0209028886	-0.054068
C	 0.6685649382	-0.5345182415	-1.2377974697	-0.073985
C	 1.9063201356	-1.0210751792	-1.202249315	-0.068453
C	 2.7399201009	-0.9876843818	 0.0478460331	-0.120544
O	 2.1693201968	-0.1992081084	 1.0777414245	-0.240831
C	 0.7895694965	-0.4213192827	 1.2247577309	 0.010071
C	 0.2957573049	 0.2363077382	 2.4981037933	 0.143296
O	 0.9668920398	 0.8611178776	 3.2724445327	-0.235963
H	 0.9735323906	 2.0175593667	-0.0498978963	 0.142924
H	-0.4704716038	 1.9215410432	-1.0725353984	 0.115208
H	-0.6412304623	 2.0459732378	 0.6837118422	 0.120774
H	-1.0179719054	-0.3103175033	 0.0498147793	 0.08162
H	 0.0953178418	-0.5415464378	-2.1614375222	 0.093907
H	 2.3645838078	-1.4681445352	-2.0803612258	 0.096424
H	 2.9203731826	-2.0172461167	 0.4086388665	 0.102225
H	 3.723640348	-0.5494354131	-0.156379157	 0.125263
H	 0.577946164	-1.5023383051	 1.343461953	 0.085903
H	-0.7968781782	 0.0768735393	 2.6628925277	 0.071344
