20
gdb 116085	2.58563	1.31373	0.91826	2.1225	77.33	-0.2612	0.0164	0.2776	1300.8735	0.171621	-440.311336	-440.302493	-440.301549	-440.34524	33.043	
C	 0.0159958331	 1.5024375347	 0.0087988926	-0.386856
C	-0.0126141573	-0.0252794012	 0.0835756609	-0.206149
C	-1.412691089	-0.6025989757	-0.0052708891	 0.216416
O	-1.3369718143	-1.9920321363	-0.0038854407	-0.237321
C	-2.6317553709	-2.5763245892	-0.0726392387	-0.109011
C	-3.42713374	-2.1835354156	 1.172067712	-0.266041
C	-3.3621693089	-0.6939547319	 1.4154108654	 0.37295
N	-4.3166257247	-0.0603646003	 1.9510238277	-0.499719
O	-2.1682815416	-0.0955925504	 1.1136436541	-0.265832
H	 1.0433834465	 1.8710521132	 0.0733290133	 0.118253
H	-0.4079602012	 1.8632328473	-0.9348338634	 0.115786
H	-0.5584079692	 1.944543949	 0.8263470825	 0.136209
H	 0.567813811	-0.4654412004	-0.733937161	 0.112427
H	 0.4293946911	-0.3784370365	 1.0213084485	 0.117785
H	-1.9323884927	-0.259724535	-0.9186310615	 0.070959
H	-3.1452210033	-2.2415520184	-0.988150623	 0.102561
H	-2.488828523	-3.657078799	-0.1358055976	 0.119378
H	-4.4732259737	-2.4880099753	 1.1101164386	 0.133154
H	-2.979799314	-2.6804264992	 2.0413418708	 0.136828
H	-4.0606369081	 0.9236173804	 2.0618990487	 0.218224
