17
gdb 128659	2.32592	1.48629	0.91777	1.1115	73.33	-0.1924	0.0315	0.2239	1247.3353	0.135567	-455.148349	-455.139013	-455.138069	-455.182805	32.858	
C	-0.0785302306	 1.3411951595	 0.0980145366	-0.233789
O	-0.0503510521	-0.078422095	-0.0070889774	-0.287213
C	-1.2553922937	-0.6860691746	-0.0330620214	 0.356257
N	-2.4231110449	-0.0618804377	 0.0122026857	-0.368312
N	-3.3390555197	-1.0568798015	-0.0743230717	 0.031608
C	-4.7377529311	-0.7516267737	 0.1006219687	-0.316309
C	-2.7601504193	-2.2902734111	-0.147540108	-0.108667
C	-1.3987766826	-2.0880612745	-0.1330892878	 0.130329
O	-0.413432118	-3.0238896106	-0.2154660884	-0.454608
H	 0.9630333911	 1.6655079776	 0.1084616989	 0.125825
H	-0.6046747966	 1.7854702014	-0.7535605127	 0.133752
H	-0.5814562332	 1.6548205822	 1.0189968311	 0.133217
H	-5.3372716927	-1.5510010213	-0.3410362735	 0.135174
H	-5.0055191423	-0.6497469939	 1.1595906487	 0.134921
H	-4.9608045754	 0.1876421437	-0.4092600055	 0.149531
H	-3.3418196134	-3.1949606071	-0.2128378434	 0.134142
H	 0.4276386245	-2.5538265933	-0.1977511799	 0.30414
