10
gdb 3848	5.84719	2.9921	1.97927	0.7933	52.49	-0.2665	-0.0999	0.1667	581.3851	0.067923	-355.460155	-355.454836	-355.453892	-355.489435	19.117	
N	-0.0607409876	 1.2598110383	 0.3262095247	-0.509379
C	-0.0312969068	 0.0501647547	-0.0500724525	 0.392895
O	 1.1382211245	-0.5900542056	-0.4004770158	-0.272278
N	 1.1373433407	-1.9283234886	-0.8123803072	-0.05729
C	-0.0059058293	-2.5103393019	-0.8417318059	 0.106236
N	-1.2556772713	-1.9858536468	-0.516447553	-0.232754
C	-1.2460056326	-0.7597163202	-0.1402175622	 0.013653
H	 0.8745620174	 1.67188844	 0.3304923397	 0.240111
H	 0.0200276141	-3.545747928	-1.1638766559	 0.156682
H	-2.1759746091	-0.2660322919	 0.133661808	 0.162125
