16
gdb 5595	3.47564	1.83231	1.26371	1.7468	67.86	-0.1803	0.0477	0.228	934.8397	0.132729	-379.947449	-379.9397	-379.938756	-379.97931	29.432	
N	-0.265467821	 1.1349366094	-0.6742291017	-0.616923
C	-0.1706014733	-0.1662631512	-0.1483181459	 0.214207
C	-1.1467496596	-1.0486675651	 0.2799438111	 0.189836
C	-2.6042791386	-0.7230715173	 0.3804418156	-0.191722
O	-3.1032578796	-0.0448099952	-0.7831202058	-0.415136
C	-0.4830457264	-2.2720568017	 0.6066493758	-0.256895
C	 0.8590600235	-2.0961413719	 0.3852382098	-0.093345
N	 1.0367898047	-0.8096404187	-0.0817319843	-0.269353
H	-1.2412784265	 1.333875122	-0.8725355422	 0.255379
H	 0.0876060227	 1.8433894514	-0.0374761758	 0.238842
H	-3.181240596	-1.6384465166	 0.5782048423	 0.096195
H	-2.8157677459	-0.0298403281	 1.204111909	 0.109406
H	-2.8651993968	-0.5910307475	-1.5408751427	 0.280259
H	-0.9507539574	-3.1698328709	 0.9834896021	 0.08833
H	 1.697887628	-2.7589714784	 0.5191071722	 0.114053
H	 1.8954690421	-0.4232302201	-0.4343632994	 0.256868
