12
gdb 131987	4.82438	1.10197	0.89786	5.3288	63.08	-0.2619	-0.1039	0.158	1170.7077	0.077433	-505.84253	-505.835169	-505.834225	-505.874883	26.71	
N	-0.0259147676	 1.3678079914	 0.1493108035	-0.589258
C	 0.0437619782	-0.0007785318	 0.0409108941	 0.453777
N	-1.0545332257	-0.7389370376	 0.0056599116	-0.199562
O	-0.6226640775	-2.0683798789	-0.0166185337	-0.184633
C	 0.7044332848	-2.0593437798	-0.0107872297	 0.566495
C	 1.2212712768	-0.8081584174	 0.0253554125	-0.402082
N	 1.3810790737	-3.3378350231	-0.0377890233	 0.34506
O	 2.6055631982	-3.2881803038	-0.041747237	-0.355292
O	 0.6905886613	-4.3428780126	-0.0542573361	-0.332941
H	 0.7182817981	 1.8781652884	-0.3011863095	 0.266663
H	-0.9408016869	 1.749572957	-0.0470747044	 0.272042
H	 2.2574638966	-0.5205830616	 0.048754762	 0.159728
