18
gdb 86257	3.30065	1.16348	0.90353	5.7241	83.4	-0.2065	-0.0338	0.1727	1276.8956	0.147626	-439.108378	-439.099352	-439.098408	-439.142678	32.299	
C	-0.0560964279	 1.4248280214	-0.1123022584	-0.331672
N	 0.0138015427	 0.002918409	 0.115120724	-0.030674
C	-1.168472754	-0.8591175982	-0.0446295085	-0.193963
C	-0.6140136142	-2.3051268348	 0.0381457604	 0.016476
O	-1.0734190827	-3.058715302	-1.0686681438	-0.443399
C	 0.8895079369	-2.086223585	 0.0426087793	 0.108946
C	 1.8177153394	-3.1647633978	-0.0660762615	 0.055738
O	 1.4763971386	-4.3314778358	-0.2418108781	-0.342211
C	 1.1378540945	-0.7492513681	 0.0787897268	-0.072448
H	 0.9244342697	 1.8733168347	 0.0637754233	 0.139927
H	-0.3678840084	 1.6604039146	-1.140639093	 0.132908
H	-0.7743388555	 1.8887160821	 0.5732349112	 0.137562
H	-1.9109729408	-0.6305240843	 0.7256862968	 0.118832
H	-1.6268501516	-0.7053824445	-1.030189714	 0.129548
H	-0.9330324901	-2.7882017701	 0.9747242017	 0.080545
H	-0.5308060652	-3.8614208179	-1.062732926	 0.298174
H	 2.8955282711	-2.8965291057	-0.0043106531	 0.057988
H	 2.1040983577	-0.2561454477	 0.0849598528	 0.137724
