16
gdb 50177	3.06412	1.43405	1.31065	4.9868	69.88	-0.2519	-0.0456	0.2063	1012.1915	0.124739	-437.861608	-437.85418	-437.853236	-437.894008	27.699	
O	-0.2984994566	 0.1426303861	-0.1906315924	-0.2273
C	 0.0533670752	 1.1694964116	 0.322544408	 0.162559
C	 1.3286439086	 1.9086660415	-0.0014706745	-0.036203
O	 2.2894309455	 1.1142256531	-0.7790283391	-0.256933
C	 1.965796787	 1.8598681647	-1.8820799327	 0.456873
N	 1.8703627674	 1.6586079884	-3.1197548539	-0.301204
C	 0.9359913847	 2.7479904392	-3.5477062357	-0.156114
C	 0.1207711008	 3.1595211293	-2.2590152637	-0.271431
C	 1.2073206304	 2.942432251	-1.1940009686	-0.169364
H	-0.5743889906	 1.7046940513	 1.0721064961	 0.086462
H	 1.7925583779	 2.3121285272	 0.902710034	 0.115797
H	 1.4914401722	 3.5986164097	-3.9633859526	 0.112219
H	 0.2846646745	 2.3623455704	-4.3351715291	 0.125373
H	-0.2768744137	 4.1758177133	-2.2995620197	 0.109904
H	-0.7119181502	 2.4614061955	-2.1297866074	 0.132382
H	 1.7835867469	 3.8436313777	-0.9735155188	 0.116981
