16
gdb 28492	3.20462	1.40642	0.98432	2.3211	77.14	-0.2099	-0.0162	0.1937	1157.6421	0.125764	-434.143777	-434.135475	-434.13453	-434.176824	31.227	
C	-0.0095515186	 1.4755840927	 0.0563762848	-0.460463
C	 0.0119122325	-0.0263466343	-0.0002706236	 0.332048
N	-0.10382678	-0.6177609265	-1.1843256822	-0.290272
C	-0.0751764681	-1.958560448	-1.2009207824	-0.060624
C	 0.0709985105	-2.7392106477	-0.0630618534	 0.180996
N	 0.1704555934	-4.1274286866	-0.0569664266	-0.600545
C	 0.174369134	-1.9952379439	 1.1286869375	 0.38861
O	 0.299101335	-2.6820486535	 2.2860669647	-0.42809
N	 0.1465252992	-0.6811419137	 1.1695203295	-0.375018
H	 0.925002094	 1.8588541314	 0.4797511535	 0.13284
H	-0.1442880302	 1.8841091266	-0.945359194	 0.135421
H	-0.8199222839	 1.8261578528	 0.7039972654	 0.13158
H	-0.1733745246	-2.4354500485	-2.175167381	 0.100053
H	-0.2820071665	-4.5862640688	-0.8347708217	 0.250301
H	-0.0745877006	-4.5495658564	 0.827252354	 0.262278
H	 0.342557604	-2.0189866958	 2.9894741756	 0.300885
