11
gdb 1374	8.17957	1.59325	1.33351	5.1914	58.24	-0.2549	-0.0509	0.204	827.4768	0.077374	-339.418028	-339.410839	-339.409895	-339.449597	24.471	
N	 0.2601903617	 1.2894617041	 0.0052215923	-0.393188
C	 0.0213514033	 0.0464223338	 0.0020327062	 0.084497
N	-1.2573402894	-0.5096748443	 0.0109144624	-0.325444
C	-2.4914632998	 0.1360114562	 0.0265653094	 0.312292
O	-2.6618053973	 1.3290624567	 0.0356279779	-0.294854
C	-3.5933586859	-0.8221979963	 0.031341327	 0.196458
C	-4.524038506	-1.5836707168	 0.0356833563	-0.392011
H	 1.2672818403	 1.4442569675	-0.0032100997	 0.232891
H	 0.7759984091	-0.7503005525	-0.0084357304	 0.098611
H	-1.3004458015	-1.5170124708	 0.005574911	 0.264809
H	-5.3583661545	-2.2424780276	 0.0397634374	 0.215939
