10
gdb 130881	7.3581	0.92347	0.8205	2.3602	62.69	-0.3132	-0.1277	0.1855	1235.9602	0.053933	-467.60435	-467.597251	-467.596307	-467.636594	24.102	
O	-0.0104577394	-0.0106257674	-0.0005089834	-0.213117
C	 0.0020327071	 1.189830054	 0.0081931053	 0.083106
C	 1.2571910711	 1.9917136873	 0.001548543	 0.323953
N	 1.3431196242	 3.2892415213	 0.010456611	-0.308055
C	 2.7029865419	 3.4738906679	-0.001845017	 0.263984
N	 3.4091790929	 2.3614941985	-0.017546682	-0.121564
O	 2.4496106519	 1.3761474809	-0.0151660391	-0.152886
C	 3.3262943259	 4.7565782598	 0.0013596378	 0.282244
N	 3.8205637927	 5.8004221383	 0.0040999211	-0.298257
H	-0.9042852783	 1.8222561794	 0.0224000932	 0.140592
