19
gdb 71854	3.31302	1.63437	1.35413	1.6273	79.35	-0.2162	0.0092	0.2254	1004.3352	0.160589	-385.866672	-385.859276	-385.858332	-385.898057	30.082	
C	-0.1129390595	 1.5503056061	-0.0525944788	-0.495436
C	-0.1017841308	 0.058614569	 0.0130394987	 0.463477
O	 0.7610836159	-0.6318873739	-0.89973366	-0.34121
C	-0.1981923351	-1.7480939614	-0.9830129214	 0.054748
C	 0.3693752075	-3.0234439641	-0.4308038197	-0.054518
C	 0.7387780563	-3.0573110692	 0.8487607273	-0.053839
C	 0.6032697837	-1.8613198838	 1.7575915428	-0.285384
C	-0.359263893	-0.7929094023	 1.2350167284	-0.107008
C	-1.1575522987	-1.013413849	-0.0360733218	-0.222355
H	 0.8665560972	 1.954893285	 0.2276735985	 0.129861
H	-0.3433677427	 1.8946966995	-1.0657794285	 0.127069
H	-0.8575358733	 1.9617042765	 0.6350109801	 0.121221
H	-0.5568436948	-1.8429650961	-2.0106352802	 0.078208
H	 0.4753154861	-3.8864918713	-1.0799756124	 0.087962
H	 1.1602291871	-3.9600873465	 1.2831793886	 0.091986
H	 0.2667816925	-2.2024274336	 2.7450504747	 0.104692
H	 1.5956803813	-1.418645013	 1.9228409526	 0.123516
H	-0.9162432519	-0.2648860482	 2.005108272	 0.085676
H	-2.2365895478	-0.9852444936	-0.109432661	 0.091332
