23
gdb 109340	2.72565	1.26391	0.97088	0.2193	92.16	-0.2205	0.0279	0.2483	1326.0874	0.207677	-351.167487	-351.158624	-351.157679	-351.201157	34.645	
C	 0.1749155706	 1.5618053809	-0.1350618213	-0.37257
C	-0.0767779224	 0.0577652798	 0.0720436696	-0.271666
C	 0.6404036051	-0.5227804848	 1.2678000266	 0.320423
C	-0.0065786719	-0.9432995114	 2.3600363733	-0.164789
C	 0.6946568558	-1.5269203642	 3.5636908985	-0.246378
C	 1.957175302	-2.3109384714	 3.1591519087	-0.226281
C	 2.829478779	-1.5258438537	 2.1809208929	-0.021733
C	 2.8139007782	-1.8650653445	 0.7088646955	-0.292001
C	 2.1292416673	-0.6068309825	 1.2092057059	-0.109785
H	 1.2350095482	 1.776555785	-0.30266674	 0.117345
H	-0.3770879835	 1.9314834067	-1.0050202088	 0.110577
H	-0.1477168831	 2.1343322664	 0.7404681575	 0.117516
H	-1.1537501587	-0.113194067	 0.1815845655	 0.095225
H	 0.2374596477	-0.479937724	-0.8332481272	 0.099645
H	-1.0917300598	-0.8710163299	 2.3974471726	 0.072915
H	 0.9644745663	-0.7219854188	 4.263639144	 0.105836
H	 0.0116353688	-2.1827473531	 4.1153622431	 0.095144
H	 2.5387230166	-2.5749416787	 4.048780512	 0.092818
H	 1.644628488	-3.2570275206	 2.7025937755	 0.09953
H	 3.7749762121	-1.1701878692	 2.5782253795	 0.079167
H	 3.7305090714	-1.7586473307	 0.1379600239	 0.104541
H	 2.1804459537	-2.6894385444	 0.3958808972	 0.109393
H	 2.6367047684	 0.3225670001	 0.9633891154	 0.085127
