20
gdb 117447	5.70116	0.55612	0.51311	1.1905	78.38	-0.2717	-0.0418	0.2299	2117.9373	0.167269	-440.301595	-440.290802	-440.289858	-440.33978	36.354	
C	 0.0040040541	 1.6076695851	-0.215477934	-0.385664
C	-0.047052077	 0.0880148017	-0.0401194052	-0.155082
C	 0.6823722197	-0.6490474932	-1.1633651207	-0.264647
C	 0.6632829976	-2.1511394277	-1.0402713078	 0.420339
N	 0.0921348157	-2.7580145592	-0.087670996	-0.521641
O	 1.3429146337	-2.6999208583	-2.095582495	-0.246952
C	 1.4445729365	-4.1078208563	-2.1715112148	-0.182145
C	 2.2394780644	-4.4447402388	-3.4236894515	 0.138722
O	 2.4897728836	-5.5710709609	-3.7557499639	-0.22993
H	 1.0363458124	 1.9758040393	-0.2224261865	 0.112418
H	-0.4619676799	 1.9182238875	-1.1576706905	 0.112418
H	-0.5231778234	 2.115212605	 0.5978485447	 0.115194
H	 0.3931205778	-0.1981611851	 0.9204889864	 0.114067
H	-1.0859749705	-0.2550001148	-0.0027215905	 0.114063
H	 0.2543966571	-0.3897834649	-2.140993922	 0.121454
H	 1.7327114557	-0.3329570157	-1.2182727481	 0.121451
H	 0.1672850055	-3.7717530014	-0.1457309934	 0.221111
H	 1.9621754057	-4.5268789997	-1.2968840326	 0.145165
H	 0.4563708966	-4.5849283394	-2.2371317973	 0.145169
H	 2.5679194047	-3.5556679432	-4.0036529512	 0.10449
