18
gdb 66019	2.29093	1.33999	1.11549	3.9015	82.71	-0.2721	0.0118	0.2839	1173.5626	0.146238	-364.789699	-364.780546	-364.779602	-364.8234	34.342	
C	-0.1284578401	 1.5408845623	 0.0200780885	-0.445603
C	-0.0545079628	 0.0082138726	-0.0077081788	 0.113969
C	 1.1490574822	-0.5177843881	-0.8680118126	-0.256885
C	 1.9990503178	-0.6675970555	 0.4175600897	-0.245022
C	 0.6878556194	-0.6057728968	 1.2567486087	-0.168515
C	 0.6855969233	 0.1527587236	 2.4938368542	 0.280086
N	 0.6925201951	 0.7786310583	 3.4665229339	-0.334591
C	-1.3513694717	-0.5789470557	-0.2913471631	 0.270181
C	-2.4206821996	-1.0765430011	-0.5266142468	-0.439526
H	 0.8536589483	 1.9768841088	 0.2258186461	 0.125645
H	-0.4749154144	 1.9112734972	-0.9485822531	 0.130212
H	-0.8220992294	 1.8851212095	 0.7911246692	 0.147743
H	 0.9200724	-1.4791529635	-1.3311093061	 0.121983
H	 1.5140953231	 0.1692082148	-1.6336781517	 0.115759
H	 2.591655052	-1.5761324266	 0.528663031	 0.121382
H	 2.6404702279	 0.1950796833	 0.6049098323	 0.130055
H	 0.3024276717	-1.6093084245	 1.4504315139	 0.133422
H	-3.3674447727	-1.5112364686	-0.7334121554	 0.199706
