21
gdb 62565	2.3265	1.46823	1.16866	3.6164	84.3	-0.2338	-0.0049	0.2289	1172.1766	0.180222	-387.096063	-387.086568	-387.085624	-387.129625	36.501	
C	-0.0148379565	 1.5317869487	 0.0230532046	-0.462631
C	 0.0464365027	 0.011425835	 0.0650661468	 0.26593
C	-1.1782767131	-0.6168660263	-0.5883941212	-0.457914
C	 1.3419083449	-0.7610507878	-0.2418432902	-0.267093
C	 2.5291070482	-0.0678265745	 0.3399693022	 0.423272
O	 3.6307566309	 0.1753602891	-0.0694083071	-0.328251
C	 1.89400019	 0.0062362743	 1.7511937216	-0.427986
C	 0.6817914136	-0.7603777056	 1.182620284	 0.297887
C	 0.0541045358	-1.8946289606	 1.9454124718	-0.496349
H	 0.8679107347	 2.0152722324	 0.4439515083	 0.129778
H	-0.1136342617	 1.8755905364	-1.0122713592	 0.12356
H	-0.8907589111	 1.8931370199	 0.5747070235	 0.11677
H	-1.303934513	-0.2271909152	-1.6040353106	 0.124144
H	-1.1065369098	-1.7046364967	-0.6602513674	 0.120984
H	-2.0869331363	-0.3734527562	-0.0260043401	 0.1211
H	 1.3558591763	-1.5141363087	-1.02194643	 0.098361
H	 2.483329181	-0.6055049155	 2.4425706895	 0.125967
H	 1.7280006525	 0.9864005696	 2.2052858038	 0.116451
H	-0.4695788204	-1.5154037199	 2.8315655412	 0.126635
H	-0.670828529	-2.4531838589	 1.3497349523	 0.124792
H	 0.8172718303	-2.5989486892	 2.2944092961	 0.124593
