18
gdb 91502	2.64028	1.82826	1.50627	2.3743	72.11	-0.2381	0.0336	0.2717	933.0044	0.149231	-438.943911	-438.93695	-438.936006	-438.974872	29.152	
O	-0.131631478	 1.379183313	 0.011449669	-0.449191
C	 0.0009161958	-0.0227494244	 0.0174340173	 0.169016
C	 0.5778103415	-0.6177275712	 1.336316149	-0.238708
C	-0.6656695825	-1.378203237	 1.7678859978	-0.083138
N	-1.7802719539	-0.3179991246	 1.476657915	-0.436097
C	-1.3958641723	-0.7054847279	 0.0144942936	 0.215054
C	-1.7230600997	-1.34074628	-1.3638023757	-0.211644
O	-0.8588666021	-2.4773368553	-0.93862382	-0.323224
C	-1.2114496004	-2.0847797301	 0.4555454248	 0.118086
H	-0.7487134881	 1.5799545806	 0.7289778765	 0.286055
H	 0.5926355163	-0.2879211061	-0.8585987987	 0.096621
H	 1.4337075856	-1.2783515649	 1.1778118925	 0.112412
H	 0.857080967	 0.1711586654	 2.0374737938	 0.1097
H	-0.703633621	-1.8550370352	 2.7484843326	 0.083125
H	-2.6794113437	-0.7453722864	 1.7032512935	 0.226642
H	-2.7552261451	-1.6773599335	-1.5079373176	 0.113892
H	-1.3356428378	-0.8490736106	-2.2592535464	 0.130152
H	-2.1365792216	-2.6179055317	 0.7087715432	 0.081247
