16
gdb 42491	6.26797	0.57693	0.53347	5.8942	77.37	-0.2785	-0.0691	0.2094	1914.8034	0.121342	-400.745971	-400.736153	-400.735208	-400.782293	33.496	
O	-0.1227932852	-0.1034625709	 0.0016237616	-0.280701
C	-0.0678555364	 1.1063477495	 0.0055257139	 0.225827
C	 1.2432800801	 1.8778694347	-0.0023786232	-0.314893
C	 2.4684061737	 0.9654605339	-0.0170436538	-0.181937
C	 3.7771905764	 1.778455195	-0.0242235454	-0.353723
C	 4.9658016732	 0.9280959261	-0.0383550362	 0.260225
N	 5.8982165841	 0.2458906881	-0.0493696045	-0.299408
C	-1.2671954467	 1.9273203588	 0.0184721712	 0.24668
C	-2.2479039185	 2.6250598452	 0.0292818657	-0.383993
H	 1.2298997106	 2.5501742324	-0.8716521892	 0.137592
H	 1.2449127348	 2.5421088974	 0.8732042415	 0.137628
H	 2.4486434615	 0.3046650379	 0.8538621593	 0.141099
H	 2.4339507538	 0.3129717885	-0.893747924	 0.14105
H	 3.8146038651	 2.4373518125	-0.9001249882	 0.152683
H	 3.8294484315	 2.4289449787	 0.8571821744	 0.15269
H	-3.1263785179	 3.224091932	 0.0399221967	 0.219182
