23
gdb 65089	2.97926	1.29402	1.15516	0.2644	89.34	-0.2368	0.0882	0.325	1206.2316	0.206126	-351.118586	-351.109781	-351.108837	-351.15198	35.241	
C	 0.0243328459	 1.4847574363	 0.3652369853	-0.466089
C	 0.0151818725	 0.006333383	 0.0087940525	 0.231837
C	 1.0502063828	-0.4559717792	-0.9924673574	-0.30899
C	 1.2030297995	-0.8197512381	 0.4627803321	-0.291439
C	-1.3340004353	-0.6399689389	 0.0561139679	 0.344538
C	-1.835016309	-1.690196992	-0.8979678009	-0.335284
C	-2.6013479892	-0.398899499	-0.7835831473	-0.104591
C	-3.4780984932	-0.4257712112	 0.4694827922	-0.218398
C	-2.2028375897	-0.7018989017	 1.3316610643	-0.2925
H	 1.0408035825	 1.8897776617	 0.3386866971	 0.109349
H	-0.586696281	 2.061278792	-0.3383546266	 0.115256
H	-0.3717618195	 1.6599631906	 1.3715649866	 0.115386
H	 0.8003468771	-1.2484435706	-1.6875558758	 0.108793
H	 1.7139942076	 0.29746903	-1.4036785798	 0.106612
H	 1.9777963722	-0.3280399294	 1.0418112488	 0.105283
H	 1.0221687022	-1.85180848	 0.7433210547	 0.11007
H	-1.2734074501	-1.8068116853	-1.8182916335	 0.108812
H	-2.2646366416	-2.6172305082	-0.520663714	 0.096757
H	-2.7369271967	 0.2485838294	-1.6424197653	 0.080977
H	-3.931244171	 0.5406200583	 0.7026773555	 0.099409
H	-4.2626468328	-1.1901463863	 0.4886204139	 0.092194
H	-2.1699667649	-1.6500448382	 1.8791613663	 0.090073
H	-1.9967521283	 0.1074697366	 2.0351369935	 0.101943
