19
gdb 57710	3.46185	0.83598	0.80769	3.3684	79.31	-0.2745	0.0033	0.2777	1477.3218	0.155119	-423.019771	-423.009314	-423.00837	-423.055748	37.296	
C	 0.0656004041	 1.6067581822	 0.0028955534	-0.407578
C	-0.0918735607	 0.0700487655	-0.0334353678	 0.0477
C	 0.4400939513	-0.5515147535	 1.2767153977	-0.417137
C	-1.5799340425	-0.3023550665	-0.2413159656	-0.092501
O	-2.3839616326	 0.2173012892	 0.8214064582	-0.185703
C	-3.0859005908	-0.6467384549	 1.5811410739	 0.171718
O	-3.7737047696	-0.2945396842	 2.4901643997	-0.272144
C	 0.6385167706	-0.4825945317	-1.1781125831	 0.334176
C	 1.2190677546	-0.9451716502	-2.1237916051	-0.487573
H	 1.1143488198	 1.8776325973	 0.148170191	 0.126103
H	-0.2754410264	 2.0560623586	-0.9340022426	 0.124219
H	-0.5237225843	 2.0222565729	 0.8239337068	 0.139531
H	-0.1030256894	-0.148169673	 2.1357088892	 0.136159
H	 0.3321458005	-1.6403261125	 1.2698983761	 0.120593
H	 1.5006442367	-0.3194722628	 1.4010691409	 0.131727
H	-1.9477155472	 0.1349084042	-1.1738688538	 0.130568
H	-1.6899155642	-1.3918011565	-0.3020992346	 0.118491
H	-2.9531758643	-1.6997564788	 1.2641457369	 0.080801
H	 1.7424230645	-1.3487334654	-2.9553263613	 0.20085
