17
gdb 47251	2.27166	1.72477	1.21396	4.2302	75.56	-0.2398	-0.0284	0.2113	1053.1667	0.137424	-418.011772	-418.003635	-418.002691	-418.045043	30.221	
N	 0.0156954817	 0.967220435	-1.0124968864	-0.474906
C	-0.0212753205	-0.0000846974	-0.199340173	 0.248707
N	 1.0909284215	-0.6951937271	 0.3445035253	-0.328469
C	 1.6942105572	-1.655329756	-0.5903645444	-0.241026
C	 0.7737928668	-2.7255469009	-1.1277290202	-0.055302
C	-0.5594087193	-2.8100106239	-1.1271847133	-0.05835
C	-1.6582791547	-1.8973111656	-0.6263556034	-0.361702
C	-1.3233043567	-0.6581840144	 0.1960703954	 0.352773
O	-2.010782744	-0.2804464687	 1.1137399489	-0.302872
H	 0.9867035107	 1.245802385	-1.1868378734	 0.222431
H	 0.817620537	-1.1835828382	 1.192927485	 0.241268
H	 2.1274072931	-1.0920157937	-1.427076753	 0.133708
H	 2.5415237631	-2.1276743349	-0.0802934318	 0.124517
H	 1.3090611199	-3.5441731928	-1.6072161817	 0.09695
H	-0.9735938258	-3.6969903573	-1.6034961241	 0.104189
H	-2.1955716933	-1.5186147065	-1.5116182759	 0.160579
H	-2.3988029367	-2.4724087226	-0.059115694	 0.137506
