21
gdb 120041	2.88344	1.09216	0.98575	2.306	75.53	-0.2506	0.0632	0.3138	1314.5265	0.182305	-461.332706	-461.323314	-461.32237	-461.366978	35.296	
C	-0.0410255868	 1.2636945728	-0.2082937808	-0.230015
O	 0.3788672978	-0.080698709	-0.1193059511	-0.24921
C	 0.2008089045	-0.6287130455	 1.1875134409	-0.109412
C	 0.6185286274	-2.0911582766	 1.163703997	-0.06103
C	 1.8277967523	-2.4985852773	 0.2661109216	 0.103686
O	 2.8069997349	-1.4670372485	 0.2061297816	-0.446656
C	 2.2428043061	-3.5089635454	 1.3572870741	-0.258986
C	 1.4277292488	-2.6710905243	 2.381430826	 0.118242
O	 2.204033396	-1.7112690093	 3.0635861221	-0.436177
H	 0.5103833985	 1.9108262556	 0.4908469422	 0.111502
H	 0.1481268788	 1.599938594	-1.230532176	 0.129975
H	-1.115516204	 1.3621785265	 0.0069340059	 0.11259
H	 0.8133250478	-0.0742513796	 1.9124545988	 0.106717
H	-0.8504189275	-0.5189921998	 1.4943509825	 0.096304
H	-0.230197544	-2.7438954026	 0.9374705548	 0.07742
H	 1.6012847893	-2.8833294122	-0.7349752792	 0.067621
H	 2.3509442771	-0.7123633992	-0.1947646092	 0.289833
H	 1.8081166114	-4.4971203335	 1.1856413032	 0.102713
H	 3.3139341287	-3.6052473525	 1.5484864657	 0.109768
H	 0.8573099926	-3.2081193785	 3.1427476508	 0.079028
H	 2.7910068402	-1.3206118951	 2.4001689691	 0.286087
