17
gdb 41664	3.44204	1.91445	1.9013	1.3529	68.01	-0.2228	0.0918	0.3146	806.1901	0.14056	-421.818617	-421.813115	-421.812171	-421.848216	24.141	
C	-0.0245695837	 1.5552389381	 0.0524870441	-0.080298
O	 1.3508328261	 1.9836728284	 0.0269936325	-0.281998
C	 2.1462965036	 0.8093926847	-0.0912840756	 0.098249
C	 2.0010564004	 0.1363488401	-1.4559495413	-0.135987
C	 1.7258246142	-1.3166535489	-1.1590012735	 0.066754
O	 1.8359498289	-1.5393512387	 0.233264728	-0.251161
C	 1.377445069	-0.286771842	 0.7009501423	 0.035498
C	 0.0424993929	 0.0264483416	-0.042271533	-0.087444
C	 0.5591472426	-0.3988807465	-1.4193223932	-0.11264
H	-0.4899908152	 1.8952842718	 0.9875318166	 0.098687
H	-0.5690772792	 2.0070298675	-0.7854154719	 0.102979
H	 3.1616838766	 1.042829526	 0.2279089183	 0.082895
H	 2.4887155997	 0.4875217937	-2.3540949798	 0.094542
H	 2.0195017882	-2.1505625098	-1.7801051415	 0.110433
H	 1.3953999329	-0.2401719243	 1.7868513918	 0.08939
H	-0.844967944	-0.4989991501	 0.3116476912	 0.077093
H	-0.0704382228	-0.4671475017	-2.2958255549	 0.093007
