16
gdb 80738	4.41754	1.15904	1.14388	3.788	68.51	-0.2722	0.0081	0.2803	1100.7172	0.123978	-437.865781	-437.857764	-437.85682	-437.89875	29.316	
C	 0.0407157814	 1.6578557424	 0.0662736157	-0.410384
C	 0.0196739778	 0.1484689508	 0.0449647938	-0.063637
C	 1.2499228413	-0.6913766206	-0.2395475228	 0.028311
O	 2.4992811898	-0.0288624272	-0.1102479108	-0.241445
C	 2.80662728	-0.0668319616	 1.2641535168	 0.041769
O	 1.5877817955	-0.0452988741	 1.9703725043	-0.241448
C	 0.6495535958	-0.7023013349	 1.1308991685	 0.028275
C	 3.5907978637	-1.2925199464	 1.5979825886	 0.289146
N	 4.2055508502	-2.234572908	 1.8597922527	-0.314548
H	 0.9751372607	 2.0396713066	 0.4793193108	 0.136849
H	-0.0696313454	 2.0571939347	-0.9464763838	 0.12762
H	-0.7815487505	 2.044213663	 0.6761269355	 0.127614
H	-0.8907023918	-0.292065086	-0.3574377281	 0.101613
H	 1.2537105713	-1.5274264227	-0.9284994291	 0.122066
H	 3.389557352	 0.820124929	 1.5265523149	 0.146132
H	 0.1506967284	-1.5474764249	 1.5896615629	 0.122069
