23
gdb 58232	2.39374	1.20639	1.01251	0.3352	81.38	-0.252	0.0612	0.3131	1324.1963	0.202771	-425.413214	-425.402367	-425.401422	-425.448788	40.644	
C	-1.4345094835	-0.3889780305	-0.0775997734	-0.392166
C	 0.0816046523	-0.2700514021	 0.1366835287	 0.014846
C	 0.5492504273	-1.2470160828	 1.2239277891	-0.400976
C	 0.8364135111	-0.4473322405	-1.1976341917	 0.065126
O	 0.3575737487	 0.4849098564	-2.1766692304	-0.450214
C	 2.3460846846	-0.302358979	-1.0924264752	 0.421358
O	 2.7521391579	 0.952699496	-0.5961534699	-0.480562
C	 3.2266841755	-1.4547341644	-0.7138772551	-0.298294
C	 3.2218823907	-0.9401183344	-2.1385555741	-0.336309
H	-1.785042205	 0.2840249382	-0.8631068516	 0.116754
H	-1.7042780751	-1.4101297234	-0.3733770042	 0.110931
H	-1.9756805906	-0.157967133	 0.8455294924	 0.107153
H	 0.3106365784	 0.7477615584	 0.485928981	 0.07463
H	 0.415128312	-2.2876196511	 0.9041283199	 0.108173
H	 1.6007431063	-1.1033837129	 1.4802992509	 0.131124
H	-0.0415880432	-1.1078198396	 2.1350972378	 0.1097
H	 0.610300031	-1.4392978853	-1.6105255604	 0.078231
H	 0.2737841082	 1.3365335446	-1.7339832692	 0.274159
H	 2.6827657268	 1.5757296157	-1.3280424509	 0.280305
H	 4.0884244408	-1.220355041	-0.0996038424	 0.12252
H	 2.7685417616	-2.4157267038	-0.5089448545	 0.115143
H	 2.7527558712	-1.5408478725	-2.9099974149	 0.117533
H	 4.0885559729	-0.374743303	-2.462912672	 0.110835
