19
gdb 13687	4.68134	0.93396	0.84057	2.2843	73.36	-0.2303	-0.0233	0.207	1361.7382	0.163448	-365.036974	-365.027947	-365.027003	-365.071655	31.771	
C	-0.3073921477	 1.3636146148	-0.0082019805	-0.316846
N	 0.0492838233	-0.0448235174	 0.0670272045	-0.074993
C	 1.4287833412	-0.408755488	-0.2323340901	-0.265331
C	 0.8955747365	-0.5418543288	 1.1540779994	 0.030296
C	 1.4210704539	 0.320029494	 2.2855111891	-0.233995
C	 0.3936892329	 0.5012203885	 3.4208090558	-0.269258
C	 1.0009158949	 1.1927870305	 4.6193260742	 0.159263
O	 0.5839775259	 2.2033848418	 5.1226741939	-0.235427
H	 0.489577918	 2.0611393695	 0.2939687583	 0.101583
H	-0.5757726421	 1.5968952452	-1.0434687623	 0.127592
H	-1.1862200268	 1.5528663023	 0.6166375779	 0.126499
H	 1.5728253286	-1.2803782288	-0.8659695899	 0.115311
H	 2.1403580584	 0.3992072405	-0.4064790372	 0.104054
H	 0.5968595196	-1.5378641875	 1.4841357489	 0.088276
H	 2.3224492634	-0.1613888409	 2.6884160803	 0.109736
H	 1.7397352384	 1.2998352873	 1.9165241564	 0.114779
H	-0.4807548034	 1.0684686706	 3.0916400048	 0.128235
H	 0.0513306131	-0.4910089613	 3.7501913741	 0.121193
H	 1.9102144518	 0.6859673777	 5.0236872725	 0.069034
