21
gdb 120499	3.21772	0.89277	0.77632	0.9964	81.4	-0.2328	0.0163	0.249	1530.7087	0.18135	-424.230078	-424.220374	-424.21943	-424.265378	35.428	
C	 0.3156765636	 1.5074778673	-0.2821126994	-0.388522
C	 0.0371222975	 0.0341420885	 0.0147527859	 0.09361
O	 0.5284403538	-0.7821954961	-1.0554193773	-0.289959
C	 1.3720158077	-1.8286629457	-0.5593669353	 0.0714
C	 2.7108121088	-1.8309883124	-1.3019196738	-0.177705
C	 2.545445255	-2.0323357501	-2.8025307378	-0.074599
O	 3.8428673882	-2.0652981406	-3.3815113847	-0.424717
C	 1.4767328373	-1.5533672345	 0.9174614362	-0.10051
C	 0.7270590065	-0.5071506201	 1.2396841087	-0.102464
H	 1.3927384947	 1.691094674	-0.3343483174	 0.120427
H	-0.1331733097	 1.7889182998	-1.238882927	 0.124781
H	-0.1126138423	 2.1453420278	 0.4984757074	 0.110149
H	-1.0552348415	-0.106226091	 0.0929801122	 0.078204
H	 0.8729153107	-2.79863608	-0.7385403478	 0.07562
H	 3.2308579727	-0.8846104904	-1.1184097526	 0.105635
H	 3.3415643349	-2.6354628453	-0.9036425801	 0.099709
H	 2.0013812005	-2.9732644248	-2.9918421393	 0.078887
H	 1.9386367239	-1.2135499979	-3.212889307	 0.105558
H	 3.7416083387	-2.1074274509	-4.3366608266	 0.284123
H	 2.0852784971	-2.1524132313	 1.583323876	 0.105929
H	 0.596247622	-0.0772108962	 2.2249562896	 0.104443
