17
gdb 51849	2.98306	1.22483	0.90353	3.3074	70.	-0.2526	0.0164	0.269	1235.206	0.13807	-455.219418	-455.211079	-455.210135	-455.253085	30.321	
O	 0.2649534476	 0.847716569	-1.5301917164	-0.329489
C	 0.0080471898	 1.2270240561	-0.4054486849	 0.150058
N	 0.9267798028	 1.3848243671	 0.5810358474	-0.293338
C	 2.2908855806	 0.9375485164	 0.431892383	-0.048351
C	 3.1774335208	 1.6938575415	-0.5694866788	-0.222711
C	 4.5920353966	 1.5274507673	 0.0299214252	-0.178002
N	 4.3177156469	 1.4160557615	 1.4580167727	-0.31699
C	 3.0261621608	 1.1307954465	 1.7670571719	 0.410708
O	 2.5232276773	 1.0543742611	 2.8696799622	-0.39462
H	-1.0124263465	 1.5034611535	-0.0752438745	 0.082023
H	 0.6259515282	 1.5323412515	 1.5361336195	 0.261182
H	 2.3102826402	-0.1364612928	 0.1917838584	 0.120869
H	 3.0902702241	 1.3121599388	-1.5855719244	 0.138493
H	 2.8933898887	 2.7504860638	-0.5696900021	 0.120434
H	 5.0904820609	 0.6267586557	-0.353126398	 0.117457
H	 5.2391070095	 2.3835797802	-0.1807883541	 0.123224
H	 5.0168235419	 1.5099916027	 2.1770747528	 0.259054
