17
gdb 25568	6.31951	0.70845	0.66785	2.2074	76.63	-0.2017	-0.0295	0.1721	1620.2505	0.13636	-418.033926	-418.025183	-418.024238	-418.069384	31.118	
O	-0.4750612469	 0.3322685021	 0.3988243158	-0.232723
C	-0.1020478128	 1.230345955	-0.3086336997	 0.148226
C	 1.2216269101	 1.9599717294	-0.1478590534	-0.23779
N	 1.7313396643	 2.3988948049	-1.4478802174	-0.416039
C	 2.6785392707	 3.4450223503	-1.4332302149	 0.288027
C	 4.04763094	 3.4783353216	-1.2737325749	-0.211338
C	 4.4552003952	 4.838621672	-1.3735557774	-0.134348
C	 3.3257601012	 5.5953686795	-1.5808890854	-0.094608
N	 2.2533334857	 4.7403741335	-1.6178116174	-0.249172
H	-0.7178801773	 1.6159629336	-1.1531443271	 0.080478
H	 1.0156706738	 2.856668357	 0.4522184461	 0.140894
H	 1.9112307897	 1.334359687	 0.4365265368	 0.123317
H	 2.082783281	 1.6094722757	-1.9759971343	 0.239357
H	 4.6806282907	 2.6215859955	-1.098439408	 0.087442
H	 5.4623858078	 5.2176607538	-1.2930142512	 0.093999
H	 3.1952782455	 6.6581719005	-1.704242815	 0.115927
H	 1.3001386614	 4.9859493485	-1.8230944228	 0.258352
