21
gdb 106429	2.55738	1.29897	1.03172	0.7014	89.69	-0.2501	0.046	0.2961	1256.5814	0.181822	-349.881253	-349.87232	-349.871376	-349.914847	34.832	
C	-0.035394773	 1.5238372527	 0.0654910538	-0.381068
C	 0.0614102685	-0.0016694164	-0.0490937813	-0.312707
C	 0.7569631317	-0.4643239144	-1.3044693543	 0.359563
C	 0.3198648366	-0.2585205932	-2.7903609945	-0.270816
C	 1.6297722302	-1.0890543253	-2.8596378686	-0.053094
C	 2.2116136138	-0.1378105774	-1.7791345031	-0.271537
C	 1.0426138579	-1.965407264	-1.701551342	-0.217873
C	 1.9199640471	-2.7682287499	-0.8754215937	 0.306347
C	 2.6269448631	-3.4504090267	-0.1801687109	-0.448789
H	 0.9582685971	 1.9836740813	 0.0691511895	 0.120194
H	-0.5965636558	 1.9507281483	-0.772395692	 0.117634
H	-0.5422552408	 1.8162804722	 0.9899337435	 0.113825
H	 0.6001536421	-0.407157882	 0.8168748576	 0.109583
H	-0.9446641615	-0.4406364041	-0.018501237	 0.097518
H	-0.6020792393	-0.7562712438	-3.1062522273	 0.087366
H	 0.3763744601	 0.7623478381	-3.1759024923	 0.091896
H	 2.1313279583	-1.4638212154	-3.7519637583	 0.077731
H	 2.3981613812	 0.8917641816	-2.0955229465	 0.088583
H	 3.0267372489	-0.5260876515	-1.1657686511	 0.108374
H	 0.1453348762	-2.5307313358	-1.9766196231	 0.087739
H	 3.2552756176	-4.0524150143	 0.4281694314	 0.18953
