13
gdb 82	6.6508	4.19317	3.39441	2.2854	42.01	-0.2597	0.0631	0.3228	438.3028	0.11345	-269.479234	-269.472993	-269.472049	-269.508213	22.072	
C	-0.027751673	 1.5342143343	 0.0065115145	-0.402812
C	 0.0834324601	 0.0121827739	 0.0525898593	 0.123922
O	 0.9585639226	-0.4820071004	-0.966941128	-0.44843
C	 0.697675738	-0.4951645124	 1.3594881173	-0.043244
O	 2.0224706156	-0.028425302	 1.5222218588	-0.424021
H	 0.9433376279	 1.9884143362	 0.2184158917	 0.136831
H	-0.3732051553	 1.8735404135	-0.977169084	 0.102459
H	-0.7477381715	 1.8925639358	 0.7492685346	 0.119837
H	-0.9167184788	-0.4369703559	-0.0604052842	 0.064944
H	 0.7672671003	-0.0141217672	-1.7850204274	 0.286136
H	 0.1165000206	-0.1335191383	 2.2139243056	 0.103922
H	 0.6581468496	-1.5956344531	 1.3627447358	 0.092058
H	 2.4637856639	-0.2276247643	 0.6869843061	 0.288398
