16
gdb 11363	6.08775	1.26014	1.06454	3.1353	66.54	-0.2429	-0.0075	0.2353	1085.2106	0.131165	-379.98613	-379.978351	-379.977407	-380.018704	28.154	
C	 0.0706179111	 1.5488141671	 0.0080710367	-0.366586
C	-0.0450301409	 0.0247895806	 0.0031601279	-0.29748
C	-1.4604223277	-0.467768851	 0.0133104248	 0.396903
N	-2.5091471419	 0.2660483903	 0.0241978589	-0.292847
C	-3.6544611941	-0.644256933	 0.0304550293	-0.301448
C	-3.0859674407	-2.0697442958	 0.0218370725	 0.400371
O	-3.6434630821	-3.1386767861	 0.0223573048	-0.359517
N	-1.7139253783	-1.8441138099	 0.010872308	-0.37514
H	 1.1219665764	 1.8486700076	 0.0000833913	 0.11162
H	-0.4230179924	 1.9793426366	-0.8660197863	 0.137943
H	-0.4076780341	 1.9725250932	 0.8939476948	 0.137896
H	 0.4583673291	-0.3986178304	-0.8771868285	 0.123548
H	 0.4733154302	-0.405425866	 0.8714420308	 0.123502
H	-4.2805572688	-0.4874967542	 0.9159736316	 0.14878
H	-4.2943703728	-0.4822306566	-0.8441810694	 0.14884
H	-1.0270639031	-2.5807137824	 0.0026472127	 0.263614
