12
gdb 129495	3.00565	1.57319	1.06587	6.4605	56.98	-0.2745	-0.0386	0.236	1015.4348	0.078056	-505.984197	-505.976764	-505.97582	-506.016803	26.768	
N	-0.0776643121	 1.3829380916	 0.0701984086	-0.559255
C	 0.0605981718	 0.0428277623	-0.201381623	 0.470296
O	 1.0642920519	-0.4946294475	-0.5768624811	-0.310363
N	-1.1746163869	-0.6657244759	-0.0494035698	-0.243318
C	-2.457195705	-0.184919283	-0.191840749	 0.074513
N	-3.3566444832	-1.0940616232	-0.0757363085	-0.118416
O	-2.6451135848	-2.2880703429	 0.1730487217	-0.242227
C	-1.2905995829	-2.0567373609	 0.1800105591	 0.541412
O	-0.4530278669	-2.8778208229	 0.3735420606	-0.347632
H	 0.7945292222	 1.8903754581	 0.0481667776	 0.282977
H	-0.7279206933	 1.676344157	 0.78291108	 0.271521
H	-2.6860388906	 0.8455861573	-0.4164451562	 0.180492
