20
gdb 116597	5.80426	0.77869	0.69847	3.5161	90.21	-0.2266	-0.0208	0.2057	1671.5507	0.169918	-403.184038	-403.174479	-403.173535	-403.220121	34.232	
C	 0.226672533	 1.5109321152	-0.3386769305	-0.37355
C	-0.431849599	 0.3439601594	 0.3914958211	-0.1145
N	 0.2939503847	 0.0353851643	 1.6185181351	-0.354223
C	-0.124520478	-0.910582712	 2.3435127951	 0.461973
O	-1.2332063957	-1.6858323454	 2.0580912046	-0.265002
C	-1.4064514064	-2.6532423684	 3.0921182297	-0.167962
C	-0.2839112186	-2.4078945119	 4.0688694308	 0.299643
C	-0.1095418247	-3.2215965891	 5.3063993018	-0.496117
C	 0.4440693718	-1.3876548134	 3.6046996867	-0.303526
H	 1.2626056496	 1.2693987633	-0.595380078	 0.116623
H	-0.3124303511	 1.7490510994	-1.2614861049	 0.100257
H	 0.240062667	 2.4032516801	 0.2945523665	 0.116621
H	-1.4808378983	 0.5852433958	 0.6190400222	 0.100371
H	-0.466742795	-0.5392445198	-0.2635632984	 0.100371
H	-2.3978175133	-2.523846451	 3.5491732302	 0.122603
H	-1.3721439644	-3.6618784918	 2.6563101572	 0.122603
H	 0.0225121221	-4.284008088	 5.0662267219	 0.137123
H	 0.758348804	-2.891634567	 5.8816993898	 0.139281
H	-0.994090856	-3.1545359138	 5.9520953056	 0.137142
H	 1.3233511483	-0.9412796356	 4.0457347634	 0.120269
