17
gdb 65889	3.56308	0.82305	0.74832	0.9673	91.58	-0.2433	-0.0241	0.2192	1535.5155	0.133737	-384.62277	-384.613583	-384.612639	-384.656915	34.397	
O	 0.0636060723	 1.6171100782	-0.159653047	-0.457678
C	-0.0078970467	 0.2154514498	 0.0197097782	 0.197895
C	 0.1853468649	-0.3345073653	 1.4791775556	-0.268052
C	-1.0900081837	-1.1951305395	 1.2876892332	-0.210391
C	-1.4783328971	-0.2955165884	 0.0859863757	-0.249859
C	 0.813222007	-0.4890900496	-0.9561940604	 0.52993
C	 1.5307816142	-1.0439023526	-1.7595927005	-0.434261
C	 2.3251484855	-1.6788280359	-2.6629813154	 0.309839
C	 3.0328690317	-2.2392963627	-3.4651674456	-0.570586
H	 0.9827422234	 1.8552185147	-0.3245502441	 0.283873
H	 1.1255277402	-0.8387202937	 1.709107972	 0.106638
H	 0.0253733206	 0.4892224393	 2.1794478583	 0.113917
H	-0.8526285385	-2.2148295491	 0.9757267459	 0.115892
H	-1.7908990963	-1.238763425	 2.1225668978	 0.105761
H	-2.115798701	 0.5402824487	 0.3847091175	 0.12046
H	-1.884655913	-0.7628933539	-0.8117290277	 0.112765
H	 3.6509477265	-2.7357076251	-4.1713651334	 0.193856
