16
gdb 19572	3.98133	2.07709	1.90413	2.7857	64.05	-0.2364	0.0794	0.3158	760.1324	0.131957	-383.68517	-383.679055	-383.678111	-383.715152	24.664	
C	 0.0486096003	 1.4857173252	 0.013665313	-0.304609
O	 1.222851678	 0.6433337919	-0.0129559886	-0.291376
C	-0.0403648915	 0.0340819721	-0.0008094345	 0.544171
C	-0.5893432486	-0.9716699977	 1.0295305148	-0.18808
C	-1.7695609521	-1.1433136317	 0.0148902666	-0.242638
C	-0.6150591182	-0.9672387724	-1.0083172142	-0.007036
O	 0.1926451904	-2.134855888	-0.7942467666	-0.279976
C	 0.2747557632	-2.1861086957	 0.653668954	-0.076251
H	-0.107450936	 2.0325282266	 0.942638554	 0.11972
H	-0.1288709992	 2.0569958216	-0.8964499599	 0.121778
H	-0.7277751845	-0.7385534151	 2.0833985276	 0.081408
H	-2.2826148036	-2.1061188212	-0.0036304442	 0.108477
H	-2.475043244	-0.3114695364	 0.0343000912	 0.107752
H	-0.7428049648	-0.785012602	-2.0729411759	 0.088573
H	 1.3177323713	-2.0811324028	 0.9721420609	 0.116596
H	-0.1253336608	-3.1393514145	 1.0162760716	 0.10149
