15
gdb 47992	7.41439	0.57728	0.56719	1.3056	80.41	-0.261	-0.0681	0.1929	1842.101	0.109791	-420.609546	-420.600553	-420.599609	-420.645693	30.654	
O	-0.0009734892	-0.0487748887	 1.1539087235	-0.225781
C	 0.0413801849	 0.8849602827	 0.3859571155	 0.017501
C	 1.1922182544	 1.7286186651	 0.1906746235	 0.025136
C	 2.1455709299	 2.4498039234	 0.0100745698	 0.114202
C	 3.2806203517	 3.3152992979	-0.210731749	-0.183835
C	 3.7500357954	 3.5092019074	-1.6997986872	-0.34724
C	 3.7224794902	 5.0267293088	-1.4553336297	 0.402848
O	 4.1300448494	 5.9679174614	-2.0660273701	-0.273768
C	 3.0296276224	 4.8639695946	-0.0926476894	-0.347243
H	-0.8335426498	 1.159850746	-0.2377975203	 0.099354
H	 4.1183335282	 3.0102174067	 0.4219610303	 0.126674
H	 4.713021789	 3.0748046478	-1.9761246713	 0.145897
H	 2.9968950991	 3.1988221224	-2.42992275	 0.150179
H	 1.9696812334	 5.1305429955	-0.1383344465	 0.150178
H	 3.488835111	 5.3769509791	 0.7549208009	 0.145896
