21
gdb 42125	2.17216	1.6462	1.03376	0.409	84.61	-0.2372	0.0389	0.2761	1195.1583	0.184679	-387.053231	-387.044666	-387.043721	-387.086014	33.428	
C	-0.1124595448	 1.4616115259	-0.0194716792	-0.202975
C	 1.2761365491	 2.1235668957	 0.1887416001	-0.054309
O	 1.467832589	 2.7843367457	 1.433348401	-0.261356
C	 1.5216926439	 2.0213909501	 2.6322704979	-0.05431
C	 2.7564776029	 1.0938636805	 2.7895675548	-0.202966
C	 2.401532703	-0.4174911966	 2.8930610641	-0.342729
C	 1.5112375494	-0.7466484668	 1.7865804085	 0.061148
C	 0.7511645992	-0.6432160343	 0.8568932316	 0.061406
C	-0.0529984479	-0.0800874902	-0.2208184523	-0.34275
H	-0.7380961713	 1.6834196092	 0.8505371589	 0.121171
H	-0.6130918773	 1.9092615349	-0.8850956933	 0.098073
H	 2.0679082114	 1.3825552063	 0.0156995676	 0.098362
H	 1.4153611278	 2.9224267083	-0.5456769503	 0.103087
H	 1.5334829136	 2.7838316896	 3.4167938855	 0.103087
H	 0.6015986733	 1.4362758059	 2.7626950718	 0.098358
H	 3.4183631804	 1.2464469102	 1.9315695391	 0.121169
H	 3.3282441342	 1.3814958084	 3.6787690251	 0.098069
H	 3.3178134823	-1.0190001238	 2.8848826397	 0.123275
H	 1.909922332	-0.6215575506	 3.8532966404	 0.125455
H	-1.067578585	-0.4942126049	-0.244932109	 0.123282
H	 0.3960545048	-0.3132205034	-1.195177892	 0.125453
