15
gdb 45809	3.07112	1.64361	1.14771	3.4389	67.65	-0.2552	-0.0096	0.2457	1007.3484	0.114738	-453.965311	-453.958157	-453.957213	-453.997289	27.232	
O	 0.002059649	-0.064179224	-0.3529898972	-0.353385
C	-0.0440806989	 1.1012606866	-0.0712560385	 0.450477
N	-1.1699808231	 1.7542081774	 0.3434933786	-0.350232
C	-1.4875812267	 3.1412106917	 0.2005588891	-0.031842
C	-1.6950446514	 3.9541976889	 1.4659637785	-0.310789
C	-0.4780407518	 4.1792523536	 0.6115160596	 0.034692
N	 0.8302014645	 3.891505791	 1.0973528941	-0.231746
C	 1.4699758136	 2.8747711258	 0.7287722822	 0.120838
O	 1.123121865	 1.8470846401	-0.1193559367	-0.224393
H	-1.9553417321	 1.1212153911	 0.402505146	 0.26445
H	-2.1141145351	 3.3754191962	-0.6581480357	 0.109543
H	-2.467345221	 4.7142837376	 1.4822218231	 0.124348
H	-1.5420913824	 3.4211475687	 2.3972136047	 0.134126
H	-0.484623441	 5.0958175818	 0.0275501054	 0.121783
H	 2.4995579113	 2.7333728935	 1.0507668267	 0.142129
