16
gdb 21212	3.27657	1.92035	1.22749	2.1758	68.14	-0.178	0.0437	0.2218	960.9366	0.132705	-376.107465	-376.099174	-376.09823	-376.140099	29.899	
C	-0.0091777446	 1.4406404765	 0.0888175922	-0.310107
N	 0.1351085237	 0.0004858009	-0.0596568927	-0.385217
C	 0.6883589317	-0.7027099819	 1.002410074	 0.397337
N	 1.3260814591	-0.1199471474	 2.012531334	-0.319775
N	 1.7462370178	-1.1564833911	 2.7803036884	-0.211484
C	 1.3857988571	-2.3686810821	 2.2813069345	-0.098057
C	 0.6926966473	-2.1212355836	 1.1163892947	 0.082858
N	 0.0388560782	-2.9907319971	 0.2123036259	-0.624646
H	 0.9784306979	 1.8903487404	 0.2187295481	 0.142766
H	-0.4606010271	 1.8471280545	-0.8197804321	 0.110405
H	-0.6198385816	 1.7329180856	 0.9562475975	 0.112882
H	-0.6993665063	-0.4590900104	-0.4020176864	 0.236777
H	 2.2281174449	-0.9597435828	 3.6378939989	 0.267034
H	 1.6418154606	-3.2917942876	 2.7776448849	 0.11819
H	 0.0831252865	-3.9556894462	 0.5165143853	 0.237517
H	 0.4505556947	-2.9380620777	-0.7150923672	 0.243521
