18
gdb 121016	2.76705	1.27423	0.95448	3.5782	75.07	-0.232	-0.0214	0.2106	1228.8553	0.148257	-439.126004	-439.117268	-439.116324	-439.160356	31.724	
O	-0.1314036672	 1.5046711623	 0.1941859033	-0.416401
C	 0.0351310829	 0.1042266702	 0.0059190949	-0.075612
C	-1.3459030623	-0.5280429667	-0.1310261673	-0.164527
N	-2.0584722338	-0.1235202131	-1.3197328742	-0.090134
C	-2.714681735	 1.1538398634	-1.5009485811	-0.216158
C	-3.3061380304	 1.0283085384	-2.8777491043	-0.083441
C	-3.0142868407	-0.1652480029	-3.3968492532	-0.183837
C	-2.2052973699	-0.9486693252	-2.4188158657	 0.401149
O	-1.7543836901	-2.0739813774	-2.5268084608	-0.41075
H	 0.7371787196	 1.9169379577	 0.1870649921	 0.29095
H	 0.622708298	-0.1128122905	-0.8977085775	 0.106149
H	 0.549990621	-0.3539493115	 0.865218138	 0.090919
H	-1.2348907048	-1.6147423969	-0.1907279196	 0.141206
H	-1.9384811967	-0.2835998118	 0.7599317557	 0.108006
H	-3.4912244981	 1.3224746736	-0.7386105012	 0.120551
H	-2.005066964	 1.9863454395	-1.4198585648	 0.142889
H	-3.8774590588	 1.8250343707	-3.3359301523	 0.117574
H	-3.2879804297	-0.5660450798	-4.3621722821	 0.121468
