19
gdb 85289	2.44321	1.66644	1.21302	4.3832	77.06	-0.252	0.0316	0.2836	1088.7065	0.159307	-419.21276	-419.204222	-419.203278	-419.245649	32.666	
C	 0.170250215	 1.5626779904	-0.1129978834	-0.406504
C	-0.0047973914	 0.0669934756	 0.0955992721	 0.060018
O	 0.4926982832	-0.6505062211	-1.0465052046	-0.260012
C	 1.1829566935	-1.7711998486	-0.6487744673	 0.425733
N	 1.5875564791	-2.6832904046	-1.4161134832	-0.541191
N	 1.3944567662	-1.7778110316	 0.7594016137	-0.170385
C	 2.2131714892	-0.6022937006	 1.1708749981	-0.296486
C	 0.7364228533	-0.559435633	 1.2757279982	 0.30807
C	 0.0276715512	-0.6409757927	 2.6028540803	-0.483951
H	 1.2260813621	 1.8258628327	-0.2168797995	 0.127497
H	-0.3581390811	 1.8859575819	-1.0137318495	 0.135823
H	-0.2432319467	 2.1109111619	 0.7393898851	 0.125442
H	-1.0747063316	-0.1647025021	 0.1976818886	 0.090809
H	 1.3110614052	-2.4779441187	-2.3761183675	 0.22605
H	 2.8099649599	-0.7732914124	 2.0610005825	 0.129744
H	 2.7097548133	-0.0423117786	 0.3835788689	 0.134168
H	-0.1326412285	 0.3595067131	 3.0196461462	 0.125397
H	-0.9481327889	-1.1261435715	 2.4954896475	 0.130639
H	 0.617284627	-1.2182971201	 3.3186377038	 0.139139
