19
gdb 133745	2.35126	1.21465	1.17024	0.9411	63.85	-0.255	0.0736	0.3286	1174.2644	0.154161	-550.728325	-550.718254	-550.71731	-550.762992	37.305	
C	-0.0832399185	 1.5772007342	 0.1021715762	-0.401116
C	 0.0374085758	 0.0545150483	 0.000363982	-0.191029
C	 0.7347704814	-0.4482885484	-1.285086934	 0.094205
C	 0.0102929613	 0.0076299064	-2.5591596878	-0.424532
N	 2.1102867209	 0.0537931507	-1.3158450994	-0.530594
C	 0.7360879017	-1.9912887184	-1.2557944775	 0.274824
F	-0.5022283817	-2.5108960645	-1.2335837967	-0.082303
F	 1.3607689677	-2.5011651401	-2.3338583067	-0.089259
F	 1.3848121958	-2.4608300005	-0.1734787325	-0.090286
H	 0.8895321831	 2.0539431783	-0.0400532217	 0.137565
H	-0.7725087822	 1.9832061324	-0.6440783675	 0.117325
H	-0.4662842155	 1.8591138067	 1.0874015288	 0.113105
H	 0.6036987019	-0.3238291307	 0.8593796327	 0.104397
H	-0.9530532087	-0.4082865475	 0.0608682065	 0.110731
H	 0.0664716736	 1.0935633353	-2.644525507	 0.135775
H	 0.4778848596	-0.4294832117	-3.4459419516	 0.124759
H	-1.0388875585	-0.2970125379	-2.5447968246	 0.129629
H	 2.6311399654	-0.3165769786	-0.5255689062	 0.233452
H	 2.5811428672	-0.2746259142	-2.1539872829	 0.233352
