16
gdb 8450	4.21607	1.80103	1.58252	2.3419	64.4	-0.2389	-0.0091	0.2298	825.7191	0.131315	-383.74875	-383.742079	-383.741135	-383.779238	26.842	
O	-0.0813058051	 1.392536203	 0.0165586218	-0.480217
C	-0.0057472963	 0.003888701	 0.0157307049	 0.419769
C	 0.3271055885	-0.8344772666	 1.2923173839	-0.298201
C	-0.4368643166	-1.9536522604	 0.5051451484	-0.133972
C	-1.3302137958	-0.7918339851	-0.0532937961	-0.26739
C	 0.5103330887	-2.1553314679	-0.6678853853	 0.441957
O	 0.9003629236	-3.1740780429	-1.1682765735	-0.331703
C	 0.8516306156	-0.697244468	-1.0594477001	-0.404835
H	 0.8088663609	 1.7510243755	-0.0664567366	 0.281952
H	 1.3747879519	-1.007929722	 1.5544867859	 0.100212
H	-0.2389989809	-0.4951086943	 2.161869378	 0.114936
H	-0.8470851396	-2.839654492	 0.9820164563	 0.088133
H	-2.0529624238	-0.4483412368	 0.6892507924	 0.117051
H	-1.8088459607	-0.9221559206	-1.0274029232	 0.107198
H	 0.5395143681	-0.4684521223	-2.0829127904	 0.12928
H	 1.9260337316	-0.5026799206	-0.9681995962	 0.115831
