15
gdb 133002	2.53268	1.53517	0.96157	3.2387	75.46	-0.2183	-0.0328	0.1854	1149.0142	0.112231	-461.920025	-461.912158	-461.911214	-461.952815	28.921	
C	-0.1477723057	 1.400942304	 0.0304215077	-0.323662
N	-0.0903665267	-0.0491231317	-0.0183598682	-0.315595
C	 0.5907681686	-0.5993361732	-0.9550571343	 0.203132
C	 1.3549723363	 0.0346762817	-2.0323813082	-0.249783
C	 2.0219747009	-0.6886213256	-2.9454024195	 0.072001
O	 2.057871572	-2.0389508882	-2.9663485525	-0.195101
C	 1.3670841691	-2.694784702	-1.9907051442	-0.062559
C	 0.6719910692	-2.0564377793	-1.0368226679	 0.157364
F	 0.027327904	-2.77150666	-0.1241271933	-0.049909
H	 0.8451849342	 1.8586367273	 0.15794865	 0.112707
H	-0.5952339082	 1.8364588265	-0.8761191277	 0.112722
H	-0.7629643818	 1.7054425536	 0.8807987342	 0.124129
H	 1.391991965	 1.1131202914	-2.1069134661	 0.121118
H	 2.6007955503	-0.2719422787	-3.7600007625	 0.142848
H	 1.4411331329	-3.7696686355	-2.0707219276	 0.150587
