13
gdb 130771	3.42549	1.68102	1.14639	6.4656	59.1	-0.2503	0.0183	0.2686	964.2953	0.091613	-489.894097	-489.887396	-489.886452	-489.925744	24.32	
O	 0.0493445072	-0.0272774991	-0.2583853393	-0.39086
C	 0.0285479812	 1.162332018	-0.1357097537	 0.516044
O	-1.0959402146	 1.9504314988	-0.094482764	-0.249211
N	-0.7632094565	 3.3472566638	 0.1032089997	-0.273261
C	 0.5212317958	 3.3037457312	 0.1496998921	 0.553229
O	 1.4306686833	 4.2546621297	 0.3596867084	-0.259247
C	 2.7358086934	 3.6341491235	 0.1671762153	-0.106606
C	 2.5036310749	 2.0923909194	 0.1941868446	-0.204006
N	 1.0717647737	 2.0706378889	-0.0148731474	-0.197677
H	 3.1260853943	 3.9659840181	-0.7985999194	 0.1492
H	 3.3885625558	 3.9856472746	 0.9660496997	 0.152607
H	 3.0454981053	 1.5803885828	-0.6033217754	 0.157859
H	 2.7748635663	 1.6427526501	 1.1544877594	 0.15193
