17
gdb 44606	2.91515	1.84448	1.48571	2.6916	70.07	-0.2348	-0.0179	0.2169	908.4432	0.138382	-421.841682	-421.835079	-421.834135	-421.872788	26.73	
O	-0.0098510235	 0.0455129191	 0.2733438694	-0.31406
C	-0.0485757041	 1.2272932616	 0.0584308236	 0.411843
C	-1.3184097636	 2.0723582324	-0.1398962189	-0.343983
C	-0.8331859805	 3.389209364	-0.7143471176	-0.092827
C	 0.0786105854	 4.2572494569	 0.1272302255	 0.09434
O	 0.3852383332	 3.8202867458	 1.4303959206	-0.260322
C	 1.3989939509	 2.8164533374	 1.3258558689	-0.087531
C	 1.1714726874	 2.1588996139	-0.0568357928	-0.170387
C	 0.6883079826	 3.3473336668	-0.893618284	-0.132773
H	-2.0018358683	 1.549988974	-0.8150803888	 0.13098
H	-1.8262711199	 2.1760640215	 0.8258976145	 0.142343
H	-1.4435673206	 3.8923306161	-1.4557697649	 0.094268
H	 0.0503824859	 5.3357881935	 0.0161592883	 0.101772
H	 2.3993616727	 3.2712436038	 1.3694342326	 0.102771
H	 1.284763094	 2.1259883632	 2.1663484618	 0.127292
H	 2.0499283415	 1.6306345317	-0.4266165509	 0.098809
H	 1.204733597	 3.6767197883	-1.7850408273	 0.097467
