18
gdb 49638	3.03817	1.61348	1.47543	1.8718	74.15	-0.2178	-0.0318	0.186	953.0524	0.148744	-401.886447	-401.879342	-401.878398	-401.918155	27.969	
O	-1.0079055309	 1.4483855748	-0.213281585	-0.245895
C	 0.1113136303	 1.032573143	-0.3801530296	 0.134957
C	 1.3672725258	 1.7956477723	-0.0489318203	-0.045558
C	 1.3922705338	 2.9252544922	 0.9980953161	-0.069935
C	 0.7362001952	 2.5326168149	 2.3494277633	-0.239368
C	 1.9505097124	 1.625690372	 2.6857623453	-0.045492
C	 1.9597450139	 0.3259363128	 1.8614001914	-0.182539
N	 2.4761951188	 1.0275424637	 0.6274123862	-0.180358
C	 2.7241714764	 2.2692817252	 1.4905767332	 0.010957
H	 0.2978599021	 0.0268831923	-0.824053425	 0.089045
H	 1.7666390562	 2.1511538489	-1.0119926211	 0.108766
H	 1.2808954225	 3.9513089623	 0.6489538826	 0.076749
H	 0.710517598	 3.3993323158	 3.0157819717	 0.106287
H	-0.2574258608	 2.0799248226	 2.3216438966	 0.117936
H	 2.2984195801	 1.5916542174	 3.718566886	 0.070674
H	 2.7175003374	-0.3880650671	 2.1981888929	 0.11241
H	 1.0112137573	-0.2105230058	 1.7403942666	 0.106151
H	 3.7161584416	 2.7189344226	 1.497744039	 0.075213
