20
gdb 114787	3.12674	1.42315	1.28057	2.7557	77.03	-0.2455	0.0879	0.3335	1062.6447	0.173624	-403.106555	-403.099072	-403.098128	-403.138453	30.247	
O	 0.8076016237	-0.7501151117	-1.0836257732	-0.427821
C	 0.1968755045	-0.1772474567	 0.0567130574	-0.06317
C	-1.3056850375	-0.4447228458	 0.0721900193	 0.031867
C	-2.1108351772	 0.1075854987	 1.2836327765	-0.259201
C	-3.0017395816	 1.1796199944	 0.6460971072	-0.045109
C	-2.1098518121	 2.3201452784	 0.0660447926	-0.24708
C	-2.1111758571	 1.5718403722	-1.2728534152	-0.046408
C	-3.2293913897	 0.6858291028	-0.8210962232	-0.063262
N	-1.9432162181	 0.1062967031	-1.1518048072	-0.117326
H	 0.2278370023	-0.5505285312	-1.8285722124	 0.291462
H	 0.6649904357	-0.6369874671	 0.9342684571	 0.104855
H	 0.3903161803	 0.9063066793	 0.1116732151	 0.085945
H	-1.4337875398	-1.5308221845	 0.0009195845	 0.089854
H	-2.7046937408	-0.6863360894	 1.7476454086	 0.100917
H	-1.464913697	 0.5321074125	 2.0599754178	 0.102979
H	-3.861603271	 1.4868271588	 1.2399086205	 0.072929
H	-2.6642929346	 3.2577552641	-0.0307118959	 0.106732
H	-1.1554643962	 2.5215202465	 0.562723453	 0.096312
H	-1.913303045	 1.9995296678	-2.2494818655	 0.092994
H	-4.1427355288	 0.3593189578	-1.3038334169	 0.09253
