20
gdb 87818	2.66941	1.5249	1.20428	2.8144	79.47	-0.2193	0.0713	0.2907	1100.0762	0.169991	-403.082504	-403.073808	-403.072864	-403.115272	34.115	
C	 0.0416358795	 1.5536103956	 0.189401301	-0.478192
C	-0.0232252699	 0.067309005	-0.0035100887	 0.267784
C	-0.9146638212	-0.8238740516	 0.7729818652	-0.280846
N	 0.5401091166	-0.923683895	 1.0156504698	-0.166078
C	 1.0762082255	-1.7437479972	-0.1272114814	-0.247316
C	 0.5685604411	-0.728033631	-1.1535355182	 0.301213
C	 0.0140837799	-0.9460250712	-2.5425465871	-0.403199
C	 1.3221334041	-0.216621257	-2.3341743766	 0.022129
O	 1.3721064607	 1.1693727008	-2.5164377556	-0.421086
H	 1.0431187668	 1.936813271	-0.0186491697	 0.137748
H	-0.6536642221	 2.0648336179	-0.48496117	 0.117626
H	-0.2283037921	 1.806667371	 1.2190345421	 0.116758
H	-1.4513210205	-0.3887722742	 1.6112729983	 0.114943
H	-1.4269342709	-1.6520178994	 0.2859935729	 0.104541
H	 2.1662946745	-1.8052324421	-0.0670738897	 0.111949
H	 0.6589691569	-2.7565227237	-0.175654201	 0.099863
H	 0.03178529	-1.9472795821	-2.9620527629	 0.11122
H	-0.838443848	-0.339713341	-2.8339014505	 0.114854
H	 2.2413748266	-0.7440795977	-2.5969813243	 0.086872
H	 1.3121959025	 1.3462645418	-3.4611755434	 0.289217
