23
gdb 114460	3.19926	1.20109	1.10107	0.2689	88.26	-0.2298	0.0788	0.3086	1246.9817	0.207125	-351.10292	-351.094574	-351.09363	-351.135781	33.714	
C	 0.3649696482	 1.6557194413	-0.1308538845	-0.374886
C	 0.338289971	 0.126416858	-0.2303363713	-0.203412
C	 0.7428599146	-0.5588897546	 1.0712714638	 0.046082
C	-0.1582475428	-0.4531531329	 2.3561363177	-0.284032
C	-0.0309112131	-1.9962853986	 2.5616344237	-0.010993
C	-1.1382189526	-2.9350420964	 2.0242885407	-0.05749
C	-1.8016791157	-2.3905447659	 0.7966660981	-0.287188
C	-0.4268269967	-2.9899236733	 0.6592863417	-0.059046
C	 0.7248373462	-2.1147774666	 1.2098197456	-0.056671
H	 1.3659036436	 2.018567188	 0.1292603097	 0.110786
H	 0.0768778663	 2.1229941465	-1.0778640622	 0.108774
H	-0.3252855746	 2.0147043315	 0.6403772041	 0.116609
H	-0.6575840126	-0.2026621205	-0.5447196017	 0.100532
H	 1.0240672233	-0.2004329199	-1.023783406	 0.091832
H	 1.7521255878	-0.214749414	 1.3304593726	 0.066549
H	 0.2742762449	 0.1469302061	 3.1602003342	 0.09355
H	-1.1776036169	-0.0953509564	 2.1849569297	 0.097938
H	 0.4364848017	-2.327268504	 3.4887966047	 0.064289
H	-1.5834523724	-3.7423901475	 2.5943399163	 0.080095
H	-2.5936399136	-3.0184596075	 0.398649608	 0.108518
H	-1.995155506	-1.3314696703	 0.6726101905	 0.107873
H	-0.2700748255	-3.8454446653	 0.0122007826	 0.080031
H	 1.690441405	-2.6208603477	 1.157477792	 0.060259
