13
gdb 2132	3.98079	3.15175	1.79827	4.4336	56.43	-0.2672	-0.0359	0.2313	674.492	0.102242	-344.512001	-344.505657	-344.504713	-344.542299	22.683	
C	 0.0042106565	 1.5167575622	-0.0171179547	-0.489667
C	-0.05165529	 0.0270795725	-0.0022826593	 0.17752
C	-1.0688055019	-0.8220962513	-0.1568444146	-0.201527
C	-0.565516778	-2.2305786927	-0.0507195633	-0.12687
O	 0.8361763543	-2.1091176331	 0.17929891	-0.226311
C	 1.1814381124	-0.7815906534	 0.2149056471	 0.396014
O	 2.306392845	-0.4075500678	 0.3950356548	-0.346731
H	 0.6873925262	 1.8666588173	-0.7983070297	 0.150165
H	-0.9809499894	 1.9567147868	-0.1871115367	 0.125393
H	 0.4014426483	 1.8945258456	 0.9310024579	 0.150169
H	-2.109554453	-0.5810081203	-0.3329832032	 0.12211
H	-1.018529757	-2.7836341971	 0.7822247971	 0.134867
H	-0.7289731036	-2.8119938786	-0.9673033154	 0.134867
