20
gdb 101494	2.47094	0.94602	0.79919	4.8409	85.28	-0.2599	-0.0384	0.2215	1519.3366	0.169078	-399.351969	-399.341366	-399.340421	-399.387901	38.154	
C	-0.8608813933	 1.7307739111	 0.2731366971	-0.389237
C	-0.4454475076	 0.2645066935	 0.1452147556	-0.162499
C	 0.5228793313	 0.0060574453	-1.0182758966	 0.033401
C	 0.9894288776	-1.4588602159	-1.0504874176	-0.394067
N	-0.1517106467	 0.33507202	-2.2693793062	-0.254269
C	 0.525562697	 0.6988309192	-3.2843346521	 0.255704
N	 1.8967791935	 0.804552042	-3.4348729097	-0.552605
C	-0.2060020384	 1.00800987	-4.5031398791	 0.270914
N	-0.7597459916	 1.2739206436	-5.482077248	-0.319253
H	 0.0057534862	 2.3746630167	 0.4651822762	 0.103641
H	-1.3407289897	 2.0768330307	-0.6467406806	 0.135397
H	-1.5658866215	 1.8705605797	 1.0979822391	 0.113141
H	 0.0299209384	-0.0744659559	 1.0738825326	 0.088301
H	-1.3320947325	-0.36186198	-0.0089305888	 0.108252
H	 1.4078247143	 0.6516482944	-0.8583539873	 0.050006
H	 0.1317021356	-2.1218338937	-1.1968352646	 0.134712
H	 1.6960967083	-1.6360643863	-1.8665582624	 0.119404
H	 1.4773356467	-1.7252036873	-0.1078477762	 0.116862
H	 2.4503361577	 0.834293853	-2.5931067192	 0.268975
H	 2.2341499246	 1.3872863598	-4.1850350422	 0.273219
