21
gdb 119776	3.91825	0.88572	0.7543	1.4423	81.65	-0.2125	0.0628	0.2753	1579.9122	0.18322	-420.436719	-420.427146	-420.426201	-420.471731	34.879	
C	-0.1470664946	 1.5309629956	-0.0138024917	-0.392284
C	-0.0188336925	 0.022357072	 0.0686867952	-0.03596
O	-1.3332331778	-0.5349795902	-0.1105813397	-0.273721
C	-1.4040595673	-1.8663512961	-0.0705703538	 0.474079
N	-0.4350033814	-2.6783701483	 0.114107655	-0.3793
C	-1.0286982683	-4.0269483619	 0.0614380488	 0.068146
C	-0.4860317876	-4.9360266456	 1.1585939431	-0.384062
C	-2.5696218463	-3.7959295325	 0.13788822	-0.192405
N	-2.6702043298	-2.3964425769	-0.2908970832	-0.367078
H	 0.8353212699	 1.993914915	 0.1182516498	 0.121797
H	-0.5446537867	 1.8363646073	-0.9858421816	 0.129216
H	-0.8143305928	 1.9103349672	 0.7655158449	 0.126071
H	 0.6428528459	-0.3783853279	-0.7057603316	 0.123374
H	 0.3757618084	-0.3059093462	 1.0358967161	 0.120329
H	-0.7817758214	-4.4715857194	-0.9142670254	 0.078316
H	-0.6987122676	-4.51468995	 2.1467411615	 0.111648
H	-0.9376124413	-5.9328625714	 1.102619624	 0.10536
H	 0.5978541538	-5.043338004	 1.0632417891	 0.124395
H	-3.1364773193	-4.4605343136	-0.5193910609	 0.108334
H	-2.9341916423	-3.9334221099	 1.167174195	 0.093714
H	-3.4484061708	-1.8438204829	 0.0404602453	 0.24003
