20
gdb 113461	4.37941	0.93995	0.93124	1.2359	79.98	-0.2329	0.072	0.3048	1370.4117	0.170292	-403.083213	-403.074592	-403.073647	-403.116752	32.929	
C	-0.0141624951	 1.4526403846	-0.4192843576	-0.374687
C	-0.0246161215	 0.1511328784	 0.3916152981	-0.20902
C	-1.387464891	-0.4949269704	 0.4196501873	-0.031934
O	-1.815768096	-1.1475244186	-0.8014852065	-0.308062
C	-1.5914667004	-1.9390600144	 0.3506947081	 0.481887
C	-0.6096995926	-3.1377221321	 0.3341731812	-0.31871
C	-1.7385048572	-3.980186665	 0.9523061445	-0.043347
N	-2.0947919226	-3.3188377386	 2.2294294428	-0.336181
C	-2.6737932805	-2.8196897204	 0.9492342198	-0.174191
H	 0.9834414658	 1.901347079	-0.4333514868	 0.112608
H	-0.3183888721	 1.2625117182	-1.4528225605	 0.132986
H	-0.7063113959	 2.1886692676	 0.0042327741	 0.114607
H	 0.697259724	-0.5577971089	-0.0280551999	 0.103641
H	 0.2852285139	 0.3476953612	 1.4261728378	 0.105222
H	-2.1754009021	 0.1022172683	 0.8847206818	 0.085283
H	-0.3758369698	-3.4219514602	-0.6946445769	 0.119148
H	 0.3053922041	-3.0574488711	 0.9255930837	 0.11064
H	-1.9405764957	-5.0309961503	 0.7898631431	 0.098288
H	-2.8170936334	-3.8880314887	 2.6717832231	 0.230325
H	-3.7429415916	-2.7650762086	 0.7874276028	 0.101497
