16
gdb 35934	2.50798	1.56507	1.32862	1.5322	70.99	-0.2495	0.0049	0.2545	1014.8145	0.124326	-437.8393	-437.831301	-437.830357	-437.872093	29.943	
C	-0.2490516853	-1.2884174834	-0.0652442143	-0.435797
C	-0.1240143627	-0.0956248711	 0.0004633908	 0.290815
C	 0.005452771	 1.372888184	 0.0244236422	 0.031582
O	-0.5970729784	 1.9679433839	 1.1248728768	-0.220225
C	-0.1904702268	 1.4724494278	 2.399200813	-0.110255
C	 1.1835558589	 1.9909251356	 2.8060212131	-0.152952
N	 2.3234947354	 1.5592594417	 2.0175907292	-0.241201
C	 2.3391312719	 1.4958588455	 0.7617748302	 0.127166
O	 1.3732805679	 1.7393618714	-0.18212832	-0.230846
H	-0.3565119832	-2.3442551448	-0.1205093211	 0.207976
H	-0.5001785882	 1.7975145597	-0.8465909211	 0.135222
H	-0.9429991397	 1.832628198	 3.1063855091	 0.116065
H	-0.208054202	 0.3756503596	 2.4004473072	 0.120206
H	 1.1602645406	 3.0898147128	 2.7931991336	 0.126282
H	 1.361929484	 1.6929320807	 3.8461106274	 0.11171
H	 3.2746471766	 1.2716914686	 0.250024684	 0.124253
