18
gdb 17890	3.8379	1.93441	1.73722	1.6002	66.63	-0.2417	0.0893	0.331	834.1901	0.155575	-384.915691	-384.908868	-384.907923	-384.946277	27.213	
C	-0.1282640236	 1.509556655	-0.0078700804	-0.432307
C	 0.0193996765	-0.0064553886	 0.0125833513	 0.025941
C	 1.1887945277	-0.6185332322	-0.8220540072	 0.108648
C	 2.1012317047	-0.4269140057	 0.4209394585	-0.298694
C	 0.7854786423	-0.63023826	 1.2220303984	 0.108648
O	 0.4414255786	-2.0169767501	 1.2878208404	-0.278812
C	 0.9462865395	-2.7347378018	 0.1798447037	 0.023084
O	 0.898528381	-2.0037114926	-1.0288718963	-0.278813
H	 0.8140728973	 2.0335015852	 0.181062108	 0.115328
H	-0.5017409034	 1.8480032759	-0.9804336738	 0.122327
H	-0.8438858759	 1.8380727881	 0.7536242517	 0.122327
H	-0.9404630272	-0.4927723178	-0.1795912121	 0.079105
H	 1.4643473223	-0.1964844467	-1.7906443145	 0.076678
H	 2.9408963987	-1.1043995969	 0.5827330398	 0.109451
H	 2.4565039814	 0.6009403376	 0.4969236816	 0.112625
H	 0.6715737899	-0.2194895928	 2.2272830709	 0.076678
H	 1.9827656562	-3.0473453813	 0.3825608356	 0.088919
H	 0.3216969242	-3.6225589454	 0.0515242244	 0.118868
