16
gdb 79173	2.94267	1.80298	1.34071	1.5744	66.81	-0.2487	-0.0349	0.2139	934.1361	0.125841	-437.849723	-437.842795	-437.841851	-437.881062	27.482	
O	-0.0075990752	 1.4450407252	 0.0582328199	-0.442032
C	 0.0147940229	 0.0377548774	 0.0655260205	 0.024443
C	-1.385900387	-0.5409224194	-0.0507627578	-0.043651
C	-1.5794751291	-1.2603530266	-1.3331817583	-0.057319
C	-0.1246314956	-1.7034909751	-1.6637746685	-0.18088
C	-0.2994981928	-2.6679920524	-0.4561168885	-0.170699
N	-1.5896803585	-2.0180564934	-0.0347966293	-0.153398
C	 0.6845102177	-0.5034933688	-1.2190807556	 0.389765
O	 1.5928303276	 0.0549026791	-1.77817026	-0.334777
H	 0.7545151457	 1.7199484375	-0.471301861	 0.295181
H	 0.5439765778	-0.3394021815	 0.9560857954	 0.098464
H	-2.2008571687	 0.0013003124	 0.4128363586	 0.119762
H	-2.4270718855	-1.2004919013	-2.0043414953	 0.108946
H	 0.1390900884	-2.1099092534	-2.6367327466	 0.100425
H	-0.524121914	-3.6854287757	-0.7802524948	 0.129782
H	 0.4865738764	-2.700324504	 0.3054487112	 0.115989
