16
gdb 20259	3.61546	3.06952	2.4383	1.4369	65.67	-0.2247	0.0852	0.3099	645.0504	0.133753	-346.552179	-346.547121	-346.546177	-346.580922	22.26	
C	-0.0290952452	 1.5695235792	 0.0239578904	-0.246652
C	 1.5233953542	 1.5195238293	 0.0198411899	 0.07804
O	 2.0161588228	 1.4507962651	 1.35048558	-0.258877
C	 1.8008707364	 0.1275619959	 1.772641464	 0.10302
C	 0.5519166551	-0.6111309624	 1.3366251252	-0.124439
C	 1.9250276291	-0.8660495613	 0.6696004972	-0.124191
C	 1.4581955278	 0.0162300763	-0.5018108632	-0.071868
C	-0.0047086764	 0.0248009684	 0.0396373161	-0.040397
H	-0.4893982275	 2.1072992991	 0.8564204504	 0.100507
H	-0.4218017744	 1.9474444413	-0.9254676286	 0.095873
H	 2.0832016302	 2.2833029709	-0.5223552818	 0.075297
H	 2.1981976746	-0.0644617507	 2.7615318899	 0.104174
H	-0.0059972915	-1.2348078169	 2.0262825939	 0.083454
H	 2.5750607519	-1.7305760457	 0.6501816255	 0.088799
H	 1.717471504	-0.2029208554	-1.5338182221	 0.070282
H	-0.7958555009	-0.552215173	-0.4404921568	 0.066978
