18
gdb 92173	2.26919	2.0718	1.52961	1.7883	70.15	-0.2134	0.0679	0.2813	928.1041	0.148822	-439.026392	-439.018923	-439.017979	-439.057748	30.51	
O	-0.0114562274	 1.4528894351	-0.0581945462	-0.438375
C	 0.0445068536	 0.0273347112	 0.0100618227	-0.004313
C	 0.6461614197	-0.53980133	 1.3277477726	-0.197124
N	-0.4907443572	-0.9494366769	 2.1797115748	-0.132806
C	-1.3877679376	 0.2498603125	 2.4270835551	-0.186011
C	-2.2553849901	-0.1669039356	 1.2548624316	-0.142158
C	-1.4991961047	-1.4779584234	 1.2110348945	-0.099079
C	-1.3687257145	-0.5331101131	 0.0580343371	 0.434161
O	-2.0236348921	-0.8540206142	-1.1255678483	-0.489176
H	 0.8832001974	 1.7796899816	-0.1954076847	 0.284012
H	 0.5574075918	-0.3704934848	-0.877153872	 0.070662
H	 1.2494852067	-1.4289449456	 1.113287433	 0.104936
H	 1.2762725598	 0.1893548269	 1.8465176208	 0.098568
H	-1.8889797233	 0.1447445037	 3.3941166063	 0.105626
H	-0.8834891786	 1.2183543899	 2.3699878236	 0.112179
H	-3.3146334068	 0.0029400761	 1.1022162506	 0.089114
H	-1.8097182213	-2.5142062867	 1.169338571	 0.098601
H	-2.3098301353	-0.0294302167	-1.5340620124	 0.291181
