17
gdb 23020	2.4162	1.21829	0.86153	3.4999	73.74	-0.2434	-0.0168	0.2266	1309.977	0.133262	-455.08236	-455.072768	-455.071824	-455.1181	33.725	
C	 0.3337662738	 1.4634761774	-0.0463630405	-0.495578
C	 0.0006892262	 0.0092530495	 0.1274147036	 0.378532
N	-0.2078042095	-0.5970692499	 1.2322689195	-0.157187
O	-0.0883432598	 0.2313244608	 2.3484646773	-0.39281
C	-0.1008768158	-0.815971938	-1.1132908503	-0.098951
N	 1.1490173483	-1.3340498165	-1.6784820628	-0.33274
C	 0.1451032089	-2.2907830251	-1.1674997975	-0.12327
C	 0.5599625874	-3.0960381723	 0.0251462572	 0.191664
O	 0.0371354091	-4.1409882191	 0.3192658956	-0.269315
H	 1.3374933562	 1.5592830261	-0.4757046237	 0.152299
H	-0.3625707839	 1.9309542456	-0.7520130981	 0.131018
H	 0.2967686907	 1.9981699843	 0.9009773867	 0.159926
H	-0.2909973218	-0.3723246289	 3.0713681651	 0.312355
H	-0.841775649	-0.4445226903	-1.8224505035	 0.104206
H	 1.1262878592	-1.3084884827	-2.6945303624	 0.243361
H	-0.4634153317	-2.8505114378	-1.8743157697	 0.106351
H	 1.4145743316	-2.6730791532	 0.5874634436	 0.09014
