20
gdb 14947	4.11974	1.31661	1.08139	2.9482	75.53	-0.243	-0.0174	0.2256	1118.1358	0.178748	-349.042838	-349.034989	-349.034045	-349.075451	29.748	
O	-0.1375246216	-0.0159757658	 0.0033548875	-0.252164
C	-0.0229878776	 1.1826046484	 0.008191099	 0.148666
C	 1.2846934628	 1.9415790902	-0.0001004372	-0.047637
C	 1.3745086455	 2.8213413133	-1.2664422725	-0.204591
C	 2.6444869433	 3.6844961088	-1.2692277155	-0.197252
C	 2.7495198599	 4.5398920599	 0.0002341167	-0.180381
C	 2.6683199378	 3.6707412573	 1.2620790484	-0.197257
C	 1.39842653	 2.8075366194	 1.2738361216	-0.204575
H	-0.9255576128	 1.8423445541	 0.0197982769	 0.064413
H	 2.0895223297	 1.1971368301	-0.0116923878	 0.089266
H	 1.3417837543	 2.1887470241	-2.1603845277	 0.105951
H	 0.491130594	 3.474552231	-1.311157203	 0.09686
H	 3.5240942152	 3.0303518947	-1.3396564561	 0.098572
H	 2.6568919214	 4.3201685566	-2.1614996752	 0.095532
H	 3.6829038555	 5.1133999289	-0.0054360465	 0.093976
H	 1.93214665	 5.2743895087	 0.0119196742	 0.093691
H	 3.5490278956	 3.0159575353	 1.3088201707	 0.098573
H	 2.6975884165	 4.2966826771	 2.1608137164	 0.095533
H	 0.516111096	 3.4601280561	 1.3422836627	 0.09686
H	 1.3824824044	 2.1652375119	 2.1612885874	 0.105966
