17
gdb 31077	2.31651	1.48452	0.91593	1.7304	74.07	-0.1793	0.0367	0.216	1252.8946	0.135453	-455.179767	-455.170381	-455.169436	-455.21454	33.188	
C	-0.0751513942	 1.4560678059	-0.0251216908	-0.234927
O	-0.0113315467	 0.0348748998	 0.0107658747	-0.277573
C	-1.1903371766	-0.6157054061	 0.0019826528	 0.289721
C	-1.3539282681	-1.961416298	-0.001585031	 0.185775
C	-0.456511188	-3.1370165102	 0.0032368649	-0.503264
O	-2.7419350405	-2.1692867972	-0.0048994581	-0.216845
C	-3.271147401	-0.9372341792	-0.0029299895	 0.453236
N	-4.6394148598	-0.8466325805	-0.0773933962	-0.588131
N	-2.4138581259	 0.0400932395	 0.0054192784	-0.425601
H	 0.96093386	 1.7989192698	-0.0203597377	 0.124525
H	-0.5808649227	 1.8102759713	-0.9293626378	 0.13002
H	-0.6036032947	 1.8542232413	 0.8471283593	 0.129075
H	-0.5960356186	-3.7675518743	 0.8906726657	 0.126788
H	-0.5982311945	-3.7747660079	-0.8784336809	 0.129043
H	 0.5776314579	-2.7835621666	 0.000957399	 0.145939
H	-5.1334402266	-1.6233458584	 0.3374058438	 0.263454
H	-4.99023458	 0.0540276407	 0.2125700133	 0.268765
