14
gdb 129699	3.44968	1.19284	0.91545	1.9651	66.94	-0.2234	-0.0104	0.213	1191.3219	0.102009	-466.163477	-466.15518	-466.154236	-466.197566	29.105	
N	-0.5918153231	 1.1900417576	 0.470154132	-0.610159
C	-0.2548708457	-0.126982551	 0.1362365112	 0.22216
C	-1.0697349525	-1.1461072741	-0.3097990341	 0.333679
N	-0.2431667954	-2.2163336215	-0.4151507247	-0.229296
N	 1.0076214742	-1.9014334782	-0.0467972107	-0.122247
N	 0.9976281748	-0.6362214126	 0.2880778387	-0.244459
O	-2.3741052094	-1.2261486429	-0.6730139694	-0.219617
C	-3.297118402	-0.7788346918	 0.2428484306	 0.104891
N	-4.5059436799	-0.7563376801	-0.0928865128	-0.421148
H	 0.2349915456	 1.6778713127	 0.7962807229	 0.259537
H	-0.9877806007	 1.7018060357	-0.3108137869	 0.255386
H	-0.4657602066	-3.1442010268	-0.7403950473	 0.29116
H	-2.841139058	-0.4846542852	 1.1924425814	 0.13587
H	-5.0784127813	-0.4168488719	 0.6773906591	 0.244244
