19
gdb 89177	2.39573	1.55164	1.17637	1.4305	71.93	-0.221	0.0643	0.2854	1097.5835	0.156859	-460.123114	-460.113894	-460.11295	-460.15606	36.171	
C	-0.09771279	 1.5904331415	 0.0420679706	-0.460709
C	 0.0778731665	 0.0915246206	 0.116738516	 0.317762
O	-1.0895223541	-0.6180425421	-0.2678845186	-0.48827
C	 1.3425190139	-0.6847107182	-0.2352109795	-0.238134
C	 2.5989682916	-0.0582619084	 0.3417644131	 0.10974
O	 2.984049118	 1.1672002591	-0.2544543233	-0.430115
C	 1.9606785429	-0.0376022046	 1.7790222266	-0.355781
C	 0.7264121834	-0.7056639155	 1.202554332	 0.406784
O	 0.0578312382	-1.6805747457	 1.8992460071	-0.46528
H	 0.8117047025	 2.1147342518	 0.3350291805	 0.140424
H	-0.3243971407	 1.8910392563	-0.9884496903	 0.105998
H	-0.9304078744	 1.908400703	 0.6780986638	 0.116704
H	-1.1735781832	-0.5732345148	-1.2260569966	 0.288642
H	 1.3210938194	-1.418241983	-1.0340008412	 0.078955
H	 3.429115562	-0.7757644843	 0.3090927372	 0.081037
H	 3.791514827	 1.4677342014	 0.1752481937	 0.28331
H	 2.4904119458	-0.6889469338	 2.4776352366	 0.11381
H	 1.8180494235	 0.9454334441	 2.2380317553	 0.099533
H	-0.7586465122	-1.8460640475	 1.406611417	 0.295589
