17
gdb 18151	3.20606	2.02236	1.59038	2.8425	68.34	-0.2379	-0.0256	0.2123	851.4182	0.14114	-363.815329	-363.807627	-363.806683	-363.847608	28.231	
C	 0.0571522509	 1.6137857224	-0.2216106859	-0.310685
N	 0.2656011608	 0.186360304	-0.0405208299	-0.065349
C	 1.4934091823	-0.4982679049	-0.349848054	-0.038161
C	 2.7553693867	 0.3055676821	 0.0335512239	-0.290462
C	 2.2267571078	 0.3414259758	 1.5113200099	-0.103259
C	 2.1055152983	 1.6493703354	 2.2483741946	 0.141459
O	 1.1062255337	 2.0471740635	 2.7919888245	-0.246254
C	 0.959975141	-0.4175672876	 1.0664608547	-0.054315
H	 0.9523641856	 2.2399294123	-0.1012945642	 0.100488
H	-0.3330689944	 1.7782761685	-1.2309841009	 0.118867
H	-0.685964507	 1.9549293708	 0.5026540855	 0.143317
H	 1.4738365179	-1.3230429033	-1.0541868517	 0.097423
H	 3.6747733226	-0.2732821791	-0.0662114948	 0.113679
H	 2.8915802376	 1.2660817104	-0.4722882812	 0.109386
H	 2.8699808767	-0.30026162	 2.1279948768	 0.110852
H	 3.0495474604	 2.2446472074	 2.2804759994	 0.07382
H	 0.4394346191	-1.1584662977	 1.6627763433	 0.099194
