19
gdb 69493	3.1123	1.48469	1.23617	1.5686	74.04	-0.2421	0.08	0.3221	1065.0802	0.158833	-423.011394	-423.003309	-423.002365	-423.043398	32.527	
C	-0.0260525525	 1.5172644538	 0.0275752059	-0.48316
C	-0.0641673961	 0.019217599	 0.1603412689	 0.434054
C	-1.3007769891	-0.764061613	-0.2950934302	-0.30222
C	-1.2685331096	-2.0501190526	 0.5235860021	-0.113999
C	-1.4392741177	-1.939037224	 2.0315739995	-0.328615
C	-0.0655261263	-2.037001675	 1.4512465095	 0.42587
O	 0.6860893131	-3.169422801	 1.7494726802	-0.472108
C	 0.6472093889	-0.7420690281	 1.1981252888	-0.149344
O	 1.1616964003	-0.671357074	-0.1482121027	-0.310364
H	 0.9213722452	 1.9148026458	 0.3992581947	 0.130931
H	-0.1307021103	 1.812153208	-1.0225888723	 0.128187
H	-0.8464135951	 1.9788601926	 0.5871375559	 0.121864
H	-2.2125045619	-0.1795772363	-0.1200059195	 0.10005
H	-1.2425556782	-0.9632346668	-1.370842698	 0.111177
H	-1.5687658748	-2.9847533281	 0.0649947819	 0.09117
H	-1.7726459433	-1.0001762624	 2.464742671	 0.108934
H	-1.797382108	-2.8272593779	 2.5401315815	 0.125118
H	 1.284659981	-3.3156703907	 1.0068843331	 0.288959
H	 1.2693349943	-0.2799876392	 1.9618555895	 0.093495
