22
gdb 113829	3.89645	0.83778	0.7459	2.2121	84.4	-0.2142	0.0763	0.2905	1591.8797	0.192881	-404.294995	-404.285127	-404.284183	-404.330387	36.706	
C	 0.1046039905	 1.6396722242	-0.0394210666	-0.374622
C	-0.2894112854	 0.1686901341	-0.1523183516	-0.105464
N	 0.4960678591	-0.4819564021	-1.1962454657	-0.09295
C	 1.7454592333	-1.1244107454	-0.7969894779	-0.268657
C	 0.5829666706	-1.9465675853	-1.2402141688	 0.012152
C	-0.1453515215	-2.8311815468	-0.2765321159	-0.033724
C	-1.5120225309	-3.3899966873	-0.6499218777	-0.33764
C	-0.3110502266	-4.2952621843	-0.5846413553	 0.083531
O	 0.2659895497	-4.7661925098	-1.7683601218	-0.413637
H	 1.1555737017	 1.7399607863	 0.2515745434	 0.116292
H	-0.0280325292	 2.1467404176	-0.9991838006	 0.125122
H	-0.5053138433	 2.1485025567	 0.7137671462	 0.106593
H	-0.1798715853	-0.3143655542	 0.833539738	 0.075993
H	-1.3470975829	 0.0851922043	-0.4295860727	 0.101455
H	 2.6025590077	-0.9672062927	-1.4469262807	 0.111086
H	 1.9844714464	-1.1472647293	 0.2670851357	 0.098673
H	 0.5978158039	-2.3393728643	-2.2531611288	 0.099305
H	 0.0003138652	-2.6015297162	 0.7736509983	 0.089895
H	-2.278137286	-3.4676085037	 0.1138727032	 0.111029
H	-1.8775805812	-3.14539103	-1.6422588763	 0.118902
H	-0.2429219687	-4.985861749	 0.2560645521	 0.087109
H	-0.3426321473	-5.398840003	-2.1633442863	 0.289557
