15
gdb 123579	3.99542	1.67591	1.29087	1.8923	69.96	-0.2329	-0.0068	0.2261	926.7866	0.117175	-412.957908	-412.951737	-412.950793	-412.988292	24.843	
C	 0.0211338743	 1.4487852094	 0.0098908998	-0.246299
C	 1.2691028551	 0.6497399302	 0.0464789021	-0.02115
C	 1.978391554	 0.3877261956	 1.3995102858	-0.380903
C	 0.8936920288	-0.3567560425	 2.1189415975	 0.295825
N	 0.6450569262	-0.9033396816	 3.3010370841	-0.307743
N	-0.5846572446	-1.4029263433	 3.1178860024	-0.102459
N	-1.152867167	-1.2288752523	 1.9125580355	-0.319794
C	-0.2051806431	-0.5560848409	 1.2798175468	 0.343771
N	-0.073873352	-0.0339399676	-0.0274121242	-0.183924
H	-0.3040411602	 1.9431574016	 0.9220004098	 0.127885
H	-0.2773367238	 1.9400677923	-0.911012987	 0.12888
H	 1.865130658	 0.5738342131	-0.8563363873	 0.107316
H	 2.8785037637	-0.2182198447	 1.2505628475	 0.132909
H	 2.2866880405	 1.3141559517	 1.8945792042	 0.133569
H	-1.0548336396	-1.9151932011	 3.8453680128	 0.292116
