21
gdb 87846	3.39272	1.36543	1.26963	1.4602	82.78	-0.2197	0.088	0.3077	1106.97	0.183489	-387.0575	-387.04965	-387.048706	-387.089547	31.98	
C	-0.0724314163	 1.5011283404	 0.091237935	-0.402663
C	 0.0067081356	-0.0085082145	 0.0415808126	-0.1024
C	 1.3510694261	-0.7008039759	-0.181016911	-0.387221
C	 0.6638972122	-0.7788265551	 1.1447310439	 0.506454
O	 1.2251286468	-0.0723359529	 2.258815411	-0.320955
C	 0.9326833838	-0.9817889963	 3.3369636859	 0.108189
C	 1.3364653405	-2.3615247128	 2.757854381	-0.238111
C	 0.1303319304	-2.0301720108	 1.8180052371	-0.13846
C	-0.5403460784	-1.3862787767	 3.0762944457	-0.237777
H	 0.768962017	 1.9152860966	 0.6525367824	 0.132569
H	-0.0616969014	 1.9313763897	-0.916095777	 0.111716
H	-0.9916998885	 1.8320937876	 0.5870154832	 0.113517
H	-0.8487887138	-0.4968709008	-0.4214554378	 0.079649
H	 1.39242711	-1.5850147355	-0.8097381222	 0.105695
H	 2.2277764222	-0.0630529695	-0.2356861309	 0.117515
H	 1.3051721101	-0.5695836457	 4.2731550954	 0.079399
H	 2.3303479573	-2.4441800593	 2.3130962457	 0.103146
H	 1.1322296607	-3.1931106006	 3.4343768838	 0.098059
H	-0.3615758581	-2.7713525979	 1.1898411453	 0.071727
H	-0.9183572543	-2.1270932057	 3.7829026708	 0.098032
H	-1.260291672	-0.5794525144	 2.9229539801	 0.101919
