21
gdb 90976	3.33474	1.40362	1.3387	1.362	82.5	-0.254	0.0783	0.3323	1058.2738	0.185156	-387.028799	-387.021425	-387.02048	-387.060364	31.078	
O	-0.0484376657	 1.4554671289	 0.0505002783	-0.430834
C	-0.008235354	 0.0309558498	 0.0050888304	 0.133823
C	 0.7682888582	-0.5831812795	 1.2425606049	-0.32291
C	-0.2737301773	-1.4466601311	 1.9698683727	 0.033929
C	-1.079291606	-1.1924991269	 3.2908367521	-0.084084
C	-1.5057627509	 0.1774567811	 2.7119313884	-0.245094
C	-1.6188455074	-0.8402939892	 1.5264007625	 0.348033
C	-2.3164218595	-1.8042193683	 2.5312499623	-0.310338
C	-1.4916163624	-0.4665821012	 0.0696215385	-0.35612
H	 0.8583930491	 1.776953431	 0.0245744508	 0.280071
H	 0.4591703624	-0.290134315	-0.9366945233	 0.063021
H	 1.6231493166	-1.1816343338	 0.915031197	 0.093228
H	 1.1638150759	 0.2400283522	 1.8441031283	 0.10331
H	-0.1532124898	-2.5091481529	 1.7299008137	 0.057497
H	-0.7805139283	-1.4168879793	 4.3165958961	 0.065678
H	-2.4510318835	 0.5882404095	 3.0781709015	 0.083047
H	-0.7510547555	 0.9583131521	 2.6296346566	 0.102361
H	-2.2709841344	-2.8725107919	 2.2992781453	 0.087701
H	-3.301915491	-1.5153611896	 2.9067179317	 0.088773
H	-2.1584794232	 0.3242180178	-0.2817127758	 0.112972
H	-1.6222968733	-1.3438431237	-0.5738333418	 0.095935
