22
gdb 13132	3.97083	1.04575	0.90514	1.325	78.31	-0.2612	0.0815	0.3427	1339.7824	0.199949	-350.193431	-350.184105	-350.183161	-350.227638	34.281	
C	-0.099608343	 1.5747517981	-0.098138301	-0.391774
C	 0.0016413899	 0.0524111443	-0.0322559709	-0.003784
C	 1.1759581018	-0.5319725667	-0.8740728623	-0.222456
C	 2.0134483688	-0.6609374227	 0.4257051411	-0.226027
C	 0.6962483021	-0.5360247821	 1.2443492985	 0.043604
C	 0.6892002799	 0.24109774	 2.5541125423	-0.200535
C	 1.47233474	-0.4607473367	 3.6571410692	-0.073351
O	 1.4076725868	 0.3462851267	 4.824432488	-0.422062
H	 0.8697831295	 2.0567629843	 0.0697163569	 0.113608
H	-0.4538113694	 1.8890325806	-1.0860948055	 0.109947
H	-0.7991893886	 1.9677532065	 0.647114292	 0.115616
H	-0.9814314954	-0.3794037297	-0.2459828354	 0.061129
H	 0.9316943183	-1.5074815443	-1.3037490763	 0.096017
H	 1.5755010561	 0.1048978899	-1.6684027869	 0.091206
H	 2.6102584404	-1.5672595728	 0.5561559178	 0.091195
H	 2.6678449686	 0.2034775274	 0.5793080535	 0.098207
H	 0.2917401131	-1.540585184	 1.4225488683	 0.064708
H	 1.1171130244	 1.240319962	 2.4131567779	 0.101968
H	-0.3409615777	 0.3875235524	 2.903291517	 0.101166
H	 1.0423155478	-1.4597412267	 3.8398062066	 0.080948
H	 2.5157777512	-0.6112625045	 3.3356056408	 0.087073
H	 1.9147414456	-0.086628432	 5.5172273682	 0.283597
