23
gdb 58715	2.0638	1.36902	1.17365	2.6046	85.46	-0.2444	-0.0196	0.2248	1243.7693	0.20382	-388.29884	-388.288663	-388.287719	-388.334051	37.735	
C	-0.0135994178	 1.6249633287	 0.0166223904	-0.401284
C	 0.0747792541	 0.0994189492	 0.1700419666	-0.040891
C	 0.6987323365	-0.2899272665	 1.5200882205	-0.406187
C	-1.2882586928	-0.577929918	-0.0997926377	 0.258721
C	-1.8328906165	-0.5244231838	-1.5557538298	-0.26974
C	-2.1579944201	-2.0397188562	-1.4730958711	-0.215847
C	-1.2780545712	-2.1466382823	-0.2001021605	-0.280344
C	-2.3350004212	-0.1673150793	 0.9136399083	 0.112008
O	-3.4011823296	 0.3354560455	 0.6580628048	-0.259692
H	 0.9766078272	 2.0822221493	 0.1101830195	 0.113075
H	-0.4241697398	 1.9075589069	-0.9574927786	 0.124206
H	-0.6562576004	 2.0667185134	 0.7868356105	 0.122928
H	 0.7433166075	-0.2779598825	-0.6164386453	 0.073626
H	 0.7270014247	-1.375846431	 1.6557528535	 0.117863
H	 1.7278166857	 0.0787617085	 1.5797540731	 0.116868
H	 0.1527228918	 0.1411381898	 2.3654015847	 0.119443
H	-2.6724340383	 0.1523121238	-1.7186876649	 0.122576
H	-1.0399909784	-0.301599837	-2.2750678398	 0.093878
H	-3.2144098946	-2.2203508558	-1.2606865893	 0.116729
H	-1.8646457638	-2.6592047985	-2.3229581762	 0.099488
H	-0.2702493502	-2.5193917794	-0.4066494795	 0.104095
H	-1.6825898034	-2.7067753444	 0.6486255936	 0.101625
H	-2.0647290495	-0.3995365903	 1.9690257273	 0.076857
