15
gdb 131323	4.88578	1.27531	1.02864	2.975	67.91	-0.2074	0.0383	0.2456	1088.7016	0.115762	-453.959035	-453.952064	-453.95112	-453.990529	26.726	
O	-0.0810695297	 1.2643082161	 0.014256601	-0.424438
C	 0.0057908178	-0.079499803	 0.0537518809	 0.462562
N	-0.0647412791	-0.8065842612	-1.0540872736	-0.411816
N	-0.0119895517	-2.0881407741	-0.5648406236	-0.010726
C	 0.3598365204	-3.3423658661	-1.1764058637	-0.19041
C	 0.2520692037	-4.2444533328	 0.0822108627	-0.105017
O	 0.4065134298	-3.3642945521	 1.2302193986	-0.278457
C	 0.1748893759	-2.1190674585	 0.7695291043	 0.520287
C	 0.1621641927	-0.8333182137	 1.2530306513	-0.515161
H	-0.1890856449	 1.5100047072	-0.9136135172	 0.302856
H	-0.3332568924	-3.6489499113	-1.9635170427	 0.135552
H	 1.3764109321	-3.3081388333	-1.5896824545	 0.127798
H	-0.7345925988	-4.7147148193	 0.1437612771	 0.132272
H	 1.0263332423	-5.0097514084	 0.1405099706	 0.136038
H	 0.242365032	-0.4762597295	 2.263434429	 0.11866
