17
gdb 66073	2.27242	1.33025	1.14586	4.7087	74.82	-0.2615	0.0021	0.2635	1152.3755	0.135084	-418.032193	-418.023077	-418.022133	-418.066831	32.159	
C	-0.2514017631	 1.5598210941	 0.1030904726	-0.433189
C	 0.008192261	 0.0553044846	-0.013429924	 0.137478
C	 0.8461737098	-0.4059892	-1.2628570071	-0.293384
C	 1.9278730187	-0.9427156597	-0.284804347	-0.164808
N	 1.1094431994	-0.4528165534	 0.8249286802	-0.059591
C	 1.212192792	-0.7099890678	 2.1545324621	 0.132363
O	 2.1540080167	-1.2812806846	 2.658257411	-0.316315
C	-1.2456807224	-0.6964294866	 0.1574737601	 0.26775
N	-2.233388718	-1.2825097386	 0.2876685928	-0.329452
H	 0.6887126091	 2.1016707914	-0.0269504832	 0.13493
H	-0.9601728017	 1.8819448626	-0.6653028216	 0.145563
H	-0.6695407426	 1.8109828433	 1.0814509639	 0.14638
H	 0.3593469191	-1.1606799797	-1.8782125761	 0.143316
H	 1.1609229275	 0.4300840692	-1.8876239292	 0.129727
H	 2.057533835	-2.0287502815	-0.2773869141	 0.140803
H	 2.9113079797	-0.4693313891	-0.3491764371	 0.133515
H	 0.3419407297	-0.3292477542	 2.7253774265	 0.084913
