18
gdb 43106	2.59475	2.06436	1.5417	3.7826	74.31	-0.2369	0.0103	0.2472	909.4377	0.1515	-401.961055	-401.954394	-401.95345	-401.992187	26.858	
O	-0.0144701623	 0.1167180847	 0.5726999419	-0.347442
C	-0.0754651508	 1.2419013199	 0.162051017	 0.399297
C	-1.1803808144	 2.2541168784	-0.1406156099	-0.198292
C	-1.4995910666	 3.0174025511	 1.1912388303	-0.242144
C	-0.2423501695	 3.9332092614	 1.0111955821	-0.018108
C	 1.0133508227	 3.6134025685	 1.8599225839	-0.24162
C	 1.8374810787	 2.5698310843	 1.0328848075	-0.192415
N	 0.9528101019	 2.1889397167	-0.0722239552	-0.100263
C	-0.0116770815	 3.2638808827	-0.373106685	-0.011308
H	-1.9964221444	 2.0145786083	-0.8186953918	 0.093829
H	-2.4235084212	 3.5912180696	 1.0947720381	 0.114277
H	-1.5602875084	 2.4060923001	 2.0956508464	 0.115986
H	-0.4833996562	 4.9966349909	 1.0119876572	 0.078384
H	 1.603010548	 4.515703396	 2.0456818539	 0.106007
H	 0.7338282277	 3.2078545154	 2.8369126183	 0.114936
H	 2.760868341	 3.0090765762	 0.644237522	 0.112116
H	 2.0985389842	 1.6739011185	 1.6002293377	 0.13692
H	 0.1699695511	 3.8408063172	-1.2788857942	 0.079841
