13
gdb 20584	3.52854	1.92764	1.2564	4.859	66.55	-0.2574	-0.018	0.2394	892.3166	0.09769	-357.692718	-357.685539	-357.684595	-357.725006	25.153	
C	-0.0013936357	 1.5079876491	 0.0748220875	-0.514658
C	 0.0225207479	 0.0217662445	-0.04117691	 0.28673
C	-0.030385327	-0.8109239439	-1.1565756375	 0.030401
C	 0.0303941162	-2.1321330748	-0.6358994356	-0.082974
N	 0.1136150437	-2.1292028359	 0.6823841205	-0.210292
N	 0.1069258573	-0.816705596	 1.0141205668	-0.242213
C	-0.1243387681	-0.3990554822	-2.5054849862	 0.194139
N	-0.20136518	-0.052330531	-3.6085408801	-0.35239
H	 0.9079191152	 1.888139375	 0.5528226619	 0.149506
H	-0.073518257	 1.9542119166	-0.9186421178	 0.171397
H	-0.8584029318	 1.8510574621	 0.6644557842	 0.149502
H	 0.0153108984	-3.0612679607	-1.1846656727	 0.13886
H	 0.1630569209	-0.5645552727	 1.9875239089	 0.281992
