13
gdb 7874	3.89412	1.88394	1.27964	2.5759	65.24	-0.2838	-0.0855	0.1983	889.1959	0.095837	-398.668483	-398.661483	-398.660538	-398.699895	25.287	
C	 0.0109497483	 1.4937042559	-0.0229410844	-0.492252
C	-0.065571787	 0.0077364392	-0.0052823231	 0.1836
C	-1.0920523193	-0.8363472555	-0.1728434952	-0.277791
C	-0.5997906007	-2.2128957352	-0.0549127902	 0.416568
N	-1.2706804387	-3.276494372	-0.1536392707	-0.515378
O	 0.7650482377	-2.1599470898	 0.1904537838	-0.22993
C	 1.1498064522	-0.8262187794	 0.2318086737	 0.387361
O	 2.2785542881	-0.4891587932	 0.4285625644	-0.315141
H	 0.7100873134	 1.8315281225	-0.7954666421	 0.158002
H	-0.9662724131	 1.9435594608	-0.2082403071	 0.137614
H	 0.3996980086	 1.8680330513	 0.9301906735	 0.158006
H	-2.1315250756	-0.6131263054	-0.3652707223	 0.146522
H	-0.6745889437	-4.0968477692	-0.0286906704	 0.242818
