16
gdb 17595	3.86633	1.64692	1.20698	2.2007	68.14	-0.2457	-0.0558	0.1899	987.9393	0.129189	-379.912849	-379.904496	-379.903552	-379.946273	29.419	
C	 0.0056606974	 1.3714125456	-0.1284352814	-0.466727
C	 0.0549954262	-0.1265607913	-0.3111524824	 0.377447
O	 1.0849547012	-0.7394510355	-0.4756695937	-0.297279
C	-1.282096669	-0.8628433724	-0.2630084894	 0.209805
N	-2.3282101719	-0.1938601037	 0.0370802395	-0.493055
N	-1.226253968	-2.1945083268	-0.6456971017	-0.067714
C	-0.4445307406	-3.2165858966	 0.017634443	-0.20394
C	-1.9432704716	-3.2570682862	 0.0314644073	-0.246347
H	 1.0201939663	 1.7694951689	-0.1631494605	 0.132704
H	-0.6105628489	 1.8253369326	-0.910232353	 0.153705
H	-0.4764229615	 1.6219138825	 0.8202289639	 0.156702
H	-3.1575961677	-0.7933868736	 0.041129952	 0.219264
H	 0.1166492912	-3.8773840148	-0.6356527362	 0.133748
H	 0.0584156168	-2.9506206919	 0.9423897069	 0.13616
H	-2.4452856062	-3.0080029822	 0.9648747888	 0.124618
H	-2.4786301437	-3.9522554147	-0.608490813	 0.130909
