20
gdb 76993	3.06707	1.2175	1.03645	3.123	80.8	-0.2168	-0.031	0.1858	1221.8092	0.168627	-403.108886	-403.099502	-403.098558	-403.143043	34.711	
C	-0.1861302163	 1.5046328765	 0.3398747256	-0.345164
N	 0.1044606024	 0.0940373313	 0.1468848812	-0.132291
C	 0.9115705392	-0.4016220474	-1.0067196094	-0.050549
C	 1.6125879417	 0.5850792505	-1.9136222558	 0.150731
O	 1.5950774728	 0.5067397302	-3.1170824636	-0.253073
C	 1.817498234	-1.1544721729	-0.016738767	-0.162021
C	 2.3901349568	-0.2051622698	 1.0170874752	-0.342475
C	 0.9468424543	-0.6203448593	 1.1135096102	 0.379887
C	 0.3251516997	-1.2841476288	 2.3057136721	-0.485206
H	 0.6932687072	 2.1404320036	 0.5363497536	 0.10028
H	-0.6986139919	 1.8944371993	-0.5456627297	 0.131535
H	-0.8687009354	 1.6124027819	 1.1895928496	 0.127029
H	 0.3203498719	-1.0676442263	-1.6442765947	 0.099352
H	 2.183968262	 1.3923570099	-1.4060902632	 0.075267
H	 2.2044456005	-2.1521331739	-0.176108912	 0.103906
H	 3.0577364588	-0.6807294414	 1.7294025755	 0.117506
H	 2.6751325363	 0.8120024496	 0.7668286889	 0.111104
H	-0.0077110144	-0.5420511137	 3.0413792782	 0.123512
H	-0.5440801278	-1.8790444947	 2.0092354276	 0.129005
H	 1.0452899181	-1.9392486846	 2.8051679376	 0.121665
