19
gdb 65284	2.59827	1.33007	1.09012	1.7359	82.25	-0.2419	0.0449	0.2868	1180.0081	0.157046	-385.820287	-385.811135	-385.810191	-385.854018	34.422	
C	-0.0158136266	 1.5252286613	-0.0581088783	-0.462915
C	 0.0019756438	 0.0044537711	-0.0195081607	 0.084892
C	 1.3439170056	-0.7106025234	-0.179674531	-0.388578
C	 0.6759527683	-0.68952678	 1.1519591166	 0.258378
C	 1.13041224	-0.0795535175	 2.4746611239	-0.139611
O	 0.5618475246	-1.1879206801	 3.2023677968	-0.276107
C	 0.1390337846	-1.8460278744	 1.9850821718	-0.140659
C	-1.1607872098	-0.6411639402	-0.567903575	 0.2825
C	-2.1460727373	-1.1739815912	-1.008071174	-0.463478
H	 0.8938848951	 1.9363598234	 0.3898208405	 0.117582
H	-0.0783609957	 1.8843244797	-1.0896662374	 0.132132
H	-0.8756920648	 1.9218242396	 0.4904139037	 0.132261
H	 1.3554580559	-1.6438752629	-0.7323229802	 0.127446
H	 2.2168114193	-0.0819067134	-0.3291059019	 0.118008
H	 2.217807421	-0.0097575432	 2.6142209165	 0.102
H	 0.6708629497	 0.8772919322	 2.7544953476	 0.104038
H	-0.946522588	-1.9966257888	 1.9464139998	 0.115487
H	 0.6452808682	-2.8099149067	 1.8440056634	 0.101986
H	-3.0109402738	-1.6429383254	-1.4074229821	 0.194638
