18
gdb 52173	6.19888	0.64309	0.60505	3.7388	76.19	-0.2488	-0.0261	0.2227	1768.6111	0.145471	-439.086441	-439.077023	-439.076079	-439.123308	32.544	
N	-0.0417862892	 1.2034146285	-0.36133708	-0.434215
C	-0.0318176811	-0.0364877049	-0.1291709498	 0.131243
O	-1.1882412456	-0.7279979568	-0.1112285503	-0.18568
C	-1.0848809817	-2.1330977406	 0.1240846144	-0.090871
C	-2.4877956756	-2.6969235299	 0.1800768575	 0.003611
C	-3.3026789322	-2.6773515171	-1.1512871478	-0.347885
C	-3.5420562629	-4.1847032169	-0.9719915825	 0.406274
O	-4.2355925088	-4.9885711414	-1.5207023639	-0.281714
C	-2.5893977534	-4.2538299454	 0.2376909082	-0.378175
H	 0.9071130478	 1.5704624089	-0.3322528443	 0.230699
H	 0.8538022846	-0.6551971567	 0.0747272298	 0.084471
H	-0.5137125119	-2.6082952184	-0.6875247041	 0.104598
H	-0.5539073114	-2.3209102624	 1.0678768625	 0.11237
H	-3.035805725	-2.2184931084	 0.9948244916	 0.099648
H	-4.1997249834	-2.0547926469	-1.1843594137	 0.141451
H	-2.6996723682	-2.4509754284	-2.0376765224	 0.137557
H	-1.6546388948	-4.7729714759	-0.0051438591	 0.130009
H	-3.0047394273	-4.7011766673	 1.1439652841	 0.136606
