20
gdb 65724	3.92626	0.98165	0.92659	3.369	79.42	-0.2371	-0.0205	0.2166	1310.6252	0.169507	-403.111491	-403.10253	-403.101586	-403.145439	33.781	
C	-0.1001332818	 1.5368891874	 0.1630711858	-0.455371
C	 0.0432988951	 0.0253066054	 0.0068835813	 0.32365
C	-1.2951215308	-0.6458331836	-0.3438726006	-0.340323
C	-1.8902012828	-0.1650919499	-1.649149947	 0.162747
O	-3.0360958178	 0.1746426108	-1.7979728585	-0.2445
C	 1.2324831819	-0.4858656451	-0.9102071358	-0.281896
C	 1.8113064479	-1.2130267012	 0.3050189992	-0.037689
N	 2.0881085766	-0.1645160621	 1.317409065	-0.340461
C	 0.720626079	-0.7146519562	 1.1830368992	-0.091113
H	 0.8435282286	 1.9699558991	 0.5011395211	 0.141783
H	-0.3793729216	 2.0117959537	-0.7843313101	 0.117209
H	-0.8778524846	 1.7822935953	 0.8955026794	 0.114819
H	-1.1394203214	-1.731606013	-0.4357435238	 0.11601
H	-2.0371061736	-0.4845156616	 0.4455186107	 0.117395
H	-1.1794283654	-0.1517901228	-2.5078653863	 0.075285
H	 0.8985209985	-1.159924733	-1.7022394632	 0.100333
H	 1.8770637772	 0.2865752644	-1.3364591021	 0.110133
H	 2.3471457329	-2.1538571221	 0.3237442613	 0.094421
H	 2.5159023947	-0.6243174189	 2.1207291964	 0.230009
H	 0.2231347074	-1.1830826163	 2.0250863179	 0.087562
