18
gdb 101223	4.42669	0.8307	0.81695	1.9372	69.01	-0.2623	0.014	0.2763	1420.6491	0.147197	-476.235746	-476.226763	-476.225819	-476.269864	33.39	
O	 0.1610628818	 1.4142350964	-0.0509719217	-0.421406
C	 0.1215597198	 0.0101129989	 0.0526872131	-0.062836
C	-1.3259008866	-0.4939879624	 0.0795256622	 0.081958
O	-2.0334737432	 0.0558234114	-1.0278961351	-0.443302
C	-1.4270163752	-2.0171300939	 0.1030067247	 0.01891
C	-2.8480432319	-2.6416495056	-0.020125856	-0.402678
C	-2.3030524241	-3.3627063824	-1.2721037363	 0.421888
O	-2.6855071078	-4.2110589286	-2.0259968519	-0.337466
N	-1.1063736171	-2.6579034802	-1.1932053678	-0.349606
H	-0.5207003296	 1.6416059626	-0.697138873	 0.288363
H	 0.6562072423	-0.4717649247	-0.787150516	 0.070289
H	 0.6412908668	-0.2690999217	 0.9764884344	 0.106631
H	-1.8178608236	-0.0921659989	 0.9733863891	 0.104673
H	-1.7963921749	-0.4814115911	-1.7968662543	 0.289363
H	-0.8485219732	-2.4236462756	 0.9404423809	 0.093024
H	-3.146751825	-3.3135394454	 0.7852812904	 0.137758
H	-3.6399911789	-1.9210162772	-0.2278158508	 0.150637
H	-0.2075767097	-2.9266562815	-1.571656002	 0.253801
