23
gdb 104146	2.46149	1.15058	1.0138	1.9466	88.3	-0.2297	0.0204	0.2501	1345.7794	0.205056	-388.31307	-388.303116	-388.302172	-388.347443	38.019	
C	 0.029958019	 1.4946694706	-0.0336910806	-0.490042
C	 0.0346717099	-0.0013304311	-0.0482927561	 0.321426
C	-0.3459570725	-0.8055760901	-1.0433730823	-0.225541
C	-0.1689604713	-2.2822892237	-0.7352175201	 0.266488
C	-1.4016769634	-3.1170570448	-1.1113377044	-0.43832
C	 1.0709207047	-2.834918497	-1.4779004601	-0.092248
O	 0.9823191708	-2.7225869144	-2.8901796038	-0.425479
C	 0.1026411574	-2.2546453677	 0.7982669167	-0.267293
C	 0.5289325863	-0.8058420273	 1.1376345241	-0.301923
H	 1.0398225452	 1.8922818018	 0.1316098209	 0.124876
H	-0.3487677854	 1.9092494423	-0.9719295781	 0.121768
H	-0.5905642358	 1.8801751315	 0.7854643526	 0.125654
H	-0.7373011433	-0.4575770778	-1.9955426824	 0.08063
H	-1.5218618642	-3.1546165667	-2.1978110486	 0.12487
H	-1.298380367	-4.1475533038	-0.7515586072	 0.10766
H	-2.3118951868	-2.6954590364	-0.6733533662	 0.106628
H	 1.976401238	-2.3354109213	-1.0991427276	 0.080346
H	 1.1744494509	-3.906870718	-1.2724947406	 0.102969
H	 1.0031715246	-1.7840831361	-3.1038134548	 0.281862
H	-0.822726246	-2.4998699238	 1.3289745004	 0.099796
H	 0.84798343	-2.9979448598	 1.1002295814	 0.09304
H	 1.618511717	-0.7040628601	 1.2433110396	 0.103195
H	 0.103142842	-0.4539061163	 2.0853431772	 0.09964
