21
gdb 104398	2.44722	1.42422	1.18405	1.8852	73.45	-0.2521	0.0737	0.3258	1151.7626	0.181522	-461.36717	-461.357629	-461.356684	-461.401276	35.842	
C	 0.2349281948	 1.6068081297	-0.2939124525	-0.420522
C	-0.0083478584	 0.1509876476	 0.096893035	 0.054723
O	 0.5338788381	-0.7510256197	-0.8746411977	-0.256721
C	 1.8617643729	-0.9982477472	-0.4905213683	 0.011782
O	 1.9414152684	-0.8431318714	 0.9171329275	-0.318581
C	 0.6704730675	-0.3390622911	 1.395836108	 0.345585
C	 0.9434142485	 0.7086219502	 2.4669756891	-0.440227
C	-0.0939657281	-1.5446021293	 1.9808039147	-0.084665
O	 0.6970177551	-2.2442814155	 2.9178006808	-0.427085
H	 1.3018322708	 1.8473635964	-0.3205468736	 0.127571
H	-0.1819628788	 1.7879763248	-1.2881161857	 0.128764
H	-0.2489184085	 2.2889723705	 0.4110620571	 0.122881
H	-1.0853286749	-0.0471459465	 0.1266829396	 0.090918
H	 2.119806644	-2.0225011588	-0.7859232616	 0.112032
H	 2.562925113	-0.2911953003	-0.9640520915	 0.093956
H	 1.6276393535	 1.4787514561	 2.1058692053	 0.12009
H	 0.009913379	 1.1851962119	 2.7834181656	 0.116157
H	 1.3869034716	 0.2233027002	 3.3392526284	 0.139754
H	-0.9913879969	-1.2037869282	 2.5092532423	 0.10273
H	-0.412945876	-2.196719747	 1.1530629831	 0.094198
H	 1.5508087945	-2.3722310226	 2.4840430644	 0.286661
