18
gdb 69119	2.3625	1.61917	1.18134	2.5542	72.75	-0.2498	-0.0337	0.2161	1079.8507	0.147453	-439.080347	-439.071986	-439.071042	-439.113194	31.379	
C	-0.0266773265	 1.5197469275	-0.0366510022	-0.473135
C	-0.015430763	 0.016103706	 0.0567557587	 0.250252
C	-1.2807690276	-0.7590472351	-0.3044688963	-0.140354
O	-1.0721221895	-2.0843864148	 0.1589812459	-0.257193
C	-0.3043976386	-2.0027895385	 1.3583678349	-0.163501
C	 0.6181625933	-0.8126227445	 1.1516767634	 0.158096
N	 1.2376486063	-0.6846234548	-0.1846161808	-0.403042
C	 1.3632137086	-0.2372163622	 2.2956967944	 0.099263
O	 1.1585028854	-0.5396938984	 3.44698124	-0.266539
H	 0.9385652916	 1.9362177603	 0.2571213098	 0.139093
H	-0.2236374347	 1.833292514	-1.068083675	 0.130261
H	-0.8061955488	 1.9499967685	 0.6003314001	 0.129012
H	-2.1514048947	-0.2884791814	 0.1808790451	 0.102656
H	-1.4693875593	-0.8068759271	-1.3827258548	 0.117448
H	-0.9328554536	-1.8329142499	 2.2437274931	 0.121464
H	 0.2198633109	-2.9551818644	 1.4808143529	 0.122904
H	 1.0759354826	-1.5465986614	-0.7052860382	 0.245431
H	 2.1404401674	 0.5025165862	 2.0085156387	 0.087885
