25
gdb 76915	2.22105	1.1528	0.97577	0.1392	94.23	-0.2362	0.0851	0.3214	1420.3835	0.22735	-352.33976	-352.329173	-352.328229	-352.375155	40.104	
C	-0.0937310882	 1.5596345629	 0.1922894903	-0.413197
C	 0.0733752152	 0.0635105269	 0.0264931909	-0.065039
C	 0.6130620886	-0.5755352518	-1.2429075798	-0.062323
C	 1.0352756541	 0.2165405179	-2.4415565925	 0.021874
C	 1.5761767502	-0.4958615521	-3.6593470723	-0.271156
C	 0.2146183776	 0.1516349751	-3.7085347447	-0.272991
C	 1.4151714917	-0.6497980897	 0.0471105475	 0.30666
C	 2.7067393181	 0.1348932786	 0.1898560421	-0.450781
C	 1.4630409188	-1.9958258909	 0.7492473147	-0.446609
H	 0.7090380359	 2.1346939361	-0.2748863309	 0.113427
H	-1.0358512855	 1.8962753895	-0.2548804213	 0.117059
H	-0.1155757084	 1.834729743	 1.2529143873	 0.113391
H	-0.7319978867	-0.4959459426	 0.4992818645	 0.07281
H	 0.1270161188	-1.5092191079	-1.5237286499	 0.066033
H	 1.4837556754	 1.1820887571	-2.2348437636	 0.075854
H	 2.3883917669	-0.0360484411	-4.2118181105	 0.107174
H	 1.6200135585	-1.5798782457	-3.6290489563	 0.10865
H	-0.6551315744	-0.4974670775	-3.7115756655	 0.108522
H	 0.0931240376	 1.05639632	-4.2941222429	 0.107094
H	 2.6837353975	 1.1005447931	-0.3183046903	 0.11163
H	 2.9304762712	 0.3243885236	 1.2466917172	 0.110004
H	 3.5484721149	-0.4318475654	-0.2255255344	 0.114329
H	 2.2675062727	-2.6249909902	 0.34882594	 0.109835
H	 1.6435044956	-1.8746590031	 1.8246983291	 0.109219
H	 0.5223087339	-2.5430668759	 0.6305546213	 0.10853
