15
gdb 33558	2.24014	1.6063	1.21221	3.34	77.29	-0.249	-0.0139	0.2351	1060.0485	0.112176	-379.633221	-379.624931	-379.623987	-379.666144	30.917	
C	-0.0085777212	-1.2080379633	-0.0178424882	-0.416164
C	-0.0238957164	-0.0079719303	 0.0006494777	 0.3274
C	-0.0195775754	 1.462095435	 0.0124554595	-0.080938
N	-0.5685236072	 2.0074345559	 1.2661569242	-0.322976
C	 0.2195011335	 3.1771007272	 1.682330724	-0.216077
C	 1.5019484879	 3.0003527283	 0.9198400894	-0.061201
C	 1.3899603385	 2.0547606634	-0.0030285773	-0.083631
C	-0.7647561673	 1.9516272463	-1.1836986496	 0.251616
N	-1.3630296659	 2.3745917367	-2.078220943	-0.341258
H	-0.0019532136	-2.2703595715	-0.0273912022	 0.206523
H	-1.5635437719	 2.1779705785	 1.2090202891	 0.241951
H	-0.2516977374	 4.1416629204	 1.4301319731	 0.117988
H	 0.3726459935	 3.1690261172	 2.7694241789	 0.123964
H	 2.3858224946	 3.5949922586	 1.1126171138	 0.121567
H	 2.1290882982	 1.7152764276	-0.7142491694	 0.131236
