21
gdb 101405	2.84201	1.04619	0.82407	1.0585	79.89	-0.2546	-0.0314	0.2232	1443.905	0.180018	-424.231808	-424.221835	-424.22089	-424.267195	35.992	
C	 0.0378398351	 1.4995534421	 0.2469110762	-0.393969
C	-0.0594427198	-0.0184903727	 0.0673695185	-0.176528
C	-1.496083699	-0.5401534485	-0.1182372775	 0.017875
C	-2.1589838561	-0.0686773883	-1.4208831947	-0.412458
C	-1.5035505911	-2.069504876	-0.0755993485	 0.004826
O	-0.9921520281	-2.6371317925	 1.1611247521	-0.295458
C	-2.2133103883	-3.3362785229	 1.4709928544	-0.188487
C	-2.8470073732	-2.7612195812	 0.1990456149	 0.338823
O	-3.9178088516	-2.8010662288	-0.3265703398	-0.278344
H	 1.0740687011	 1.8028383373	 0.4250690823	 0.115769
H	-0.3154464692	 2.0417145779	-0.635553427	 0.118389
H	-0.5569784038	 1.8349520619	 1.1040186899	 0.11557
H	 0.5441490038	-0.3285076017	-0.7971012657	 0.091546
H	 0.3733082194	-0.5161253133	 0.9417704863	 0.119734
H	-2.0981339681	-0.1868434318	 0.7314165223	 0.074269
H	-3.1540534807	-0.5072420044	-1.5378766879	 0.143134
H	-2.265351626	 1.0188972263	-1.4374124573	 0.121337
H	-1.5586011206	-0.3590192391	-2.291358347	 0.114801
H	-0.9711098769	-2.4799809082	-0.9472777084	 0.102487
H	-2.0952936567	-4.4276134101	 1.4766381598	 0.132405
H	-2.6677545502	-3.015660086	 2.4168894173	 0.13428
