18
gdb 48433	3.68003	0.81842	0.73555	1.7595	79.48	-0.2585	-0.0423	0.2162	1531.6202	0.145431	-401.900936	-401.891461	-401.890517	-401.935939	34.17	
O	-0.3425002002	 0.4620426264	 1.0154549988	-0.272215
C	-0.1336085992	 1.2432423207	 0.116699196	 0.099237
C	 1.176596899	 1.9341833019	-0.0877503087	 0.23815
C	 1.46972124	 2.4773425929	-1.4693961213	-0.285727
C	 1.8047843067	 1.3510470804	-2.4723342801	-0.352249
C	 2.1060745708	 1.8549380072	-3.805251344	 0.292378
C	 2.3473288577	 2.3007849398	-4.8950707453	-0.434819
C	 1.702053634	 2.6098528049	 1.1500989199	-0.268192
N	 2.3117468609	 1.3788000704	 0.6694345396	-0.337878
H	-0.9266106843	 1.4998504054	-0.6187048938	 0.087241
H	 0.6084314783	 3.051389695	-1.8317536837	 0.114647
H	 2.3138522546	 3.1699029082	-1.4187871124	 0.125152
H	 2.6577314206	 0.7842564623	-2.0809477137	 0.154981
H	 0.96668919	 0.6432342972	-2.5313525812	 0.129121
H	 2.5659617513	 2.6795837881	-5.8624936054	 0.195875
H	 2.2978468374	 3.5100802201	 1.0255793843	 0.129759
H	 1.0839490385	 2.5723728062	 2.0427262789	 0.134526
H	 1.9526208339	 0.5994259128	 1.2229119719	 0.250014
