21
gdb 89846	2.90259	1.29891	1.05958	1.8642	79.09	-0.2276	0.0676	0.2952	1218.9409	0.181893	-424.219791	-424.210799	-424.209854	-424.253988	34.835	
C	 0.0208026907	 1.541407103	-0.0838477205	-0.43832
C	 0.1338633816	 0.0346208228	 0.0561218931	 0.119258
O	 0.7935442331	-0.4895573455	-1.0914106807	-0.292686
C	 1.1935335485	-1.7993585384	-0.7623202136	 0.47223
C	 0.5253309513	-2.9403083139	-1.4886734254	-0.333801
C	 1.9597436898	-2.5400290276	-1.8028968343	-0.34092
C	 1.4847359731	-1.8393958014	 0.7391213127	-0.324038
C	 0.9733719116	-0.4793444111	 1.2522489086	 0.102435
O	 2.1112429165	 0.3259365346	 1.5272519969	-0.431061
H	 1.0150000192	 1.9874279459	-0.1690463189	 0.132975
H	-0.5474611374	 1.7974956124	-0.9815561334	 0.131066
H	-0.4979194767	 1.9744595318	 0.7786756219	 0.108633
H	-0.8734268203	-0.4115817818	 0.1399205204	 0.059708
H	 0.3535201983	-3.8700167974	-0.9549639063	 0.105693
H	-0.229941008	-2.6846672799	-2.2234417203	 0.117027
H	 2.1377612961	-2.0238135351	-2.7396894146	 0.123556
H	 2.765422929	-3.1925295056	-1.4830370057	 0.112857
H	 0.9759784603	-2.6740519728	 1.2275484721	 0.104302
H	 2.5528239352	-1.91418687	 0.9565813497	 0.126129
H	 0.3490353838	-0.5816236179	 2.150989065	 0.061693
H	 1.8053496841	 1.174757118	 1.8620830735	 0.283265
