17
gdb 31191	2.07086	1.58437	0.94667	0.4112	84.52	-0.2137	-0.0026	0.2111	1233.9827	0.135125	-384.700113	-384.691398	-384.690454	-384.733938	32.372	
C	-0.3301308233	 1.6002512973	-0.1444573165	-0.373946
C	 0.1284707817	 0.1419302084	 0.032915481	-0.307954
C	 0.8815713524	-0.3867421521	-1.1359096262	 0.276368
C	 2.1697889808	-0.8373046117	-1.2903039646	 0.049642
C	 2.2997940186	-1.2094515636	-2.6799667818	-0.298047
C	 1.0990430897	-0.9575123403	-3.2487679316	-0.013439
O	 0.228134494	-0.4583052664	-2.3249772815	-0.180282
C	 3.159680975	-0.9176568867	-0.2844079007	 0.234463
C	 4.0112137357	-0.9920011849	 0.564710949	-0.455092
H	 0.5279582191	 2.2666451339	-0.2724111416	 0.126491
H	-0.971576041	 1.7013909947	-1.0241125791	 0.131067
H	-0.8952806769	 1.9332964384	 0.7309359503	 0.116022
H	 0.7780000097	 0.0504681061	 0.9083433773	 0.129384
H	-0.7475991278	-0.4934540336	 0.2180574352	 0.120226
H	 3.1799685785	-1.6073551179	-3.1582927295	 0.120405
H	 0.7084211282	-1.069105736	-4.2463513209	 0.138516
H	 4.7598593355	-1.0564231356	 1.3144648411	 0.186175
