19
gdb 125569	5.51413	0.91953	0.84505	2.558	84.44	-0.2187	0.0281	0.2468	1414.3272	0.160866	-382.090043	-382.081437	-382.080493	-382.123953	32.073	
C	-0.0134017709	 1.4889700608	-0.0630592625	-0.489979
C	 0.0043561832	-0.003142541	 0.0487506398	 0.359927
N	-0.0283647873	-0.7625084681	-1.0428923924	-0.290139
N	 0.0004095062	-2.0324291822	-0.5740249024	-0.28967
C	 0.0503721718	-2.1084454231	 0.7831933482	 0.429603
C	 0.0542760332	-0.7980937298	 1.2207027441	-0.407591
C	 0.0896234117	-3.3710450752	 1.5418750782	-0.08448
C	-0.6667809094	-4.6026710556	 1.0815124333	-0.271963
C	 0.8344889185	-4.5882946574	 1.0275834676	-0.271916
H	 0.8811880893	 1.9354992653	 0.3851179887	 0.125089
H	-0.0544405442	 1.781912639	-1.1143171869	 0.137054
H	-0.8809827419	 1.9193362058	 0.4494135834	 0.125087
H	-0.017002124	-2.7880493377	-1.2365861391	 0.265092
H	 0.0885683975	-0.4658572092	 2.2464473753	 0.093104
H	 0.1265820497	-3.2117765679	 2.6136910955	 0.096833
H	-1.1534866702	-5.2090755957	 1.8370509611	 0.122268
H	-1.2190694062	-4.5319090208	 0.1503115792	 0.114693
H	 1.3170345196	-4.5075028885	 0.0591913682	 0.114722
H	 1.3856827334	-5.1847971386	 1.7457875005	 0.122265
