15
gdb 49795	3.16751	1.49835	1.03424	5.3707	72.37	-0.2383	-0.014	0.2243	1082.8893	0.113435	-453.973147	-453.965355	-453.96441	-454.00648	28.305	
N	 0.0631769013	 1.2967550266	-0.3131351783	-0.495033
C	 0.0633132229	 0.0712276376	-0.0204039601	 0.451272
O	 1.2097636847	-0.6406676642	 0.171518599	-0.260393
C	 1.2601975972	-1.7160466745	 1.1206816664	-0.136996
C	 0.0037600726	-2.5199940947	 1.0994256162	-0.1721
C	-1.0923241455	-1.9912441357	 0.56916804	 0.040283
N	-1.1327829312	-0.6897639462	 0.0408696672	-0.17002
C	-2.3692255897	-0.2327827901	-0.4525859034	 0.172314
O	-2.603594022	 0.8137590122	-0.9807661478	-0.260931
H	 1.0250882905	 1.6353599286	-0.3120571885	 0.23315
H	 2.1294888197	-2.3129523077	 0.8286441276	 0.136575
H	 1.4667718145	-1.3024928272	 2.1200545321	 0.125728
H	-0.0022015561	-3.5200770826	 1.5122088079	 0.116316
H	-2.0356709579	-2.5203760117	 0.5127415612	 0.132679
H	-3.137226441	-1.0137742005	-0.2858958497	 0.087157
