18
gdb 88911	2.84956	0.98635	0.83498	3.9254	77.92	-0.2799	-0.0832	0.1967	1405.1973	0.145823	-401.958447	-401.948858	-401.947914	-401.994375	33.72	
C	-0.1451881906	 1.4852063522	-0.0329106981	-0.407075
C	 0.5199600901	 0.1265054151	-0.0619241714	-0.008726
C	 1.9498877604	-0.0543301406	 0.3769354251	-0.284077
C	 0.8311078672	-0.6698112875	 1.1900518009	-0.016705
C	 0.4819476097	-0.1658612706	 2.5834398622	-0.33052
C	 1.3591069885	-0.8219329777	 3.6264024789	 0.305298
O	 0.9901943166	-1.6362712475	 4.4337099536	-0.259844
C	 2.7844936697	-0.4104403974	 3.6007798119	 0.236166
N	 3.8896316379	-0.0696089292	 3.6020422165	-0.313697
H	 0.2260668928	 2.1107117408	 0.7843296714	 0.117687
H	 0.052911812	 2.0257362414	-0.9644839097	 0.126987
H	-1.2319160591	 1.3991453068	 0.0766488929	 0.12233
H	 0.2089813786	-0.4900154294	-0.9014456666	 0.094465
H	 2.602622151	-0.7132588445	-0.1840599919	 0.122936
H	 2.4544635614	 0.8101951186	 0.7966943097	 0.126998
H	 0.712689859	-1.7456903633	 1.092726913	 0.102501
H	 0.6213629325	 0.9188916188	 2.6451708751	 0.129361
H	-0.5541247179	-0.401442416	 2.8440627967	 0.135913
