23
gdb 111832	2.75541	1.21266	1.10008	0.2823	90.91	-0.2254	0.0233	0.2487	1272.4542	0.207989	-351.162948	-351.154188	-351.153244	-351.196508	34.322	
C	 0.1530284594	 1.5338901805	-0.1261442415	-0.377867
C	-0.189375657	 0.0575704483	 0.1110465949	-0.19256
C	 0.6129175968	-0.542373909	 1.2458685717	-0.005353
C	 0.7602352992	-2.0347814425	 1.4741470826	-0.075129
C	 0.1872732518	-3.0582190132	 0.4929433564	-0.228106
C	 1.2589874846	-3.6638357564	-0.4368080129	-0.244861
C	 2.1919957251	-2.6140541205	-0.9925067449	-0.05706
C	 2.499249713	-1.5018466455	-0.3217447875	-0.066987
C	 1.9593017251	-1.2231461364	 1.0327580719	-0.086405
H	 1.2085887573	 1.6534426547	-0.3918196812	 0.117444
H	-0.4483018971	 1.9559556531	-0.9375635318	 0.107918
H	-0.0313454812	 2.1336706026	 0.7721914839	 0.111137
H	-1.2611029884	-0.0375116367	 0.3327251231	 0.091802
H	-0.0130991611	-0.5036745553	-0.8119347896	 0.103075
H	 0.5566406938	 0.0441724787	 2.1613361756	 0.074731
H	 0.7533355226	-2.3476337164	 2.5137136401	 0.077217
H	-0.3105878633	-3.8580849743	 1.0507855115	 0.093277
H	-0.5882509087	-2.5971918423	-0.1277034117	 0.104667
H	 1.8479737003	-4.4150147227	 0.1102465009	 0.108857
H	 0.7737552734	-4.2085910221	-1.2547429485	 0.096913
H	 2.6338990047	-2.7990673156	-1.9684212085	 0.083123
H	 3.1844517567	-0.7748623735	-0.7525512238	 0.081184
H	 2.715242823	-1.0021849154	 1.7830153592	 0.082985
