21
gdb 23025	3.39216	0.82246	0.77344	1.1691	84.3	-0.2301	0.0098	0.2399	1578.448	0.180899	-420.349023	-420.338793	-420.337848	-420.384637	37.453	
C	-0.7076467661	 1.4043204982	 1.1108626111	-0.375225
C	-0.3296172299	 0.1834960936	 0.2636297397	-0.195148
C	 0.9839757786	-0.4213578727	 0.7059607412	 0.014499
N	 0.9766624212	-1.3168599849	 1.8681929551	-0.34532
C	 1.3852299791	-1.8585758406	 0.5593203667	-0.114432
C	 0.5584374188	-2.9383431819	-0.0543854812	 0.379624
C	-0.8435579895	-3.2248645487	 0.4035007825	-0.488651
N	 1.1706114871	-3.604260008	-0.9621951066	-0.183656
O	 0.351166105	-4.5973378058	-1.5211551303	-0.398468
H	 0.0571060156	 2.1865183534	 1.0448542715	 0.110678
H	-1.6561938855	 1.8379204251	 0.78029651	 0.112816
H	-0.810449606	 1.1240190611	 2.1638348418	 0.128033
H	-1.1240698015	-0.5641800472	 0.3238629426	 0.109069
H	-0.2443414588	 0.4709727306	-0.7920925629	 0.101122
H	 1.8219267096	 0.2748800947	 0.6373225021	 0.083204
H	 1.7865728074	-1.1694062931	 2.4627922201	 0.235531
H	 2.4458305724	-2.0159119539	 0.3787505252	 0.093093
H	-1.0433206993	-2.7243477901	 1.3505769988	 0.147905
H	-1.574359043	-2.8961805516	-0.344177395	 0.138775
H	-0.9779989417	-4.3040714576	 0.515500745	 0.141774
H	 0.9507197364	-5.0263519205	-2.1404598872	 0.304777
