22
gdb 61582	3.18265	0.87002	0.78393	2.7057	82.85	-0.2291	0.0804	0.3095	1548.4361	0.193068	-404.289812	-404.280185	-404.279241	-404.325185	35.552	
C	-0.019014819	 1.5243868522	-0.27616561	-0.419629
C	 0.0832858475	 0.0008099446	-0.0989115877	 0.060089
C	 1.1234509001	-0.5834139823	-1.0702108712	-0.225384
C	 1.1315172845	-2.0932914589	-1.1020082271	 0.102892
C	 0.3899196653	-2.8512062826	-2.1185981177	-0.17728
O	 1.8074672432	-2.7007647962	-2.2080888613	-0.244127
N	 0.3927954353	-0.5022083236	 1.2496564744	-0.069792
C	 1.1796964431	 0.2852701312	 2.1894361854	-0.222671
C	-0.2727253363	 0.0369940515	 2.4217947131	-0.22783
H	 0.9562787151	 2.0116251709	-0.1756317593	 0.121742
H	-0.3946998456	 1.7503842194	-1.2786957064	 0.121099
H	-0.7084993184	 1.983025747	 0.4387499255	 0.116915
H	-0.895304988	-0.433587337	-0.3446019276	 0.084472
H	 0.9364856144	-0.2087450637	-2.0826909842	 0.099289
H	 2.1193358851	-0.2238796223	-0.7782452081	 0.105498
H	 1.3149190764	-2.576305931	-0.1442838059	 0.1063
H	 0.0375938931	-3.8584813034	-1.8995876695	 0.111644
H	-0.184357815	-2.3165318975	-2.875454966	 0.104906
H	 1.9327916707	-0.2641256721	 2.7480774864	 0.116079
H	 1.4666767959	 1.3001232807	 1.924679113	 0.110953
H	-0.9413382788	 0.8882840198	 2.3092652024	 0.109061
H	-0.6012973586	-0.6971284565	 3.1532079818	 0.115774
