19
gdb 101541	2.60941	0.96516	0.87891	2.1642	80.48	-0.2526	-0.062	0.1906	1422.3405	0.154707	-422.996225	-422.985636	-422.984691	-423.032971	37.137	
C	 0.5191758716	 0.6537972371	 0.6297837039	-0.239266
O	-0.1001066016	 0.0463018915	-0.4812232761	-0.246851
C	-1.378353759	-0.5171286058	-0.2329486725	 0.137507
C	-1.9757853354	-0.8352847983	-1.5989475205	-0.406082
C	-1.2823512597	-1.7759403847	 0.6555260232	-0.316843
C	-1.2908800869	-1.4933198449	 2.1509182385	 0.214296
O	-1.8996720939	-0.5673378775	 2.644541909	-0.292537
C	-0.551099878	-2.4360752268	 2.9745497961	 0.270463
C	 0.0637705862	-3.2289811005	 3.6401311439	-0.416774
H	 1.4015750365	 1.1787294441	 0.2549433524	 0.124318
H	-0.1463849349	 1.3729945032	 1.1282868059	 0.120103
H	 0.8506743228	-0.0800644804	 1.380987925	 0.106717
H	-2.0096644018	 0.2158044052	 0.2911046906	 0.09543
H	-3.000688189	-1.2039719321	-1.4975870495	 0.114933
H	-1.9865966117	 0.0648511275	-2.2183224174	 0.127053
H	-1.3800998628	-1.5960200492	-2.1136528465	 0.123026
H	-2.1581105588	-2.4141598407	 0.4740378041	 0.141216
H	-0.4030583477	-2.365144255	 0.3775640756	 0.126663
H	 0.603214754	-3.9195334827	 4.2420832943	 0.216627
