17
gdb 112497	3.60127	1.0014	0.85437	13.0925	82.73	-0.176	-0.015	0.1609	1340.2443	0.137545	-417.968277	-417.959526	-417.958582	-418.002296	31.527	
C	 0.1520122918	 1.4750749243	-0.0860882401	-0.362008
N	-0.0419774275	-0.0062473957	 0.0732965533	-0.239398
H	-1.0345771543	-0.2492215208	 0.0474536496	 0.302852
H	 0.4084117259	-0.4884604171	-0.7105896178	 0.314247
C	 0.6423226422	-0.5356412858	 1.3235688502	-0.13771
C	 0.726610582	-2.0779297435	 1.3893738045	-0.37063
C	 2.2212499368	-1.9112820635	 1.1305948324	 0.028974
C	 3.2274463007	-2.8749906025	 0.9943505308	 0.146651
N	 4.0420001811	-3.6979967441	 0.8753219113	-0.393108
C	 2.1918456328	-0.5093893715	 1.0749864595	 0.277088
O	 2.9031175937	 0.4677542812	 0.8413787942	-0.436341
H	 1.2228956853	 1.6576527327	 0.0396426978	 0.241
H	-0.2078498249	 1.7810847594	-1.0693204783	 0.157029
H	-0.4170782771	 1.9751643678	 0.6980003773	 0.168876
H	 0.2088855853	 0.008009804	 2.1665994343	 0.106441
H	 0.4176946766	-2.4846005669	 2.3609473091	 0.116664
H	 0.1395660797	-2.6036595979	 0.6183797918	 0.079375
