21
gdb 116133	2.48128	1.17429	0.84156	2.0463	82.27	-0.2327	0.0269	0.2595	1399.8595	0.182404	-424.230101	-424.220684	-424.21974	-424.264303	35.052	
C	 0.0769879318	 1.5354622816	-0.0155339705	-0.476184
C	-0.0259991814	 0.0368475131	 0.0234193844	 0.263312
C	-1.1806494838	-0.6289219272	-0.01465995	-0.145281
C	-1.2526084138	-2.1349641424	-0.0358922897	-0.041237
C	-2.3139538121	-2.633285756	-1.0188131803	-0.08998
O	-3.5815818837	-2.193046142	-0.5537203509	-0.419371
C	 0.1276060175	-2.7039468998	-0.3816024281	-0.104453
O	 1.1418540486	-2.0899115816	 0.3900715074	-0.247474
C	 1.2827742478	-0.7130336971	 0.1054920485	-0.148427
H	 0.6912855194	 1.8713796156	-0.8614820486	 0.121894
H	-0.9081227483	 1.9997078609	-0.1083831256	 0.125085
H	 0.5558527391	 1.9273364932	 0.8912507376	 0.123621
H	-2.1271876432	-0.0965117018	-0.0517343965	 0.093137
H	-1.5485111854	-2.5022580139	 0.957469967	 0.096642
H	-2.0990859463	-2.2379959649	-2.0246712994	 0.086685
H	-2.2752295709	-3.733630467	-1.0784517473	 0.085038
H	-4.241934803	-2.4223021308	-1.2137445595	 0.287895
H	 0.1840832314	-3.7746555185	-0.163349386	 0.105475
H	 0.3279439454	-2.5657843671	-1.4590140612	 0.08139
H	 1.8486120731	-0.5678617392	-0.8351984679	 0.090312
H	 1.9051282377	-0.3009051551	 0.9098575566	 0.111919
