19
gdb 40743	3.79078	1.16457	1.04946	0.9841	75.75	-0.2433	0.0609	0.3042	1199.7841	0.159858	-422.964039	-422.956285	-422.95534	-422.996888	29.759	
C	 0.6186574138	 1.6634835644	 0.3402558181	-0.268173
C	 0.9361613781	 0.4499731331	-0.4906637219	-0.27143
C	-0.3634991131	 0.5194871049	 0.2793825253	 0.014159
C	-0.5518575796	-0.3566872279	 1.4731728758	 0.10406
O	-1.4578301906	 0.1901541982	 2.4884652514	-0.320983
C	-2.2480851305	-1.0093545429	 2.5096824988	 0.070245
C	-3.4122231517	-0.976087453	 1.5106781356	-0.093108
O	-2.5480110707	-1.4560168202	 0.4444091552	-0.29168
C	-1.4386749111	-1.6147668931	 1.3486879942	 0.036093
H	 1.1705541499	 1.8080708933	 1.2629557337	 0.117149
H	 0.3539474557	 2.5842326362	-0.1670320603	 0.115641
H	 0.8872828609	 0.5299724234	-1.5704981135	 0.117181
H	 1.706900111	-0.2246316274	-0.1317632325	 0.110693
H	-1.2664927407	 0.6713038845	-0.3013969396	 0.098787
H	 0.4173467835	-0.5862466267	 1.9413482275	 0.070331
H	-2.3946622964	-1.4177981498	 3.5107784087	 0.0875
H	-4.2199748796	-1.691363183	 1.7119088307	 0.103408
H	-3.8257259093	 0.0171499889	 1.3086761003	 0.115443
H	-0.9735938994	-2.5999740229	 1.2855022126	 0.084685
