15
gdb 131317	5.1313	1.29327	1.03966	2.5864	75.41	-0.2062	-0.0266	0.1796	1077.2334	0.115716	-416.839086	-416.832343	-416.831399	-416.870124	26.729	
O	 0.079341834	 1.2771277666	-0.0045586108	-0.430032
C	 0.0659962932	-0.0708939946	 0.0627822098	 0.459675
N	 0.090991098	-0.8175009075	-1.0426929134	-0.404572
N	 0.0662401193	-2.0753626383	-0.551292539	 0.026743
C	 0.0735402522	-3.3773345084	-1.1796819038	-0.228765
C	 0.0314360025	-4.2764570586	 0.040705777	-0.097739
C	 0.0054342945	-3.5425936451	 1.1681636085	-0.206944
C	 0.0273967749	-2.1331297215	 0.8040813217	 0.452467
C	 0.025657776	-0.8247402065	 1.2603751713	-0.508306
H	 0.1079952795	 1.5105054832	-0.9408487224	 0.30229
H	-0.7954565747	-3.5170214473	-1.8349851895	 0.143195
H	 0.9760879124	-3.531422077	-1.7844602329	 0.143207
H	 0.024604254	-5.3544382025	-0.0338361389	 0.117265
H	-0.0264622372	-3.9174237564	 2.1811419932	 0.120466
H	 0.0001628115	-0.4551011861	 2.2705346393	 0.111049
