17
gdb 48368	2.52743	1.48493	1.0888	3.6754	68.75	-0.2503	-0.0372	0.2131	1120.213	0.134149	-458.921412	-458.912897	-458.911952	-458.95544	30.31	
O	-0.9987176508	 2.4985153894	 1.1875242705	-0.248481
C	-0.2477153217	 1.6440696993	 0.798448237	 0.129157
C	 0.9508874406	 1.9077113191	-0.0695562657	 0.265377
C	 2.2132181091	 1.2764673156	 0.3747138376	-0.220955
O	 1.4684179754	 0.7289352013	-0.7008299727	-0.254138
C	 0.9424400394	 3.1866700064	-0.8697986463	 0.082367
C	 2.0181159625	 3.3688085606	-1.9614331007	-0.313773
C	 0.8167305371	 3.4466825355	-2.924599471	-0.056684
O	-0.115774641	 3.181774254	-1.8545145742	-0.29082
H	-0.3653485879	 0.5696760088	 1.0642917252	 0.091845
H	 3.1537671324	 1.7568620537	 0.1091812824	 0.129978
H	 2.2309153559	 0.682981271	 1.287987273	 0.129935
H	 0.8273993623	 4.0287788851	-0.1760197167	 0.097264
H	 2.6326705542	 4.2652474124	-1.8773687699	 0.112994
H	 2.6503590227	 2.4931237085	-2.1114272499	 0.127135
H	 0.6447069839	 4.4307457929	-3.3772194092	 0.105336
H	 0.7713819659	 2.6793101064	-3.7049605194	 0.113464
