13
gdb 1398	6.89864	1.43128	1.24299	2.3425	60.22	-0.2691	0.0174	0.2865	901.0198	0.100805	-303.468081	-303.460314	-303.45937	-303.500018	27.234	
N	 0.0053563677	 1.5308786434	 0.0118044751	-0.480958
C	-0.0065241806	 0.0730440194	-0.0472828377	-0.125424
C	-1.4488701079	-0.4712922393	 0.1206354597	-0.35136
C	-2.013846219	-0.1659406959	 1.4265626401	 0.316998
C	-2.4748809648	 0.0617771242	 2.5117945385	-0.432357
C	 0.5819660571	-0.4687460704	-1.2935701114	 0.254707
N	 1.0435487138	-0.847600329	-2.2838152391	-0.318341
H	 0.9592636026	 1.8769928031	-0.0154252357	 0.248127
H	-0.4702487977	 1.9180296892	-0.798648807	 0.242577
H	 0.5940058244	-0.2998298809	 0.7893736498	 0.146749
H	-2.0755871522	-0.0504082775	-0.6758555422	 0.143704
H	-1.4352489347	-1.555245719	-0.0402323256	 0.153773
H	-2.8871733787	 0.2722912328	 3.4674760355	 0.201805
