16
gdb 97837	4.07985	0.68418	0.61559	3.3811	76.84	-0.2452	-0.0339	0.2114	1758.2802	0.122463	-437.829719	-437.820358	-437.819414	-437.866026	32.311	
O	 0.1102178389	 1.4962057314	 0.5681842617	-0.400325
C	 0.0964458659	 0.1049868325	 0.2810751787	-0.198762
C	-1.2450861358	-0.4440900529	 0.0927852298	 0.119448
C	-2.3607908386	-0.8599815266	-0.0941450256	 0.077066
C	-3.6893863055	-1.4015076096	-0.2771433797	-0.314968
N	-4.1184965848	-1.7138864106	-1.6761339156	-0.307024
C	-4.6294765149	-3.0604095145	-1.3142286575	-0.285878
C	-3.943219708	-2.9108187766	 0.0491760299	 0.395545
O	-3.685374888	-3.6259347662	 0.9624948067	-0.264155
H	-0.3915308522	 1.9382199519	-0.1246311423	 0.287374
H	 0.7088558628	-0.1297562863	-0.6041708556	 0.1224
H	 0.5800446897	-0.3806194349	 1.1359440425	 0.146542
H	-4.4229678195	-0.8018344824	 0.286126425	 0.122309
H	-4.8247211278	-1.0803333834	-2.0313687246	 0.229776
H	-5.7198065712	-3.1553168045	-1.2099067584	 0.127519
H	-4.2655534509	-3.8731049572	-1.951658525	 0.143133
