20
gdb 113656	3.61893	0.81895	0.75258	3.9318	77.02	-0.2451	-0.0216	0.2235	1584.1582	0.169186	-440.27217	-440.261969	-440.261025	-440.308657	36.006	
C	 0.0872050836	 1.7152998554	 0.3120317458	-0.379682
C	-0.1468094641	 0.2219214251	 0.5171663375	-0.287414
C	-1.0946399783	-0.3926404483	-0.5037740813	 0.404735
O	-1.6487547129	 0.2686504398	-1.3522354569	-0.308812
C	-1.2737493139	-1.8840010644	-0.3835521547	-0.149239
N	-2.5112653694	-2.4769650612	-0.9252459336	-0.322338
C	-1.2430991988	-2.8129208857	-1.5676039921	-0.025744
C	-1.1077316421	-2.3588274303	-3.0038283873	-0.084931
O	-1.8778960868	-3.1973213945	-3.8537320563	-0.42281
H	 0.7577785219	 2.1113278886	 1.079579925	 0.11028
H	 0.5296567765	 1.9097142269	-0.6684119623	 0.13147
H	-0.8560738451	 2.2650539964	 0.3557211829	 0.135845
H	 0.7965207412	-0.3420367772	 0.4841501066	 0.122754
H	-0.5606357536	 0.0174423563	 1.5156411103	 0.124307
H	-0.879525198	-2.3052353364	 0.5394801321	 0.087864
H	-2.8215881237	-3.227294355	-0.3137097085	 0.239906
H	-0.8278305059	-3.8006409241	-1.369587996	 0.096655
H	-1.4041937172	-1.3088492975	-3.0905465573	 0.132446
H	-0.0681719458	-2.4592238525	-3.3334049159	 0.104022
H	-2.7985907173	-3.0556912913	-3.606054128	 0.290686
