14
gdb 42808	2.78545	1.5279	1.25016	4.0169	65.37	-0.2718	-0.038	0.2339	987.3468	0.101758	-436.680334	-436.67325	-436.672306	-436.712251	26.584	
O	-0.0609191256	-0.0388923695	-0.15124364	-0.290165
C	-0.0475382237	 1.1355645854	 0.0136912426	 0.45289
C	-1.0398151808	 2.3243887126	 0.0201008356	-0.039764
C	-0.8252590477	 2.9527290269	 1.407441253	-0.254977
C	 0.7546883745	 2.9638341966	 1.4052398629	-0.159408
C	 1.373297315	 2.2495072917	 2.513139639	 0.267189
N	 1.8672378887	 1.6758699524	 3.3865514271	-0.313159
C	 0.9753644842	 2.3016373068	 0.0127113575	-0.055501
O	-0.0175883308	 2.9931630136	-0.7946203793	-0.284455
H	-2.0326158178	 2.30202095	-0.4223973011	 0.120378
H	-1.2301892555	 3.9640554637	 1.460320896	 0.136715
H	-1.245042006	 2.3539749905	 2.2182612452	 0.146781
H	 1.1381499919	 3.9867701801	 1.3825354065	 0.145391
H	 1.9771505236	 2.264881969	-0.407371175	 0.128083
