20
gdb 115532	2.43909	1.14227	1.0003	3.411	80.01	-0.2881	0.0177	0.3058	1309.8819	0.169733	-403.156461	-403.146774	-403.14583	-403.191017	35.791	
C	 0.0391853417	 1.5585448362	-0.1343514059	-0.388285
C	 0.0492198557	 0.0412486343	 0.0819677991	-0.198574
C	-1.3489010382	-0.5567889079	 0.0267351019	 0.019914
C	-2.1436338171	-0.590944227	-1.310936388	-0.244142
C	-2.6757889004	-1.9943712517	-0.920300207	-0.269741
C	-1.5026280572	-2.1127218008	 0.1018975858	 0.233576
O	-0.3493801253	-2.7189933414	-0.4486862569	-0.458531
C	-1.8189787944	-2.6938606361	 1.4131894333	 0.225223
N	-2.0828157725	-3.1626256504	 2.4368831472	-0.340321
H	 1.0535796606	 1.9662386533	-0.0948206549	 0.118074
H	-0.3853659451	 1.8202489524	-1.109671409	 0.118687
H	-0.5549054492	 2.0671506019	 0.6330085215	 0.116432
H	 0.6772001685	-0.4432613211	-0.6720428694	 0.116218
H	 0.5002248264	-0.190918747	 1.0547841775	 0.108032
H	-1.977229242	-0.1182144051	 0.8095286149	 0.092411
H	-2.8843179104	 0.1931638239	-1.4734558915	 0.107898
H	-1.4750077002	-0.6349850479	-2.1741770987	 0.11728
H	-3.6462921749	-1.9531983382	-0.4208563955	 0.124331
H	-2.696048491	-2.7717197551	-1.687558094	 0.108725
H	-0.522624525	-3.6615313024	-0.5532025802	 0.292793
