14
gdb 13066	4.45864	1.12497	0.96424	4.0306	66.81	-0.2539	0.0048	0.2587	1189.2123	0.106057	-382.539292	-382.531158	-382.530214	-382.573549	27.343	
C	 0.0120364081	 1.5263265418	-0.0880212532	-0.498168
C	 0.0534102646	 0.0735438219	-0.0194451299	 0.073449
C	 0.0863073004	-1.1288274562	 0.0300462957	 0.087314
C	 0.1029272124	-2.5719935403	 0.0987024171	-0.369177
C	 0.0444320908	-3.2666997627	 1.4828089958	-0.082618
O	-1.18833947	-3.9522695555	 1.1007886928	-0.2332
C	-1.2384757669	-3.324351302	-0.1152550771	 0.459122
O	-2.0694989635	-3.415333923	-0.9546668083	-0.310282
H	 0.7201122576	 1.9088805269	-0.8309113518	 0.153967
H	-0.9869598153	 1.8791893995	-0.3657846354	 0.158021
H	 0.2671084939	 1.975458871	 0.8779604337	 0.152353
H	 0.8772092256	-2.9973208917	-0.5488670229	 0.14116
H	 0.8376658855	-3.9838863355	 1.699668469	 0.130307
H	-0.1276793032	-2.5989191742	 2.3276065945	 0.137753
