16
gdb 14955	4.59302	1.46575	1.19726	3.8651	61.38	-0.2586	-0.0343	0.2243	983.615	0.130636	-420.880208	-420.872836	-420.871892	-420.91251	26.722	
O	-0.6076070963	 0.7076690279	 0.6789807214	-0.235926
C	 0.1584385303	 0.908580423	-0.2219896604	 0.164923
C	 1.4071123181	 1.7818676953	-0.0964081668	 0.11883
O	 2.5023004107	 0.9535810736	-0.3854265955	-0.257917
C	 3.729085144	 1.6814658355	-0.361399065	-0.077001
C	 3.6658419086	 2.8571826131	-1.3389432491	-0.208847
C	 2.4049705449	 3.6730448453	-1.0448802725	-0.077003
O	 1.2600303839	 2.8220615093	-1.0266496527	-0.25791
H	 0.0295133222	 0.4755903499	-1.2359752182	 0.098489
H	 1.4858981663	 2.1861627101	 0.9290967217	 0.073831
H	 3.9224863014	 2.0445616614	 0.6614438782	 0.097574
H	 4.5142022467	 0.9689538213	-0.6245518441	 0.119511
H	 4.5596632678	 3.4835662195	-1.2453433919	 0.104738
H	 3.6202616341	 2.475136348	-2.3638721482	 0.119624
H	 2.4990503776	 4.1855482263	-0.0733152353	 0.097574
H	 2.2146699797	 4.4276123905	-1.8115252917	 0.11951
