17
gdb 85141	2.20035	1.72263	1.18011	4.5535	68.03	-0.2519	-0.0091	0.2428	1077.6536	0.135249	-458.971394	-458.963071	-458.962127	-459.004748	30.248	
C	-0.1956349372	 1.5890709871	-0.1641976262	-0.416108
C	 0.1438695696	 0.1178696968	-0.1221557359	 0.100109
O	 1.4669692372	-0.1619844554	-0.7125819983	-0.271013
C	 1.905774453	-0.8142513667	 0.4105257688	 0.419276
O	 2.9484489561	-1.3559648809	 0.5879114249	-0.331209
C	 0.6111883575	-0.5299277113	 1.2010199753	 0.215096
C	 0.6678444929	 0.1624939352	 2.5760041089	-0.354858
C	-0.0305196895	-1.1178268784	 3.0768105736	-0.07438
O	-0.1218379888	-1.6321111193	 1.7242384153	-0.303444
H	 0.5631929184	 2.1844196004	 0.3522200734	 0.130497
H	-0.2583158467	 1.9369968059	-1.1989765996	 0.142571
H	-1.1653305867	 1.7660087989	 0.3124797867	 0.130554
H	-0.6095219672	-0.4985107145	-0.6209841454	 0.111688
H	 1.6701679307	 0.34692111	 2.9631450942	 0.138621
H	 0.0715968899	 1.0732937558	 2.6470907084	 0.123905
H	 0.583243993	-1.7653470243	 3.7109893917	 0.124785
H	-1.0200449021	-0.9944580192	 3.5284396442	 0.11391
