21
gdb 98222	3.02887	1.08609	0.82038	1.3464	83.18	-0.2442	-0.0054	0.2388	1439.8022	0.181002	-420.451053	-420.440422	-420.439478	-420.488033	37.607	
C	-0.0549197883	 1.4294569926	-0.7354551475	-0.374794
C	-0.0839967279	 0.0660702118	-0.0463250736	-0.312054
C	-1.4026802209	-0.6676984995	-0.3019494513	 0.421181
O	-2.2454525949	-0.1704081502	-1.0231700992	-0.358299
N	-1.5748380536	-1.9017482427	 0.3275687534	-0.146447
C	-0.5789393469	-2.4110937677	 1.2781030401	-0.328884
C	-2.7675028299	-2.6645739638	 0.2377119391	 0.354285
C	-3.7703883113	-2.3560179746	-0.8489836553	-0.437135
N	-2.8993904672	-3.6099000605	 1.0868270777	-0.502688
H	 0.8986140697	 1.9287666205	-0.5410072675	 0.106379
H	-0.1823321689	 1.3254374293	-1.8149910318	 0.134058
H	-0.8634445542	 2.068657518	-0.3733960288	 0.132281
H	 0.7476998306	-0.5551494511	-0.4019293949	 0.130721
H	 0.0689074326	 0.1784878768	 1.0332977721	 0.127859
H	-0.8116879446	-2.1071449477	 2.3041923068	 0.135343
H	-0.5970819781	-3.4986819746	 1.2487758562	 0.161943
H	 0.4129062612	-2.0563066795	 1.0108611178	 0.125869
H	-4.5096751376	-3.16123027	-0.8686835794	 0.104592
H	-4.2726121664	-1.4042704117	-0.6719998593	 0.160952
H	-3.2970018692	-2.2716399827	-1.8285849746	 0.146239
H	-3.7663404543	-4.1139501427	 0.9122515201	 0.218598
