18
gdb 75015	3.35415	1.42651	1.24969	1.6617	72.3	-0.2481	0.0251	0.2732	1059.1387	0.149862	-439.119652	-439.112122	-439.111177	-439.151841	28.692	
C	-0.1651618571	 1.5126471249	-0.0529753518	-0.473764
C	-0.0196179194	 0.0307087211	-0.0944566504	 0.403825
N	-0.2734959778	-0.7287111015	-1.081436951	-0.307238
C	 0.0535345535	-2.0945948838	-0.6642035391	-0.034304
C	 1.3084646895	-2.6397305272	-1.3754054993	-0.090843
O	 2.4078223503	-2.2303517929	-0.5734099655	-0.242767
C	 1.9950407149	-2.3987776026	 0.772236627	-0.105725
C	 0.5314101619	-1.9488607627	 0.8164573218	 0.062867
O	 0.4185664666	-0.5343558122	 1.0681068181	-0.261297
H	 0.8018804736	 1.9805844089	 0.156177824	 0.148345
H	-0.5456087971	 1.8707664565	-1.0087058475	 0.152607
H	-0.8487606067	 1.8038075575	 0.7505387781	 0.144602
H	-0.8095040596	-2.7505077289	-0.8037172019	 0.085899
H	 1.2647836105	-3.7392476725	-1.4421983885	 0.086184
H	 1.434646357	-2.2210615788	-2.3749853725	 0.126811
H	 2.0642117542	-3.4564333684	 1.0784511173	 0.089377
H	 2.6417571952	-1.7981282024	 1.4153242676	 0.123003
H	-0.0604806394	-2.4742780449	 1.5681829335	 0.092418
