16
gdb 127689	3.19594	1.44692	1.00374	6.6726	80.93	-0.2026	-0.0449	0.1577	1132.9672	0.125448	-430.221971	-430.213684	-430.21274	-430.254795	31.135	
C	 0.0304904571	 1.4449325295	-0.0267396039	-0.34131
N	 0.0041576987	-0.003923666	 0.0589143907	-0.082106
N	-0.0609603609	-0.6429530739	-1.152281395	-0.060945
N	-0.0454808063	-1.8934541918	-1.2201336181	-0.258947
C	 0.0360135472	-2.7325902786	-0.055074109	 0.382489
N	 0.0479130919	-4.006885037	-0.1826644227	-0.54099
C	 0.0875823859	-2.0539859795	 1.2136135506	-0.286876
C	 0.0808804167	-0.700192582	 1.2505643816	 0.46969
N	 0.222923206	 0.0669383729	 2.398477417	-0.584728
H	 0.9081341661	 1.8489483989	 0.4860041391	 0.154037
H	 0.0745408401	 1.6947932236	-1.0862097275	 0.170802
H	-0.8746953699	 1.8941509296	 0.400669105	 0.133667
H	-0.0060029442	-4.234561014	-1.1774907504	 0.214682
H	 0.1337171574	-2.6374381137	 2.1241712882	 0.106604
H	 0.158846509	-0.4826572857	 3.2445143326	 0.264785
H	-0.3629591048	 0.8890764676	 2.4513544717	 0.259146
