12
gdb 130472	4.17825	1.71686	1.21685	3.9343	68.39	-0.2666	-0.0958	0.1707	899.501	0.081456	-431.679927	-431.674317	-431.673373	-431.709946	21.915	
O	-0.0166428926	 1.2653595145	 0.0092269196	-0.136385
C	 1.2162814065	 1.7591296259	-0.0000517133	-0.036236
C	 2.1145362142	 0.7224288163	-0.0144854425	 0.083143
C	 3.5140524192	 0.4996881345	-0.0293357561	-0.056163
N	 3.9882383118	-0.7173948723	-0.0405930007	-0.265403
C	 3.0784399517	-1.7569846584	-0.0373992694	 0.070103
N	 1.7737295558	-1.7089471742	-0.0244770261	-0.305069
C	 1.2740305247	-0.4420218046	-0.0126925712	 0.424312
N	-0.0132689553	-0.1288879232	 0.0015224126	-0.224289
H	 1.2987286053	 2.8352204937	 0.0050473981	 0.176553
H	 4.226775076	 1.3227583305	-0.0317392606	 0.135304
H	 3.5322162327	-2.7447026925	-0.0472999104	 0.13413
