17
gdb 94513	2.90777	1.23736	0.92649	5.5274	75.97	-0.2657	-0.048	0.2178	1243.1423	0.135608	-418.03446	-418.025341	-418.024397	-418.069214	31.798	
C	-0.3472949684	 1.414652048	 0.1619851878	-0.404002
C	 0.0453395094	-0.0383112093	-0.0526073568	 0.058351
C	 0.9449117729	-0.3833124197	-1.2799438921	-0.267146
C	 2.0082493603	-0.9511600379	-0.2963808677	-0.175895
N	 1.1354199895	-0.5324762507	 0.8099205984	-0.091802
C	 1.132651805	-0.7529757519	 2.1366401437	 0.307062
O	 0.2325578836	-0.4629483227	 2.901201931	-0.35666
C	 2.3783704911	-1.3976755193	 2.6128093825	 0.226085
N	 3.3389545338	-1.9070850651	 3.0042753517	-0.328458
H	 0.5241680795	 2.0719352663	 0.079950762	 0.120389
H	-1.080826273	 1.7161162813	-0.5928295869	 0.12508
H	-0.7910547318	 1.5456941458	 1.1516235668	 0.157387
H	-0.838009705	-0.6817623449	 0.0334361442	 0.105843
H	 0.5258585062	-1.1104488803	-1.9748436938	 0.125237
H	 1.2790932856	 0.4944973598	-1.8347195157	 0.123391
H	 2.1593106052	-2.0338096913	-0.3452665675	 0.137383
H	 2.9834015461	-0.4563327081	-0.3029150475	 0.137755
