14
gdb 21167	3.35857	1.88672	1.29028	3.5378	60.44	-0.2087	0.0049	0.2136	910.1918	0.108635	-412.022649	-412.014984	-412.01404	-412.055506	27.141	
C	 0.2860466614	 1.1968071221	 0.4104300683	-0.331499
N	-0.4357719199	 0.2554908925	-0.4588447053	-0.400128
C	 0.3489496794	-0.6093289817	-1.2230080996	 0.258701
C	 0.6636636753	-1.9509336794	-1.1368085076	 0.307684
O	 0.2628858048	-2.8131458499	-0.1758097287	-0.443561
N	 1.4342455794	-2.3110700471	-2.1847474037	-0.276368
N	 1.6454881475	-1.2588882561	-2.94057245	-0.135299
N	 0.983386568	-0.2405138537	-2.3727989325	-0.199426
H	 0.9381449995	 0.7041275718	 1.1458752414	 0.123653
H	 0.9036435348	 1.8603708317	-0.2012946543	 0.128755
H	-0.4434828041	 1.814902585	 0.9397423567	 0.130293
H	-1.1039323146	-0.2836507636	 0.0782427266	 0.249249
H	 0.6054545173	-3.6814432869	-0.4215189001	 0.307159
H	 0.985645111	 0.6655761752	-2.813620111	 0.280788
