18
gdb 72050	2.4263	1.70025	1.29847	2.1122	84.88	-0.2278	0.0203	0.2481	1046.9702	0.147192	-364.709672	-364.701645	-364.700701	-364.74186	31.698	
C	-0.1212646063	 1.4502362739	 0.0000770771	-0.503995
C	 0.0537074338	-0.0373444078	 0.0024120618	 0.255836
C	 0.9347355413	-0.9075472735	-0.8802108467	-0.2256
N	 0.1045154598	-2.1187988807	-0.5083894492	-0.208443
C	 0.4206831711	-2.2476302083	 0.968682591	-0.184029
C	-0.2729393559	-0.921281765	 1.2146561144	-0.181968
C	-1.0164216298	-1.1131988938	-0.0962919501	 0.311825
C	-2.3706337867	-1.1236155334	-0.4744848516	 0.013456
C	-3.5296473447	-1.1218283323	-0.8035549075	-0.370843
H	 0.7480250056	 1.951635883	 0.4407012061	 0.125415
H	-0.2483123704	 1.8297644381	-1.019420001	 0.128651
H	-1.0041867066	 1.7449383394	 0.5763039388	 0.130174
H	 0.8018872217	-0.6890379174	-1.9433996849	 0.112759
H	 2.0027334766	-1.0042160866	-0.6520171226	 0.096256
H	-0.1284276693	-3.0960941133	 1.3840771736	 0.117238
H	 1.4882567643	-2.349118326	 1.1935574419	 0.099403
H	-0.6701357983	-0.4987181724	 2.1293883859	 0.101929
H	-4.5505452963	-1.126775054	-1.094534427	 0.181936
