16
gdb 30561	6.82944	0.78664	0.70848	1.8213	77.17	-0.214	0.0103	0.2243	1553.5923	0.124917	-434.098404	-434.089937	-434.088993	-434.132667	30.059	
C	 0.0613586256	 1.3689575387	-0.0331975843	-0.317915
N	 0.0331594583	-0.0751554345	-0.158786376	-0.202947
C	-1.0808838948	-0.6364817156	-0.0393696578	 0.10976
O	-1.1369034207	-2.0032308717	-0.1537738655	-0.245725
C	-2.3465492237	-2.5918890129	-0.0225245006	 0.501159
N	-3.5064814543	-2.0406706835	 0.204021221	-0.352777
C	-4.3921582157	-3.1064779199	 0.2427623496	-0.086835
C	-3.7422333887	-4.2875806421	 0.0370909425	-0.108041
N	-2.4082620639	-3.9420483335	-0.1349114638	-0.336308
H	 0.7372581397	 1.6480074282	 0.7825332109	 0.13254
H	 0.4727808381	 1.8038340497	-0.950725072	 0.132532
H	-0.9231757675	 1.8230028054	 0.1577036634	 0.106661
H	-2.0530594147	-0.1751075252	 0.1503954203	 0.14347
H	-5.4443227024	-2.9457755801	 0.4176989241	 0.114516
H	-4.0736197354	-5.3107904999	-0.0047916997	 0.134329
H	-1.62894702	-4.553540293	-0.3096027122	 0.27558
