23
gdb 103345	2.78444	1.39652	1.12072	1.1177	86.23	-0.2455	0.0934	0.3389	1207.5992	0.204773	-388.222855	-388.213316	-388.212372	-388.256894	36.593	
C	-0.1037878504	 1.1854670652	 0.0532585982	-0.252689
O	-0.427188514	-0.1766911202	-0.1166240595	-0.2915
C	 0.235386229	-0.8163733861	-1.202101592	 0.496002
C	-0.3608123091	-0.2783686717	-2.5105486392	-0.4963
C	 1.779467028	-1.0760229897	-0.9865503024	-0.143786
C	 1.3600137614	-2.0078258136	 0.1942480808	-0.229117
C	 0.386241212	-2.3498995898	-0.9765381749	-0.139229
C	 1.6679879906	-2.3469966812	-1.8876154522	 0.05888
C	 1.712179936	-2.3204342815	-3.4170205857	-0.454987
H	 0.9730599108	 1.3348059181	 0.2215045399	 0.105439
H	-0.4068891734	 1.8013957495	-0.8060216626	 0.104499
H	-0.6467971779	 1.5344858589	 0.9353739837	 0.124244
H	 0.2241810236	 0.5418473035	-2.9394276324	 0.11728
H	-0.4662181886	-1.0484547744	-3.2727718934	 0.129776
H	-1.3629491417	 0.1009764107	-2.2926427692	 0.125042
H	 2.5864738926	-0.3396022483	-0.9957187851	 0.062084
H	 2.0795717793	-2.7860457704	 0.4584165732	 0.083736
H	 0.9213587299	-1.53718788	 1.0688840615	 0.111697
H	-0.4205659425	-3.0862535932	-0.9731126005	 0.065213
H	 2.3570268647	-3.1285167331	-1.5519529063	 0.070342
H	 1.4992664728	-1.3467119057	-3.8571515888	 0.123395
H	 2.7154131	-2.6067014811	-3.7500999818	 0.112025
H	 1.0138772469	-3.0458027258	-3.8504733312	 0.117955
