20
gdb 79529	3.05458	1.73221	1.64257	1.6397	76.1	-0.2078	0.0773	0.2851	933.3729	0.174917	-403.130691	-403.12401	-403.123066	-403.161333	28.486	
C	-0.1382324053	 1.5569975074	 0.050190303	-0.428398
C	 0.0427192912	 0.0433158323	 0.0199920216	 0.046564
C	 0.9091906571	-0.5295326277	-1.1087786778	-0.082495
C	 2.3865861323	-0.3645201477	-0.6365081316	 0.094359
C	 2.199596275	-0.0580044205	 0.8670987829	-0.196902
N	 0.8149166136	-0.5287715153	 1.1676880181	-0.121256
C	 0.7920136147	-1.9753294745	 0.800875992	-0.192094
C	 1.2014656615	-1.9991691863	-0.6931897751	 0.087247
O	 2.6326076458	-1.7866121475	-0.7905139208	-0.303107
H	 0.7964710744	 2.1022967732	-0.1069696422	 0.118977
H	-0.8294960249	 1.8622498639	-0.7415960925	 0.118115
H	-0.558980488	 1.8694401414	 1.0102986937	 0.130557
H	-0.9493853788	-0.4230619793	 0.0265758464	 0.075796
H	 0.6735371056	-0.3228261094	-2.1502183627	 0.073935
H	 3.1112227986	 0.2477130729	-1.1772897918	 0.074846
H	 2.9305361788	-0.5965114864	 1.4738825115	 0.113841
H	 2.2789318109	 1.0085740445	 1.0919010754	 0.102994
H	 1.4867452311	-2.5509512676	 1.416498589	 0.112149
H	-0.222014509	-2.3605478876	 0.9531288053	 0.100209
H	 0.8615392956	-2.8553765958	-1.2798744444	 0.074663
