17
gdb 121723	2.12036	1.42537	0.93036	4.2139	69.02	-0.2514	-0.0234	0.228	1241.7207	0.135478	-492.305851	-492.296554	-492.295609	-492.341057	32.862	
O	-0.4435949111	 1.3748112255	-0.5751568776	-0.433045
C	-0.1213197339	 0.082244446	-0.1257452059	-0.062313
C	-1.3686478273	-0.7564904306	 0.1203814905	-0.08204
O	-2.0311918536	-0.8375168303	-1.1580566201	-0.22424
C	-3.3532960586	-0.7150398136	-1.2055022655	 0.483308
N	-4.1297430187	-0.9756905652	-0.2387198846	-0.544708
N	-3.7480730143	-0.2982685723	-2.5004828562	-0.366213
C	-3.0829762739	 0.5726352531	-3.3354867094	 0.162276
O	-2.0352528643	 1.135328063	-3.1226767778	-0.281489
H	-0.8959714356	 1.2867244007	-1.4287738371	 0.310643
H	 0.5370225182	-0.4496479173	-0.8314240537	 0.093386
H	 0.4240559959	 0.1863836156	 0.8194035417	 0.107044
H	-1.1298547609	-1.7693855137	 0.461861668	 0.111138
H	-2.0406858782	-0.2831434762	 0.8388222265	 0.141582
H	-5.0988884901	-0.7588118202	-0.4563352329	 0.221331
H	-4.6808070143	-0.5602831256	-2.7809904551	 0.263827
H	-3.6513410894	 0.7188707511	-4.2732509208	 0.099515
