20
gdb 97067	3.27273	1.14432	0.93626	2.9866	78.37	-0.2421	0.0305	0.2725	1298.9645	0.170184	-440.300167	-440.290366	-440.289422	-440.33533	35.143	
C	 0.1137980985	 1.3900540782	 0.2607485789	-0.334451
N	 0.0701921967	-0.0482732203	 0.0517442954	-0.326934
C	-1.0341009153	-0.6499281313	 0.0433830459	 0.437475
O	-2.2592845155	-0.0516290635	 0.2478424145	-0.250059
C	-3.3046073839	-1.014107501	 0.0956035667	-0.12172
C	-2.6353656067	-2.381760068	 0.3315573823	 0.09246
O	-3.2710829776	-3.4538886496	-0.3320623731	-0.426351
C	-1.2156150279	-2.1360519145	-0.2094951656	-0.129011
C	-1.0523131096	-2.4702305341	-1.7015437633	-0.390056
H	 0.5778412943	 1.6002970104	 1.232101389	 0.12285
H	 0.7607555582	 1.8391463677	-0.5006813656	 0.121679
H	-0.8645760406	 1.8823403688	 0.230369033	 0.121244
H	-4.0942089864	-0.7730432986	 0.8129162432	 0.10877
H	-3.7195961339	-0.9728343895	-0.9196722646	 0.11562
H	-2.5785838008	-2.5713727643	 1.4132309044	 0.082388
H	-4.083075588	-3.6656625854	 0.1381144146	 0.289956
H	-0.4665047365	-2.6902062443	 0.3595102299	 0.102943
H	-1.7618876518	-1.915820821	-2.3236482561	 0.118119
H	-0.0418575075	-2.2031118089	-2.0194246551	 0.133807
H	-1.2171251359	-3.5357346906	-1.8738996343	 0.131271
