17
gdb 83326	2.259	1.72485	1.47496	2.013	68.04	-0.2286	-0.0266	0.202	979.7177	0.135035	-458.943977	-458.935702	-458.934758	-458.976475	31.372	
C	-0.11497551	 1.570225887	 0.0180763264	-0.441448
C	 0.0460089204	 0.0592162816	 0.0727461071	-0.051475
C	 1.1837104964	-0.6241120704	-0.7464596298	-0.05249
O	 2.3737086977	 0.0399470526	-0.2869850604	-0.272884
C	 2.2042184481	 0.0589052867	 1.1522176821	-0.118267
C	 0.8301213446	-0.6148286309	 1.2891234783	 0.227695
O	 0.3521265605	-0.7589599136	 2.5718034338	-0.475053
C	 1.0119768744	-1.7652052667	 0.2811643143	 0.375767
O	 0.8240739748	-2.9455679749	 0.3037318987	-0.326481
H	 0.8519581639	 2.0726518303	-0.0513293865	 0.142902
H	-0.7042979294	 1.8603035192	-0.8571105727	 0.12503
H	-0.6359830163	 1.9344505471	 0.9094988765	 0.131363
H	-0.9075915927	-0.4567639745	-0.0819755813	 0.093695
H	 1.1880452943	-0.7420859189	-1.8255921945	 0.105462
H	 2.9971079915	-0.5166995112	 1.6423275619	 0.12118
H	 2.2236320897	 1.0878546309	 1.5259575469	 0.115393
H	-0.1855999279	-1.5593759644	 2.6047204193	 0.299611
