18
gdb 106251	2.51712	1.36122	1.10357	3.015	74.41	-0.2504	0.0146	0.265	1171.6152	0.146345	-439.058297	-439.049512	-439.048568	-439.091845	33.084	
C	-0.0665603263	 1.5046171599	-0.1571490915	-0.381783
C	-0.0553986677	 0.005577823	 0.174131731	-0.294769
C	-1.3960115162	-0.6293070329	-0.0045963303	 0.390484
O	-2.4695924886	-0.1858570886	 0.8920769675	-0.327023
C	-2.8553641756	-1.522619594	 1.0954945138	 0.443941
N	-3.6782484289	-2.0001844377	 1.9085118526	-0.553422
C	-1.9206973943	-2.0710046219	 0.0817288516	-0.332478
C	-2.0541766808	-1.2126918442	-1.197878605	 0.087589
O	-3.2486337564	-0.7555516711	-1.7236275636	-0.42483
H	 0.9234770311	 1.9414846354	-0.0001578266	 0.120108
H	-0.3535333263	 1.676509893	-1.1991895048	 0.126969
H	-0.7778542974	 2.0358520461	 0.4815399567	 0.137972
H	 0.6570641719	-0.5214808345	-0.4712193837	 0.113123
H	 0.2762110457	-0.150232575	 1.2077197007	 0.118007
H	-4.1112302438	-1.2684527686	 2.4741090276	 0.231023
H	-1.4202265527	-3.0281625696	 0.1112523084	 0.121211
H	-1.3841727435	-1.5489262189	-1.9847183511	 0.123564
H	-3.6559726602	-0.1903099503	-1.0542327933	 0.300316
