17
gdb 31992	3.2603	1.01657	0.83814	2.366	71.72	-0.2377	-0.003	0.2348	1374.6039	0.136859	-455.160851	-455.151795	-455.150851	-455.195808	31.823	
N	 0.6186042514	 1.2481195937	-0.2769551272	-0.509405
C	 0.0084980651	-0.0102972543	 0.1707721322	-0.270235
C	 0.6769868563	-0.5128199389	 1.4057243215	 0.418799
N	 0.1531524946	-0.8207521709	 2.5480195356	-0.303995
C	 1.2250907595	-1.260062164	 3.3160344531	-0.199165
C	 2.3670870431	-1.1861802788	 2.5930935491	 0.312761
C	 3.8024774462	-1.4976084508	 2.8255613554	-0.188027
O	 4.275290466	-2.598957542	 2.0588364641	-0.407775
O	 2.0235858023	-0.7058737972	 1.3488056524	-0.227121
H	 1.5844146756	 1.0785878494	-0.541508825	 0.234691
H	 0.144705716	 1.5692271326	-1.115595851	 0.233596
H	-1.03726086	 0.1688521736	 0.4315075488	 0.145261
H	 0.023721527	-0.8130090815	-0.5881695403	 0.104472
H	 1.0966091051	-1.5913814554	 4.3344119424	 0.127142
H	 4.4138134244	-0.6002921836	 2.6416109119	 0.107901
H	 3.9321762715	-1.7741163697	 3.8752191904	 0.132379
H	 4.147133256	-2.3790890122	 1.1302433168	 0.288722
