19
gdb 11356	4.29441	1.31353	1.18722	1.1408	73.07	-0.2392	0.0296	0.2688	1111.1835	0.165779	-365.097887	-365.089313	-365.088369	-365.131726	30.647	
C	 0.3216373107	 0.9662220741	 0.686462059	-0.379231
C	-0.3703606706	 0.352693798	-0.541363116	-0.270593
C	 0.5969640487	-0.2471016334	-1.510822524	 0.406166
N	 0.7737801434	 0.1022381183	-2.7192225192	-0.317334
C	 1.8245284251	-0.7699668395	-3.2737409795	 0.030135
C	 2.9689078851	 0.0447512652	-3.8743730281	-0.386427
C	 2.2462810025	-1.6596005788	-2.0705777762	-0.121365
O	 1.3501537202	-1.2708020903	-1.009917058	-0.2589
H	 0.9064035292	 0.2134166897	 1.2208143488	 0.135246
H	 0.9965162097	 1.7751475619	 0.3904869142	 0.125851
H	-0.4204191208	 1.3791333685	 1.375354726	 0.117813
H	-1.0608816031	-0.4343398109	-0.2144761343	 0.121001
H	-0.9513825568	 1.1031882355	-1.081018981	 0.130105
H	 1.3765074892	-1.3809995292	-4.0677245199	 0.085322
H	 3.4385474749	 0.6711952512	-3.1086749569	 0.117058
H	 3.7350842509	-0.6124650458	-4.2998306419	 0.110471
H	 2.5953680743	 0.6987214518	-4.6664990602	 0.130341
H	 2.1264904439	-2.7315670351	-2.2479636559	 0.11505
H	 3.2741702934	-1.4675577513	-1.7424741469	 0.109289
