14
gdb 7933	3.54808	1.93917	1.3378	1.6792	60.73	-0.2635	-0.0096	0.2538	879.0754	0.108326	-415.927298	-415.920163	-415.919218	-415.958828	26.276	
C	-0.0339269207	 1.5540094631	-0.0266658668	-0.399156
C	 0.038443601	 0.0353099694	-0.0077218338	-0.026799
O	 0.8195013773	-0.4692411352	-1.1099067925	-0.250967
C	 1.8460239178	-1.2402464523	-0.6533274419	 0.476869
N	 2.7182641022	-1.8426159708	-1.3336323514	-0.572148
N	 1.7825066604	-1.2571618299	 0.7362699697	-0.370987
C	 0.7399819752	-0.5156501892	 1.2373064355	 0.427188
O	 0.4460194138	-0.3314632033	 2.3910290733	-0.360884
H	 0.9685461202	 1.9897490448	 0.0054821116	 0.135928
H	-0.5400184105	 1.9016011113	-0.9302244014	 0.13706
H	-0.5919061617	 1.8942219569	 0.8495874145	 0.151971
H	-0.9653055368	-0.4006698968	-0.075075752	 0.130868
H	 2.5673762306	-1.686999659	-2.3280776463	 0.234482
H	 2.4555778012	-1.7564796189	 1.2955572614	 0.286575
