18
gdb 64724	3.97016	1.09159	1.0396	3.3627	75.56	-0.2688	0.0229	0.2917	1188.4462	0.147252	-401.935307	-401.926895	-401.925951	-401.968377	32.263	
O	-0.1135134774	 1.4398926131	-0.0877409842	-0.479474
C	-0.0324658079	 0.0373367125	 0.0042514357	 0.402371
C	 0.8863344526	-0.5262464301	-1.1037394778	-0.390269
C	 2.241194328	 0.0066787097	-0.9830634761	 0.243713
N	 3.2908377932	 0.4706794908	-0.84305183	-0.308182
C	 0.2592199171	-0.5871479647	 1.4190256202	-0.304593
C	-1.1001028787	-1.2917664555	 1.3499488477	-0.036567
C	-2.1887469786	-0.2694100784	 1.2115178191	-0.290911
C	-1.3982708146	-0.646293319	-0.0088672731	-0.074823
H	 0.7665038768	 1.8082624113	 0.0597390733	 0.293014
H	 0.9179696782	-1.6193986596	-1.0586166895	 0.152931
H	 0.4797578449	-0.241882721	-2.0805360689	 0.157308
H	 1.1210403154	-1.2584497616	 1.4197926077	 0.111133
H	 0.3746257731	 0.1408179041	 2.2272984125	 0.106315
H	-1.2952840159	-2.3088150188	 1.664511232	 0.091212
H	-3.2024816107	-0.6558985211	 1.2289159628	 0.115976
H	-2.0738686049	 0.7193531354	 1.6455647473	 0.125564
H	-1.8636701106	-1.069412147	-0.8916870988	 0.085283
