18
gdb 53414	4.07404	0.93401	0.84032	2.6198	81.43	-0.2351	0.0467	0.2818	1424.1556	0.14763	-401.893479	-401.8847	-401.883755	-401.92891	31.459	
C	-0.0258910472	 1.4884888922	 0.0512771234	-0.500555
C	-0.0498724018	 0.0338552052	 0.0209776226	 0.110133
C	-0.0658616886	-1.1691889157	 0.0155276889	 0.057636
C	-0.1029880445	-2.6247016124	-0.0447620295	-0.047238
O	 0.7253797185	-3.1820510815	 0.9851171182	-0.265298
C	 0.2100197372	-4.4481570143	 1.3838930363	-0.074046
C	-1.2701594358	-4.4117958526	 1.0658584996	-0.058861
N	-1.9171342345	-3.1844881651	 1.5735264028	-0.320391
C	-1.4763387661	-3.2544146819	 0.1707526095	-0.070191
H	 0.661581463	 1.8516386413	 0.8231103674	 0.15356
H	 0.302626892	 1.9044954861	-0.9075756312	 0.145746
H	-1.0172360453	 1.899477081	 0.2718497579	 0.147679
H	 0.2590892333	-2.953717329	-1.0349790471	 0.08988
H	 0.6869481841	-5.2715549871	 0.8274105054	 0.089363
H	 0.4302334166	-4.568280713	 2.4494208183	 0.116255
H	-1.8339234555	-5.3337592949	 0.9722463739	 0.094482
H	-2.9237981077	-3.3265750065	 1.6099916702	 0.233147
H	-2.1971582077	-3.2449381917	-0.6389535764	 0.098699
