16
gdb 131605	4.18938	0.94344	0.9145	1.9284	67.5	-0.2611	-0.0261	0.235	1288.1805	0.124379	-475.005463	-474.997115	-474.996171	-475.039297	30.345	
O	 0.1586104393	 1.3761850813	-0.1911632262	-0.418313
C	 0.1226049532	-0.0174368643	-0.0019410529	-0.068242
C	-1.3365576779	-0.5000796192	 0.1002670344	-0.0247
O	-2.0633498769	-0.0289704866	-1.0358138824	-0.437901
C	-1.438273847	-1.9834421833	 0.2506899482	 0.442412
C	-1.7626166849	-2.8221684901	 1.2700248072	-0.356008
C	-1.6228440868	-4.1137090493	 0.6934999149	 0.041093
N	-1.2525313193	-4.0637880236	-0.5612665364	-0.135053
O	-1.1251939515	-2.7040835675	-0.8457579494	-0.230857
H	-0.5053606952	 1.5632163955	-0.8679107331	 0.288896
H	 0.6185508841	-0.5622555933	-0.8229801307	 0.095974
H	 0.6619645958	-0.2442037577	 0.9235203784	 0.116584
H	-1.8015301986	-0.0228013604	 0.9678566168	 0.115274
H	-1.8584317539	-0.6127932463	-1.7765451467	 0.300458
H	-2.0629679098	-2.5632434716	 2.2712715145	 0.129592
H	-1.7860440708	-5.0793753135	 1.1510196533	 0.14079
