13
gdb 42547	4.32368	1.27409	1.16545	4.6854	67.55	-0.2777	-0.0338	0.2439	1007.6917	0.089742	-415.570189	-415.563418	-415.562474	-415.601538	25.731	
O	-0.0644963781	 0.0620886387	 0.0606366487	-0.289931
C	-0.1019713675	 1.2462187392	 0.057608073	 0.452145
C	-1.1514612426	 2.3415943856	-0.0919600117	-0.222035
C	-0.9459493404	 3.1236735276	 1.2394227814	-0.293261
C	 0.4632181472	 3.4298288659	 0.7030207317	 0.230503
C	 1.4090645541	 4.3631932927	 1.2298351731	 0.209653
N	 2.1343662362	 5.1446546906	 1.6759755663	-0.330529
C	 0.0613732862	 3.152887251	-0.6910502397	-0.089952
N	 1.0200855231	 2.2057062961	-0.0063071708	-0.220537
H	-2.1355209356	 2.1656353081	-0.5145191874	 0.121749
H	-1.5425015787	 4.03669186	 1.2772541734	 0.143312
H	-1.037732644	 2.5653205202	 2.1747416033	 0.138877
H	 0.2824138502	 3.6118449743	-1.6427993912	 0.150006
