14
gdb 112150	2.62862	1.49494	1.2512	3.3831	60.12	-0.2863	-0.062	0.2243	1014.2634	0.101148	-510.998405	-510.990583	-510.989639	-511.031486	28.231	
O	-0.1016153844	 1.4658931784	 0.0263292644	-0.409797
C	-0.0395358962	 0.0648368846	-0.0859736659	-0.102005
C	-1.4352186242	-0.552541537	-0.0278497602	 0.205964
O	-2.0908933113	-0.119502522	 1.1636530969	-0.234385
C	-3.1030239636	 0.7195343832	 0.8274421232	 0.267794
N	-3.7982914222	 1.336112004	 1.6730703345	-0.500386
C	-3.196001345	 0.7232674672	-0.679146869	 0.37297
O	-3.9741461684	 1.3091301392	-1.3666335914	-0.322604
O	-2.2225470155	-0.1067435605	-1.1270022922	-0.220808
H	-0.3051593576	 1.6827208419	 0.9427293618	 0.306399
H	 0.4040039071	-0.1695547354	-1.0581671508	 0.140473
H	 0.5767360379	-0.3998853673	 0.6965410351	 0.117029
H	-1.4070787546	-1.6468647974	-0.0401033422	 0.123239
H	-4.499411902	 1.8885201212	 1.1759146958	 0.256117
