14
gdb 133267	2.96631	1.35127	0.93369	2.4928	71.64	-0.2316	-0.048	0.1836	1160.8035	0.101138	-474.158374	-474.150423	-474.149479	-474.191677	28.262	
C	-0.0044399471	 1.4246495762	 0.1135263251	-0.335115
N	 0.1300699056	-0.0171033207	 0.0589137734	-0.313327
C	 0.6257747307	-0.5673089632	-0.9788155905	 0.350619
C	 0.7493021775	-2.033411424	-1.0041422641	 0.00368
N	 1.2289491631	-2.716972259	-1.9815748088	-0.18127
N	 1.6420449265	-1.9725635061	-3.0574187121	-0.312186
C	 1.5407064464	-0.6229670571	-3.0625684067	 0.429903
F	 1.9911078342	-0.0891443255	-4.1869414132	-0.055684
N	 1.079395735	 0.1072269208	-2.1352356126	-0.41043
H	 0.547007058	 1.7978305732	 0.9852064071	 0.125857
H	 0.3461010716	 1.9474629455	-0.782549966	 0.132459
H	-1.0585845581	 1.6745024009	 0.2852966345	 0.125845
H	 0.4124702255	-2.5889215925	-0.1359575417	 0.149558
H	 2.0217543711	-2.4849251284	-3.8361420346	 0.290093
