15
gdb 9607	5.22643	1.21583	1.1197	2.9132	62.42	-0.2846	-0.0069	0.2777	1042.4034	0.116834	-399.786872	-399.778416	-399.777472	-399.819973	29.901	
C	-0.2104757591	 1.6233262839	 0.125185571	-0.465192
C	-0.1716820484	 0.1155764513	 0.1072582514	 0.353539
C	-1.3805701872	-0.5872470754	-0.4876121567	-0.115388
O	-1.5455055206	-0.2487717214	-1.8506698713	-0.40877
O	 1.0739867007	-0.4776099554	-0.3112268419	-0.272307
C	 0.6751422212	-0.6534687195	 1.049939555	-0.16511
C	 1.4787183474	 0.0092814692	 2.0549773681	 0.307932
N	 2.1055303599	 0.5230728737	 2.8789276461	-0.325541
H	 0.7425689228	 2.0393878204	 0.4553657234	 0.150875
H	-0.4350846114	 1.9882713278	-0.8802026048	 0.148463
H	-1.0000385836	 1.974588795	 0.7972689868	 0.135202
H	-1.2785226914	-1.6733252818	-0.3482367104	 0.098812
H	-2.2924621953	-0.2627193848	 0.0243255653	 0.123993
H	-0.7640520172	-0.5641902043	-2.3191710874	 0.297599
H	 0.3848502922	-1.6680203388	 1.3191507954	 0.135893
