21
gdb 107058	3.85078	1.09043	0.97303	1.2098	78.32	-0.229	0.066	0.295	1290.6144	0.182164	-424.216036	-424.206921	-424.205977	-424.249743	34.825	
C	-0.2544400557	 1.5010654262	-0.1506730417	-0.375217
C	 0.1677834665	 0.0379587883	 0.0307658788	-0.26123
C	 0.7879891925	-0.54834131	-1.2094259263	 0.468018
C	-0.032565228	-1.117009117	-2.3386848996	-0.351825
C	 0.8988801994	-2.0123024805	-1.5317886538	-0.135147
C	 2.2830356209	-2.2152623918	-2.1045537314	 0.081594
O	 2.2511733681	-3.0193457534	-3.2750694894	-0.428301
C	 2.7522541415	-0.7608871393	-2.3898509273	-0.134578
O	 1.9964060512	 0.1037499944	-1.5562024502	-0.299784
H	 0.6050942466	 2.1170172108	-0.4277477486	 0.135179
H	-1.0051434445	 1.5976081925	-0.9418587444	 0.115236
H	-0.6815439065	 1.9029965869	 0.7729711919	 0.106887
H	 0.8902452353	-0.0409749903	 0.8525256121	 0.101432
H	-0.6985883425	-0.5735547892	 0.3077260205	 0.096543
H	-1.096211611	-1.2408119393	-2.1653422501	 0.111339
H	 0.2285088083	-0.8903275346	-3.3660304145	 0.12404
H	 0.4821083866	-2.778839484	-0.8893084461	 0.08787
H	 2.9204962175	-2.6840354454	-1.3404979883	 0.071643
H	 3.1588877377	-3.2052342458	-3.5358983325	 0.283326
H	 3.8129549787	-0.5920456169	-2.1782844386	 0.101549
H	 2.5746461375	-0.5513976214	-3.4546282205	 0.101425
