16
gdb 55809	4.4279	1.04698	0.9693	3.7479	65.28	-0.2453	0.048	0.2933	1208.4116	0.123917	-474.988899	-474.980886	-474.979942	-475.02262	29.782	
N	-0.1656748247	 1.3093008758	 0.011090552	-0.565734
C	-0.0662609651	-0.0344609016	 0.2227510242	 0.495374
O	 0.7721107354	-0.5835068745	 0.8958925279	-0.391985
O	-1.0875420343	-0.6772926978	-0.4127034116	-0.279796
C	-1.0662135995	-2.0906635237	-0.2896136161	 0.17345
C	-1.5746240159	-2.781885335	 0.9991232976	 0.027756
C	-3.0106649384	-2.2848578814	 0.7017387858	-0.228998
C	-2.3861381929	-2.8212086671	-0.6097708291	-0.003062
O	-1.8383855603	-3.9684363962	 0.1488130113	-0.309228
H	 0.6288270538	 1.8642900031	 0.277942693	 0.271795
H	-0.7571696694	 1.6470582761	-0.7285763304	 0.266932
H	-0.1626096479	-2.5245709249	-0.7164547627	 0.111667
H	-1.0595009865	-2.9378974538	 1.9444382056	 0.110438
H	-3.8042285798	-2.9066769168	 1.1165642075	 0.111473
H	-3.2116675446	-1.2152403572	 0.7745561036	 0.111205
H	-2.8470632399	-3.0265182151	-1.5755818987	 0.098713
