20
gdb 58367	2.08444	1.16433	0.90639	3.4556	84.96	-0.2787	0.0198	0.2985	1368.4969	0.168264	-366.004756	-365.994286	-365.993342	-366.040399	37.947	
C	-1.5190883626	-0.4082411352	-0.0418026527	-0.400137
C	-0.0185211046	-0.1278653077	 0.1060129905	 0.023956
C	 0.5266125892	-0.7071304588	 1.4175502616	-0.400215
C	 0.751910352	-0.630834386	-1.1503440817	-0.178314
C	 2.2431022592	-0.1817150563	-1.1839347447	-0.356159
C	 2.3968104163	 1.2705004369	-1.1398679548	 0.26431
N	 2.5037929825	 2.4208844114	-1.1086273533	-0.313311
C	 0.6948931515	-2.082982795	-1.305161008	 0.330383
C	 0.6734013859	-3.278834015	-1.4276850218	-0.454096
H	-1.9236709354	 0.047603951	-0.9517139904	 0.114485
H	-1.7148945923	-1.4844584991	-0.0883485671	 0.129525
H	-2.0711842998	-0.0008301067	 0.8104289199	 0.117341
H	 0.1230231536	 0.9599385737	 0.124156881	 0.105575
H	 0.4522383538	-1.7993589539	 1.4256241119	 0.129575
H	 1.5729559997	-0.4362629336	 1.5897202031	 0.115071
H	-0.0490380456	-0.323743824	 2.2652407241	 0.120498
H	 0.2658845431	-0.177202889	-2.0241077293	 0.122856
H	 2.7902777489	-0.6245837744	-0.3465385229	 0.163334
H	 2.7119319978	-0.5560607699	-2.0991528517	 0.162925
H	 0.6401203769	-4.3341073384	-1.5443243238	 0.202399
