15
gdb 10494	3.41689	1.4742	1.20613	4.0261	60.96	-0.2796	0.0215	0.3012	990.6013	0.117792	-399.785742	-399.777664	-399.77672	-399.818677	28.884	
O	 0.7627739779	-1.5973378204	-0.2997433976	-0.411478
C	-0.139584094	-0.6835552658	-0.8752754888	-0.14278
C	-1.4638827715	-0.648730741	-0.1217103575	 0.371425
C	-2.4848462876	 0.3869969382	-0.5806841164	-0.413725
C	-1.9699938583	 1.7571830846	-0.5438267248	 0.272531
N	-1.5587821203	 2.836471453	-0.5201536945	-0.30471
C	-1.9368587145	-1.8503439379	 0.573731906	-0.227522
O	-1.3180087686	-0.7683536362	 1.2956128171	-0.272801
H	 0.8066904716	-1.3757576648	 0.6394142479	 0.296441
H	 0.2752926097	 0.3360739071	-0.9077730632	 0.124261
H	-0.3109444176	-1.0031316812	-1.9095929302	 0.120606
H	-2.8055177259	 0.16316995	-1.6054557732	 0.160536
H	-3.3702708555	 0.3284173312	 0.0593613235	 0.16508
H	-2.999746487	-1.9824086979	 0.7673060985	 0.120871
H	-1.3421571685	-2.7572068488	 0.5114228432	 0.141264
