18
gdb 67658	3.09003	1.90223	1.63968	0.4107	73.38	-0.2339	0.0611	0.295	892.9285	0.149811	-401.898659	-401.892045	-401.8911	-401.929276	27.484	
C	-0.0633272737	 1.4926728122	-0.0199712263	-0.509391
C	 0.0743577956	 0.0018988752	 0.0461857778	 0.330684
C	 0.7659294977	-0.8178153249	-0.9857777508	-0.087828
C	 1.4624927381	-2.1057727768	-0.5879310566	-0.240452
C	 0.5880157189	-2.5771936376	 0.5671732295	 0.082386
O	 0.8339954454	-1.7226379785	 1.7242865886	-0.311963
C	-0.2354430696	-0.866592098	 1.2909737143	 0.039591
C	-0.7975899715	-1.8921860335	 0.3104365619	-0.05636
N	-0.7107716102	-0.9431977731	-0.8689206883	-0.20124
H	 0.7669526348	 1.9815637506	 0.502942279	 0.127486
H	-0.0627103812	 1.8368029804	-1.0585472903	 0.130175
H	-0.9983793902	 1.8252573942	 0.4438798089	 0.124201
H	 1.0916592974	-0.2948758289	-1.8808642305	 0.092046
H	 1.4436206033	-2.8142666337	-1.4246360252	 0.107664
H	 2.4977266328	-1.9656413468	-0.2660842133	 0.119713
H	 0.6495827703	-3.6362220256	 0.8234439314	 0.082237
H	-0.7749622897	-0.3815655354	 2.1060941514	 0.083549
H	-1.7297345183	-2.4414269098	 0.4094720786	 0.087502
