21
gdb 126149	3.66751	0.91276	0.8847	1.9362	84.8	-0.2388	0.0279	0.2667	1443.6289	0.183772	-383.304997	-383.29563	-383.294686	-383.339949	34.669	
C	 0.0984636299	 1.5236941646	 0.0089998829	-0.390007
C	 0.0086739998	 0.0005989559	-0.1267512446	-0.16608
C	-1.4231455084	-0.5705621239	-0.0097829602	-0.069581
C	-2.3482888694	-0.0821773458	-1.1387484791	-0.395714
C	-1.3912482889	-2.0741505021	 0.05112853	 0.346287
N	-1.7581265617	-2.7114246547	 1.1629311158	-0.301303
N	-1.5994248402	-4.019967149	 0.8777711422	-0.184089
C	-1.1448499346	-4.2373504835	-0.3787374744	-0.0186
C	-0.9948006632	-2.9947927169	-0.9532485314	-0.284451
H	 1.1419299084	 1.8540929749	-0.008074165	 0.110398
H	-0.4212738572	 2.0421551932	-0.8025670447	 0.116385
H	-0.3407173274	 1.8618158287	 0.9545115308	 0.114892
H	 0.4414112472	-0.3108874995	-1.086952252	 0.090428
H	 0.6257146584	-0.4662115619	 0.6497958071	 0.102109
H	-1.8411301193	-0.2367147996	 0.9477931273	 0.086029
H	-2.4504374812	 1.0067156998	-1.129089014	 0.113254
H	-1.9594529725	-0.3729364635	-2.1213771442	 0.11005
H	-3.3479691786	-0.513836143	-1.0347093965	 0.11959
H	-1.8234253061	-4.7023054315	 1.581264654	 0.272449
H	-0.9692770538	-5.2327712514	-0.7556188676	 0.129121
H	-0.650324961	-2.7832017209	-1.9524960362	 0.098832
