20
gdb 22965	2.35397	0.97499	0.72525	1.6533	79.44	-0.2454	0.004	0.2494	1552.3511	0.169272	-440.227683	-440.217731	-440.216787	-440.263414	35.87	
O	 0.4216513504	 1.275205142	 0.2472486773	-0.420452
C	 0.1937041502	-0.1153355585	 0.0663306696	-0.069676
C	-1.2966161192	-0.4692840888	 0.073369992	-0.216354
C	-1.5629426727	-1.9673172961	-0.0524644023	-0.067978
C	-3.0500916921	-2.4622175827	-0.1040169683	-0.249603
C	-2.7217886518	-3.3311274922	-1.3585598632	-0.318058
C	-1.3767849175	-2.6369266107	-1.4054297762	 0.410328
N	-0.447879196	-2.5026060428	-2.2556078984	-0.236337
O	-0.7120727939	-3.2526279221	-3.4187261966	-0.393332
H	 0.1004886537	 1.7272769689	-0.5391753188	 0.280019
H	 0.6615067458	-0.4880947476	-0.8552994529	 0.115564
H	 0.6946656684	-0.6080359267	 0.9078390754	 0.105602
H	-1.7421736646	-0.0960552214	 1.0037797094	 0.105266
H	-1.7970342979	 0.0556531472	-0.7523855101	 0.084868
H	-1.0039914163	-2.50809847	 0.7230084914	 0.092557
H	-3.4086120029	-2.9961981086	 0.7773080898	 0.106141
H	-3.7436534858	-1.6483755735	-0.3294185077	 0.110486
H	-2.641660039	-4.4029876526	-1.1509344431	 0.126736
H	-3.3519477757	-3.2030634715	-2.242032771	 0.128615
H	 0.0566207469	-3.0566647421	-3.9649582261	 0.30561
