21
gdb 86933	3.24072	0.92389	0.79821	3.9304	82.6	-0.2222	0.028	0.2502	1493.383	0.181639	-420.414391	-420.404482	-420.403538	-420.449896	35.734	
C	 0.0169604671	 1.488162445	-0.0670338538	-0.407635
C	 0.0541738079	-0.0285782975	-0.0754191783	 0.060005
C	 0.8347934188	-0.7815233434	-1.1886228297	 0.018952
C	 1.3103197544	-1.725426602	-0.0565631524	-0.197127
N	 0.9464526944	-0.6766696593	 0.9096786637	-0.072412
C	 0.4049126516	-1.0708342901	 2.1898700403	-0.322072
N	 0.1082330566	-1.3337190595	-2.2999390233	-0.286007
C	 0.4135325583	-1.079698899	-3.6040856564	 0.152297
O	 1.3188621358	-0.3724117935	-3.9893063556	-0.318401
H	 1.0302944632	 1.8950912011	-0.1260893157	 0.127343
H	-0.5619110845	 1.8628747475	-0.9179970669	 0.122004
H	-0.4512447871	 1.8673539704	 0.8479352134	 0.116405
H	-0.9749390761	-0.4352126653	-0.0173433667	 0.041598
H	 1.6438464488	-0.1805906927	-1.6029015895	 0.132159
H	 0.6681480878	-2.6230910486	 0.0105351472	 0.071758
H	 2.3589445767	-2.0392532933	-0.041765967	 0.111489
H	 1.1720281303	-1.5871859638	 2.7766227165	 0.123351
H	 0.0960069271	-0.1842071583	 2.7533834833	 0.123169
H	-0.4702647763	-1.7441910567	 2.1031510773	 0.085614
H	-0.6745264776	-1.9402910062	-2.1098434336	 0.244171
H	-0.276597677	-1.6071290747	-4.2925959528	 0.073339
