19
gdb 74875	2.7992	1.68065	1.21904	1.7322	81.21	-0.2282	0.0091	0.2373	1062.5331	0.160782	-385.879721	-385.872179	-385.871235	-385.911419	30.411	
C	-0.0559091966	 1.5218721631	 0.0828760875	-0.490953
C	-0.0083072642	 0.0204452473	 0.0000157457	 0.323285
C	 0.0061722075	-0.645722114	-1.1645134329	-0.165246
C	 0.0525863963	-2.1152555825	-1.2922191948	-0.077616
C	 1.277140549	-2.9120563741	-0.8748499015	-0.294964
C	 0.0471931133	-2.9456378868	-0.0134171994	-0.061864
C	 0.033443078	-2.1986106417	 1.286247865	 0.027397
O	 1.1988311709	-1.4577367299	 1.6410421503	-0.255541
C	 0.0014097925	-0.7214289962	 1.287049379	-0.060526
H	 0.8363821638	 1.9215206606	 0.581338454	 0.133059
H	-0.1216123301	 1.9754201936	-0.9097250231	 0.120729
H	-0.9194486883	 1.8616747807	 0.6691191827	 0.122673
H	-0.0274337961	-0.0794187687	-2.0931512937	 0.085247
H	-0.4917841193	-2.5189833274	-2.1411530708	 0.087063
H	 1.5188668974	-3.7966411576	-1.4532014192	 0.111138
H	 2.1218383196	-2.3558741191	-0.4874339133	 0.138425
H	-0.5497729984	-3.8509694151	-0.0186510292	 0.085385
H	-0.4345495246	-2.7207585542	 2.1202527981	 0.088622
H	-0.4411204308	-0.2045544877	 2.1386344555	 0.083687
