16
gdb 27076	3.29079	1.13265	0.86589	3.3472	75.31	-0.1929	0.0228	0.2157	1283.2255	0.125408	-434.085466	-434.076746	-434.075801	-434.119584	31.561	
N	-0.0535942606	 1.3807415149	 0.2037955396	-0.614131
C	-0.0618276105	-0.0174288745	 0.0505898687	 0.186425
C	-1.0722283606	-0.9200921985	-0.2015696613	 0.270005
O	-2.3685567804	-0.5295980417	-0.466219601	-0.225207
C	-3.3569072895	-1.1458587447	 0.2270203038	 0.104842
N	-4.5608245272	-0.8977443328	-0.0537051532	-0.439762
C	-0.5227378375	-2.2331178917	-0.2045769091	-0.259853
C	 0.8225011483	-2.0925058528	 0.0456827093	-0.082691
N	 1.0881160379	-0.7539935937	 0.199199626	-0.26372
H	 0.2287668224	 1.8569451692	-0.6495271321	 0.247735
H	-0.9891659725	 1.7045390654	 0.4244567827	 0.255934
H	-2.9757820596	-1.8237558156	 1.0002007028	 0.098531
H	-5.1738489753	-1.4254300871	 0.5642648529	 0.230305
H	-1.0471787996	-3.1553529327	-0.3984228195	 0.104555
H	 1.6061300261	-2.8281199738	 0.1174490407	 0.122522
H	 1.9725831285	-0.3498750897	 0.4537433699	 0.264509
