18
gdb 52304	5.56016	0.68421	0.64533	3.0605	73.98	-0.2479	-0.0192	0.2287	1668.7617	0.147543	-439.108117	-439.099273	-439.098329	-439.143538	30.603	
O	-0.2420365868	 0.0469605014	-0.0558319846	-0.23885
C	-0.0275924538	 1.2303249828	 0.0018547836	 0.156176
C	 1.3314500509	 1.8768357641	-0.1145957096	-0.271335
C	 1.3741713429	 2.9216302415	-1.2414712613	-0.208303
C	 2.6794524646	 3.7262969084	-1.2497432103	 0.013079
C	 2.7477437413	 4.7961137256	-2.3750025527	-0.127297
O	 2.9421225453	 6.0460893441	-1.6682476618	-0.217909
C	 2.9561865258	 5.7154233883	-0.3572221433	 0.126138
N	 2.8330909748	 4.5057804085	-0.0028569951	-0.271385
H	-0.8642245973	 1.955056831	 0.1495065489	 0.068772
H	 1.5473512582	 2.3894564913	 0.8322163936	 0.148049
H	 2.0817802941	 1.0943013868	-0.2615834942	 0.117898
H	 1.253973009	 2.4271879368	-2.2136032446	 0.111448
H	 0.5344425452	 3.6208991769	-1.1333814966	 0.107103
H	 3.5215095608	 3.0273696796	-1.3229054027	 0.094949
H	 3.5867752616	 4.6595469123	-3.0611822839	 0.125517
H	 1.8214723578	 4.8730223857	-2.9533115143	 0.119784
H	 3.0796992959	 6.5586975449	 0.3135664289	 0.146167
