18
gdb 83715	2.74298	1.69325	1.19488	4.783	71.82	-0.2423	0.0575	0.2998	1048.859	0.1492	-439.130015	-439.122023	-439.121079	-439.163004	29.61	
C	-0.0236803858	 1.4485734728	 0.0368983804	-0.345836
N	-0.0037818339	 0.0091881704	-0.0722155377	-0.123908
C	-1.1855616129	-0.8150314781	-0.1021916383	-0.02554
C	-1.841378561	-1.0168088185	-1.4985883283	-0.243331
C	-0.9695855158	-2.2934436621	-1.7062321424	-0.25076
C	-0.5326288018	-2.2199305532	-0.2186772907	 0.107355
O	 0.8598266187	-2.0544727583	 0.0197946207	-0.252533
C	 1.1592714414	-0.7146141815	 0.056718088	 0.477633
O	 2.2769325784	-0.2925671798	 0.1816536953	-0.401158
H	 1.0109782708	 1.7894816682	 0.0988924851	 0.169472
H	-0.5009272035	 1.9073509391	-0.836655453	 0.125586
H	-0.5639143843	 1.772761091	 0.936258812	 0.122568
H	-1.8587822714	-0.5953400855	 0.7351218872	 0.0797
H	-2.9097099166	-1.2341768695	-1.4226838461	 0.11061
H	-1.6990534132	-0.2026337173	-2.2119982257	 0.11206
H	-1.4994069157	-3.199925082	-2.0044456366	 0.112124
H	-0.1210684846	-2.145966782	-2.3771304649	 0.127075
H	-0.9081041687	-3.0113579236	 0.4302014652	 0.098886
