15
gdb 22017	2.56252	1.56845	0.97879	1.7889	75.86	-0.2152	-0.0414	0.1739	1130.1561	0.111915	-453.887952	-453.879923	-453.878979	-453.920479	30.177	
C	 0.0886515147	 1.4662303184	 0.0917514375	-0.459796
C	-0.0057511926	-0.0309545868	 0.0483994632	 0.324811
N	-0.128903871	-0.5444979037	-1.1287982264	-0.147773
O	-0.2222501281	-1.9425175443	-1.2359547875	-0.246576
C	-0.1819345119	-2.7044337868	-0.1267384138	 0.099446
C	-0.0558133076	-2.2335380671	 1.1217240657	-0.260352
C	 0.0444364152	-0.8037435288	 1.2925746558	 0.295359
N	 0.1708721545	-0.1389949658	 2.3941964592	-0.247305
O	 0.2043805393	-1.0039648145	 3.4965324616	-0.391612
H	 1.0261162836	 1.767948358	 0.568096368	 0.149141
H	 0.0343242799	 1.8721470899	-0.9186069709	 0.141885
H	-0.7204873821	 1.8741244271	 0.7046876209	 0.149142
H	-0.2661353502	-3.7532247242	-0.388652858	 0.145934
H	-0.0300376369	-2.8997078552	 1.9702446229	 0.138097
H	 0.2991723133	-0.3916881964	 4.2337949118	 0.309601
