17
gdb 127636	2.48624	1.81431	1.06261	2.3295	79.86	-0.2278	-0.0514	0.1765	1104.4709	0.136664	-418.061043	-418.052604	-418.05166	-418.09422	30.841	
C	-0.0183982969	 1.4430778856	 0.0044494647	-0.312973
N	-0.0049743048	-0.0164889042	-0.0026333023	-0.056277
N	-0.0326761923	-0.6026595714	-1.2079793826	-0.210733
C	-0.0212415707	-1.9068868264	-1.233515964	-0.001062
C	 0.0181224442	-2.7104240717	-0.0618463623	-0.197429
C	 0.0460449376	-2.1222848488	 1.1641512968	 0.170368
C	 0.0875437607	-2.8584326108	 2.4663081118	-0.472364
C	 0.0352207726	-0.6644869898	 1.2400918712	 0.380409
O	 0.0565663982	-0.0117876364	 2.2757970923	-0.401716
H	 0.8760170435	 1.8227296923	 0.5048276928	 0.151184
H	-0.0520116649	 1.7726802686	-1.0319675352	 0.146029
H	-0.8886334658	 1.8060826697	 0.5570153038	 0.151319
H	-0.0442623329	-2.3515808119	-2.2221020585	 0.124862
H	 0.025479436	-3.792187939	-0.1596784597	 0.10879
H	 0.1024671961	-3.9400210573	 2.3146433427	 0.11795
H	 0.9692606433	-2.561497424	 3.0440980838	 0.150953
H	-0.7778370837	-2.5922120344	 3.0827648344	 0.15069
