18
gdb 104643	2.48669	1.29102	1.01254	3.2973	72.46	-0.2747	0.0244	0.2991	1195.7254	0.146793	-439.080479	-439.071263	-439.070318	-439.11445	34.116	
O	 0.0797565123	 1.0373225142	-0.6721382336	-0.419176
C	-0.1458026105	-0.2783786306	-0.2178396416	-0.123615
C	-1.6239779769	-0.5309543904	 0.1484793943	 0.147082
C	-2.5654300594	-0.5048032099	-1.1012289013	-0.289826
C	-2.5385448551	-2.0604572469	-1.120556408	 0.116453
O	-1.5820341114	-2.6156120971	-2.0041066434	-0.425712
C	-1.9540755199	-2.0526140621	 0.3109162046	-0.274709
C	-2.0051466397	 0.3440567716	 1.2491806071	 0.212055
N	-2.2796097396	 1.0610208915	 2.1150779202	-0.350314
H	-0.0680990046	 1.6398986929	 0.0659269749	 0.298013
H	 0.1135931279	-0.9461142479	-1.0426173579	 0.136614
H	 0.4873705058	-0.5339744703	 0.6451225058	 0.103988
H	-3.5553537244	-0.1050280743	-0.8724610323	 0.121151
H	-2.1556567109	 0.0113668457	-1.9720157412	 0.127089
H	-3.512804594	-2.5503034342	-1.2368082516	 0.079325
H	-1.8723182197	-2.4466920813	-2.9068280913	 0.28861
H	-1.0974835914	-2.7120765882	 0.4665127324	 0.127463
H	-2.7054193785	-2.239732183	 1.0791105929	 0.125509
