17
gdb 55534	2.12734	1.49413	1.12766	0.5311	69.62	-0.2478	-0.0463	0.2015	1131.509	0.132383	-458.970525	-458.961042	-458.960097	-459.005908	32.944	
C	 0.7764813422	-0.1321744472	 0.0488227389	-0.466527
C	-0.5428115719	-0.2112661488	-0.6892466863	 0.39589
O	-0.6390230579	-0.0268972277	-1.8804188971	-0.311508
C	-1.7908808408	-0.4666016876	 0.1658367615	-0.405966
C	-1.961101076	-1.8601688058	 0.7804829928	 0.383191
O	-2.3956609323	-2.0051283464	 1.8987644868	-0.300051
C	-1.6191132628	-3.0737795538	-0.0412969921	-0.034793
C	-1.6903117637	-3.0901815975	-1.518282282	-0.179694
O	-0.439607049	-2.9910244945	-0.8503957044	-0.21186
H	 1.592087893	-0.0160615404	-0.6651769523	 0.147364
H	 0.7674711106	 0.7214689009	 0.7368054573	 0.139534
H	 0.9348871301	-1.0323032398	 0.6505782445	 0.149222
H	-1.826124547	 0.233885304	 1.0051585378	 0.141233
H	-2.6599208496	-0.2782771768	-0.4741547864	 0.147414
H	-1.7422838324	-4.0049639426	 0.5083610996	 0.121378
H	-1.8830552986	-4.0435185005	-2.0065805922	 0.134882
H	-1.9889143739	-2.1991923753	-2.0649566063	 0.150289
