16
gdb 37124	3.54639	1.70427	1.67518	2.1172	66.28	-0.2039	0.056	0.2599	858.8235	0.125078	-437.759938	-437.753427	-437.752483	-437.790459	26.91	
C	-0.0730397619	 1.6142775064	-0.2643163878	-0.380685
C	 1.2382687564	 0.9184882801	 0.0117403341	 0.282607
O	 1.726905827	 0.8657435506	 1.3157522233	-0.279338
C	 1.0304672164	-0.1972734795	 1.9674032494	 0.00329
O	-0.2408384544	-0.31785804	 1.3279333172	-0.279337
C	-0.0702271112	 0.1313228471	 0.0198492987	 0.282603
C	 0.5120493079	-0.8083153524	-1.0742567331	-0.129721
N	 0.8521286665	 0.0554066926	-2.2285576868	-0.325583
C	 1.7856124689	-0.0417406239	-1.0825329597	-0.129725
H	-0.4319523657	 2.2195829853	 0.5595158072	 0.132976
H	-0.2958588178	 1.9744865582	-1.2601604986	 0.151438
H	 1.5959246428	-1.1382446485	 1.8831462683	 0.100901
H	 0.8794196558	 0.0646353151	 3.0182714235	 0.125815
H	 0.2859413357	-1.8601268365	-1.1953711226	 0.103354
H	 1.2144350096	-0.5548113036	-2.9608156646	 0.238043
H	 2.8197135742	-0.335027651	-1.2118518087	 0.103362
