21
gdb 65086	3.07942	1.34905	1.21307	1.2728	82.64	-0.2349	0.0703	0.3051	1128.9114	0.182224	-387.020941	-387.012427	-387.011483	-387.054337	33.565	
O	-0.1455981563	 1.289814294	 0.4060041609	-0.475501
C	-0.002773862	-0.0659765402	 0.0589978324	 0.235111
C	 1.0508458521	-0.4834614247	-0.9334352971	-0.331509
C	 1.1944632834	-0.8448872123	 0.5377597095	-0.331545
C	-1.3497782086	-0.7057091233	 0.0334092351	 0.403908
C	-2.3601470902	-0.8073781239	 1.2203390907	-0.25212
C	-3.0627657185	-1.4830269553	 0.0096183041	-0.056719
C	-2.5642551422	-0.2939530779	-0.8584843107	-0.252092
C	-1.7075120849	-2.1853095025	-0.2968941201	-0.272071
H	 0.7252098353	 1.6985474389	 0.4222802504	 0.279541
H	 0.8237742662	-1.2747054833	-1.6396041597	 0.117486
H	 1.7008107364	 0.2915422282	-1.3285210125	 0.105238
H	 1.939724789	-0.3096616685	 1.11853888	 0.105225
H	 1.0648138176	-1.8813418957	 0.8297562866	 0.117482
H	-2.0722037414	-1.4599693099	 2.0497648951	 0.083844
H	-2.7835430195	 0.1345033676	 1.5762924817	 0.097547
H	-4.0517170774	-1.9409534689	-0.0063627436	 0.070006
H	-3.0026303871	 0.685649127	-0.655252201	 0.097564
H	-2.4631859206	-0.4764548151	-1.9323597876	 0.083856
H	-1.547038882	-2.5111817906	-1.3290193303	 0.087382
H	-1.3753943994	-2.9430304834	 0.4192030762	 0.08737
