22
gdb 6805	6.22416	0.68281	0.64285	0.5302	76.53	-0.2464	0.0721	0.3186	1811.6047	0.197373	-387.339771	-387.329188	-387.328244	-387.376166	36.907	
C	-0.077078637	 1.5233703022	 0.0058806823	-0.384025
C	-0.0185769884	 0.0052422417	-0.02719409	-0.026526
O	-1.3360869565	-0.4987615104	 0.0293348148	-0.24629
C	-1.3946142378	-1.9089403677	-0.0029480553	-0.049469
C	-2.8562764443	-2.3339936426	 0.045078344	-0.210292
C	-3.0394658136	-3.854663707	-0.0148689896	 0.135515
C	-4.5072960229	-4.2658098195	 0.1013343413	-0.401226
O	-2.439723656	-4.4099265132	-1.1862339446	-0.429486
H	 0.9312914588	 1.9461526744	-0.0343594361	 0.112744
H	-0.6479160622	 1.9039180035	-0.846015518	 0.124422
H	-0.5623409614	 1.8681629306	 0.923478231	 0.124864
H	 0.4839470618	-0.3430849176	-0.9460371892	 0.08328
H	 0.5729004011	-0.3769420974	 0.8228389254	 0.082659
H	-0.9179721295	-2.300723902	-0.9144823187	 0.096244
H	-0.8455289006	-2.3363723872	 0.8549651514	 0.079838
H	-3.3138562361	-1.943224629	 0.9616039444	 0.103728
H	-3.3904566008	-1.8668756968	-0.7940553438	 0.092708
H	-2.4779408063	-4.3112886404	 0.8106259719	 0.08866
H	-5.1003735463	-3.8190529484	-0.7067461765	 0.106572
H	-4.6023685538	-5.3529067857	 0.0343785101	 0.123385
H	-4.9392004752	-3.9348528461	 1.0512749499	 0.116998
H	-2.9283099729	-4.0752489714	-1.9469559746	 0.275696
