16
gdb 130161	2.38899	1.57022	0.97262	2.3833	67.47	-0.1991	0.0443	0.2434	1147.5974	0.126217	-471.217492	-471.208892	-471.207948	-471.250524	32.27	
N	-0.2049528286	 1.4066679901	 0.3893328473	-0.588547
C	-0.0389199251	 0.0442224795	 0.1265946506	 0.278003
N	-1.0821470473	-0.775038047	 0.1259952145	-0.323978
N	-0.5284594488	-2.0183197215	-0.0655377717	-0.282566
C	 0.807924969	-1.9637908066	-0.1937680155	 0.415031
O	 1.5400499369	-3.069538736	-0.4075264001	-0.43396
C	 1.19316451	-0.6378013573	-0.0755041556	-0.025021
C	 2.6147422422	-0.1795072907	-0.1018815635	-0.212183
O	 3.411683787	-1.0223444755	-0.962090461	-0.420491
H	 0.3481301866	 2.0009475188	-0.2152168528	 0.239404
H	-1.1824058692	 1.6659584796	 0.3292359163	 0.24963
H	-1.1195812184	-2.8270645507	-0.1371626383	 0.273479
H	 2.4420787864	-2.7478283094	-0.5855757521	 0.307593
H	 2.699319196	 0.8727582212	-0.4080000404	 0.10259
H	 3.1030715619	-0.2620572521	 0.8764419809	 0.131314
H	 3.0846047515	-0.8938932825	-1.8603288886	 0.289702
