17
gdb 65669	3.11382	1.36518	1.08723	5.2335	69.92	-0.2619	0.0167	0.2786	1111.4764	0.133887	-458.906945	-458.898782	-458.897838	-458.93988	30.715	
C	 0.0617625864	 1.8326039581	 0.2199977017	-0.472254
C	-0.0082155025	 0.3313087695	 0.0074894278	 0.452238
O	-1.3578189391	 0.0439802235	-0.3360037865	-0.248936
C	-1.6803276258	-0.7291834812	-1.3965005619	 0.168392
O	-2.8041063659	-1.0777682534	-1.5991496844	-0.279008
C	 1.1368583282	-0.4784716794	-0.692131035	-0.033379
C	 2.0224286922	-0.305012838	 0.5633637044	-0.242936
C	 0.5983713588	-0.697868876	 1.0135764079	 0.010129
O	 0.5860284039	-1.7082548579	-0.0719169468	-0.311001
H	-0.1485412147	 2.346586225	-0.7228234148	 0.136439
H	-0.7080618268	 2.1314437295	 0.936695232	 0.147252
H	 1.029909618	 2.1707570706	 0.5889132278	 0.127126
H	-0.8294154711	-0.9582276783	-2.0544484922	 0.088918
H	 1.4381698417	-0.5253716532	-1.7386827972	 0.109428
H	 2.7498570345	-1.1066031552	 0.6828165539	 0.126488
H	 2.4271087687	 0.6742489343	 0.8165572971	 0.109075
H	 0.2233151836	-1.0029278481	 1.989655856	 0.11203
