14
gdb 123495	4.11944	1.71794	1.21235	4.6983	78.04	-0.2226	-0.0471	0.1755	935.089	0.105618	-395.773752	-395.767955	-395.767011	-395.803803	23.555	
C	-0.0294754242	 1.303294443	 0.0095854704	-0.185745
C	 1.2558135606	 1.8369162652	 0.0005154196	 0.398592
C	 1.887402694	 3.101977554	 0.0017650947	-0.241011
C	 3.2546507861	 3.1639381152	-0.0108304485	-0.080605
C	 4.0327158476	 1.9699902875	-0.0250275787	-0.177124
C	 3.4230145505	 0.7527367217	-0.0262141205	 0.046125
N	 2.0571304149	 0.7060616829	-0.013541315	-0.050205
N	 1.3083530412	-0.4253555084	-0.0129315593	-0.17643
N	 0.0544994986	-0.0415786546	 0.001327341	-0.174953
H	-0.9771269262	 1.8160587356	 0.0214601106	 0.128129
H	 1.2770216456	 3.9968246665	 0.0126441681	 0.121371
H	 3.7572326563	 4.124221881	-0.0101152422	 0.116128
H	 5.1141671813	 2.018651708	-0.0350059213	 0.119668
H	 3.9221429537	-0.2063090274	-0.0364348189	 0.156059
