21
gdb 112824	2.61267	1.12249	0.87417	3.4654	74.71	-0.2516	0.0577	0.3094	1372.2471	0.18144	-461.33048	-461.320641	-461.319697	-461.365325	36.283	
C	 0.094896444	 1.6651655241	 0.4243494404	-0.2385
O	 0.7158560624	 0.4597228751	 0.0372024895	-0.238812
C	 0.7515090117	-0.5019976463	 1.0575940961	 0.140037
C	-0.5647640937	-1.2639976462	 1.4020200378	-0.313717
C	 0.2562075335	-2.5762104098	 1.3951729416	 0.137638
O	-0.3104554848	-3.7366731439	 0.8031753048	-0.435257
C	 1.4119396977	-1.8409730565	 0.6412084698	-0.120098
C	 1.4224418537	-2.1302667357	-0.8606127444	-0.065085
O	 1.8495761252	-3.4564558044	-1.1147066589	-0.433049
H	 0.6080210122	 2.1267470211	 1.2825532931	 0.10693
H	 0.1472923347	 2.3464970172	-0.4279551459	 0.130663
H	-0.9614258874	 1.5166355292	 0.6947270272	 0.108125
H	 1.2151840488	-0.078715984	 1.9616361105	 0.069655
H	-1.1104798301	-1.0042315241	 2.3111694927	 0.10672
H	-1.2507676626	-1.2214912482	 0.5479726054	 0.103627
H	 0.5588688899	-2.8784724907	 2.400842095	 0.095957
H	-0.9189065856	-3.4536461143	 0.1129378772	 0.28919
H	 2.4155191232	-2.0203492061	 1.0347972712	 0.079171
H	 0.4322907963	-1.9304355106	-1.3029833774	 0.070669
H	 2.1238498876	-1.4619167579	-1.3667522541	 0.120257
H	 1.2664681032	-4.025909528	-0.5955893815	 0.285879
