17
gdb 95599	2.23124	1.71276	1.01722	3.6122	69.04	-0.2398	-0.0861	0.1537	1136.8078	0.13485	-458.98815	-458.979557	-458.978612	-459.022012	31.213	
C	-0.0873939506	 1.5517479139	-0.0010947342	-0.406031
C	 0.0424618652	 0.0291477134	-0.0114252647	-0.112259
C	 0.8065388208	-0.5175353074	-1.2323695307	-0.102767
O	 0.8299409798	-1.9322131061	-1.2268697067	-0.237424
C	 1.6367649941	-2.4589074107	-0.1952698861	-0.194092
C	 1.2429786954	-1.960982208	 1.1950200316	 0.293178
O	 1.4119143535	-2.6107120618	 2.1930031654	-0.262413
C	 0.6673656178	-0.5125069156	 1.2673802385	 0.288574
O	 0.7588447204	 0.1098253917	 2.2946370331	-0.276851
H	 0.898011285	 2.0287551368	-0.0094298479	 0.127835
H	-0.6448808874	 1.8995439133	-0.8754113846	 0.118705
H	-0.6037709473	 1.8851113369	 0.900767704	 0.146968
H	-0.957361863	-0.4310158965	-0.0592425101	 0.122478
H	 0.3039898081	-0.2176889136	-2.1556694908	 0.124824
H	 1.8318420529	-0.1103786354	-1.2584039922	 0.099077
H	 1.5558124246	-3.5478846618	-0.2249473282	 0.147364
H	 2.6996169808	-2.1927037991	-0.3474106662	 0.122831
