21
gdb 39434	2.37653	1.92206	1.32966	1.1454	81.88	-0.2448	0.0846	0.3293	1033.0946	0.185504	-387.070318	-387.06294	-387.061995	-387.101812	30.535	
C	-0.0303401683	 1.5081582099	-0.0013682578	-0.392347
C	 1.2778639993	 0.7378499472	 0.0326946545	-0.087666
C	 2.0677071761	 0.5852313654	 1.3250046299	-0.102307
O	 1.9508562222	-0.7201520433	 1.8802062796	-0.237751
C	 0.6230139507	-0.9859422847	 2.2947215359	-0.111047
C	-0.3633577965	-0.9746719833	 1.1273497184	-0.058815
C	-0.2784399557	-2.1006926707	 0.0526999608	-0.225564
C	-0.4311419638	-1.0198557617	-1.0579529601	-0.308912
C	-0.0437287934	 0.0162009304	-0.0028234587	 0.373906
H	-0.337134833	 2.0303626914	 0.9015797043	 0.106078
H	-0.2876651421	 2.0242258157	-0.9211765622	 0.111164
H	 1.8627297568	 0.7332302196	-0.8826236478	 0.085186
H	 3.1352701818	 0.7388318958	 1.1483217289	 0.107968
H	 1.7415169859	 1.3273359091	 2.0735159898	 0.085422
H	 0.6402388075	-1.9687172525	 2.7778528941	 0.105325
H	 0.3178224966	-0.2433147257	 3.053696813	 0.080146
H	-1.3868886743	-0.8638445184	 1.5036469526	 0.067399
H	 0.7181606312	-2.5497389316	 0.0413917476	 0.113986
H	-1.030931623	-2.890882135	 0.0960842813	 0.092813
H	 0.20643181	-1.1043889598	-1.942536313	 0.096082
H	-1.4718845781	-0.9128842479	-1.3824268912	 0.098935
