25
gdb 93671	2.34994	1.32432	1.1515	1.3522	87.58	-0.2555	0.0678	0.3233	1260.8242	0.22812	-389.516976	-389.506602	-389.505658	-389.551718	40.308	
C	-0.4612524462	 1.3691475256	 0.0863044001	-0.419164
C	 0.0408690859	-0.0729575569	 0.1462581838	 0.047374
C	 0.7703272337	-0.5418454591	-1.1361629815	-0.211053
C	 1.7047638413	-1.695665897	-0.6933638733	-0.271034
C	 1.5877421255	-1.7964331156	 0.8578508018	 0.411285
C	 0.6429551373	-2.9302199402	 1.2797953641	-0.442391
O	 2.855082839	-2.0013076864	 1.4835866479	-0.485235
C	 1.0356641002	-0.4086161142	 1.2870292191	-0.022845
C	 2.1454423803	 0.6359908798	 1.4678239844	-0.406077
H	 0.3555190483	 2.0744438625	-0.0968342444	 0.117248
H	-1.188043305	 1.4908598599	-0.7243374692	 0.108913
H	-0.9553137892	 1.662703755	 1.019167207	 0.109554
H	-0.8383381979	-0.7152836086	 0.2858952867	 0.068024
H	 0.0626982781	-0.8431798686	-1.914284347	 0.091274
H	 1.3552655237	 0.2844367967	-1.5546545548	 0.098349
H	 1.4483472101	-2.6460634062	-1.1729600617	 0.086092
H	 2.7467277787	-1.4805185878	-0.9448429086	 0.103045
H	 1.0253806136	-3.8962770876	 0.9264969993	 0.099821
H	 0.5631612239	-2.9711309393	 2.3701377323	 0.120106
H	-0.3606681188	-2.809808624	 0.8613516107	 0.117894
H	 3.1551145545	-2.8868598967	 1.2545538014	 0.271581
H	 0.5025645172	-0.5022077262	 2.240985562	 0.059803
H	 2.6956363477	 0.8213354218	 0.5390569828	 0.109731
H	 1.725928442	 1.589015206	 1.802882312	 0.105175
H	 2.8672285963	 0.2970352768	 2.2123251051	 0.132532
