17
gdb 93316	2.14986	1.67696	1.13285	4.7863	73.55	-0.2777	-0.0038	0.2739	1102.6321	0.137016	-418.044546	-418.036108	-418.035164	-418.077856	30.926	
C	-0.3003586723	 1.4828675089	-0.0322918552	-0.429036
C	 0.0797889878	 0.0079861922	 0.0280488292	-0.010417
C	 1.0074491746	-0.4652613926	-1.0997440797	-0.095997
O	 1.6069581459	-1.6807120866	-0.6185651734	-0.233067
C	 1.5591315615	-1.7353694376	 0.740942267	 0.413099
N	 1.9816832025	-2.6747214961	 1.4626580348	-0.525531
C	 0.8770301082	-0.4699736013	 1.2721748049	-0.250992
C	 1.8761091756	 0.505274833	 1.7131549134	 0.294966
N	 2.6530981664	 1.2961144727	 2.0396327817	-0.328878
H	 0.5824218928	 2.1251050736	 0.0340772378	 0.151902
H	-0.8165015683	 1.7049337558	-0.9716125244	 0.126298
H	-0.9735622949	 1.7496693975	 0.7874627033	 0.133701
H	-0.8270231083	-0.6069117065	-0.0034381883	 0.105846
H	 0.482111218	-0.6950051285	-2.0289897928	 0.129945
H	 1.7969292566	 0.268134321	-1.3071107002	 0.131093
H	 2.3989446345	-3.4139006719	 0.8946018194	 0.232978
H	 0.2399503594	-0.7236551137	 2.1215552525	 0.15409
