17
gdb 62399	3.23555	1.5084	1.30302	1.5772	74.05	-0.2529	0.0288	0.2818	1005.5834	0.135083	-421.766323	-421.758252	-421.757308	-421.798595	31.546	
O	 0.0102123153	 1.4403671348	-0.0425153502	-0.490675
C	 0.0130380723	 0.0330879434	-0.0009669316	 0.245639
C	 0.9308048113	-0.5413956436	-0.9700149688	 0.276162
C	 1.7298209473	-0.9274368289	-1.7813500533	-0.428783
C	 0.0427430102	-0.6810296741	 1.3971414389	 0.016914
C	-0.9862904589	 0.1168380759	 2.2158841546	-0.229794
C	-2.126105233	 0.1368838855	 1.146420124	-0.232115
C	-1.3868479081	-0.6510212294	 0.0498104342	 0.030615
O	-0.7636997978	-1.7354905283	 0.7976950378	-0.297574
H	 0.8302650173	 1.7313079622	-0.4525515699	 0.29081
H	 2.4233789569	-1.2933344594	-2.4978927025	 0.198776
H	 0.9634328706	-1.0307909786	 1.86246985	 0.085169
H	-1.2620406932	-0.4195382396	 3.1256319075	 0.106536
H	-0.6280818782	 1.1143379371	 2.4762535096	 0.113473
H	-3.0221416534	-0.3974233047	 1.4675189877	 0.10745
H	-2.3987665842	 1.144187785	 0.8274779863	 0.118974
H	-1.9163345544	-0.9683073574	-0.8473529443	 0.088424
