27
gdb 118576	1.58527	0.86043	0.59129	1.329	93.62	-0.261	0.0788	0.3398	2022.2227	0.249937	-390.701667	-390.689404	-390.68846	-390.740378	43.447	
C	 0.8315947161	 0.8766453546	-0.74267366	-0.379581
C	 0.4843358215	-0.6009591349	-0.5386928504	-0.170564
C	-0.9885043669	-0.8189277391	-0.1662636706	-0.182984
C	-1.4073694837	-2.2887095268	 0.0332036365	 0.030324
C	-0.8708174601	-2.8351202361	 1.3590511587	-0.091386
O	-1.1008733433	-4.2382328842	 1.395111204	-0.422642
C	-2.9355863555	-2.4763601142	-0.0402966574	-0.176717
C	-3.5225861387	-2.4012284478	-1.4546374222	-0.173904
C	-5.0430433099	-2.58401049	-1.4763083653	-0.378015
H	 1.883449439	 1.0071103182	-1.015901323	 0.110126
H	 0.2230707017	 1.3198107678	-1.5390636946	 0.113349
H	 0.65036108	 1.4558250401	 0.1697871873	 0.11224
H	 0.7070581829	-1.1594431537	-1.4573650727	 0.096795
H	 1.1388704715	-1.0203791309	 0.2349965394	 0.096681
H	-1.2229315884	-0.2525633512	 0.7475008279	 0.08686
H	-1.6091879529	-0.374853673	-0.9538432624	 0.09475
H	-0.9510012896	-2.8955625789	-0.7623887179	 0.074733
H	 0.2035115365	-2.6183941379	 1.4551438575	 0.082889
H	-1.3835644827	-2.327612735	 2.1939696497	 0.080354
H	-0.8270155969	-4.5658642897	 2.2562875194	 0.285209
H	-3.1815444296	-3.4524622351	 0.3913985892	 0.110226
H	-3.4191302414	-1.7219911065	 0.5984309316	 0.079427
H	-3.269717247	-1.4414790105	-1.9227704821	 0.09329
H	-3.0527230808	-3.1744796791	-2.0767379936	 0.095957
H	-5.4374424067	-2.5422590033	-2.4966389724	 0.10762
H	-5.3310332832	-3.5498598337	-1.0464362281	 0.114195
H	-5.5439914418	-1.8026222892	-0.8936758184	 0.110768
