21
gdb 5801	3.34071	1.30239	1.19174	3.3959	75.	-0.2433	0.0309	0.2743	1136.3092	0.186012	-366.314543	-366.304315	-366.303371	-366.350085	37.496	
C	-0.1420151249	 1.5741729692	 0.1420437122	-0.40949
C	-0.0059265336	 0.0426129978	 0.0466706305	 0.271751
C	 0.6830385374	-0.5070093501	 1.3098172905	-0.409736
C	-1.410981488	-0.5789271222	-0.0713725403	-0.401848
C	 0.7842548653	-0.3583280212	-1.2206132539	-0.327635
C	 2.2487480951	 0.0799611579	-1.3059054441	 0.402509
N	 2.9419695346	-0.5234078787	-2.3192649542	-0.515041
O	 2.783710779	 0.8840878302	-0.5648638855	-0.354174
H	 0.8376143265	 2.0477820298	 0.2151595913	 0.148929
H	-0.6569425283	 1.9771384044	-0.7384211752	 0.09518
H	-0.7325513862	 1.8491378096	 1.0229471133	 0.101084
H	 0.0912766715	-0.2694652113	 2.2004967602	 0.103717
H	 0.7821541635	-1.5981493297	 1.2617057317	 0.096513
H	 1.6779884911	-0.0752641476	 1.4316978844	 0.143836
H	-1.9332140102	-0.2214569759	-0.9663755428	 0.103149
H	-1.3632399624	-1.6727480735	-0.1249460578	 0.102832
H	-2.0225290122	-0.3146909768	 0.7978808645	 0.110534
H	 0.7536820173	-1.4499599484	-1.3375281351	 0.10615
H	 0.2760310434	 0.0495402485	-2.1061051692	 0.116505
H	 2.4963251618	-1.120673311	-2.9932385753	 0.256298
H	 3.8834961694	-0.2136755411	-2.4963951952	 0.258936
