27
gdb 120029	2.39699	0.95608	0.81729	0.1367	95.87	-0.2715	0.0747	0.3462	1622.9412	0.25124	-353.561037	-353.550033	-353.549089	-353.597132	41.205	
C	 0.4178191865	 1.5324670286	-0.3569467314	-0.380259
C	 0.2330813534	 0.0309579459	-0.1216919769	-0.168116
C	-1.2325710326	-0.4173943702	-0.207817577	-0.190124
C	-1.4224572668	-1.915501035	 0.012043456	 0.023478
C	-1.3151936852	-2.544795885	 1.4468402641	 0.019784
C	-1.517897675	-1.6188169918	 2.6447335759	-0.40715
C	-2.548970962	-3.4337778753	 1.1062688449	-0.24047
C	-2.8364127497	-2.5700640065	-0.1576436981	-0.002203
C	-4.0541174242	-1.6545219978	-0.0482006826	-0.399913
H	 1.4719579652	 1.8215491121	-0.2971845529	 0.10896
H	 0.0478245429	 1.8258620007	-1.3459309153	 0.112108
H	-0.1311463139	 2.1209745945	 0.386752125	 0.112631
H	 0.8230318592	-0.5307003031	-0.858312366	 0.092358
H	 0.6438109395	-0.2387443719	 0.8595816712	 0.099018
H	-1.8296729772	 0.1584824705	 0.510290959	 0.09019
H	-1.6230955307	-0.1525023322	-1.2008350894	 0.087991
H	-0.7210859881	-2.4425417781	-0.6465145867	 0.061748
H	-0.3906538746	-3.1104943133	 1.600471866	 0.061379
H	-2.4425597788	-1.0377597749	 2.5684472822	 0.116805
H	-1.5804368688	-2.2066838868	 3.5675784764	 0.111003
H	-0.6902050966	-0.9107552389	 2.7603692316	 0.113906
H	-2.2845164904	-4.4680896272	 0.8706615618	 0.091991
H	-3.3426511372	-3.4489403027	 1.8606841221	 0.087531
H	-2.9269325277	-3.152844253	-1.0803636259	 0.060811
H	-4.0448167895	-1.0581517089	 0.8697917326	 0.115231
H	-4.1161674764	-0.960473	-0.8934769337	 0.111756
H	-4.9747481414	-2.2490873197	-0.040420513	 0.109553
