21
gdb 117697	4.32338	0.78279	0.77179	2.7092	81.73	-0.254	0.0532	0.3072	1573.4668	0.178001	-424.18448	-424.17344	-424.172496	-424.22059	40.011	
C	 0.1843231475	 1.3940495353	-0.0342030222	-0.230807
O	 0.1230758126	-0.0137818271	-0.0212287586	-0.25378
C	 0.5710824516	-0.5885564444	 1.1908947828	-0.089467
C	 0.5643334015	-2.1138880649	 0.9976259216	 0.336341
C	-0.8680711541	-2.6332188478	 0.8167990714	-0.42242
O	 1.3579585843	-2.4238421723	-0.1410440477	-0.46945
C	 1.268300136	-2.7652750621	 2.2092377589	-0.373481
C	 1.2839668629	-4.2220095662	 2.1820960607	 0.320711
C	 1.2978034252	-5.4235465101	 2.1797915533	-0.449379
H	 1.211950613	 1.7571440211	 0.1199564859	 0.111122
H	-0.1678072366	 1.7275964534	-1.0131348927	 0.131554
H	-0.4575579622	 1.8337439246	 0.7441178773	 0.110605
H	 1.5947718719	-0.247352632	 1.415203264	 0.089707
H	-0.0818681158	-0.2902607499	 2.0271128751	 0.088309
H	-1.3492124094	-2.1144184285	-0.0160901058	 0.122027
H	-0.8471666412	-3.7042789547	 0.6078170493	 0.137763
H	-1.4696135878	-2.4642423618	 1.7167724531	 0.104931
H	 1.0788010419	-1.8078563988	-0.8300098087	 0.284815
H	 2.2991323179	-2.3927471678	 2.2375829531	 0.134905
H	 0.7773277044	-2.4236655102	 3.1296757293	 0.123644
H	 1.3163613465	-6.484953586	 2.1689539499	 0.192348
