17
gdb 53845	3.76529	0.9594	0.8039	9.1244	71.28	-0.2288	-0.0335	0.1953	1391.4125	0.136082	-455.172789	-455.16396	-455.163016	-455.207165	32.198	
O	-0.1181163481	 0.1596654166	 0.4175560942	-0.460519
C	-0.0488985313	 1.291190832	-0.0766212825	 0.40044
O	 0.8209361376	 1.9631263456	-0.6452847512	-0.464957
C	-1.4140195509	 2.0780762542	 0.0504516553	 0.291566
N	-2.4017470796	 1.4402995187	 0.6309370535	-0.492925
H	-3.3221543318	 1.8145210166	 0.7937984064	 0.276047
H	-2.1171892998	 0.5065701023	 0.9284632084	 0.295263
N	-1.4306078997	 3.2974968475	-0.4313783606	-0.259035
C	-2.5412005962	 4.2016311409	-0.4715112374	 0.005532
C	-3.1119133603	 4.7211273853	 0.8306593808	-0.276965
C	-2.3104651304	 5.6289876218	-0.0670111324	-0.272136
H	-0.5180287015	 3.509178423	-0.8479845272	 0.282663
H	-3.2367851892	 4.0178294694	-1.2865814367	 0.123573
H	-4.1847457358	 4.8639386255	 0.8910947647	 0.131806
H	-2.6419297038	 4.3899601542	 1.7494615334	 0.140801
H	-1.3113903361	 5.8950270114	 0.2590409551	 0.143021
H	-2.8268358932	 6.3996603649	-0.6264213241	 0.135826
