22
gdb 110386	4.16259	1.03449	0.95838	1.4672	87.3	-0.2243	0.0898	0.3141	1356.2169	0.194041	-367.123188	-367.114554	-367.11361	-367.156391	33.62	
C	-0.0234870343	 1.6016454864	 0.0210245604	-0.374883
C	 0.1402907315	 0.082232325	 0.1449135466	-0.214024
C	 0.7564003811	-0.5321976669	-1.0995053478	 0.068264
C	 0.6664873124	-2.0295777575	-1.3928954597	-0.099159
C	-0.7957127667	-1.8494089982	-1.900706859	-0.021602
C	-0.5258794037	-2.5250100528	-3.2543987786	-0.003957
C	-1.3642524621	-2.1320823862	-4.4601302269	-0.421539
C	 0.730154017	-1.7092983358	-2.9146993844	-0.011699
N	-0.112771125	-0.5244866038	-2.3624446212	-0.177242
H	 0.9465741122	 2.093170147	-0.1128570564	 0.112085
H	-0.6439599945	 1.85173797	-0.8444357813	 0.136927
H	-0.4919268969	 2.0260136457	 0.9141466862	 0.108243
H	 0.7796316586	-0.1580698432	 1.0048345422	 0.095365
H	-0.8327961451	-0.3805717304	 0.3485749114	 0.094694
H	 1.7357029836	-0.0758303026	-1.3030035137	 0.062838
H	 1.0946266003	-2.8924069584	-0.8692766163	 0.058796
H	-1.7169612895	-1.8279086864	-1.3161626726	 0.079307
H	-0.380683368	-3.6094626043	-3.185329408	 0.066829
H	-1.489385244	-1.0471987805	-4.5048088221	 0.140392
H	-0.8914352669	-2.463107597	-5.3913541359	 0.112408
H	-2.3573805142	-2.5923063648	-4.4140151135	 0.112078
H	 1.6237015341	-1.5094127152	-3.5110552491	 0.075878
