20
gdb 117263	3.76278	0.90868	0.75212	2.6456	78.14	-0.2355	0.0554	0.2909	1549.7084	0.170533	-440.316596	-440.306767	-440.305823	-440.353018	33.747	
C	 0.0589329047	 1.4891089849	-0.170047374	-0.390779
C	 0.0069717282	-0.024512342	-0.0825562122	-0.029786
O	 0.6694520036	-0.5473990524	-1.245754097	-0.270628
C	 0.7058392624	-1.9020037021	-1.3256951294	 0.493676
O	 0.2443323643	-2.6594223472	-0.4988963306	-0.425016
N	 1.3194581069	-2.2892539034	-2.4727853659	-0.133459
C	 2.2453539067	-1.5751483913	-3.3589847284	-0.162491
C	 2.7779617987	-2.9577191736	-3.8357460707	-0.242191
C	 1.8529036563	-3.6192156154	-2.7718167202	-0.157402
H	 1.0935038805	 1.8434126634	-0.1946690298	 0.125454
H	-0.4474452708	 1.8454439782	-1.071623506	 0.127306
H	-0.4357829282	 1.9294591076	 0.7008037353	 0.120795
H	 0.5087330489	-0.3980715025	 0.8159393894	 0.118186
H	-1.0224544984	-0.3962008686	-0.0584034194	 0.119721
H	 1.7525446355	-0.9587253897	-4.11713984	 0.116701
H	 2.9735299569	-0.9563513263	-2.8233666639	 0.115919
H	 2.5191833445	-3.2031753601	-4.8662005926	 0.11759
H	 3.8457095161	-3.1195343952	-3.6880332632	 0.116812
H	 2.3692197428	-4.0786407167	-1.9219655667	 0.120318
H	 1.1069922203	-4.3245799077	-3.1504300047	 0.119274
