14
gdb 25260	3.36975	1.66154	1.12067	4.7146	70.25	-0.2356	-0.0231	0.2124	993.454	0.10471	-436.760324	-436.753837	-436.752893	-436.791236	25.28	
O	-0.0081440193	-0.0331399435	 0.0043152746	-0.374047
C	 0.0486521584	 1.1659295579	 0.0095358797	 0.406365
O	-1.080268471	 1.9670676246	 0.0287635457	-0.255647
C	-0.7443186549	 3.3747476176	 0.0310915078	-0.194993
C	 0.751636581	 3.395751283	 0.010731026	 0.271271
C	 1.1691405385	 2.0922855752	-0.0013202145	 0.12005
N	 2.5332837806	 2.0580065391	-0.0202236893	-0.387404
C	 2.984176628	 3.3538029006	-0.0200411521	-0.048634
C	 1.8998602166	 4.2197610411	-0.0009209077	-0.338236
H	-1.208553518	 3.8353609497	-0.8479731645	 0.135707
H	-1.1842298035	 3.8266202599	 0.9270434002	 0.135703
H	 3.1054508226	 1.2306582239	-0.032070853	 0.281471
H	 4.0417935652	 3.567354415	-0.0334924759	 0.135951
H	 1.9605245957	 5.2969039458	 0.0035011331	 0.112443
