18
gdb 41301	3.73211	1.73064	1.64322	1.2061	74.54	-0.2259	0.0707	0.2966	879.2547	0.150869	-401.825846	-401.819873	-401.818929	-401.855746	26.174	
C	 0.0262768761	 1.462016538	 0.2326908757	-0.144072
O	 1.4109903152	 1.5979760233	-0.241478674	-0.353499
C	 1.2724822517	 0.3098065816	-0.8229166234	 0.438162
C	 2.0640558116	-0.9782447615	-0.9314423117	-0.252276
N	 0.9431755287	-1.7260639507	-1.6336470523	-0.16923
C	 0.9339908889	-0.9661508128	-2.9497498275	-0.188357
C	 0.3755376613	 0.2016098963	-2.1693679669	-0.112524
C	-0.3422692792	-0.8069890671	-1.2525860948	-0.02377
C	 0.0445852578	-0.0835544938	 0.012023375	-0.100275
H	-0.0574636607	 1.7709042733	 1.2766833788	 0.120717
H	-0.6658574751	 2.0415401084	-0.3860658795	 0.114977
H	 2.9532464648	-0.9856979787	-1.5650166091	 0.110452
H	 2.3027762547	-1.4191654806	 0.0382907766	 0.109179
H	 1.9073671059	-0.8946125358	-3.4450462456	 0.101145
H	 0.2086859391	-1.4156813174	-3.6350422145	 0.107622
H	-0.0509683221	 1.1200282857	-2.572223075	 0.073209
H	-1.2630257081	-1.3460119186	-1.4729875382	 0.080859
H	 0.1733378392	-0.6511651396	 0.9350562264	 0.08768
