15
gdb 9127	7.0977	0.75034	0.68444	5.2146	70.67	-0.2532	-0.016	0.2372	1588.2008	0.116586	-399.785589	-399.775824	-399.77488	-399.822216	31.552	
C	 0.0538941758	 1.423991661	-0.0431059465	-0.339143
N	-0.0859180882	-0.0174773689	-0.0856552404	-0.311745
C	-1.2688481131	-0.6475428053	 0.1796295367	 0.262716
O	-2.3006237763	-0.0699819531	 0.4719532008	-0.355429
C	-1.1842706327	-2.0979275643	 0.079793543	-0.03445
C	-1.1648747136	-3.300746083	 0.0098753096	 0.174825
C	-1.1130858204	-4.7538703889	-0.0816434768	-0.220857
O	-2.3891905749	-5.2993346492	 0.2110091664	-0.401081
H	 0.7914604737	 1.7307126566	 0.7069692319	 0.128019
H	 0.3567263148	 1.8236859052	-1.0173833199	 0.12801
H	-0.9189388728	 1.8374295094	 0.2244912466	 0.175085
H	 0.7100558425	-0.5882420034	-0.3178750446	 0.252127
H	-0.7768678477	-5.0297153518	-1.0949802272	 0.12402
H	-0.344500992	-5.1221394454	 0.618100671	 0.124029
H	-2.3172199851	-6.256802649	 0.1411980494	 0.293872
