14
gdb 2079	4.76846	2.61131	1.80081	3.93	53.53	-0.2295	0.0112	0.2407	679.5704	0.115865	-361.738091	-361.731932	-361.730988	-361.76832	22.587	
O	 0.0141346436	 0.0435551688	 0.4873514471	-0.320855
C	-0.0195862874	 1.1453443042	 0.0115987837	 0.395429
C	-1.3283554668	 1.9242770575	-0.1482543872	-0.306141
N	-1.3063399496	 3.125410703	-0.9774173224	-0.284254
C	-0.0719581309	 3.8685410878	-0.7456145129	-0.185844
C	 1.1561302451	 3.016788862	-1.0305882103	-0.062755
O	 1.1393379303	 1.7564131001	-0.3335395399	-0.223795
H	-2.0811424582	 1.2221395782	-0.5128944115	 0.144665
H	-1.6330000243	 2.1973493595	 0.8720414684	 0.147017
H	-1.3615765206	 2.8634875862	-1.9573944445	 0.223627
H	-0.0509176648	 4.7632720182	-1.3763584841	 0.116562
H	-0.0645255601	 4.2041027133	 0.2992929557	 0.122063
H	 1.2277383543	 2.8048061815	-2.1061463017	 0.110428
H	 2.0821005695	 3.5121806299	-0.7220784704	 0.123854
