16
gdb 35192	3.79072	1.14425	1.0723	1.8671	75.98	-0.2364	0.0212	0.2576	1149.8254	0.12287	-400.635405	-400.627596	-400.626652	-400.667814	30.284	
C	-0.1090160492	-1.1846711413	-0.0155588381	-0.431119
C	-0.0311357494	 0.0149301451	-0.0062578804	 0.354928
C	 0.0464944888	 1.4487428033	-0.0202837507	-0.278443
O	 0.6391180365	 2.0907831216	 1.1406003415	-0.28624
C	 1.3383962798	 2.1516062973	-0.0802754576	 0.504771
C	 2.7843037124	 1.6307456143	-0.230481491	-0.323255
C	 3.1171120886	 2.9707265467	-0.9109025211	-0.042734
N	 2.2304940296	 3.0656131057	-2.0925897488	-0.331115
C	 1.7163117705	 3.45942191	-0.7506452463	-0.176549
H	-0.1748050886	-2.24468008	-0.0201823477	 0.202576
H	-0.8330474886	 1.9644575475	-0.4032322682	 0.117713
H	 3.2505817744	 1.5169544924	 0.750895289	 0.12409
H	 2.9336259688	 0.7322849068	-0.8322515128	 0.123303
H	 4.0468710633	 3.5221191219	-0.859990179	 0.10237
H	 2.4645516963	 3.9318185778	-2.5785104753	 0.233227
H	 1.3209312567	 4.4475728409	-0.5529123236	 0.106476
