18
gdb 68710	2.41974	1.63335	1.34274	1.9497	83.77	-0.229	0.04	0.269	1040.8945	0.146742	-364.721394	-364.713123	-364.712178	-364.753796	32.642	
C	-0.0336800093	 1.517278238	 0.0983830366	-0.488752
C	-0.0308804802	 0.0200444851	 0.0085899986	 0.295791
C	 1.1654571736	-0.8077728268	-0.3618720426	-0.38562
C	 0.5891717978	-0.9949193974	 1.0340366694	 0.172036
C	 1.323925072	-0.7091831624	 2.2180929551	 0.229039
C	 1.9460158798	-0.4745224673	 3.2218222617	-0.431007
C	-0.6810193278	-1.8128794909	 0.939635855	-0.157812
N	-1.8158640503	-0.9399035514	 1.3328621753	-0.329189
C	-1.2634948562	-0.8575173182	-0.0426864375	-0.128485
H	 0.926628718	 1.8897413529	 0.4678703354	 0.127603
H	-0.2153726819	 1.9736606083	-0.8819262137	 0.117913
H	-0.8153249801	 1.8539725259	 0.7856871142	 0.141187
H	 1.0829164178	-1.6175052062	-1.0823798083	 0.108481
H	 2.111801889	-0.2770194145	-0.3927741162	 0.12652
H	 2.4870753823	-0.2678408515	 4.1112853115	 0.183968
H	-0.7669508381	-2.8923904334	 0.9781309232	 0.097813
H	-2.6616877438	-1.5111914431	 1.2843566302	 0.22467
H	-1.8813811025	-1.0705451269	-0.9073795778	 0.095844
