21
gdb 106631	2.56645	1.37775	1.21732	0.7982	77.58	-0.2511	0.0684	0.3196	1133.2097	0.183693	-424.212299	-424.203625	-424.202681	-424.245336	34.055	
O	-0.0641658145	 1.4120313001	 0.0470994485	-0.426792
C	-0.0084745954	-0.0095681537	-0.0125755249	-0.203309
C	-1.41459115	-0.5448730672	 0.0297697727	 0.322741
C	-2.3093218256	-0.485199955	 1.3043948409	-0.261355
C	-3.0966526102	-1.620248259	 0.5894487089	-0.072055
C	-3.672015471	-0.8801251126	-0.6336804923	-0.240527
C	-2.4018284359	-0.0695657547	-1.0596066897	-0.267672
C	-1.7013071185	-2.0807994808	 0.0714050431	 0.124781
O	-1.5535279133	-2.8863706285	-1.0669831333	-0.452046
H	 0.8343373155	 1.7498024757	-0.0098033766	 0.287298
H	 0.4803803591	-0.3504899963	-0.9403771701	 0.089757
H	 0.5706481897	-0.4183728454	 0.8312725071	 0.08198
H	-1.787461513	-0.8236580376	 2.2029575371	 0.094385
H	-2.8378804082	 0.4494449947	 1.5034984761	 0.10008
H	-3.7594637894	-2.2973488159	 1.1285001095	 0.060071
H	-4.0288671754	-1.5647141739	-1.4114775426	 0.088513
H	-4.5125645426	-0.2346141032	-0.365769204	 0.102334
H	-2.5478480592	 1.011035752	-1.0229474374	 0.118756
H	-2.0515646839	-0.3158832445	-2.0687114258	 0.08545
H	-1.1237498921	-2.5709038202	 0.8596515145	 0.083214
H	-2.0881241861	-2.521471294	-1.7792185518	 0.284396
