27
gdb 117659	2.42659	1.00111	0.88391	0.94	92.83	-0.2436	0.0774	0.321	1554.8215	0.248272	-390.701945	-390.689866	-390.688922	-390.738995	44.885	
C	 0.0057713068	 1.5618386078	 0.2631877825	-0.378381
C	 0.126702446	 0.0773157116	-0.048904709	-0.045695
O	 0.638976219	-0.5588263945	 1.1047834994	-0.294222
C	 0.7294170054	-1.9961333279	 1.1324373471	 0.379518
C	-0.6847123344	-2.589752035	 1.2490209983	-0.427241
C	 1.4300021625	-2.5393973215	-0.1229512749	-0.434546
C	 1.5455962593	-2.2578287641	 2.4333561503	 0.04163
C	 1.6162280512	-3.7339882768	 2.8501037249	-0.410894
C	 2.9560959821	-1.651999776	 2.3731543034	-0.40478
H	 0.9813552562	 1.9762518778	 0.533458025	 0.123668
H	-0.3746445374	 2.1062558442	-0.6066350749	 0.109812
H	-0.6767690014	 1.7229989017	 1.102438043	 0.12281
H	-0.8589611854	-0.3254135599	-0.3279552331	 0.084233
H	 0.7923262597	-0.0708792331	-0.9125247346	 0.086988
H	-1.3110160861	-2.2789884979	 0.4079276639	 0.111024
H	-0.6615081737	-3.6826288532	 1.2431293286	 0.115935
H	-1.1660303314	-2.2564248312	 2.1734652339	 0.115573
H	 2.3752830952	-2.0225167318	-0.3058390149	 0.122969
H	 1.6388514902	-3.6072405939	-0.0133803158	 0.116593
H	 0.8010610902	-2.4235339845	-1.0103206376	 0.112864
H	 0.9919157079	-1.7159872654	 3.2113694497	 0.077672
H	 2.1256771249	-4.346673748	 2.0978534324	 0.112585
H	 2.1870178555	-3.8284775497	 3.7796167797	 0.112186
H	 0.6295754597	-4.1689873206	 3.0283896644	 0.113466
H	 3.61080376	-2.2173643317	 1.7003964609	 0.105819
H	 2.9198604503	-0.6162700466	 2.0310046225	 0.126334
H	 3.4185735278	-1.6716786598	 3.3654171749	 0.10408
