23
gdb 67704	2.08942	1.87738	1.63115	0.1918	87.36	-0.2474	0.0786	0.326	1034.2369	0.209477	-351.179524	-351.171736	-351.170792	-351.211313	32.292	
C	-0.0250161037	 1.4874735562	-0.0068663377	-0.504693
C	 0.0044158313	-0.0186627608	-0.0012601379	 0.3526
C	-0.2873850943	-0.8904465308	-1.2018470653	-0.086323
C	 0.7684652082	-1.9846228326	-1.3395163929	-0.236381
C	 1.8161993603	-1.6482115264	-0.2484173177	-0.198199
C	 1.064263072	-0.8074902895	 0.8105003679	-0.090863
C	 0.2365764037	-1.6716079948	 1.7911985056	-0.198195
C	-1.0782023322	-2.0119392129	 1.0448993863	-0.236384
C	-1.2212458949	-0.9042647501	 0.0039483393	-0.08634
H	 0.909752375	 1.9080282457	-0.3973252927	 0.112433
H	-0.8410723482	 1.8624661527	-0.6336564943	 0.112304
H	-0.1723354515	 1.8920641369	 1.0019533175	 0.112432
H	-0.6869932779	-0.4419413745	-2.1065058007	 0.071798
H	 0.3435175757	-2.9856463373	-1.1991869022	 0.098233
H	 1.2120784414	-1.9756559483	-2.3395616895	 0.092944
H	 2.2955968064	-2.535358918	 0.178818551	 0.087114
H	 2.6098592985	-1.0354659515	-0.6908910834	 0.093404
H	 1.751118099	-0.1491377005	 1.3500047011	 0.060621
H	 0.7799922928	-2.557823838	 2.1357318786	 0.087115
H	 0.0000250534	-1.0741388789	 2.6790100945	 0.093405
H	-1.037614631	-3.0060797781	 0.584078484	 0.098233
H	-1.9354548445	-2.0221786149	 1.7245891302	 0.092944
H	-2.2020367994	-0.4643672335	-0.1502989316	 0.071798
