16
gdb 44615	2.93363	1.94253	1.54026	5.2079	66.08	-0.2395	0.0035	0.243	873.7397	0.128065	-437.901256	-437.894959	-437.894014	-437.931939	25.623	
O	-0.0047829547	 0.007861029	 0.1095366783	-0.325669
C	 0.0142962896	 1.1918158918	-0.0227743268	 0.463942
O	-1.1299847792	 1.944798608	-0.125641953	-0.222932
C	-0.8033322384	 3.2711048018	-0.5092008012	 0.084402
C	-0.019099369	 4.1363044545	 0.448468555	-0.095084
C	 0.4611141691	 3.4909730652	 1.7578584012	-0.210456
N	 1.4756249235	 2.4764257032	 1.3931759229	-0.280519
C	 1.2223606615	 2.1546268274	-0.0257711126	-0.193308
C	 0.6722376971	 3.4219332346	-0.6993175419	-0.116496
H	-1.5499619687	 3.6928202778	-1.16971398	 0.11629
H	-0.1976693462	 5.2047792039	 0.4119057533	 0.099002
H	 0.8908276351	 4.2326253208	 2.4351528504	 0.112077
H	-0.3705379871	 3.0066146688	 2.2809793166	 0.133591
H	 2.3983630055	 2.894663146	 1.4547914974	 0.225517
H	 2.0900686081	 1.6885362646	-0.4893396616	 0.106293
H	 1.1425546236	 3.8975133226	-1.5491814482	 0.103349
