14
gdb 5668	5.2584	2.17881	1.54051	3.2982	69.1	-0.1761	0.0489	0.225	767.0148	0.110597	-341.625447	-341.618991	-341.618047	-341.655651	25.074	
N	-0.044373934	 1.3441536481	 0.009889076	-0.408927
C	 1.2628828056	 1.8387334004	 0.0000380479	-0.072138
C	 2.1528889063	 0.793238366	-0.0143274965	-0.326692
C	 1.3815624694	-0.4158263303	-0.0134329946	 0.313912
C	 0.0486290551	-0.0179430002	 0.0018384388	 0.389452
N	-0.7758690484	-1.1061617116	 0.0036728835	-0.408927
C	 0.046328953	-2.2363893317	-0.0105977059	-0.072138
C	 1.3638428565	-1.8498437937	-0.0213713015	-0.326692
H	-0.8765848158	 1.9043370703	 0.0227213757	 0.255599
H	 1.4307481917	 2.9036784991	 0.004207174	 0.111267
H	 3.2274098227	 0.8937013885	-0.0243774947	 0.089209
H	-1.7790104623	-1.11849544	 0.0136846199	 0.255599
H	-0.3970913779	-3.2190802459	-0.011647548	 0.111267
H	 2.2074537377	-2.5228702803	-0.0334271446	 0.089209
