17
gdb 82711	2.35902	2.17324	1.61775	4.4807	71.17	-0.2313	-0.0142	0.2171	891.3204	0.137381	-417.952512	-417.945391	-417.944447	-417.983845	28.255	
C	-0.0459748403	 1.5861105423	 0.0228247426	-0.409869
C	 0.0301924756	 0.0772185985	-0.0406071538	 0.049658
C	 0.7442252308	-0.6330939397	-1.2235763558	-0.058885
N	 2.0770177197	 0.0014476584	-1.4904643478	-0.322374
C	 2.7030382284	-0.8013169859	-0.3677874457	-0.185058
C	 1.3758865872	-1.5835138197	-0.1747982008	 0.006985
N	 0.9756769007	-0.63015264	 0.9398672153	-0.213111
C	 2.2992968961	-0.0320792166	 0.903023809	 0.451575
O	 2.7905447578	 0.7881194639	 1.6143452191	-0.315375
H	 0.9079317154	 2.0397321609	-0.2541593723	 0.152242
H	-0.8132726581	 1.9453431198	-0.6710781957	 0.116615
H	-0.3147457062	 1.9153879866	 1.0307149685	 0.138573
H	-0.9563664697	-0.3728480443	 0.1129592343	 0.095013
H	 0.1700973592	-0.905386957	-2.1102438954	 0.078804
H	 2.4392331621	-0.3513359686	-2.3709104054	 0.232879
H	 3.712263239	-1.175866239	-0.5374572295	 0.092211
H	 1.2348303524	-2.6521208996	-0.0302947267	 0.090117
