15
gdb 32264	2.69771	1.65124	1.03093	0.4965	72.96	-0.2233	-0.0311	0.1923	1095.1801	0.114176	-454.00044	-453.992783	-453.991839	-454.03274	28.465	
C	-0.0006771811	 1.4376040107	-0.0138381813	-0.234536
O	-0.0101640546	 0.0093765154	 0.0250255963	-0.250283
C	 0.6144156653	-0.5661041997	 1.0622795195	 0.376115
N	 1.2044360868	 0.1432629082	 1.9946122782	-0.341576
C	 1.8067180369	-0.5271163626	 2.9992473575	-0.043026
C	 1.805174931	-1.9025942298	 3.0489527967	-0.042199
N	 1.1995513856	-2.6375377279	 2.0922298045	-0.333814
C	 0.6135761725	-1.9903355297	 1.114984608	 0.336832
O	-0.0045314837	-2.6749380527	 0.1361029567	-0.402198
H	 1.0226318733	 1.8209473105	-0.0596532306	 0.13695
H	-0.5496167876	 1.7057268399	-0.9167899692	 0.133715
H	-0.4897984504	 1.8562942012	 0.8702883437	 0.136942
H	 2.2914831592	 0.0700705282	 3.7646970414	 0.112425
H	 2.2877254206	-2.4465358478	 3.8541150171	 0.113947
H	 0.1076564062	-3.6113607538	 0.3540597714	 0.300707
