17
gdb 72392	2.7342	1.9699	1.41647	0.9739	71.41	-0.218	0.0015	0.2195	924.3724	0.136899	-421.781635	-421.77465	-421.773706	-421.812582	28.849	
O	-0.0903318758	 1.3472660773	-0.1164976731	-0.470137
C	-0.038308536	-0.053858853	-0.0289991	 0.359449
C	 1.0602734234	-0.7176032158	-0.8578651563	-0.351766
C	 0.6856613874	-2.069175455	-1.4129666182	-0.047546
C	-0.3689405946	-2.7546407237	-0.9755891843	-0.057178
C	-1.2055617943	-2.1724876612	 0.1267884145	 0.039858
O	-0.4294522267	-2.0099911399	 1.3769169493	-0.30581
C	-0.5685196701	-0.5982460904	 1.2830616739	 0.027421
C	-1.4200331394	-0.6531800015	 0.0426394189	-0.19762
H	 0.6547427373	 1.7027590659	 0.3810929579	 0.284962
H	 1.2973970577	-0.0394841968	-1.6874584115	 0.118657
H	 1.9841067606	-0.8080172447	-0.2672036454	 0.116742
H	 1.3245600206	-2.4693491056	-2.1957692433	 0.097232
H	-0.6226199259	-3.7294842887	-1.378643059	 0.092266
H	-2.1103820428	-2.7472570734	 0.3358168438	 0.086149
H	-0.6359275937	-0.0155595501	 2.1951005963	 0.101362
H	-2.3171488477	-0.1291850133	-0.2559568535	 0.105956
