20
gdb 94205	2.92626	1.21985	1.10623	2.064	74.6	-0.2417	0.0493	0.291	1196.3719	0.169994	-440.235483	-440.226179	-440.225234	-440.269945	34.532	
C	-0.2862630352	 1.4507791929	 0.1117651494	-0.418046
C	 0.0544690808	-0.024689362	 0.0147005301	 0.095781
O	 1.1546185568	-0.2834562882	-0.8922743723	-0.292389
C	 2.009181238	-0.7477319393	 0.1689312194	-0.122739
C	 0.8525413273	-0.6709546479	 1.1972850297	 0.281006
O	 1.0530276947	 0.1050877346	 2.3548377711	-0.476675
C	 0.3191639424	-2.0159054118	 1.6331615449	-0.001757
C	 0.7511560057	-2.6358673229	 2.9081955649	-0.252943
N	-0.6217067624	-2.1125449365	 2.7562662675	-0.335382
H	 0.5895243453	 2.0567404396	 0.3714620118	 0.104707
H	-0.6517721761	 1.8103853318	-0.854473584	 0.136404
H	-1.0663200197	 1.6205797456	 0.8607226866	 0.129642
H	-0.8344761837	-0.5964699629	-0.2803205783	 0.087162
H	 2.4219841473	-1.7434037879	-0.0304723391	 0.109052
H	 2.8361983723	-0.0542805628	 0.3786764248	 0.09042
H	 1.3448815211	 0.9842151956	 2.096551611	 0.28858
H	 0.0771805165	-2.66531434	 0.7940646639	 0.097412
H	 0.8240992168	-3.7169841234	 2.9841058386	 0.115022
H	 1.4433531389	-2.0770964375	 3.5294908675	 0.125042
H	-0.6614940268	-1.2022607269	 3.2109576425	 0.239701
