17
gdb 62439	3.88924	1.21662	1.19923	0.9458	81.43	-0.2201	0.0111	0.2312	1091.1231	0.134956	-384.645573	-384.637449	-384.636505	-384.677751	32.066	
O	-0.1030453249	 1.3863243844	 0.0742520411	-0.448226
C	-0.0312530301	-0.0063333935	-0.0034824157	 0.191988
C	 1.066522585	-0.6021630493	 0.713899518	 0.265918
C	 2.0062882237	-1.0868103439	 1.2886000282	-0.415675
C	-1.352448569	-0.7356163333	-0.0203403693	-0.107246
C	-2.5961044368	 0.0973318634	-0.3418437083	-0.281757
C	-2.3776177829	 0.537422428	-1.7729317528	-0.062248
C	-1.2411694485	 0.0538291501	-2.2794866279	-0.086926
C	-0.4944402341	-0.7531792591	-1.278338655	-0.159621
H	 0.6707894824	 1.7512937376	-0.3690808018	 0.28747
H	 2.8277913499	-1.512307088	 1.8097149546	 0.192068
H	-1.44566391	-1.6067311777	 0.6158577757	 0.101772
H	-3.5091763199	-0.5014106091	-0.2315746605	 0.106386
H	-2.6950578361	 0.9561377532	 0.3325154956	 0.129518
H	-3.0653617385	 1.1979082451	-2.28841493	 0.096151
H	-0.8654443786	 0.2371452901	-3.2792149235	 0.092841
H	 0.0922224786	-1.6147792679	-1.5753865582	 0.097588
