21
gdb 92016	2.81037	1.5835	1.19974	2.3591	81.6	-0.2264	0.0661	0.2925	1099.4402	0.185868	-383.232195	-383.224445	-383.2235	-383.264046	31.752	
C	 0.0662290584	 1.5495468623	 0.0403500079	-0.397462
C	 0.0001815982	 0.0176194119	 0.0084432547	 0.022715
C	 0.6477678775	-0.5366360975	-1.281529261	-0.209956
C	 0.7010262705	-2.0580439402	-1.3119198731	-0.060992
N	 2.02600214	-2.6844142897	-1.1203409877	-0.323562
C	 1.0206605699	-2.774601553	-0.0484884861	-0.016204
C	 1.198914613	-1.9652787925	 1.2070965837	-0.046198
N	 2.098780263	-0.8003753607	 1.1713647842	-0.325099
C	 0.6465509968	-0.5805802732	 1.2488736812	-0.019283
H	 1.1083332474	 1.8858519268	 0.0616621293	 0.12669
H	-0.4113334939	 1.9846272339	-0.8440211239	 0.108029
H	-0.4371038246	 1.9541939294	 0.9252409061	 0.103764
H	-1.0581125596	-0.2844903884	 0.0243856113	 0.065706
H	 0.0895793065	-0.1626105348	-2.1464587514	 0.086102
H	 1.6685135281	-0.1527318118	-1.3553741501	 0.132653
H	 0.0141255476	-2.5506346044	-1.9964650902	 0.077142
H	 2.0632097459	-3.5703466713	-1.6186681952	 0.225428
H	 0.5451673656	-3.7391892123	 0.1176868684	 0.073678
H	 1.1686979873	-2.5400216805	 2.1300660617	 0.074649
H	 2.535218771	-0.6744210262	 2.0797321053	 0.229717
H	 0.2329296312	-0.2365713679	 2.196081885	 0.072484
