23
gdb 63932	2.29188	1.58727	1.41723	1.5555	84.84	-0.2366	0.0775	0.3141	1106.3676	0.204469	-388.274367	-388.265021	-388.264077	-388.307635	36.875	
C	 0.2118616606	 1.4882682651	-0.0135806562	-0.446962
C	 0.0221400682	-0.0252854283	-0.002014178	 0.288996
C	-1.4459396801	-0.3953611653	-0.2309036701	-0.448675
C	 0.9676786838	-0.8511329776	-0.9458141288	-0.284731
C	 1.4788307309	-1.6909772649	 0.255145774	-0.128393
C	 2.7071415259	-1.0877522938	 0.9395148366	-0.086739
O	 1.8936569098	-0.1351417525	 1.6608339677	-0.32799
C	 0.6600445186	-0.7761116501	 1.2213748733	 0.422846
C	-0.1696347103	-1.2096324017	 2.4040607622	-0.484424
H	 1.243667545	 1.7527947575	 0.2264733513	 0.128831
H	-0.0373832568	 1.9002246731	-0.9982893317	 0.104963
H	-0.4386178982	 1.9751216188	 0.7226268154	 0.107952
H	-1.7799016823	-0.0189209608	-1.204548651	 0.112918
H	-1.6009315217	-1.4798959864	-0.229285541	 0.109584
H	-2.0956745214	 0.0394271511	 0.5363174047	 0.113959
H	 0.4330310774	-1.4257401171	-1.7063718998	 0.09553
H	 1.7477523744	-0.2673004614	-1.443772402	 0.094427
H	 1.3853685426	-2.7752382201	 0.2035358546	 0.0714
H	 3.2288820762	-1.7654632866	 1.6290499075	 0.095203
H	 3.4470086002	-0.6006095611	 0.2916116772	 0.096305
H	-0.4940528802	-0.3337815286	 2.9778775174	 0.127104
H	-1.0594632226	-1.7656879257	 2.0975876002	 0.117834
H	 0.4229280003	-1.8431728637	 3.0710199867	 0.120063
