18
gdb 96419	2.10489	1.64879	1.20187	3.5264	71.34	-0.2744	0.0254	0.2998	1082.066	0.149202	-439.105183	-439.096933	-439.095989	-439.137933	31.388	
O	 0.0735935832	 1.4209641443	-0.0549221254	-0.43374
C	 0.0326997276	 0.0147153493	 0.0185936239	 0.122271
C	 0.8228847083	-0.5604610223	 1.197694013	-0.242249
C	 0.6996204049	-2.0873019707	 1.2326810583	-0.084371
O	-0.6578599965	-2.5016006194	 1.2829090646	-0.231026
C	-1.3910471928	-2.0777847763	 0.1611991837	-0.094901
C	-1.4232217907	-0.5352397455	 0.0405035872	-0.185824
C	-2.1667504666	 0.0822175636	 1.1404655142	 0.271654
N	-2.71800333	 0.6097113728	 2.0093924538	-0.330912
H	-0.3096977733	 1.7776407315	 0.756217458	 0.294296
H	 0.481371211	-0.3340133364	-0.9195400177	 0.098585
H	 1.8730229492	-0.2632911281	 1.1146053736	 0.113997
H	 0.4308634115	-0.1468936003	 2.1351487212	 0.123403
H	 1.1920273015	-2.526518301	 0.3481571855	 0.093149
H	 1.1770921325	-2.5017133605	 2.1237674304	 0.121921
H	-0.9557913841	-2.4786816543	-0.7699393106	 0.099557
H	-2.4007323665	-2.480560089	 0.2696378436	 0.13262
H	-1.9180558689	-0.2541796978	-0.8960877473	 0.13157
