18
gdb 70961	3.88799	1.27845	1.14066	1.7974	83.66	-0.2434	0.0204	0.2638	1119.6791	0.146954	-364.730748	-364.722724	-364.72178	-364.762818	31.872	
C	-0.0942704167	 1.4651596815	 0.0493803132	-0.498144
C	 0.101545962	-0.0164940146	-0.0363823227	 0.336686
C	 0.097556498	-0.8727390674	-1.2913075948	-0.333273
C	-0.2279610918	-2.0377347388	-0.3259311326	 0.241315
C	 1.039764065	-2.2110313447	 0.5479535111	-0.285409
C	 0.6832796284	-0.8360197009	 1.0722931541	-0.088875
N	-0.7775532791	-0.9813479351	 0.7201041597	-0.221188
C	-1.0226238582	-3.1570163364	-0.7331713814	 0.078739
C	-1.6804432997	-4.1018400961	-1.0816492094	-0.334309
H	 0.7933022517	 1.9985541301	-0.3095554707	 0.122788
H	-0.9503728487	 1.7827750673	-0.5547855645	 0.127059
H	-0.2792969941	 1.7718860585	 1.0833691414	 0.131122
H	-0.762752872	-0.6364061764	-1.922332136	 0.118231
H	 1.0022094605	-0.9538819484	-1.9029735159	 0.098438
H	 0.8855617551	-2.97891358	 1.308992082	 0.122971
H	 1.9937630135	-2.3719808941	 0.0357136259	 0.100861
H	 0.9801038644	-0.3909018212	 2.0152498191	 0.096894
H	-2.2654194585	-4.9341930733	-1.3860350984	 0.186094
