17
gdb 16853	3.66832	2.02538	1.60854	3.2911	68.93	-0.2517	0.0311	0.2828	834.7162	0.14479	-363.869737	-363.863003	-363.862058	-363.900634	26.454	
N	-0.1862377595	 1.3375867686	 0.1120164757	-0.516118
C	-0.0286091235	 0.1025838905	-0.1194564802	 0.382228
C	-1.1443819125	-0.8889988681	 0.1192835081	-0.293636
C	-1.1785087755	-2.0116939177	-0.902255165	-0.031202
C	-0.7453852723	-1.7634791559	-2.328910261	-0.296741
C	 0.1640996841	-2.4947937337	-1.3731563314	-0.035872
C	 1.3552577209	-1.7843637425	-0.7701257544	-0.099764
O	 1.153156014	-0.3747469426	-0.6151321133	-0.249835
H	 0.6799668793	 1.8424877457	-0.0893280373	 0.215931
H	-1.0091370679	-1.325032508	 1.1194270314	 0.123553
H	-2.0759047713	-0.3198717646	 0.1483711603	 0.138695
H	-1.9615270481	-2.7463087014	-0.7440891863	 0.090496
H	-1.224136419	-2.3443882661	-3.1089114246	 0.114073
H	-0.4816710869	-0.7534606234	-2.622875525	 0.135129
H	 0.3175719316	-3.5591538996	-1.5234505211	 0.0919
H	 1.6026074201	-2.2262796074	 0.2063120977	 0.108868
H	 2.2414964964	-1.8686340538	-1.4061830337	 0.122296
