21
gdb 87681	3.34465	1.05742	0.96473	1.8335	79.52	-0.2519	0.0656	0.3174	1331.0578	0.179338	-424.206859	-424.1972	-424.196256	-424.241097	37.02	
C	 0.0918454717	 1.5236708368	-0.2685547931	-0.414732
C	 0.0248551316	 0.0361052091	-0.0485849957	-0.020631
O	 1.2736782688	-0.6835278967	-0.0761499082	-0.300319
C	 0.5582019148	-0.6229769439	 1.1453065647	 0.452849
C	 1.0887157842	-0.0073739915	 2.4422230533	-0.336007
C	 0.2262474706	-1.0412883779	 3.2241786653	 0.40438
C	 0.8668349053	-1.7662805098	 4.3968141737	-0.454628
O	-0.9647484475	-0.37036485	 3.618839013	-0.479512
C	 0.0255870617	-1.846088609	 1.8940899084	-0.365767
H	 0.9097069387	 1.9669544998	 0.3049350039	 0.127053
H	 0.2546155911	 1.750095673	-1.3275274592	 0.127032
H	-0.8474026063	 1.997304089	 0.0373618014	 0.124227
H	-0.7804491311	-0.477285877	-0.5786979218	 0.085289
H	 2.162200956	-0.1762012517	 2.564109839	 0.108048
H	 0.8529990574	 1.0383411115	 2.6491743972	 0.114982
H	 1.0630924852	-1.0664343219	 5.2151604091	 0.126256
H	 0.2039766351	-2.554862518	 4.7753712296	 0.106406
H	 1.8102115823	-2.2384717421	 4.1066874143	 0.117482
H	-1.5749526539	-1.0328481743	 3.9613743943	 0.273958
H	-0.9957853251	-2.1711489259	 1.678303082	 0.09665
H	 0.7062164195	-2.6987434094	 1.8071605892	 0.106983
