14
gdb 55663	2.67682	1.02597	0.86719	4.9611	64.7	-0.2908	-0.0608	0.23	1328.7897	0.096674	-473.865175	-473.855531	-473.854587	-473.90186	31.45	
C	 0.1061593207	 1.499489821	-0.155270725	-0.486097
C	-0.1571472731	 0.0333429783	 0.0440012933	 0.448128
O	-0.6095163612	-0.4910350018	 1.0234369533	-0.324658
O	 0.2034685657	-0.666040199	-1.08281347	-0.249894
C	 0.0621330857	-2.086400247	-1.0147304806	-0.133696
C	-0.8487462375	-2.5276444266	-2.1721368745	 0.160137
O	-0.7434604448	-3.5665231637	-2.7536566787	-0.208413
C	 1.3756537364	-2.7298271247	-1.0430032191	 0.301786
N	 2.4147333781	-3.2318279907	-1.0600087647	-0.301624
H	 1.1841756724	 1.6651178733	-0.2425338378	 0.170738
H	-0.3526671983	 1.844618147	-1.0850955772	 0.160582
H	-0.2859294923	 2.0567652797	 0.6940445833	 0.161911
H	-0.4478681499	-2.3396655478	-0.0732362065	 0.189391
H	-1.6354893318	-1.775666138	-2.3921935559	 0.111708
