18
gdb 97981	2.61003	0.63442	0.5329	3.2847	81.86	-0.2493	0.0146	0.2639	2050.4206	0.144077	-439.030679	-439.019818	-439.018874	-439.069193	35.912	
C	 0.1024217751	 0.3883175864	 0.8171196278	-0.31473
N	-0.3221437894	-0.1701617556	-0.4494030416	-0.204111
C	-1.2794553189	-0.9827682965	-0.4305673262	 0.137571
O	-1.7362677628	-1.5260247928	-1.5834218843	-0.194809
C	-2.8084358085	-2.4628884782	-1.44287292	-0.242986
C	-2.4055968541	-3.7304008819	-0.8445448633	 0.094775
C	-2.0643702261	-4.7664733421	-0.3360255798	 0.077756
C	-1.6424443697	-6.0299916588	 0.2530348047	-0.214543
O	-1.964431441	-6.044665482	 1.637357538	-0.408526
H	 1.1595975314	 0.1535067734	 0.985561063	 0.128029
H	 0.0217469044	 1.4808547597	 0.782537478	 0.127132
H	-0.4741060781	 0.026227433	 1.684183729	 0.09756
H	-1.8148167592	-1.31126906	 0.4731658989	 0.085352
H	-3.6276392443	-2.0171424284	-0.8612953535	 0.138772
H	-3.1783455309	-2.6186054317	-2.4601087639	 0.152603
H	-2.1379153027	-6.8554945694	-0.2836460014	 0.122098
H	-0.5590925958	-6.1501579859	 0.0901671884	 0.125608
H	-1.6608443596	-6.8857397791	 1.9940832161	 0.29245
