21
gdb 88016	2.74969	1.298	1.11423	1.3969	83.03	-0.2261	0.0734	0.2995	1194.9402	0.18125	-387.041168	-387.031964	-387.031019	-387.075542	34.968	
O	 0.165348228	 1.3142002981	-0.1339503494	-0.422752
C	 0.0194231706	-0.0703459609	 0.0084570361	 0.081628
C	-0.505496692	-0.7036551177	 1.2703384579	-0.41095
C	-1.3301390293	-0.7280948167	 0.0026029513	 0.251663
C	-2.6403934184	 0.018058871	-0.2914184983	-0.315018
C	-2.9816208268	-1.0755653478	-1.3532584012	-0.303649
C	-1.7883474983	-1.9023210925	-0.8452277946	 0.319462
C	-0.9663928463	-2.9130172557	-1.5858021049	-0.33343
C	-1.8362586375	-3.3432665575	-0.4246621651	-0.31993
H	-0.4637393324	 1.7499622891	 0.4493992175	 0.284191
H	 0.8306705853	-0.5717149237	-0.5111543547	 0.10411
H	-0.0477717188	-1.6251847298	 1.6199541824	 0.112823
H	-0.8405315641	-0.0483267926	 2.0714541855	 0.104392
H	-3.3395477267	 0.0363124243	 0.5494454556	 0.102226
H	-2.5215661855	 1.034795121	-0.6777841114	 0.100557
H	-3.9649163887	-1.5430597768	-1.2577922485	 0.099462
H	-2.8584022626	-0.722711432	-2.3810190035	 0.106412
H	-1.2761578768	-3.1846855132	-2.5901714524	 0.111001
H	 0.1101322062	-2.9109014915	-1.442287619	 0.109422
H	-1.3457700019	-3.6228132115	 0.5029628971	 0.109187
H	-2.7382137642	-3.9084914936	-0.6386510303	 0.109193
