21
gdb 120771	4.0136	0.72271	0.66286	2.6126	81.18	-0.2525	0.0844	0.3369	1763.2339	0.180518	-424.17503	-424.165194	-424.16425	-424.211139	35.	
C	-0.3773544165	 1.3645780811	-0.0047872242	-0.224559
O	-0.2173409125	-0.0313249061	-0.0760432019	-0.233229
C	 0.81329583	-0.4201928655	-0.9574934668	-0.083489
C	 0.8887564641	-1.9238161553	-0.9501039067	 0.033933
O	 0.1109876476	-2.6368940866	-1.9180385563	-0.262914
C	 1.5384193606	-2.7150923747	-2.0067692686	 0.058724
C	 2.1990174992	-2.1472490906	-3.2176739545	-0.008234
C	 3.670733516	-2.4149942585	-3.4394644199	-0.269221
C	 2.646766517	-3.0839707542	-4.3155094831	-0.267676
H	 0.5391263787	 1.8643916355	 0.3489051339	 0.101518
H	-0.6464861023	 1.7967107924	-0.9817375212	 0.105363
H	-1.1846349752	 1.5650574795	 0.7035889825	 0.129481
H	 0.6149694565	-0.0539331759	-1.97599101	 0.096224
H	 1.7799206158	 0.0035296474	-0.6296435947	 0.088352
H	 0.8477439057	-2.3471028382	 0.0550518007	 0.0956
H	 1.9426610654	-3.6862244213	-1.7069039738	 0.083596
H	 1.8271201041	-1.1797243326	-3.5356539669	 0.088985
H	 4.2747073986	-1.6181863136	-3.8582292669	 0.116377
H	 4.1895959953	-3.0253142879	-2.707328831	 0.115143
H	 2.4704377675	-4.1449868558	-4.1726073766	 0.118744
H	 2.5432852947	-2.7498080393	-5.3414370741	 0.117282
