17
gdb 65793	2.2369	1.57221	1.35724	3.4697	80.29	-0.2368	-0.0512	0.1856	1049.4006	0.134421	-384.693877	-384.685192	-384.684248	-384.72742	32.706	
C	-0.0295388432	 1.5437439979	 0.0371586314	-0.425723
C	-0.0122975674	 0.0019214138	-0.0376253927	-0.010858
C	 0.8139835923	-0.5399558756	-1.2420482387	-0.317075
C	 1.9448366216	-1.3114068303	-0.6168399667	-0.047548
C	 1.9140543147	-1.3197690886	 0.7199996077	-0.175654
C	 0.7653142945	-0.5377039429	 1.2160961194	 0.370496
O	 0.4678034695	-0.3003751651	 2.3597219998	-0.3337
C	-1.3698353604	-0.5301075615	-0.0300125181	 0.341804
C	-2.487338052	-0.9732192158	-0.0282769167	-0.495241
H	 0.9919041761	 1.9365073154	 0.0001641766	 0.117215
H	-0.5982771396	 1.9641612762	-0.79621508	 0.125149
H	-0.4886486481	 1.8588009473	 0.976626076	 0.150513
H	 0.2125604102	-1.1807333444	-1.8949776386	 0.135903
H	 1.1929098426	 0.2747475241	-1.8712416843	 0.123609
H	 2.6987470087	-1.8010076994	-1.22463416	 0.120542
H	 2.6157240538	-1.7999916676	 1.389491883	 0.122504
H	-3.4753449633	-1.3619953736	-0.0153802381	 0.198064
