15
gdb 36592	3.03491	0.92721	0.77328	3.911	70.51	-0.3171	-0.0153	0.3019	1406.8747	0.11148	-416.809107	-416.800263	-416.799318	-416.843747	30.776	
N	 0.0318892047	-1.1756358897	-0.0344788704	-0.295708
C	 0.0324676573	-0.0244750001	-0.1317587991	 0.258908
C	 0.0621328381	 1.4308258601	-0.2448104026	-0.345074
C	 1.3766187844	 2.0231651797	 0.3068184271	-0.281638
C	 1.4141748735	 3.5305104174	 0.1447313817	 0.247186
C	 2.6517527365	 4.2356615112	-0.2462411375	-0.208763
O	 1.6076491598	 4.0106557273	-1.1898995066	-0.246925
C	 0.4188472428	 4.2654484877	 0.9114729653	 0.265835
N	-0.3847553638	 4.8109341759	 1.5377523795	-0.322603
H	-0.0523809806	 1.7086078915	-1.2981049274	 0.175
H	-0.7978393346	 1.8450275827	 0.2934722514	 0.177381
H	 1.4896688745	 1.7640446003	 1.3640781722	 0.147747
H	 2.2269178732	 1.5991472273	-0.2334084867	 0.141879
H	 2.7960332358	 5.2702717724	 0.0560563351	 0.148297
H	 3.5556968984	 3.6474410961	-0.3924010918	 0.138477
