15
gdb 24943	4.91449	1.28187	1.02324	4.0514	73.09	-0.1814	0.0156	0.197	1082.7669	0.115136	-416.873596	-416.866211	-416.865267	-416.905709	28.186	
O	 0.0421138917	 0.0049271812	 0.0231842767	-0.360886
C	-0.018158117	 1.2094126488	 0.0021528261	 0.409827
C	-1.2899498947	 2.1061607777	 0.0279526447	-0.499001
C	-0.7207615078	 3.4950249854	 0.0498279001	 0.255521
C	 0.6421271299	 3.3852766462	 0.0151340912	 0.409309
N	 1.2196005262	 4.6127646166	-0.0047536861	-0.392065
C	 0.1896433932	 5.5547058677	 0.0266775137	-0.087831
C	-1.0154245311	 4.8876153413	 0.0555841143	-0.313101
N	 1.0864369936	 2.0657506584	-0.0450557603	-0.447722
H	-1.8964176888	 1.8706234568	-0.8542665516	 0.143581
H	-1.8873495144	 1.8290428875	 0.9036509951	 0.142979
H	 2.2008899046	 4.8249912402	-0.0269124733	 0.263524
H	 0.4189211756	 6.6068616009	 0.0365201519	 0.119024
H	-1.9857323522	 5.359287884	 0.0825518702	 0.097615
H	 2.0280227911	 1.7222796172	 0.0412319575	 0.259228
