17
gdb 13825	4.40386	1.45872	1.12318	4.3721	74.93	-0.1996	-0.0225	0.1771	1044.1559	0.142902	-363.898487	-363.890498	-363.889554	-363.931095	29.007	
C	-0.0894799053	 1.5115572392	 0.0349791362	-0.487704
C	-0.0786568819	-0.0113846785	 0.0544493887	 0.275832
O	-0.1474249381	-0.6252782952	 1.1099979918	-0.347677
C	 0.0062914336	-0.6858736094	-1.2366173931	 0.169248
C	 0.0626949595	-2.0312526624	-1.3777181284	-0.060049
N	 0.2173597706	-2.4371601783	-2.6774022531	-0.283649
C	-0.059492584	-1.287881469	-3.558978033	-0.163372
C	 0.1390071899	-0.0656501159	-2.6226490612	-0.334454
H	 0.8131828872	 1.9018104356	-0.4498824232	 0.127739
H	-0.9453170202	 1.8875334525	-0.5380155274	 0.127814
H	-0.1453139577	 1.8854772885	 1.0578166992	 0.133877
H	 0.0383941485	-2.7556641072	-0.5742280388	 0.145249
H	-0.1097081095	-3.3509325862	-2.9515203603	 0.24799
H	 0.6117214025	-1.2847106017	-4.421440604	 0.11616
H	-1.0931246306	-1.3309714152	-3.9301914807	 0.108474
H	-0.5906592073	 0.7218529564	-2.8320673856	 0.11148
H	 1.1340171728	 0.3766953566	-2.7684461273	 0.113043
