19
gdb 73104	2.86278	1.49852	1.21867	4.0368	75.17	-0.2347	0.0673	0.302	1075.7237	0.161055	-419.257824	-419.249645	-419.2487	-419.290274	32.199	
C	-0.2434966041	 1.4927394681	 0.211830127	-0.452199
C	 0.0743849959	 0.0244239079	-0.0164463921	 0.335022
C	-1.1377834302	-0.9505315681	 0.2017833775	-0.269041
C	-0.4975355907	-1.4216637407	 1.5395131202	-0.225307
C	 0.8307797096	-0.7281930106	 1.1342587383	-0.028018
N	 1.7520727333	-1.5560655672	 0.3869096525	-0.346476
C	 1.8465929518	-1.2144342463	-0.9535489827	 0.427403
O	 2.5910318481	-1.7031760408	-1.7734317276	-0.410381
N	 0.9229580978	-0.1962472425	-1.1688127094	-0.392091
H	 0.6747239116	 2.0859416003	 0.2480366027	 0.127289
H	-0.8719450337	 1.8831999957	-0.5967836445	 0.11877
H	-0.7897005	 1.6328766812	 1.1503725986	 0.118869
H	-2.1242181688	-0.4852375071	 0.2681069497	 0.099523
H	-1.1690318927	-1.7357282525	-0.5563678882	 0.112234
H	-0.9531150264	-0.9523722702	 2.4158638862	 0.103476
H	-0.4359945908	-2.498654602	 1.7054167565	 0.107034
H	 1.3304934056	-0.1211218251	 1.8977805166	 0.076111
H	 2.5150247111	-2.0570102008	 0.8095312147	 0.251779
H	 0.5929861927	-0.0634152194	-2.1116365158	 0.246003
