22
gdb 120044	4.84444	0.87284	0.82768	1.8639	85.41	-0.2335	0.0829	0.3163	1491.104	0.19512	-367.148216	-367.139756	-367.138812	-367.18174	32.753	
C	-0.1392919812	 1.5334662594	 0.0401294088	-0.380222
C	 0.0365083402	 0.0125543902	 0.0466198519	-0.167982
C	 0.660898262	-0.5233794476	-1.2481025733	-0.192257
C	 0.8311367051	-2.0413075398	-1.2646193867	 0.000231
C	 1.5847862163	-2.5502358353	-2.4963123572	-0.04747
C	 2.8885971246	-2.5200936749	-1.7948915659	-0.050699
C	 2.0516832829	-2.580516087	-0.4567597909	-0.086463
C	 1.9815997919	-4.0907371368	-0.7283400531	-0.155862
N	 2.3010501374	-3.8359935261	-2.1738355758	-0.159063
H	 0.8236600116	 2.0431649471	-0.0764369357	 0.113981
H	-0.7830333843	 1.8537792035	-0.786768703	 0.114304
H	-0.5925535194	 1.8876353328	 0.9712122232	 0.111673
H	 0.6579260946	-0.2796075412	 0.9027972856	 0.096349
H	-0.9381281915	-0.4685163241	 0.2024573816	 0.095992
H	 0.0301122702	-0.2246650617	-2.0972888378	 0.0918
H	 1.6365776424	-0.0460876452	-1.414229973	 0.09457
H	-0.1274208999	-2.5283469934	-1.0383895527	 0.061409
H	 1.3624920116	-2.3804529549	-3.5424928046	 0.093496
H	 3.882654542	-2.1934255627	-2.0694941237	 0.094466
H	 2.309505099	-2.164785185	 0.5159892638	 0.07174
H	 2.8084408405	-4.6570134577	-0.2917724376	 0.10575
H	 1.033909984	-4.6097071796	-0.5388738539	 0.094257
