14
gdb 23565	2.51477	1.57004	1.08724	0.3313	66.71	-0.2565	-0.0223	0.2341	1064.5584	0.098758	-473.691709	-473.684068	-473.683124	-473.724	28.598	
O	-0.1195536905	 1.3398200744	 0.1074019969	-0.385263
N	 0.0260341265	-0.0394756129	-0.0735739449	-0.251734
C	-1.0914481112	-0.6309313824	-0.07747102	 0.35805
C	-2.552022916	-0.2839909279	 0.0931554286	-0.094707
O	-3.2321346549	-0.8993570174	-1.0235988601	-0.23199
C	-2.8976748653	-1.7262562201	 0.0904699287	-0.091733
C	-1.4251934791	-2.1099639716	-0.1056131325	 0.382698
C	-0.8017968036	-3.2630588497	-0.7478791993	-0.25546
O	-0.751912723	-3.0701579248	 0.6776785754	-0.268169
H	 0.7942117814	 1.6459625737	 0.1027210879	 0.313768
H	-3.0211506782	 0.5627531905	 0.5735328153	 0.131074
H	-3.6822026471	-2.2629546501	 0.6085611318	 0.130435
H	-1.4216037632	-4.0912771368	-1.0869627841	 0.12667
H	 0.1471022444	-3.1331811148	-1.2639636437	 0.136362
