16
gdb 66793	3.0078	2.28362	1.86354	1.5449	68.79	-0.2296	0.0624	0.292	783.346	0.126265	-400.665022	-400.659201	-400.658256	-400.694736	25.514	
O	-0.0700780133	 1.3873322578	-0.0202648669	-0.49212
C	-0.0009485424	 0.0065454824	-0.0470340807	 0.404524
C	-1.3429182449	-0.7507662024	-0.1416617881	-0.124232
C	-0.9556858782	-1.6243454156	 1.052412281	-0.088299
C	-0.827321006	-2.1462384807	-0.3547294922	-0.02863
N	 0.5800281886	-2.1553676044	-0.8126351994	-0.116129
C	 1.4226693976	-1.6184660906	 0.267321205	-0.060563
C	 1.0508865057	-0.7681155948	-0.9069608982	-0.149457
C	 0.4017380705	-0.8965519795	 1.1858230376	-0.171124
H	 0.8100136399	 1.7354715877	 0.160733446	 0.285364
H	-2.2993527702	-0.36511205	-0.4722621744	 0.093788
H	-1.5679185804	-2.0694060378	 1.8269192834	 0.090491
H	-1.4627871871	-2.9381037839	-0.7274099788	 0.100068
H	 2.346383917	-2.1231299385	 0.5282625775	 0.09335
H	 1.6024252495	-0.4355836072	-1.781570185	 0.089661
H	 0.7057365237	-0.4472606825	 2.1280620332	 0.073307
