17
gdb 15397	3.81156	1.06602	0.89854	1.6213	71.2	-0.2457	0.0332	0.2789	1265.2712	0.140822	-363.791882	-363.783099	-363.782155	-363.825755	31.7	
O	 0.2290425691	 1.3402632415	 0.046506471	-0.419449
C	 0.0422969785	-0.0572323124	 0.20112585	-0.055305
C	-1.291140057	-0.5427593814	-0.3752592599	-0.219635
C	-1.4523030286	-2.0375714765	-0.2435067946	-0.00934
N	-1.8460065862	-2.5434668981	 1.0768153117	-0.323503
C	-2.7853162573	-2.6992027242	-0.0615305858	-0.253462
C	-4.0198030466	-1.9647251219	-0.0170207731	 0.383312
C	-5.0637772109	-1.3682270486	-0.0130745365	-0.447615
H	-0.4524902132	 1.7839829406	 0.5614761765	 0.282013
H	 0.8775551782	-0.5255651442	-0.3325571699	 0.10432
H	 0.1161560289	-0.3627410105	 1.2556910775	 0.102903
H	-2.1184585261	-0.0503269952	 0.1479615814	 0.108763
H	-1.3541449398	-0.253054191	-1.4308466734	 0.108977
H	-0.7264238267	-2.6284199723	-0.8027450302	 0.090484
H	-1.4037262747	-3.4381357822	 1.2709199156	 0.23704
H	-2.8771422165	-3.695252777	-0.490105956	 0.111264
H	-5.9846856707	-0.8397761768	 0.0010973859	 0.199232
