16
gdb 17415	4.26933	1.59386	1.53525	2.7398	64.86	-0.2462	0.0717	0.318	876.1046	0.129589	-383.669186	-383.662072	-383.661128	-383.700369	27.563	
O	-0.0500690823	 1.355511521	-0.1470290634	-0.419301
C	-0.0053965384	-0.0365129475	-0.0346085566	 0.042136
C	-0.4758130092	-0.6925670413	 1.24818413	-0.404996
C	-1.3267454758	-0.7221460484	 0.0048498989	 0.355847
C	-2.7309608472	-0.0911056447	-0.1613295015	-0.331148
C	-3.1275694435	-1.3645885093	-0.9351878989	 0.038047
O	-2.2390252467	-1.488811558	-2.0506629707	-0.243
C	-1.7854056949	-1.9461839961	-0.7678252199	-0.080213
H	 0.6749437149	 1.7201927006	 0.3713286937	 0.288445
H	 0.802631197	-0.5207285998	-0.5840299261	 0.088227
H	 0.0099190264	-1.6083642921	 1.5719616338	 0.112129
H	-0.7944424134	-0.034567137	 2.0507282547	 0.115293
H	-3.2609672141	 0.0201479714	 0.7883100471	 0.106533
H	-2.7838251335	 0.8384519907	-0.7311321739	 0.126592
H	-4.0986223451	-1.8385320745	-1.016479167	 0.104167
H	-1.4523929441	-2.975009805	-0.6895960502	 0.101243
