18
gdb 119757	4.80628	0.80414	0.69845	7.4886	78.67	-0.2245	-0.0064	0.218	1586.439	0.147833	-439.14267	-439.133632	-439.132688	-439.17725	32.447	
C	-0.0346771295	 1.5819190414	-0.0974123827	-0.410489
C	 0.0687739533	 0.0666910446	 0.0333898102	-0.110909
N	 0.6444538663	-0.5206298253	-1.1672243304	-0.382884
C	 0.7652975397	-1.8559640231	-1.3361420983	 0.39544
C	 0.3034863262	-2.8871918834	-0.5940432251	-0.42968
C	 0.6782822125	-4.1401765142	-1.2425283031	 0.46435
O	 0.4769343259	-5.2807793451	-0.9322124976	-0.365349
O	 1.3893057224	-3.8295018023	-2.4044075355	-0.241035
C	 1.4844830222	-2.4253755735	-2.5382416053	-0.16835
H	 0.9535612201	 2.0356883274	-0.2331683763	 0.124529
H	-0.6619365757	 1.8610997706	-0.9493777601	 0.134025
H	-0.4739951241	 2.0108063199	 0.8064808175	 0.136344
H	 0.6672898303	-0.2011768639	 0.9168999398	 0.116103
H	-0.9270182863	-0.368036727	 0.1821757574	 0.128005
H	 1.2193530907	 0.0799026784	-1.7369722436	 0.245414
H	-0.2491845011	-2.8619488497	 0.3308561189	 0.111613
H	 1.0165394018	-2.1064989651	-3.4790304951	 0.12941
H	 2.5410003055	-2.1245970297	-2.5634282207	 0.123465
