19
gdb 59036	2.72498	1.29674	1.05571	3.9689	78.86	-0.2471	-0.0504	0.1967	1209.0453	0.159076	-423.073171	-423.064296	-423.063352	-423.10704	33.185	
C	 0.0470391023	 1.529880159	-0.1507740205	-0.403975
C	 0.0246317507	 0.0092252278	 0.0680068924	 0.013322
O	 0.6302571493	-0.3467418405	 1.3014203472	-0.440829
C	-1.3822981041	-0.5346074015	-0.0056271146	 0.235859
C	-2.0118569799	-1.1677774955	-1.0049248522	-0.181075
C	-3.4389241416	-1.5407522408	-0.6890401438	-0.267903
C	-3.6488950802	-1.0287315343	 0.7494994766	-0.324339
C	-2.3084638031	-0.4068204502	 1.1467944247	 0.346236
O	-2.0428362074	 0.094740361	 2.2230292739	-0.363543
H	 1.0730123162	 1.894686211	-0.0515787972	 0.125442
H	-0.3284748636	 1.7945742336	-1.1447773424	 0.108325
H	-0.573048356	 2.0329222309	 0.5979672864	 0.129362
H	 0.6328128306	-0.4690218922	-0.7089986439	 0.087661
H	 0.0229672066	-0.0477902074	 1.9945205051	 0.295249
H	-1.5621300652	-1.4054703846	-1.9645109513	 0.112397
H	-4.1320913977	-1.0834926685	-1.4054679917	 0.123688
H	-3.5883689401	-2.6237440426	-0.7751230664	 0.126103
H	-4.4368581497	-0.273640953	 0.8264745456	 0.138138
H	-3.904688577	-1.8226853221	 1.457026502	 0.139881
