16
gdb 5132	3.65219	2.06609	1.34201	3.2929	67.79	-0.187	0.0368	0.2238	901.7142	0.131201	-379.981176	-379.973079	-379.972134	-380.013737	28.661	
C	-0.017253053	 1.4355179683	 0.0179767924	-0.346344
N	 0.0547809531	-0.0062186144	-0.0312912492	-0.109534
C	 0.1861735473	-0.8075644218	-1.1616791306	-0.118741
C	 0.213328505	-2.0926911138	-0.7526086366	-0.118741
N	 0.0987447519	-2.0978898107	 0.634488804	-0.109534
C	 0.0811325097	-3.2475954931	 1.5086096351	-0.346344
C	-0.0024019908	-0.7959421037	 1.1114498854	 0.476181
O	-0.1157394614	-0.42935319	 2.2706407711	-0.460845
H	 0.8898685182	 1.8937795204	-0.3909140634	 0.130285
H	-0.8839702777	 1.8101459475	-0.5374604906	 0.130283
H	-0.1171343766	 1.7136787188	 1.0685975553	 0.171255
H	 0.2479100486	-0.3880783584	-2.1510962538	 0.135127
H	 0.3031659639	-3.0040195357	-1.3184141095	 0.135127
H	-0.7638227103	-3.9070435064	 1.2822580834	 0.130284
H	 1.0099936193	-3.8228380175	 1.4287500481	 0.130284
H	-0.0208912672	-2.8711345795	 2.5279337889	 0.171255
