27
gdb 100965	2.19165	1.042	0.96928	0.0553	96.08	-0.2539	0.0817	0.3356	1500.8924	0.250053	-353.560648	-353.549199	-353.548255	-353.59675	43.126	
C	 3.793548884	 0.613280677	-0.7035543516	-0.391857
C	 2.8963805347	-0.6208037927	-0.5583986269	-0.173103
C	 2.2635570512	-0.7874725762	 0.8398000493	-0.023824
C	 1.2559861383	 0.3306465611	 1.157450138	-0.408671
C	 1.6463362402	-2.1799528771	 1.0154006339	 0.379191
C	 0.4779266307	-2.5102424795	 0.0986365465	-0.470442
C	 2.5815364446	-3.3230930327	 1.3492418671	-0.344387
C	 1.6053648108	-2.8241598197	 2.3911706615	-0.039714
C	 2.085405084	-2.1732877132	 3.6713780107	-0.418145
H	 4.6016109799	 0.6055833633	 0.0371118507	 0.110667
H	 4.2553939392	 0.6455156001	-1.6955765164	 0.109929
H	 3.2350776866	 1.5455159801	-0.5737664884	 0.116643
H	 2.1056238566	-0.5798403795	-1.318476274	 0.093576
H	 3.4864796849	-1.5185515831	-0.7798193968	 0.095432
H	 3.0846260192	-0.7033854446	 1.5630997803	 0.062593
H	 1.7382807254	 1.312376489	 1.1662056837	 0.111646
H	 0.4515726301	 0.3676844422	 0.4147083309	 0.113634
H	 0.7964372279	 0.1790624151	 2.1388819728	 0.114747
H	 0.760399024	-2.4506136233	-0.9580033836	 0.114955
H	 0.119422588	-3.5278346055	 0.2825893842	 0.109466
H	-0.3680307633	-1.8323704455	 0.2562348843	 0.114389
H	 2.4134229864	-4.2914097639	 0.8883981266	 0.100935
H	 3.6308860153	-3.085572013	 1.5018677617	 0.100479
H	 0.7393091373	-3.4646906867	 2.5463762648	 0.074812
H	 2.9760158253	-1.5577835256	 3.5191197383	 0.117604
H	 1.3126231488	-1.5360304293	 4.1162659291	 0.114898
H	 2.3454885298	-2.938186017	 4.4120791635	 0.114545
