17
gdb 23129	2.75184	1.20632	0.89457	1.4263	76.62	-0.1889	-0.0143	0.1745	1261.6528	0.136469	-455.107361	-455.098697	-455.097753	-455.140805	32.427	
O	 0.0651874251	 1.3641233094	-0.3102933835	-0.419423
C	 0.0380650471	-0.0307508564	-0.0402760093	-0.077225
C	-1.3976501734	-0.5591406871	 0.099550521	-0.091831
N	-2.190216708	-0.2425423479	-1.0994314302	-0.299123
C	-2.3899549168	-1.4174209941	-1.7986352002	-0.001162
C	-2.0227882455	-2.5245564756	-1.1115016413	-0.250432
C	-1.4416082507	-2.0820696514	 0.1418331471	 0.391657
N	-1.0010010374	-2.7138406937	 1.1669617141	-0.2749
O	-1.1167291504	-4.1088694863	 0.9778165483	-0.399781
H	-0.2087234937	 1.8279303807	 0.4881364514	 0.288109
H	 0.5184595281	-0.5129780826	-0.8973084039	 0.122906
H	 0.6059708433	-0.2960499091	 0.8610764314	 0.116401
H	-1.8604538963	-0.1175302198	 0.9901970169	 0.097701
H	-1.9001652765	 0.5865770895	-1.6004039052	 0.249728
H	-2.841590678	-1.3703856136	-2.7820481793	 0.126675
H	-2.1685337357	-3.5505707654	-1.4031077825	 0.119435
H	-0.7831113412	-4.4511328664	 1.8131498152	 0.301266
