20
gdb 82945	2.13884	1.8772	1.50686	0.8653	78.13	-0.2161	0.0696	0.2857	1016.0147	0.170764	-403.10923	-403.100916	-403.099971	-403.141542	32.692	
C	-0.2699888512	 1.6049817305	 0.0190766385	-0.440863
C	-0.0080532002	 0.1172851815	 0.1056419449	-0.017559
N	 1.2348229216	-0.5680234107	-0.3102660714	-0.164357
C	 2.4921829445	 0.211975301	-0.3632059578	-0.204947
C	 2.9209799089	 0.515667365	 1.0680216094	 0.034362
O	 2.0707641734	 1.4367519761	 1.7613401836	-0.248224
C	 1.8532311719	 0.0341107887	 1.9583230972	-0.025331
C	 0.795264125	-0.6453125669	 1.1130229985	 0.278172
C	 0.3259922203	-1.9870608101	 1.6310364997	-0.480771
H	 0.5459705625	 2.2127509968	 0.3974461358	 0.153811
H	-0.472720574	 1.875520879	-1.0241709622	 0.114779
H	-1.169307537	 1.846969177	 0.5961302438	 0.119222
H	-0.8655147968	-0.4475655482	-0.2670544046	 0.084343
H	 3.2532285745	-0.4104111834	-0.8476541216	 0.112557
H	 2.3818453858	 1.1229000134	-0.9619711637	 0.118961
H	 3.9733094479	 0.5599225335	 1.3409416638	 0.099824
H	 2.0290474415	-0.3238800893	 2.9693863651	 0.097266
H	-0.2932081802	-1.8677909084	 2.5274594842	 0.118614
H	-0.2645585914	-2.5016918865	 0.8696693142	 0.131493
H	 1.174165063	-2.6317860886	 1.8892104025	 0.118647
