18
gdb 71563	3.1044	1.66664	1.49924	2.477	75.18	-0.2201	-0.0121	0.208	948.21	0.148918	-401.91651	-401.909375	-401.908431	-401.947669	29.05	
C	-0.0636614744	 1.5354493688	 0.078467326	-0.498148
C	-0.0455142042	 0.0334215774	 0.0106827667	 0.351976
C	-1.3222044341	-0.8240421875	-0.0277415345	-0.292326
C	-0.3497810751	-1.9059907162	 0.5059147246	-0.126647
N	 0.4424418258	-0.7952523505	 1.2107987129	-0.172131
C	 1.8194140459	-0.8109241432	 0.592451131	-0.18969
C	 1.1196701698	-0.7104491267	-0.7841653218	-0.222102
C	 0.4862600257	-2.1003396352	-0.7653735046	 0.455783
O	 0.5935713946	-3.0365315731	-1.5062166982	-0.339581
H	 0.9306114224	 1.9479070398	 0.276228042	 0.125972
H	-0.4163568547	 1.9526992447	-0.8711314334	 0.12755
H	-0.7368985324	 1.8715597401	 0.8731539324	 0.131619
H	-2.0297381497	-0.4936569374	 0.7365207972	 0.119072
H	-1.8314933031	-1.0084673974	-0.9768557205	 0.115169
H	-0.6618355885	-2.7728115227	 1.0835105932	 0.094534
H	 2.360404281	 0.0873959748	 0.8976166426	 0.118607
H	 2.4307614137	-1.6949746819	 0.8011003059	 0.117378
H	 1.5868189073	-0.361775134	-1.7036662414	 0.082964
