20
gdb 97249	2.59709	1.38681	1.04934	1.3556	78.24	-0.2469	0.0177	0.2645	1212.0438	0.171253	-440.29637	-440.287206	-440.286261	-440.33057	33.401	
C	 0.1049180581	 1.4370806127	 0.1088327767	-0.329619
N	 0.1213493954	-0.014886485	 0.0517645822	-0.286939
C	 0.500496256	-0.6053945495	-0.9966310445	 0.37698
O	 0.9724341726	 0.0648063065	-2.1038157036	-0.263876
C	 0.7052494878	-0.5285789332	-3.375038816	 0.012227
O	 1.0233395496	-1.8771863851	-3.4308960276	-0.223222
C	 0.2519077878	-2.6016986056	-2.4762883428	-0.113537
C	 0.5934737016	-2.1198303664	-1.0598108323	-0.06043
C	 2.0035226656	-2.5761344323	-0.6398925749	-0.394023
H	 0.9532901922	 1.7850974333	 0.7111147234	 0.127014
H	 0.1569912821	 1.9263105499	-0.8697726571	 0.117551
H	-0.804367423	 1.7582836396	 0.6269909729	 0.121115
H	-0.3611231874	-0.3702705764	-3.6120836809	 0.093619
H	 1.3371985501	-0.002760244	-4.0924299861	 0.127686
H	-0.8208066041	-2.4651796361	-2.6882806043	 0.098316
H	 0.4989746829	-3.6579464605	-2.609069732	 0.115425
H	-0.1400842227	-2.5137076455	-0.351535732	 0.100851
H	 2.7550290131	-2.2047883307	-1.3414882951	 0.134965
H	 2.2435768559	-2.2042622832	 0.3589443727	 0.133248
H	 2.0606590666	-3.6695952083	-0.6253733688	 0.112649
