18
gdb 63840	2.81746	1.48221	1.21765	1.5146	72.84	-0.2565	0.0218	0.2783	1061.7714	0.146815	-439.070712	-439.062429	-439.061485	-439.103419	32.249	
C	-0.4450553367	 1.5606918757	 0.0368125151	-0.455764
C	-0.0129264076	 0.1060628902	-0.0265535041	 0.405032
O	-1.0477352003	-0.7232272856	-0.5279051453	-0.470393
C	 1.2821639589	-0.2509682741	-0.8192512999	-0.283374
C	 1.887103397	-0.8863674016	 0.4441637962	 0.109124
O	 2.667058746	 0.0744032192	 1.2302284412	-0.273408
C	 1.573088602	 0.367360636	 2.0281557275	 0.431084
N	 1.4738107618	 1.1258404674	 3.0227636837	-0.553667
C	 0.6266642462	-0.5316894673	 1.2739034192	-0.233515
H	 0.3592552076	 2.2057409376	 0.3981605769	 0.137035
H	-0.7505104796	 1.8984512152	-0.9584094805	 0.125885
H	-1.2936356111	 1.6843976704	 0.7205403698	 0.117613
H	-1.8409866718	-0.5556592377	-0.0059835673	 0.278196
H	 1.0636478584	-0.9681430872	-1.612371498	 0.126764
H	 1.8558971871	 0.5861048332	-1.2207773152	 0.115985
H	 2.3779717904	-1.8571374187	 0.4053582522	 0.098402
H	 2.3663964865	 1.5751261741	 3.2361535624	 0.227297
H	 0.0060642752	-1.2285387365	 1.8326057061	 0.097707
