25
gdb 88458	2.63649	1.15914	1.10718	0.0863	92.31	-0.254	0.0821	0.3361	1312.9844	0.228834	-352.338218	-352.328465	-352.32752	-352.372328	38.263	
C	 2.1054289736	-0.2218127667	-0.8602278081	-0.415844
C	 0.6973335897	-0.0848151991	-0.3200312992	 0.005434
C	 0.0197212995	-1.2373686552	 0.3869030769	-0.327138
C	 0.3695518383	 0.0144736702	 1.155167622	-0.058119
C	 1.3746804762	 0.0840983539	 2.2918769157	 0.340745
C	 1.9598502258	 1.5002421868	 2.3777683179	-0.437849
C	 0.8249381418	-0.3850039077	 3.6811074859	-0.246762
C	 2.1722560682	-1.1015807722	 3.9547958435	-0.228809
C	 2.4937938298	-1.0012463169	 2.4408465063	-0.252269
H	 2.7335052513	-0.8463266187	-0.2206753857	 0.124186
H	 2.0924327368	-0.6801069939	-1.8558689533	 0.112774
H	 2.5955463735	 0.753906494	-0.9550659607	 0.114319
H	 0.0496285481	 0.5057171386	-0.9642612204	 0.077756
H	-1.0243781859	-1.4464202461	 0.1786191312	 0.104116
H	 0.6167611776	-2.1279119002	 0.5568453258	 0.107842
H	-0.4857753074	 0.6567840415	 1.3649798289	 0.076121
H	 1.1623848147	 2.2447995057	 2.4842403706	 0.108036
H	 2.6303874266	 1.6071027745	 3.2372738552	 0.107428
H	 2.5292215519	 1.7461626435	 1.475391571	 0.115729
H	 0.5132271052	 0.3980024788	 4.3789058419	 0.088186
H	 0.0018994694	-1.095590915	 3.5626567224	 0.097963
H	 2.8497700408	-0.5015686939	 4.567723786	 0.101548
H	 2.123989629	-2.1045849131	 4.3846340172	 0.094549
H	 2.2518294361	-1.9310651215	 1.9209561296	 0.098146
H	 3.5070173191	-0.7016121473	 2.1578497592	 0.091911
