19
gdb 16775	3.85833	1.50712	1.40586	2.9178	70.17	-0.2389	0.073	0.3119	963.3227	0.167633	-365.044548	-365.03691	-365.035966	-365.076493	29.381	
O	 0.3253960941	 1.0320349022	-0.4990977751	-0.428617
C	-0.0509961164	-0.3249582021	-0.3008344084	-0.081547
C	-1.4949425192	-0.4729116933	 0.2044698098	 0.005674
C	-2.5625436902	-0.0352418072	-0.8421550249	-0.22615
C	-3.0934074779	-1.3203112629	-1.4479820423	-0.023316
N	-2.0207718266	-2.2228981772	-1.9268367949	-0.335898
C	-2.6601041034	-2.4657533148	-0.6132509592	-0.020677
C	-1.8402537486	-1.9508694773	 0.554577944	-0.235762
H	-0.0712307501	 1.3309947398	-1.3221483695	 0.281633
H	 0.0895971043	-0.9229864034	-1.2094084787	 0.116663
H	 0.6328626669	-0.7101516397	 0.464305868	 0.097729
H	-1.5733591919	 0.1573994027	 1.0955183404	 0.077094
H	-3.3869307647	 0.4995517196	-0.3571380602	 0.099464
H	-2.1508619852	 0.642742494	-1.5990105483	 0.08204
H	-4.0437834446	-1.318860377	-1.9728177104	 0.080953
H	-2.409448173	-2.8683642765	-2.6099995563	 0.228726
H	-3.2752433515	-3.3519189441	-0.4918537364	 0.08164
H	-0.9395308812	-2.5504127441	 0.7276702011	 0.102782
H	-2.4457670009	-2.0037324988	 1.4664092611	 0.097569
