20
gdb 73719	2.70634	1.82789	1.38896	0.892	77.37	-0.2328	0.0804	0.3132	997.9336	0.173178	-403.106258	-403.098763	-403.097819	-403.137758	30.545	
C	-0.0286012512	 1.4624870852	 0.0021100004	-0.452204
C	-0.027917321	-0.0530833168	-0.0070991422	 0.324115
C	 1.06372953	-0.654666856	-0.8899380372	-0.297969
C	 0.9408162812	-2.1636300553	-1.2053745045	-0.09211
O	-0.3867729406	-2.6626369004	-1.148517391	-0.260757
C	-1.0829321526	-2.2376947576	 0.0033777724	 0.07573
C	-0.2917587974	-2.0706614763	 1.3330768347	-0.205124
N	-0.4547653025	-0.5809238559	 1.3202064463	-0.187395
C	-1.3361931114	-0.728509001	 0.0834820936	-0.091907
H	 0.9282703377	 1.8460063918	 0.373240483	 0.119628
H	-0.1863115193	 1.8605291124	-1.005995512	 0.113922
H	-0.817702587	 1.8392480562	 0.6568860549	 0.129715
H	 1.0233614445	-0.0926440317	-1.8303538647	 0.113444
H	 2.052214654	-0.4553118742	-0.4578897884	 0.106789
H	 1.2865654642	-2.3603083611	-2.2237223861	 0.110328
H	 1.5842357925	-2.7456028807	-0.531500613	 0.098584
H	-1.9702177476	-2.8674641904	 0.077195591	 0.091043
H	-0.8443912374	-2.4744059682	 2.1847147888	 0.113362
H	 0.7396314859	-2.4268505258	 1.3876829783	 0.105579
H	-2.2906400321	-0.2215070642	-0.0184758044	 0.085225
