16
gdb 24458	3.61242	1.59587	1.14194	3.0108	70.86	-0.1913	0.039	0.2302	1012.5492	0.127846	-437.909903	-437.903018	-437.902074	-437.941102	27.208	
C	 0.0215179218	 1.3912098338	 0.0314691972	 0.001514
O	 1.3064163088	 1.9517633151	-0.0062914676	-0.236891
C	 2.0879175435	 1.6342435898	 1.1486269154	-0.195975
C	 1.8504010354	 0.1960202541	 1.4706103173	 0.156084
C	 0.8849030218	-0.5521738738	 0.8420896763	 0.342002
O	 0.0251972712	-0.0229481338	-0.0797384082	-0.270861
C	 0.9562916162	-1.8879247608	 1.313541505	-0.300099
C	 1.9813859616	-1.9103786914	 2.2348656753	-0.068077
N	 2.5177263135	-0.6492860787	 2.3283268872	-0.344373
H	-0.4900129502	 1.6687706546	 0.9687478331	 0.088108
H	-0.5161836211	 1.7717596919	-0.8376568015	 0.122283
H	 3.1272124463	 1.8421487442	 0.8670103651	 0.122298
H	 1.8305735897	 2.3114008535	 1.9818932688	 0.100601
H	 0.3359079961	-2.7180956532	 1.0172825159	 0.102571
H	 2.365279283	-2.7194998918	 2.8343968803	 0.120406
H	 3.2794911326	-0.3911696036	 2.9298282705	 0.260408
