21
gdb 6702	5.82037	0.71218	0.66145	4.2074	79.95	-0.3128	0.0378	0.3506	1699.6614	0.187412	-329.160522	-329.150596	-329.149652	-329.195974	35.062	
C	-0.0485659216	 1.5557376473	-0.0194957504	-0.389336
C	 0.0287640017	 0.0243243127	 0.0479762241	 0.034635
C	 0.8676440789	-0.4202340876	 1.2545843384	-0.383705
C	-1.3870080274	-0.5820377464	 0.0571706981	-0.17053
C	-1.4315431451	-2.1085758635	-0.0681349804	-0.190062
C	-2.8802781834	-2.6322358669	-0.1441739536	-0.340601
C	-2.9499160065	-4.0871378779	-0.2620584933	 0.256192
N	-2.9850265226	-5.2385221687	-0.3550392959	-0.305872
H	 0.9510288387	 1.999941266	-0.0634365143	 0.113165
H	-0.6043324898	 1.8910441947	-0.9014522466	 0.110563
H	-0.55238672	 1.961905163	 0.865907412	 0.113068
H	 0.5335502912	-0.3273488183	-0.8637186193	 0.075146
H	 1.0110201131	-1.5042510942	 1.2851344019	 0.117016
H	 1.8604869577	 0.0401576697	 1.2269369033	 0.115041
H	 0.3895859614	-0.1184255129	 2.1945797027	 0.112303
H	-1.9018857865	-0.2759122495	 0.979603106	 0.094812
H	-1.961360676	-0.143660018	-0.7704122072	 0.093283
H	-0.8904908743	-2.4275064938	-0.9665598763	 0.119134
H	-0.9323716686	-2.5831973612	 0.7820856995	 0.124039
H	-3.4396759977	-2.3299541504	 0.7491465111	 0.151082
H	-3.3998248034	-2.189429684	-1.0021959299	 0.150628
