12
gdb 3118	6.27785	2.16128	1.86026	2.8514	55.57	-0.2656	0.0062	0.2717	662.3342	0.090796	-323.341413	-323.335616	-323.334672	-323.370971	21.405	
N	 0.0441513856	-1.1786316666	-0.0480694093	-0.345641
C	 0.0260410989	-0.0211328137	-0.0219766752	 0.198786
C	-0.0052860192	 1.3986001086	 0.0188493665	 0.122571
C	 0.281019238	 2.291268417	-1.1856616169	-0.331272
C	 1.1183332071	 2.4418267219	 0.0340742147	 0.074372
O	 0.4694526988	 3.2297864383	 1.0201337283	-0.271705
C	-0.6013943713	 2.2568335842	 1.1401867254	-0.12521
H	 0.7465930681	 1.7719080363	-2.0164943725	 0.146895
H	-0.4297183222	 3.0684961105	-1.4509280157	 0.135204
H	 2.194435231	 2.328226698	 0.086635001	 0.135389
H	-1.5900763469	 2.6929334331	 0.9641678911	 0.124605
H	-0.5666552478	 1.7661264223	 2.1169867427	 0.136007
