15
gdb 9794	3.00379	1.88686	1.34056	3.9645	60.88	-0.2821	0.0048	0.2869	911.4321	0.116625	-399.782761	-399.774332	-399.773388	-399.815725	30.075	
C	-0.1629343709	 1.4756659205	-0.2734765868	-0.462227
C	 0.0313674083	-0.0085559051	-0.0713605085	 0.37251
C	 0.93983499	-0.7862421049	-0.9300348814	-0.234371
O	 1.3100221666	-0.4172102818	 0.4048146637	-0.256198
C	-1.1525098145	-0.6995965052	 0.6197349747	-0.083918
O	-2.358322098	-0.5416599092	-0.1059089839	-0.399095
C	-0.8812981738	-2.123550838	 0.9010667347	 0.274999
N	-0.7148113516	-3.253336879	 1.0752651263	-0.324824
H	 0.6944621285	 1.9035440197	-0.7969760107	 0.133013
H	-1.0716127007	 1.6708919333	-0.8483126541	 0.140011
H	-0.260225426	 1.9803740248	 0.6939984841	 0.133533
H	 0.7809949893	-1.8517379639	-1.0840538694	 0.138215
H	 1.4824649982	-0.271394759	-1.7208673375	 0.123659
H	-1.325398518	-0.197490611	 1.579079991	 0.147004
H	-2.2749806376	-1.0277598413	-0.9350266723	 0.29769
