16
gdb 20732	3.26884	1.98835	1.25558	2.6205	67.11	-0.2078	0.0464	0.2542	943.2251	0.130016	-379.954138	-379.945446	-379.944502	-379.988206	30.468	
C	 0.0272341966	 1.4736611966	-0.057134715	-0.492076
C	 0.0124488234	-0.0195851034	 0.0207698556	 0.298163
N	-0.0461870946	-0.7514772519	-1.0857934821	-0.303586
N	-0.0419203089	-2.0370740318	-0.6403292367	-0.263833
C	 0.0172395295	-2.1113623883	 0.706393792	 0.376923
O	 0.0275233921	-3.3307397849	 1.2916051707	-0.430555
C	 0.0549716768	-0.821561504	 1.1977989929	 0.003629
C	 0.1242014771	-0.3815323982	 2.626859109	-0.518642
H	 0.9370136758	 1.8922176748	 0.389349636	 0.12278
H	-0.0204209144	 1.7891775643	-1.1014809327	 0.140315
H	-0.8235801029	 1.9139174674	 0.4763120537	 0.122669
H	-0.0811233594	-2.8017055178	-1.2912484838	 0.273377
H	 0.077556303	-3.2112465393	 2.2455948262	 0.308339
H	 1.0389745062	 0.1830987816	 2.8438715526	 0.133088
H	-0.7221538698	 0.2586244474	 2.9028180382	 0.133519
H	 0.1097612495	-1.2342837124	 3.3170777433	 0.095889
