19
gdb 104873	2.14682	1.60166	1.24864	3.7832	72.59	-0.2508	-0.0014	0.2494	1101.4456	0.157805	-460.152809	-460.143629	-460.142685	-460.186784	33.802	
C	-0.1270504645	 1.4092197247	 0.0864698065	-0.252994
O	-0.0391786285	-0.0023497592	-0.0045780804	-0.257345
C	-1.2530422767	-0.6970404261	-0.0693506021	 0.404168
C	-0.8996175441	-2.1895039739	 0.046652752	-0.071656
O	-0.4243126304	-2.5159828414	 1.3300345783	-0.420863
O	-2.0939216524	-0.3632463162	 1.0520009303	-0.316577
C	-3.3655160243	 0.1096527379	 0.616000593	-0.13458
C	-3.2909568102	 0.1032466469	-0.8844271774	-0.09315
C	-2.1079380719	-0.3566242692	-1.2705528626	-0.154518
H	 0.9002491808	 1.7764233614	 0.1309915765	 0.128868
H	-0.6262029447	 1.8512780966	-0.7863457961	 0.105563
H	-0.6586647678	 1.7178781215	 0.9936421972	 0.121463
H	-1.798355056	-2.7693459739	-0.2191215396	 0.078449
H	-0.1089454425	-2.4309163614	-0.6700373844	 0.112391
H	-1.0259083974	-2.0856954626	 1.9502387772	 0.288841
H	-4.1565415635	-0.5545051152	 0.9944074483	 0.11691
H	-3.5548224416	 1.1122898476	 1.0269249524	 0.114007
H	-4.1083151243	 0.4269893612	-1.5167750797	 0.115632
H	-1.7477209701	-0.4843734588	-2.2829326995	 0.11539
