13
gdb 3742	7.40863	2.06036	1.62881	0.8201	56.55	-0.2082	0.0243	0.2325	725.2407	0.102836	-340.646339	-340.639599	-340.638655	-340.677607	23.655	
C	-0.0688547503	 1.4188181658	 0.0681174733	-0.322555
N	 0.0194761419	-0.0219065795	-0.0227677617	 0.066843
C	 0.1339668945	-0.7729339301	-1.1538902357	-0.118727
C	 0.1217479576	-2.0903113791	-0.7405297722	 0.224357
O	 0.2237703146	-3.1699312508	-1.5646662311	-0.443343
C	-0.0074829788	-2.0321604682	 0.6620255245	-0.119122
N	-0.0714675603	-0.7681034306	 1.0868763997	-0.255382
H	 0.729619912	 1.8873547238	-0.5143622451	 0.137959
H	-1.035657452	 1.7832611325	-0.2962708376	 0.138824
H	 0.0422859248	 1.686411347	 1.1185008662	 0.160689
H	 0.2164081526	-0.3350828432	-2.1346639491	 0.128442
H	 0.1913871544	-3.9680484089	-1.0292685104	 0.299926
H	-0.0493319409	-2.8465309587	 1.3713720491	 0.102088
