20
gdb 17237	4.31597	1.58593	1.52626	0.2951	78.28	-0.2383	0.0935	0.3318	950.8165	0.178303	-311.825774	-311.818471	-311.817527	-311.857169	29.125	
C	 0.0602844526	 1.4730384806	-0.2398652314	-0.3727
C	-0.0775490214	-0.0015916277	 0.1639214524	-0.304823
C	-1.4957653944	-0.4954324267	 0.1170077465	 0.384748
C	-2.6526503979	-0.100806036	 1.0406712575	-0.281173
C	-3.406199857	-1.3249888727	 0.4554478784	-0.06195
C	-3.6539594347	-0.9372193235	-1.0289305606	-0.229056
C	-2.1372883787	-1.0132697631	-1.18678211	-0.101744
C	-2.0024705914	-1.9163719964	 0.0202774114	-0.144647
H	 1.1024585035	 1.8027235188	-0.1857104275	 0.108358
H	-0.2942780787	 1.6347533017	-1.2629474102	 0.117113
H	-0.5285121814	 2.1186020356	 0.4203008959	 0.117819
H	 0.5423779287	-0.6231972426	-0.4955006001	 0.094309
H	 0.3233887093	-0.1411874118	 1.1770328847	 0.094481
H	-2.3806349475	-0.2541478965	 2.0900220526	 0.091244
H	-3.1231275111	 0.8836543786	 0.9241983417	 0.082473
H	-4.1708921165	-1.8389296856	 1.0343066659	 0.066046
H	-4.1511267877	-1.7407342538	-1.5802250172	 0.095393
H	-4.1654709442	 0.0134881452	-1.223659407	 0.083599
H	-1.5596565527	-1.0485849102	-2.1026147198	 0.077543
H	-1.5147511487	-2.8709228938	 0.1586807768	 0.082967
