22
gdb 61448	3.28622	0.82328	0.76999	3.3895	82.86	-0.2434	0.0352	0.2786	1585.4117	0.192749	-404.380013	-404.369425	-404.368481	-404.416831	38.276	
C	 0.0669694188	 1.5321399164	 0.1526269081	-0.402854
C	 0.0909394826	 0.0051041217	-0.0037834121	 0.030997
C	 0.7086861237	-0.4145987156	-1.3472903052	-0.318183
C	-0.1649343193	-0.0465413186	-2.5459468823	 0.408585
N	 0.5117026207	 0.1187097884	-3.7216279376	-0.522683
O	-1.3730892157	 0.0778626212	-2.4737647473	-0.362795
C	 0.8144073629	-0.6591746935	 1.1531255166	 0.031325
C	 0.0898143597	-0.9332806709	 2.4452289243	-0.276336
C	 0.4895425626	-2.0785743412	 1.5450546028	-0.278507
H	 1.0833739008	 1.9453050554	 0.1409350842	 0.101271
H	-0.5026992196	 1.9991550483	-0.6552227228	 0.131022
H	-0.3947429322	 1.8170381394	 1.1027882625	 0.114852
H	-0.9464933327	-0.3501774315	-0.014252128	 0.095575
H	 1.712918354	 0.0135215851	-1.4631590559	 0.094171
H	 0.8333065285	-1.5055272103	-1.3656956682	 0.126434
H	 1.4965037643	-0.0628238066	-3.8017997208	 0.256016
H	-0.0248158775	 0.2560646371	-4.5626756618	 0.258283
H	 1.859193512	-0.3689205118	 1.2522988142	 0.072454
H	 0.6227707161	-0.8013103547	 3.3804202706	 0.108074
H	-0.9637316533	-0.6771615139	 2.4950189338	 0.112959
H	-0.2990450664	-2.5853623581	 0.9975320893	 0.112479
H	 1.2954149	-2.7297669059	 1.8656786358	 0.106863
