16
gdb 29398	4.59624	0.94363	0.78671	2.2515	75.85	-0.2108	0.0064	0.2172	1405.8824	0.124836	-434.110446	-434.101793	-434.100849	-434.14467	30.72	
C	 0.0029419882	 1.5000459806	 0.0034578467	-0.485086
C	-0.0075779577	 0.0081000755	-0.0297565903	 0.285941
C	-0.0607081874	-0.8242031723	-1.1115454955	-0.186824
N	-0.0457214778	-2.115526279	-0.5948463166	-0.337173
C	 0.0148334016	-1.9801779699	 0.7504454523	 0.496773
O	 0.0408898686	-3.1076482003	 1.4990101901	-0.228688
C	 0.1069284793	-2.965390419	 2.8596583097	 0.111009
N	 0.130164041	-4.0107062676	 3.559058034	-0.432359
N	 0.0398157246	-0.7380737497	 1.1440375644	-0.406616
H	 0.9086683604	 1.8780407781	 0.4901628401	 0.133225
H	-0.0394068966	 1.9131846878	-1.0078371857	 0.11935
H	-0.8514648722	 1.8886971006	 0.5682762649	 0.133261
H	-0.1066125126	-0.6378972091	-2.1709520794	 0.131691
H	-0.0730064225	-2.9852921287	-1.0990997084	 0.274687
H	 0.1317726341	-1.9205235393	 3.1721136704	 0.152589
H	 0.1796686391	-3.7611815377	 4.5451976733	 0.23822
