17
gdb 47835	2.68456	1.61362	1.11201	4.0682	71.89	-0.2624	-0.0143	0.2481	1068.9455	0.137487	-455.135706	-455.127871	-455.126926	-455.16828	29.504	
N	-0.0722746672	 1.3018138466	 0.3236003379	-0.481897
C	-0.0391515255	 0.0727200465	 0.0298291431	 0.38453
C	-1.3110451348	-0.7522567438	 0.0141793024	-0.23676
N	-1.3453154931	-1.6792929443	 1.1454256011	-0.197109
C	-0.849563483	-2.82794734	 1.0106070017	 0.094778
O	-0.306237936	-3.365949777	-0.1314482627	-0.234781
C	 1.0550477653	-3.0350777005	-0.4183779287	-0.080838
C	 1.2393333572	-1.6799410164	-1.0878002753	-0.098155
O	 1.152311326	-0.5680434411	-0.1962315415	-0.248591
H	 0.8719837958	 1.6933598855	 0.2897936547	 0.221489
H	-2.1345583185	-0.0475158645	 0.1223326393	 0.142497
H	-1.415374187	-1.279419271	-0.9431193033	 0.115254
H	-0.886285506	-3.5345889069	 1.8416757289	 0.122407
H	 1.6605717825	-3.0800988036	 0.4957384348	 0.122332
H	 1.4058256395	-3.8117561191	-1.1055484258	 0.123593
H	 2.2569101258	-1.6396765445	-1.4913165363	 0.125518
H	 0.541939789	-1.5717285962	-1.9257349404	 0.125735
