14
gdb 33275	3.40153	0.8344	0.70704	4.0937	91.33	-0.2499	-0.0362	0.2137	1529.2204	0.09905	-362.356233	-362.347462	-362.346518	-362.390115	31.93	
C	 0.0546582415	-3.7457063852	-0.0170554261	-0.56549
C	 0.0335763745	-2.5384283657	-0.0139790325	 0.293349
C	 0.0107147911	-1.1791934354	-0.0096138329	-0.200039
C	-0.0058551162	 0.0309287756	-0.0030147317	 0.358726
C	-0.0155286238	 1.4645924481	 0.0113500162	-0.034585
C	 0.5028147392	 2.1954450244	 1.2637687583	-0.278349
C	 1.3299719069	 2.2134331417	 0.0272448304	-0.278357
C	-1.1003293439	 2.0965424937	-0.7051152456	 0.228289
N	-1.9614725766	 2.6186064815	-1.2732036321	-0.334971
H	 0.0707908985	-4.8074950973	-0.0217152804	 0.198149
H	-0.0325907648	 3.0940188264	 1.545296695	 0.155059
H	 0.8019865667	 1.5542724078	 2.083494161	 0.151583
H	 2.2103702995	 1.584908108	-0.0218707374	 0.151579
H	 1.3736484874	 3.1245947664	-0.5569019622	 0.155057
