14
gdb 43406	2.85764	1.52451	1.02714	6.7483	69.64	-0.2615	-0.0804	0.1811	1079.072	0.10097	-436.70589	-436.69825	-436.697306	-436.738481	27.833	
O	-0.0344446864	-0.055675039	-0.1068300745	-0.29507
C	-0.0553214184	 1.1410124169	 0.0520346543	 0.364007
C	-1.2846566708	 1.9396075062	 0.1809835296	-0.147726
C	-1.2275080327	 3.2696275097	 0.3148091167	-0.068158
C	 0.0741899236	 3.9967959943	 0.460265401	-0.126841
O	 1.1417049523	 3.1481074984	 0.8357748123	-0.249519
C	 1.2448105081	 1.9914251245	 0.026294794	-0.143807
C	 2.4049430383	 1.2203550226	 0.4779132561	 0.304182
N	 3.3274102107	 0.6194079138	 0.8229406066	-0.306264
H	-2.2199378764	 1.3953272225	 0.1049474418	 0.130012
H	-2.1314121612	 3.8737586069	 0.3191988928	 0.12974
H	 0.3077462186	 4.5325872163	-0.479173865	 0.123509
H	 0.0041941586	 4.7536755628	 1.2480574144	 0.146452
H	 1.4141829457	 2.2685703641	-1.03141262	 0.139485
