16
gdb 54882	2.78739	1.55008	1.00859	5.489	73.34	-0.2366	-0.0245	0.2121	1129.4986	0.123508	-437.956106	-437.947832	-437.946888	-437.989516	30.399	
C	-0.0288830744	 1.5420985684	 0.0043571809	-0.507408
C	-0.0213835602	 0.0244650249	 0.0937869104	 0.407611
O	-0.0313055302	-0.5628377377	 1.1453742645	-0.296242
N	-0.0020179349	-0.6545616247	-1.1417994882	-0.179713
C	 0.0105732501	-0.0525080717	-2.4237729274	 0.009166
C	 0.0279846349	-0.9508306513	-3.4078626674	-0.164412
C	 0.0281876159	-2.3285404057	-2.8166952676	-0.391336
C	 0.0079363632	-2.0792244386	-1.3024485441	 0.418962
O	 0.0016312435	-2.8967069857	-0.4284061048	-0.308097
H	 0.8606423507	 1.9184796055	-0.5109757946	 0.145738
H	-0.9091684952	 1.9084743531	-0.5335470128	 0.145732
H	-0.0440421381	 1.9284146969	 1.0226296224	 0.155822
H	 0.0055733903	 1.0228043647	-2.5008025222	 0.137764
H	 0.0399702967	-0.7225933923	-4.4627459861	 0.118286
H	-0.8434005404	-2.9329212062	-3.093632529	 0.154066
H	 0.9130179781	-2.9232329797	-3.0717311641	 0.154061
