15
gdb 72114	2.82226	1.86083	1.48678	1.0313	63.7	-0.2348	-0.0265	0.2083	883.8155	0.112965	-457.723514	-457.71668	-457.715736	-457.754569	27.239	
O	 0.200203453	 1.3963306898	-0.1355390361	-0.477409
C	 0.0935287687	 0.0279103394	-0.062763907	 0.260207
C	 0.8479050467	-0.8268759418	-1.1028371666	-0.266279
C	-0.0224584088	-2.0777581522	-0.8665177994	 0.065418
O	-1.3317537429	-1.6009557532	-1.3001147938	-0.283638
C	-1.2936742528	-0.8449658438	-0.0918673553	 0.031781
C	-0.4243231236	-1.9101731572	 0.6550390499	-0.219867
C	 0.3706991965	-0.7482971608	 1.2219277393	 0.363424
O	 0.7710028633	-0.4159965454	 2.3033670344	-0.339302
H	 0.2519918996	 1.7348150156	 0.7675746747	 0.298827
H	 0.726100786	-0.4606884868	-2.1238444706	 0.130279
H	 1.9080918953	-0.9451327271	-0.8655702733	 0.117152
H	 0.2644457361	-3.0365816038	-1.2941850504	 0.098964
H	-2.2252687808	-0.4034291	 0.2534421174	 0.110816
H	-0.8162501162	-2.7508403228	 1.2176622369	 0.109627
