17
gdb 35482	3.28257	1.50468	1.43971	2.0951	75.87	-0.2267	0.0577	0.2844	967.6518	0.13673	-384.616835	-384.609756	-384.608812	-384.648294	28.697	
C	-0.071450221	-1.2649449882	-0.1683421631	-0.496087
C	-0.036256136	-0.0693624304	-0.0482590162	 0.367303
C	-0.0028149824	 1.3840998515	 0.0658138193	-0.190669
C	-0.6466892313	 1.9374152778	 1.3885786352	-0.232975
C	 0.5575386725	 2.4335385389	 2.1763078855	 0.095721
O	 1.4392696579	 1.2840690947	 2.4077581339	-0.302899
C	 2.2566842825	 1.7214761457	 1.3242156528	 0.109371
C	 1.5520157852	 3.0320037534	 1.1547915065	-0.172989
C	 1.4228511591	 1.9672047088	 0.0850694295	-0.08597
H	-0.0956287043	-2.3222852461	-0.2600190325	 0.192792
H	-0.5347542939	 1.802836353	-0.7962358032	 0.104483
H	-1.3300158413	 2.7647655331	 1.1679218298	 0.101183
H	-1.1960224099	 1.1651369919	 1.9303923473	 0.125566
H	 0.3516883842	 2.9729426349	 3.1022585814	 0.082416
H	 3.3017479416	 1.4359404175	 1.3248356378	 0.106249
H	 1.8889105777	 4.0526756983	 1.0419734852	 0.099419
H	 1.9583247794	 2.0857166253	-0.8499685491	 0.097085
