18
gdb 38572	2.8409	2.1638	2.01099	1.1878	71.87	-0.2284	0.071	0.2994	807.2659	0.152736	-401.924953	-401.919337	-401.918393	-401.954527	24.952	
C	-0.0511538439	 1.4455359225	 0.0688839693	-0.18758
C	 1.3994841206	 1.902950292	 0.0145170855	-0.086984
C	 2.3034825604	 1.4901947837	 1.2120499798	 0.091225
C	 1.6325758071	 0.3682544422	 2.0066935067	-0.244794
C	 0.9520551003	-0.5745095091	 1.0204213947	-0.026065
C	 1.3257811051	-0.4427227229	-0.4192711349	-0.063618
C	 2.2066949172	 0.7778524466	-0.678402414	 0.093775
O	 3.2700125741	 0.8952532331	 0.3032364651	-0.306254
N	-0.0224713855	-0.0333029437	 0.0551178233	-0.123915
H	-0.5902723454	 1.8023784456	 0.9539001818	 0.108331
H	-0.6070491386	 1.7828465975	-0.8127466727	 0.10974
H	 1.5764058619	 2.9145728222	-0.3494549841	 0.083831
H	 2.7534301205	 2.2654132912	 1.8378378587	 0.075246
H	 2.3919896596	-0.1738009958	 2.5796159153	 0.11583
H	 0.9068133023	 0.771598234	 2.7249283911	 0.10352
H	 0.6784637515	-1.5539751521	 1.4042749633	 0.09243
H	 1.3718794373	-1.3024969118	-1.0789177811	 0.087263
H	 2.5739028356	 0.868919235	-1.7022270578	 0.078019
