17
gdb 50720	2.89024	1.41831	1.02214	4.3423	72.03	-0.2393	-0.0219	0.2174	1133.2607	0.137469	-455.161122	-455.153094	-455.15215	-455.194216	29.599	
N	 0.0155195395	 1.3190696546	 0.1688811643	-0.444621
C	 0.0381151352	 0.0649979803	-0.0114245255	 0.326389
C	 1.302802795	-0.7821087836	-0.1485303613	-0.167198
O	 1.1936069324	-1.8712138714	-1.0430608882	-0.237753
C	 0.0825409461	-2.6878509078	-0.7253130368	-0.079272
C	-1.2015330669	-1.8832595385	-0.8661323782	-0.181617
N	-1.1566240075	-0.6923901712	-0.0108266421	-0.116707
C	-2.2855516712	-0.3547620613	 0.7312332754	 0.162555
O	-2.400413982	 0.5508971504	 1.510438125	-0.281349
H	 0.9671209761	 1.6901667406	 0.1759097287	 0.224457
H	 2.1191102859	-0.1552828564	-0.5139895225	 0.127144
H	 1.5676664705	-1.1444004144	 0.8610563242	 0.118382
H	 0.0918403044	-3.5236662425	-1.4296579595	 0.122041
H	 0.1727621461	-3.0863229963	 0.2987115446	 0.100755
H	-1.3254444207	-1.5893043971	-1.9163213195	 0.129031
H	-2.0670114436	-2.4863606127	-0.5771953662	 0.122886
H	-3.0973557293	-1.0845823528	 0.5307632877	 0.074876
