17
gdb 82882	2.86116	1.77991	1.41954	2.8725	66.66	-0.2408	0.0611	0.302	931.9548	0.137077	-458.913069	-458.906116	-458.905172	-458.943975	29.016	
O	 0.1935753832	 1.4309271217	-0.0689336243	-0.454494
C	 0.0319166199	 0.0471654253	-0.0384821777	 0.184109
C	 0.1283341903	-0.6742402286	 1.3292029928	-0.020203
O	-0.8392910381	 0.066658149	 2.0976693183	-0.286516
C	-2.0051191324	-0.3452697362	 1.3480140426	 0.063405
C	-2.0466588221	-1.8663413428	 1.6203151555	-0.306551
C	-0.7789000376	-1.8311237795	 0.7538328879	 0.380943
O	-0.0850783205	-2.917618488	 0.2544733047	-0.477878
C	-1.3637424146	-0.6073672342	-0.0739028112	-0.215732
H	-0.2035503819	 1.7555589423	 0.7503901177	 0.28573
H	 0.6860231584	-0.4023509979	-0.7886240321	 0.101963
H	 1.0486607877	-0.8375620584	 1.8863460971	 0.087696
H	-2.8465871547	 0.3200641016	 1.5234999915	 0.090096
H	-1.9936380021	-2.1917311949	 2.6622602208	 0.108798
H	-2.8715745285	-2.356978231	 1.0942759092	 0.096918
H	-0.6892874716	-3.4577897502	-0.2657118736	 0.287191
H	-2.0100821053	-0.6839848382	-0.9461236491	 0.074523
