19
gdb 53338	4.48468	0.80101	0.76842	1.7503	84.11	-0.2414	0.0565	0.2978	1552.1585	0.159067	-385.860471	-385.851469	-385.850525	-385.896804	32.326	
C	-0.0825446029	 1.4604839582	 0.1160299024	-0.497719
C	-0.0200024134	 0.0062692775	 0.0746257921	 0.068165
C	 0.0338083137	-1.1966091851	 0.0377236542	 0.065692
C	 0.0853449667	-2.6513862158	 0.0106520064	-0.152747
C	 0.6833181988	-3.3019022826	 1.3031435327	-0.246885
C	-0.0503424949	-4.6244077982	 1.4453239108	 0.033407
O	-1.3792183955	-4.4698687656	 1.9581345961	-0.249437
C	-1.2156361399	-4.6489564905	 0.5460664513	 0.033408
C	-1.2987876181	-3.3436577991	-0.2264456499	-0.246884
H	 0.5106323149	 1.9094724123	-0.6884927244	 0.145655
H	-1.1124055153	 1.8182699879	 0.0063541436	 0.147212
H	 0.30158713	 1.8488545368	 1.065908112	 0.147196
H	 0.73357788	-2.9569981984	-0.8210145651	 0.101709
H	 1.7642993756	-3.4370851783	 1.209741065	 0.105427
H	 0.4970794841	-2.6775503585	 2.1812335661	 0.125993
H	 0.4705965856	-5.5223351074	 1.7695984867	 0.094195
H	-1.6374061915	-5.5667432661	 0.1428513756	 0.094195
H	-2.1172959027	-2.7326315573	 0.1637247981	 0.125991
H	-1.4785538352	-3.5053970399	-1.2927677638	 0.105428
