18
gdb 47050	3.44694	1.34077	1.05506	2.4772	71.7	-0.2432	0.028	0.2711	1117.0146	0.150489	-439.112027	-439.104479	-439.103535	-439.144573	28.984	
O	-0.0854869567	-0.1010483829	-0.0728897263	-0.37003
C	-0.0771010459	 1.1133472598	-0.030214874	 0.390946
C	-1.328853615	 1.964328071	-0.2151486673	-0.323872
C	-1.2756663791	 3.2564732908	 0.6100061974	-0.244085
C	-0.0635011058	 4.0736770126	 0.1765143899	 0.13373
O	 0.4883938249	 4.9069328132	 1.2199025338	-0.289907
C	 1.6481931544	 4.0578064052	 1.3520434533	-0.088673
C	 1.2423642445	 3.2482436792	 0.0964295412	-0.037057
N	 1.0780441017	 1.8192557377	 0.2093925769	-0.307495
H	-1.4272548854	 2.196224716	-1.2844644937	 0.125456
H	-2.1822375168	 1.3377493301	 0.0501158671	 0.135625
H	-2.1956172125	 3.8380450157	 0.4986730748	 0.110825
H	-1.1729762705	 3.0136114207	 1.6729298441	 0.120092
H	-0.2869159327	 4.662106191	-0.7209442879	 0.086652
H	 2.5816011756	 4.627396951	 1.2894736811	 0.10897
H	 1.6340458187	 3.4720207014	 2.2799549097	 0.106568
H	 1.8546743151	 3.5061311019	-0.7744618706	 0.096251
H	 1.9042074355	 1.2404814057	 0.2745737105	 0.246004
