21
gdb 108856	2.08947	1.2621	0.84856	3.266	81.38	-0.234	0.0209	0.2549	1392.9642	0.181626	-424.233847	-424.224011	-424.223066	-424.268764	36.479	
C	 0.0381041326	 1.572863313	-0.0304309454	-0.402792
C	 0.0621087602	 0.0403361914	 0.0475050923	-0.074556
C	 0.7427770154	-0.6369036015	-1.1676956316	-0.25294
C	 1.4913957499	-1.8768514137	-0.6143223898	 0.111115
O	 2.7392972056	-2.1339731086	-1.2493568775	-0.435743
C	 1.5914027207	-1.5772429181	 0.8610001917	-0.23157
C	 0.8356503169	-0.5398308795	 1.2227239329	 0.310974
C	 0.6616218924	-0.0068172678	 2.6088010902	-0.179965
O	 1.4005430381	-0.7936107382	 3.5247228663	-0.412672
H	 1.055526057	 1.9791221814	-0.0613913707	 0.114107
H	-0.4815711839	 1.9044113196	-0.9353521779	 0.117164
H	-0.4786993562	 2.0188951735	 0.8259471865	 0.11216
H	-0.9813497527	-0.3039209335	 0.1194148681	 0.08048
H	 0.0430045152	-0.8813007088	-1.970985963	 0.099284
H	 1.4932094459	 0.0424776313	-1.5909548832	 0.09181
H	 0.9173880931	-2.7966932815	-0.7877810267	 0.089929
H	 3.3314243368	-1.4118412145	-1.0105394957	 0.270456
H	 2.1876146926	-2.1785506622	 1.5358577013	 0.110125
H	 0.9850217332	 1.0481282051	 2.637914732	 0.098713
H	-0.4154914253	-0.0011499055	 2.8584445285	 0.094505
H	 1.3122127727	-0.3991038118	 4.3967670517	 0.289416
