23
gdb 59987	3.28583	0.80216	0.75324	4.2378	78.95	-0.2424	0.0536	0.296	1643.6548	0.203169	-462.570385	-462.559403	-462.558459	-462.606248	40.954	
C	 0.0305783317	 1.584510062	-0.0784187523	-0.382888
C	 0.017358865	 0.0695447321	 0.0935155475	 0.147236
O	 0.6003795067	-0.2114621767	 1.3554324137	-0.450767
C	-1.4021494087	-0.5108179333	-0.0206565898	-0.223938
C	-1.4404225354	-2.0446947058	-0.0106008623	 0.12505
O	-0.842340756	-2.5877708622	 1.1736265574	-0.44473
C	-2.8683435338	-2.602810803	-0.141444521	 0.116393
C	-2.8870804064	-4.1093578138	-0.3848119169	-0.42063
O	-3.5040444274	-2.2645100122	 1.0969057057	-0.450914
H	 1.0472495298	 1.9643532287	 0.0546801847	 0.121248
H	-0.322895443	 1.8736041334	-1.0731709884	 0.101843
H	-0.6092165984	 2.0582749009	 0.6732899772	 0.116502
H	 0.6297107974	-0.3764082522	-0.7137147832	 0.049597
H	 0.4078263519	-1.1418945811	 1.5405535994	 0.285275
H	-2.0167231638	-0.1254987992	 0.801606898	 0.112341
H	-1.8565351728	-0.1638481618	-0.9580885858	 0.088204
H	-0.8387462372	-2.4256055515	-0.8449036152	 0.085154
H	-1.5244915987	-2.5026938857	 1.8556058956	 0.29236
H	-3.3730095616	-2.0865221443	-0.9723492016	 0.073492
H	-2.3106555503	-4.6249859177	 0.3875408181	 0.13852
H	-3.9138138856	-4.4937408115	-0.3784066945	 0.106093
H	-2.4530724483	-4.3489833287	-1.3606833095	 0.124007
H	-4.304432095	-2.7901670864	 1.1843727333	 0.290555
