19
gdb 68976	2.76796	1.31933	1.06486	1.4635	80.6	-0.2305	0.0472	0.2777	1184.217	0.156779	-385.819306	-385.810173	-385.809229	-385.853143	34.521	
C	 1.0657384472	 1.0591641182	 0.139456548	-0.498414
C	 0.1933721717	-0.1612969151	 0.133963302	 0.213879
C	 0.6703131847	-1.5590643675	-0.2404778755	-0.382351
C	 0.0244136893	-1.325326299	 1.0900326216	 0.438258
C	 0.5450348008	-1.6852561301	 2.4585451177	-0.467811
C	 1.9928866636	-1.5709669227	 2.5839719822	 0.302198
C	 3.186644076	-1.4727817837	 2.6832406666	-0.448202
O	-1.4019954417	-1.3362321794	 0.9490995184	-0.329718
C	-1.3330214161	-0.168374113	 0.0842969262	-0.127579
H	 2.0743304591	 0.8161241068	 0.48518626	 0.13616
H	 1.1520332256	 1.490133305	-0.8654789866	 0.120521
H	 0.663108123	 1.8348756507	 0.8007590969	 0.117457
H	 0.1481083189	-2.1488370535	-0.9900856421	 0.107586
H	 1.7487943302	-1.6790967738	-0.2190621915	 0.125661
H	 0.0517674703	-1.0476275835	 3.2032836029	 0.14065
H	 0.2338440765	-2.7149242588	 2.6850569373	 0.146217
H	 4.2408050853	-1.3918900396	 2.7821140156	 0.199198
H	-1.7904179917	 0.6991066323	 0.5757291534	 0.104001
H	-1.8156160225	-0.3404994632	-0.8855640931	 0.102289
