15
gdb 21595	3.43208	1.89422	1.29461	2.9391	63.67	-0.1939	0.0242	0.2181	904.9757	0.121444	-395.988821	-395.981281	-395.980337	-396.020463	28.374	
N	 0.1480607866	 1.4201402308	-0.0696198172	-0.617326
C	 0.0561611117	 0.0225144364	-0.0527255244	 0.141319
C	-1.0540501262	-0.7980979388	-0.025350617	-0.117016
N	-0.5758160184	-2.0759085806	 0.0554843408	-0.188302
N	 0.7599144447	-2.1419238639	 0.0714718789	-0.290689
C	 1.1601063367	-0.8702862362	 0.0173924929	 0.268317
C	 2.6041119483	-0.4864318783	 0.0205233087	-0.184633
O	 2.9189171109	 0.4226132142	-1.0433073083	-0.417956
H	 1.0011690522	 1.7163922743	-0.5301729286	 0.254784
H	-0.6518589356	 1.8734159757	-0.4903021607	 0.237598
H	-2.1104808718	-0.5846000922	-0.0535402613	 0.120407
H	-1.1083557734	-2.9275500054	 0.0850873934	 0.2719
H	 2.8646473331	 0.060343117	 0.9336675875	 0.122968
H	 3.2242302869	-1.3912340262	-0.0183046282	 0.114309
H	 2.6912698243	-0.021721847	-1.8673762864	 0.284321
