22
gdb 109877	2.22178	1.52088	1.08117	1.7139	82.71	-0.2251	0.0763	0.3014	1230.3096	0.192457	-404.30177	-404.291862	-404.290918	-404.336231	36.654	
C	 0.0649311367	 1.3434142911	 0.2044316533	-0.240964
O	-0.2545230993	-0.0060315055	-0.0612047159	-0.246133
C	 0.4964508498	-0.5748538122	-1.1060585527	 0.039815
C	 1.8591431158	-1.2820387461	-0.7887838286	 0.030951
C	 2.4375418491	-1.2477817626	 0.6152508778	-0.409372
N	 1.3254768695	-2.6085875847	-1.2775925059	-0.183928
C	 0.1302674672	-2.9074934482	-0.4608352085	-0.287164
C	-0.0157570109	-1.9348519636	-1.5612303224	 0.332491
C	-0.8150485733	-2.1786515611	-2.8063628203	-0.503632
H	 1.1055596277	 1.4689449489	 0.5362993438	 0.109023
H	-0.0927608309	 1.9769509659	-0.6822599135	 0.106513
H	-0.6000300612	 1.6821651172	 1.0025822716	 0.128345
H	 0.5896703884	 0.1400073667	-1.9359850972	 0.064616
H	 2.6235630442	-0.9717494425	-1.5074257631	 0.078308
H	 1.6712685195	-1.3544733382	 1.3865235946	 0.127661
H	 3.1658547145	-2.0567012722	 0.7353363765	 0.126891
H	 2.956465989	-0.3002621126	 0.7937955484	 0.115086
H	-0.2499741126	-3.9089299265	-0.6396634366	 0.115205
H	 0.0728956906	-2.5816244349	 0.5722574857	 0.122064
H	-1.8456347015	-1.8278988528	-2.6775220474	 0.126934
H	-0.3851811796	-1.6542818735	-3.6668568036	 0.1186
H	-0.8469354224	-3.2461133625	-3.042546856	 0.12869
