15
gdb 112406	2.28388	1.49766	0.9507	1.2073	64.59	-0.2691	-0.0165	0.2525	1165.7617	0.113537	-491.136034	-491.127918	-491.126974	-491.169345	29.668	
O	 0.0631261335	 1.4111776792	-0.0634422248	-0.41492
C	 0.0564351009	 0.0067911071	 0.0450476663	-0.065156
C	-1.3662921021	-0.5484798614	 0.0503181731	-0.071933
O	-2.0142792794	-0.2404024304	-1.2022170017	-0.263806
C	-2.4184615432	-1.3889346157	-1.8220088323	 0.479101
N	-3.0116625686	-1.4983722911	-2.9265175011	-0.568091
N	-2.0579607255	-2.4583323604	-1.0097693116	-0.37333
C	-1.4194163224	-2.0720653767	 0.1455252787	 0.429654
O	-0.9835998064	-2.7721205749	 1.0232926179	-0.358042
H	-0.3567017978	 1.6366396109	-0.9011236876	 0.295575
H	 0.6278196487	-0.4742796643	-0.7639682256	 0.103883
H	 0.5318627093	-0.2529992552	 0.9949511317	 0.143767
H	-1.9416089631	-0.0868864166	 0.8597227526	 0.138524
H	-3.1752676656	-0.5842462865	-3.3426887799	 0.235577
H	-2.2514785183	-3.4130688139	-1.2679198257	 0.289197
