19
gdb 86632	3.15521	1.06863	0.87649	3.5299	80.68	-0.2507	-0.0617	0.189	1336.2882	0.158277	-423.052386	-423.043196	-423.042252	-423.086438	33.786	
C	-0.7273173723	 1.2923119258	 0.0931735615	-0.402727
C	 0.1349743761	 0.0364761438	-0.0049430504	 0.010082
C	 1.2271122375	 0.0689792969	-1.1045686264	-0.325684
C	 2.3047490611	-0.8240022881	-0.5385621582	 0.24959
C	 3.4405854587	-1.3337777827	-1.3152588604	 0.069661
O	 3.6228233426	-1.098359413	-2.4889909424	-0.26514
C	 2.1087954442	-1.0737576182	 0.7643029448	-0.187278
C	 0.8975087466	-0.3351673305	 1.2937792326	 0.067802
O	 1.2939243809	 0.8626291608	 1.9681352189	-0.428871
H	-0.119348258	 2.1645361465	 0.3440582543	 0.136389
H	-1.2322671426	 1.4841238989	-0.8590338644	 0.111597
H	-1.495987065	 1.1879881233	 0.8656042224	 0.11275
H	-0.5116830312	-0.8227066434	-0.2226990964	 0.082017
H	 0.8660436566	-0.2764991924	-2.077346278	 0.121165
H	 1.6202546793	 1.0818164344	-1.2596596132	 0.124878
H	 4.1456315163	-1.9751039283	-0.7397529828	 0.067103
H	 2.7692773766	-1.6670085034	 1.3905720786	 0.103932
H	 0.2786433137	-0.949153205	 1.9637190858	 0.068628
H	 1.8017021689	 0.6159978848	 2.7477293037	 0.284106
