15
gdb 66920	2.7305	1.78497	1.30448	2.9516	64.97	-0.22	-0.0046	0.2154	961.9887	0.109833	-457.705545	-457.697499	-457.696555	-457.737785	30.397	
C	-0.0953150134	 1.544830504	 0.1128009458	-0.516734
C	 0.0803001383	 0.0644614239	 0.0807357051	 0.266829
O	-1.1540608547	-0.7348358181	 0.1210526628	-0.321905
C	-0.3644272449	-1.772801409	 0.6986447309	 0.022446
C	 0.7550917208	-0.9031256769	 1.1200142169	-0.235311
C	 0.9459945656	-1.8929359084	-0.0931020184	 0.204176
O	 1.7500561726	-2.9968825886	-0.1082350464	-0.443913
C	 0.9312741536	-0.6864458857	-0.9877139883	 0.371793
O	 1.5337409113	-0.3377610308	-1.9620966577	-0.34065
H	 0.878501073	 2.0396584596	 0.0571395618	 0.142434
H	-0.6859045899	 1.8605226668	-0.752636028	 0.150617
H	-0.6100164803	 1.8636718878	 1.0227314979	 0.135842
H	-0.8417561149	-2.6235851512	 1.169899857	 0.126073
H	 1.3786090801	-0.7804433931	 1.9928625435	 0.135253
H	 1.2785218128	-3.7250909204	-0.5285206831	 0.30305
