19
gdb 51046	2.40179	1.38246	1.14659	3.6291	75.83	-0.25	-0.0223	0.2276	1152.9937	0.156613	-423.036244	-423.026923	-423.025979	-423.070918	33.324	
O	-1.0282470502	 1.4083101097	-0.519695885	-0.244222
C	 0.0172734443	 0.8683499545	-0.2607186137	 0.173375
C	 1.3801982003	 1.5038061538	-0.4285340975	-0.393242
C	 1.3438301471	 2.8696454181	-1.0964738929	 0.243092
C	 0.5696846041	 4.0312440582	-0.3883463878	-0.252105
C	 1.75744649	 4.9893830716	-0.6606840075	-0.219556
C	 2.6397786449	 3.7604783399	-0.9992789032	-0.275087
C	 0.9437697047	 2.7466374815	-2.5498006641	 0.153612
O	 0.878868537	 1.710101173	-3.1607648711	-0.275035
H	 0.0394819983	-0.1663810762	 0.1500999748	 0.083966
H	 1.8344663544	 1.5654496472	 0.5711067779	 0.117548
H	 2.0021751357	 0.8033712323	-1.0004692181	 0.140651
H	-0.4045430768	 4.2910551675	-0.8061687482	 0.121513
H	 0.4354679025	 3.8177717053	 0.6747463651	 0.108448
H	 1.5877302413	 5.6304242804	-1.5298018608	 0.11124
H	 2.0880600717	 5.6206252839	 0.1666112272	 0.105529
H	 3.2620093868	 3.4413741196	-0.1588961803	 0.110338
H	 3.2714358269	 3.8167209117	-1.8899186316	 0.112102
H	 0.7345380771	 3.7185934478	-3.0534346631	 0.077833
