17
gdb 51572	3.67767	0.89876	0.8106	4.1107	69.95	-0.2479	-0.0231	0.2248	1403.539	0.133391	-458.918443	-458.90957	-458.908625	-458.953548	30.956	
O	-0.5199896745	 0.6482701508	 0.5001856471	-0.238714
C	 0.0760739712	 1.6717934691	 0.2850691528	 0.159028
C	 1.486868859	 1.7475826842	-0.2659320371	-0.32682
C	 1.5691359539	 2.7006104326	-1.4391370886	 0.038106
O	 1.5124356212	 4.1073672337	-1.1479697809	-0.253225
C	 2.7089985586	 3.5934951268	-1.7217605175	 0.022561
C	 3.9713585296	 3.6924153864	-0.9189151018	 0.044323
C	 4.1761245814	 4.795632095	 0.0319789553	-0.173115
O	 3.9181021402	 3.4636961884	 0.4852932578	-0.223819
H	-0.3841404872	 2.6632346126	 0.4949942288	 0.092221
H	 2.1428719089	 2.1122572273	 0.5307101408	 0.166685
H	 1.8033133652	 0.7417432894	-0.5588253157	 0.122203
H	 0.9547319578	 2.4197340973	-2.2972409965	 0.105305
H	 2.8648822623	 3.8759473731	-2.7663987067	 0.09923
H	 4.8442064054	 3.2649035271	-1.4147691585	 0.105438
H	 5.1814486385	 5.165129473	 0.2234232391	 0.122804
H	 3.3631193587	 5.4993767932	 0.1936343917	 0.137788
