18
gdb 87663	3.37654	1.20265	1.02309	4.6864	81.79	-0.2296	-0.0263	0.2033	1200.3874	0.14792	-401.987439	-401.979053	-401.978109	-402.02043	32.021	
C	-0.096927724	 1.5266124614	-0.0359406052	-0.404215
C	 0.0143319203	 0.0195113559	-0.0075680235	-0.049695
C	 1.3374429015	-0.6695265286	-0.2194263845	-0.348707
C	 0.694523645	-0.6908155368	 1.1568366407	 0.350697
N	 1.2473425826	 0.0075898748	 2.2743584245	-0.406665
C	 1.1256967045	-0.7100237623	 3.455690905	 0.38372
O	 1.5692655321	-0.3837055111	 4.5369274768	-0.3882
C	 0.3541148602	-1.9285646238	 3.0780380137	-0.223865
C	 0.1273712258	-1.916761156	 1.7593123249	-0.117751
H	 0.8046268087	 2.0080408502	 0.3550442314	 0.111795
H	-0.2407405719	 1.8832684485	-1.0612817123	 0.126428
H	-0.9434912218	 1.8729476435	 0.5652197615	 0.13337
H	-0.8546140214	-0.5015738549	-0.4014703128	 0.096711
H	 1.3773291323	-1.5961161444	-0.7816581637	 0.124704
H	 2.217181226	-0.0423892827	-0.328504758	 0.121065
H	 1.8762771454	 0.7891428238	 2.2071497224	 0.251361
H	 0.0642583421	-2.6754432681	 3.802389447	 0.121211
H	-0.4033422173	-2.6542901894	 1.1707548022	 0.118036
