18
gdb 18798	3.14501	2.9529	2.30178	0.2501	75.01	-0.2276	0.0215	0.2491	708.3212	0.157699	-310.638923	-310.633405	-310.632461	-310.667971	24.498	
C	-0.0320565499	 1.5470753493	 0.0872742487	-0.222686
C	 1.5335810913	 1.4668407079	-0.0110641505	-0.081966
C	 2.0199625495	 1.2545520619	 1.3988754988	-0.069226
C	 1.5493632817	 0.1553409384	 1.9928590542	-0.069225
C	 0.7924939675	-0.7777221746	 1.0839554749	-0.081965
C	 1.8033095546	-1.1796165035	-0.049208057	-0.222686
C	 1.3398960675	 0.0803177467	-0.7832443505	-0.01614
C	-0.0264101802	 0.0217497684	-0.0324937966	-0.01614
H	-0.4524032902	 2.0320916862	 0.9726034161	 0.09075
H	-0.466916494	 1.9819229326	-0.8188330732	 0.093601
H	 2.0536800891	 2.2618938449	-0.5461196718	 0.059874
H	 2.6326975665	 1.999478933	 1.8953287498	 0.085959
H	 1.7551588417	-0.1150448317	 3.0230851989	 0.085958
H	 0.2653656757	-1.5768503911	 1.6059006374	 0.059874
H	 2.8517544586	-1.3004959268	 0.2369585535	 0.090751
H	 1.4602540327	-2.0654583346	-0.594023446	 0.093601
H	 1.4262045948	 0.1628871544	-1.8681359388	 0.059832
H	-0.897494467	-0.5157955015	-0.4113268379	 0.059832
