19
gdb 103460	2.51971	1.36517	1.1323	1.5544	71.41	-0.2273	0.0573	0.2846	1146.7287	0.156826	-460.101233	-460.091822	-460.090878	-460.135128	35.28	
C	-0.0127512022	 1.5897476766	 0.0966474762	-0.493541
C	-0.0059703938	 0.0750746816	 0.1013275727	 0.235399
C	-1.269084197	-0.584190338	-0.4421433282	-0.130887
O	-1.5043908713	-0.2919494445	-1.812431498	-0.421704
C	 1.2470353101	-0.7179307411	-0.2174033868	-0.027007
O	 2.4240453789	-0.0380986667	 0.2339706484	-0.287624
C	 1.980931928	-0.1192528195	 1.6142463318	-0.157443
C	 0.65798449	-0.7491269736	 1.184578559	 0.250885
O	-0.0586486237	-1.6682946307	 1.924859945	-0.448195
H	 0.9768369839	 1.9922478232	 0.321829911	 0.141483
H	-0.2853470138	 1.9693403181	-0.8948735787	 0.10883
H	-0.7287439814	 1.9903199896	 0.8232418849	 0.116489
H	-1.1833773807	-1.6718356307	-0.3777888676	 0.113161
H	-2.1294727475	-0.2969821129	 0.1807924842	 0.097209
H	-1.7629309883	 0.6314683214	-1.8824694543	 0.285111
H	 1.3430300337	-1.4247976823	-1.0332721935	 0.115917
H	 2.6156664766	-0.8135959861	 2.1808121192	 0.101196
H	 1.9618522696	 0.8545019459	 2.1160183885	 0.110576
H	 0.5102545489	-2.4242109304	 2.111143446	 0.290145
