12
gdb 422	5.28041	3.90606	2.48055	3.9998	46.04	-0.2726	0.0099	0.2825	521.9194	0.096641	-306.397746	-306.391983	-306.391039	-306.427029	20.03	
C	-0.155652339	 1.5550096495	 0.0649497368	-0.407756
C	 0.0065089379	 0.0440890951	-0.0480691163	-0.171925
C	 0.8849547965	-0.5378533988	-1.1742102812	-0.087455
O	 1.7898724871	-1.1230557344	-0.1826065267	-0.238594
C	 1.0615661521	-0.6025480889	 0.8594829802	 0.452691
O	 1.2916783515	-0.6873837206	 2.0220518781	-0.320534
H	 0.80539982	 2.0666144652	-0.0478848362	 0.131403
H	-0.8368545772	 1.9337890716	-0.7028693935	 0.127458
H	-0.5647453207	 1.8195198943	 1.0439676193	 0.145616
H	-0.9586347509	-0.4617719848	 0.0481254617	 0.117735
H	 0.4396447559	-1.3150928039	-1.7981482302	 0.126271
H	 1.4122976368	 0.1948887357	-1.7897583218	 0.12509
