15
gdb 126786	2.71231	1.36562	0.96402	1.481	63.67	-0.2283	0.0292	0.2575	1182.0842	0.112328	-491.127951	-491.119491	-491.118547	-491.16178	30.143	
C	-0.1156382548	 1.598908093	-0.169976512	-0.379134
C	 0.1038118412	 0.0901211391	-0.0659928008	-0.147999
N	 0.7734173917	-0.4608343549	-1.2282836443	-0.097061
N	 0.1399539392	-0.4876574248	-2.4766110324	-0.332172
C	 1.0327586204	-1.0195837823	-3.2254766873	 0.504121
O	 0.9075770366	-1.2662769263	-4.5227807737	-0.393202
O	 2.1947659335	-1.3520309465	-2.6237023753	-0.253212
C	 2.029222319	-0.9729752774	-1.2620909945	 0.488082
O	 2.8698086602	-1.1202744364	-0.4220110878	-0.396374
H	 0.838957095	 2.1287356758	-0.2362885326	 0.131043
H	-0.7098973401	 1.8403904052	-1.0549036706	 0.145575
H	-0.6497786926	 1.959209923	 0.7140969454	 0.123987
H	 0.7403748525	-0.1619595642	 0.7857036162	 0.150243
H	-0.8516095536	-0.4313476747	 0.0557209466	 0.129413
H	 1.7240629618	-1.6742178784	-4.8368847669	 0.326691
