20
gdb 60079	2.31101	1.12657	0.9618	1.0077	81.28	-0.2451	0.0403	0.2854	1332.5958	0.168338	-403.084022	-403.073976	-403.073032	-403.118987	37.614	
C	 0.2403428613	 0.5297141535	-0.8080769873	-0.417246
C	 0.0667604351	-0.0073602044	 0.6130233931	 0.131041
O	 0.0447816862	 1.0526504861	 1.5672241945	-0.438557
C	-1.2487268546	-0.7631450698	 0.8304085553	-0.268287
C	-1.394994868	-2.0394504097	 0.0131959406	 0.081365
C	-2.7733561182	-2.5026519175	-0.3362289295	-0.271474
N	-1.9035414843	-1.9587678455	-1.3839042691	-0.333031
C	-0.3686258845	-3.0344518827	 0.2239556673	 0.352039
C	 0.4832761673	-3.8556199313	 0.4375339364	-0.459546
H	 1.1845918914	 1.07939307	-0.8974735324	 0.105894
H	 0.2614121732	-0.2814475462	-1.5417227594	 0.143522
H	-0.5735503986	 1.2187671171	-1.0601493845	 0.114526
H	 0.8952887116	-0.6977602879	 0.8340007121	 0.084323
H	 0.8554015367	 1.5606193813	 1.4632622903	 0.280349
H	-1.3174554592	-1.0050942865	 1.8965571501	 0.121507
H	-2.0864751844	-0.0925037572	 0.6011081713	 0.096655
H	-2.9714544584	-3.56691964	-0.4142323298	 0.129957
H	-3.6049390891	-1.9038263686	 0.0270505652	 0.117354
H	-2.1629351353	-0.993959147	-1.5779609175	 0.233864
H	 1.2341469117	-4.5860452837	 0.6117587433	 0.195747
