16
gdb 57116	3.006	1.2245	0.95153	3.6727	65.02	-0.2739	0.0058	0.2797	1191.1402	0.124212	-475.01843	-475.009829	-475.008884	-475.052528	30.317	
O	-0.2064343665	 1.3499007539	 0.0172861804	-0.41132
C	 0.0250447611	-0.0440533509	 0.0972867751	-0.036363
C	 0.5863719142	-0.5708962968	-1.1592262535	 0.26417
N	 1.0525745806	-0.9252872142	-2.1551281263	-0.313788
C	 0.9249149164	-0.4048521673	 1.3017596684	 0.087106
C	 0.227251877	-0.0877631187	 2.6336464985	-0.136871
O	-0.4388171469	-1.3093265469	 2.9228234315	-0.233897
C	 0.4608628607	-2.301912424	 2.5098678107	 0.02199
O	 1.11746381	-1.8109992888	 1.3449849021	-0.264034
H	 0.5965762111	 1.7768571338	-0.3035795659	 0.300311
H	-0.9532791922	-0.5077842658	 0.2628610599	 0.151719
H	 1.8923903935	 0.1013851614	 1.198306588	 0.094558
H	 0.962633296	 0.1584814241	 3.4130674469	 0.105411
H	-0.5096444447	 0.7126783544	 2.5587983751	 0.14406
H	 1.2144915609	-2.5084489684	 3.2888647527	 0.097277
H	-0.0959079013	-3.2112945958	 2.2672032164	 0.129673
