19
gdb 106691	2.44885	1.45927	1.17823	1.4249	74.76	-0.2519	0.0637	0.3156	1121.9931	0.157899	-422.963762	-422.954975	-422.954031	-422.997289	33.228	
C	 0.0489756954	 1.4815383765	 0.1125538458	-0.496033
C	 0.0078371149	-0.0197578286	 0.0662576577	 0.260797
C	 1.1819591846	-0.9005042585	-0.2892032578	-0.37816
C	 0.5711334236	-1.0469715706	 1.0854078193	 0.256472
C	 1.3099731192	-0.7826224057	 2.3652094497	-0.184689
O	 2.2014702447	-1.8311435212	 2.7335598447	-0.41188
C	-0.7240819986	-1.8294831925	 0.9539549507	-0.061213
O	-1.8249018621	-0.9749614103	 1.3034826956	-0.250926
C	-1.2570479936	-0.8548916047	-0.011434081	-0.037416
H	 1.0278728398	 1.8458961985	 0.4398824549	 0.121573
H	-0.1449951475	 1.9122417348	-0.8768782069	 0.123125
H	-0.7063954744	 1.8687744577	 0.8037865492	 0.133892
H	 1.0786798413	-1.6949170713	-1.0236442468	 0.108167
H	 2.1484504425	-0.4042465409	-0.3158381325	 0.120139
H	 1.9389328833	 0.107380273	 2.2562097029	 0.107902
H	 0.586694652	-0.5748571151	 3.1680880331	 0.10273
H	 1.6723615485	-2.6144336158	 2.9141597192	 0.282002
H	-0.8943324734	-2.8987493336	 1.0132677861	 0.100856
H	-1.9273318102	-1.0068941818	-0.8498323439	 0.102661
