12
gdb 130726	3.82916	1.23847	0.9358	1.529	74.69	-0.2647	-0.095	0.1698	1131.5342	0.077801	-431.635958	-431.628773	-431.627829	-431.667814	26.755	
O	-0.0636116049	-0.0952762986	 0.0044330098	-0.374055
C	 0.0233231437	 1.114481252	 0.007957923	 0.484387
N	-1.1317523718	 1.9249044003	 0.028783966	-0.266154
N	-1.2153670246	 3.2602661946	 0.0367511946	-0.04372
N	-0.1486235015	 3.9509510064	 0.0253320248	-0.255774
C	 1.0862206806	 3.2943078522	 0.0051013177	 0.22655
C	 1.2111278783	 1.9360864168	-0.00351837	-0.33614
C	 2.2187055038	 4.1559086134	-0.0057872806	 0.271981
C	 3.1829676615	 4.8744957309	-0.0150949648	-0.357717
H	-2.029294334	 1.4553089708	 0.0392795818	 0.287582
H	 2.1767928328	 1.4478527596	-0.018902317	 0.147722
H	 4.0311871861	 5.5146174515	-0.0231990055	 0.215338
