20
gdb 89191	2.43973	1.52617	1.21665	3.6429	79.36	-0.2381	0.0339	0.272	1123.8996	0.170828	-403.16965	-403.160784	-403.15984	-403.202883	33.872	
C	-0.1364205784	 1.5754130507	 0.013225519	-0.415507
C	 0.0560526066	 0.0665160772	 0.0413044423	 0.038968
C	 1.1166340617	-0.5685918247	-0.911099002	-0.309346
C	 1.7885744123	-1.3005248133	 0.2992489139	 0.190687
C	 2.0407199445	-2.7866773549	 0.2299844251	-0.499192
C	 0.7847562645	-0.5704206242	 1.2646080815	-0.05073
N	 1.9329213723	 0.1701716048	 1.7889129746	-0.325583
C	 2.8642316793	-0.3892994537	 0.9340355227	 0.382955
O	 4.0365146227	-0.1862962842	 0.7611594965	-0.367766
H	 0.8140203495	 2.0979494354	 0.1637445072	 0.118119
H	-0.5402671862	 1.8993419101	-0.9517963446	 0.122199
H	-0.8328424841	 1.9053713343	 0.7926366991	 0.113919
H	-0.9103081731	-0.4318028139	-0.0895619258	 0.076878
H	 0.6945173132	-1.2558731406	-1.6483096215	 0.105907
H	 1.7693473779	 0.135669161	-1.4337290805	 0.113993
H	 2.866950305	-2.9949231382	-0.4584933212	 0.139383
H	 2.3148849698	-3.1932388042	 1.2089799763	 0.126428
H	 1.1582341318	-3.3261843007	-0.1301426368	 0.115393
H	 0.1872034054	-1.0779159315	 2.0243668447	 0.079121
H	 1.9767999752	 1.0416042807	 2.2997987794	 0.244174
