23
gdb 88992	4.26141	0.75875	0.71403	1.5241	86.91	-0.2387	0.0866	0.3253	1693.1841	0.205579	-388.262668	-388.252999	-388.252055	-388.298353	35.482	
C	 0.0728251136	 1.5514528432	-0.2952196472	-0.403158
C	-0.0423202405	 0.0819453638	 0.0493829802	-0.007998
C	 1.1628350315	-0.828111352	 0.0036649487	-0.294449
C	 0.5046987156	-0.5107584868	 1.3282380855	 0.017129
C	 1.2201397484	 0.3070441266	 2.3840149308	-0.239449
C	 2.0651519848	-0.5656400077	 3.2991974466	 0.175211
C	 2.621979134	 0.0589478625	 4.5986340347	-0.30222
C	 1.82591294	-1.05487641	 5.3060299518	-0.056395
O	 1.2626985493	-1.5083147517	 4.0588323926	-0.295202
H	 1.0365182771	 1.9704133376	 0.0089910145	 0.112943
H	-0.0198172158	 1.7038281261	-1.3763369192	 0.115125
H	-0.7132672695	 2.1405493866	 0.190947003	 0.114743
H	-0.9729098319	-0.3674384322	-0.2893470788	 0.080837
H	 1.0596184116	-1.8248579885	-0.4113129746	 0.107951
H	 2.1241272263	-0.3635748925	-0.1994772078	 0.10152
H	-0.0905097605	-1.3110625406	 1.7589631605	 0.100274
H	 1.8776877146	 1.0551350349	 1.9239558964	 0.091407
H	 0.4926402623	 0.8536717761	 2.9991416959	 0.09381
H	 2.8208512735	-1.1026787915	 2.7080483784	 0.072768
H	 3.7055597886	 0.0331392566	 4.7222854883	 0.107525
H	 2.2614231584	 1.0714772134	 4.7937019096	 0.10713
H	 2.4381826894	-1.831196815	 5.7833585879	 0.098481
H	 1.0527370091	-0.7329115988	 6.0136951923	 0.102017
