18
gdb 110253	3.24433	1.2062	1.02663	2.0889	74.61	-0.2439	-0.0023	0.2415	1209.4317	0.14542	-439.002909	-438.994092	-438.993148	-439.036524	32.321	
C	 0.1095661905	 1.2277519899	-0.3134170507	-0.244228
O	-0.0791949909	 0.0188197035	 0.3930450971	-0.244737
C	-1.3299571512	-0.540825612	 0.1953388364	 0.191351
C	-1.6062752284	-1.3902384032	-1.0997541258	-0.202782
N	-0.6629433544	-2.4237163583	-0.5030102421	-0.080462
C	-0.7512566664	-3.8116598317	-0.961372599	-0.340693
C	-1.4861618783	-1.9931484696	 0.7052894177	-0.197037
C	-2.6898020133	-2.1160239593	-0.2664829393	 0.40526
O	-3.7030341932	-2.7296344069	-0.4046549161	-0.321621
H	 1.0921247584	 1.6122761938	-0.0326626318	 0.135072
H	 0.0849663989	 1.0727299965	-1.4015787035	 0.112446
H	-0.6551640002	 1.9748788106	-0.050396482	 0.108628
H	-2.1397951276	 0.1504400629	 0.4665095881	 0.082856
H	-1.5725422263	-1.1094941112	-2.1505981253	 0.099145
H	-0.2894435162	-3.8726524885	-1.9512507431	 0.130323
H	-0.1650582065	-4.4332737192	-0.2782440015	 0.132161
H	-1.77069259	-4.2215451631	-1.0233842486	 0.129779
H	-1.3092375648	-2.3903861442	 1.7025821594	 0.104538
