16
gdb 648	5.27135	4.42599	3.97117	0.047	59.48	-0.2957	0.0922	0.3879	471.6447	0.146796	-234.491176	-234.486445	-234.485501	-234.518869	19.641	
C	-0.0457750484	 1.5756205932	-0.0446462537	-0.212329
C	 1.5009567436	 1.403788825	 0.0012182398	-0.000993
C	 1.2276685844	 0.184309961	 0.9297615691	-0.212328
C	-0.0170908321	 0.0198927342	 0.0091389544	-0.000993
C	 0.6299001907	-0.3357694574	-1.3442413658	-0.201281
C	 1.7877055708	 0.7197191783	-1.3502812126	-0.20128
H	-0.446727065	 2.0206705374	 0.8691024179	 0.092271
H	-0.4879078455	 2.0555815371	-0.9237657308	 0.082889
H	 2.1622524169	 2.218164264	 0.2997851007	 0.054267
H	 1.9651642526	-0.6245427213	 0.9532644288	 0.082889
H	 0.9620208909	 0.4815324693	 1.9470415147	 0.092271
H	-0.8872785313	-0.5618808074	 0.315691866	 0.054267
H	 0.9986296085	-1.365459	-1.3705766767	 0.092587
H	-0.0618091386	-0.2068659775	-2.1819988238	 0.092587
H	 1.7183848972	 1.4160106888	-2.19128577	 0.092587
H	 2.7788254452	 0.2574188553	-1.379864958	 0.092587
