20
gdb 40316	2.97477	1.33542	1.08221	2.0764	77.86	-0.2425	0.0766	0.3191	1176.3888	0.171263	-403.08239	-403.073838	-403.072894	-403.116042	32.582	
C	-0.3005466401	 1.3867681148	-0.0181972799	-0.257336
C	 1.1495006204	 0.9868451154	 0.0877868244	-0.280284
C	 0.0802453488	-0.0716779984	 0.0704411539	-0.064594
C	-0.2484565673	-0.8633527091	 1.3057526208	 0.352862
C	 0.828466925	-1.4310587204	 2.1339659849	-0.216622
O	 0.1238929293	-0.2500854993	 2.5469837827	-0.27557
C	-1.6098109664	-1.5070507613	 1.3067773555	-0.051448
C	-2.275699082	-1.8846502749	 2.5736572294	-0.249624
N	-2.7785801336	-0.744953463	 1.7823553614	-0.323881
H	-0.7485123997	 1.8415549565	 0.8580658999	 0.121205
H	-0.6752534531	 1.762599927	-0.9632573082	 0.11493
H	 1.7837331245	 1.0861580595	-0.7857991645	 0.110629
H	 1.6399394636	 1.180793033	 1.0349194447	 0.126668
H	-0.0221649921	-0.6484442912	-0.8449841616	 0.089475
H	 0.6351235809	-2.3157991446	 2.7372291502	 0.116153
H	 1.8653621184	-1.2674192077	 1.8469169872	 0.118291
H	-1.8146219859	-2.095334837	 0.4139571506	 0.0898
H	-2.9319148117	-2.7497141868	 2.602299736	 0.115096
H	-1.7512408512	-1.665310347	 3.4985967849	 0.1245
H	-2.4469133979	 0.1134141246	 2.2187477977	 0.239749
