17
gdb 81306	2.81019	1.55481	1.26045	3.4037	67.95	-0.2602	0.0133	0.2735	1012.2246	0.137778	-458.985174	-458.977803	-458.976859	-459.016869	28.884	
O	-0.0662824742	 1.379763854	 0.061420631	-0.448811
C	-0.0037826991	-0.0267118967	 0.0265271288	 0.145144
C	-1.4265648553	-0.6059684355	-0.138856064	-0.054786
C	-1.2593660659	-0.4267248088	-1.671533687	-0.242433
C	 0.2636897858	-0.6116268564	-1.4010453578	-0.195693
C	 0.5633048046	-2.0886435264	-1.2610740407	 0.426852
O	 1.481089972	-2.6617936112	-1.7775688047	-0.336958
O	-0.307634466	-2.7787873363	-0.4719248315	-0.241112
C	-1.3873235494	-2.0904482146	 0.194111845	-0.083834
H	 0.8274163989	 1.7240622308	-0.0397793175	 0.289006
H	 0.6097150434	-0.4229492359	 0.8475034152	 0.079998
H	-2.2436615084	-0.1043379661	 0.3835001951	 0.088824
H	-1.7517127576	-1.1444043365	-2.3318501591	 0.111277
H	-1.4803654096	 0.5921036053	-1.9863780345	 0.127117
H	 1.0060384529	-0.1404759203	-2.0442422717	 0.090669
H	-1.2507204476	-2.2506825861	 1.2696601115	 0.12151
H	-2.3145023945	-2.5863004592	-0.1129621982	 0.123227
