19
gdb 111176	2.70487	1.23999	0.98865	4.3143	81.	-0.2509	0.0049	0.2558	1250.8339	0.160184	-382.003084	-381.99473	-381.993786	-382.036411	31.631	
C	 0.4573810255	 1.5224778528	-0.3618874717	-0.374181
C	 0.0045352563	 0.0756301122	-0.1256373951	-0.25382
C	 0.6944801601	-0.5378080531	 1.0788879609	 0.089621
C	 0.8273971947	-2.0638214135	 1.329359595	-0.096834
C	 1.9053393268	-2.0395425778	 0.227681569	-0.185543
N	 2.2405354364	-0.7594678239	 1.0235747108	-0.158152
C	 2.0132454179	-1.6736149515	 2.2533806262	-0.104717
C	 1.7767766123	-1.0178962923	 3.5327686172	 0.287392
N	 1.600463569	-0.5363642699	 4.5689427365	-0.33135
H	 1.5319414879	 1.5651909357	-0.5605916819	 0.139593
H	-0.0684215795	 1.9623188704	-1.2140204084	 0.115261
H	 0.2575948726	 2.1471422217	 0.5150676058	 0.123981
H	-1.0746940394	 0.0520165961	 0.0740932332	 0.109686
H	 0.1543856863	-0.5118269205	-1.0362781915	 0.103046
H	 0.4325776972	 0.0473703035	 1.9663889559	 0.103517
H	 0.048520082	-2.8070896676	 1.5275301047	 0.083722
H	 2.6973714814	-2.7918072938	 0.2682094778	 0.109933
H	 1.6037302293	-1.8535308544	-0.8005804025	 0.117265
H	 2.8088423533	-2.414156614	 2.3677525181	 0.121579
