14
gdb 4806	4.64967	1.478	1.13104	2.9629	60.15	-0.2084	0.0065	0.2148	990.1216	0.107897	-415.881975	-415.87424	-415.873296	-415.914537	27.62	
N	 0.1939444563	 1.2885046467	 0.2624113193	-0.597964
C	 0.0240390996	-0.0761261713	 0.0756449719	 0.270812
C	-1.0070710078	-0.788781199	-0.450097099	-0.129427
O	-0.6200205799	-2.1200752525	-0.4738001448	-0.17826
C	 0.6150067553	-2.1208474672	 0.0403629819	 0.380688
C	 1.3789175612	-3.4013045895	 0.1629402172	-0.141048
O	 2.6111434001	-3.1917515017	 0.8054532932	-0.42095
N	 1.0584807194	-0.9515811111	 0.3859775294	-0.372307
H	 0.8738785595	 1.4881194672	 0.9834179316	 0.257064
H	-0.6641128663	 1.7983412288	 0.417274433	 0.251053
H	-1.986818727	-0.5623808892	-0.8285355456	 0.135917
H	 0.7804824844	-4.1306913642	 0.7281052104	 0.124568
H	 1.5234280307	-3.8280245551	-0.8433215591	 0.119702
H	 2.7241623944	-2.2345749118	 0.8817277406	 0.30015
