18
gdb 61950	5.88143	0.58484	0.55378	1.4222	77.92	-0.2685	0.0212	0.2897	1881.68	0.147207	-398.155423	-398.145351	-398.144406	-398.191482	35.043	
N	-0.0621236559	 1.5290798289	 0.0811495252	-0.495542
C	 0.0167707903	 0.0747037999	 0.0040820375	 0.014205
C	 0.6950097509	-0.4928661977	-1.2606073331	-0.190985
C	-0.0324355533	-0.0793675707	-2.5537402879	-0.354949
C	 0.6194011195	-0.6039115569	-3.7507515448	 0.259868
N	 1.1501837678	-1.0256621615	-4.6863919295	-0.297055
C	 0.7562446316	-0.4504601049	 1.2572273437	-0.344683
C	 0.0544881364	-0.138900656	 2.4997654935	 0.280669
N	-0.5071573752	 0.0782973258	 3.485413414	-0.303854
H	 0.8269023134	 1.964024559	-0.1479626488	 0.231657
H	-0.7635064923	 1.90732831	-0.5439357575	 0.241533
H	-1.0128794855	-0.3014714759	 0.045359999	 0.110212
H	 1.7348727425	-0.1454126865	-1.3055486264	 0.119691
H	 0.7304850869	-1.5865675689	-1.2069663822	 0.125722
H	-1.0697613164	-0.4351564753	-2.5372161932	 0.156428
H	-0.0730993657	 1.0127144332	-2.6326263596	 0.1455
H	 0.8873252571	-1.5362234102	 1.1940041662	 0.152345
H	 1.7610623978	-0.0122153822	 1.2993520137	 0.149239
