15
gdb 76365	2.09001	1.46677	1.1886	4.9883	73.63	-0.2472	0.0083	0.2555	1095.8699	0.110838	-416.755779	-416.746637	-416.745692	-416.789429	33.644	
N	-0.0310456551	 1.4016448453	 0.1466318647	-0.522595
C	 0.0025640109	-0.0320401312	 0.0406148483	-0.125141
C	-0.4351161608	-0.740875329	 1.2825301272	 0.125691
O	-0.7760031307	 0.0028392936	 2.3754190181	-0.406034
C	-1.3826517051	-0.7308612673	 0.0220193347	-0.08374
C	-2.5677205649	 0.0727730619	 0.0497555613	 0.261319
C	-3.5573274658	 0.7547079822	 0.0682284689	-0.419201
C	-1.4469720517	-1.9565743112	-0.7289905873	 0.235219
N	-1.4600454413	-2.9546939094	-1.3144053822	-0.341735
H	 0.9077700293	 1.7838948885	 0.1414964673	 0.253587
H	-0.5571134628	 1.8248171678	-0.6105534465	 0.258216
H	 0.7496009664	-0.5020872774	-0.595869076	 0.119355
H	-0.0217301405	-1.7124259152	 1.5284103696	 0.141311
H	-0.7486699443	 0.9300003644	 2.0769625993	 0.298257
H	-4.4423906237	 1.341311727	 0.0937476927	 0.205493
