20
gdb 94289	2.89941	1.48301	1.20218	2.3329	78.26	-0.2353	0.0734	0.3086	1098.4124	0.171201	-403.080267	-403.072064	-403.07112	-403.11303	31.643	
C	-0.3593162513	 1.448656919	 0.0209885268	-0.402144
C	 0.0817678917	-0.0030230704	 0.014168678	 0.076733
O	 1.3196416806	-0.1816441927	-0.7215876261	-0.300317
C	 1.9742388847	-0.8222820289	 0.3947016253	-0.156576
C	 0.7390501714	-0.6179424749	 1.2598440703	 0.28865
C	 0.6954219833	-0.3080195027	 2.6954928265	-0.113935
C	-0.7115743108	 0.0201743403	 3.1875566322	-0.252484
C	-1.1564495445	-1.3028693586	 2.5128535688	-0.159527
N	 0.2609448346	-1.674666642	 2.1487390862	-0.189587
H	 0.3776559641	 2.08011617	 0.5256066177	 0.120827
H	-0.4638734157	 1.8000550201	-1.0103648936	 0.130599
H	-1.3273905958	 1.5668727581	 0.5179829175	 0.117136
H	-0.7079948114	-0.6431846201	-0.4068211185	 0.080192
H	 2.2137843697	-1.8737960462	 0.1962792964	 0.113681
H	 2.8837864166	-0.2892115778	 0.6982695085	 0.103375
H	 1.6053013328	-0.1952129989	 3.2788685716	 0.096426
H	-0.7928545284	-0.0262512692	 4.2750178844	 0.116363
H	-1.1529107113	 0.9594257534	 2.8445857238	 0.108398
H	-1.5682571573	-2.039844345	 3.2038439692	 0.115737
H	-1.8224021529	-1.2228001036	 1.6471706351	 0.106455
