21
gdb 115272	2.73979	1.2221	1.06901	1.8149	74.32	-0.251	0.0759	0.3269	1238.0834	0.180981	-461.374809	-461.365204	-461.36426	-461.409352	36.045	
C	-0.0071392205	 1.5360357536	 0.5836768817	-0.419323
C	 0.1369731714	 0.0867587891	 0.142509458	 0.447466
C	-1.1994149902	-0.5420469502	-0.2622745893	-0.412297
O	 1.0747455946	 0.0328938546	-0.9213118633	-0.276119
C	 1.7645290574	-1.2008562224	-0.8047734884	-0.144508
C	 1.8358889197	-1.4216531039	 0.7116147449	 0.085086
C	 3.1045274892	-0.86134303	 1.356066505	-0.063497
O	 2.9874372177	-0.8227454097	 2.7613893483	-0.424049
O	 0.7108797718	-0.68669491	 1.208927865	-0.32487
H	 0.9706284677	 1.9385558375	 0.8564397421	 0.125552
H	-0.4231469617	 2.1386765179	-0.2279200374	 0.127411
H	-0.674904521	 1.6018059921	 1.4463892204	 0.124902
H	-1.6585121525	 0.0307683312	-1.0726064295	 0.123027
H	-1.0554154854	-1.5717081544	-0.5996801429	 0.11707
H	-1.8820807221	-0.5570975773	 0.591431661	 0.125614
H	 1.2275016035	-2.0159884322	-1.3096906129	 0.100446
H	 2.7463312358	-1.0870884293	-1.2729136673	 0.118403
H	 1.7103089842	-2.4728534561	 0.9942336792	 0.088084
H	 3.9600090646	-1.5045345785	 1.1193980135	 0.103659
H	 3.3064577468	 0.1375928956	 0.9340468814	 0.089788
H	 2.1278779892	-0.4193171675	 2.9365734004	 0.288155
