15
gdb 45684	3.66188	1.48477	1.13534	3.8143	67.6	-0.261	-0.006	0.255	1020.2374	0.114668	-453.932261	-453.925327	-453.924383	-453.963835	26.553	
N	-0.0739192402	 1.149547486	-0.6551827841	-0.500894
C	 0.0098997754	 0.0708233549	-0.0060592507	 0.382597
C	-1.2455591517	-0.7088333828	 0.3873373442	-0.25495
N	-1.0970993069	-2.1768754669	 0.2749310409	-0.305897
C	 0.0322688859	-2.4897631357	 0.7168277537	 0.442109
O	 0.7553509943	-3.649689741	 0.6414670772	-0.267605
C	 2.0034822752	-2.8727095524	 0.7727858803	-0.122776
C	 1.1708215711	-1.6248011521	 1.1537540044	-0.042701
O	 1.2364171886	-0.4463948924	 0.3732089829	-0.255579
H	 0.8524476659	 1.55192334	-0.8106848617	 0.225336
H	-1.5296260443	-0.4292537709	 1.4120250489	 0.134166
H	-2.0462571344	-0.3725070996	-0.2697327528	 0.157677
H	 2.6528850839	-3.2936394185	 1.5410425	 0.136337
H	 2.5107849359	-2.7954005954	-0.1908068241	 0.14695
H	 1.2173548815	-1.3874048432	 2.2214880208	 0.12523
