21
gdb 59472	3.10253	0.93918	0.80082	3.2008	79.38	-0.2651	0.0666	0.3317	1497.2102	0.180029	-424.186452	-424.176634	-424.175689	-424.22198	35.685	
C	-0.4467312256	 1.2649545512	 0.5600881242	-0.392055
C	-0.6760203572	-0.0588522908	-0.1834238611	-0.004299
C	-1.7591746956	 0.0730444737	-1.2638255661	-0.391721
C	 0.6243694455	-0.5304450495	-0.8036059734	 0.070797
O	 1.6303274682	-1.0561120138	 0.066075329	-0.269064
C	 1.0589941436	-1.9343945394	-0.911672893	 0.027382
C	 0.2710100889	-3.0949083704	-0.4043460391	 0.05405
C	-0.2133110929	-4.1345416038	-1.3243885242	-0.180582
O	 0.9181199575	-4.3696572732	-0.4908971139	-0.231967
H	 0.3273291636	 1.151711408	 1.3242894255	 0.133578
H	-0.1265362283	 2.0522869311	-0.1326473052	 0.113327
H	-1.3658797242	 1.604106619	 1.0480748846	 0.112479
H	-0.9993849754	-0.8071060446	 0.5487684427	 0.078644
H	-1.4620778837	 0.7957247058	-2.03287892	 0.1172
H	-1.9495789561	-0.8837816781	-1.7604454558	 0.115498
H	-2.700658997	 0.4226595221	-0.8292815358	 0.11838
H	 1.0205955121	 0.1545698905	-1.5596952347	 0.086263
H	 1.7353675604	-2.2028004432	-1.7254104768	 0.099103
H	-0.2654503162	-2.9317664351	 0.5282149102	 0.108757
H	-1.112313758	-4.6959674362	-1.0742349328	 0.119198
H	-0.0003110895	-4.0522283532	-2.3899054342	 0.115032
