18
gdb 85840	2.7373	1.26648	1.15437	6.0687	72.63	-0.2375	0.0343	0.2718	1128.8668	0.148196	-435.250293	-435.24099	-435.240045	-435.28376	35.259	
N	 0.2866841028	 1.0473232434	-0.6212699036	-0.518346
C	 0.1005321138	-0.2151244473	 0.0406357802	-0.002715
C	 0.1987064956	-0.324097443	 1.5952562112	 0.055447
O	-0.080327516	 0.9608850383	 2.1353489088	-0.432243
C	-1.0351892535	-1.2624533776	 1.577313314	-0.28229
C	-1.397159864	-0.7363798081	 0.1536912046	 0.142203
N	-2.4267032802	 0.2942639204	 0.2019394096	-0.554377
C	-1.7576709565	-1.7520042456	-0.8359396851	 0.264465
N	-1.9858008744	-2.5670105991	-1.623641156	-0.347174
H	 0.1468369041	 1.8062023106	 0.0378579378	 0.245586
H	 1.2244515815	 1.1359811543	-0.9937898149	 0.238349
H	 0.7193566336	-0.9841639818	-0.4271661062	 0.097377
H	 1.1286424674	-0.7288496816	 2.0120030943	 0.074699
H	-0.1583206716	 0.8811175582	 3.0913061685	 0.294151
H	-0.7587729401	-2.3184362662	 1.5734229644	 0.12748
H	-1.8014120322	-1.0878001397	 2.3362995292	 0.117487
H	-2.1891442828	 0.9414242942	 0.9494330879	 0.23505
H	-2.3879125875	 0.8306158506	-0.6624478348	 0.244851
