17
gdb 76777	2.40663	1.58378	1.12288	3.1105	69.86	-0.247	-0.0448	0.2021	1101.6423	0.133316	-458.938881	-458.929842	-458.928898	-458.97301	32.633	
C	 0.2368578651	 1.7224528711	 0.050573747	-0.403737
C	 0.0691542654	 0.2087481044	 0.0240097918	-0.128325
C	 0.6418863813	-0.6102207754	-1.1842271871	-0.008877
O	 1.6213391054	 0.1137331404	-1.8941390455	-0.427559
C	 1.2883353641	-1.5859235446	-0.1838591115	 0.314439
C	 1.381227312	-3.0520643378	-0.2030850613	-0.252695
O	 2.524653452	-2.2275097349	-0.4411288524	-0.26489
C	 0.9688915133	-0.6297709631	 0.9626458589	 0.320491
O	 1.3169867087	-0.5358885938	 2.1020410882	-0.29974
H	 1.253517203	 1.9995276738	-0.2335998908	 0.142081
H	-0.4551602805	 2.2069304503	-0.6441022551	 0.123484
H	 0.0377372213	 2.1006506599	 1.0572497831	 0.13305
H	-0.9768944714	-0.0724736802	 0.2019389344	 0.105762
H	-0.1091802024	-1.0359854819	-1.8607853038	 0.074491
H	 2.3577424979	-0.4888654912	-2.0563853022	 0.299653
H	 1.3929328392	-3.5969986108	 0.7388920306	 0.141945
H	 1.0017969656	-3.5929205163	-1.0685343844	 0.130429
