22
gdb 15833	2.9326	1.34296	1.04672	1.0755	79.12	-0.2468	0.0866	0.3334	1236.7156	0.198619	-350.192401	-350.182736	-350.181791	-350.227372	35.009	
C	 0.0452987242	 1.4642444624	-0.1747599282	-0.384452
C	 0.0368049877	-0.0240464276	 0.1342983329	-0.033333
O	-1.2520083844	-0.5293007309	-0.1501219821	-0.257147
C	-1.4011063933	-1.9363904241	-0.0129677104	 0.119776
C	-1.5561970592	-2.3474623127	 1.4559059399	-0.396909
C	-2.6044433696	-2.3623098621	-0.8357525959	 0.010706
C	-3.8129238284	-1.4699184784	-0.9603757036	-0.255046
C	-2.9198449678	-1.7109362999	-2.1546201924	-0.274987
H	 1.0298399987	 1.8921130045	 0.0371453822	 0.113258
H	-0.1915662766	 1.6400116423	-1.2280154572	 0.1249
H	-0.6981504575	 1.9862410194	 0.4344305347	 0.126111
H	 0.79100029	-0.5496523546	-0.4751970084	 0.085492
H	 0.3030275011	-0.1913026927	 1.1897547631	 0.088208
H	-0.5036024542	-2.4285450255	-0.4277257908	 0.061529
H	-2.4388545366	-1.8671992944	 1.8884633305	 0.125164
H	-1.6777380979	-3.4325746278	 1.5374002011	 0.111797
H	-0.6811711017	-2.0672202518	 2.0494901594	 0.111751
H	-2.7997939579	-3.4290173169	-0.7658189959	 0.077717
H	-4.7957116101	-1.9280480382	-0.9439919562	 0.102063
H	-3.7564238403	-0.4926672988	-0.4962694101	 0.124128
H	-2.2845720193	-0.889183682	-2.4626609409	 0.117196
H	-3.286809377	-2.3355415502	-2.9617373717	 0.102079
