20
gdb 72562	2.37338	1.87386	1.44776	2.1563	77.18	-0.2157	-0.0133	0.2024	995.6697	0.173191	-403.173526	-403.165774	-403.164829	-403.205382	31.162	
C	 0.0000780361	 1.518800731	 0.0375269892	-0.48182
C	-0.0169938089	 0.0055116695	-0.0095230164	 0.195034
C	 0.6343679729	-0.6629866422	-1.2590701521	-0.263695
C	 0.0364430201	-2.1081379186	-1.2088698046	-0.176963
N	-0.8182658243	-2.1521680032	 0.0071015935	-0.09488
C	 0.0813583638	-2.1121748721	 1.1811929344	-0.295498
C	 0.6747336753	-0.6868059152	 1.1708836656	 0.394436
O	 1.4954236936	-0.224829514	 1.9198081505	-0.334625
C	-1.3621291302	-0.7706912137	 0.0191870678	-0.229192
H	 1.0252772301	 1.8875076918	 0.139369318	 0.136091
H	-0.4336849661	 1.950293213	-0.8704545633	 0.111029
H	-0.564914862	 1.89317774	 0.8972195617	 0.121437
H	 0.3296345864	-0.1260934365	-2.1632724427	 0.105148
H	 1.7268176599	-0.6455477271	-1.2192101617	 0.116614
H	-0.5897363272	-2.3082106561	-2.0825231258	 0.110068
H	 0.7964254781	-2.8911680991	-1.1594822158	 0.109467
H	-0.496673843	-2.261895701	 2.1008730738	 0.131897
H	 0.852822798	-2.8851663718	 1.1429296241	 0.130374
H	-1.957349174	-0.5922063295	 0.9199627325	 0.108082
H	-1.9858512885	-0.5876992052	-0.8608611085	 0.106994
