18
gdb 19734	3.8348	2.42461	2.22444	1.4727	69.54	-0.233	0.0964	0.3295	717.9092	0.15845	-347.79756	-347.792094	-347.79115	-347.826733	23.754	
C	-0.0317540994	 1.5733715815	 0.0413002426	-0.249477
C	 1.5146936729	 1.4255495805	 0.0046642303	-0.067405
C	 1.78303244	 0.7863182058	 1.3807347988	-0.210498
C	 0.8390465913	-0.4502652758	 1.2307479235	-0.053962
C	 1.6756379137	-1.562114122	 0.5895594053	-0.079051
O	 2.1025945947	-0.9795978546	-0.6554816073	-0.283726
C	 1.2622589705	 0.1377478701	-0.8683163445	 0.155301
C	-0.0067646467	 0.0293945827	 0.0100314267	-0.056858
H	-0.4709476572	 2.0740754785	 0.9081174296	 0.093631
H	-0.4467089497	 1.9931160205	-0.8787638264	 0.098605
H	 2.1662056406	 2.237239268	-0.3190109684	 0.06034
H	 2.8255454877	 0.4911759206	 1.5270313986	 0.100356
H	 1.4947258895	 1.4507144927	 2.2003954616	 0.092742
H	 0.2931687556	-0.747773411	 2.1265096535	 0.06575
H	 2.5591380565	-1.8330094586	 1.1778761725	 0.102381
H	 1.0907230643	-2.4741528042	 0.3962692746	 0.088344
H	 1.1345597146	 0.3169911224	-1.9361166609	 0.079543
H	-0.867228919	-0.5783710171	-0.2702618602	 0.063983
