18
gdb 37536	3.96398	1.6734	1.43526	1.8014	81.22	-0.2191	0.0057	0.2248	934.506	0.149766	-364.690141	-364.683866	-364.682922	-364.72035	26.98	
C	-0.1011659648	 1.6422576942	-0.0285606806	-0.259086
C	 1.3786730574	 1.259164165	-0.042128848	-0.035319
N	 1.1564366272	 0.1522094043	 1.0163429406	-0.199164
C	-0.0688285933	 0.1142580878	 0.0277133893	-0.104275
C	 1.1635977703	-0.0286631222	-0.9365672212	 0.33831
C	 1.8171936998	-0.3215547815	-2.2485847672	-0.271194
C	 3.0350547659	-0.8056289833	-1.9471676961	-0.048667
C	 3.3039977849	-0.9210466615	-0.4322856006	-0.335139
C	 1.8576233768	-0.8724616847	 0.0887533274	 0.041584
H	-0.4545271063	 2.1445541776	 0.8756089099	 0.108215
H	-0.5119285038	 2.0950361006	-0.9339744232	 0.099483
H	 2.2572900966	 1.9045352277	 0.0014594472	 0.080672
H	-0.8715618474	-0.6082387515	 0.1859599243	 0.08491
H	 1.4529846292	-0.1044715627	-3.2449876055	 0.101519
H	 3.7991836053	-1.0455087449	-2.6793440839	 0.099114
H	 3.8516554415	-1.828788957	-0.1628649952	 0.105973
H	 3.9116879769	-0.0698966107	-0.0974095075	 0.12049
H	 1.4527758736	-1.8782012571	 0.2488331904	 0.072572
