27
gdb 102493	1.68065	1.31094	0.93204	1.5339	92.08	-0.2612	0.0674	0.3286	1483.7045	0.248664	-390.70529	-390.693231	-390.692287	-390.741893	45.245	
C	-1.3943186292	 0.433731311	-0.2097094603	-0.381612
C	-0.0347165845	-0.1794070869	 0.1432949848	-0.185885
C	 0.7527468091	-0.7336376935	-1.0733514813	 0.063306
C	 2.2567755851	-0.3995640841	-0.9618610192	-0.199584
C	 2.5731745042	 1.0730153282	-1.2465011564	-0.390378
C	 0.4992336237	-2.2504177171	-1.3185609946	 0.326367
C	 0.9106633515	-2.6550489524	-2.7436340032	-0.418979
C	 1.2035514093	-3.1474290241	-0.2874239444	-0.417141
O	-0.9216938257	-2.4206628082	-1.1954550369	-0.460878
H	-1.276117596	 1.2772511228	-0.9001260964	 0.102816
H	-2.0398434962	-0.306199677	-0.6861139697	 0.137968
H	-1.9002622618	 0.8098330271	 0.686084931	 0.099042
H	 0.5745665851	 0.5828965796	 0.6427230278	 0.083238
H	-0.1807507455	-0.9748554763	 0.8814938184	 0.098974
H	 0.3726589912	-0.2231862633	-1.9695220785	 0.065341
H	 2.6125550388	-0.6614999582	 0.0427130236	 0.096701
H	 2.836504254	-1.0154543695	-1.6583916258	 0.090782
H	 2.2931683007	 1.3424214198	-2.2710020135	 0.113829
H	 2.0347070909	 1.7454985194	-0.5708761176	 0.120471
H	 3.6423645276	 1.2756611873	-1.1286054905	 0.109604
H	 1.9790763942	-2.5130061068	-2.928682802	 0.11667
H	 0.6907250381	-3.7158992931	-2.9150961078	 0.097947
H	 0.3484913481	-2.0697639078	-3.4767287914	 0.121289
H	 0.9132501999	-2.8843690629	 0.7329614861	 0.123277
H	 0.9270314309	-4.1953575912	-0.4541731406	 0.097553
H	 2.2922243173	-3.0807646869	-0.3662185777	 0.1173
H	-1.1200798507	-3.3478758361	-1.3630034838	 0.271982
