17
gdb 27313	3.20239	1.38603	0.979	3.2935	80.1	-0.2294	-0.0221	0.2073	1192.4011	0.1363	-418.058796	-418.050282	-418.049338	-418.091991	31.401	
C	 0.030912627	 1.4920316029	-0.1195682978	-0.471479
C	-0.0573593798	 0.0056790873	 0.0161693271	 0.399992
N	-1.1214469815	-0.6547225709	-0.2169832831	-0.349535
C	-1.127861023	-2.0597076815	-0.0664757309	 0.264138
N	-2.1681017404	-2.7702499447	-0.287585042	-0.522785
C	 0.1294002926	-2.6864491013	 0.3620179958	 0.209424
C	 0.1921195563	-4.1716557662	 0.5412309707	-0.473886
C	 1.1792194426	-1.8856646473	 0.5760363071	-0.051166
O	 1.1330887768	-0.5263196339	 0.4151731184	-0.218937
H	 0.8007868738	 1.7603619302	-0.8500696385	 0.149872
H	-0.9331693771	 1.8850268799	-0.4380739062	 0.15686
H	 0.3185028529	 1.94307765	 0.8355064746	 0.149874
H	-2.9318128408	-2.1535866886	-0.5733519785	 0.216582
H	-0.06673885	-4.6781590385	-0.3937666108	 0.148441
H	 1.1854896783	-4.4972466274	 0.8624733929	 0.110446
H	-0.5482268339	-4.4966054752	 1.2788196467	 0.148492
H	 2.1624534463	-2.2092928149	 0.8931216246	 0.133668
