21
gdb 94018	4.28436	0.95747	0.83128	0.8891	91.27	-0.242	0.0176	0.2596	1428.3827	0.182752	-349.944492	-349.935495	-349.934551	-349.978009	35.106	
C	-0.018728235	 1.5850981115	-0.0029119458	-0.400108
C	 0.0108651232	 0.0491319761	-0.0000908725	-0.003035
C	 0.6640992507	-0.5110843168	-1.2744651467	-0.217688
C	 0.9542978677	-2.0093243952	-1.1504984837	-0.217194
C	 1.953486816	-2.2779159687	-0.0011057892	-0.195793
C	 1.5699107004	-1.4914857866	 1.2420127002	-0.066896
C	 0.7030293353	-0.4814163555	 1.2331455177	-0.056546
C	 2.0674264501	-3.706686445	 0.2904475258	 0.304887
C	 2.1506242743	-4.881814477	 0.5303384948	-0.457988
H	 0.9970158098	 1.9957012891	-0.013109499	 0.117308
H	-0.5454943622	 1.9645843617	-0.8848168653	 0.111858
H	-0.527473526	 1.9739261962	 0.8854646576	 0.112101
H	-1.0352707048	-0.2959800958	 0.0289263315	 0.083719
H	 0.0195488685	-0.3195358604	-2.1396333409	 0.091812
H	 1.6039987402	 0.0272674955	-1.4596833201	 0.095509
H	 0.0261937417	-2.5533018409	-0.9403444546	 0.110661
H	 1.3552264177	-2.4122931161	-2.0855293309	 0.102471
H	 2.9479460851	-1.9323437209	-0.3273807456	 0.111735
H	 2.0403738821	-1.805227865	 2.1694360635	 0.097377
H	 0.4696109377	 0.0209977754	 2.1705149698	 0.08425
H	 2.2292546474	-5.9192089417	 0.7419912233	 0.191559
