18
gdb 20995	3.55701	1.73481	1.19221	1.9389	76.23	-0.2185	0.0329	0.2513	1036.7162	0.153693	-344.023101	-344.014236	-344.013292	-344.056965	30.907	
C	-0.0754486386	 1.4003563796	 0.0956052847	-0.316762
N	 0.0197952345	-0.037701393	-0.0062496117	 0.055858
C	 0.1025122757	-0.7938671157	-1.1296992717	-0.119312
C	 0.089773834	-2.1171662493	-0.7387049655	 0.12663
C	 0.1757579138	-3.3377726448	-1.6019181689	-0.508324
C	-0.0110286126	-2.0553740293	 0.6762911275	 0.288575
C	-0.0569890178	-3.1949124142	 1.6442210727	-0.493702
N	-0.0563656008	-0.7945828349	 1.1069814244	-0.335041
H	 0.2996213759	 1.8512374956	-0.8254587273	 0.134116
H	-1.110719927	 1.7217881639	 0.2549048722	 0.139392
H	 0.5302190228	 1.7415358069	 0.9374581905	 0.151369
H	 0.1672153621	-0.3427144209	-2.1084079925	 0.121976
H	 1.0548105993	-3.9476667211	-1.3606931049	 0.125623
H	-0.7012505089	-3.9850809399	-1.4810946275	 0.125674
H	 0.2426483559	-3.0707377272	-2.6604488359	 0.119725
H	 0.8445440802	-3.8158270274	 1.580437491	 0.12329
H	-0.1396273132	-2.8143108238	 2.6644037885	 0.137736
H	-0.912324805	-3.8532954848	 1.4515736444	 0.123174
