19
gdb 10708	2.47228	1.97543	1.37098	2.4939	71.57	-0.236	-0.0128	0.2232	991.09	0.163687	-365.064381	-365.055257	-365.054312	-365.098289	32.957	
C	 0.9903059266	 0.3573570819	-0.5542181733	-0.386395
C	 0.0536107001	-0.8440302242	-0.3739175922	-0.259993
C	-1.322301336	-0.4620684382	 0.1438066996	 0.222387
C	-2.0084848254	-1.3921813297	 1.0994383647	-0.280832
N	-1.4985697214	-0.1049731571	 1.570031073	-0.344489
C	-2.1877943216	 0.31467791	-0.8243075888	 0.354828
C	-3.3355740171	 1.1297860876	-0.2636217226	-0.478736
O	-1.9461568047	 0.2800850091	-2.0122743509	-0.315042
H	 1.9757730924	 0.030063511	-0.8984662819	 0.115602
H	 0.589664649	 1.0532590284	-1.2956508712	 0.141397
H	 1.1301508743	 0.9031489297	 0.3855943094	 0.109705
H	-0.0704098254	-1.3559422783	-1.3327581511	 0.126527
H	 0.5004217426	-1.5647833351	 0.3222312045	 0.08512
H	-3.0903114676	-1.4901555493	 1.0982751174	 0.123812
H	-1.4740679922	-2.3033982698	 1.3559403585	 0.121833
H	-0.6154893914	-0.234515952	 2.0587912049	 0.236166
H	-2.9368530886	 1.9378865865	 0.3574663142	 0.155077
H	-3.9161263045	 1.5405275081	-1.0901937876	 0.134419
H	-3.9800695488	 0.5353117612	 0.3900362736	 0.138615
