16
gdb 21258	3.49061	1.96074	1.27589	2.9766	67.72	-0.2115	0.0399	0.2515	936.3624	0.131349	-379.93153	-379.923482	-379.922538	-379.964836	27.961	
C	-0.6437442605	 0.6096087366	 0.573586272	-0.247801
O	 0.260961602	 0.8953890603	-0.4837198895	-0.260913
C	 0.5471917236	-0.1457865727	-1.2872578238	 0.489086
C	 0.1287071787	-1.4629755841	-1.338168912	-0.384068
C	 0.8332141001	-1.9853285902	-2.4456582519	 0.005436
N	 1.613235938	-1.0839862307	-3.0271531891	-0.274974
N	 1.4305971473	 0.0488878301	-2.2956322143	-0.050637
C	 2.0899859447	 1.2819807338	-2.6607951302	-0.327737
H	-0.7677997178	 1.5376183129	 1.1327822817	 0.139835
H	-1.6143630879	 0.2832702917	 0.1810916118	 0.132142
H	-0.2425830854	-0.168771721	 1.233746002	 0.131984
H	-0.5629370772	-1.9637760421	-0.6829520779	 0.102655
H	 0.8013655944	-2.9924453538	-2.835945251	 0.107555
H	 1.4406390495	 1.9207742382	-3.2699418232	 0.136919
H	 2.376121872	 1.82893634	-1.7600068357	 0.144755
H	 2.9787161385	 1.023253111	-3.2362574488	 0.155763
