17
gdb 90538	4.52636	1.06043	0.96721	1.558	72.74	-0.2573	0.0031	0.2604	1198.369	0.137706	-417.976412	-417.968684	-417.96774	-418.008949	29.723	
O	-0.1043395505	 1.4720011119	 0.3251924443	-0.431847
C	 0.0577413409	 0.1166157709	 0.0456399542	 0.172867
C	 0.3891116462	-0.8702437069	 1.2242483557	-0.297677
C	-0.8221469912	-1.7581399188	 0.8259278092	-0.043122
C	-2.1320054718	-1.4059634989	 1.589556184	-0.11179
N	-2.3042483752	-0.209934304	 0.7144764148	-0.34359
C	-1.2458074744	-0.682775257	-0.2236930406	-0.042869
C	-3.1868020072	-2.4085311003	 1.4409879034	 0.262246
N	-4.0310162078	-3.1867530324	 1.3028639319	-0.317062
H	-0.938585647	 1.5272427967	 0.8172670003	 0.282963
H	 0.7798312652	 0.0273979007	-0.7710188162	 0.091818
H	 1.3594986858	-1.3646593669	 1.1478554637	 0.112178
H	 0.3100705013	-0.4116029657	 2.2137135388	 0.108983
H	-0.6449556154	-2.805902787	 0.5984079116	 0.102347
H	-2.0224103943	-1.1623600744	 2.6525091352	 0.126431
H	-3.2303034112	-0.1077236401	 0.31728839	 0.246516
H	-1.5670191534	-0.8857403478	-1.2465800602	 0.081607
