19
gdb 75716	2.12621	1.64426	1.30784	3.1927	75.19	-0.2334	-0.0184	0.215	1075.1353	0.157414	-423.020751	-423.011768	-423.010823	-423.054536	33.754	
C	 0.3261753075	 1.6784830941	-0.0670575518	-0.423561
C	 0.1545031579	 0.1733865627	 0.0730068127	-0.165774
C	 0.9351832476	-0.77200036	-0.8574669956	 0.40426
O	 1.1783785829	-0.7470146672	-2.031282859	-0.311854
C	 1.3615088358	-1.6856371216	 0.2937491819	-0.212968
C	 2.7641552086	-1.2674665204	 0.8430434183	-0.22376
C	 2.0913352175	-0.2763356107	 1.8380577147	-0.294726
C	 0.6912530676	-0.666739891	 1.2851310038	 0.386759
O	-0.2613133276	-1.1319319986	 2.1970534565	-0.478989
H	 1.3719539474	 1.9793203407	 0.048577611	 0.124056
H	 0.0017845851	 2.0006909256	-1.0610704015	 0.140777
H	-0.2675260128	 2.2238914227	 0.6741557962	 0.113957
H	-0.9052506642	-0.104990858	-0.0218020519	 0.114052
H	 1.1205550473	-2.747039996	 0.2437126388	 0.099369
H	 3.2855461056	-2.0900199824	 1.3349255123	 0.117853
H	 3.4345637965	-0.8301754248	 0.0999724974	 0.119045
H	 2.1987846428	-0.586696204	 2.8796961763	 0.111102
H	 2.3785104322	 0.7747083768	 1.754000208	 0.10016
H	-0.5536773677	-0.3896770379	 2.7379459118	 0.280242
