25
gdb 118147	3.14906	0.76425	0.65101	1.9998	89.05	-0.2412	0.0735	0.3146	1813.3985	0.227998	-389.479339	-389.468639	-389.467695	-389.515949	38.606	
C	-0.0296046075	 1.565346681	-0.1894520834	-0.379385
C	 0.0181546886	 0.0450381448	-0.0104706148	-0.176888
C	-1.3772189773	-0.5885921038	 0.0513204986	-0.163735
C	-1.3966124809	-2.1260167556	 0.1437973974	 0.000159
C	-0.7760895245	-2.6446407506	 1.4497333249	-0.400964
C	-2.8239692786	-2.6514871848	-0.0118545213	-0.008273
C	-3.516144084	-2.5057082677	-1.387317421	-0.094048
O	-3.7544142686	-3.9247893818	-1.4722246518	-0.274135
C	-3.0263201551	-4.1660211306	-0.2517853542	-0.09541
H	 0.9762989338	 1.9945010912	-0.2322877262	 0.111631
H	-0.5486646885	 1.8396134948	-1.1146774604	 0.113918
H	-0.5607762773	 2.0450763321	 0.6402966329	 0.11384
H	 0.5816037966	-0.4038897491	-0.8394612602	 0.094895
H	 0.5782234072	-0.1919242068	 0.9017447677	 0.099441
H	-1.9278568711	-0.172529259	 0.9078232078	 0.089544
H	-1.9363100083	-0.2809709093	-0.8430836775	 0.093484
H	-0.806113846	-2.5224180116	-0.6968234576	 0.070061
H	-0.8242312379	-3.7372074371	 1.5053075653	 0.115613
H	 0.2754332535	-2.3600950635	 1.542659884	 0.118364
H	-1.3093356115	-2.2436078866	 2.3202329062	 0.112379
H	-3.445556831	-2.2749661357	 0.8075017585	 0.073614
H	-4.4493644542	-1.9307353696	-1.4144320247	 0.099965
H	-2.8598771435	-2.1522819762	-2.1957278066	 0.093113
H	-2.0993102346	-4.7288430654	-0.4332680266	 0.093369
H	-3.6297142093	-4.708920889	 0.485444293	 0.099446
