15
gdb 76213	2.44508	1.6048	1.00063	4.1968	70.97	-0.2382	-0.0933	0.1449	1121.097	0.110872	-457.802747	-457.794213	-457.793269	-457.836129	30.827	
C	 0.1243271041	 1.4626123606	 0.0657796753	-0.490074
C	 0.0052125321	-0.0180145955	-0.0143031713	 0.292098
C	-0.0875529643	-0.7834379165	-1.1230020456	-0.291458
C	-0.0791191323	-2.218572214	-0.8071704355	 0.306757
O	-0.203773108	-3.1760850254	-1.5307292256	-0.306524
C	 0.1776355754	-2.2636046641	 0.7208839444	 0.264713
O	 0.6038747986	-3.1780591129	 1.3729623479	-0.292714
C	-0.052731113	-0.8477101618	 1.2550472992	-0.043475
O	 0.9034514858	-0.4629022686	 2.2125701933	-0.435685
H	 1.0131182923	 1.7263806516	 0.6496472411	 0.169215
H	 0.1883424828	 1.9232558878	-0.9221192091	 0.136892
H	-0.7330680012	 1.8879467627	 0.602779934	 0.147892
H	-0.1273774907	-0.4117337161	-2.1399259735	 0.128396
H	-1.0733222176	-0.7901697373	 1.6772103936	 0.111773
H	 1.190289456	-1.2762320706	 2.6507665316	 0.302192
