19
gdb 59691	2.11826	1.45752	0.98943	1.0307	77.34	-0.2468	0.0405	0.2873	1236.3123	0.156611	-422.968471	-422.958698	-422.957753	-423.003513	35.639	
C	-0.0973585498	 1.5112866912	-0.2270718614	-0.414785
C	 0.0063338315	 0.0028414106	-0.018415258	 0.10959
O	 0.7960150626	-0.3410688388	 1.1146235012	-0.429363
C	-1.3726832737	-0.6354389743	 0.1174348808	 0.127643
O	-2.2421270898	-0.3488942103	-0.9979790497	-0.287155
C	-2.4787307406	-1.7445826712	-1.2556210863	-0.073064
C	-1.525101928	-2.17685521	-0.1055685527	-0.266956
C	-0.3586166741	-2.9457564411	-0.4839363322	 0.359043
C	 0.5903662911	-3.5984080876	-0.8289689381	-0.471252
H	 0.8991553512	 1.9457996831	-0.3424444375	 0.123268
H	-0.6920899613	 1.7345241954	-1.1164232365	 0.14215
H	-0.5846919001	 1.9909534773	 0.6321075854	 0.102575
H	 0.5197026796	-0.453002548	-0.8713966654	 0.102498
H	 0.4653625658	 0.1648047824	 1.8656618318	 0.277608
H	-1.8279816826	-0.3041710053	 1.0642877189	 0.064136
H	-3.5299729069	-2.0188080002	-1.1082831782	 0.105914
H	-2.1594370693	-2.0403106585	-2.2600412037	 0.116703
H	-2.0452575508	-2.6677691556	 0.7204343211	 0.111524
H	 1.4382785851	-4.169638639	-1.1157949795	 0.199922
