17
gdb 39064	2.68473	2.01578	1.36747	1.6656	72.29	-0.2247	0.0209	0.2456	935.8505	0.138833	-417.970473	-417.963669	-417.962725	-418.001532	27.47	
C	 0.1345500774	 1.4871528372	 0.0796859877	-0.382378
C	 1.3359532735	 0.5750041456	-0.1019852367	 0.024528
O	 2.2367630719	 0.3518737031	 0.9644445874	-0.224698
C	 1.9312401785	-0.6370883834	 1.8480679071	 0.124325
N	 0.8595010763	-1.2917813262	 2.0021181849	-0.271456
C	-0.2673193766	-0.9679330212	 1.1618398192	-0.041299
C	-0.6634142418	-1.9846959086	 0.0479954054	-0.175273
N	-0.7730371842	-0.849025004	-0.9156805049	-0.382194
C	-0.0373987639	 0.0045732634	 0.0085885516	 0.312815
H	-0.0097847433	 1.9734571238	 1.040102902	 0.126996
H	-0.1373638795	 2.0887470017	-0.7823314129	 0.123085
H	 1.865511509	 0.6081016726	-1.0492151534	 0.10698
H	 2.7904337239	-0.8199534504	 2.4898423871	 0.126763
H	-1.1214162857	-0.7094457626	 1.7956481024	 0.097842
H	 0.1554283846	-2.683253656	-0.1587862272	 0.105014
H	-1.5945787141	-2.5400055553	 0.1854977577	 0.110421
H	-0.3261695159	-1.0046166498	-1.8142657574	 0.218528
