20
gdb 14047	4.29205	1.60361	1.49009	1.4086	74.57	-0.2337	0.0813	0.315	946.8603	0.17896	-349.008299	-349.000923	-348.999979	-349.040127	28.785	
C	 0.2057995806	 1.4150718584	-0.5116524462	-0.214867
C	 1.4404834017	 1.5731485608	 0.4160177289	-0.274586
C	 1.2865490709	 0.0720507227	 0.8069868516	 0.465878
C	-0.1640772	 0.1225615327	 0.2672229177	-0.284538
C	 2.2496822048	-0.8903784004	 0.0984304746	-0.275682
C	 3.3541823015	-1.0681378916	 1.1480556771	-0.234356
C	 2.5353210092	-1.0612216456	 2.4435642887	-0.069023
O	 1.408728703	-0.2209184404	 2.1940231403	-0.311218
H	-0.5259216337	 2.224997355	-0.5102147394	 0.099686
H	 0.488389029	 1.206354684	-1.5470810246	 0.100303
H	 2.3883683869	 1.8930174363	-0.0271456998	 0.086976
H	 1.2198409535	 2.2035691872	 1.2812376584	 0.107376
H	-0.8584939764	 0.3278895171	 1.0860587199	 0.110835
H	-0.5236284378	-0.742526039	-0.2972393843	 0.089198
H	 1.7478048786	-1.8470802236	-0.0900701782	 0.100826
H	 2.609606317	-0.5054138673	-0.8586558428	 0.102604
H	 3.9400018858	-1.9814437277	 1.0190566453	 0.100499
H	 4.043572576	-0.2172246111	 1.1267855888	 0.107783
H	 2.1904481876	-2.074708058	 2.6987079184	 0.091401
H	 3.088241222	-0.6679561197	 3.3036571954	 0.100905
