19
gdb 41825	2.3646	2.03363	1.52999	2.2537	69.97	-0.2425	0.0758	0.3183	935.6003	0.162691	-460.162375	-460.155346	-460.154402	-460.193719	28.313	
C	 0.3186048857	 1.6070410665	 0.2694263676	-0.077185
O	 1.4758036648	 2.0074021175	-0.4702037069	-0.267629
C	 2.0844783178	 0.8618557951	-1.0583188612	 0.10147
C	 0.9216424328	-0.1227362135	-1.257289031	-0.281642
C	 0.1064344911	 0.0954085289	 0.0247395075	 0.09302
O	 0.5093595286	-0.6960613271	 1.1421811894	-0.264414
C	 1.8617515286	-1.0609602837	 1.2439351586	 0.019047
O	 2.7618127359	 0.0093341438	 1.1588111752	-0.236531
C	 3.2011768808	 0.3280153327	-0.1539871259	-0.097231
H	 0.459006871	 1.7946528567	 1.3383965927	 0.11704
H	-0.537260725	 2.1936301136	-0.0882423281	 0.09567
H	 2.5338412549	 1.1730776091	-2.0089923708	 0.079711
H	 0.3224488865	 0.1936214359	-2.1159543345	 0.114045
H	 1.2207072858	-1.1600337759	-1.4188440281	 0.112224
H	-0.9521516493	-0.1385418305	-0.1087223358	 0.090142
H	 1.9594289281	-1.4872406898	 2.2456622041	 0.117744
H	 2.1250251938	-1.8269013776	 0.493818953	 0.077809
H	 3.6764969505	-0.5478016193	-0.6268038407	 0.085833
H	 3.9598714674	 1.1047246775	-0.026515785	 0.120876
