14
gdb 128597	2.75458	1.56913	1.0061	2.8211	69.12	-0.2468	-0.0635	0.1833	1096.5884	0.102024	-469.99756	-469.990008	-469.989064	-470.029849	27.608	
C	 0.0556946033	 1.4018428235	 0.0071009694	-0.254412
O	-0.009803757	-0.0200584387	 0.0024790125	-0.228932
C	-1.2155907219	-0.5891288263	 0.0101458093	 0.223925
C	-2.4298536618	 0.0365311801	 0.0221131959	-0.097889
N	-3.6379871424	-0.6245565236	 0.0297011705	-0.204969
N	-3.6733040633	-1.8946992504	 0.0260390682	-0.051547
N	-2.4942325432	-2.5556601432	 0.014178734	-0.284485
C	-1.1901931135	-2.0542061184	 0.0044658403	 0.417968
O	-0.2187771453	-2.7791154639	-0.0044166539	-0.366824
H	 1.1162088541	 1.6519972631	-0.0005768884	 0.155379
H	-0.429106833	 1.820793037	-0.8824178362	 0.140077
H	-0.4146182315	 1.8143058317	 0.9073653373	 0.140084
H	-2.5223293898	 1.1150765168	 0.0265813462	 0.12888
H	-2.5894513147	-3.5637798177	 0.0121943948	 0.282745
