20
gdb 107245	2.41629	1.72914	1.25326	2.5642	78.24	-0.216	0.0653	0.2813	1075.8867	0.169699	-403.058916	-403.05022	-403.049276	-403.091761	34.335	
C	 0.083443152	 1.5968972247	-0.0537523328	-0.38569
C	 0.0000795414	 0.0642511912	-0.0676019666	-0.276057
C	 0.6189223094	-0.5737423352	-1.2858883362	 0.247375
C	 1.5761662834	-1.7015696714	-1.2481883214	-0.304456
N	 2.0697797037	-0.3601787701	-1.6425445943	-0.174551
C	 1.6315476151	-0.0263431506	-3.0567642003	-0.054555
C	 0.8041786389	-1.0552074434	-3.7983919756	-0.371662
C	 0.1778731227	-0.1960735638	-2.7329836192	 0.329211
O	-0.8697635964	 0.6722057582	-2.9833969299	-0.44455
H	 1.126298033	 1.9176939955	-0.1318403906	 0.130911
H	-0.471013335	 2.0283895757	-0.8899041286	 0.137761
H	-0.3294331637	 1.9961605433	 0.8777817719	 0.10399
H	 0.5004394639	-0.3385135719	 0.8205541771	 0.102391
H	-1.048609809	-0.2564104784	-0.0011805468	 0.093896
H	 1.9495981761	-1.9913871681	-0.2691869131	 0.118569
H	 1.5531383951	-2.5174758525	-1.9607177502	 0.114966
H	 2.1723697908	 0.7618516585	-3.5638780492	 0.110914
H	 0.5481485874	-0.7081909146	-4.7957805128	 0.120681
H	 0.940572498	-2.129159382	-3.732956446	 0.112044
H	-1.6637394168	 0.1501887849	-3.1447943155	 0.288813
