18
gdb 90312	2.55818	1.71945	1.12593	1.8844	80.04	-0.2201	0.0007	0.2208	1092.508	0.149315	-398.132979	-398.124943	-398.123999	-398.166262	30.303	
C	-0.4008992711	 1.5518036914	-0.3892289184	-0.397156
C	-0.0258204964	 0.1094373673	-0.0963272522	 0.03652
C	 1.2763721673	-0.4531091572	-0.8030703905	-0.389717
C	 1.8766558579	-0.4775242602	 0.5956125939	 0.402257
N	 2.9241499718	-0.571204414	 1.3134628966	-0.362101
C	 2.4107210182	-0.2017625322	 2.6605441363	-0.274285
C	 0.9187041174	 0.2362953551	 2.5095044062	 0.307668
N	 0.0777881073	 0.7584996252	 3.3044509824	-0.542802
N	 0.6907406819	-0.1097741011	 1.1873833875	-0.063959
H	 0.4759430947	 2.2047103749	-0.3348580026	 0.127091
H	-0.83289043	 1.6324092744	-1.3918030354	 0.12576
H	-1.1383922195	 1.9087677754	 0.3348447844	 0.15294
H	-0.8958229679	-0.5469058126	-0.1893670213	 0.104285
H	 1.1577533098	-1.4304681532	-1.2740615757	 0.139752
H	 1.758247784	 0.2340330428	-1.5008776031	 0.139625
H	 2.4830610817	-1.0558766492	 3.34432103	 0.139113
H	 3.0128667283	 0.6088261747	 3.0844598118	 0.135474
H	 0.5017555248	 0.9169100585	 4.2180569902	 0.219535
