20
gdb 89640	3.6766	1.15861	1.0352	2.6576	79.77	-0.2269	0.0715	0.2984	1232.417	0.170994	-403.082639	-403.074166	-403.073222	-403.115869	32.622	
C	-0.1107155239	 1.4689737576	-0.0660427611	-0.407947
C	 0.0665137422	-0.0125677112	 0.1886825309	 0.146833
O	 1.0078805688	-0.6523542425	-0.7356152671	-0.350681
C	 1.6956111706	-1.2636777037	 0.3664462743	 0.491308
C	 2.3338527935	-0.2095121008	 1.2156115751	-0.348896
C	 0.858504144	-0.5240017466	 1.3921872265	-0.210435
C	 2.1318164252	-2.6679735537	 0.1858726169	-0.112802
C	 1.3353285341	-3.5889510788	-0.6619325838	-0.242932
N	 2.6383879887	-3.0851958586	-1.1350813377	-0.328308
H	 0.8289441112	 2.0132941754	 0.0574525529	 0.124057
H	-0.4740545273	 1.6371063781	-1.0848527697	 0.129278
H	-0.8476777251	 1.8827211452	 0.6305796713	 0.120411
H	-0.8976239446	-0.5315628389	 0.1132152925	 0.084753
H	 2.9616050565	-0.5779587027	 2.0214041793	 0.118311
H	 2.6664945763	 0.7210760176	 0.7647438553	 0.115708
H	 0.4349609683	-0.8623356589	 2.3282097689	 0.101098
H	 2.6949421852	-3.0717064708	 1.0243579004	 0.089402
H	 1.3103930955	-4.6502109017	-0.4314373684	 0.113934
H	 0.436441376	-3.188828954	-1.1206740768	 0.120794
H	 2.4711514548	-2.3287160211	-1.7965849698	 0.246112
