17
gdb 55733	2.22917	1.52773	1.04534	2.0749	69.38	-0.2496	-0.0405	0.2091	1141.5414	0.135598	-455.165428	-455.156487	-455.155543	-455.199541	32.719	
N	 0.2685775916	 0.9164826617	 0.1498417147	-0.507621
C	-0.5796783737	 0.2378356524	-0.6702596037	 0.394348
O	-0.5563308855	 0.3131264872	-1.8864771079	-0.369734
C	-1.58027758	-0.6736085472	 0.0431779955	-0.401753
C	-1.0150619557	-2.080143285	 0.1494105657	 0.216364
C	-1.8082551356	-3.2484665347	-0.358026137	-0.279513
N	-0.6271874799	-2.8136173724	-1.0839991151	-0.337983
C	-0.053036935	-2.3222997124	 1.2611901927	 0.152736
O	 0.2566666501	-1.4952448152	 2.0878597951	-0.281408
H	 1.0433548154	 1.3937314365	-0.2848216265	 0.25962
H	 0.3741837721	 0.6092716693	 1.1055829584	 0.277209
H	-1.8221153791	-0.3062483277	 1.0439359456	 0.128585
H	-2.4884707613	-0.6780639897	-0.5623835275	 0.12684
H	-1.7212280047	-4.2189709632	 0.1241933507	 0.128351
H	-2.7982677862	-3.0174264124	-0.7427106554	 0.131471
H	-0.8608840325	-2.2224560002	-1.8810190909	 0.263042
H	 0.38215848	-3.3432951769	 1.2666735655	 0.099447
