25
gdb 59787	2.92024	1.03796	0.81705	1.4321	88.66	-0.2578	0.0748	0.3325	1493.0072	0.230438	-389.521822	-389.512191	-389.511247	-389.555978	37.862	
C	 0.089162329	 1.5676119672	 0.0567416038	-0.413796
C	 0.0059667236	 0.0396438644	 0.047149116	 0.124485
O	 0.7262251324	-0.4971360323	 1.1593453846	-0.431901
C	-1.4324943279	-0.5141821807	-0.0010637421	 0.028609
C	-2.2298680043	-0.0124765046	-1.2196756065	-0.200743
C	-3.649149451	-0.600918409	-1.2645859923	-0.196868
C	-3.6355954493	-2.1340597698	-1.215937027	-0.176424
C	-2.8509239247	-2.6375198073	 0.0024537457	-0.203336
C	-1.4324531851	-2.0537932785	 0.034666576	-0.181677
H	 1.129350642	 1.8745784552	 0.1952801034	 0.122276
H	-0.2761443204	 2.007921021	-0.8747970961	 0.12056
H	-0.5034569305	 1.9869084021	 0.8803265697	 0.103146
H	 0.5501716891	-0.3391211263	-0.8284710583	 0.084313
H	 0.3157731219	-0.1531495369	 1.9608763942	 0.272866
H	-1.9462379217	-0.1522229836	 0.9069329065	 0.049976
H	-2.2899726088	 1.0807160518	-1.2191288782	 0.090615
H	-1.6915056368	-0.2950199375	-2.1366026895	 0.09058
H	-4.2219234344	-0.2189660078	-0.4077492516	 0.09007
H	-4.1686319428	-0.2508701529	-2.1639951208	 0.088174
H	-4.6602926987	-2.5226330073	-1.2007344774	 0.08689
H	-3.168479792	-2.5218132953	-2.1321474266	 0.090196
H	-3.3843845566	-2.3496671724	 0.9196291416	 0.08722
H	-2.8059550312	-3.7326230038	 0.002320764	 0.088293
H	-0.8717478868	-2.4230390699	-0.8369707765	 0.086507
H	-0.8870740651	-2.3984890758	 0.9168331676	 0.099968
