18
gdb 45132	2.61665	1.6288	1.16328	5.4788	80.44	-0.2073	-0.0256	0.1817	1066.3183	0.150428	-401.960561	-401.952897	-401.951953	-401.992803	30.149	
O	 0.071339891	-0.1186145467	-0.3050455635	-0.351777
C	 0.0105116027	 1.0909488129	-0.1401641637	 0.322686
C	-1.3546421521	 1.7206691279	 0.1517929133	-0.32911
C	-1.4708744192	 2.79023163	 1.2222287497	-0.031596
C	-0.553587923	 2.8558868271	 2.4257796905	-0.320321
C	-0.531249475	 3.9473548692	 1.3723843024	 0.02475
N	 0.6024709882	 4.1767601058	 0.515442894	-0.298927
C	 1.396633843	 3.2393511081	-0.0720365486	 0.01413
C	 1.1907305225	 1.9246330597	-0.3345140012	-0.190322
H	-1.7181270314	 2.1394416825	-0.7981444419	 0.121157
H	-2.0148822931	 0.8849350065	 0.4007033837	 0.124472
H	-2.5078704864	 3.0524607003	 1.4186690007	 0.096534
H	-0.9657606767	 3.0835993415	 3.4024005653	 0.115739
H	 0.2888616605	 2.1732901615	 2.4398650809	 0.138469
H	-0.9854748712	 4.8955030064	 1.6396621148	 0.102317
H	 1.0697352181	 5.0482836796	 0.7058432995	 0.250644
H	 2.3571370539	 3.6545840335	-0.3683932117	 0.115663
H	 2.0294238583	 1.3864164342	-0.7621160044	 0.095493
