23
gdb 122226	2.76417	0.79441	0.69475	2.3331	82.61	-0.2463	0.0786	0.3249	1715.1707	0.203265	-425.396602	-425.385765	-425.384821	-425.433282	38.977	
C	 0.571202494	 0.2526207734	 1.1856092302	-0.247731
O	-0.0577636914	 0.0582161717	-0.0659069952	-0.28305
C	-1.2214821338	-0.7270072894	-0.0206232552	 0.455927
C	-2.4328571418	-0.0570432181	 0.603388414	-0.277421
C	-2.8279173733	 1.2399534832	-0.112045709	-0.156882
C	-4.0159156041	 1.934554654	 0.538339777	-0.076985
O	-4.2935478813	 3.1147345291	-0.2007570907	-0.421169
C	-1.396221844	-1.6030864885	-1.2235778059	-0.310888
C	-1.0256290944	-2.2178844164	 0.1135623178	-0.335613
H	 1.5076363218	 0.7805229666	 0.9894862625	 0.12567
H	-0.0347855912	 0.8628447489	 1.8700702628	 0.107254
H	 0.7956029177	-0.7032529043	 1.6799367783	 0.105571
H	-3.2679273423	-0.7680719567	 0.5853944755	 0.09509
H	-2.2365222119	 0.1479299075	 1.6647392948	 0.093771
H	-1.9772111556	 1.9288999016	-0.126633866	 0.11871
H	-3.0743269516	 1.028888552	-1.1591366976	 0.106943
H	-4.8864519991	 1.2569792328	 0.5473870726	 0.079561
H	-3.7802334864	 2.1698219648	 1.5900237652	 0.079846
H	-5.0464931803	 3.5536366844	 0.2053185609	 0.283816
H	-2.3985192617	-1.7580722911	-1.6082154863	 0.109816
H	-0.6192979923	-1.5519271644	-1.9771838078	 0.122908
H	-0.0079725522	-2.5755854799	 0.2232641605	 0.115999
H	-1.7710549651	-2.7991423212	 0.6459773915	 0.108856
