22
gdb 120747	3.76499	0.7836	0.71392	2.0195	80.32	-0.2464	0.0682	0.3146	1677.1361	0.192748	-441.446201	-441.435818	-441.434874	-441.482325	37.45	
C	-0.3390304514	 1.3377656984	 0.0287860571	-0.223777
O	-0.2428535274	-0.0564360772	-0.1306399766	-0.236759
C	 0.8214444018	-0.4340256309	-0.9822947562	-0.078449
C	 0.8328565948	-1.9377737709	-1.0611108188	-0.022689
N	 0.0193359749	-2.5974162075	-2.0989095385	-0.35364
C	 1.484641643	-2.7343707884	-2.1348841104	-0.050333
C	 2.145755515	-2.1563506668	-3.3882636255	 0.125664
C	 2.4681191904	-3.2722670676	-4.3888600985	-0.392213
O	 1.3235396613	-1.1691903349	-3.984635832	-0.432876
H	 0.5727595345	 1.7630028065	 0.4794270359	 0.100306
H	-0.5136833478	 1.8491051733	-0.9310511178	 0.106761
H	-1.1844142318	 1.5347201602	 0.6928459234	 0.124309
H	 0.7152425286	 0.005829548	-1.9814914034	 0.115499
H	 1.7838355733	-0.0850980824	-0.566102299	 0.081973
H	 0.8205382273	-2.4037162651	-0.0765462523	 0.093343
H	-0.4395564047	-3.4308590821	-1.7464700947	 0.239163
H	 1.9084855157	-3.6857381776	-1.8171027202	 0.085051
H	 3.0809399854	-1.6566435618	-3.1017746824	 0.085526
H	 3.1891566243	-3.9856957853	-3.9740585295	 0.105042
H	 1.5578496304	-3.8189410366	-4.6590326769	 0.115162
H	 2.8909974177	-2.8410813969	-5.2996266622	 0.1243
H	 0.4147078346	-1.4551836844	-3.7974296817	 0.288635
