16
gdb 43998	3.64959	1.47916	1.4029	1.7277	68.68	-0.2453	0.0137	0.2589	953.2308	0.125124	-437.833969	-437.827116	-437.826172	-437.865215	27.58	
N	-0.0348064459	 1.0921338693	-0.7675923331	-0.515978
C	-0.0068717107	 0.0285070962	-0.1013703544	 0.385374
C	-1.2407715436	-0.8049165858	 0.3051769371	-0.387404
C	-0.6389022614	-2.0264162213	 0.9403944455	 0.329258
C	 0.3069450846	-2.9491056188	 0.2249212362	-0.376886
C	 0.8391502571	-1.772912978	 1.0066916529	 0.244309
C	 0.6693766392	-1.9320088775	 2.5161193025	-0.142313
O	-0.7311403787	-2.3119886104	 2.3474218694	-0.319291
O	 1.1629036565	-0.5797222768	 0.3577631267	-0.269816
H	 0.9049190365	 1.4605953628	-0.9188073929	 0.233268
H	-1.8316708089	-0.2484242584	 1.0375800083	 0.156754
H	-1.8712097372	-0.9815292293	-0.5684934283	 0.147709
H	 0.4441644859	-3.9559688692	 0.605032943	 0.133606
H	 0.3633257374	-2.8426034941	-0.8528411447	 0.139353
H	 1.2528341812	-2.7077181971	 3.02286285	 0.117726
H	 0.7601052181	-0.9799315914	 3.0495698219	 0.124331
