13
gdb 128599	2.77642	1.571	1.00979	5.869	65.68	-0.2745	-0.091	0.1835	1080.0593	0.087612	-489.848332	-489.840525	-489.839581	-489.880963	27.895	
C	 0.0501247888	 1.3631564307	-0.0656801579	-0.257583
O	-0.0476304047	-0.0605563321	-0.0749946911	-0.21388
C	-1.2516353655	-0.6041198768	 0.0200836231	 0.192574
C	-2.4406266964	 0.0413053613	 0.1285381567	-0.118015
N	-3.6280290646	-0.6587611461	 0.2202999719	-0.091575
N	-3.7209501191	-1.8814743678	 0.2131730664	 0.036331
O	-2.4656301941	-2.6596634312	 0.0975113264	-0.272539
C	-1.2354932807	-2.0878350899	 0.0004088563	 0.452031
O	-0.2459690924	-2.7594410561	-0.0911970688	-0.322999
H	 1.1123749739	 1.5880259818	-0.1526952694	 0.163394
H	-0.4927124844	 1.7951752492	-0.9136850018	 0.146202
H	-0.3417899103	 1.7731266162	 0.8717377604	 0.146204
H	-2.5478641004	 1.1162011508	 0.1508385378	 0.139856
