20
gdb 60292	4.67315	0.59306	0.57922	3.8059	81.06	-0.2697	-0.0282	0.2415	1959.7576	0.167657	-440.315654	-440.305079	-440.304135	-440.352598	36.39	
C	-0.2093547091	 1.3639039496	-0.3484814537	-0.391539
C	-0.1522529434	-0.1417310789	-0.0638559731	 0.046656
C	 1.0117290994	-0.4922639721	 0.8700062561	-0.387158
C	-1.4996550546	-0.621202769	 0.5040671631	-0.144622
N	-1.547162794	-2.0697815705	 0.6214789265	-0.222168
C	-1.8498813349	-2.5647261975	 1.7340538654	 0.137561
O	-1.9341719414	-3.9105835697	 1.9763881526	-0.195909
C	-2.0395795741	-4.777947158	 0.9135266585	 0.180214
O	-1.9890919565	-5.9546244838	 1.0833683471	-0.250365
H	 0.7286840511	 1.7135462203	-0.7904563046	 0.116995
H	-1.0195538447	 1.6123953883	-1.0422739393	 0.112363
H	-0.371758379	 1.9345187113	 0.5738419539	 0.113795
H	-0.0025214743	-0.6718643743	-1.0133383619	 0.087589
H	 0.9010202551	 0.0085628304	 1.8400865126	 0.107791
H	 1.0673666596	-1.5691702849	 1.0510936968	 0.12407
H	 1.9666931275	-0.1732414589	 0.4407954224	 0.115275
H	-1.6951935845	-0.1211454274	 1.4691651917	 0.085589
H	-2.2989262406	-0.3194273832	-0.1844846575	 0.111471
H	-2.0680145057	-2.0160262625	 2.6556920077	 0.120632
H	-2.1839250861	-4.2558810791	-0.0406916443	 0.13176
