15
gdb 51462	3.68665	1.21621	1.19725	3.9531	65.65	-0.2461	-0.0012	0.2449	1054.2137	0.114019	-453.951939	-453.944515	-453.94357	-453.984925	27.19	
O	 0.1464102273	 0.5863950035	 1.1244034947	-0.311858
C	 0.106549571	 1.3984099244	 0.2287444471	 0.159572
N	 1.1686717036	 1.7369273386	-0.5576425011	-0.283589
C	 2.4525061763	 1.1482387457	-0.3943012129	 0.002274
C	 3.640621896	 1.8021673872	-1.0280293523	-0.023912
O	 3.4688419359	 3.175104869	-1.3578368732	-0.220506
C	 3.2931109127	 3.8124458872	-0.1604010188	 0.093631
N	 3.349660142	 3.1290222377	 0.9072974544	-0.232958
C	 3.5356433076	 1.7630773146	 0.4965482496	-0.042229
H	-0.8099279871	 1.950391233	-0.0598500935	 0.078187
H	 1.036254977	 2.4002219221	-1.3055814044	 0.256706
H	 2.4600005419	 0.0625826266	-0.3954395666	 0.132354
H	 4.3360399842	 1.291838339	-1.6817191061	 0.123634
H	 3.1228793605	 4.8787850474	-0.2372576217	 0.151652
H	 4.103465021	 1.117503654	 1.1535827548	 0.117041
