16
gdb 14548	4.81382	1.50842	1.37903	2.9004	66.27	-0.2463	-0.0239	0.2224	911.9872	0.129335	-383.704333	-383.696868	-383.695923	-383.735956	27.716	
C	-0.0428328346	 1.5528507514	-0.0932520972	-0.484525
C	-0.0045231822	 0.0433674538	-0.118726633	 0.194832
C	-1.1943235817	-0.6580958545	 0.4271036414	 0.121579
O	-2.1655342884	-0.1086142851	 0.8875323467	-0.271476
C	 0.6689964834	-0.7839278753	-1.2278934221	-0.185801
C	 1.9539425365	-0.0895385635	-1.6658486904	-0.108435
O	 2.4236952667	-0.0216557734	-0.2889289405	-0.278145
C	 1.2810185724	-0.7502699595	 0.1377628518	 0.065522
H	 0.9634118885	 1.9683941273	-0.1722797268	 0.136108
H	-0.6571208997	 1.9487280815	-0.9078232099	 0.125301
H	-0.4874845793	 1.8903867924	 0.8460442435	 0.141374
H	-1.1319023519	-1.7719200125	 0.3921398811	 0.0644
H	 0.154706076	-1.5712545469	-1.7624812166	 0.112742
H	 2.6099160095	-0.7392267372	-2.2538333936	 0.124654
H	 1.8789276768	 0.8964069646	-2.1351100072	 0.12054
H	 1.4077900581	-1.4832206231	 0.9261185031	 0.121331
