19
gdb 115638	1.90389	1.76759	1.11913	0.8456	71.3	-0.2351	0.0432	0.2783	1128.4284	0.158351	-460.108787	-460.099878	-460.098934	-460.142322	33.64	
O	 0.4376539729	 0.2519839429	 0.9365939962	-0.412002
C	-0.1369527543	 0.0975046528	-0.3682884916	-0.127515
C	-1.4871209537	-0.5825330447	-0.2315743885	 0.088719
O	-2.1831388253	-0.8191892978	-1.474546658	-0.306209
C	-2.4402519375	-2.2021278198	-1.1153510678	-0.153474
C	-1.5256328421	-2.0709571617	 0.0971108412	 0.2221
C	-0.3660921531	-2.9589832083	 0.4909579218	-0.397668
C	-1.471217605	-2.6537654102	 1.4716703644	 0.076578
O	-1.2365972206	-1.7969948863	 2.5499562528	-0.439419
H	 0.0444672882	 1.0318712541	 1.3417941792	 0.297944
H	-0.2342424777	 1.0627085128	-0.881407752	 0.111377
H	 0.5517125035	-0.5261516252	-0.9444826525	 0.124398
H	-2.1113925163	 0.0108112884	 0.4582210318	 0.071764
H	-3.503413834	-2.3703538296	-0.8963070305	 0.104385
H	-2.1161599781	-2.8939098769	-1.9015799032	 0.107448
H	-0.3301227533	-3.9495043223	 0.046308904	 0.113347
H	 0.6073370096	-2.5109636736	 0.6684897616	 0.12939
H	-2.1592179263	-3.4442990878	 1.7549967924	 0.104421
H	-0.5641105271	-1.1576575866	 2.2702872289	 0.284418
