16
gdb 51946	2.76225	1.01485	0.83128	2.5025	67.73	-0.256	-0.0489	0.207	1363.876	0.121699	-474.993338	-474.984067	-474.983123	-475.029909	31.194	
N	 0.3426879745	-0.1516926249	 1.2709047202	-0.431222
C	-0.5119951856	-0.4015583091	 0.3808094742	 0.128088
O	-0.3876798395	-1.5198561787	-0.3731063482	-0.177586
C	-1.4808781848	-1.8530401712	-1.2168779314	-0.198295
C	-2.4986013695	-2.7856605235	-0.5503779053	 0.330185
O	-3.6345246668	-2.8377592036	-0.9536597353	-0.293662
C	-2.0031038683	-3.6242021278	 0.5983725881	-0.025117
C	-2.8667718638	-3.7508943141	 1.7953234307	-0.158583
O	-2.7568786711	-4.8049376978	 0.8602057073	-0.204738
H	 0.1292167633	 0.7344718066	 1.7236775458	 0.236467
H	-1.3835416565	 0.2102493942	 0.1094955937	 0.097869
H	-2.0092035855	-0.9646705486	-1.5812410453	 0.141138
H	-1.0590451887	-2.3730740649	-2.0842200708	 0.156012
H	-0.9268671362	-3.7124282153	 0.7182052474	 0.132727
H	-2.3953670155	-3.9141409538	 2.7629773851	 0.13145
H	-3.823964656	-3.2327030974	 1.7989379938	 0.135267
