21
gdb 62578	3.41559	1.42777	1.28308	1.3319	82.59	-0.2369	0.0722	0.3091	1079.4311	0.184103	-387.046265	-387.038523	-387.037579	-387.077805	32.425	
C	 0.0666813992	 1.5012123879	 0.0468204617	-0.441833
C	-0.0768561271	-0.0104480907	-0.0231390718	 0.356852
O	-1.3509290713	-0.3799029359	-0.4910919911	-0.457062
C	 1.2099081995	-0.758116712	-0.3241808008	-0.109353
C	 0.5920506509	-0.767150374	 1.0898765526	-0.070724
C	 0.4609252701	-2.2872883264	 1.3003305324	-0.053855
C	 1.8770303814	-2.7504283509	 0.8000257556	-0.202517
C	 1.2866731107	-2.2755024338	-0.5764712018	-0.061142
C	-0.0570239782	-2.8549512099	-0.0503390786	-0.23377
H	 1.0346894091	 1.8012323388	 0.4574820284	 0.117414
H	-0.0224849613	 1.9429332057	-0.9535136121	 0.105298
H	-0.7248295539	 1.9227690547	 0.6740421334	 0.126085
H	-1.4042714046	-0.1173526723	-1.417222013	 0.277876
H	 2.0916515278	-0.169916537	-0.5614796721	 0.076146
H	 1.0146201526	-0.1913024134	 1.9079617025	 0.079826
H	 0.0500387354	-2.615649198	 2.255434876	 0.058484
H	 2.7532799197	-2.2223754811	 1.1878989082	 0.083793
H	 2.0231010416	-3.8330010346	 0.8583096771	 0.089164
H	 1.7155175477	-2.5939228387	-1.5275973499	 0.054578
H	-0.0282650189	-3.9473403838	-0.0449955376	 0.084418
H	-0.9957462504	-2.4925346846	-0.4524918791	 0.120323
