21
gdb 83878	2.02617	1.84075	1.30236	1.9009	77.56	-0.2394	0.0622	0.3016	1080.0833	0.184084	-424.211325	-424.202827	-424.201882	-424.243921	33.518	
C	-0.0645745928	 1.5510888569	-0.0644175246	-0.403803
C	 0.009944596	 0.0201809939	-0.0112694132	 0.00178
C	 0.5637139794	-0.561504649	-1.3241674133	-0.092654
O	 0.7809361455	-1.958163697	-1.227117932	-0.24561
C	 1.8523410843	-2.2674582842	-0.3533728667	-0.090831
C	 1.6879524028	-1.6956733865	 1.0505331281	-0.131121
C	 2.2555962304	-0.3256361519	 1.3776677162	 0.074106
O	 2.9527567444	 0.3987990868	 0.4040697146	-0.407389
C	 0.7763083237	-0.4868320934	 1.2049381225	-0.059582
H	 0.9352539414	 1.9828965364	-0.1614484127	 0.139463
H	-0.6699193036	 1.8855151755	-0.9146938081	 0.106357
H	-0.520505725	 1.9546121838	 0.8456964468	 0.10814
H	-1.0093607108	-0.3762858669	 0.0900804282	 0.077724
H	-0.1674361561	-0.4215444853	-2.1267901203	 0.09873
H	 1.4922658076	-0.0467678552	-1.6093602747	 0.100489
H	 1.8878856932	-3.3587904898	-0.3027799657	 0.106082
H	 2.8006739729	-1.9236477984	-0.8012760036	 0.072366
H	 1.6904461503	-2.4265400635	 1.8530197716	 0.086496
H	 2.6203670246	-0.1718123634	 2.3935036945	 0.083454
H	 3.8377744263	 0.025553836	 0.3253380467	 0.289776
H	 0.2055707056	-0.4341686349	 2.1284460955	 0.086025
