19
gdb 40672	4.20356	1.04728	0.94944	1.9547	75.44	-0.2511	0.0722	0.3233	1275.0422	0.158659	-422.964819	-422.956505	-422.95556	-422.998279	31.13	
C	-0.3810463847	 0.9850662404	-0.4138726117	-0.269909
C	 0.8944124191	 1.2449379752	 0.3467285158	-0.262473
C	 0.4681493833	-0.1720257288	 0.044904039	-0.02265
C	 0.0135893793	-1.0602079335	 1.1590875064	-0.065245
O	-0.9991739862	-0.5360311121	 2.0434383584	-0.276574
C	-1.3289845177	-1.6383584476	 1.2241077614	 0.360226
C	-2.4704227393	-1.679967144	 0.2144083928	-0.150865
O	-2.8371373555	-2.9997127945	 0.679721058	-0.277086
C	-1.8460391468	-2.9796810951	 1.7319532918	-0.154247
H	-1.3098153575	 1.157721227	 0.1172718669	 0.129701
H	-0.4099589391	 1.2086191351	-1.4741889209	 0.112083
H	 1.7474478662	 1.6487946412	-0.1865440814	 0.113881
H	 0.7974967309	 1.5833990679	 1.3724070119	 0.12731
H	 1.0403871986	-0.6974891547	-0.7153495292	 0.092629
H	 0.8117046331	-1.5903017633	 1.6839022411	 0.095089
H	-3.2603003831	-0.9391798298	 0.3932808829	 0.112166
H	-2.1939053003	-1.6743316599	-0.8460077181	 0.112517
H	-1.1602502425	-3.8335094422	 1.6736409032	 0.108898
H	-2.296180868	-2.9369051414	 2.7321930117	 0.114549
