18
gdb 34212	3.7981	1.38563	1.36154	2.0918	82.07	-0.2354	0.0419	0.2772	1012.703	0.150063	-364.779159	-364.772256	-364.771312	-364.810129	28.939	
C	-0.008492737	-1.1415243957	-0.0752587261	-0.319831
C	 0.0058843077	 0.0597583987	-0.0205896032	 0.078267
C	-0.0036572305	 1.4837974543	 0.0871799939	 0.243371
C	-1.0586121354	 2.2317827588	 0.9107699938	-0.292249
C	-0.5954454019	 3.6536605947	 0.5385725549	-0.073783
C	 0.9081045272	 3.5988772571	 0.8887869088	-0.237338
C	 1.2218027183	 2.3545069071	 0.0666781354	-0.082116
N	 0.3365731954	 2.3130809978	-1.1183283691	-0.158585
C	-0.5209185374	 3.5190260129	-0.993517201	-0.156634
H	-0.0161609233	-2.2012801928	-0.1368963636	 0.178601
H	-2.077601967	 2.0062385894	 0.5837148885	 0.110304
H	-0.9735794468	 2.0113752409	 1.9786525114	 0.108892
H	-1.1703641807	 4.4837935977	 0.9451504846	 0.073708
H	 1.4605783111	 4.4805732915	 0.5490187913	 0.105495
H	 1.0983532752	 3.4549046821	 1.9566912754	 0.106319
H	 2.2181013739	 1.9464458256	-0.0484486464	 0.10113
H	-1.4893983328	 3.3386153776	-1.4685115521	 0.108037
H	-0.0348425857	 4.3661654922	-1.4870703366	 0.106413
