17
gdb 12438	3.39657	1.91437	1.33293	3.6026	69.72	-0.2363	0.0021	0.2384	916.8435	0.144567	-363.899429	-363.892094	-363.89115	-363.931278	27.777	
O	-0.0160042382	-0.1247886708	-0.1812774986	-0.370611
C	-0.0095942079	 1.0898508473	-0.0726599692	 0.373295
C	-1.3433858536	 1.835627221	 0.0118949012	-0.270987
C	-1.3883517198	 3.3530124597	-0.24748681	-0.278053
C	-0.6356096795	 4.1378177178	 0.7944568165	-0.044617
C	 0.685534145	 4.0442906156	 0.9207888879	-0.05115
C	 1.5064580403	 3.1866654092	-0.0122159637	-0.218025
N	 1.1827818447	 1.758415901	 0.0248592781	-0.299408
H	-2.0018621243	 1.3099089151	-0.6857199995	 0.130096
H	-1.737414036	 1.6262948171	 1.0139932337	 0.132863
H	-0.979543934	 3.5619239946	-1.2456744771	 0.114729
H	-2.4361635243	 3.6657848195	-0.2761877627	 0.106758
H	-1.2063370731	 4.7577627403	 1.4806338505	 0.096402
H	 1.2127754871	 4.590740565	 1.6965496853	 0.098146
H	 1.4159853138	 3.5747200946	-1.0395275916	 0.120445
H	 2.5642283798	 3.2641196598	 0.2499000828	 0.116577
H	 1.96153162	 1.1219117832	-0.0698681537	 0.243537
