17
gdb 1285	8.05978	1.09653	0.98888	1.5782	61.93	-0.2465	-0.0117	0.2348	1175.3083	0.145053	-346.867207	-346.858197	-346.857253	-346.901901	29.661	
C	 0.0104241651	 1.3670994382	 0.0900327078	-0.228136
O	 0.1326246401	-0.0345090848	 0.0650875519	-0.236421
C	 0.6223821843	-0.5165952516	-1.1679653335	-0.048601
C	 0.7098484711	-2.0320896212	-1.0728295387	-0.31363
C	 1.227494499	-2.6844854026	-2.3447340022	 0.377887
C	 1.3424477757	-4.1983754976	-2.3254956439	-0.472514
O	 1.5309730721	-2.0319622534	-3.3185032909	-0.293095
H	 0.9800142259	 1.8655068805	-0.0688104779	 0.104553
H	-0.6892195615	 1.7308362108	-0.679342858	 0.104553
H	-0.3723106048	 1.6456470423	 1.075012581	 0.125167
H	-0.0410139514	-0.224352863	-1.9967998969	 0.100365
H	 1.6128681213	-0.0909358503	-1.3920582621	 0.100366
H	 1.3580009611	-2.3195605856	-0.2345206655	 0.129221
H	-0.2758699102	-2.4513525093	-0.8318421847	 0.129217
H	 0.3659238597	-4.6526741639	-2.1235116924	 0.139107
H	 1.7217901305	-4.5531650084	-3.2844098719	 0.14286
H	 2.0132716318	-4.51994753	-1.5209058919	 0.139101
