19
gdb 55738	4.03654	1.1041	1.00595	2.9301	77.2	-0.2389	0.0237	0.2626	1242.5567	0.159588	-419.140605	-419.132229	-419.131285	-419.174225	31.583	
C	-0.0285776308	 1.4504461664	-0.157612135	-0.466761
C	 0.0607017293	-0.0299272275	 0.1088643394	 0.366362
N	 0.2301960422	-0.6281735957	 1.2149718088	-0.513988
O	-0.0698869785	-0.7146062935	-1.0539847601	-0.291086
C	-0.0135315231	-2.1196653477	-1.0134482569	 0.405817
C	-0.9410819984	-3.1380148557	-0.3234265172	-0.216073
N	 0.041856375	-4.0208266974	-1.1142276258	-0.145502
C	-0.1474545763	-3.0024561952	-2.2552139724	-0.226425
C	 1.1325638471	-3.0628738644	-0.6007884476	-0.216069
H	 0.0743542297	 2.0219964403	 0.7660938951	 0.127124
H	 0.7554876055	 1.7541045274	-0.8579181418	 0.148576
H	-0.9886788821	 1.6908767279	-0.6243363132	 0.148579
H	 0.3071556958	 0.045540435	 1.9736971154	 0.221699
H	-0.8614721071	-3.2468517132	 0.7573563125	 0.124675
H	-1.9720046274	-3.2160810034	-0.6777766328	 0.09972
H	-1.1242475458	-3.0681351126	-2.7404314344	 0.104478
H	 0.670066345	-3.0031664774	-2.9801617234	 0.104499
H	 2.0371719849	-3.0708319853	-1.2140446852	 0.099723
H	 1.3473477949	-3.166814898	 0.4619107446	 0.124653
