19
gdb 99203	6.70448	0.5172	0.48591	1.7416	82.05	-0.2445	0.0144	0.2588	2243.9882	0.155827	-423.043311	-423.032111	-423.031167	-423.083046	36.507	
C	 0.0050088837	 1.3453594001	 0.1544202678	-0.241797
O	 0.1409773561	-0.0760376235	 0.0305942685	-0.236677
C	 0.6269951564	-0.5085442665	-1.1501232346	 0.450722
O	 0.9338940047	 0.2263334124	-2.0557506476	-0.354787
C	 0.7274569294	-2.0193318326	-1.1684852439	-0.317556
C	 1.2791053614	-2.5472912096	-2.5027115042	-0.355449
C	 1.377395583	-4.0024076539	-2.5243384963	 0.006867
C	 1.4494138195	-5.2043097694	-2.5186334316	 0.127284
C	 1.5427137568	-6.6574939853	-2.5277404387	-0.497678
H	 0.9739666568	 1.8376015412	 0.0385630145	 0.140646
H	-0.678293446	 1.7355414186	-0.6041706371	 0.140646
H	-0.3944111725	 1.5193501194	 1.1535718846	 0.133389
H	 1.3595140334	-2.3361188484	-0.3319971	 0.14197
H	-0.2643425435	-2.4364201126	-0.963707146	 0.14197
H	 0.637943447	-2.195683434	-3.3191410073	 0.140724
H	 2.2603310545	-2.0954755324	-2.6880023715	 0.140723
H	 2.5747917836	-6.9903226584	-2.6847861741	 0.146714
H	 1.199207712	-7.0852137564	-1.5791847842	 0.145572
H	 0.9305704338	-7.0918654186	-3.3260043583	 0.146717
