16
gdb 9490	3.04443	1.69111	1.51929	2.5459	65.62	-0.2431	0.0121	0.2552	910.75	0.12978	-379.906384	-379.898111	-379.897166	-379.938832	30.24	
C	 0.0781113477	 1.5861678848	-0.0633787138	-0.389945
C	 0.0696079229	 0.0730787847	 0.0266883493	 0.022308
N	 1.0239088129	-0.6341499753	-0.8633487369	-0.323526
C	 1.3880820624	-1.5840016155	 0.207242394	-0.213882
C	 0.7726787894	-0.6037520048	 1.253275617	 0.252459
O	 1.6890437555	 0.2821419115	 1.8491449323	-0.451717
C	-0.1070376252	-1.2064988514	 2.2602710397	 0.224349
N	-0.7803250979	-1.6927566811	 3.0647271329	-0.33836
H	 1.0884098047	 1.9723715752	 0.0770382136	 0.143796
H	-0.2818042473	 1.8966910089	-1.0497972212	 0.117662
H	-0.5803562806	 2.0251694151	 0.6928303241	 0.124436
H	-0.9573621627	-0.3110642453	-0.0500179527	 0.085234
H	 0.611612442	-1.0544815148	-1.6882837314	 0.224826
H	 0.8643599289	-2.5482131485	 0.1839388012	 0.11305
H	 2.4640858741	-1.755582757	 0.3196754728	 0.113891
H	 2.2012094031	-0.2006026966	 2.5077126492	 0.29542
