18
gdb 112194	2.51928	1.28831	0.94622	4.364	73.56	-0.247	0.0108	0.2578	1263.5372	0.146349	-439.083191	-439.074162	-439.073218	-439.117349	32.77	
C	 0.1255524498	 1.5703732189	 0.0980236775	-0.386783
C	-0.137261637	 0.0692872426	-0.0608194783	-0.18925
C	 0.6059935716	-0.5482579871	-1.238430663	-0.018432
N	 2.075149974	-0.6300617372	-1.1065456468	-0.36856
C	 2.187071583	-1.993214193	-1.2832538161	 0.391575
O	 3.1187691103	-2.7462209742	-1.3504042826	-0.362585
C	 0.6540194001	-2.0907710256	-1.3490548765	 0.257447
C	-0.2480014897	-3.1341142046	-0.8643065774	-0.25593
O	-0.0719622792	-2.871245455	-2.2642021403	-0.2588
H	 1.1855022199	 1.7695609358	 0.2897445311	 0.115969
H	-0.161745896	 2.1218481717	-0.8038690954	 0.121433
H	-0.4423812561	 1.9827051051	 0.936846927	 0.123637
H	 0.1473086057	-0.4614910281	 0.8553610963	 0.103497
H	-1.2108873159	-0.1022361411	-0.2099469634	 0.108362
H	 0.2942798653	-0.0861624031	-2.1839233182	 0.099223
H	 2.7821700098	 0.0877380768	-1.0737224508	 0.256007
H	 0.1700512532	-4.0748288547	-0.5116296609	 0.13927
H	-1.2191635588	-2.858213527	-0.4570080621	 0.12392
