22
gdb 73565	2.1333	1.99885	1.46723	1.7037	83.78	-0.223	0.0807	0.3038	1030.2274	0.196485	-367.180936	-367.173014	-367.17207	-367.212843	32.487	
C	 0.1307784054	 1.529998809	-0.0470977313	-0.475246
C	-0.0231041771	 0.0140709181	-0.0069604237	 0.342345
C	-1.4250806483	-0.4782955065	-0.4200556851	-0.275768
C	-1.7685002693	-1.6886935847	 0.4904482069	-0.222959
C	-0.8403842787	-1.5872939536	 1.734621272	-0.233858
C	 0.3264105911	-0.6682769971	 1.3468073458	-0.002299
N	 1.6129638523	-1.2607669134	 0.7954983085	-0.148094
C	 1.2686446377	-2.1548923184	-0.3245623422	-0.260029
C	 1.2209368575	-0.70178166	-0.5669059805	-0.074433
H	 1.1238065039	 1.8366106939	 0.2977539304	 0.123113
H	-0.0010749796	 1.913711501	-1.0658960041	 0.113911
H	-0.615438969	 2.0168387311	 0.5904716528	 0.111957
H	-2.148116855	 0.3290522367	-0.2551762981	 0.095744
H	-1.4789601976	-0.735639335	-1.482806268	 0.098441
H	-2.8241525119	-1.6856356461	 0.777773772	 0.094718
H	-1.6068019019	-2.6303942338	-0.0418475499	 0.108483
H	-1.3821684373	-1.1315646626	 2.5702911257	 0.102079
H	-0.4962172999	-2.5665565121	 2.0822429625	 0.10948
H	 0.6039507635	 0.014368465	 2.1526640404	 0.075833
H	 2.1412848697	-2.6804310919	-0.7031656208	 0.118109
H	 0.3738824761	-2.7644984171	-0.2927012919	 0.112858
H	 1.9560847785	-0.2072052024	-1.1971193517	 0.085615
