17
gdb 2677	14.00689	0.78116	0.75371	1.4285	69.86	-0.2419	0.0575	0.2994	1496.5046	0.146553	-309.69376	-309.684636	-309.683692	-309.72965	30.404	
C	 0.0080594801	 1.5645292815	 0.0097810482	-0.362472
C	-0.0194371206	 0.0250038914	 0.0031239089	-0.312549
C	-1.3728006173	-0.5216067726	 0.013092954	 0.090458
C	-2.5026987418	-0.939470392	 0.0216966916	 0.017646
C	-3.8549464265	-1.4830031067	 0.0316366798	-0.32115
C	-3.8723084233	-3.0154691347	 0.0223352982	-0.062409
O	-5.2326074241	-3.4149534949	 0.0333037029	-0.41579
H	 1.0398528996	 1.9287042939	 0.0019877916	 0.112269
H	-0.5062245296	 1.9655580541	-0.8678011373	 0.127458
H	-0.4900720653	 1.9576215275	 0.900177645	 0.127462
H	 0.5185676569	-0.3453279314	-0.8792907575	 0.125491
H	 0.534608163	-0.3531558641	 0.8721933976	 0.125496
H	-4.4033488921	-1.1383771213	 0.917149537	 0.133526
H	-4.4206509378	-1.127484774	-0.8385511112	 0.133527
H	-3.3469588468	-3.3807171612	-0.8727207556	 0.096445
H	-3.329421047	-3.3916950996	 0.9022514282	 0.096447
H	-5.2649418671	-4.3757670056	 0.0275777784	 0.288146
