15
gdb 48601	2.67745	1.52728	1.25381	2.7031	67.3	-0.2599	-0.0449	0.215	1013.7756	0.110108	-457.658715	-457.651076	-457.650132	-457.691196	28.437	
O	 0.0446219402	-0.0399276891	 0.0116685583	-0.234491
C	 0.0441927133	 1.1624165532	 0.0504838497	 0.033404
C	 1.2705315466	 2.006812092	 0.0164661135	 0.22397
C	 1.7846266067	 3.0546171095	 1.0547951001	-0.27555
C	 2.8828438493	 2.8502575579	-0.0183566426	-0.050926
O	 2.6066248213	 1.3920916112	 0.0098108595	-0.321713
C	 1.7981183886	 2.9613236263	-1.0986013783	 0.462986
C	 1.7218043804	 3.0203259678	-2.5424423239	-0.292716
O	 1.2055125411	 4.0779276297	-1.6753225661	-0.275932
H	-0.8962481545	 1.7555571166	 0.1056448718	 0.091696
H	 1.2811171661	 4.0224753982	 1.0987214164	 0.127124
H	 2.0180251986	 2.6310264577	 2.0319941696	 0.124934
H	 3.9248837561	 3.1647617312	-0.0196778808	 0.11362
H	 2.5975959203	 3.2970969785	-3.1247596057	 0.136056
H	 0.960688706	 2.4533565293	-3.0735903415	 0.137536
