21
gdb 76426	2.8912	1.02551	0.94866	1.7946	84.78	-0.2464	0.052	0.2984	1360.6686	0.178948	-387.043905	-387.033267	-387.032322	-387.079162	39.376	
C	-0.0506560144	 1.4713772655	-0.2656977353	-0.425435
C	 0.0803549358	-0.0076032226	 0.0290803005	-0.108289
C	 1.4389220342	-0.6881858389	 0.0328807324	 0.05713
O	 2.5989175568	 0.0798661983	-0.1144709537	-0.421542
C	 0.681963948	-0.5379183423	 1.3258728515	 0.296445
C	 1.192246492	 0.4207477233	 2.3837233452	-0.464706
C	 0.0327738925	-1.807382411	 1.8860099141	-0.429075
C	 0.94613926	-2.6395575079	 2.6646751741	 0.32145
C	 1.7104601144	-3.3157484049	 3.3001394492	-0.452684
H	 0.8655590244	 2.013321862	-0.022558304	 0.128976
H	-0.260422051	 1.634380415	-1.3290871067	 0.112215
H	-0.8714877893	 1.9229601645	 0.3016514137	 0.119617
H	-0.7322724415	-0.6090419238	-0.3740094334	 0.075229
H	 1.509838986	-1.6906477547	-0.3908900633	 0.083347
H	 2.6723732623	 0.3335449281	-1.0405511723	 0.288834
H	 1.8098509284	 1.2070149625	 1.9500476133	 0.135032
H	 0.3597506306	 0.8864055854	 2.9240484793	 0.107406
H	 1.8056993633	-0.1186240388	 3.1121089898	 0.132195
H	-0.8262071759	-1.526005807	 2.511154048	 0.127147
H	-0.3784913806	-2.4036282465	 1.0618133785	 0.122658
H	 2.3819640942	-3.9171191662	 3.8609570894	 0.19405
