19
gdb 86977	2.73905	1.16006	0.91416	2.9787	77.87	-0.2497	-0.0245	0.2251	1283.2856	0.159264	-423.047758	-423.038954	-423.03801	-423.08186	32.683	
O	 0.2144323123	 1.3980279957	 0.1885642393	-0.435474
C	 0.0443301525	-0.0135804647	 0.0316433103	 0.087346
C	-1.4374490112	-0.4239279769	 0.0634514283	-0.237618
C	-2.1170334068	-0.1997477878	-1.30232971	-0.076969
C	-1.4105145822	-1.0445367085	-2.3805591052	-0.268234
C	 0.0893560103	-0.9542590087	-2.2839858313	-0.061747
C	 0.7398424643	-0.5013568875	-1.2121682501	-0.091196
C	-3.5831769119	-0.5623959024	-1.2210333649	 0.14638
O	-4.5000939353	 0.2020519211	-1.3713103269	-0.245822
H	 0.0582430471	 1.8064050737	-0.6695351703	 0.280944
H	 0.5344671523	-0.4409046147	 0.914571681	 0.091994
H	-1.5097517213	-1.4856526294	 0.3347583271	 0.100289
H	-1.9383575296	 0.1533855075	 0.8460361145	 0.120509
H	-2.0631977774	 0.8620781983	-1.5672555128	 0.087634
H	-1.7192482841	-2.0983105659	-2.2905575148	 0.116013
H	-1.7379961803	-0.7285521093	-3.378249153	 0.121457
H	 0.6497178304	-1.2880021404	-3.1544385215	 0.097896
H	 1.8244804073	-0.4344605788	-1.2139510463	 0.098303
H	-3.7669154065	-1.6410268914	-0.9932690234	 0.068296
