18
gdb 29266	5.51168	0.9261	0.84076	1.0526	81.82	-0.1967	0.032	0.2287	1387.1504	0.148348	-401.968443	-401.959983	-401.959038	-402.001944	31.42	
C	 0.1614972163	 1.5483184163	-0.1050619467	-0.498767
C	 0.0240755174	 0.0605196075	 0.0181843523	 0.293353
C	-0.2582684711	-0.824567336	-0.9995028298	-0.177693
N	-0.3189231723	-2.0891825406	-0.4692941033	-0.30878
C	-0.0540923734	-2.0381488653	 0.8754439422	 0.350918
C	 0.1587065877	-0.7178361168	 1.207546021	-0.357929
C	-0.0700115598	-3.2667803857	 1.6862832518	-0.040239
C	-1.1939687234	-4.2239590157	 1.6629536974	-0.180241
O	 0.014262551	-4.4994050186	 0.9496019667	-0.248784
H	 1.1441150718	 1.8949420844	 0.2358991113	 0.123208
H	 0.0408178508	 1.8705557096	-1.1435990082	 0.117083
H	-0.5888660392	 2.0788996908	 0.4931917556	 0.122572
H	-0.4113870984	-0.653574229	-2.0535542667	 0.112844
H	-0.3866446419	-2.9546326244	-0.9780045799	 0.265894
H	 0.3733834098	-0.3440003952	 2.1981980286	 0.087035
H	 0.5398979424	-3.2353797472	 2.5883594702	 0.104933
H	-1.3807992098	-4.8623295248	 2.5256650574	 0.119065
H	-2.0624826177	-4.0023246091	 1.0450687101	 0.115526
