17
gdb 81896	3.29095	1.22232	1.05035	3.8355	69.87	-0.2467	-0.0299	0.2169	1140.4241	0.134481	-458.938598	-458.929903	-458.928959	-458.972107	32.169	
O	-0.0700791542	 1.4646967553	-0.069612921	-0.426283
C	 0.0175825771	 0.0486515015	-0.0744210832	 0.044137
C	-1.3321467682	-0.6456438906	 0.012752217	-0.085468
C	-2.2091597227	-0.2829398405	-1.1299197209	-0.333887
C	-1.1080916918	-1.2752892463	-1.4096137678	 0.246208
C	-1.4011496478	-2.6737083892	-1.7637607325	 0.049784
O	-2.4604723592	-3.2254721006	-1.5704881605	-0.274597
C	 0.2523835696	-0.5716904072	-1.5034611816	-0.000605
O	 0.4580735282	 0.3606059411	-2.5281717545	-0.435187
H	 0.8037649098	 1.8231175548	 0.1167064609	 0.296986
H	 0.7330673369	-0.309184322	 0.6717485073	 0.084684
H	-1.7102137708	-1.1744845626	 0.8783707747	 0.113014
H	-3.1971432729	-0.7292054307	-1.1121519068	 0.149006
H	-2.1506283074	 0.7013400548	-1.5814304936	 0.128893
H	-0.5449818737	-3.2206739064	-2.2205910179	 0.072185
H	 1.0767602484	-1.2935679891	-1.5180401129	 0.085088
H	 0.1809164885	 1.2140786377	-2.1655859465	 0.286043
