19
gdb 116086	2.58941	1.30914	0.91578	3.4102	72.61	-0.265	0.007	0.272	1286.4241	0.159221	-460.212435	-460.203638	-460.202694	-460.24653	32.249	
C	 0.0057451194	 1.5100721682	 0.0431545839	-0.389462
C	-0.0807002536	-0.0126597705	-0.0768093884	-0.205216
C	 0.7551872595	-0.5704250852	-1.2136211012	 0.222794
O	 0.6747430759	-1.9567764297	-1.207355011	-0.23429
C	 1.4230280968	-2.5150464965	-2.2779718422	-0.108711
C	 0.7848283657	-2.0942838218	-3.5992916871	-0.334756
C	 0.4138363951	-0.6180110868	-3.638573232	 0.401908
O	 0.1875263653	-0.0234973143	-4.6554420195	-0.318793
O	 0.2639077529	 0.0102356012	-2.4461253023	-0.243208
H	 1.0350355446	 1.837303603	 0.226899107	 0.116089
H	-0.3434615521	 1.9944670074	-0.8716276789	 0.146219
H	-0.6084192491	 1.8635740592	 0.8757237275	 0.119039
H	 0.267083882	-0.4963116302	 0.8422279954	 0.113019
H	-1.1150600819	-0.3335006811	-0.2402079211	 0.118889
H	 1.8091955847	-0.2529373088	-1.1297604905	 0.079015
H	 2.4694538401	-2.1764556813	-2.2202817116	 0.105388
H	 1.4085132387	-3.5991289627	-2.1472158077	 0.123007
H	 1.423751596	-2.306163008	-4.4596452281	 0.13892
H	-0.1515342398	-2.6448633222	-3.7470273823	 0.15015
