19
gdb 41084	3.39876	1.83104	1.58303	1.7866	78.63	-0.2348	0.0861	0.3209	905.575	0.16232	-385.804997	-385.798852	-385.797908	-385.835045	27.103	
C	-0.0452157396	 1.4369377491	-0.3166753307	-0.263498
C	 1.4414846485	 1.6622318934	 0.1490283965	-0.352999
C	 1.2668126684	 0.3545527556	 0.9171088351	 0.353484
C	 1.8351981116	-0.9008366743	 1.6761485744	-0.042022
C	 1.435377154	-0.2775984625	 3.0248678738	-0.247923
C	 0.3050502586	 0.3446789068	 2.1885626105	-0.096499
C	-0.3537899987	-0.792732735	 1.3365865181	 0.044282
O	 0.712334572	-1.7871112073	 1.4283581572	-0.28321
C	 0.0812747574	-0.0918542874	 0.0381544253	-0.03293
H	-0.7702931903	 1.9868942489	 0.2855989608	 0.110389
H	-0.2469920388	 1.6346338593	-1.370434313	 0.104659
H	 2.1371775667	 1.5762335248	-0.6918065765	 0.107703
H	 1.6766150755	 2.5660671503	 0.7176858645	 0.100172
H	 2.7742677336	-1.4116774441	 1.4740134087	 0.077993
H	 1.1974549661	-0.9679177238	 3.8374170643	 0.099845
H	 2.1356211598	 0.4942599423	 3.3575760022	 0.098726
H	-0.2849168671	 1.2009141879	 2.5059871827	 0.075328
H	-1.3120096894	-1.272613744	 1.5382855237	 0.070263
H	 0.2338999516	-0.7371932902	-0.8293446076	 0.076238
