17
gdb 71557	2.47695	1.60427	1.49729	1.4939	74.31	-0.2424	-0.0323	0.21	975.6485	0.134881	-421.759893	-421.752069	-421.751125	-421.79233	30.095	
O	 0.1254305012	 1.2593439622	-0.113884459	-0.462853
C	 0.0293913844	-0.1073603475	-0.0648502436	 0.379109
C	 0.3599964893	-1.1612285122	-1.1336927519	-0.33263
C	-0.0768609119	-1.9677519166	 0.1085412468	-0.077942
C	 0.5862241077	-0.9557105064	 1.1114399367	-0.083311
C	-0.6977643357	-0.8152085945	 1.9528889041	-0.336059
C	-1.2192525148	-0.97788335	 0.5102578225	 0.200715
C	-2.594725365	-0.9335998023	-0.0316747841	 0.006701
O	-2.9157642327	-1.3594171992	-1.1190168605	-0.263603
H	-0.2915677884	 1.5715795189	-0.925072818	 0.294856
H	-0.2994288494	-1.2176160193	-2.00219759	 0.122712
H	 1.4142856815	-1.2362546436	-1.4194326975	 0.098129
H	-0.13051783	-3.0466796267	 0.2321645577	 0.091399
H	 1.6273385255	-0.9744161678	 1.4357477849	 0.080833
H	-0.9229332189	-1.6322901134	 2.6449414472	 0.098588
H	-0.8612838042	 0.154653083	 2.4301292646	 0.110588
H	-3.3429839484	-0.4369963647	 0.62909865	 0.072769
