23
gdb 118749	2.5122	0.99331	0.83232	0.9307	82.21	-0.2412	0.0781	0.3194	1503.9515	0.203468	-425.418826	-425.408288	-425.407343	-425.454722	38.8	
C	 0.7271761134	 1.4607293254	 0.2022347183	-0.399899
C	 0.1033412873	 0.0905542618	 0.0240820055	 0.173666
C	 0.4471835849	-0.7160343266	-1.2462974193	-0.36253
C	 0.9806993762	-1.792089649	-0.2656687526	 0.430835
C	 0.1174144322	-3.047416853	-0.1770489597	-0.438125
C	 2.4764365275	-2.085788633	-0.3795723886	-0.217612
C	 3.0699795594	-2.7855987788	 0.8383912863	-0.084196
O	 4.4787366687	-2.8376383169	 0.6498558716	-0.423488
O	 0.7135684434	-0.913214814	 0.8711386634	-0.344517
H	 1.7997422093	 1.432835652	-0.0135675152	 0.119945
H	 0.2544929437	 2.1868368583	-0.4687904203	 0.113509
H	 0.5937450668	 1.8100030131	 1.2311395655	 0.125185
H	-0.9767553284	 0.1460493635	 0.2215096264	 0.06996
H	-0.3959294452	-1.0177376116	-1.8703210431	 0.101729
H	 1.2156447977	-0.2587806823	-1.8740739576	 0.10355
H	 0.2770815488	-3.6925754699	-1.0481625006	 0.114199
H	 0.3512018193	-3.622077084	 0.7237179576	 0.125162
H	-0.9426217226	-2.7801003889	-0.136967119	 0.115185
H	 2.6647304236	-2.6871799992	-1.2778445487	 0.099681
H	 3.0138220213	-1.140134956	-0.508283425	 0.103985
H	 2.8035320102	-2.2166305069	 1.7407803242	 0.10748
H	 2.6536949194	-3.7988608491	 0.9461567833	 0.082208
H	 4.8686142631	-3.237976185	 1.4322815175	 0.284087
