16
gdb 34820	5.1532	1.09273	1.00954	1.7047	76.82	-0.2499	0.036	0.2858	1169.6806	0.122963	-400.596768	-400.589116	-400.588172	-400.628744	30.014	
C	-0.0850985206	-1.208512257	-0.1160602478	-0.422051
C	-0.0291902411	-0.0105326414	-0.0364884834	 0.322833
C	 0.0006365937	 1.432898163	 0.0203538754	-0.230591
C	 0.1267706715	 2.1278264924	 1.4176653322	-0.022786
O	 1.5238468578	 1.6454880553	 1.5071276409	-0.302113
C	 1.3921036578	 2.1485671248	 0.1252654351	-0.051233
C	 0.6688917868	 3.3746779953	 0.7023484869	 0.426933
N	-0.0183186392	 4.5049470892	 0.1294044702	-0.393271
C	 1.0962896023	 4.7108975078	 1.1083614885	-0.345359
H	-0.1233656509	-2.2681522408	-0.1727076912	 0.193171
H	-0.7165784575	 1.897530621	-0.6631005055	 0.113114
H	-0.5106079018	 2.0228740929	 2.2938149457	 0.112472
H	 2.2551389784	 2.0666864639	-0.5354447923	 0.106726
H	 0.3043304495	 4.6923596325	-0.817349857	 0.237015
H	 0.7857604641	 5.1271345032	 2.0620284823	 0.132053
H	 2.0480268492	 5.0821810079	 0.73745199	 0.123086
