19
gdb 40915	3.66136	1.40734	1.35364	0.7494	73.98	-0.2304	0.0771	0.3074	1021.0024	0.161131	-422.985933	-422.978791	-422.977847	-423.017698	28.627	
C	-0.023189076	 1.3837716351	-0.2848156907	-0.075345
C	 1.4512947812	 1.5430760303	 0.1323142867	-0.363932
C	 1.2960497423	 0.125322771	 0.7130499068	 0.486209
C	 2.245928075	-1.034718687	 0.2984524303	-0.302902
C	 2.5801775925	-1.527359985	 1.7184367528	 0.076249
C	 1.2067883841	-1.5797201812	 2.425290231	-0.238358
C	 1.4034726873	-0.0631723738	 2.2412044981	 0.016316
O	 2.8425459111	-0.2555267397	 2.4068637371	-0.304979
O	-0.057974842	 0.0270498715	 0.2119947517	-0.330154
H	-0.737009706	 2.028219993	 0.2426575566	 0.102767
H	-0.2319173323	 1.4289262143	-1.3596739683	 0.104899
H	 2.1568795395	 1.6183840373	-0.6967946872	 0.112173
H	 1.6710182601	 2.326511993	 0.8601370299	 0.115022
H	 1.7250300406	-1.770122286	-0.3201161422	 0.113239
H	 3.1365769466	-0.6830625524	-0.2274423245	 0.107871
H	 3.3578611188	-2.2778984309	 1.8560643434	 0.080913
H	 0.3658650583	-2.0664966367	 1.9271346305	 0.11469
H	 1.2925721985	-1.8770019556	 3.4707368016	 0.110101
H	 0.9653107902	 0.6958006127	 2.8897837265	 0.075221
