18
gdb 22169	2.31926	1.50775	1.12306	1.5719	76.82	-0.2468	0.0003	0.2471	1134.1519	0.145426	-439.053587	-439.044414	-439.04347	-439.087234	34.684	
C	-0.1268344946	 1.5705172204	 0.0580267248	-0.433139
C	-0.008079769	 0.0449046964	 0.0004778739	 0.24165
O	-1.3138904269	-0.5513673045	 0.0103853411	-0.462281
C	 0.8225248696	-0.4634525569	-1.1641721387	-0.096864
C	 1.8213123647	-1.2590675605	-0.7868654776	-0.094256
C	 1.8908141963	-1.4324758889	 0.7096666035	-0.356998
C	 0.7651295212	-0.54112157	 1.1839754337	 0.398483
N	 0.4496616307	-0.2333287274	 2.3742672556	-0.214839
O	 1.278652416	-0.8770238917	 3.3055634733	-0.390121
H	 0.8585225507	 2.0447881789	 0.0833003513	 0.120477
H	-0.6582914476	 1.9451019976	-0.8254733379	 0.09846
H	-0.6806915439	 1.8598812185	 0.954004146	 0.143269
H	-1.7987316589	-0.1950612345	-0.7427110139	 0.274644
H	 0.5771564859	-0.1988711817	-2.1876376304	 0.091726
H	 2.5201149921	-1.7459576404	-1.4579907382	 0.101276
H	 1.7446963636	-2.4730896831	 1.0289665369	 0.137681
H	 2.8489240541	-1.1208125523	 1.1445390493	 0.133482
H	 0.927442136	-0.5604743699	 4.1447838873	 0.30735
