15
gdb 65847	2.68607	1.3792	1.26485	2.9076	67.08	-0.2909	-0.0038	0.2871	1052.8992	0.111681	-453.969851	-453.961604	-453.96066	-454.002879	30.158	
C	 0.0518885659	 1.5129504122	-0.0023872873	-0.428492
C	 0.0420281929	-0.0025561146	-0.0110703096	 0.28358
O	 0.7296695439	-0.4923774959	-1.1316057155	-0.255521
C	 1.2975258567	-1.7430313844	-0.7479687235	-0.184714
C	 1.457024699	-1.615889751	 0.7512180402	 0.387364
N	 2.1312193956	-2.3611365946	 1.5025629185	-0.522123
O	 0.7277628934	-0.5146531597	 1.1362537279	-0.244816
C	-1.3539221293	-0.5401230589	 0.0111375184	 0.277714
N	-2.4328919588	-0.9517786319	 0.0089570113	-0.324473
H	 1.0896174716	 1.8514787304	 0.0050033019	 0.147681
H	-0.4490131181	 1.8874174418	-0.8975297835	 0.157207
H	-0.4664921386	 1.8875447104	 0.8822308079	 0.15495
H	 0.634063507	-2.5811950867	-0.9989423731	 0.15195
H	 2.2523309686	-1.8711772573	-1.2581500461	 0.16062
H	 2.0587004402	-2.0767561398	 2.4799415525	 0.239073
