19
gdb 108548	2.75532	1.72281	1.28573	2.3667	74.62	-0.2452	0.0906	0.3357	1017.3524	0.161115	-422.977664	-422.97036	-422.969416	-423.009303	29.625	
O	-0.0021545541	 1.4209981688	 0.0328234482	-0.421875
C	 0.034384582	 0.0103612211	-0.093871365	-0.16568
C	-1.3453682837	-0.5802406928	 0.0393219742	 0.481419
O	-2.1791968325	-0.011087365	-0.972882061	-0.341743
C	-3.4535810731	-0.6238098052	-0.7250912761	-0.115775
C	-3.1095184703	-1.5080365658	 0.4623426117	-0.059448
C	-1.6768278453	-2.0959235708	 0.2023681783	-0.133615
C	-1.3895959312	-1.9855009257	 1.7183612645	-0.260856
C	-2.14483723	-0.6805102707	 1.378731197	-0.112953
H	-0.7051266567	 1.7189551982	-0.5566357078	 0.292453
H	 0.4606809825	-0.2963621249	-1.0626069577	 0.093693
H	 0.693303333	-0.3645398653	 0.6942083234	 0.11179
H	-4.2047350483	 0.1418808537	-0.4943297484	 0.103866
H	-3.7794844035	-1.1831133154	-1.6106744761	 0.104278
H	-3.8809709786	-2.1363485428	 0.9077249105	 0.075719
H	-1.4179606442	-2.9053098491	-0.4819071845	 0.073505
H	-1.9233427954	-2.692981551	 2.3573767649	 0.09705
H	-0.3457949578	-1.8974723692	 2.0290192924	 0.098761
H	-2.4163861929	 0.1399878521	 2.0430528214	 0.079409
