23
gdb 117550	2.06817	1.0437	0.83208	1.0112	88.66	-0.2575	0.0546	0.3121	1538.5995	0.202021	-388.253962	-388.242547	-388.241603	-388.290829	40.904	
C	 0.5347060877	 1.1593438496	 0.1379510432	-0.227976
O	 0.3035021263	-0.2219406422	-0.0031521014	-0.232905
C	-1.0563074517	-0.5686271075	 0.1317299471	-0.076838
C	-1.1853674868	-2.0922297429	-0.0444958061	-0.1825
C	-2.5656859325	-2.4974995585	 0.2142400276	 0.332495
C	-3.7090352602	-2.8081182612	 0.4213074152	-0.478739
C	-0.6528483325	-2.5985780942	-1.4182098212	 0.041
C	-0.5441958884	-4.1282359807	-1.4221904178	-0.400073
C	-1.4869364042	-2.1021973849	-2.6055652105	-0.397959
H	 1.6084153552	 1.3250361678	 0.0214642096	 0.128312
H	-0.0009234746	 1.7436813314	-0.6268359545	 0.105694
H	 0.2231677182	 1.5260776518	 1.1287118381	 0.105942
H	-1.4335375061	-0.2827893409	 1.1264943223	 0.096988
H	-1.6720337195	-0.0395534246	-0.6127816232	 0.098325
H	-0.5470460315	-2.5425974297	 0.7283849845	 0.109156
H	-4.7138792434	-3.0934112184	 0.6122728174	 0.193929
H	 0.3547198332	-2.178678539	-1.5053231613	 0.095696
H	-1.5293592091	-4.5928331238	-1.3072507807	 0.124808
H	-0.1123625802	-4.4833619413	-2.3633109476	 0.108898
H	 0.0924472529	-4.4859789434	-0.6056948771	 0.108662
H	-1.501426309	-1.0100548801	-2.6707050849	 0.111964
H	-1.0701097207	-2.4796040616	-3.5447805578	 0.109922
H	-2.522410263	-2.4505117657	-2.5321561111	 0.125199
