16
gdb 11679	3.51218	1.76535	1.48085	1.3991	60.64	-0.257	0.064	0.3211	876.8573	0.129919	-420.800538	-420.793199	-420.792254	-420.832131	28.208	
O	-0.0016918313	 1.342105855	-0.1848294587	-0.414738
C	 0.0123694915	-0.0576279608	 0.0251255125	-0.1883
C	-1.3759486282	-0.6022607	 0.1732189858	 0.3271
C	-2.5159986116	-0.2022721006	 1.1333821116	-0.256682
C	-3.1200167028	-1.0652568686	 0.013037867	-0.007796
O	-2.3014780428	-0.3131137292	-0.982414521	-0.387884
C	-1.9332613737	-2.0634515206	 0.1473683081	 0.145617
O	-1.6159981011	-2.8656288983	-0.9362569487	-0.443225
H	-0.6482332381	 1.5082844864	-0.8811469945	 0.29535
H	 0.5172628699	-0.5918681064	-0.7955862335	 0.102305
H	 0.5821972282	-0.2427346402	 0.9419700205	 0.120549
H	-2.4957680506	-0.610400559	 2.147049538	 0.102523
H	-2.790657966	 0.8508529516	 1.1000789278	 0.12168
H	-4.1628033446	-1.2471170789	-0.2463379471	 0.102176
H	-1.8591533395	-2.6531931186	 1.0633773342	 0.094051
H	-1.7218754093	-2.2922082118	-1.7100774822	 0.287275
