15
gdb 30538	4.82389	0.89337	0.75681	6.9444	99.18	-0.1665	-0.0602	0.1063	1422.4272	0.112311	-453.951698	-453.943177	-453.942233	-453.986962	30.644	
N	 0.1663280589	 1.4119520808	-0.0484317753	-0.543674
C	-0.0433633932	 0.0186486351	-0.079222613	-0.095421
N	 1.0465615805	-0.7422334101	-0.0047905576	-0.234991
H	 1.9088542879	-0.2094143893	 0.0664780035	 0.279733
C	 1.1835169858	-2.0758041541	-0.0089833814	 0.445668
C	 2.3406526692	-2.8563173793	 0.0703642592	-0.240889
C	 1.9402400901	-4.1720621256	 0.025562334	-0.28347
C	 0.5016718322	-4.2184407198	-0.0842045605	 0.39363
O	-0.3165008449	-5.0945947917	-0.1559251493	-0.359637
O	 0.0711704554	-2.8366095941	-0.1017887232	-0.250655
H	-0.1766398882	 1.8719816863	-0.8884033698	 0.252493
H	-0.3019605459	 1.8548029271	 0.7385640249	 0.252498
H	-0.9998176103	-0.4826486105	-0.157128901	 0.151429
H	 3.3479738563	-2.472078559	 0.151073829	 0.114948
H	 2.5523012662	-5.0581706456	 0.0623311806	 0.118338
