19
gdb 112063	2.13911	1.52263	1.02476	4.0755	81.33	-0.2269	0.0034	0.2302	1212.608	0.160589	-382.083577	-382.074738	-382.073794	-382.117433	32.641	
C	 0.0015766395	 1.5124992038	-0.0618037771	-0.322547
N	-0.0103748587	 0.0704201859	 0.1402945121	-0.283874
C	-1.315370744	-0.5518210309	 0.0130344017	 0.002185
C	-1.9220291367	-0.6936692624	-1.3752170632	-0.082552
C	-2.5116871089	-1.8726895035	-1.5526782262	-0.058996
C	-2.4247394517	-2.7466222263	-0.3231180503	-0.273986
C	-1.3325434182	-2.0346188802	 0.5321156736	-0.187561
C	-0.0322902595	-2.6759537323	 0.3294418118	 0.287093
N	 0.9851199968	-3.1959562515	 0.1525467775	-0.339505
H	 1.0257898103	 1.8806751902	 0.0441165417	 0.127596
H	-0.3795945435	 1.849327672	-1.0412294911	 0.098888
H	-0.6064406137	 1.9943224723	 0.7126317132	 0.123156
H	 0.6558293178	-0.3831555945	-0.4762904967	 0.233598
H	-1.9968933135	 0.033559431	 0.6480079087	 0.093489
H	-1.8894092678	 0.1110796226	-2.1005342929	 0.103164
H	-3.0350053968	-2.1901219961	-2.4475086762	 0.104038
H	-3.378694992	-2.762344261	 0.2199238171	 0.118617
H	-2.1689640923	-3.7867880799	-0.5432118848	 0.131426
H	-1.5535668271	-2.0684288893	 1.6017966709	 0.125772
