20
gdb 12774	3.4191	1.48997	1.26906	1.2424	75.01	-0.2424	0.079	0.3214	1046.2499	0.176695	-348.974087	-348.965601	-348.964657	-349.006786	32.128	
C	-0.0779419053	 1.5167410754	 0.0080510961	-0.497624
C	 0.0241483888	 0.0172077161	 0.0156014894	 0.343485
C	-0.8181954624	-0.8518129275	 0.9154969339	-0.329623
C	 0.6786325954	-0.9275284833	 1.033241672	-0.090676
C	 1.2416700063	-1.7994314682	-0.0953610179	-0.240172
C	 0.6180383945	-0.813925888	-1.1382015351	-0.01772
C	-0.3106565428	-1.3574541959	-2.2081676744	-0.099714
O	 0.4747949703	-2.1359866657	-3.1029992337	-0.422443
H	 0.8605216489	 1.9783913263	-0.3208724909	 0.114989
H	-0.8703914064	 1.8638694675	-0.6667502259	 0.11661
H	-0.3078137682	 1.9025663498	 1.0069383063	 0.115745
H	-1.3220607545	-0.3150859415	 1.7139902853	 0.105119
H	-1.3833413904	-1.7003700581	 0.5361844543	 0.1001
H	 1.1912067924	-0.6768020839	 1.9548975281	 0.080113
H	 2.3319455323	-1.822011362	-0.1410095095	 0.102657
H	 0.8727461681	-2.8303719167	-0.1277517232	 0.094601
H	 1.4138073474	-0.2507428824	-1.6371396709	 0.076769
H	-1.1061510447	-1.9664289376	-1.7514147005	 0.081569
H	-0.8011735707	-0.5205138341	-2.733113831	 0.081247
H	-0.1129816592	-2.5314726502	-3.7530842625	 0.284969
