22
gdb 59198	2.44217	1.32127	1.18999	2.0966	83.84	-0.1994	0.0712	0.2706	1207.7827	0.192775	-404.266621	-404.257269	-404.256325	-404.300789	36.237	
C	 1.1334966897	-1.3337849062	-1.4208499497	-0.383061
C	 0.3566205806	-0.4544921344	-0.4372117086	 0.064648
C	 0.2355477944	 0.9815834568	-0.9577869382	-0.378729
N	-1.0089820884	-0.9984989223	-0.3226139809	-0.112144
C	-1.9084802689	-0.6414405461	 0.8476039098	-0.087367
C	-2.7821750051	-1.8390772099	 0.3904360377	-0.217642
C	-1.3020147851	-2.313025613	 0.3836155216	-0.059924
C	-1.1806137473	-1.6683551316	 1.7892507751	 0.14434
O	 0.1101143621	-1.4491551887	 2.2914702423	-0.425467
H	 2.1292971337	-0.9179506331	-1.603995962	 0.106065
H	 1.2647144401	-2.3483498283	-1.0311128171	 0.109466
H	 0.6020234761	-1.401090632	-2.3760870221	 0.114568
H	 0.8961053018	-0.4378539552	 0.5145618141	 0.085065
H	-0.3143037163	 1.6163161147	-0.2546524784	 0.101898
H	 1.2269937747	 1.424053563	-1.098713508	 0.104683
H	-0.2964789067	 0.9995964833	-1.9144566453	 0.115327
H	-2.2248970792	 0.3829531624	 1.0524949446	 0.077406
H	-3.456021558	-2.2891735493	 1.1215934763	 0.091698
H	-3.2220732901	-1.7240785952	-0.5976266937	 0.112129
H	-0.9015664978	-3.266884126	 0.0383004504	 0.083267
H	-1.823146509	-2.1140367381	 2.5635431741	 0.067413
H	 0.0328354388	-0.9538942908	 3.1129115979	 0.286362
