10
gdb 130740	5.52208	1.38533	1.1075	1.9725	54.14	-0.2595	-0.0401	0.2194	944.7876	0.055234	-508.551832	-508.545976	-508.545032	-508.582329	21.931	
O	-0.0453583436	 0.0147871061	 0.0038582587	-0.313523
C	-0.0111794882	 1.1924738649	 0.0096823171	 0.471622
O	-1.1664352958	 2.018281499	 0.0299246271	-0.250179
C	-0.6671718252	 3.2682155605	 0.0297705515	 0.458739
C	 0.6712791291	 3.2864325408	 0.0115100711	 0.15466
O	 1.1212234748	 1.9787536961	-0.0016426685	-0.245851
C	 0.996805916	 4.6539399846	 0.01434124	-0.091218
N	-0.1105884539	 5.3811843855	 0.0335448226	-0.133964
O	-1.2166530595	 4.4588659345	 0.0436737171	-0.219058
H	 1.9471705063	 5.165360048	 0.0040450534	 0.16877
