18
gdb 13595	4.4261	1.24039	1.11423	3.1413	69.83	-0.2407	-0.0202	0.2205	1125.3475	0.152152	-384.953105	-384.944535	-384.943591	-384.986591	31.45	
C	-0.0401751089	 1.5348925659	-0.0008500846	-0.378422
C	 0.0649320137	 0.0139231138	 0.0644394933	-0.287066
C	 0.8285336093	-0.4991820606	 1.2728978645	 0.416303
O	 1.3094711328	 0.2688198674	 2.0977514061	-0.374074
C	 0.9370927878	-1.9636063775	 1.4294194176	-0.192775
C	 2.2056598586	-2.5252386038	 2.0896089135	-0.324261
C	 0.9566335337	-2.4965047925	 2.887310436	 0.158134
O	 0.7727096396	-1.6439796356	 3.9536553308	-0.418886
H	 0.9512490621	 1.9937940949	-0.0294840118	 0.132413
H	-0.5920026516	 1.8447475941	-0.8925569631	 0.110943
H	-0.5543842079	 1.9287445157	 0.8793572655	 0.1334
H	-0.928940215	-0.455267739	 0.079172505	 0.127925
H	 0.5542667421	-0.3919086344	-0.8323145228	 0.125959
H	 0.4503475324	-2.5722758039	 0.6756639704	 0.091724
H	 2.5760154662	-3.469558402	 1.7063263834	 0.121632
H	 2.9632325504	-1.7876170175	 2.3335766305	 0.136789
H	 0.4240885071	-3.4297089249	 3.0406152924	 0.115429
H	 1.1056357376	-0.7715902001	 3.6774821032	 0.304836
