16
gdb 125052	2.2957	1.88877	1.04395	2.6258	78.67	-0.2082	-0.0436	0.1646	1090.1427	0.124497	-434.054412	-434.045891	-434.044947	-434.087932	31.61	
C	 0.0170296618	 1.5402196073	 0.0415420235	-0.526025
C	 0.0228693451	 0.0364871596	 0.0148432725	 0.129488
C	-1.1278708694	-0.6850887038	 0.057274283	 0.371091
N	-2.396336989	-0.1655168319	 0.156681569	-0.564527
O	-1.190553527	-2.0431935288	 0.05338502	-0.279863
N	-0.0234283394	-2.8032999635	 0.0323055627	-0.074831
C	 1.0793620561	-2.1523828121	-0.0163216168	-0.015655
C	 1.2661004981	-0.6947663239	-0.0484102393	 0.214054
N	 2.4184308769	-0.1177386375	-0.1172556803	-0.547256
H	 1.022059966	 1.8922299249	 0.279954401	 0.169078
H	-0.2560397543	 1.9729610695	-0.9304992097	 0.123158
H	-0.6804709871	 1.9314547885	 0.7908325282	 0.121882
H	-2.5202751181	 0.7593835286	-0.2237714315	 0.27021
H	-3.1350157705	-0.8113065358	-0.0801193274	 0.268351
H	 1.9573869865	-2.7958966218	-0.0340961839	 0.134564
H	 3.1671019742	-0.8118808793	-0.1404288811	 0.206283
