15
gdb 10278	2.65509	1.69087	1.09139	1.6031	61.86	-0.2705	-0.0421	0.2284	1041.8644	0.116114	-399.825893	-399.816797	-399.815853	-399.860683	30.85	
C	 0.0111799345	 1.3652449851	 0.5047295427	-0.486846
C	 0.0523323833	 0.0191118046	-0.1779956123	 0.391526
O	 1.0193103315	-0.3985966443	-0.7635118819	-0.279863
C	-1.2433602423	-0.8361096429	-0.1471220184	-0.271561
C	-0.9736690029	-2.3169708231	-0.5173112136	-0.063014
O	-2.1655980236	-3.0553950906	-0.6407010159	-0.41817
C	-1.9496012971	-0.7506412088	 1.1288479999	 0.255727
N	-2.4981871689	-0.7316937027	 2.146864527	-0.325012
H	 0.9247602124	 1.9164415309	 0.2812973378	 0.152564
H	-0.8657825904	 1.9372048724	 0.1825980308	 0.149669
H	-0.0845468564	 1.2293327084	 1.5874912697	 0.172963
H	-1.9085460102	-0.4162729106	-0.9158429465	 0.161044
H	-0.4780041595	-2.3338471193	-1.4884992269	 0.14412
H	-0.2826120105	-2.7512036957	 0.2171959917	 0.117567
H	-2.54975118	-3.1661554435	 0.2361815259	 0.299285
