15
gdb 82720	2.54845	1.94243	1.56648	3.5538	64.21	-0.2423	-0.0394	0.2029	875.8706	0.113228	-457.717335	-457.710603	-457.709659	-457.748552	26.565	
O	 0.1187131496	 1.4017881475	-0.0363432383	-0.42716
C	-0.0020198271	 0.0196317848	 0.0030469779	 0.164887
C	 0.2710584975	-0.6871938142	 1.3461288544	 0.040474
O	-0.4311205809	 0.0235735186	 2.3989904218	-0.314104
C	-1.6603589444	-0.712723214	 2.1382530944	-0.030255
C	-0.9348792993	-1.6300420768	 1.1050894378	-0.094183
C	-1.4245829679	-0.6688425987	-0.0578066085	-0.262088
C	-2.3988450688	-0.0507328212	 0.950313396	 0.433094
O	-3.41236081	 0.5755462396	 0.8502537544	-0.302238
H	-0.1887824786	 1.7302131193	 0.8203667618	 0.294812
H	 0.6189577678	-0.4003624349	-0.7951497407	 0.10559
H	 1.2892671224	-0.9454718344	 1.6403211832	 0.091767
H	-2.1864617476	-0.9995033544	 3.0499545816	 0.102433
H	-0.9484706995	-2.713830763	 1.0861250967	 0.098351
H	-1.8089453432	-0.9617618182	-1.0332973626	 0.09862
