16
gdb 29318	3.31581	1.27022	0.92463	4.5631	82.31	-0.2015	-0.0071	0.1944	1209.8368	0.125702	-396.990734	-396.981847	-396.980903	-397.024107	32.618	
C	-0.043430575	 1.5216248458	 0.0116518827	-0.518816
C	-0.0145846506	 0.0245919386	 0.0043194526	 0.242872
C	-0.0124359585	-0.8120393019	-1.0958342846	-0.15724
N	 0.0018918168	-2.1045769788	-0.6805370465	-0.340956
C	 0.0163634661	-2.1372157198	 0.7098369335	 0.171874
C	 0.050177866	-3.3242670347	 1.4557784067	 0.184438
N	 0.0854420755	-4.2926497966	 2.097853942	-0.371104
C	 0.0009515799	-0.815404307	 1.1539248095	 0.102945
N	-0.068194374	-0.3849029375	 2.4725270846	-0.61542
H	 0.8551607244	 1.9501338369	 0.4750867679	 0.122045
H	-0.1016242687	 1.9187018332	-1.0053181579	 0.127364
H	-0.9061519288	 1.9055197914	 0.5690670332	 0.136313
H	-0.0242790737	-0.5651527954	-2.1461240488	 0.129694
H	 0.002492903	-2.918305502	-1.2689077837	 0.275165
H	 0.188214574	-1.0870921143	 3.1534541126	 0.260156
H	 0.4133007537	 0.4855189019	 2.6498004464	 0.250669
