13
gdb 5138	5.84754	1.36239	1.21214	1.2806	64.41	-0.2447	-0.0007	0.244	960.6157	0.095668	-361.458164	-361.451175	-361.450231	-361.490223	25.199	
C	-0.0431974734	-1.1784782012	 0.335787392	-0.446326
C	 0.001301207	-0.0009865994	 0.1059762648	 0.304966
C	 0.0493956629	 1.4323843948	-0.1716491093	-0.445017
C	 1.4354496938	 2.0003071248	-0.1703659227	 0.398535
N	 2.0256915176	 2.6496407351	-1.1222700352	-0.300476
C	 3.2740549693	 2.9703926861	-0.5997242834	-0.112567
C	 3.3635602235	 2.4843520846	 0.658562094	-0.037753
O	 2.1839542659	 1.8573148875	 0.9505195916	-0.16372
H	-0.0802284089	-2.2203929977	 0.5372036926	 0.202876
H	-0.3761050045	 1.6487027673	-1.1561071495	 0.169644
H	-0.5640688609	 1.9680862115	 0.5654849107	 0.155237
H	 4.0048613987	 3.5209860909	-1.1699369655	 0.126992
H	 4.1136834689	 2.4819547758	 1.43006719	 0.147609
