19
gdb 90067	2.56903	1.75198	1.48712	2.0302	76.55	-0.2157	0.0624	0.278	984.4268	0.157504	-422.896016	-422.88797	-422.887025	-422.927804	32.645	
C	-0.4476910456	 1.5177834039	-0.0104469308	-0.406884
C	 0.0001651546	 0.0633669953	 0.0213771247	-0.063152
C	 1.1847477891	-0.3851551378	-0.9585952505	-0.354459
C	 2.0494915943	-0.5185805979	 0.2972487236	 0.314688
C	 2.9618564192	-1.0751119424	 1.4174733933	-0.322983
C	 2.0286028868	 0.0784889769	 1.9959724937	-0.009736
O	 2.331504802	 0.8616113323	 0.8036079083	-0.331238
C	 0.8245295022	-0.5378507808	 1.2415667722	 0.387356
O	 0.3006931371	-1.687203435	 1.8396336671	-0.471491
H	 0.4054843004	 2.189156452	 0.0860225281	 0.145787
H	-0.9700331438	 1.7417940302	-0.9477736311	 0.107443
H	-1.1427580858	 1.7210633009	 0.8115442082	 0.116209
H	-0.880665502	-0.5754433094	-0.1222466109	 0.064688
H	 0.9695255968	-1.3364280684	-1.4521695526	 0.106852
H	 1.5311630543	 0.3406608962	-1.6982911659	 0.120074
H	 2.7677565162	-2.0956548839	 1.7491050423	 0.117043
H	 4.0219154674	-0.8192670782	 1.3743149976	 0.109007
H	 2.1119261116	 0.5747640287	 2.9682198384	 0.088395
H	-0.2582091147	-2.1485093325	 1.2058849644	 0.282401
