15
gdb 48757	2.98211	1.46138	1.10629	4.0739	69.11	-0.2352	-0.044	0.1912	1060.2173	0.112767	-453.953062	-453.945556	-453.944612	-453.985157	28.716	
N	-0.0996667237	 1.1668521822	 0.5656695064	-0.573227
C	-0.0440758674	 0.0425335325	 0.0006447504	 0.455796
N	-1.1282000437	-0.7442811957	-0.3627775918	-0.391896
C	-0.6957509423	-2.0210491866	-0.8338725798	 0.254717
C	 0.0511963199	-2.004699489	-2.1699036816	-0.361813
C	 0.8231497254	-1.8815561923	-0.8997801366	 0.031382
O	 1.1172367577	-0.601783457	-0.4077375442	-0.244101
C	-1.40698797	-3.2156071197	-0.3462026529	 0.086089
O	-2.3411299953	-3.1618503649	 0.4172424426	-0.270312
H	 0.833117319	 1.538212645	 0.7260863404	 0.231089
H	-1.9503190734	-0.7219493544	 0.2228297718	 0.277547
H	 0.1368822378	-2.9502911061	-2.6959342119	 0.135773
H	-0.0948170554	-1.1258254724	-2.7872427615	 0.152016
H	 1.520422581	-2.6433356035	-0.5721713019	 0.131233
H	-1.02712852	-4.1790975181	-0.7489427693	 0.085709
