18
gdb 66781	3.39862	2.02492	1.74599	1.6815	76.27	-0.2229	0.0721	0.295	848.6303	0.150103	-364.738355	-364.732208	-364.731264	-364.768427	26.579	
C	-0.0349781971	 1.4536279726	 0.0095785698	-0.51335
C	-0.0016007022	-0.0523394221	-0.0067897292	 0.348886
C	 1.1015995349	-0.830957228	-0.7219674549	-0.146734
C	 0.5585629924	-2.1561024025	-1.2312632081	-0.106635
C	 1.3490994836	-2.1031987956	 0.0530038135	-0.036827
N	 0.1205935424	-2.2502179234	 0.8962389513	-0.160173
C	-0.4068159864	-0.8836255676	 1.1916492226	-0.086164
C	-1.2809671743	-0.8796711562	-0.0425189042	-0.149842
C	-0.718707927	-2.2704423038	-0.37830329	-0.024768
H	 0.8874850113	 1.867032709	 0.4326504323	 0.121613
H	-0.153729014	 1.8650363691	-0.9991142399	 0.121301
H	-0.869090539	 1.8226173221	 0.6147559626	 0.12065
H	 1.9060976446	-0.3317614707	-1.2467285465	 0.085046
H	 0.7863136947	-2.6085895931	-2.1879554293	 0.08799
H	 2.3099726965	-2.5141294844	 0.3380996653	 0.089114
H	-0.5655833166	-0.5198755163	 2.2006354159	 0.086348
H	-2.2769932834	-0.4859250568	-0.2048810922	 0.08547
H	-1.3874291704	-3.1221886324	-0.4987540389	 0.078076
