21
gdb 53336	3.17341	0.98703	0.9483	0.0714	90.29	-0.2385	0.0585	0.297	1394.1008	0.183552	-349.936524	-349.927477	-349.926533	-349.971656	33.724	
C	-0.4197920403	 1.1529005872	 0.6812264821	-0.496462
C	-0.1849253869	-0.248097776	 0.3584319853	-0.016336
C	 0.0112724653	-1.4063025029	 0.0884415741	 0.150283
C	 0.2635169901	-2.8029033396	-0.2583262809	-0.186147
C	 0.966891496	-3.6032053824	 0.8880727476	-0.224789
C	-0.1412732773	-4.3516544087	 1.6110144634	-0.017293
C	-1.3697336712	-3.5769232953	 2.0228447051	-0.291603
C	-1.3709307922	-4.3553896794	 0.729458236	-0.017305
C	-1.0450771369	-3.6089189067	-0.5540780267	-0.224823
H	 0.0874952619	 1.816566878	-0.0281333915	 0.145046
H	-1.4879788324	 1.3958390588	 0.6530760556	 0.145396
H	-0.052063949	 1.3994958884	 1.683619719	 0.145385
H	 0.9017493204	-2.8083094815	-1.1488536359	 0.100544
H	 1.6639559564	-4.3260944772	 0.4486514064	 0.095326
H	 1.5470936225	-2.9402764017	 1.5362707905	 0.106948
H	 0.1323218703	-5.2264365195	 2.1910434328	 0.076705
H	-1.954479525	-3.9855614662	 2.8403237138	 0.103048
H	-1.3477706479	-2.4934313591	 1.9870333441	 0.127112
H	-2.0045154961	-5.2329520727	 0.6588749799	 0.076697
H	-1.8478652801	-2.9499450521	-0.8969524134	 0.106939
H	-0.8501252478	-4.3330454811	-1.3535671672	 0.095331
