22
gdb 101053	2.10669	1.29215	0.93379	1.9574	88.38	-0.2416	0.044	0.2856	1362.6217	0.192055	-367.1551	-367.144783	-367.143839	-367.190174	38.893	
C	 0.0430515762	 1.4598513386	 0.3070449916	-0.394814
C	 0.3793035108	-0.0296573092	 0.1867349804	-0.163794
C	 0.6617309968	-0.5113033016	-1.2540954421	-0.050655
C	 1.9470650916	 0.0981001367	-1.828126147	-0.427612
C	 0.6252608424	-2.0516173772	-1.2956537757	 0.076538
C	 1.5746245184	-2.8550022244	-2.1273499111	-0.280378
N	 1.7137544819	-2.8468710793	-0.6666998289	-0.336652
C	-0.6968605965	-2.6003240429	-1.0848825782	 0.346212
C	-1.8125416645	-3.025499745	-0.9417095337	-0.433151
H	 0.8780674268	 2.1028346615	 0.0115476035	 0.115517
H	-0.8166597748	 1.7215720504	-0.3201551522	 0.116734
H	-0.2122241549	 1.714856671	 1.3402138513	 0.115837
H	 1.2450466535	-0.2655714124	 0.8203201511	 0.090627
H	-0.4566701924	-0.6145795612	 0.5846198414	 0.117863
H	-0.1740308213	-0.1762720515	-1.8825522115	 0.086029
H	 2.8417178708	-0.2552121271	-1.300925971	 0.109818
H	 2.0662052202	-0.1282019033	-2.8909102112	 0.123029
H	 1.9290084097	 1.1860788953	-1.7291904654	 0.124267
H	 1.2325617357	-3.7968457798	-2.5453426532	 0.12664
H	 2.307576461	-2.3280268631	-2.729219376	 0.115046
H	 2.4684581594	-2.2179983782	-0.3990139403	 0.230771
H	-2.7903177506	-3.416406697	-0.8053989718	 0.192131
