19
gdb 94206	2.86132	1.231	1.14683	1.555	71.16	-0.2544	0.0541	0.3085	1166.9637	0.157052	-460.114171	-460.104976	-460.104032	-460.148477	33.82	
C	-0.3134304249	 1.4176263001	 0.1990274998	-0.425771
C	 0.0063663434	-0.0643621575	 0.1347676954	 0.098224
O	 1.0023164918	-0.3810768645	-0.8708666326	-0.293448
C	 1.9860738824	-0.7275584952	 0.1208769659	-0.132982
C	 0.9306534496	-0.64826442	 1.2541804597	 0.286473
O	 1.2144633203	 0.1410209048	 2.3757985703	-0.470956
C	 0.4646421499	-2.0055980889	 1.7263097455	 0.067478
C	 0.6356617715	-2.4754819392	 3.1048194312	-0.190146
O	-0.6376838121	-2.0253038271	 2.6293456325	-0.244284
H	 0.5897856354	 2.0259572529	 0.3267973434	 0.107145
H	-0.7864714804	 1.7358330356	-0.7344472907	 0.135866
H	-1.0014134035	 1.6267029563	 1.0242715895	 0.136668
H	-0.9124065372	-0.6394216261	-0.0319807714	 0.092114
H	 2.4482101274	-1.7032465644	-0.0705762327	 0.106079
H	 2.7775798873	 0.0293349822	 0.2144686581	 0.092202
H	 1.3776781817	 1.0441753939	 2.0876847646	 0.286199
H	 0.3994075064	-2.7428610515	 0.9243584539	 0.102286
H	 0.7095068535	-3.5444757992	 3.2999133876	 0.111852
H	 1.1134576976	-1.8213492421	 3.8282401803	 0.135001
