18
gdb 130175	3.15675	1.50213	1.04276	2.1127	78.87	-0.1953	0.039	0.2344	1128.8643	0.152137	-398.159674	-398.15193	-398.150986	-398.191661	30.252	
N	-0.0898048138	 1.3968121361	 0.0434978397	-0.591086
C	 0.0422765106	 0.0078128508	-0.0279218444	 0.189108
N	-1.0339463252	-0.7702058566	-0.1572285528	-0.309274
N	-0.5505489744	-2.0498780767	-0.0947120954	-0.346291
C	 0.7899318468	-2.0683638462	 0.0334513251	 0.372586
C	 1.2218638468	-0.7670372979	 0.0861260588	 0.195272
C	 2.7051690748	-0.6937405611	 0.311216063	-0.363985
C	 3.1429745909	-2.1744016946	 0.0446090151	-0.191867
C	 1.8771889054	-3.0803895551	 0.2113500259	-0.350145
H	 0.6354410718	 1.8894133959	-0.4609406944	 0.241803
H	-1.0033479421	 1.6946535694	-0.2759822674	 0.246646
H	-1.1975044324	-2.8119392075	-0.1889870441	 0.264185
H	 3.2336908001	-0.0019594124	-0.3546311889	 0.098094
H	 2.9491704396	-0.384170007	 1.3364012769	 0.108737
H	 3.4989498662	-2.2580554383	-0.9865839367	 0.110771
H	 3.9626740405	-2.4910608238	 0.6944870838	 0.100187
H	 1.8367993956	-3.5407021694	 1.2075444082	 0.115938
H	 1.8597074688	-3.8983805157	-0.5167737524	 0.109319
