17
gdb 131228	3.06037	1.42255	1.05273	2.5548	75.74	-0.2149	0.0367	0.2516	1131.2073	0.137377	-418.007249	-417.999251	-417.998307	-418.04049	30.181	
O	-0.132910147	 1.3532688533	 0.1855850205	-0.434246
C	-0.0098967816	 0.0183005123	-0.0010623276	 0.451621
C	-0.0237348819	-0.786246266	-1.1254273574	-0.392301
C	 0.1572244242	-2.0828540082	-0.6010585093	 0.0224
N	 0.272205431	-2.0856030501	 0.721417215	-0.286723
N	 0.1667462597	-0.7768919029	 1.0778109331	-0.025971
C	 0.2434569583	-0.3675495217	 2.4515796821	 0.063955
C	-0.3344300231	-1.2492515461	 3.5224502825	-0.278622
C	 1.1641393821	-1.092701538	 3.3921313349	-0.278614
H	-0.251005735	 1.7715440011	-0.672448223	 0.313299
H	-0.1448916026	-0.4796728535	-2.1514016898	 0.097307
H	 0.2078159942	-3.0172567492	-1.1412086691	 0.110448
H	 0.1390583595	 0.7056210844	 2.5402386395	 0.123275
H	-0.8456457862	-0.7729493927	 4.3515678237	 0.114322
H	-0.7566318293	-2.1897459752	 3.1900279617	 0.142771
H	 1.7071893888	-1.9323632702	 2.9757709697	 0.142756
H	 1.7006940189	-0.5069494673	 4.1301322334	 0.114323
