17
gdb 39889	4.09337	1.52524	1.41229	1.234	71.61	-0.2356	0.0728	0.3084	942.9084	0.137433	-421.746621	-421.740283	-421.739339	-421.777147	26.497	
C	 0.0327380807	 1.5369632123	 0.0634936873	-0.290644
O	 1.1789719609	 0.6570753699	-0.0132683236	-0.294102
C	-0.1181521649	 0.0926536244	-0.0122771647	 0.530455
C	-0.5603517241	-0.9813744049	 0.9860279817	-0.053643
O	-1.982698491	-0.978111969	 0.7801599315	-0.270948
C	-1.9695308005	-1.4356717827	-0.5894578838	 0.081808
C	-1.3852669192	-2.8585187691	-0.4476795457	-0.249318
C	-0.1150989367	-2.0776483012	-0.0781076985	-0.058098
C	-0.5491707125	-0.9160563051	-1.0624602061	-0.192856
H	-0.0946654705	 2.0480605	 1.0164402326	 0.120655
H	-0.1350279266	 2.1504261094	-0.8203509507	 0.117603
H	-0.2976527448	-0.9883764093	 2.0416603503	 0.088545
H	-2.909094894	-1.200043749	-1.0854691421	 0.084428
H	-1.8592775566	-3.5166973201	 0.2841886665	 0.10523
H	-1.2661400004	-3.3626371383	-1.4104349193	 0.104876
H	 0.8913848961	-2.4842190478	-0.0231396612	 0.091004
H	-0.3014207959	-0.8709926198	-2.1198425842	 0.085004
