15
gdb 14261	3.55948	1.92104	1.77774	4.0606	61.22	-0.2378	0.	0.2378	791.4338	0.119282	-399.780067	-399.773176	-399.772232	-399.811273	26.067	
O	-0.1164860993	 1.4514888757	 0.1276387072	-0.419665
C	 0.010152905	 0.0537071659	 0.0166922231	 0.09206
C	 0.283416345	-0.7154619182	 1.3519141337	-0.221555
N	-1.1194228819	-1.2434798456	 1.3363539679	-0.142196
C	-1.3831744466	-0.63875876	-0.0196092381	 0.005067
C	-2.5993719599	 0.1233906002	 0.5440338882	-0.379359
C	-2.1068480252	-0.3881566732	 1.9165936933	 0.386781
O	-2.3290085444	-0.1329532493	 3.062388092	-0.314219
H	 0.7535333209	 1.8270329974	 0.2979064793	 0.292424
H	 0.6739437423	-0.2267931574	-0.8115655621	 0.07756
H	 1.0203203449	-1.5191685361	 1.2735118842	 0.11672
H	 0.5039713863	-0.0924673353	 2.2230984619	 0.129388
H	-1.5515262041	-1.3326262469	-0.844113728	 0.086603
H	-2.572239194	 1.210101078	 0.4587824601	 0.157745
H	-3.5715938591	-0.2520134652	 0.2168027574	 0.132646
