17
gdb 31056	2.36041	1.42732	0.90978	1.8066	74.25	-0.1693	0.0434	0.2127	1258.9962	0.137553	-451.351165	-451.342032	-451.341087	-451.384906	33.749	
C	-0.0827406188	 1.4606693401	 0.0936112015	-0.323671
N	 0.3985737936	 0.1036338292	-0.1322787155	-0.389851
C	 0.7722788241	-0.651620407	 0.9654988642	 0.318534
C	 0.6575760072	-1.9941229711	 1.1372510327	 0.134764
N	 0.1224684781	-3.0019786178	 0.3535706952	-0.608205
O	 1.284209967	-2.2837035525	 2.3854504671	-0.216773
C	 1.6751044552	-1.0850731322	 2.8293828558	 0.456776
N	 2.2401820247	-1.0355199582	 4.0815681812	-0.589104
N	 1.4199435659	-0.0732126473	 2.0531854565	-0.39815
H	 0.6566643886	 2.0050114817	 0.6830459906	 0.154251
H	-0.1970724381	 1.9614719465	-0.8715314156	 0.114257
H	-1.0442355759	 1.507400272	 0.6292221065	 0.10346
H	-0.1817113463	-0.4362062273	-0.7604886245	 0.236586
H	-0.6171199483	-3.5301145825	 0.8054509653	 0.240988
H	 0.806322557	-3.6534301573	-0.019816251	 0.239972
H	 2.745075744	-1.8687877032	 4.3459335002	 0.259798
H	 2.758995782	-0.1843079433	 4.2403395796	 0.266366
