20
gdb 81018	2.44618	1.87811	1.37525	2.2696	77.91	-0.2404	0.0215	0.262	1014.9831	0.171989	-403.15621	-403.148214	-403.14727	-403.187986	32.223	
C	-0.1056377805	 1.5287147726	-0.0921583708	-0.429964
C	 0.021623588	 0.0125545152	-0.008487124	-0.019514
C	 1.1978494415	-0.6249441285	-0.8224168729	-0.007431
C	 2.0916964385	-0.4074978751	 0.4346299355	-0.285199
C	 0.7735407041	-0.5569115221	 1.2374001118	 0.422484
C	 0.6025647861	 0.0013591728	 2.6256432608	-0.481628
O	 0.4632645042	-1.9807630062	 1.308268003	-0.273231
C	 0.5971897893	-2.6089073342	 0.114949572	 0.096973
N	 0.945023764	-2.0623007662	-0.9749462881	-0.259962
H	 0.8452317672	 2.0457132719	 0.0702743355	 0.118147
H	-0.4702575393	 1.8203919981	-1.0826990472	 0.124604
H	-0.8194459486	 1.9072000866	 0.6472197231	 0.120952
H	-0.9509337503	-0.4550049368	-0.1907755411	 0.080943
H	 1.4879114659	-0.1819458984	-1.7755323044	 0.071101
H	 2.8831255768	-1.1363114727	 0.620229137	 0.108252
H	 2.489974136	 0.6053959004	 0.5061266878	 0.10696
H	 0.8144536635	 1.0736840478	 2.6344347532	 0.122259
H	-0.4201119456	-0.1564778457	 2.9828041888	 0.128469
H	 1.2861901962	-0.4927735639	 3.3229453043	 0.129946
H	 0.3703549931	-3.6691620254	 0.1932495855	 0.125838
