23
gdb 110859	2.15448	1.2982	1.1329	1.3529	86.37	-0.2418	0.0734	0.3152	1280.7533	0.204607	-388.269035	-388.259078	-388.258134	-388.303539	37.809	
C	 0.0073330896	 1.4569656024	-0.3225085775	-0.371624
C	 0.0268023464	 0.0343246369	 0.2488816218	-0.211693
C	-1.333215397	-0.6357584013	 0.1605364437	-0.034656
C	-1.9406126388	-1.2420471651	-1.0773120938	-0.11878
C	-0.8834175065	-1.9841614075	-1.9010371779	-0.283496
C	-0.6342954717	-2.9142666875	-0.665214699	 0.060091
O	 0.6601129412	-3.017933437	-0.1032035452	-0.430658
C	-1.6367671348	-2.1144410527	 0.164328498	 0.311297
C	-2.5606170644	-2.7480534188	 1.1678613159	-0.503454
H	 0.9864452544	 1.9373922796	-0.2280616781	 0.106613
H	-0.2643836295	 1.4514514739	-1.3837806399	 0.1146
H	-0.7233391099	 2.0862388181	 0.1987405925	 0.107952
H	 0.7846024828	-0.5682869566	-0.2553715567	 0.113651
H	 0.3313011851	 0.0649223943	 1.3029481732	 0.093243
H	-2.0890377055	-0.1013332421	 0.7383368731	 0.074735
H	-2.9111092508	-0.9371216853	-1.4516434894	 0.079081
H	-1.2892831202	-2.5251715076	-2.7592018122	 0.095117
H	-0.0252093957	-1.3921710309	-2.2335067118	 0.097549
H	-1.0414770821	-3.9156680487	-0.8664379301	 0.067779
H	 1.1912197279	-3.5836798113	-0.6728647206	 0.28153
H	-2.0206993083	-3.0275498212	 2.0806081472	 0.126162
H	-3.3627479809	-2.0613048464	 1.4576190481	 0.114987
H	-3.0268510411	-3.6566394151	 0.7682021987	 0.109975
