14
gdb 20366	6.31099	1.47133	1.3168	1.793	63.34	-0.2627	-0.023	0.2397	908.0222	0.109943	-374.878651	-374.872216	-374.871272	-374.909862	23.567	
C	-0.1172505954	 1.4466699865	-0.0810857058	-0.26135
C	 1.2727949452	 0.9158584772	 0.0930478582	-0.261383
C	 0.1030117618	-0.0494681732	 0.0447296604	-0.091267
C	-0.314989047	-0.7423021626	 1.2687475898	 0.412254
N	-0.7942146911	-1.9837729949	 1.295062069	-0.282803
N	-1.0172270889	-2.1427364969	 2.5956617597	-0.071392
N	-0.7098489978	-1.0974876554	 3.344885168	-0.097029
N	-0.259893989	-0.1934459758	 2.5156457223	-0.270669
H	-0.5756321451	 1.9425817435	 0.7664584194	 0.139935
H	-0.4155688148	 1.8229507738	-1.0529219692	 0.118983
H	 1.9451664181	 0.9214961413	-0.7572071102	 0.118966
H	 1.7469755788	 1.0556926467	 1.0573970835	 0.139999
H	-0.0136059516	-0.6482926918	-0.8503562926	 0.105735
H	-1.392135793	-2.9936150184	 2.9869662175	 0.300021
