16
gdb 1303	3.46915	2.57533	2.20806	2.4567	61.5	-0.2609	0.0323	0.2932	703.5227	0.136267	-325.785262	-325.777909	-325.776964	-325.816273	27.018	
C	-0.1028406451	 1.5392312809	 0.077036748	-0.440877
C	-0.0200746134	 0.0148629026	-0.0031359304	 0.171006
C	-1.389795509	-0.6456729953	 0.1535810766	-0.440877
C	 0.8661317021	-0.5471838121	-1.147057522	-0.115743
O	 1.8166434894	-1.0729025829	-0.1682733334	-0.259677
C	 1.0623198192	-0.5918063168	 0.8808834661	 0.419832
N	 1.2450393827	-0.6561043476	 2.1193187482	-0.551797
H	 0.8814448689	 2.0015839339	-0.0439415542	 0.123525
H	-0.7650764405	 1.9321636647	-0.7020847946	 0.116495
H	-0.4991900884	 1.8448057414	 1.049598414	 0.139987
H	-2.078582783	-0.2970681046	-0.6236108861	 0.116491
H	-1.3198882882	-1.7355486394	 0.0864326244	 0.12352
H	-1.8190939376	-0.3969906639	 1.1283657807	 0.140001
H	 0.4334773789	-1.3556047343	-1.7424846989	 0.115882
H	 1.3444587106	 0.1908333999	-1.7965219451	 0.115881
H	 2.1063756131	-1.1555248564	 2.3476417768	 0.226351
