21
gdb 36884	4.45368	0.98792	0.9656	0.9686	83.38	-0.24	0.0952	0.3352	1327.934	0.183288	-387.012052	-387.004076	-387.003132	-387.045456	31.425	
C	 0.4203017018	 1.3851664759	 0.1673671537	-0.29281
C	 1.1992835118	 0.0862356988	 0.0735736348	-0.285735
C	-0.3020944886	 0.0988251768	-0.060204009	 0.135529
O	-1.0956682415	-0.361769528	 0.9911829519	-0.270754
C	-1.3516452676	-1.7410279361	 0.9453663049	 0.198929
C	-0.3510868403	-2.7541691683	 1.593596361	-0.083823
C	-0.7773638394	-2.1711052767	 2.9754188676	-0.220187
C	-2.1020375832	-2.3229410751	 2.1647077277	-0.087873
C	-1.5702544899	-3.7117543881	 1.7052068164	-0.224587
H	 0.3154303974	 1.8273474319	 1.1514752785	 0.125427
H	 0.4828589851	 2.0968960113	-0.6478855821	 0.113575
H	 1.8004588119	-0.1026696491	-0.8092877562	 0.111043
H	 1.6063181173	-0.3098030886	 0.9966796218	 0.121317
H	-0.7254650232	-0.0884436718	-1.0479592246	 0.083964
H	-1.7373326158	-2.0271511086	-0.0438147529	 0.058612
H	 0.6544662462	-3.0076147893	 1.2569887498	 0.069425
H	-0.6600576458	-2.8359842192	 3.8352249474	 0.085769
H	-0.4589066053	-1.1537009844	 3.1998566534	 0.105988
H	-3.1130063819	-2.0737546685	 2.4886457692	 0.071973
H	-1.9751621644	-4.1173932842	 0.7729951997	 0.088529
H	-1.5068203045	-4.4776653085	 2.480805547	 0.095691
