17
gdb 36747	3.39407	0.77899	0.68157	3.1313	77.21	-0.248	-0.0042	0.2438	1630.3674	0.134513	-417.98453	-417.975303	-417.974359	-418.020478	32.145	
N	 1.6843867028	-0.3527753193	 0.1552839171	-0.286973
C	 0.8876372846	 0.4828648237	 0.1282334251	 0.25937
C	-0.1209267579	 1.5556070035	 0.1057684578	-0.211889
O	 0.2555516843	 2.6462238245	-0.7126287552	-0.191333
C	 1.230581337	 3.4567200013	-0.2107713889	 0.130625
N	 1.6326312725	 4.4275702032	-0.8932803161	-0.216712
C	 2.6447801558	 5.2921662231	-0.3600620829	 0.042305
C	 3.708860614	 4.873588699	 0.6312994023	-0.291836
C	 4.0687977498	 5.1452951089	-0.8154728287	-0.246298
H	-1.0504966553	 1.1651216028	-0.3151336861	 0.17752
H	-0.3234898068	 1.8721146125	 1.1375003557	 0.158819
H	 1.5823589746	 3.1785406121	 0.7908768354	 0.098499
H	 2.2862291904	 6.314854472	-0.2793227476	 0.103633
H	 4.0114770308	 5.5889071294	 1.3882596545	 0.116095
H	 3.7493092307	 3.8414843341	 0.9607435218	 0.116501
H	 4.2961160147	 4.2840911395	-1.4341603534	 0.125435
H	 4.6290647379	 6.0402067898	-1.0615880708	 0.116238
