17
gdb 19703	5.73284	1.83884	1.67554	1.5551	72.15	-0.2128	-0.0049	0.2079	815.9107	0.143802	-326.643252	-326.637005	-326.636061	-326.673166	25.713	
C	-0.1444590745	 1.5754793169	 0.0843691697	-0.432801
C	 0.0266186994	 0.0716220028	-0.0175110493	 0.076963
C	 0.7925862093	-0.6091607365	-1.1642039497	-0.081431
C	 2.1219437686	-0.163170358	-0.4746966898	-0.039133
C	 3.1320736915	-1.2844311363	-0.5932546955	-0.090377
C	 2.3908872511	-2.3763064907	-0.4017981793	-0.097135
C	 1.0056144994	-1.8074530167	-0.1876969384	-0.024611
N	 1.2096123306	-0.5633396969	 0.7359272367	-0.162293
H	 0.7402161449	 2.1336897014	-0.2318578404	 0.117282
H	-0.9837233762	 1.9015808355	-0.5395521998	 0.11764
H	-0.3681191611	 1.858639348	 1.118250121	 0.129527
H	-0.911525543	-0.4244355003	 0.2604464451	 0.066045
H	 0.5668345719	-0.6440582662	-2.2388276875	 0.058003
H	 2.4639092901	 0.869579302	-0.4959740571	 0.072273
H	 4.1941455593	-1.1789287241	-0.7613541314	 0.109494
H	 2.6714478494	-3.4190602828	-0.3686093112	 0.110824
H	 0.1738476593	-2.4575838981	 0.0872952768	 0.06973
