22
gdb 96098	2.70693	1.31816	1.01143	0.4697	82.28	-0.2384	0.077	0.3155	1254.4514	0.196071	-404.335198	-404.326663	-404.325719	-404.367996	33.788	
C	 0.0028617101	 1.5549867469	-0.0031946373	-0.406294
C	 0.0196568402	 0.0248688983	 0.0027084325	 0.015031
C	 0.7025050573	-0.5308619538	-1.2551094098	-0.069887
O	 0.7230236447	-1.9490713778	-1.277719324	-0.243531
C	 1.4372257816	-2.4888090045	-0.1802796056	-0.1595
C	 0.837538063	-2.0549464066	 1.143951395	 0.331791
C	-0.1375341657	-2.9523576849	 1.8108778318	-0.279277
N	 1.2209686622	-2.7721379479	 2.3675912832	-0.370536
C	 0.7208625487	-0.5466737672	 1.2488671692	-0.26352
H	 1.0208882011	 1.9617798085	-0.0131468612	 0.115447
H	-0.5220318607	 1.9464510991	-0.881189153	 0.113135
H	-0.4994687792	 1.9450071748	 0.8878029263	 0.117211
H	-1.0151859724	-0.3433354886	-0.0062951078	 0.081337
H	 0.1691322143	-0.2222961702	-2.1594550751	 0.104777
H	 1.733182946	-0.1359420209	-1.3195630287	 0.080149
H	 1.4056451077	-3.5780789805	-0.2900055085	 0.097515
H	 2.4949955295	-2.1703952405	-0.2252937962	 0.085402
H	-0.9345916332	-2.5332750007	 2.4193496898	 0.115557
H	-0.3851806693	-3.8949483349	 1.3292492232	 0.112066
H	 1.7965272968	-3.5801017848	 2.1359138408	 0.226914
H	 1.7307923744	-0.1172953084	 1.3248850241	 0.094932
H	 0.190981913	-0.2679472354	 2.1654438614	 0.101282
