17
gdb 47561	2.71498	1.63486	1.1135	2.9904	68.87	-0.261	-0.0069	0.2541	1063.5755	0.136399	-458.962716	-458.955038	-458.954094	-458.995692	29.088	
O	 0.0380877877	 0.0105838116	 0.551841316	-0.286328
C	 0.0333952143	 1.1248687858	 0.1148403383	 0.380403
C	-1.2382876797	 1.9516553367	-0.0183802254	-0.298039
C	-1.427993872	 2.8544133873	-1.2404487372	-0.101546
O	-0.427525222	 3.8568406919	-1.3281897661	-0.240089
C	 0.7114952212	 3.4025554039	-1.980839357	 0.074349
C	 2.0405809188	 3.7413928331	-1.3698347199	-0.339458
C	 1.5501674171	 2.3188635517	-1.3455436534	 0.068333
O	 1.2302191798	 1.7766240296	-0.0897449337	-0.235082
H	-2.0771536405	 1.2555809463	 0.0649709962	 0.13207
H	-1.255783887	 2.5951371777	 0.871328459	 0.147038
H	-1.4678431492	 2.2652415955	-2.1674236761	 0.104714
H	-2.3834022382	 3.3780815656	-1.1381751266	 0.119779
H	 0.6277992823	 3.378326756	-3.0686211222	 0.095236
H	 2.8728739719	 4.0065336484	-2.0109053257	 0.124019
H	 1.9937152598	 4.2606101222	-0.4194841329	 0.142623
H	 2.0218389956	 1.5905645567	-2.0007887434	 0.111978
