17
gdb 112352	3.14438	1.23226	0.9321	4.8225	75.63	-0.2102	0.0008	0.211	1217.8486	0.137365	-455.170078	-455.161675	-455.160731	-455.202963	32.249	
N	 0.5721736257	 1.1378014107	 0.1995625189	-0.594058
C	 0.1862614215	-0.1665421382	 0.0647850678	 0.358866
C	-1.0240664138	-0.7568826321	 0.1086846576	-0.325796
C	-0.8570805614	-2.1919969822	-0.046304206	 0.414259
N	-1.7476433664	-3.0925598991	-0.0593268426	-0.565595
O	 0.504360031	-2.4551845241	-0.1992388058	-0.267668
C	 1.2366801941	-1.2401046884	-0.1181794866	 0.010363
C	 2.0918339987	-1.061461106	-1.3816964623	-0.108388
O	 2.9050146712	 0.1067282947	-1.2933285077	-0.408525
H	 1.4480337432	 1.3679137144	-0.2517261364	 0.264881
H	-0.148041716	 1.8376924205	 0.1067766827	 0.257245
H	-1.9911672131	-0.2923887758	 0.2242659982	 0.108229
H	-1.3227961625	-4.0106754054	-0.1922448814	 0.214318
H	 1.9055962493	-1.2793111543	 0.7564875566	 0.095789
H	 2.6923587501	-1.964651402	-1.5459889278	 0.117817
H	 1.440425713	-0.9247858576	-2.249400765	 0.132369
H	 3.6368509555	-0.082112695	-0.6966771001	 0.295893
