25
gdb 122217	2.50786	0.87509	0.73591	0.9347	89.9	-0.2438	0.0847	0.3285	1716.3023	0.226445	-389.482103	-389.470985	-389.470041	-389.51922	40.431	
C	-2.5886006535	-1.0644414387	 0.0672316829	-0.382512
C	-1.0686934578	-1.2352778224	 0.0130107053	-0.180274
C	-0.5966738111	-1.8440390995	-1.3010624372	-0.055432
O	 0.8190972586	-1.9376582513	-1.262679363	-0.297725
C	 1.4034613942	-2.6333981166	-2.333233594	 0.463719
C	 1.3893554821	-1.9058860474	-3.6661690379	-0.250056
C	 2.0782576411	-0.5385109084	-3.6017301085	-0.374019
C	 2.6105437695	-3.4298340995	-1.9380174385	-0.313003
C	 1.3165853778	-4.1399041436	-2.2902773617	-0.331629
H	-2.9457572567	-0.4061972368	-0.7326057504	 0.115654
H	-3.1037830616	-2.0254199033	-0.041488448	 0.115314
H	-2.9015062503	-0.6273194603	 1.0198474998	 0.116507
H	-0.5725934607	-0.266779931	 0.1450242793	 0.106157
H	-0.7267744974	-1.8740249291	 0.8355286327	 0.103343
H	-1.0398762484	-2.8420439195	-1.445497244	 0.08565
H	-0.9265600725	-1.2173312073	-2.1447495366	 0.086802
H	 1.8806323775	-2.5417113589	-4.4117075529	 0.094732
H	 0.3541771452	-1.7849614991	-4.010765046	 0.095915
H	 1.6089431116	 0.0957178921	-2.8446589727	 0.127225
H	 3.134610111	-0.64367953	-3.3333705643	 0.116719
H	 2.0231204792	-0.02235639	-4.5649541481	 0.105771
H	 3.4416320591	-3.4872643036	-2.6328427645	 0.10812
H	 2.8898677446	-3.4004531014	-0.891387338	 0.120306
H	 0.7603633417	-4.5816922751	-1.4710587175	 0.114042
H	 1.2595875271	-4.6885711489	-3.2245236961	 0.108673
