19
gdb 73596	2.33901	1.62301	1.32362	3.3978	79.6	-0.2484	0.0125	0.2609	1060.6903	0.160638	-382.079051	-382.070702	-382.069758	-382.111734	31.916	
C	 0.1107615427	 1.5235336671	-0.0118939919	-0.473896
C	-0.0078366613	 0.0188060381	 0.0224229383	 0.317443
C	-1.378754014	-0.6064398753	-0.2221670679	-0.279125
C	-1.3563991356	-1.9558409363	 0.5320361975	-0.248591
C	-0.1773655128	-1.8210425092	 1.53022536	-0.163923
N	 0.6905049848	-0.7087212062	 1.0907376864	-0.137897
C	 1.2062839805	-0.8130689366	-0.2966039473	-0.213878
C	 1.1419140536	-2.0249747015	-1.0698572542	 0.307654
N	 1.1313633191	-2.9968460816	-1.6988073479	-0.355735
H	 1.1178332906	 1.8457604109	 0.2638712211	 0.132399
H	-0.115640825	 1.9084022432	-1.0118533122	 0.128538
H	-0.595434963	 1.9766441679	 0.6922581304	 0.127318
H	-2.1364828547	 0.0682497638	 0.1906686099	 0.109622
H	-1.5992161052	-0.7254107264	-1.2868220949	 0.123578
H	-2.2989492276	-2.147519164	 1.0503106076	 0.106125
H	-1.1923456079	-2.7844026087	-0.157383962	 0.143996
H	-0.5318319835	-1.5502687383	 2.5295732958	 0.11659
H	 0.4074182004	-2.7402090468	 1.6240205687	 0.126946
H	 2.150313229	-0.2905163703	-0.4326300474	 0.132836
