17
gdb 67721	3.75091	1.84473	1.60062	3.5298	76.43	-0.2099	-0.0442	0.1657	871.6854	0.136573	-380.743135	-380.736623	-380.735678	-380.773452	27.779	
C	-0.0653882405	 1.438792477	-0.014963015	-0.487971
C	 0.0086681049	-0.062320672	-0.0058278484	 0.343366
N	-0.5171123448	-0.7991467633	-1.1136343089	-0.18453
C	-0.152332382	-2.0119185035	-0.8998179089	 0.059136
N	-1.220994724	-2.8646675854	-0.3445123031	-0.33867
C	-0.4891144944	-2.385817407	 0.9564583607	-0.01616
C	-0.4037223441	-0.8525257935	 1.2863181868	-0.125901
C	 1.0513390487	-0.8158290749	 0.8165164227	-0.140251
C	 0.8766446885	-2.2157546283	 0.2638988706	-0.10449
H	 0.6387334456	 1.8535717811	-0.7435923662	 0.129057
H	-1.0713790568	 1.7685867816	-0.2883124404	 0.139794
H	 0.1835992879	 1.850541383	 0.9674737755	 0.117348
H	-0.9569496048	-3.8544570769	-0.3912116273	 0.222474
H	-0.6380983569	-3.0524606877	 1.8063904469	 0.104164
H	-0.880500536	-0.3456247127	 2.1138741309	 0.099707
H	 1.9243860182	-0.3607568527	 1.2626618785	 0.09723
H	 1.6298768506	-2.9963728148	 0.2128862657	 0.085699
