18
gdb 47874	2.25436	1.63364	1.14046	5.4825	72.84	-0.2297	-0.0371	0.1926	1104.1413	0.149294	-439.139388	-439.131024	-439.13008	-439.172666	31.207	
O	-0.0185543468	-0.060869295	 0.0134158699	-0.293298
C	-0.0253078648	 1.1452759539	 0.0290054221	 0.302267
C	-1.2948319366	 1.9767952294	 0.0864793995	-0.295656
C	-1.7174106586	 2.45709027	-1.3211314796	-0.204916
C	-0.7242074061	 3.3964414459	-2.0198585441	-0.185036
C	 0.6691242047	 2.7928456284	-2.259573609	-0.176
N	 1.5097651289	 2.7225011131	-1.0662631928	-0.3021
C	 1.3002563139	 1.9355814896	 0.0227949841	 0.314069
O	 2.0593357882	 1.864748325	 0.969099747	-0.356508
H	-2.0824778682	 1.3490147315	 0.5116115007	 0.128047
H	-1.1374333072	 2.8412842848	 0.7430032942	 0.120313
H	-1.8855130232	 1.5746028775	-1.9512489796	 0.118895
H	-2.6840260881	 2.9636976985	-1.2320244302	 0.111951
H	-1.1428509504	 3.674255144	-2.9943386441	 0.107361
H	-0.6098686822	 4.3250353505	-1.4472724504	 0.108045
H	 0.5709392493	 1.7974501642	-2.7141794324	 0.1301
H	 1.2114656503	 3.4092209951	-2.9803759818	 0.120522
H	 2.3789480769	 3.2366310635	-1.0530535634	 0.251945
