17
gdb 53303	3.3377	0.7674	0.6633	2.4139	84.95	-0.2497	0.022	0.2717	1689.869	0.132113	-384.60906	-384.599007	-384.598063	-384.645856	34.78	
C	 0.1146793532	 1.5107552862	 0.188734901	-0.501604
C	 0.0403064262	 0.0590612778	 0.1285767593	 0.105937
C	-0.0236591816	-1.1434447923	 0.0880679505	 0.085279
C	-0.0571770184	-2.5790899301	 0.0219035223	-0.170149
O	-0.7335708186	-3.289108389	 1.0802383349	-0.236231
C	-1.3021869714	-3.3414150792	-0.2197131933	 0.080147
C	-2.6386314506	-2.6499336367	-0.4239465598	-0.392027
C	-3.7635055723	-3.4795456387	-0.0073354243	 0.29808
C	-4.6775095218	-4.1820578347	 0.3310313453	-0.435654
H	 1.1541527856	 1.8550871289	 0.1633334271	 0.154587
H	-0.4115060194	 1.9727625754	-0.6537154645	 0.152493
H	-0.3384825159	 1.8880491975	 1.111858531	 0.15766
H	 0.8775400777	-3.048397597	-0.2850756504	 0.114016
H	-1.2084293199	-4.3100074583	-0.7131412502	 0.104461
H	-2.6319780071	-1.7040931021	 0.1273209582	 0.149635
H	-2.7399925677	-2.396035507	-1.4878129279	 0.136024
H	-5.489479528	-4.7934025207	 0.6378941908	 0.197346
