27
gdb 100931	2.19657	0.94658	0.70761	1.4497	92.75	-0.2632	0.0769	0.3401	1726.6629	0.250089	-390.695348	-390.683364	-390.68242	-390.732709	43.879	
C	-0.5759192291	 0.9876469022	-1.0879630661	-0.390765
C	-0.4330082825	-0.4496128583	-0.5753359024	-0.169074
C	 0.1465222259	-0.5740355342	 0.8513564516	 0.030951
C	-0.8899192094	-0.1020456176	 1.8850172009	-0.412845
C	 0.6623178899	-2.0206203906	 1.0981425109	 0.045384
C	 1.9610057467	-2.3033785111	 0.2965586409	-0.171425
C	 2.0561592783	-3.7195208627	-0.2816573006	-0.384176
C	 0.8807336332	-2.3098876098	 2.5868738085	-0.10739
O	 1.3939642701	-3.62944922	 2.7300367779	-0.419342
H	 0.3938183693	 1.4979385451	-1.1031397093	 0.113362
H	-0.9720277163	 0.9999304579	-2.1083984293	 0.111371
H	-1.2535509583	 1.5844172227	-0.4695492463	 0.116532
H	-1.4122597836	-0.9477009243	-0.5962732333	 0.09043
H	 0.197763349	-1.0042342822	-1.2783056125	 0.099159
H	 1.016852901	 0.0963956086	 0.9224814196	 0.065258
H	-1.7441906421	-0.7887196273	 1.9286731335	 0.113072
H	-0.4694544814	-0.0243239748	 2.8912775407	 0.113123
H	-1.278007043	 0.8869711191	 1.6251007295	 0.111243
H	-0.1187015624	-2.7134552775	 0.7515622494	 0.069736
H	 2.051471554	-1.5816411571	-0.5230866713	 0.087254
H	 2.8231075709	-2.1191568026	 0.9498308008	 0.092093
H	 2.9976586774	-3.8601022549	-0.8235079701	 0.09982
H	 1.9986159938	-4.4656607971	 0.5127026202	 0.140069
H	 1.2379612625	-3.9096420631	-0.9861143752	 0.104122
H	 1.5882028939	-1.5695990691	 2.9999899238	 0.080259
H	-0.0624776919	-2.2088160688	 3.1400892928	 0.086998
H	 1.5275117542	-3.7977735325	 3.6669440853	 0.284782
