19
gdb 51815	4.0878	0.9099	0.783	3.3664	77.98	-0.2417	-0.0191	0.2226	1435.1024	0.15865	-423.041799	-423.033079	-423.032134	-423.07618	31.842	
O	-0.4871291866	 0.624455204	 0.8470699612	-0.243835
C	 0.0797148909	 0.9605040612	-0.1617378823	 0.151269
C	 1.373760497	 1.7463514752	-0.1916304037	-0.297208
C	 1.3627095913	 2.8672692259	-1.232076457	 0.110215
C	 2.5878868801	 3.784511865	-1.1403197408	-0.258575
C	 2.6861985165	 4.6441950676	-2.3733619959	-0.069284
C	 1.9958787377	 4.3638620868	-3.4755377761	-0.064141
C	 1.1181137444	 3.1480408143	-3.5748969064	-0.119456
O	 1.3104335322	 2.2366277605	-2.50747488	-0.265287
H	-0.3230421758	 0.7038894216	-1.1650124353	 0.092917
H	 1.5743835116	 2.1341337029	 0.8109750122	 0.12015
H	 2.1826560302	 1.0527485098	-0.4612254688	 0.132539
H	 0.4579567126	 3.4863145039	-1.0987897857	 0.075911
H	 2.509977039	 4.4114507481	-0.2430737072	 0.110102
H	 3.4983457169	 3.1810027677	-1.0161429685	 0.11407
H	 3.3351188204	 5.5146773543	-2.3335034738	 0.09404
H	 2.0407303873	 5.0049989761	-4.3516570873	 0.094945
H	 0.056572765	 3.4509174865	-3.6375732367	 0.100905
H	 1.3394430592	 2.5879002286	-4.4911594078	 0.120725
