18
gdb 105761	2.36491	1.49312	1.19703	3.9777	72.21	-0.2841	0.0251	0.3091	1114.4228	0.147287	-439.098711	-439.08976	-439.088816	-439.133054	32.217	
C	 0.2081254676	 1.3478524483	-0.0009594897	-0.267505
O	 0.2833407935	-0.0753128651	 0.0667209738	-0.268809
C	 0.6758641184	-0.5963839889	 1.3043138043	 0.366723
C	 0.7724666517	-2.1393542754	 1.1457507957	-0.309894
C	 2.2176174151	-2.4600131149	 1.5644757063	-0.213026
C	 2.9225003392	-1.1236362169	 1.3297080275	-0.095119
O	 1.9502034473	-0.1410021357	 1.7067862414	-0.272744
C	-0.278479041	-0.1830971338	 2.3708379857	 0.256143
N	-1.0472027367	 0.1116961157	 3.1808006994	-0.34793
H	 1.1694666801	 1.805042265	 0.252590051	 0.134934
H	-0.0553169706	 1.5875274413	-1.0320792913	 0.134483
H	-0.5666642002	 1.7362074198	 0.6717463688	 0.137792
H	 0.0242392747	-2.6582008957	 1.7452244611	 0.137163
H	 0.5884712866	-2.3629979539	 0.0931690911	 0.137218
H	 2.2648203251	-2.7264054629	 2.6241161805	 0.123738
H	 2.652702988	-3.277807176	 0.9857645624	 0.115355
H	 3.8044250716	-0.9616400964	 1.952351613	 0.121598
H	 3.2031265497	-0.9958178044	 0.275276839	 0.109881
