16
gdb 57585	2.83565	1.18692	1.03939	2.3588	70.3	-0.2727	-0.0997	0.173	1171.6663	0.119898	-437.914695	-437.904632	-437.903688	-437.950375	34.434	
C	-0.0149114623	 1.6202773655	-0.1100491067	-0.430962
C	-0.0380892716	 0.0811647804	-0.0980371844	 0.014058
C	 0.6531291625	-0.4815087264	 1.1679098147	-0.449602
C	-1.4762592213	-0.4541141298	-0.1184090064	 0.151988
O	-2.4484563479	 0.2367414813	 0.0177744395	-0.237527
C	 0.6620056547	-0.4412255361	-1.3468761417	 0.302531
O	 0.1128432581	-1.0118838147	-2.2551739015	-0.275606
C	 2.1203419672	-0.1841991492	-1.4148782804	 0.248909
N	 3.2575930471	 0.0204785233	-1.4614986584	-0.307277
H	 1.0113562064	 1.9958821444	-0.0793609576	 0.140169
H	-0.5117434206	 2.0150564747	-0.9995369455	 0.147209
H	-0.5527003845	 1.9939694464	 0.7638782203	 0.149518
H	 0.171793197	-0.0710643347	 2.0597245618	 0.148211
H	 0.5878342327	-1.5733611129	 1.2125047476	 0.138401
H	 1.7097044272	-0.2010857577	 1.1901017852	 0.158142
H	-1.5525564646	-1.5563846945	-0.2243829665	 0.101837
