15
gdb 1170	4.10478	1.87853	1.77854	2.6311	57.56	-0.2773	0.0215	0.2988	771.8633	0.124743	-341.843027	-341.835087	-341.834143	-341.874568	28.898	
C	-0.0372736756	 1.5478522672	 0.0078252371	-0.399364
C	-0.0416777562	 0.0116293182	-0.0043876707	 0.055933
N	 0.553327201	-0.4832076049	 1.2493148646	-0.531863
C	-1.4970939898	-0.53463717	-0.0382547351	-0.044521
O	-2.2016287951	-0.1266684976	 1.1052432454	-0.418425
C	 0.6819460801	-0.4856692029	-1.1939435249	 0.252669
N	 1.2518637126	-0.9083977493	-2.1071686996	-0.335899
H	 0.9806197588	 1.935309542	 0.1092173053	 0.126066
H	-0.459311865	 1.9388577537	-0.9207487449	 0.140519
H	-0.6441261058	 1.8940831146	 0.8459474387	 0.147052
H	 0.7641794001	-1.4747349999	 1.1744144903	 0.247948
H	 1.4303708154	-0.0087709569	 1.4402888171	 0.246481
H	-2.0219360286	-0.1453033514	-0.9152413349	 0.125323
H	-1.4559602503	-1.6322821934	-0.1304960897	 0.097267
H	-1.6074852817	-0.3033842393	 1.8491442714	 0.290814
