17
gdb 87947	3.52989	1.12014	1.03587	5.6415	68.69	-0.2586	0.0167	0.2753	1178.167	0.136027	-458.987964	-458.9799	-458.978956	-459.02085	30.564	
O	-0.1315566171	 1.3538816035	-0.29487664	-0.415299
C	-0.0434604611	-0.0253214036	-0.1064157104	 0.0627
C	-0.3739418015	-0.6130965292	 1.245919892	-0.394675
C	-1.3383115991	-0.7624537786	 0.0959728371	 0.296429
C	-2.6586877534	-0.005323904	 0.0554504802	-0.145254
O	-3.3859801091	-0.5596420013	-1.0546555303	-0.217556
C	-2.8568944191	-1.7449172099	-1.4606028195	 0.440026
O	-3.3324042582	-2.3899521036	-2.3480097866	-0.335205
C	-1.6287953882	-2.0691911603	-0.6101798537	-0.460508
H	 0.5990993183	 1.7719349403	 0.1724242341	 0.294751
H	 0.7194048625	-0.5248446382	-0.7046928923	 0.095242
H	 0.1695485415	-1.4883178722	 1.5873287832	 0.120467
H	-0.6423622604	 0.0913704948	 2.028023762	 0.120003
H	-3.2518930775	-0.1552776302	 0.9656220798	 0.11274
H	-2.5241655531	 1.0631332833	-0.1180573941	 0.146202
H	-0.8215404849	-2.4407705287	-1.2444959655	 0.140763
H	-1.8986738795	-2.8731989121	 0.085733214	 0.139173
