16
gdb 20214	3.58194	3.14653	2.19378	0.6053	70.9	-0.2144	0.0273	0.2417	669.1956	0.133577	-309.418719	-309.413466	-309.412522	-309.447514	23.36	
C	-0.0459439155	 1.5291053198	 0.0086542661	-0.083086
C	 1.0919570092	 2.2303485	 0.0206731001	-0.083085
C	 2.3511047978	 1.4758208838	 0.0065986653	-0.07516
C	 2.4970671826	 0.1345249479	 0.735929141	-0.094983
C	 1.183650748	-0.6748961404	 0.7220337037	-0.094979
C	 0.0623659014	 0.0653624935	-0.0175893147	-0.07516
C	 1.1829594961	-0.647930151	-0.7842612302	-0.094984
C	 2.4963893946	 0.1614686739	-0.7703661131	-0.094979
H	-1.0259561996	 1.9930516052	 0.0174100045	 0.087524
H	 1.1178348502	 3.314184985	 0.0400508962	 0.087524
H	 3.269910944	 2.0543642308	 0.0165294827	 0.083551
H	 3.3116672685	-0.0404689311	 1.4255495061	 0.088566
H	 0.9633191418	-1.4876918948	 1.4007009961	 0.088566
H	-0.8674483611	-0.4953236124	-0.0271951365	 0.083551
H	 0.9619899056	-1.435916705	-1.4913835956	 0.088566
H	 3.3103665665	 0.0112612347	-1.4665350817	 0.088566
