20
gdb 17398	4.01139	1.54499	1.49456	0.1814	79.17	-0.2357	0.0994	0.3351	969.9671	0.177354	-311.827924	-311.820274	-311.81933	-311.8595	30.338	
C	-0.1180143906	 1.498689551	-0.0000892122	-0.404379
C	-0.008938243	-0.0094590427	 0.0458097774	-0.052082
C	 1.3315997471	-0.6851590821	-0.1677844337	-0.372899
C	 0.6832778607	-0.7062442735	 1.1850879986	 0.388975
C	 1.2769518063	-0.1102821399	 2.4834915156	-0.319552
C	 0.8043502031	-1.3694683263	 3.2279059079	-0.036854
C	-0.6785540896	-1.5576178655	 3.0659297113	-0.277046
C	 0.2306530311	-1.9476525716	 1.9305988724	-0.128079
H	 0.7669259146	 1.972688096	 0.4374651558	 0.114615
H	-0.2092261916	 1.8598114859	-1.0308194212	 0.114507
H	-0.9923524288	 1.8556668813	 0.5560662041	 0.113859
H	-0.8674875263	-0.5361468094	-0.3662467269	 0.07844
H	 1.3626577762	-1.608415543	-0.7386295537	 0.105982
H	 2.201768411	-0.0489487278	-0.3060495278	 0.103823
H	 2.3659881147	-0.0222756192	 2.4402364246	 0.102382
H	 0.8605297857	 0.8396541289	 2.8375631931	 0.093053
H	 1.3617066209	-1.8777632964	 4.0047618217	 0.0838
H	-1.1046973128	-2.3840703541	 3.6264305506	 0.106483
H	-1.3373050013	-0.6973072079	 2.9688355958	 0.103611
H	 0.2820270425	-2.9619223437	 1.5515577766	 0.081362
