18
gdb 55932	4.07673	0.94691	0.86798	1.871	71.46	-0.2461	0.0328	0.2789	1338.7366	0.14661	-439.079843	-439.07077	-439.069826	-439.115743	32.478	
N	-0.1241933902	 1.2911667514	 0.2682658102	-0.525277
C	 0.0718747202	-0.0522019796	 0.1250346179	 0.418191
O	 1.1758426787	-0.5589818614	 0.1946171823	-0.362221
C	-1.1959675308	-0.8572015808	-0.1548779554	-0.342799
C	-0.9779496697	-2.3496486532	 0.0389170496	 0.013683
C	-0.7635708411	-2.8923808449	 1.5020874308	-0.25916
C	-2.0145437871	-3.7574932435	 1.3124366573	 0.033863
O	-3.1028398346	-2.8687295095	 1.0179682042	-0.251133
C	-2.2250064195	-3.2473916586	-0.0512053469	-0.009657
H	 0.6746313846	 1.8760491087	 0.4499485602	 0.259366
H	-1.0388673868	 1.7061769911	 0.2581134153	 0.258317
H	-2.0158130156	-0.5163845742	 0.4871372531	 0.12445
H	-1.5025841991	-0.6494772243	-1.189703022	 0.122329
H	-0.1746372525	-2.7018887236	-0.6109368743	 0.096836
H	 0.1618851446	-3.4623411721	 1.5990990359	 0.116333
H	-0.8274398244	-2.1623825055	 2.3129859802	 0.106341
H	-2.2687317281	-4.7140034681	 1.7541394314	 0.103095
H	-2.6804706686	-3.7053775719	-0.9224620797	 0.097443
