16
gdb 35218	3.43088	1.24955	1.06378	1.115	77.18	-0.2324	0.0085	0.2409	1125.1704	0.124243	-400.714802	-400.706936	-400.705992	-400.747444	29.847	
C	 0.0406740862	-1.1444627389	-0.155748096	-0.453235
C	 0.0124775434	 0.0565755144	-0.0765143558	 0.327053
C	 0.0271863129	 1.4838830346	 0.0095921278	-0.258547
C	 0.4330925527	 2.1771377228	 1.3050784515	-0.340414
C	 1.3668848112	 2.2144250747	 0.139565005	 0.318212
C	 2.714409251	 1.4892889421	 0.0904414121	-0.17676
O	 3.5185676365	 2.3559727517	-0.7492529203	-0.221744
C	 2.7220292693	 3.4077463427	-1.0471290892	 0.109168
N	 1.5308475186	 3.4415710843	-0.6073429901	-0.299823
H	 0.0395135313	-2.2041717039	-0.2218100689	 0.198621
H	-0.7058414325	 2.0081263935	-0.5950577357	 0.12847
H	-0.0858930962	 3.0949446977	 1.5549781392	 0.133663
H	 0.6945207818	 1.5411808264	 2.1440265012	 0.127118
H	 3.2044617927	 1.4091094492	 1.0656326125	 0.123146
H	 2.6599849087	 0.4997124198	-0.3711324757	 0.139506
H	 3.1876751224	 4.1669676689	-1.6644213278	 0.145564
