13
gdb 25112	3.26918	1.5229	1.1471	3.954	71.06	-0.2705	-0.0868	0.1837	1003.8699	0.090631	-448.927229	-448.920028	-448.919083	-448.959725	26.303	
N	-0.0067797237	 1.2172981084	-0.7425883684	-0.471228
C	 0.0247964199	 0.1666351043	-0.0443034126	 0.364722
O	 1.2276062964	-0.2985394501	 0.4635547955	-0.232481
C	 1.3965552885	-1.4705618498	 1.1473520283	 0.121295
N	 0.6010473688	-2.1171705806	 1.8770007286	-0.272607
C	-0.7156398534	-1.6876622877	 2.1644126056	 0.353077
N	-1.1855313293	-1.6655305734	 3.3415089886	-0.449968
N	-1.5799731983	-1.3757868878	 1.0957417017	-0.194415
C	-1.241534844	-0.5913286836	 0.1588692354	-0.014045
H	 0.9162668516	 1.650797584	-0.8076311311	 0.244748
H	 2.4245469977	-1.801443033	 1.0191042403	 0.154084
H	-0.4558464335	-1.9380205041	 4.0022871618	 0.235333
H	-1.9739856408	-0.3618913665	-0.6146380636	 0.161486
