18
gdb 13431	3.77125	1.38957	1.23441	1.1813	73.38	-0.2523	0.051	0.3033	1042.5418	0.151796	-347.752981	-347.744078	-347.743134	-347.786392	32.977	
C	 0.1388667161	 1.6280914975	-0.2667153198	-0.408701
C	 0.0340576422	 0.1272995811	-0.1011811854	-0.054658
C	 1.2698086939	-0.7290679617	 0.0173939871	 0.091393
O	 2.4999674285	-0.0663856959	 0.0528457399	-0.42386
C	 0.3442322829	-0.590186836	 1.2044447163	-0.06606
C	 0.8360173357	 0.1514348706	 2.4436194747	-0.375395
C	 1.9439501121	-0.5478045108	 3.0948885528	 0.297308
C	 2.8677697468	-1.1417472394	 3.586631805	-0.457932
H	 1.0891149823	 2.0076887261	 0.1132397993	 0.138313
H	 0.0893460694	 1.8929373322	-1.3280124978	 0.11959
H	-0.6790363411	 2.1485645091	 0.2435367829	 0.111734
H	-0.776510917	-0.3235784275	-0.6678474754	 0.086468
H	 1.2857531042	-1.6824527079	-0.5103500985	 0.082052
H	 3.0025459086	-0.426936318	 0.7940913397	 0.293868
H	-0.2670127918	-1.4580561405	 1.4344327438	 0.091231
H	 1.1623355404	 1.1626219433	 2.1841367043	 0.142652
H	 0.0097662552	 0.2717071965	 3.1546939504	 0.132805
H	 3.6722771215	-1.6590711787	 4.0480563309	 0.199191
