19
gdb 78755	2.85101	1.56358	1.21241	0.8872	73.93	-0.2426	0.0716	0.3142	1052.5029	0.160342	-422.99757	-422.98985	-422.988906	-423.029221	31.611	
O	 0.076251275	 1.3670553047	 0.0933674623	-0.440457
C	 0.0471918313	-0.0448838773	 0.0492698241	 0.141933
C	-1.3630414784	-0.6277220418	 0.0153652826	-0.17959
C	-1.2425473557	-0.9032840785	-1.4894336491	-0.144848
C	 0.2900049375	-0.653975728	-1.3748736717	-0.0891
C	 0.934015995	-2.0471162206	-1.2907148139	-0.216843
C	-0.0915091935	-2.8848451637	-0.4806933773	-0.300253
C	-1.3732352726	-2.0502851951	-0.5411557216	 0.421704
O	-2.6046082902	-2.7047570885	-0.5141018569	-0.48275
H	-0.5770592034	 1.6890597582	-0.5390274556	 0.276815
H	 0.7286820426	-0.3707605964	 0.8433772621	 0.076599
H	-2.218766434	-0.2616337441	 0.5735853234	 0.083699
H	-1.9232929941	-0.697186435	-2.3044175497	 0.092965
H	 0.7637420375	 0.0393812837	-2.0705523688	 0.071026
H	 1.0550301234	-2.4658873166	-2.2951286221	 0.102548
H	 1.9239146842	-2.0148509441	-0.8249862716	 0.099649
H	-0.278459016	-3.8613978204	-0.9363901085	 0.10751
H	 0.2377834978	-3.062243046	 0.5494466704	 0.095801
H	-2.7727424563	-2.9890269907	 0.3908338122	 0.283593
