14
gdb 76044	2.72998	1.22147	1.06617	4.0898	66.	-0.2786	-0.0668	0.2118	1125.3919	0.098262	-473.818034	-473.809289	-473.808345	-473.851639	31.445	
O	 0.0287128972	 1.3546472456	-0.0983188301	-0.405818
C	 0.0529994322	-0.0106103816	 0.0296707757	 0.082643
C	-0.3845654197	-0.699821072	 1.32133819	-0.347116
C	-0.807203071	 0.0782936131	 2.4457895336	 0.330817
N	-1.1387821426	 0.705265366	 3.3588350974	-0.322072
C	-1.2898002039	-0.7199836039	 0.0668577287	 0.284924
O	-2.3786523451	 0.1289573785	 0.0623202388	-0.460955
C	-1.5075509105	-1.9949679615	-0.6501426603	 0.09771
O	-2.5518111996	-2.2131277634	-1.2200205414	-0.27316
H	-0.900056157	 1.6329180114	-0.1071790089	 0.315176
H	 0.8839700403	-0.4724093214	-0.4952300948	 0.13187
H	 0.1152350115	-1.6324159108	 1.566312513	 0.145175
H	-3.054860599	-0.3233292139	-0.4697903221	 0.313261
H	-0.669219363	-2.7186690362	-0.6447184694	 0.107546
