20
gdb 22075	2.08289	1.43613	1.07203	0.8643	79.01	-0.2478	-0.0006	0.2472	1224.1538	0.167806	-440.238754	-440.228603	-440.227659	-440.273774	37.697	
C	-0.4764169867	 1.3767389835	 0.1856948654	-0.399929
C	-0.0423984376	-0.0734217126	-0.0406761879	-0.092219
C	 0.9041604227	-0.325554849	-1.2648007161	-0.268571
C	 2.0961704956	-0.6278360788	-0.3039679758	 0.311985
C	 2.8575851296	-1.9314001028	-0.4898677868	-0.447937
O	 2.9718031353	 0.4978823056	-0.3099156413	-0.466467
C	 1.0918892053	-0.5547451057	 0.8454300625	 0.375353
N	 1.2679853444	-0.8495974827	 2.0634503348	-0.256851
O	 0.0964979738	-0.6411290016	 2.8182276679	-0.391133
H	 0.3895479944	 2.0446633918	 0.1548459155	 0.129154
H	-1.1797806789	 1.6917388195	-0.5923118903	 0.114009
H	-0.9616617797	 1.4866437459	 1.1591150466	 0.133821
H	-0.9149940313	-0.7337555321	-0.0037402092	 0.092724
H	 0.6153334856	-1.1823007456	-1.8767850087	 0.102644
H	 1.0813440446	 0.5398719745	-1.9052732393	 0.114328
H	 3.4429509932	-1.8910020732	-1.4136636569	 0.123606
H	 3.5412408073	-2.0997672926	 0.3493808171	 0.120508
H	 2.1758922206	-2.7857414374	-0.5398053864	 0.117081
H	 3.497097835	 0.4553389446	 0.4975640689	 0.282004
H	 0.3717147269	-0.9110431014	 3.7010336899	 0.30589
