18
gdb 76039	2.33186	1.22212	1.13376	3.1966	78.51	-0.2705	-0.0493	0.2211	1192.0101	0.145093	-401.973632	-401.963787	-401.962843	-402.008468	34.688	
C	-0.172587678	 1.3910493852	-0.1234540047	-0.428454
C	 0.1015145765	-0.0826217449	 0.0606389017	-0.040756
C	 1.4782288663	-0.6791453254	-0.110050652	-0.227042
C	 2.6116121603	 0.1606565232	-0.3673055541	 0.303674
N	 3.5224775247	 0.8457090187	-0.5685716455	-0.343256
C	 0.8175607187	-0.6359759791	 1.2867961166	 0.185096
C	 1.3544725812	 0.2614784985	 2.3818203546	-0.490659
C	 0.3255087549	-1.9769900508	 1.7340532304	 0.101415
O	-0.0744157724	-2.8384906585	 0.9887140572	-0.263339
H	 0.6772230077	 2.0139762722	 0.1628280198	 0.143588
H	-0.3930607152	 1.5999605684	-1.1749955471	 0.139991
H	-1.0404604167	 1.6994149998	 0.4677775697	 0.130409
H	-0.6792580491	-0.7466183274	-0.2997668733	 0.125491
H	 1.5238429737	-1.6668935517	-0.5572742993	 0.152965
H	 1.8532195241	 1.1455813535	 1.9828767772	 0.153346
H	 0.5468985647	 0.5956375318	 3.0417248518	 0.131339
H	 2.0872917115	-0.2754833037	 2.993236839	 0.136718
H	 0.347408117	-2.1347602497	 2.834440718	 0.089473
