18
gdb 75584	2.53778	1.60447	1.0423	2.8549	78.18	-0.2454	-0.0293	0.2161	1141.9001	0.148753	-439.096453	-439.088177	-439.087233	-439.129622	31.046	
C	 0.0850081989	 1.2428669642	 0.6210747756	-0.454308
C	 0.1103994863	-0.1529256651	 0.0388022635	 0.218866
C	-1.0306939063	-0.8542074504	-0.0408873157	-0.156082
C	-1.3400967894	-2.2161460058	-0.5793016835	-0.147336
O	-0.2665466006	-2.9345498568	-1.1520597696	-0.223062
C	 0.8844623253	-2.9345032149	-0.3762860763	-0.000093
O	 1.7615192927	-1.8762216	-0.7113395086	-0.24266
C	 1.4579470698	-0.5719724953	-0.4346759734	 0.317612
N	 2.356251729	 0.3165643743	-0.5869670645	-0.504207
H	 0.7736598934	 1.3265746986	 1.4673029889	 0.134646
H	 0.4228918972	 1.9724292919	-0.1189663108	 0.153277
H	-0.921667455	 1.506057571	 0.9543606695	 0.106109
H	-1.9239861891	-0.3707297869	 0.3534827851	 0.099723
H	-1.8036463142	-2.8099102192	 0.2295460203	 0.11037
H	-2.0983914573	-2.1318710237	-1.3677262389	 0.135677
H	 0.6470205253	-2.9074991236	 0.6971453163	 0.102265
H	 1.4476689347	-3.8380105184	-0.6170195856	 0.1276
H	 3.2195035793	-0.12218666	-0.9126679422	 0.221602
