17
gdb 46932	2.94353	1.8627	1.43241	3.1073	73.09	-0.242	0.0127	0.2548	925.5029	0.139337	-417.977998	-417.971314	-417.97037	-418.00904	26.935	
N	-0.0780495616	 1.2703452468	 0.1894332534	-0.527552
C	 0.0132686049	 0.0229680913	-0.0100575444	 0.394054
O	 1.2145158689	-0.5874841593	-0.2217459805	-0.256032
C	 1.2137740601	-1.9015145142	-0.7985309065	-0.093154
C	 0.1041357083	-2.7609007824	-0.2454087639	 0.007303
C	-0.1402520421	-2.7003710824	 1.288088651	-0.277984
C	-1.428634907	-1.9662364726	 0.9448157934	-0.030371
C	-1.2158737491	-0.8202827978	 0.0199378925	-0.084382
N	-1.2691757912	-2.1899458728	-0.5432943917	-0.168324
H	 0.8477190773	 1.7012090785	 0.1413938882	 0.220315
H	 1.118340911	-1.8188350063	-1.8896836544	 0.122997
H	 2.1959287033	-2.3229230179	-0.5665885229	 0.123852
H	 0.1741945209	-3.7718362784	-0.6513320993	 0.096328
H	-0.3238975936	-3.6884789457	 1.7126371221	 0.119171
H	 0.5908116237	-2.1728440521	 1.9058900729	 0.122207
H	-2.3860032228	-2.1009370877	 1.43769148	 0.105747
H	-2.104457841	-0.243334977	-0.2086674599	 0.125825
