16
gdb 68720	2.4683	1.65333	1.32669	1.5256	75.43	-0.25	0.0238	0.2738	1010.0694	0.122345	-400.640452	-400.632389	-400.631445	-400.672788	31.168	
C	-0.0175969122	 1.5211218688	 0.0481416332	-0.481773
C	-0.0463011921	 0.02532854	 0.0373518948	 0.230015
N	 1.1524681817	-0.7345390856	-0.3082020984	-0.390361
C	 0.5686678397	-0.9617812072	 1.0309712478	 0.079749
C	 1.3399555826	-0.7211560385	 2.2032003907	 0.288972
C	 1.9664040034	-0.5363333171	 3.212849616	-0.436164
C	-0.6939548018	-1.8150891174	 0.9264789636	-0.074999
O	-1.830690995	-1.0164317076	 1.27829306	-0.227463
C	-1.2800556978	-0.8717630403	-0.0381327215	-0.052421
H	 0.9511396759	 1.8768936013	 0.4062722196	 0.145689
H	-0.1768789865	 1.9226335942	-0.9588912468	 0.126068
H	-0.8027544377	 1.9099806828	 0.7028849505	 0.13866
H	 0.9584443862	-1.5166695798	-0.9318140274	 0.231928
H	 2.5233444502	-0.3679594813	 4.101193308	 0.194119
H	-0.7922584192	-2.890939692	 1.0101082203	 0.115002
H	-1.9376230171	-1.0578703606	-0.8796148303	 0.112979
