17
gdb 55844	5.3902	0.72973	0.71405	4.3547	70.92	-0.2391	-0.0247	0.2144	1556.3617	0.135044	-455.190552	-455.181449	-455.180505	-455.225817	33.225	
N	 0.2892828841	 1.3467641357	-0.0475852689	-0.567946
C	 0.211440605	-0.040850048	-0.0768257008	 0.454491
O	 1.1936245751	-0.7544642953	-0.1463684309	-0.38579
N	-1.080302282	-0.5249182339	 0.0042595476	-0.349373
C	-1.3328860503	-1.9330862854	 0.1640046181	 0.057167
C	-1.8599083735	-2.4561591521	 1.5424572037	-0.365804
C	-2.9223333484	-3.2512521898	 0.7664515229	 0.40368
O	-3.6690821434	-4.1400623392	 1.0537348635	-0.285722
C	-2.593919353	-2.5170725522	-0.5446259855	-0.372305
H	 1.199842032	 1.6822505501	-0.3240076539	 0.263008
H	-0.4750472174	 1.8674752061	-0.4518932642	 0.247404
H	-1.7981614489	 0.1123885277	 0.3142787205	 0.235411
H	-0.4166938641	-2.4427865146	-0.1310320524	 0.137493
H	-1.1758372237	-3.0265825428	 2.1748604103	 0.141744
H	-2.3183821355	-1.6662005594	 2.1496519478	 0.124035
H	-3.3465096022	-1.7517583776	-0.7694886597	 0.123982
H	-2.4489515937	-3.1316250393	-1.4360932584	 0.138526
