17
gdb 97830	3.98061	0.70329	0.63748	4.0371	78.73	-0.2527	0.005	0.2577	1764.7273	0.134872	-421.82719	-421.81789	-421.816945	-421.863847	32.027	
C	-0.5585714772	 1.4419286175	-0.1036551315	-0.366528
C	 0.3406717505	 0.2207853692	 0.1624482585	-0.31633
C	 1.0138588192	-0.2654143082	-1.036950802	 0.095175
C	 1.5529337949	-0.6484047582	-2.0437678664	 0.064347
C	 2.2021088523	-1.1409243342	-3.2372314652	-0.369382
C	 3.5627684074	-1.8723439577	-3.1126164353	-0.08202
O	 2.9880493099	-3.0714246394	-3.7190396357	-0.233483
C	 1.7405852616	-2.5120464444	-3.8010132427	 0.459394
O	 0.7384276106	-3.0073718804	-4.1933386968	-0.31056
H	 0.0262505106	 2.2777389573	-0.4969703391	 0.128579
H	-1.335470319	 1.1997053331	-0.8334627163	 0.134379
H	-1.0429063619	 1.7648868122	 0.822372771	 0.118272
H	 1.0926311862	 0.4747324079	 0.9205576521	 0.132048
H	-0.2587251746	-0.5914174634	 0.5928955879	 0.137151
H	 2.2033014956	-0.3897568012	-4.0344307131	 0.141028
H	 4.3808105461	-1.4826712413	-3.72053405	 0.130056
H	 3.8876893479	-2.0708311389	-2.0907854453	 0.137874
