17
gdb 70375	2.41168	1.60668	1.35681	3.7005	72.3	-0.2431	0.0067	0.2498	1020.1162	0.13491	-417.971998	-417.963378	-417.962434	-418.004714	32.992	
C	-0.0723074403	 1.5737907335	 0.0044520051	-0.450046
C	 0.0562323296	 0.0593111375	 0.04724771	 0.192196
O	 1.1010133105	-0.4650003346	-0.8185411491	-0.317691
C	 1.6653407056	-1.2296539797	 0.2594983101	 0.074723
C	 2.175188915	-0.3089908848	 1.3213003501	-0.346398
C	 0.7005902282	-0.6608320599	 1.2745415169	 0.222408
N	 0.0530831643	-1.27672891	 2.3665590188	-0.594962
C	-1.2260056855	-0.588638392	-0.2815589188	 0.27567
N	-2.2372315623	-1.1123248101	-0.4804901119	-0.343337
H	 0.8704444024	 2.0402201609	 0.2963014306	 0.133225
H	-0.3278349989	 1.9050149887	-1.0058538695	 0.149967
H	-0.8620289735	 1.9058975696	 0.6850758028	 0.137378
H	 2.0079302519	-2.2337489622	 0.0461944483	 0.122191
H	 2.6844999488	-0.7939068427	 2.1475997449	 0.134467
H	 2.5473066983	 0.6738663784	 1.0508264204	 0.11992
H	-0.1993976815	-0.6098454968	 3.0885084684	 0.238683
H	-0.7840691026	-1.7749394358	 2.0798980028	 0.251606
