19
gdb 109159	3.15082	1.19309	0.91369	0.4044	79.82	-0.2253	-0.0496	0.1757	1310.7766	0.15939	-419.25291	-419.243336	-419.242392	-419.287937	33.903	
C	-0.1098836122	 1.4480829454	 0.0631043651	-0.318148
N	-0.0474665424	 0.0109086962	-0.0938398235	-0.352547
C	 0.6221156147	-0.5826389569	-1.1052950818	 0.299957
N	 1.1605512012	-0.0070308036	-2.1222989026	-0.310993
C	 1.7751976041	-1.0305045589	-2.982326146	-0.182978
C	 1.4555504274	-2.4289378629	-2.4002118465	-0.112468
C	 2.6380548497	-3.3854469278	-2.2271469283	-0.401494
C	 0.7826311899	-2.0775106785	-1.0806369426	 0.34039
O	 0.4520030283	-2.8060891213	-0.1752633555	-0.340572
H	 0.8598923899	 1.8804488804	 0.3444902531	 0.128334
H	-0.4160228641	 1.9067015384	-0.8810080355	 0.152099
H	-0.8443786231	 1.6950702814	 0.8324452264	 0.125701
H	-0.267149824	-0.5926258953	 0.6832832806	 0.258092
H	 1.4076351765	-0.9110222028	-4.0078387912	 0.109294
H	 2.859006785	-0.8588095556	-3.0213264435	 0.11087
H	 0.6873685045	-2.9200258224	-3.0128508442	 0.11343
H	 3.4422765443	-2.9123673294	-1.6538905066	 0.123329
H	 2.323732152	-4.2844320917	-1.689495509	 0.137533
H	 3.0462145483	-3.6842283745	-3.1969066184	 0.120172
