16
gdb 125929	4.7006	1.1735	0.97928	3.7855	71.57	-0.2261	0.0153	0.2414	1176.8505	0.126049	-434.063642	-434.056	-434.055056	-434.095988	28.752	
C	-0.5552205667	 1.5547420958	-0.2448578606	-0.403396
C	 0.1062930535	 0.2195803547	 0.027963955	 0.06217
C	 0.8723981306	-0.5219775865	-1.1532321843	-0.384035
C	 2.0737030281	-0.4490459749	-0.2282559683	 0.347535
N	 3.2304148528	-0.9038222154	 0.220190228	-0.453485
C	 3.2011376755	-0.385944918	 1.4986208464	 0.411962
O	 4.2285939122	-0.5529684771	 2.3391554792	-0.39852
N	 2.1207254665	 0.301270052	 1.8714908185	-0.353125
N	 1.4407141692	 0.2766395264	 0.6854970695	 0.059022
H	 0.1238651893	 2.224245423	-0.7806780605	 0.132535
H	-1.4555250935	 1.4103817943	-0.8506787488	 0.129212
H	-0.8494604589	 2.0380327513	 0.6912908843	 0.145301
H	-0.5645156556	-0.4627849379	 0.558995892	 0.116125
H	 0.5076427937	-1.5298939696	-1.3609202218	 0.141593
H	 0.9394701356	 0.0447466307	-2.0845604972	 0.134888
H	 4.8850833477	-1.0777150687	 1.8650009386	 0.31222
