12
gdb 21822	5.99368	1.51607	1.21001	5.9285	60.77	-0.24	-0.0293	0.2107	904.9003	0.084718	-414.668956	-414.662293	-414.661348	-414.700814	23.473	
O	-0.2793583682	-0.0173315725	 0.0026300735	-0.264863
C	-0.0839831996	 1.1677122131	 0.0085499778	 0.151125
N	 1.1523311204	 1.7943890394	 0.0015701624	-0.413007
C	 2.4102166368	 1.2213830589	-0.0128097409	 0.564254
C	 3.6426385092	 1.8141535494	-0.0186008883	-0.383144
C	 4.5172554943	 0.7004718231	-0.0338786488	 0.050799
N	 3.8842841386	-0.4459559887	-0.0372055098	-0.138105
O	 2.5182678881	-0.1073487083	-0.0235091815	-0.183611
H	-0.8892393804	 1.9279256625	 0.0198792443	 0.091035
H	 1.1432233864	 2.803062865	 0.0081046633	 0.269499
H	 3.8801724167	 2.8640644931	-0.0127934992	 0.118138
H	 5.5982991476	 0.6961040449	-0.0427365429	 0.137878
