13
gdb 129529	5.0127	1.01606	0.99973	4.2393	60.81	-0.2572	-0.0095	0.2477	1168.4976	0.089182	-489.909883	-489.901988	-489.901044	-489.944256	27.729	
N	-0.1406176342	 1.2946558114	 0.0544790508	-0.559798
C	-0.1150515633	-0.0055635087	-0.3208828002	 0.482529
O	 0.5080591498	-0.5029870564	-1.2139807593	-0.352577
O	-0.9994884302	-0.7128624539	 0.5037248663	-0.299737
C	-1.0608571051	-2.0470909768	 0.3240360323	 0.55751
C	-1.9619296405	-2.8380258946	-0.3108069466	-0.379038
C	-1.4761815795	-4.1402343268	-0.0247871453	 0.052933
N	-0.3917037494	-4.1256548833	 0.7130127928	-0.135422
O	-0.1237196459	-2.7739476945	 0.9416230715	-0.196596
H	 0.5378562236	 1.9074184917	-0.3623872389	 0.28241
H	-0.5780483064	 1.561477026	 0.9190963733	 0.278739
H	-2.8174020013	-2.536271928	-0.8888364905	 0.131379
H	-1.8816017677	-5.0939132561	-0.3328533062	 0.13767
