17
gdb 47114	2.6135	1.82941	1.29901	3.1626	66.76	-0.2633	0.0053	0.2687	974.6309	0.138746	-459.016596	-459.009444	-459.0085	-459.048816	27.099	
O	-0.2281412111	 0.3154946694	 0.84150871	-0.346421
C	-0.1151077476	 1.3671972679	 0.2812763828	 0.442053
O	-1.1854311122	 2.1124090611	-0.0959265939	-0.218977
C	-0.7819339347	 3.3101531064	-0.7794142362	-0.107066
C	 0.7251424203	 3.4871332485	-0.5281435638	 0.090085
O	 0.9993673145	 4.3725659962	 0.5532433982	-0.26946
C	 1.429203177	 3.6323146468	 1.698246626	-0.087795
C	 2.0616172117	 2.351047933	 1.1471856662	-0.23211
C	 1.1844642787	 2.0890842674	-0.087022048	-0.208127
H	-1.00794821	 3.1943787881	-1.8451524644	 0.116298
H	-1.3532351236	 4.1481274597	-0.3751731132	 0.137284
H	 1.2287215195	 3.8765866234	-1.4177919365	 0.092976
H	 2.1255966138	 4.260090339	 2.2601532571	 0.115693
H	 0.5736589599	 3.3993494055	 2.3497996231	 0.110999
H	 3.0967543094	 2.5285011745	 0.8431088181	 0.113016
H	 2.0363199687	 1.515502343	 1.8494785177	 0.136331
H	 1.6957979056	 1.5178403002	-0.8644274232	 0.115222
