13
gdb 131559	3.16048	1.65476	1.18063	3.4545	60.36	-0.2459	-0.0591	0.1868	960.389	0.089632	-489.825699	-489.818739	-489.817794	-489.857373	25.988	
O	-0.0209389229	 1.4877557308	-0.0462781677	-0.410972
C	 0.0874554702	 0.0823962826	 0.0443303399	-0.039687
C	-1.2929988338	-0.6897264841	-0.0307842467	-0.125466
O	-1.4147381079	-1.3618565426	-1.3283380699	-0.270702
C	-0.1646616308	-1.3008093798	-1.8208988393	 0.360664
C	 0.7418654796	-0.580574995	-1.1278600892	 0.245059
O	 1.9002158598	-0.6142110286	-1.7706277143	-0.226261
N	 1.639240833	-1.4430917421	-2.952298609	-0.021448
N	 0.4277128896	-1.812597246	-2.929895111	-0.216075
H	-0.2969797003	 1.7176668694	-0.9415238271	 0.29222
H	 0.5716857891	-0.1038728276	 1.0057781923	 0.129776
H	-1.3470704306	-1.4629282392	 0.7403449954	 0.139522
H	-2.129988055	 0.0022980522	 0.0747380266	 0.143368
