20
gdb 22961	2.45817	1.03333	0.76988	0.6173	80.7	-0.2435	-0.0002	0.2433	1514.4436	0.168506	-440.225466	-440.215518	-440.214574	-440.261349	35.563	
C	 0.0098437915	 1.5017254169	 0.1460435737	-0.385652
C	-0.2086966149	 0.0067825371	 0.3004084227	-0.046852
O	 0.8957117266	-0.5316416346	 1.0178730671	-0.250345
C	 0.8384518822	-1.9160139121	 1.1932778136	 0.063555
C	 2.0446728949	-2.4996501769	 1.9825874573	-0.259381
C	 1.0654819839	-3.2875884073	 2.909039838	-0.324323
C	-0.0653981418	-2.4961666374	 2.2836652315	 0.388758
N	-1.2773912709	-2.2523025717	 2.554503268	-0.233995
O	-1.6927512167	-2.9508510791	 3.7039457132	-0.391548
H	 0.9403747854	 1.7023337998	-0.3928032751	 0.123502
H	-0.8184461468	 1.9509694205	-0.410089895	 0.114305
H	 0.0707471312	 1.9833621942	 1.1260958309	 0.127279
H	-1.1424157243	-0.2021908352	 0.839570248	 0.118177
H	-0.2810939149	-0.480209161	-0.686873797	 0.082967
H	 0.675981269	-2.4262241318	 0.2284709943	 0.076621
H	 2.7636375502	-3.0835509376	 1.4067854277	 0.106233
H	 2.5651218562	-1.6988276458	 2.510772564	 0.125868
H	 1.0071169503	-4.3596984684	 2.6971033312	 0.126424
H	 1.1875615233	-3.1602825441	 3.9871916723	 0.132361
H	-2.6065157142	-2.6608702255	 3.7987326938	 0.306046
