21
gdb 111216	3.02989	1.09427	0.93704	1.7338	80.23	-0.2417	0.0936	0.3354	1350.1643	0.181715	-424.151282	-424.142159	-424.141215	-424.185572	33.71	
C	-0.1152261966	 1.3321920499	-0.305999324	-0.243997
O	-0.0770443364	 0.0558928511	 0.2923142543	-0.258044
C	-1.3034515217	-0.6156327217	 0.2339605156	 0.191867
C	-1.6633757355	-1.4592558357	-1.0403908939	-0.156908
C	-0.5294952552	-2.4361572531	-0.6121465584	-0.235414
C	-1.2762526435	-2.089180742	 0.7135146739	-0.149838
C	-2.5817725327	-2.2949995311	-0.0875474981	 0.175273
O	-3.7413837905	-1.7323994975	 0.4565880632	-0.254621
C	-4.8488497544	-1.7948325764	-0.4151843217	-0.243059
H	 0.8624669131	 1.7944528388	-0.1501552337	 0.125965
H	-0.3123830246	 1.2756970442	-1.3871208222	 0.105849
H	-0.8871495878	 1.9706656573	 0.1511242701	 0.105947
H	-2.109927282	 0.0089268285	 0.631581503	 0.080814
H	-1.8895902151	-1.1059435396	-2.0471835664	 0.066763
H	-0.6116590144	-3.4682242067	-0.964293655	 0.087039
H	 0.4848763742	-2.0535927421	-0.6949321833	 0.118689
H	-1.05903088	-2.4502277754	 1.7188242653	 0.076125
H	-2.7690141787	-3.3248207062	-0.4241671272	 0.065976
H	-5.0764360916	-2.8323922703	-0.7055792374	 0.106239
H	-5.70762246	-1.38219251	 0.1193955384	 0.127715
H	-4.6855182066	-1.2094371222	-1.3321561025	 0.107621
