21
gdb 117562	2.23805	1.02968	0.74692	3.2105	84.27	-0.2447	0.0329	0.2777	1573.2686	0.182122	-383.263038	-383.252894	-383.251949	-383.299071	36.266	
C	 0.0754427596	 1.469754748	 0.0619104042	-0.391025
C	-0.1497252712	-0.0303086684	-0.0969642286	-0.120581
N	 0.8286490884	-0.6000541358	-1.026648678	-0.276872
C	 0.7007930585	-2.0336503199	-1.2579916118	-0.13373
C	-0.6274891285	-2.4143439052	-1.8117085883	 0.271437
N	-1.6688379806	-2.6528875835	-2.2547605819	-0.336709
C	 1.8019686285	-2.5489695027	-2.1675256242	 0.023134
C	 3.1617782728	-2.8315738434	-1.5920616517	-0.272014
C	 2.2808964859	-3.9716331333	-2.0382596026	-0.264854
H	 1.0947634531	 1.6760943649	 0.400229855	 0.127966
H	-0.0795202291	 1.9939413477	-0.8881870818	 0.117038
H	-0.6269010062	 1.889145427	 0.7877998315	 0.121916
H	-0.0135007813	-0.5309933851	 0.8705190066	 0.105006
H	-1.190688618	-0.2223417223	-0.4068640517	 0.108378
H	 0.7799158746	-0.1109508652	-1.9163393332	 0.221222
H	 0.7915413479	-2.5322275044	-0.2837127449	 0.119914
H	 1.7650386047	-2.1386175993	-3.1729606979	 0.097056
H	 4.0298379777	-2.5816368941	-2.1911573582	 0.119393
H	 3.2988409222	-2.6757988473	-0.5274341951	 0.120954
H	 1.8246777354	-4.5927712028	-1.2744391484	 0.120339
H	 2.5388285955	-4.5061482748	-2.9450695992	 0.122033
