19
gdb 106875	2.29764	1.4172	1.04614	2.7934	77.81	-0.2436	-0.0344	0.2092	1206.4379	0.157249	-423.000242	-422.991191	-422.990247	-423.034381	33.189	
C	-0.37556222	 1.3629957287	-0.0097137753	-0.375381
C	 0.0847461849	-0.1022928648	 0.0020691431	-0.293624
C	 0.8322862886	-0.4883577705	-1.2424850229	 0.230456
C	 0.1712361805	-0.8856914927	-2.5302334196	-0.370647
C	 1.0783430179	-1.8833393367	-1.8557918411	 0.297457
O	 2.4473044811	-1.6016642616	-2.1368690848	-0.323828
C	 2.3303698599	-0.2998468889	-1.500367017	-0.135554
C	 0.6705049893	-3.1950165453	-1.3412898967	 0.07097
O	-0.4718197842	-3.4765704704	-1.053324898	-0.27879
H	 0.4749272076	 2.048766051	-0.0875229122	 0.117581
H	-1.0397391051	 1.5584536281	-0.8573901418	 0.124537
H	-0.9172120459	 1.6071067019	 0.9087728265	 0.11979
H	 0.7197774512	-0.2833305224	 0.8783920509	 0.103611
H	-0.7814657049	-0.7655600209	 0.1068898515	 0.129833
H	-0.8853978015	-1.1193082955	-2.449402096	 0.14508
H	 0.5015671393	-0.4810523225	-3.4830008555	 0.122712
H	 2.6325910144	 0.5148609257	-2.1682114587	 0.11229
H	 2.9253606688	-0.2684886842	-0.5803593906	 0.114119
H	 1.5111882283	-3.9096363289	-1.2073912417	 0.089388
