16
gdb 16348	3.23567	1.82931	1.44517	2.5585	60.22	-0.2509	0.0572	0.3081	891.8414	0.129496	-420.827076	-420.81927	-420.818326	-420.859602	28.917	
O	-0.0240184906	 1.4495135642	 0.3171792522	-0.407401
C	 0.0170557721	 0.0611989731	 0.035349562	-0.18897
C	-1.3429860621	-0.5067535592	-0.220610361	 0.349412
O	-2.2192168307	-0.6270995208	 0.926731272	-0.31152
C	-1.9600033711	-1.7988996654	 0.1312398801	-0.037449
C	-2.9200349473	-1.7510241656	-1.0562818736	-0.291231
C	-2.3118820068	-0.3370693869	-1.4152245782	 0.091493
O	-3.1589878812	 0.7733616988	-1.3841032573	-0.428753
H	-0.5968667205	 1.5652837723	 1.083246277	 0.292568
H	 0.6404561032	-0.0492483291	-0.8582430892	 0.117208
H	 0.4909214256	-0.5080939756	 0.8501114823	 0.097735
H	-1.5350304274	-2.6523054476	 0.6470246917	 0.109638
H	-2.7138457524	-2.5059415024	-1.8189459604	 0.111445
H	-3.9830040339	-1.7591666706	-0.8040070571	 0.111564
H	-1.8057914222	-0.3339451125	-2.3835878329	 0.098278
H	-3.4978809846	 0.8250759172	-0.4812267677	 0.285982
