17
gdb 30426	3.24148	1.17209	0.8733	2.7647	75.55	-0.1839	0.0406	0.2246	1306.7128	0.134257	-455.163723	-455.15419	-455.153246	-455.198184	33.977	
C	-0.0653891683	 1.4202814817	 0.0573115281	-0.321127
N	-0.0106624905	-0.0311446756	 0.0796691141	-0.375904
C	-1.097186229	-0.6698156087	 0.0960954411	 0.497786
N	-1.2351986155	-2.057146155	 0.1030534085	-0.434679
C	-2.6035261615	-2.3473751341	-0.0380734032	 0.240687
O	-3.0469749296	-3.6169483454	-0.1909799497	-0.427939
C	-3.2897949469	-1.2019064656	 0.0064307221	 0.243085
C	-4.7326001371	-0.8774949146	-0.0028142414	-0.498828
O	-2.374227549	-0.1455669236	 0.1045807041	-0.259555
H	 0.8652444751	 1.8049769683	-0.3700293596	 0.115096
H	-0.9063043636	 1.8170568118	-0.5274751764	 0.112635
H	-0.1509625087	 1.8304318027	 1.0733353408	 0.115169
H	-0.514691822	-2.6172234264	-0.3251841152	 0.267268
H	-2.7526228451	-4.1488547124	 0.5598932163	 0.306171
H	-5.0301804288	-0.3378300981	 0.9040788763	 0.13703
H	-4.9987886819	-0.2487642258	-0.860704397	 0.139353
H	-5.3095315876	-1.8032206992	-0.0625384588	 0.143751
