23
gdb 122151	2.19754	0.69184	0.55393	1.4209	78.99	-0.2547	0.0717	0.3264	1996.0297	0.203342	-462.544814	-462.533101	-462.532157	-462.582814	40.822	
O	 1.1713042199	-1.9033167755	-2.7940618857	-0.422666
C	 0.656409622	-1.6795354116	-1.4893053026	-0.073561
C	-0.7579182164	-2.2424462061	-1.437533545	-0.177551
C	-1.4119866299	-2.0597215178	-0.0637178898	-0.203515
C	-2.8650611243	-2.5544545746	 0.0346277566	 0.005174
C	-2.9620265446	-4.0803382164	 0.0434663591	-0.090166
O	-4.3355421428	-4.4420362656	-0.0375324649	-0.424395
C	-3.5607435589	-1.9709571001	 1.2754532761	-0.07948
O	-3.6168612522	-0.5499566066	 1.2652535277	-0.421352
H	 2.0602083107	-1.538891123	-2.8325741808	 0.284413
H	 1.2807796443	-2.1722528279	-0.7253655886	 0.081894
H	 0.6368428365	-0.6044177644	-1.2464112912	 0.085626
H	-1.3574060711	-1.7423166504	-2.2083483779	 0.104287
H	-0.7102982785	-3.3005970772	-1.7196398851	 0.104775
H	-0.8082438844	-2.5643722187	 0.7051407053	 0.087028
H	-1.4131369407	-0.9960699925	 0.1995511193	 0.114366
H	-3.4188595135	-2.2052949777	-0.8503194819	 0.07069
H	-2.3980569814	-4.4988845284	-0.8024467561	 0.091623
H	-2.5025376389	-4.4697677586	 0.9681068618	 0.084318
H	-4.3972025026	-5.4010167507	-0.011504561	 0.287568
H	-4.5600445576	-2.4114148625	 1.3754866109	 0.10924
H	-2.9901205432	-2.2350522675	 2.1746193014	 0.100632
H	-4.2193305323	-0.2888045962	 0.5614962626	 0.281049
