21
gdb 60023	4.19033	0.66582	0.60409	5.3132	76.92	-0.2357	-0.0106	0.2252	1835.0728	0.179041	-461.375483	-461.364694	-461.36375	-461.412451	38.415	
C	-0.0380366484	 1.5851179306	 0.0493414766	-0.400905
C	-0.021750815	 0.0584951264	 0.043244831	 0.106976
O	 0.5294074894	-0.4342811858	-1.1905946817	-0.433611
C	 0.821562346	-0.5298202001	 1.175845318	-0.198925
C	 0.8065959781	-2.0657823225	 1.2241484344	 0.117421
O	 1.491645125	-2.640926141	 0.1254662486	-0.448519
C	 1.4829197813	-2.5995832144	 2.4961057522	-0.279403
C	 1.4340746984	-4.1103650902	 2.5829015569	 0.150831
O	 1.0259061216	-4.7193310898	 3.5405936815	-0.249622
H	 0.9783870669	 1.9788170131	-0.0465679573	 0.130975
H	-0.6345574126	 1.9720322789	-0.784633832	 0.108693
H	-0.4762389509	 1.9678268463	 0.9764750713	 0.122783
H	-1.0533360743	-0.3144899237	 0.1501801615	 0.077098
H	-0.050945691	-0.1740219491	-1.9126293696	 0.290668
H	 1.8590963568	-0.1885212132	 1.0697232729	 0.111341
H	 0.4377378294	-0.1341393877	 2.1231945901	 0.102261
H	-0.2495530097	-2.3943149157	 1.2322391574	 0.065874
H	 1.2267279187	-2.1381653094	-0.658090734	 0.293677
H	 2.5393497096	-2.2982332996	 2.4634672216	 0.122021
H	 1.0230942932	-2.1850611028	 3.3973410444	 0.11015
H	 1.8084053975	-4.6351126104	 1.6799254765	 0.100216
