19
gdb 7367	3.81926	1.05292	0.90154	3.9367	68.64	-0.2584	0.0197	0.2781	1317.8265	0.163848	-402.243536	-402.233777	-402.232832	-402.278541	34.675	
C	-0.0770241307	 1.5958126886	-0.0024052451	-0.384398
C	-0.027604992	 0.0661222686	-0.0113748028	-0.161958
C	 0.7365026975	-0.4985567829	-1.2127021595	-0.174278
C	 0.7244057857	-2.0391124738	-1.2421331142	 0.028421
O	-0.5880971633	-2.5345401381	-1.2798862573	-0.435229
C	 1.4751006517	-2.5810935148	-2.4695595574	 0.382554
N	 2.81468365	-2.3806232597	-2.507285063	-0.517731
O	 0.8602879829	-3.1487860077	-3.3585754828	-0.377824
H	 0.9293124832	 2.0292144573	 0.0297329571	 0.107967
H	-0.5725376009	 1.9807776179	-0.9006143975	 0.116543
H	-0.6274681149	 1.9699415473	 0.8663892147	 0.113745
H	 0.4403249559	-0.2941236384	 0.9149804481	 0.088654
H	-1.0417658186	-0.3450888254	-0.0236822035	 0.125733
H	 0.28575822	-0.1360751115	-2.1456556	 0.105842
H	 1.7735976804	-0.1360444537	-1.2003853108	 0.077126
H	 1.2266791453	-2.413748911	-0.3342195784	 0.078285
H	-0.663214035	-2.9557731445	-2.1540380192	 0.292162
H	 3.3140444668	-1.9704238812	-1.7380402523	 0.266209
H	 3.3369606661	-2.740885807	-3.2890556462	 0.268176
