17
gdb 89950	3.45604	1.30915	1.12514	1.1853	74.65	-0.2557	0.0155	0.2712	1094.3629	0.134605	-421.748697	-421.740432	-421.739488	-421.781983	31.78	
O	 0.2865596635	 1.2528188472	-0.4138217088	-0.430429
C	 0.0363680512	-0.0741821066	-0.0268373388	 0.129528
C	 0.1599687085	-0.4081268715	 1.4929249127	-0.319859
C	-1.3569087542	-0.6844787822	 1.5431034125	 0.251117
O	-2.1012931579	 0.5671318136	 1.6755235798	-0.333124
C	-2.4573022499	 0.5588667263	 0.2666692353	-0.106377
C	-1.4609857983	-0.5568235727	-0.0180359432	-0.155794
C	-1.8798693174	-1.7621629625	 2.343292377	 0.243797
C	-2.2999134572	-2.6743391085	 3.0049989029	-0.403692
H	-0.0905414785	 1.8333655838	 0.25677626	 0.291872
H	 0.6694584049	-0.6951532201	-0.6637366296	 0.098649
H	 0.7619636943	-1.2989488354	 1.6886559102	 0.118149
H	 0.493529103	 0.4052340935	 2.1426919561	 0.114524
H	-3.5058959134	 0.2702932773	 0.1245907181	 0.11131
H	-2.2768815043	 1.5252092247	-0.2158071466	 0.107258
H	-1.7338437692	-1.3723254872	-0.6848343458	 0.088213
H	-2.6759758251	-3.4744327697	 3.5936717082	 0.194858
