17
gdb 127866	3.84945	1.12035	0.87729	0.9798	85.37	-0.2252	-0.054	0.1712	1311.188	0.134723	-417.988288	-417.979473	-417.978529	-418.022449	31.605	
C	 0.1062153661	 1.4419250959	-0.1075450733	-0.329878
N	 0.1709497285	-0.0105233158	-0.1050101886	-0.30292
C	 0.5548584332	-0.6240534971	 0.9559440315	 0.291612
C	 0.9566839565	-0.0051380178	 2.231137377	-0.032927
N	 1.3418577737	-0.6096963372	 3.2972935542	-0.067557
O	 1.3924928624	-1.9976447494	 3.2669327301	-0.282095
C	 1.0429872507	-2.6808762003	 2.1384196365	 0.413124
C	 1.1794653794	-4.1529180608	 2.3519211875	-0.466854
C	 0.6376966859	-2.0668247188	 1.0136076428	-0.285121
H	 1.0840524483	 1.9122705331	 0.0740806656	 0.117501
H	-0.2394468458	 1.777192063	-1.0886073476	 0.126006
H	-0.5959286856	 1.8385233565	 0.6408360276	 0.117468
H	 0.9471679953	 1.0744139651	 2.3434209042	 0.137767
H	 2.2108405083	-4.408680865	 2.6163248691	 0.151581
H	 0.540311024	-4.4820653883	 3.1778839185	 0.151582
H	 0.8992738503	-4.6951799641	 1.4475822946	 0.142198
H	 0.3685621488	-2.6435539091	 0.1380477004	 0.118513
