21
gdb 98976	2.87154	0.8513	0.80474	1.4156	80.51	-0.2471	-0.0389	0.2082	1588.4699	0.178572	-424.279559	-424.268552	-424.267607	-424.317462	37.879	
C	-0.8393840266	 1.6342586871	 0.0179471113	-0.379136
C	-0.7233607628	 0.1684905362	 0.4247272796	-0.282537
C	-1.3191762523	-0.7962509387	-0.581836485	 0.376415
O	-1.7594700963	-0.4531043698	-1.6545522592	-0.301384
C	-1.3983993575	-2.2626602681	-0.1320443437	-0.382735
C	-2.7709801548	-2.4587713202	 0.5286501722	 0.376424
O	-2.935675428	-2.2078771728	 1.7000814957	-0.301384
C	-3.8849622351	-2.9144371837	-0.3934685385	-0.282539
C	-5.2647986113	-2.9110305158	 0.2572608913	-0.379138
H	-0.3740270522	 2.2806918504	 0.7669225325	 0.113611
H	-0.3535779122	 1.8115691997	-0.9448051566	 0.132675
H	-1.8869904609	 1.9285396658	-0.0874069247	 0.131022
H	 0.3265808808	-0.1239632193	 0.5714151458	 0.125256
H	-1.2080211369	-0.0346834313	 1.3898041159	 0.147836
H	-1.2928005235	-2.8978170405	-1.0137308278	 0.127609
H	-0.6269538246	-2.4889194891	 0.6066179849	 0.127605
H	-3.8447081182	-2.2746354639	-1.2859823411	 0.147841
H	-3.6159279112	-3.9174589431	-0.7553968502	 0.125255
H	-6.0231682533	-3.2694815423	-0.4440139528	 0.113611
H	-5.2799523155	-3.5508667194	 1.1431052221	 0.132672
H	-5.5423476974	-1.9037305411	 0.5789645284	 0.131022
