15
gdb 11481	5.50395	1.12801	0.99153	3.0775	69.48	-0.2517	-0.042	0.2098	1141.7078	0.119298	-358.839263	-358.831216	-358.830272	-358.872404	28.684	
N	-0.1971184301	 1.1554907602	-0.7053845015	-0.511281
C	-0.1072837886	 0.0161473423	-0.130007134	 0.292946
N	-1.1939429514	-0.665738574	 0.3477742136	-0.320446
C	-2.4940435576	-0.0639684013	 0.367270656	 0.061337
C	-3.3507583844	-0.1484488842	-0.8675453445	-0.237427
C	-3.6828175419	-0.9836170927	 0.3442340843	-0.299203
C	 1.1541186074	-0.6874411464	 0.0611414587	 0.222327
N	 2.1758106165	-1.2104924632	 0.2022126128	-0.320217
H	 0.713697589	 1.4753690811	-1.0251009489	 0.24018
H	-1.0127421599	-1.4197830163	 0.9914266335	 0.262886
H	-2.5634291972	 0.8513995918	 0.950112338	 0.111277
H	-3.974986251	 0.7052485272	-1.1026384354	 0.125673
H	-2.9271868049	-0.6556313561	-1.7256867377	 0.127629
H	-3.490538425	-2.0495706044	 0.2845749023	 0.119592
H	-4.5402609008	-0.7148561139	 0.9500870427	 0.124728
