16
gdb 21946	6.75459	1.01237	0.9416	2.2791	66.32	-0.2358	0.0238	0.2596	1197.2513	0.132446	-379.93514	-379.92734	-379.926396	-379.968347	27.722	
O	-0.0705326302	 1.478276937	 0.0505813181	-0.418203
C	 0.0320748539	 0.0634430181	 0.0638041467	-0.05896
C	-1.3833481332	-0.5065589696	-0.0553805743	-0.311388
C	-1.4058904426	-2.0053515947	-0.0419383942	 0.199541
C	-1.493565047	-2.8670716435	-1.1188510749	-0.129074
N	-1.4473389327	-4.1256266461	-0.6174835653	-0.175647
N	-1.3368335084	-4.1574564619	 0.7231106234	-0.225001
C	-1.3095654634	-2.8748866885	 1.0726808568	-0.079284
H	 0.8138334957	 1.8455268484	 0.1365884609	 0.286183
H	 0.6466133299	-0.3060544267	-0.772528603	 0.086077
H	 0.4973635324	-0.299320826	 0.9939959441	 0.089881
H	-1.9812664263	-0.1051903065	 0.7706091882	 0.115433
H	-1.8302428431	-0.1236036673	-0.9789290356	 0.108922
H	-1.5899870756	-2.6792028639	-2.1770414504	 0.131061
H	-1.5007863362	-4.9934768807	-1.1226196544	 0.273648
H	-1.2286065032	-2.6083809882	 2.1172267239	 0.106812
