24
gdb 13622	3.37448	1.1529	1.01125	0.0908	85.62	-0.2616	0.0855	0.3471	1316.2663	0.222167	-314.271555	-314.261501	-314.260557	-314.306236	37.301	
C	 0.6727549762	 1.784357407	-3.593449158	-0.392763
C	 1.0562383098	 0.5596640367	-2.7568057904	-0.158717
C	 0.2621642445	-0.7223798733	-3.0795386485	 0.022808
C	 0.5135488629	-1.2219762967	-4.5112197338	-0.395697
C	 0.5971854541	-1.8098723041	-2.0712377998	 0.025041
C	-0.029439314	-1.8359416849	-0.6969932511	-0.311301
C	-0.3478450851	-2.9295656359	-1.6902120965	-0.005902
C	-1.7419791031	-3.0788686501	-2.2614825634	-0.407658
H	 0.8887048551	 1.6418471336	-4.6568447984	 0.116689
H	-0.396268296	 2.0082056613	-3.4996555526	 0.110691
H	 1.2253850286	 2.6702528765	-3.2645415255	 0.110207
H	 2.1287491527	 0.353023226	-2.8788608838	 0.088249
H	 0.9129456775	 0.7926741517	-1.6947221061	 0.095777
H	-0.8047609453	-0.4767838393	-2.9865332609	 0.063341
H	-0.0572074337	-2.1330827202	-4.7140317385	 0.115289
H	 0.2304818499	-0.4776071324	-5.2611868392	 0.110624
H	 1.5750237744	-1.4562076953	-4.6587229461	 0.108763
H	 1.646639547	-2.1003281929	-2.1044807927	 0.07252
H	 0.58795012	-2.0631363694	 0.1655536624	 0.104364
H	-0.8136037392	-1.1102020341	-0.4978718115	 0.103521
H	 0.140080515	-3.8824288604	-1.498097663	 0.078154
H	-2.3778104837	-3.6546479129	-1.5794596273	 0.114346
H	-2.2281614473	-2.1116027734	-2.4176461666	 0.116677
H	-1.7306607903	-3.6041267775	-3.2233712487	 0.114979
