19
gdb 97458	5.22718	0.51999	0.49418	21.9326	132.47	-0.133	-0.0911	0.042	2138.3967	0.157507	-456.305265	-456.29485	-456.293906	-456.342873	36.19	
N	-0.33822366	 1.3271274853	 0.2567764102	-0.481112
C	-0.1778863023	 0.0048809736	 0.1745490963	 0.195487
N	-0.8891895527	-0.7963132919	-0.5652892598	-0.201673
H	-1.6703013677	-0.4128353666	-1.0884904599	 0.288813
C	-0.9133928073	-2.278381325	-0.4539172229	-0.199853
C	-2.232766848	-2.7155731675	 0.1738303173	-0.155995
C	-2.4814646469	-4.2181861511	 0.1449450612	-0.340899
C	-4.0607266191	-4.5020861559	 0.1445495215	 0.361044
O	-4.7521571862	-3.5696307004	-0.3143005626	-0.473193
O	-4.3563221344	-5.6236959434	 0.5755647706	-0.453171
H	 0.2413514329	 1.8672482663	 0.8763169974	 0.308375
H	-1.0851062133	 1.8099190614	-0.2178988611	 0.301055
H	 0.6175378792	-0.4337335795	 0.7676545858	 0.190569
H	-0.8059027432	-2.6780550385	-1.4661685801	 0.147261
H	-0.0304144893	-2.5692984748	 0.124158238	 0.129953
H	-2.2853673592	-2.3221049615	 1.197628067	 0.082686
H	-3.0870245588	-2.294920101	-0.3806511327	 0.128633
H	-2.0936360598	-4.6526705425	-0.7870074309	 0.083908
H	-2.0063064441	-4.7494226671	 0.9737385849	 0.088112
