11
gdb 878	7.15097	2.2289	1.71504	1.1577	48.35	-0.2191	0.0241	0.2432	666.9129	0.080017	-376.602183	-376.596199	-376.595255	-376.631802	22.048	
N	-0.0565820084	 1.3797811156	 0.0711403939	-0.601947
C	-0.1069596935	-0.0015312585	-0.0077692074	 0.271722
C	-1.1089916621	-0.8970262022	-0.1339214846	-0.113317
N	-0.6048354464	-2.1987131642	-0.1657006927	-0.385155
C	 0.6713034562	-2.0166358582	-0.0571086828	 0.476374
O	 1.6318728912	-2.9398902779	-0.0329672723	-0.399632
O	 1.0906066235	-0.7543727108	 0.0439264122	-0.1961
H	 0.4555910268	 1.8064737944	-0.6938477908	 0.250487
H	 0.3294871145	 1.7173409931	 0.9466942464	 0.250486
H	-2.1650579981	-0.6921084169	-0.2044349852	 0.126604
H	 1.1894312364	-3.7950066444	-0.1136211467	 0.320479
