15
gdb 67067	3.08234	1.74846	1.46248	3.5776	65.97	-0.2623	-0.012	0.2503	900.0941	0.111523	-457.651152	-457.643992	-457.643048	-457.682422	28.372	
O	 0.0967403709	 1.3677634542	-0.0405054486	-0.455339
C	 0.1393987914	-0.0342009	-0.1388828144	 0.204069
C	-0.0898458406	-0.6615731909	-1.5679412698	-0.147423
C	-0.5504434429	-1.9492984657	-0.8539168568	-0.27439
C	-1.1652157889	-0.7727098653	-0.0657739511	 0.353256
C	-1.6026854855	-0.1177467082	-1.4118256647	-0.30987
O	-1.1637457722	-0.8460488685	 1.3934333035	-0.303243
C	 0.2168911678	-0.5708992395	 1.3586196285	 0.345125
O	 0.9799300282	-0.6177595596	 2.2609864806	-0.303785
H	 0.9638029936	 1.6633220415	 0.2548901709	 0.304173
H	 0.5169285021	-0.5816286657	-2.4697963296	 0.098651
H	-1.2467715606	-2.587136788	-1.3988539915	 0.11154
H	 0.2213391914	-2.5263423654	-0.3390300867	 0.116488
H	-1.7269711998	 0.9617293869	-1.4195754296	 0.147188
H	-2.3550071951	-0.6412551458	-2.0047920608	 0.113562
