18
gdb 29516	3.0344	1.55356	1.0527	1.4506	79.32	-0.1786	0.0291	0.2078	1132.4485	0.150261	-401.96882	-401.961017	-401.960073	-402.001102	29.841	
C	-0.008281854	 1.5272197663	-0.0033172997	-0.509452
C	 0.0366296046	 0.0320725308	 0.0350291712	 0.100152
C	 0.1448601339	-0.8218690306	-1.0306786315	-0.107528
O	 0.1406155627	-2.1371689039	-0.6516060191	-0.201869
C	 0.0605427486	-2.110588057	 0.7033901318	 0.290082
C	-0.0235969477	-0.844868688	 1.1687781634	 0.166293
N	-0.3017479049	-0.8047443357	 2.5526314113	-0.410279
C	-0.0331736543	-2.2060433513	 3.0118557414	-0.164046
C	-0.1917495532	-3.1330815834	 1.7576766786	-0.343473
H	 0.8351286944	 1.9744409811	 0.5365319182	 0.123478
H	 0.0258461656	 1.8959802811	-1.0322604106	 0.12542
H	-0.9245895267	 1.9113644905	 0.4596862862	 0.133239
H	 0.2558199728	-0.6433639044	-2.0883336337	 0.127459
H	 0.2510786458	-0.1325840756	 3.0723284452	 0.226711
H	 0.9949569839	-2.2958413215	 3.3876699134	 0.103373
H	-0.7167656976	-2.4777541609	 3.8198071521	 0.110513
H	-1.205091709	-3.5548901802	 1.6964462025	 0.115971
H	 0.510003325	-3.9725146073	 1.7887697194	 0.113956
