20
gdb 66465	3.47543	1.56629	1.43328	1.8262	82.	-0.2143	0.0849	0.2992	1012.7699	0.171203	-365.938016	-365.930326	-365.929382	-365.969516	31.377	
C	-0.0049882906	 1.4524125633	 0.0194228363	-0.5213
C	-0.0592194328	-0.0441308707	 0.0063553502	 0.345248
C	 0.9605397384	-1.0699089386	-0.3991648933	-0.090148
C	 0.606383698	-0.9572704401	 1.0564180225	-0.192963
C	-0.3105421539	-2.1923111834	 0.961338069	 0.357119
C	 0.0643318475	-3.4698598829	 1.6578718876	-0.495965
C	-1.7626753734	-1.6857980246	 0.822546591	-0.289538
C	-1.1970841092	-0.9889476557	-0.4234803244	-0.064525
N	-0.1411548631	-2.1019561499	-0.5823237144	-0.214065
H	 0.9843567224	 1.8075752155	 0.3273374774	 0.121871
H	-0.2109616275	 1.8687188306	-0.9733133042	 0.122231
H	-0.7382028799	 1.874355651	 0.7171352662	 0.120502
H	 1.8931388534	-1.0255339685	-0.9484998997	 0.089815
H	 1.181254149	-0.5719368455	 1.8897910309	 0.080507
H	-0.0691044114	-3.3747177034	 2.7420148369	 0.115024
H	-0.5550902845	-4.300396959	 1.306043204	 0.123259
H	 1.1131924065	-3.7211552181	 1.4676771924	 0.123251
H	-2.4434264452	-2.4996428947	 0.5557196562	 0.106501
H	-2.1882478268	-1.0761130735	 1.6239579098	 0.094019
H	-1.8073979167	-0.7305165617	-1.2902037544	 0.069156
