19
gdb 67232	2.94044	1.32763	1.11409	3.4206	80.59	-0.2384	-0.0157	0.2227	1147.4441	0.159109	-385.853985	-385.845952	-385.845008	-385.886632	30.978	
C	-0.0170112052	 1.5928359424	-0.1523979798	-0.533147
C	 0.0224253237	 0.1064684776	-0.0221113144	 0.359293
C	 0.0371831058	-1.0096912392	-1.0387516846	-0.12937
C	 1.2699202926	-1.6531523896	-0.4155005672	-0.238159
C	 0.8767996097	-0.8913363949	 0.8777120537	-0.127979
C	-0.4599541214	-1.5832167335	 1.318771846	-0.090943
C	-1.0201939349	-0.9585229349	 2.5636347382	 0.159776
O	-1.4153428628	-1.5682381834	 3.5256061818	-0.266661
C	-1.0514988052	-0.9587286114	 0.0509477039	-0.124914
H	 0.9509824937	 1.9952315559	-0.473128529	 0.124567
H	-0.7621237067	 1.8920356723	-0.8976473573	 0.127084
H	-0.2816864438	 2.0792585527	 0.7936332811	 0.125994
H	-0.2414608715	-0.9514967769	-2.0836146044	 0.089763
H	 1.3342646613	-2.7455542324	-0.3589481766	 0.096001
H	 2.1905418342	-1.2518720832	-0.8485090983	 0.10362
H	 1.6225759744	-0.6179942386	 1.6218056989	 0.082069
H	-0.4505682697	-2.6722785687	 1.4250960868	 0.081218
H	-1.0453640548	 0.1566928455	 2.5420547542	 0.067995
H	-2.0986015995	-0.8677579597	-0.2100924631	 0.093794
