15
gdb 34901	1.9717	1.9363	1.20124	2.0228	76.35	-0.2498	0.0255	0.2753	1038.6221	0.109742	-383.371088	-383.362845	-383.361901	-383.403991	31.193	
C	-0.2930334547	-1.253203234	 0.0200077609	-0.443753
C	-0.1666203878	-0.0582462124	 0.0318692054	 0.363802
C	-0.0216590426	 1.3792871515	 0.0393322408	-0.259522
C	-0.2647829163	 2.1229560967	 1.3709990255	 0.020271
O	 0.7325331869	 1.6991496564	 2.2955868727	-0.222131
C	 1.0772556603	 2.7178677212	 1.3615136381	 0.0203
C	 1.4493552653	 2.0313540371	 0.0289894715	-0.259539
C	 2.6117513582	 1.1733810811	 0.0123067903	 0.363838
C	 3.5819498394	 0.4646015118	-0.0074606595	-0.443766
H	-0.3981783632	-2.3097703836	 0.0190692802	 0.197952
H	-0.6056417043	 1.83089922	-0.7686139965	 0.113387
H	-1.2068374799	 2.4793166198	 1.7694395275	 0.118915
H	 1.4504960623	 3.6572701995	 1.7506607671	 0.118909
H	 1.4973490648	 2.7631559846	-0.7833784893	 0.113386
H	 4.4354502214	-0.1669586197	-0.0150988648	 0.197952
