22
gdb 113583	3.81209	0.9604	0.8897	1.9596	83.	-0.2293	0.0838	0.313	1416.091	0.194607	-404.323559	-404.314484	-404.31354	-404.357924	34.188	
C	-0.1497273688	 1.5864174873	-0.3306431511	-0.376713
C	-0.0048562809	 0.1722225566	 0.2267630079	-0.115511
N	-1.2824838969	-0.5285619129	 0.1664341422	-0.117948
C	-1.5617546881	-1.3095213102	-1.0375362188	-0.311372
C	-1.3273927522	-1.9845540785	 0.267749314	 0.318082
C	-0.1169414291	-2.8899601616	 0.5347193889	-0.31475
C	-0.5900499774	-3.7068804346	 1.7476981438	-0.078192
O	-1.9959563338	-3.8283152505	 1.5878673405	-0.245122
C	-2.4582007015	-2.5678939561	 1.1282378437	-0.137069
H	 0.7971034925	 2.1302209215	-0.2569930188	 0.110767
H	-0.4448329007	 1.5609524003	-1.3847006736	 0.118972
H	-0.9153364063	 2.1392911287	 0.2204354922	 0.127546
H	 0.7927257642	-0.3595804042	-0.3207080083	 0.082851
H	 0.3048431171	 0.2163408286	 1.2783688514	 0.100815
H	-2.5660274898	-1.2225885863	-1.4470990536	 0.111152
H	-0.7721268796	-1.3866565451	-1.7865909688	 0.102988
H	 0.0663590687	-3.5496495236	-0.3185330564	 0.113572
H	 0.8026566245	-2.3350391406	 0.734658749	 0.10723
H	-0.1675533577	-4.7132790876	 1.7976223701	 0.108697
H	-0.3488661761	-3.1812399161	 2.6869896084	 0.088583
H	-2.6607113139	-1.8838628594	 1.9674827299	 0.097201
H	-3.3893837242	-2.7290476859	 0.5779524377	 0.108221
