19
gdb 48964	3.71699	1.3459	1.18211	3.0573	80.26	-0.2419	-0.0218	0.22	1082.7719	0.161045	-385.89052	-385.883107	-385.882163	-385.922385	29.321	
O	-0.2456675326	 0.3638704186	-0.7588783135	-0.275946
C	 0.1039754081	 1.0741448417	 0.1574904193	 0.036759
C	 1.3455545997	 1.8599256332	 0.1865670787	 0.251183
C	 1.7919295308	 2.8405570591	 1.2728186264	-0.31655
C	 2.5373719622	 3.6708859553	 0.1769262783	-0.040971
C	 4.0049930593	 3.2325370572	 0.0706405305	-0.205474
C	 3.9178749111	 1.7169554398	-0.2691389631	-0.24328
C	 2.4899437631	 1.5392505465	-0.7840643093	-0.072051
C	 1.8010261783	 2.8471134943	-0.9170755187	-0.103466
H	-0.5350499777	 1.1928043001	 1.0636284956	 0.064369
H	 0.9379607329	 3.3843646383	 1.6867677732	 0.105441
H	 2.3995317781	 2.4539569075	 2.0992355905	 0.094315
H	 2.3799125794	 4.748489106	 0.2040090956	 0.0736
H	 4.5009973525	 3.7778870606	-0.7398312454	 0.101247
H	 4.5627184569	 3.4290620113	 0.9915938897	 0.099359
H	 4.641930954	 1.4318501195	-1.037853283	 0.106871
H	 4.117138423	 1.087135666	 0.6038474014	 0.106859
H	 2.2424133605	 0.7460669205	-1.4796531081	 0.113614
H	 1.2192807804	 3.1889797146	-1.7622680079	 0.104123
