21
gdb 113260	4.47118	0.71698	0.6844	2.9273	80.33	-0.2444	-0.021	0.2233	1664.8263	0.179254	-424.216942	-424.206375	-424.205431	-424.253369	37.501	
C	-0.1277557755	 1.6621004963	 0.0854189017	-0.46464
C	-0.0161320986	 0.1459824816	 0.0631371384	 0.310731
C	-1.2338651226	-0.5402671334	-0.5483516238	-0.341919
C	-1.4087157936	-0.2089410026	-2.0170123174	 0.164464
O	-2.4317309463	 0.1764321483	-2.5219288493	-0.242749
C	 1.3388683414	-0.489253735	-0.1758844489	-0.320517
C	 0.6866362735	-0.5989997445	 1.1805743762	-0.028488
C	 1.2830067891	 0.0761803147	 2.3881375487	-0.112162
O	 2.2914983221	-0.7850038854	 2.9030794648	-0.41693
H	 0.7810244336	 2.1379002565	 0.4603124691	 0.119778
H	-0.3068033631	 2.053161549	-0.9227312822	 0.127546
H	-0.9650504412	 1.9891668506	 0.712974899	 0.12226
H	-1.1103521105	-1.6302231377	-0.4797935651	 0.117401
H	-2.1573177743	-0.2742581111	-0.0228234179	 0.11736
H	-0.4878490409	-0.354866306	-2.6287308063	 0.075881
H	 1.4059852437	-1.3805323249	-0.7908543269	 0.110517
H	 2.1942275223	 0.1728491517	-0.2654737436	 0.114442
H	 0.2658032076	-1.5714773291	 1.4238885358	 0.089592
H	 1.7041585603	 1.0558751684	 2.1179843943	 0.083341
H	 0.4982362504	 0.2553073388	 3.1410625968	 0.088167
H	 2.6217257725	-0.4009334663	 3.7208512164	 0.285924
