20
gdb 31786	3.26888	1.24695	0.91827	1.2558	84.52	-0.1706	0.0622	0.2329	1301.8946	0.170203	-403.179787	-403.169902	-403.168958	-403.2148	35.283	
C	 0.8114132475	 0.6053909966	 0.4053992341	-0.243041
O	-0.5322060015	 0.9362981413	 0.107209765	-0.267231
C	-1.4223251646	-0.0644458043	 0.3105058863	 0.395663
C	-1.296650306	-1.3589624189	 0.753833869	-0.312403
C	-2.61721769	-1.9066525905	 0.7473887901	-0.228953
C	-3.4882454465	-0.9430270983	 0.3076177501	 0.285764
C	-4.9660490476	-0.9794440416	 0.1109582547	-0.500661
N	-2.7418210778	 0.2003575726	 0.0370890718	-0.130081
C	-3.2567512222	 1.4619971705	-0.4503620066	-0.350723
H	 1.4056392626	 1.4962111733	 0.19619882	 0.131303
H	 0.9242406257	 0.3266089018	 1.4609600039	 0.12546
H	 1.1611138367	-0.2261341222	-0.2198418192	 0.125464
H	-0.3856846096	-1.8544216365	 1.0454357535	 0.090639
H	-2.8935280344	-2.9092733196	 1.037963239	 0.084631
H	-5.4953529533	-0.2436742869	 0.7312796402	 0.120301
H	-5.2608220727	-0.7901129736	-0.9299934269	 0.120301
H	-5.3425641233	-1.968390846	 0.3830957474	 0.131798
H	-3.98179863	 1.8908804416	 0.2500248116	 0.131807
H	-2.4253264427	 2.1572121178	-0.561616761	 0.158154
H	-3.7456905604	 1.3407423731	-1.4231942828	 0.131808
