21
gdb 117554	2.00906	1.29323	1.0238	3.4635	79.74	-0.2185	0.0273	0.2458	1307.3015	0.180017	-420.383764	-420.372765	-420.37182	-420.420525	37.956	
C	 0.3774967902	 1.1097018179	-0.3562357244	-0.252502
O	-0.0391418449	 0.0766650921	-1.2344029072	-0.231113
C	 0.9180696652	-0.9273883963	-1.4759759648	-0.09248
C	 0.6388180607	-2.2499293	-0.7061329043	-0.139038
C	 0.6832712659	-2.0168447388	 0.7495735672	 0.311857
N	 0.7419140206	-1.8192426781	 1.8865454165	-0.340104
N	-0.5674746921	-2.9911262186	-1.0509889185	-0.051504
C	-1.83965416	-2.3345292195	-0.7683959093	-0.329887
C	-0.5224708913	-3.5986893261	-2.3687201007	-0.327857
H	 0.5978709054	 0.7353920633	 0.6500838784	 0.141575
H	 1.2651456287	 1.6285669674	-0.7472904201	 0.108836
H	-0.448335736	 1.8222948491	-0.2974592725	 0.132582
H	 0.893595231	-1.1602948751	-2.5474522161	 0.114858
H	 1.9341137748	-0.5829946703	-1.2347905776	 0.106265
H	 1.4883398688	-2.9099328103	-0.9362678982	 0.123423
H	-2.077394344	-1.5109160083	-1.4576934569	 0.118406
H	-2.6359425759	-3.0839069128	-0.8309420047	 0.115854
H	-1.8311598535	-1.9340051391	 0.2482961314	 0.140236
H	 0.4127544859	-4.1547540663	-2.4945598307	 0.118161
H	-1.3502883698	-4.309179301	-2.4595514831	 0.128342
H	-0.6119690295	-2.8815516391	-3.2047703741	 0.104089
