16
gdb 88928	3.35242	0.92979	0.77021	4.2884	75.54	-0.2397	-0.0211	0.2185	1431.4895	0.122002	-437.851059	-437.84174	-437.840796	-437.886137	33.663	
O	-0.1785358079	 1.4665444689	 0.0758198951	-0.424129
C	-0.0119565774	 0.0771996172	 0.0138771233	 0.051888
C	-0.4744496537	-0.7739698935	 1.1727901453	-0.333068
C	-1.2861598021	-0.7033394515	-0.1098523734	 0.048622
N	-2.4924880273	 0.0563583862	-0.1444358982	-0.330519
C	-3.7104599351	-0.5280228365	-0.3168290521	 0.293094
O	-3.8820177748	-1.730955971	-0.4061810772	-0.369658
C	-4.806200381	 0.4321843417	-0.3911050276	 0.207333
C	-5.7339773486	 1.1944763119	-0.4525831111	-0.396277
H	 0.4027057622	 1.8135872952	 0.7600829681	 0.297425
H	 0.8489144279	-0.2526791712	-0.5651392775	 0.102053
H	 0.0617257317	-1.6891724652	 1.3979171635	 0.125095
H	-0.8845439994	-0.2498627742	 2.0293201564	 0.122124
H	-1.3153235957	-1.5802206172	-0.7450763716	 0.131698
H	-2.4080470241	 1.0617724736	-0.1236354476	 0.267664
H	-6.5618679645	 1.8581187658	-0.5102874755	 0.206655
