18
gdb 76979	2.25455	1.22187	0.92278	3.9105	74.68	-0.2392	-0.0223	0.2169	1289.7675	0.146593	-439.037729	-439.028701	-439.027757	-439.072403	32.785	
O	 0.0361756343	 1.4388958978	-0.049458386	-0.407904
C	 0.023842681	 0.0470000339	 0.0146651427	 0.062178
C	-0.5041438478	-0.6555589938	 1.2699421516	-0.183571
C	-0.9305417181	 0.1305515509	 2.4489175814	 0.160703
O	-0.7885562734	-0.2515883995	 3.5871034897	-0.275449
C	-1.3102212784	-0.6063010899	-0.0514367096	-0.087432
C	-2.5643561816	 0.1993366443	-0.1787545482	 0.015948
C	-3.5849659392	-0.1977513978	-1.1815413057	-0.251137
N	-3.8539673027	-0.3680009793	 0.2569317851	-0.320707
H	 0.7954093195	 1.7614815945	 0.4478332855	 0.300007
H	 0.8576503843	-0.4447094104	-0.4855772277	 0.106129
H	-0.0495684073	-1.6065174505	 1.5272590665	 0.107957
H	-1.3892506877	 1.1159575607	 2.2298334426	 0.088177
H	-1.3411412492	-1.5634755214	-0.5659021848	 0.102657
H	-2.458070012	 1.2552691802	 0.0444561171	 0.116091
H	-4.1862665735	 0.5601341479	-1.6753692453	 0.124323
H	-3.387352346	-1.0801882704	-1.7857539056	 0.11053
H	-3.7279092619	-1.3439318373	 0.5174134806	 0.2315
