19
gdb 40499	4.14993	1.29837	1.22635	2.4432	79.17	-0.2117	0.0815	0.2933	1077.7497	0.160689	-381.94799	-381.940761	-381.939817	-381.979858	29.16	
C	-0.2446941658	 1.0761209672	-0.4344408962	-0.235986
C	 1.1066728966	 1.2243201669	 0.1693400998	-0.228321
N	 0.4086747214	-0.0636395518	 0.2051506833	-0.174664
C	-0.0638083252	-0.5332115433	 1.4594486547	 0.367209
C	 0.5706739286	-1.6525356932	 2.2644910714	-0.223154
N	-0.7369826159	-1.8123109767	 3.0155465387	-0.168602
C	-0.7983177178	-0.5097587451	 3.7951863045	-0.178776
C	-0.9643510513	 0.2320356777	 2.4833443102	-0.146749
C	-1.4116239816	-1.058793482	 1.8442627643	-0.088991
H	-1.0755932654	 1.5589861269	 0.0732899787	 0.119156
H	-0.360014711	 0.9930747173	-1.5113271439	 0.121508
H	 1.9903338846	 1.2596729154	-0.4607014981	 0.120674
H	 1.1753461679	 1.7849077473	 1.0988871232	 0.116894
H	 0.752653389	-2.5391666299	 1.6522476933	 0.114212
H	 1.4415132235	-1.4501104404	 2.8987804666	 0.093587
H	-1.7029107151	-0.4975529784	 4.4103631749	 0.107703
H	 0.0769408202	-0.3177499574	 4.4267490414	 0.096314
H	-1.3291838777	 1.2342761152	 2.2955941596	 0.087464
H	-2.292368845	-1.3793532957	 1.3057122436	 0.100522
