17
gdb 99254	2.98149	1.07424	0.94626	4.1487	65.98	-0.234	0.0088	0.2428	1282.02	0.13525	-492.334814	-492.32481	-492.323866	-492.371384	34.567	
N	 0.3390827888	-0.3598473271	-0.6550125807	-0.505865
C	-0.0196071089	 0.2483883171	 0.6335805542	-0.231909
C	 0.7743406207	-0.3913386578	 1.7565296523	 0.424859
O	 1.8552470749	-0.0432843554	 2.1586419602	-0.366023
O	 0.1410510551	-1.5162663035	 2.1947457174	-0.221837
C	 0.9473068817	-2.4056445613	 2.943556673	-0.189818
C	 1.8942452625	-3.1718285538	 2.004111688	 0.401326
N	 2.7985397239	-3.9579326145	 2.6531270537	-0.521523
O	 1.8055884126	-3.1098409692	 0.7957429279	-0.348045
H	 1.321818112	-0.1741642859	-0.839613351	 0.240046
H	 0.274380431	-1.3722734422	-0.5675790378	 0.253241
H	 0.2064578523	 1.3164108774	 0.6054958798	 0.126781
H	-1.0904440815	 0.1135787139	 0.8080424791	 0.123814
H	 1.5219853741	-1.8669986985	 3.7033773834	 0.139672
H	 0.2639281103	-3.1064681298	 3.4302377089	 0.142412
H	 2.9859128509	-3.8392467179	 3.6345120445	 0.26411
H	 3.5015804596	-4.4158585416	 2.0949321471	 0.268758
