16
gdb 131645	4.02423	1.18827	0.9509	5.552	72.39	-0.248	0.0004	0.2484	1196.5716	0.126085	-434.020697	-434.012875	-434.011931	-434.054574	28.133	
O	 0.2966541907	 1.198999678	-0.7846853133	-0.417229
C	 0.0893935314	 0.1403517717	 0.1273457113	-0.152214
C	-1.3568498156	-0.2498967523	 0.2095891208	 0.107353
C	-2.1894610207	-0.6969306575	 1.2128201306	 0.273881
C	-2.7477795905	-1.1153172024	 2.5723185299	-0.386079
C	-4.1189010708	-1.3073284427	 1.8123786778	-0.166362
N	-3.3717489347	-0.8828946285	 0.6058928409	 0.088295
N	-3.3680151854	-0.5831469185	-0.6968692767	-0.180954
N	-2.1273104998	-0.2078829415	-0.9259333594	-0.262053
H	-0.322960263	 1.0540610913	-1.510959579	 0.299364
H	 0.6914383159	-0.7418213569	-0.1509592738	 0.101747
H	 0.4469172979	 0.4708239072	 1.1088803602	 0.108746
H	-2.3315846557	-2.032073465	 2.9936011437	 0.141805
H	-2.7599266765	-0.3356458902	 3.3359280604	 0.143833
H	-4.4957414641	-2.3296116666	 1.752416945	 0.149088
H	-4.9184343491	-0.618694106	 2.0902248416	 0.150779
