15
gdb 25676	5.86962	0.86607	0.75827	0.7566	89.27	-0.2455	-0.0453	0.2003	1467.5559	0.113784	-379.701939	-379.693811	-379.692867	-379.736652	28.431	
C	-0.0156453775	 1.4561014193	 0.0102030693	-0.511149
C	 0.0040536122	 0.0034126691	 0.0023302426	 0.310917
C	 0.0191716668	-1.2016688639	-0.0042174427	-0.103669
C	 0.0380460391	-2.6315757083	-0.0118842688	 0.160986
N	 1.2442321434	-3.226227819	-0.022038821	-0.273108
C	 1.2439372568	-4.5574785817	-0.0292062392	-0.004341
C	 0.073754797	-5.3088132408	-0.0265421997	-0.12068
C	-1.116025377	-4.5890234556	-0.015861505	-0.004324
N	-1.1518409927	-3.2582287478	-0.0084907363	-0.273149
H	 0.9988003893	 1.8682956237	 0.0027222497	 0.156068
H	-0.5449095284	 1.8457615521	-0.8664471481	 0.157035
H	-0.5279860492	 1.8363829423	 0.9009200701	 0.157042
H	 2.2198614724	-5.0386197852	-0.0373970205	 0.117585
H	 0.0881986122	-6.3917946258	-0.032457031	 0.113207
H	-2.0787683443	-5.0960807684	-0.0130882194	 0.117581
