20
gdb 77370	2.53248	1.65179	1.34211	2.9262	78.85	-0.2291	0.0657	0.2948	1060.5864	0.169849	-403.093104	-403.084324	-403.08338	-403.125736	34.21	
C	-0.0374639248	 1.4949739305	-0.0524226289	-0.508367
C	-0.0644073404	-0.0001537587	-0.0250164121	 0.331172
C	 0.5349488906	-1.0143815338	-0.9356850106	-0.164322
N	 1.199315209	-0.7197202872	 0.3660016658	-0.188077
C	 0.7461974571	-2.0520470021	 0.8884022899	-0.181449
C	-0.3418651126	-2.1018852803	-0.1970677466	 0.23984
C	-0.9219232076	-3.3805151735	-0.7399040678	-0.521209
C	-1.2527344856	-0.9092956567	 0.2381841584	 0.046729
O	-1.7891784394	-0.8722288387	 1.5415298652	-0.440874
H	 0.9377590075	 1.8535302097	-0.3917389666	 0.132187
H	-0.807888923	 1.890201657	-0.7234296885	 0.113583
H	-0.2181493031	 1.9014700673	 0.9481946053	 0.134533
H	 1.0103386599	-0.9409721135	-1.905184189	 0.093053
H	 1.5485820337	-2.7775092845	 0.7255487495	 0.097796
H	 0.424054138	-2.0595694249	 1.9343747038	 0.107467
H	-1.4987209511	-3.9026839129	 0.0335906036	 0.117308
H	-1.5930491115	-3.1922636049	-1.5855306422	 0.117172
H	-0.1375151721	-4.0643873079	-1.0814253702	 0.123452
H	-2.0273995856	-0.7291514411	-0.5216039118	 0.065857
H	-2.6018885191	-1.3871099138	 1.5552270727	 0.284149
