21
gdb 38647	2.61952	1.9997	1.42824	0.2996	86.17	-0.231	0.0299	0.2609	983.6242	0.186677	-349.94689	-349.940051	-349.939107	-349.977781	29.228	
C	 0.1651072417	 1.4386051865	 0.6222099396	-0.253674
C	 1.5451510854	 1.5833329652	-0.0857489866	-0.007237
C	 2.7586481833	 1.1765666586	 0.7782230419	-0.243384
C	 2.4869345036	-0.3333515671	 0.4251069229	-0.047451
C	 2.0162964357	-1.2072821404	 1.5464745457	-0.063643
C	 0.7487725856	-1.5748341915	 1.7356175598	-0.05708
C	-0.3926775527	-1.1522790044	 0.8471842415	-0.2806
C	-0.0454736344	 0.0393103785	-0.0444797929	 0.016913
C	 1.3986645373	 0.1094319361	-0.6011899278	-0.057051
H	 0.228205563	 1.4171897426	 1.7143453096	 0.097152
H	-0.5796435531	 2.1861140198	 0.3383404052	 0.095127
H	 1.6579373941	 2.4413216098	-0.7496858794	 0.05852
H	 3.7090369673	 1.5298095406	 0.3687372337	 0.094216
H	 2.7141907266	 1.4444070619	 1.8384255638	 0.091719
H	 3.3549933414	-0.7961881396	-0.054917109	 0.074894
H	 2.7796735249	-1.543046122	 2.2464672352	 0.079672
H	 0.5003041013	-2.2214325169	 2.5742428505	 0.080369
H	-0.7077110309	-2.0067783429	 0.2292306709	 0.104622
H	-1.2678545169	-0.9070607591	 1.4650595988	 0.100768
H	-0.7762390489	 0.1169169578	-0.8550830425	 0.064377
H	 1.5681337957	-0.1945625534	-1.635125671	 0.051772
