14
gdb 127907	3.85545	1.22089	0.93265	0.762	70.07	-0.2581	-0.0816	0.1765	1179.5651	0.100474	-470.004192	-469.995957	-469.995013	-470.038918	28.679	
C	 0.1368429477	 1.4539143363	 0.148771829	-0.321834
N	 0.1456749109	-0.0006843911	 0.0947225825	-0.33451
C	 0.3772854887	-0.5818754098	-0.9929922967	 0.536369
N	 0.3949360459	-1.9673507508	-1.0876201455	-0.427538
C	 0.6386847708	-2.6853030987	-2.2318333444	 0.424939
O	 0.6485704182	-3.8941152603	-2.2882267621	-0.347271
C	 0.8896975074	-1.8009067417	-3.3963275239	-0.067102
N	 0.8889105387	-0.5244893291	-3.3821794324	-0.023918
O	 0.6294710757	 0.1074139338	-2.1660015317	-0.284384
H	 1.103043699	 1.881796339	-0.1457502735	 0.131383
H	-0.6266839274	 1.8845189611	-0.5107718179	 0.131394
H	-0.0789844889	 1.7632045894	 1.1733047131	 0.128391
H	 0.2102176365	-2.4691497479	-0.2287952172	 0.28363
H	 1.0938884067	-2.2683367302	-4.3534184294	 0.170452
