14
gdb 27327	3.25219	1.37433	0.96681	5.9237	69.25	-0.2226	-0.0176	0.205	1121.9889	0.101508	-473.863624	-473.855801	-473.854857	-473.895678	30.098	
N	 0.0757971319	 1.3745143397	 0.1787680026	-0.567734
C	-0.0347298234	 0.008602264	 0.0668943709	 0.447836
C	-1.1882222226	-0.7082872007	 0.0332311687	-0.357274
C	-1.1940440174	-2.1547631404	-0.0102378298	 0.34904
O	-2.1951237088	-2.8547149287	-0.0412765546	-0.381874
C	 0.1762331513	-2.7368660925	-0.0197733119	 0.165749
O	 0.2283914995	-4.0890521257	-0.0589092934	-0.405457
C	 1.2570294781	-1.9378859623	 0.0050208616	-0.088175
O	 1.1806200649	-0.5691287886	 0.0470774819	-0.21928
H	 0.9427795406	 1.7599881872	-0.1659322093	 0.264002
H	-0.741535256	 1.8981652301	-0.0924291328	 0.2693
H	-2.1424073051	-0.1963567325	 0.0454080569	 0.103371
H	 1.1472108048	-4.3806511211	-0.0595619721	 0.298242
H	 2.2878805722	-2.2689117984	-0.0032575387	 0.122255
