17
gdb 67936	2.48891	1.77123	1.28894	4.9311	72.97	-0.2229	-0.0279	0.195	1002.9525	0.135944	-418.026426	-418.018499	-418.017555	-418.058876	30.535	
C	-0.1889937816	 1.5058930013	 0.2054218977	-0.459269
C	 0.06613094	 0.0255425228	-0.0197419646	 0.299858
C	-1.1716748576	-0.9175750611	 0.1504437028	-0.404399
C	-0.4375884814	-1.6240945116	 1.3127404877	 0.426557
O	-0.7638529548	-2.4569016239	 2.1025437239	-0.285922
C	 0.8524739685	-0.8014676597	 1.0800727859	-0.155228
N	 1.8892062004	-1.5687574031	 0.3764520307	-0.249546
C	 1.7980723371	-1.2309350803	-0.8563163166	 0.061208
N	 0.8998751741	-0.2385299504	-1.193856061	-0.337516
H	 0.7539337287	 2.0584372919	 0.2412548937	 0.131587
H	-0.8026813803	 1.9306589483	-0.5973366097	 0.118259
H	-0.7217068722	 1.6681850137	 1.1479357218	 0.12429
H	-2.1068184209	-0.4318445601	 0.4456029281	 0.131427
H	-1.3751030717	-1.5750093471	-0.700874741	 0.126295
H	 1.2560225793	-0.2814707045	 1.9543784168	 0.098323
H	 2.4326091871	-1.6533204235	-1.6306880308	 0.130014
H	 0.5101235552	-0.1936130926	-2.1232710554	 0.244064
