20
gdb 102064	2.03365	1.21723	1.06843	3.74	82.37	-0.2451	0.024	0.2692	1299.291	0.168029	-403.13789	-403.12735	-403.126405	-403.1739	37.673	
C	-0.3228337748	 1.4443590833	-0.003782102	-0.371823
C	 0.1498456895	-0.0119262978	-0.0155134637	-0.169579
N	 0.8655667824	-0.3865765983	-1.2302931399	-0.027597
C	 2.1922972157	-0.7027341195	-1.1899702673	 0.157029
O	 2.8543716775	-1.1080479817	-2.121183544	-0.34416
C	 0.0809837973	-0.61138005	-2.4609465099	-0.173702
C	 0.598398936	 0.2036990097	-3.6607508963	-0.395619
C	-0.0367671616	-2.0396799398	-2.7740970554	 0.386435
C	-0.1747758897	-3.2029752089	-3.0396923218	-0.478356
H	 0.5273160307	 2.1277380393	-0.0867088923	 0.129027
H	-1.0080200725	 1.6545714081	-0.8312483632	 0.125887
H	-0.8531100616	 1.6617179828	 0.9287582787	 0.122503
H	 0.8223492411	-0.1860993929	 0.8301200215	 0.120439
H	-0.7025745979	-0.6900036805	 0.1202682213	 0.120856
H	 2.6194357278	-0.5368170238	-0.1801036349	 0.074958
H	-0.9260609688	-0.2475848614	-2.2271000827	 0.114836
H	-0.0773692139	 0.0691741653	-4.5094528364	 0.123782
H	 0.6289808162	 1.2653642225	-3.3990589028	 0.113031
H	 1.5974084097	-0.1270044552	-3.9395404229	 0.171731
H	-0.2724750032	-4.2339318613	-3.2749561762	 0.200321
