15
gdb 68001	2.97101	1.8541	1.35979	4.8036	64.28	-0.2494	-0.0118	0.2376	925.0422	0.112675	-457.749782	-457.74294	-457.741996	-457.780857	26.972	
C	 0.0292032861	 1.4471676596	 0.0141397812	-0.483631
C	-0.0389918236	-0.0477442331	-0.0248129628	 0.409378
O	 0.891734799	-0.6385185451	-0.9238093184	-0.257895
C	 0.4605249802	-1.8971158555	-1.2591075647	 0.468884
O	 0.992751616	-2.5823768176	-2.0775450454	-0.338413
C	-0.7054257965	-2.1976765968	-0.3145554386	-0.084469
O	-0.0511106628	-2.2385259075	 0.9998484195	-0.287856
C	-0.4077625315	-0.8774086426	 1.2000032608	 0.03087
C	-1.3279822652	-0.8258969766	-0.0052593237	-0.229507
H	 1.0241572295	 1.7809260589	 0.322220831	 0.146223
H	-0.1891883112	 1.8710651685	-0.9706455531	 0.141221
H	-0.7009948982	 1.83957906	 0.7280801487	 0.130016
H	-1.2910879698	-3.0874875215	-0.5284800184	 0.116406
H	-0.4727954379	-0.5078878894	 2.2168867936	 0.121469
H	-2.3308363841	-0.4626534912	-0.1838430097	 0.117304
