16
gdb 34861	3.94352	1.28029	1.18922	3.4182	68.73	-0.2708	0.0227	0.2935	1038.5879	0.126533	-437.870331	-437.863345	-437.862401	-437.901726	27.323	
N	 0.0182268828	-1.1480635075	-0.0046763663	-0.329443
C	 0.0052474962	 0.0088588831	 0.0025573336	 0.270347
C	 0.0082884127	 1.456287661	 0.0325756804	-0.185862
C	-0.1036780775	 2.0938652492	 1.4719724558	 0.114659
C	 1.4334862269	 1.9246116311	 1.5951086506	-0.312903
C	 1.4400195256	 2.1199864535	 0.0561253253	 0.11466
O	 1.2698885146	 3.4836811423	-0.2979634071	-0.270611
C	 0.5757076645	 4.206184459	 0.7019660756	 0.014047
O	-0.4668117045	 3.4542940998	 1.294900204	-0.270611
H	-0.6770843067	 1.8729848367	-0.7069982574	 0.130968
H	-0.7819820618	 1.6546504242	 2.2024154065	 0.110098
H	 2.0011672258	 2.60819753	 2.2266623512	 0.12244
H	 1.6859216861	 0.8946535507	 1.8513371645	 0.145625
H	 2.234080609	 1.7056856938	-0.5638543769	 0.110099
H	 1.2812862372	 4.5379090185	 1.4773784535	 0.103396
H	 0.121817969	 5.0759916247	 0.2231368667	 0.133092
