13
gdb 130763	4.36159	1.14164	0.9675	3.2901	61.57	-0.2751	-0.0317	0.2434	1142.3975	0.089976	-489.868284	-489.861233	-489.860289	-489.900496	25.569	
O	-0.0179085285	 0.1732335025	 0.6909415836	-0.351642
C	-0.045897468	 1.2849711039	 0.2860062372	 0.516112
O	-0.9132386351	 1.8268540946	-0.6009464208	-0.226343
N	-0.5829511511	 3.1933487841	-0.8117656479	-0.190845
C	 0.4314067127	 3.3931741296	-0.0501863739	 0.461185
O	 0.8322924904	 2.300238906	 0.6472617412	-0.24325
C	 1.1595717682	 4.6529365499	 0.1000126207	-0.108121
C	 1.7618661957	 4.9921049818	 1.4252581329	-0.233233
N	 2.6206176691	 4.6351996488	 0.2978648144	-0.307512
H	 0.7854825731	 5.4381963488	-0.547662336	 0.13916
H	 1.7952129921	 6.0359665131	 1.7211300055	 0.14442
H	 1.6326790619	 4.280373706	 2.2349988669	 0.144029
H	 2.9483566195	 3.676504641	 0.3963629063	 0.256039
