23
gdb 93821	2.2515	1.40696	1.05738	1.2334	89.05	-0.2336	0.026	0.2595	1280.65	0.205284	-388.315335	-388.305653	-388.304709	-388.349358	37.011	
C	 0.0179218614	 1.5408857307	-0.0620923779	-0.394617
C	-0.0059651477	 0.014976168	 0.0021892617	 0.098295
O	 0.5994193905	-0.4574285577	-1.1936601914	-0.265126
C	 0.9237052524	-1.8349914476	-1.1366828749	-0.094779
C	 2.027169144	-2.0940918136	-0.1032632599	-0.06911
C	 3.387331795	-1.5680077862	-0.5980458942	-0.391253
C	 1.6117442566	-1.4685779103	 1.216891452	 0.291877
C	 2.2799330842	-1.9744132715	 2.4662751341	-0.481284
C	 0.6727647469	-0.5205733652	 1.2373033523	-0.16639
H	 1.049501778	 1.9041952367	-0.0553078745	 0.123153
H	-0.4677151468	 1.8836695276	-0.9797787574	 0.122724
H	-0.5105649458	 1.9703368162	 0.7943388168	 0.111405
H	-1.0641460582	-0.3132051209	 0.0178233151	 0.069099
H	 0.029308175	-2.4304244961	-0.8904330962	 0.083899
H	 1.2504482696	-2.113423891	-2.1438312097	 0.098294
H	 2.1088322074	-3.1813582006	 0.0416760503	 0.067477
H	 3.3016089896	-0.5112185725	-0.8655663085	 0.131477
H	 4.1652771659	-1.6669506854	 0.1645759466	 0.110974
H	 3.7175030168	-2.1208085436	-1.4842220599	 0.109055
H	 3.3680818101	-1.8418564962	 2.423232253	 0.125991
H	 1.9137133495	-1.4562954651	 3.356760993	 0.119066
H	 2.1037416163	-3.0498283195	 2.5995908841	 0.121329
H	 0.3441396092	-0.090810296	 2.1817156456	 0.078444
