18
gdb 6508	2.97799	1.79119	1.38658	1.0578	75.27	-0.2375	0.0364	0.2739	964.6419	0.149973	-347.760482	-347.751256	-347.750312	-347.793299	34.949	
C	-0.0289259734	 1.5195392949	 0.0746612259	-0.443813
C	-0.008195101	 0.0036300637	 0.0086803598	 0.282515
C	-1.2495248329	-0.6089865727	-0.6104623871	-0.451841
C	 1.3176873809	-0.6832132287	-0.2306810098	-0.382064
C	 0.6748533309	-0.736771751	 1.1520069217	 0.172575
O	 1.2198129447	 0.0859584259	 2.1532539785	-0.451253
C	 0.1530827628	-1.9891486136	 1.6367039743	 0.319329
C	-0.2442977915	-3.0365421604	 2.0766066612	-0.484635
H	 0.858212091	 1.9151023962	 0.5698384954	 0.132933
H	-0.0812894694	 1.936752876	-0.9374808852	 0.111649
H	-0.9071724976	 1.8718153027	 0.6267831979	 0.119144
H	-1.3600095444	-0.2703411161	-1.6469751912	 0.114227
H	-1.2096244843	-1.7005647454	-0.6112453488	 0.126016
H	-2.1490103395	-0.3079201737	-0.0620704306	 0.120582
H	 1.3371446215	-1.5933932377	-0.8202795587	 0.117039
H	 2.2042427842	-0.0620429882	-0.3046600179	 0.115198
H	 1.9490437466	-0.3963997699	 2.5586913791	 0.286928
H	-0.6086271787	-3.9560526219	 2.4630215655	 0.195471
