15
gdb 15746	6.87425	1.02905	0.95513	1.2556	68.1	-0.2628	-0.0289	0.2339	1186.8551	0.120439	-395.99076	-395.983012	-395.982068	-396.023418	27.438	
N	 1.0867603202	 0.1369742174	-0.0838565663	-0.46126
C	-0.1109448065	 0.5545609361	-0.0387985529	 0.103161
N	-1.1503305196	-0.3446034612	 0.1539008194	-0.325675
C	-2.4775170765	 0.0195720106	 0.2301512036	 0.457838
O	-2.8543287724	 1.1729798402	 0.1225644828	-0.380918
C	-3.4316330589	-1.1121438291	 0.4531780768	-0.137976
C	-4.506515338	-0.875347833	 1.4672267531	-0.217635
N	-4.8233093621	-0.8829336723	 0.0447503897	-0.299435
H	 1.7276253651	 0.9141724413	-0.2321022976	 0.236113
H	-0.4684061721	 1.5810486788	-0.1362194559	 0.143375
H	-0.885195605	-1.315072484	 0.2493847874	 0.266107
H	-3.0575423045	-2.120026391	 0.293641261	 0.098314
H	-4.8834057455	-1.7206569975	 2.0352643188	 0.128798
H	-4.4817922235	 0.0765289888	 1.9893980816	 0.13727
H	-4.8774041808	 0.0834910148	-0.2795389215	 0.251925
