20
gdb 56209	4.7808	0.71907	0.65822	2.5036	76.44	-0.2637	0.0594	0.3231	1712.8129	0.171085	-440.322559	-440.313007	-440.312063	-440.358685	34.377	
N	-0.1829273774	 1.2770807548	-0.2567819865	-0.562812
C	 0.0418298294	-0.0442867645	 0.0198653225	 0.495412
O	 1.1216254403	-0.5344654433	 0.2538165725	-0.397625
O	-1.1238828506	-0.7322570608	-0.0420723249	-0.265
C	-1.0093287127	-2.150310703	 0.1717500002	-0.076612
C	-2.3915599406	-2.7462796245	 0.0445893439	 0.029326
C	-3.0719771532	-2.7890350391	-1.3527630004	-0.214107
C	-3.5845117641	-4.2159013049	-1.0172736234	-0.209155
C	-2.5156124437	-4.2953194808	 0.1071105916	-0.237588
H	 0.5635352908	 1.9086756389	-0.0228326767	 0.266978
H	-1.1254700111	 1.6251521824	-0.2099798582	 0.262333
H	-0.322381338	-2.5714237061	-0.5709507716	 0.113788
H	-0.5763768761	-2.333949636	 1.1616239037	 0.116518
H	-3.0574286841	-2.2784538053	 0.7777708612	 0.076274
H	-3.8112312922	-2.0185233797	-1.5814678989	 0.098281
H	-2.3265003224	-2.8029031374	-2.1545896226	 0.101089
H	-4.5993111547	-4.1978563118	-0.6096844263	 0.102775
H	-3.5436995545	-4.9694280186	-1.8069284129	 0.098193
H	-1.599236105	-4.783343165	-0.2415158424	 0.102864
H	-2.8034325201	-4.7430753451	 1.0611453793	 0.099069
