14
gdb 20382	4.68697	2.0548	1.47291	4.2979	63.62	-0.2477	-0.0362	0.2115	803.2608	0.10891	-378.708335	-378.701988	-378.701044	-378.738885	23.601	
C	 0.0283930414	 1.5021812364	-0.0765885115	-0.20535
C	 1.529309107	 1.9474185202	 0.0508443166	-0.348977
C	 2.133302843	 0.7262983084	 0.6611905075	 0.382168
C	 1.2967684478	-0.3444150602	 0.6643193224	 0.234641
C	-0.0394354843	-0.0637538159	 0.0567247992	-0.343299
N	 1.9924302339	-1.3890613933	 1.2028959988	-0.184123
N	 3.1472110697	-1.06181981	 1.5293930979	-0.041636
O	 3.3010292172	 0.4270760693	 1.1620224585	-0.257489
H	-0.541570046	 1.9524594696	 0.7401534906	 0.124615
H	-0.4170429922	 1.8509586212	-1.0102608942	 0.115824
H	 1.9856453738	 2.158039958	-0.923854655	 0.137157
H	 1.6499550804	 2.8466022833	 0.6613150863	 0.13588
H	-0.8862227308	-0.3774731481	 0.6734818101	 0.126529
H	-0.1562465211	-0.548366829	-0.9198366671	 0.124062
