21
gdb 122239	2.72065	0.83537	0.70751	1.6516	85.51	-0.26	0.0263	0.2862	1682.323	0.179341	-387.041911	-387.031567	-387.030623	-387.077987	37.541	
C	 0.1286864413	 1.4918499379	 0.3340159569	-0.381848
C	 0.0244745716	 0.02205546	-0.0819486359	-0.165892
C	-1.3854168942	-0.5503021279	 0.094560979	-0.159207
C	-1.4895069516	-2.0240271086	-0.3167020739	-0.28966
C	-2.88304649	-2.5969351448	-0.1206725509	 0.210553
C	-3.0628000247	-3.9742972919	 0.3850069878	-0.215778
O	-3.2433268734	-2.8603472747	 1.2519754461	-0.264017
C	-3.9328342293	-2.0172706409	-0.9293257116	 0.320034
C	-4.7803662595	-1.5244073646	-1.6249444318	-0.449168
H	 1.144607891	 1.8751373704	 0.1965367188	 0.110727
H	-0.5474252749	 2.1190948387	-0.2574760753	 0.11501
H	-0.1377987375	 1.6238514221	 1.3884684288	 0.116272
H	 0.3315133641	-0.0850302292	-1.1310849386	 0.093687
H	 0.7357026838	-0.5756411356	 0.5037876817	 0.094508
H	-1.6951696591	-0.4547518752	 1.1428282508	 0.11058
H	-2.0986928085	 0.0402848349	-0.4939017595	 0.107525
H	-1.2062878292	-2.1425781216	-1.370261902	 0.106659
H	-0.7917330383	-2.6263216645	 0.2762429535	 0.103466
H	-3.9673159784	-4.5233504572	 0.1298834927	 0.121936
H	-2.1785797758	-4.5826325384	 0.5733914281	 0.114934
H	-5.5382207275	-1.0919112191	-2.2303465547	 0.199677
