17
gdb 93183	2.94766	1.42217	0.99422	5.6852	71.43	-0.2605	-0.038	0.2225	1161.4416	0.137506	-455.194502	-455.186247	-455.185302	-455.227476	30.905	
C	-0.0592898548	 1.5151027921	 0.05461836	-0.404215
C	-0.0116859032	 0.0014943439	-0.0583282358	 0.116707
C	 0.8541220246	-0.4904263631	-1.2111927398	-0.167523
N	 0.9276404443	-1.9402178988	-1.1528903583	-0.344316
C	 0.9125273958	-2.6462612398	 0.0083139964	 0.335014
O	 1.0505357035	-3.8531222761	 0.0660848772	-0.368328
C	 0.732837233	-1.8259277814	 1.2881456487	 0.287366
N	 0.8498373429	-2.3454498124	 2.4318172409	-0.468019
O	 0.511437809	-0.4908218986	 1.1842253711	-0.248108
H	 0.9468557411	 1.9239394375	 0.1850214572	 0.135411
H	-0.5050255082	 1.9523638932	-0.8435191121	 0.123193
H	-0.6611321305	 1.8046983027	 0.918763115	 0.145151
H	-1.0270803408	-0.3992793553	-0.1904294934	 0.099343
H	 0.4035463368	-0.1916379983	-2.1627308958	 0.125787
H	 1.8509765591	-0.030571996	-1.14967294	 0.123819
H	 1.1475584409	-2.471439593	-1.9829870654	 0.258401
H	 1.0510365264	-3.3391976265	 2.2962344841	 0.250317
