18
gdb 10274	2.3596	1.96777	1.09478	2.3986	73.63	-0.2246	-0.0448	0.1798	1094.3817	0.150995	-381.139023	-381.12896	-381.128016	-381.174884	34.13	
C	-0.7626072693	-0.6879837348	 1.1692109179	-0.300403
N	-0.0329059417	-0.1057004126	 0.0499982228	-0.351125
C	 0.6021146019	-0.7157282584	-0.9971707933	 0.277119
N	 1.2255057313	-0.1103041042	-1.9473924075	-0.277673
C	 1.268456422	 1.3355265429	-1.9223030754	-0.344173
C	 0.5903844931	-2.2321549679	-1.0760639179	 0.350154
C	 1.3085219873	-2.8487436676	-2.2553091879	-0.460067
O	 0.033728055	-2.9064887876	-0.2359005666	-0.314732
H	-1.6225516648	-1.2761707351	 0.840831077	 0.143146
H	-0.1318305105	-1.3366961667	 1.781249416	 0.14316
H	-1.1198106649	 0.1391296742	 1.7886619129	 0.112067
H	 0.0133923554	 0.8980196536	 0.0409723883	 0.244909
H	 0.2624194994	 1.7877029249	-1.9621585794	 0.110954
H	 1.7631856882	 1.7267270899	-1.016561452	 0.110966
H	 1.8278214645	 1.7019181584	-2.7864366721	 0.125749
H	 2.3585234165	-2.5457708387	-2.2622186889	 0.151693
H	 1.2209838473	-3.9337786852	-2.1880446226	 0.126539
H	 0.8826980194	-2.484197685	-3.1934198412	 0.151716
