16
gdb 15924	3.47072	1.90884	1.53379	3.3321	69.18	-0.2412	0.0158	0.257	855.3902	0.13252	-342.759757	-342.752783	-342.751839	-342.791014	26.495	
N	 0.0045422815	-1.1396666673	-0.4464074288	-0.347521
C	-0.0128733376	-0.0032010203	-0.2275066828	 0.187554
C	-0.0224906002	 1.4105820419	 0.0435263532	 0.190851
C	-0.5315870081	 2.3636729257	-1.092529537	-0.28126
C	 0.8439171193	 3.0968914203	-1.108523837	-0.195883
C	 1.2730190501	 2.3098111587	 0.1462354489	-0.039545
N	 0.733463963	 2.9020265787	 1.3948069226	-0.318995
C	-0.3401647142	 1.8808971872	 1.4876383946	-0.214108
H	-0.7895094768	 1.8489762784	-2.018683745	 0.128102
H	-1.3821178425	 2.9730142028	-0.7801036062	 0.119124
H	 1.4386296153	 2.8389764546	-1.9889313625	 0.11037
H	 0.8262173124	 4.1807231197	-0.9841721862	 0.11404
H	 2.2827095209	 1.897198979	 0.1995090621	 0.086001
H	 1.3805310271	 2.8907889944	 2.1730838218	 0.229603
H	-1.3436295737	 2.2888387252	 1.6526826953	 0.114149
H	-0.1523639665	 1.087940131	 2.2207884469	 0.117517
