19
gdb 65101	3.04356	1.39629	1.13865	2.7081	74.78	-0.2336	0.0673	0.301	1114.8508	0.15789	-422.958438	-422.950098	-422.949154	-422.991522	32.13	
C	 0.0026717554	 1.5630774927	-0.1637012706	-0.487413
C	-0.0049727227	 0.0552325432	-0.0414464341	 0.296633
C	 1.1814407502	-0.7076148645	-0.4685582952	-0.231038
O	 0.932703707	-0.4715702099	 0.9189059432	-0.275536
C	-1.3299961021	-0.6261748792	-0.0281614422	 0.257094
C	-2.5909171096	-0.133559044	-0.7192694025	-0.365144
C	-2.6052010728	-0.3732050761	 0.7575007521	 0.055301
O	-2.797596002	-1.7537333104	 1.0523281335	-0.284563
C	-1.5496505957	-2.0834489765	 0.3815951844	-0.1471
H	 1.0220784547	 1.9376446233	-0.047735813	 0.132837
H	-0.378077538	 1.885368763	-1.1376519923	 0.127808
H	-0.6173940219	 2.0208841475	 0.6145362095	 0.128263
H	 1.0748457319	-1.7422611196	-0.7936183839	 0.110987
H	 2.0385290264	-0.1819269406	-0.8887741876	 0.112518
H	-2.5735549956	 0.9083333821	-1.0219754079	 0.117381
H	-3.1506080263	-0.7947230058	-1.3760205399	 0.114963
H	-2.8732280708	 0.3549089	 1.5146247884	 0.109045
H	-1.6897364596	-2.8242559875	-0.4145680336	 0.100772
H	-0.8048018585	-2.4302550377	 1.1037535317	 0.127192
