18
gdb 64680	4.65113	0.86046	0.8187	3.8715	83.23	-0.2757	0.0158	0.2915	1405.0343	0.145439	-364.788643	-364.779117	-364.778173	-364.823041	35.108	
C	-0.0679764911	 1.6890904587	 0.2252110062	-0.46549
C	-0.0583994606	 0.1823624975	 0.0726146282	 0.336842
C	-1.3778595395	-0.4269523366	-0.4083118491	-0.428926
C	-1.7461504078	 0.0048811733	-1.7532463133	 0.318068
C	-2.0338249115	 0.3693241311	-2.8616433302	-0.446207
C	 1.209270778	-0.5006434102	-0.340959522	-0.304842
C	 0.7081057103	-0.6635931626	 1.0907878253	-0.23803
C	 1.4156922572	-0.0434787503	 2.1743047672	 0.291701
N	 1.9810701945	 0.4597949285	 3.0498009545	-0.343258
H	 0.8922579418	 2.0619292717	 0.5888873298	 0.140078
H	-0.2814168296	 2.1610387481	-0.738273531	 0.138959
H	-0.8393652555	 2.0049171226	 0.9360769794	 0.128251
H	-1.3080658274	-1.5217959556	-0.3874468186	 0.130433
H	-2.1771030186	-0.1571281619	 0.2947373723	 0.140472
H	-2.2971735261	 0.685254236	-3.8407663114	 0.20228
H	 1.1528474081	-1.3775628747	-0.9763009966	 0.131149
H	 2.0940667527	 0.1081096561	-0.4861828889	 0.139061
H	 0.2761093952	-1.625425102	 1.3483843882	 0.129458
