19
gdb 104933	2.32496	1.40718	1.05921	2.4556	74.17	-0.2364	-0.0209	0.2155	1195.2124	0.154948	-460.145466	-460.135399	-460.134455	-460.179929	36.858	
C	 0.1406262678	 1.2564715434	 0.2154882384	-0.258043
O	-0.2430742323	-0.0549539299	-0.1872918578	-0.285277
C	 0.4884669133	-0.5785453689	-1.2389127703	 0.248633
C	 1.8925256161	-1.1487610511	-0.9429758107	-0.388585
C	 0.7667987156	-2.0922684188	-1.168604402	 0.342213
C	 0.1666574732	-2.879834738	-0.0277526499	-0.447908
O	 0.8577893399	-2.7889138584	-2.3811211179	-0.453542
C	 0.2901339056	 0.0338497731	-2.5790784986	 0.111791
O	-0.4400849242	 0.9730629828	-2.7918509269	-0.283916
H	 1.2064808498	 1.2944070095	 0.4813418338	 0.103569
H	-0.0653014141	 1.9874974121	-0.5709306611	 0.14614
H	-0.4544168894	 1.4924001125	 1.1002261354	 0.127529
H	 2.6428617463	-1.0693783108	-1.7219477382	 0.134663
H	 2.2494936889	-1.007363835	 0.0706349489	 0.133938
H	 0.1017241821	-2.2755517305	 0.8769693441	 0.142215
H	-0.8485415909	-3.2084357293	-0.2803194642	 0.117426
H	 0.7762136771	-3.7674788079	 0.1669789281	 0.129262
H	-0.0260976502	-3.0921407568	-2.6189875279	 0.287395
H	 0.8794748056	-0.4431197779	-3.3888860833	 0.092497
