18
gdb 23293	2.67421	1.40816	1.20598	1.4113	76.07	-0.2384	0.007	0.2455	1101.3278	0.147451	-439.012904	-439.004842	-439.003898	-439.045348	31.43	
C	-0.0723526002	 1.5123487311	-0.0327273186	-0.409242
C	 0.0599236482	 0.0044414426	 0.0802026047	 0.146505
O	 0.9019294957	-0.5191954785	-0.9938735524	-0.299224
C	 1.9356217519	-1.2098426578	-0.274586135	 0.010349
C	 1.1433534534	-1.9886851524	 0.8160500605	-0.254187
C	 0.8332554501	-0.5284024446	 1.309938949	-0.166787
C	 2.2571022747	-0.2412138887	 0.8600688845	 0.490762
N	 3.2177788007	 0.3859189857	 1.3831956437	-0.310657
O	 4.4017077297	 0.2327808037	 0.6280066621	-0.396131
H	 0.8977871927	 2.0011098911	 0.0920543816	 0.13507
H	-0.4704766713	 1.7801688451	-1.0156072435	 0.129303
H	-0.758736901	 1.8948906892	 0.7304236578	 0.113347
H	-0.9270772946	-0.4698024984	 0.0058324476	 0.07856
H	 2.6633338337	-1.6424118376	-0.9539501478	 0.105147
H	 0.2999856371	-2.5848392466	 0.4585901292	 0.109685
H	 1.7755558089	-2.5492413937	 1.5057454424	 0.119767
H	 0.4574988759	-0.2908684351	 2.3021028047	 0.091681
H	 5.0300593644	 0.757719465	 1.1355159295	 0.306055
