17
gdb 44565	3.10299	1.63406	1.45171	4.1514	71.95	-0.2462	0.0331	0.2794	946.4169	0.139164	-417.98829	-417.98158	-417.980635	-418.019427	27.173	
N	 0.3661895443	 0.9201247188	 0.628439028	-0.555583
C	 0.1312967992	-0.1870615438	 0.0914122013	 0.448168
O	 0.9235850822	-0.9878233959	-0.7097229851	-0.262236
C	-0.108635881	-2.0260921073	-0.7595337596	 0.108379
C	 0.1462319342	-3.2175787892	 0.1436005317	-0.066954
N	 0.7071331873	-2.8199744522	 1.4496830088	-0.316506
C	-0.7279920644	-3.1082039763	 1.3514216755	-0.030829
C	-1.5781508597	-1.845292866	 1.2764941969	-0.240079
C	-1.0799340955	-1.1011837005	 0.0211830606	-0.167404
H	 1.3213905331	 1.2289142238	 0.4403525744	 0.226226
H	-0.3352564266	-2.2971655847	-1.7917447905	 0.08841
H	 0.4226254321	-4.17507814	-0.284039857	 0.090108
H	 1.2003899414	-3.6077913653	 1.8606446304	 0.237524
H	-1.1242485932	-3.9917127668	 1.8430534337	 0.090881
H	-2.633392478	-2.1138616171	 1.1632585271	 0.104294
H	-1.4809915141	-1.2326227698	 2.1770627289	 0.136475
H	-1.8887762013	-0.6576323178	-0.5614750753	 0.109124
