18
gdb 8481	2.83899	1.94326	1.55464	1.9113	68.21	-0.2454	0.0748	0.3203	899.5276	0.152157	-384.908644	-384.900268	-384.899324	-384.940819	32.075	
C	 0.0017244441	 1.5781579705	 0.0101760722	-0.494031
C	-0.0264357808	 0.0789885281	 0.0719027556	 0.244607
C	 1.1607078054	-0.789408509	-0.3076122099	-0.393608
C	 0.5705085009	-0.9127372302	 1.0678835889	 0.351079
O	 1.2833910963	-0.6225754182	 2.2187468991	-0.467176
C	-0.6889192178	-1.7852750617	 1.019993043	-0.334964
C	-1.2969956376	-0.7907852105	-0.0281874588	 0.11618
O	-2.4984906712	-0.1639945005	 0.3592397264	-0.435682
H	 0.9279498838	 1.9674186363	 0.4440066898	 0.125412
H	-0.0654717948	 1.9374856127	-1.0231786838	 0.122447
H	-0.8379921358	 2.0128613319	 0.561835881	 0.113366
H	 1.0637160049	-1.5900057735	-1.039876372	 0.100686
H	 2.1033274048	-0.2510571956	-0.3476158039	 0.111489
H	 2.0168725849	-1.2432444366	 2.2899549909	 0.285357
H	-0.5669964773	-2.834482621	 0.7283112316	 0.090465
H	-1.2593524345	-1.7392447056	 1.9523107244	 0.101845
H	-1.4943234724	-1.2103226914	-1.0201166234	 0.082755
H	-2.3834751829	 0.1780050643	 1.2529827989	 0.279776
