15
gdb 92671	3.48949	1.26472	0.93922	7.0974	75.91	-0.2607	-0.0715	0.1892	1182.2254	0.113345	-416.870547	-416.862266	-416.861322	-416.903726	29.36	
C	-0.035467874	 1.4068208215	 0.0735992387	-0.345322
N	-0.0133820761	-0.0364534246	 0.0393760704	-0.102724
C	-1.1961299898	-0.8614808464	 0.0452048943	-0.213223
C	-0.6415901423	-2.2550526841	 0.0018568873	-0.201305
C	 0.6970963422	-2.2102704525	-0.0258864322	 0.095363
C	 1.6030833587	-3.3006649284	-0.0704446078	 0.247449
N	 2.3428585848	-4.18968563	-0.1067587985	-0.328166
C	 1.1511094774	-0.770051709	-0.002171135	 0.360625
O	 2.2820216336	-0.3415259354	-0.0159652773	-0.373741
H	 1.0011881898	 1.7478354101	 0.0595781021	 0.174562
H	-0.5607173187	 1.8191026782	-0.7962717849	 0.129857
H	-0.5230125611	 1.7774704953	 0.9832693161	 0.12985
H	-1.8092826398	-0.7013385439	 0.9455259491	 0.139596
H	-1.8460937861	-0.6614989702	-0.8207347966	 0.13963
H	-1.2639519686	-3.1390716705	-0.0052341058	 0.147548
