19
gdb 79774	3.04505	1.9343	1.75247	1.7536	77.37	-0.1948	0.0566	0.2513	881.0395	0.161872	-381.964375	-381.957697	-381.956753	-381.995258	27.617	
C	-0.3956820688	 1.514221341	 0.0176362131	-0.345192
N	 0.1325407681	 0.167037512	 0.0755499575	-0.043239
C	 1.0230996745	-0.4691601754	-0.8988877937	-0.041906
C	 2.5474820364	-0.0357794615	-0.8101108139	-0.01522
C	 2.8176383236	 1.0690574844	 0.2246191231	-0.250779
C	 2.4196636036	 0.0029125587	 1.2586569592	-0.015209
C	 0.8949450291	-0.4303258774	 1.1752269593	-0.041912
C	 1.3739103573	-1.5283228931	 0.1839913265	 0.001182
N	 2.8195685351	-1.0988847846	 0.2652799855	-0.173262
H	 0.332809226	 2.3363158627	 0.0468615958	 0.106009
H	-0.9773422229	 1.6198248039	-0.9054086322	 0.123368
H	-1.0856990638	 1.6531274861	 0.8579121335	 0.123373
H	 0.6041653513	-0.6534053807	-1.8910661649	 0.070192
H	 3.1262889628	-0.0859446462	-1.7351195659	 0.068344
H	 3.8923246128	 1.2632225414	 0.2873780621	 0.114342
H	 2.2852387071	 2.0168680219	 0.174025273	 0.104044
H	 2.8801048185	-0.0114376422	 2.2490933884	 0.068341
H	 0.3566488441	-0.5784095521	 2.1144703438	 0.070193
H	 1.0836623253	-2.5779142888	 0.1857073796	 0.077331
