20
gdb 55679	3.10946	1.07737	1.0583	2.8539	76.03	-0.244	0.024	0.268	1269.7031	0.168993	-440.278286	-440.268668	-440.267724	-440.312961	35.07	
C	 1.1100575603	 1.4292854385	-1.5545931007	-0.459842
C	 1.17680484	-0.0629576433	-1.7582992293	 0.380118
N	 2.0468865022	-0.7364872042	-2.3935498475	-0.517019
O	 0.1249151451	-0.6564391418	-1.1551763492	-0.28802
C	 0.0147327553	-2.0851615843	-1.2122968635	 0.379705
C	 0.9889845032	-2.7586612355	-0.2596129045	-0.45234
C	-1.4536684644	-2.5267923677	-1.0579909351	-0.119651
O	-1.3720515787	-3.3232523959	-2.2552762202	-0.280397
C	-0.1075943242	-2.7185120432	-2.6150328832	-0.100106
H	 1.9450702482	 1.929662814	-2.0472557443	 0.127582
H	 0.1695500696	 1.8213359546	-1.9531925532	 0.148703
H	 1.130535911	 1.6638880425	-0.4860201258	 0.147956
H	 2.7545981234	-0.1231856632	-2.7904607035	 0.22092
H	 0.8474811259	-2.3773352989	 0.7568652761	 0.116443
H	 0.80571026	-3.8372601338	-0.2508601705	 0.128143
H	 2.0189461461	-2.5797740624	-0.5717712564	 0.14867
H	-1.7029864605	-3.1247661032	-0.1743471153	 0.101247
H	-2.1610304598	-1.6928633794	-1.155160846	 0.100623
H	-0.2163741592	-1.9852182624	-3.4210082925	 0.104338
H	 0.6488025164	-3.4582015404	-2.8904378653	 0.112928
