19
gdb 97841	3.83782	0.70024	0.63996	1.9367	81.5	-0.2472	0.0259	0.2731	1759.296	0.157096	-422.96918	-422.958988	-422.958043	-423.006628	34.947	
C	-0.2026220518	 1.5117495958	-0.1965974579	-0.398958
C	 0.1070476932	 0.0333347566	-0.1026643785	 0.158365
O	 1.3493254503	-0.3182659345	-0.7562332559	-0.287541
C	 1.9256689756	-0.8245452415	 0.4581301775	-0.073325
C	 0.6248120742	-0.5428607149	 1.2602172865	-0.262664
C	 0.713630264	 0.3316809004	 2.4093064381	 0.114421
C	 0.7944170805	 1.0541416583	 3.3699708511	 0.074911
C	 0.9049392749	 1.9358400897	 4.5247936242	-0.215507
O	 0.0574213183	 1.4684163719	 5.5677169696	-0.408326
H	 0.5978447297	 2.1103548812	 0.2459746123	 0.125762
H	-0.3142706383	 1.7981312129	-1.2469567161	 0.124643
H	-1.1365882163	 1.7414543121	 0.3266459415	 0.121364
H	-0.7215169127	-0.5566438955	-0.5162300483	 0.078764
H	 2.204617831	-1.8818780152	 0.3783041733	 0.104569
H	 2.7970933487	-0.2429662524	 0.7798088174	 0.107874
H	 0.1003491604	-1.4613874602	 1.5370123954	 0.111938
H	 1.957457053	 1.9689703695	 4.8513977254	 0.116963
H	 0.6352687503	 2.9609438074	 4.2216853193	 0.116965
H	 0.1597119351	 2.0712193285	 6.3113631954	 0.28978
