26
gdb 119976	2.3408	0.87311	0.74338	1.3632	93.61	-0.2098	0.077	0.2868	1733.8704	0.23901	-369.591158	-369.579815	-369.578871	-369.628132	41.197	
C	 1.2498252566	 1.7449140806	-1.5155418455	-0.381594
C	 0.8092790177	 0.2801193475	-1.5733406368	-0.162411
C	 1.986802506	-0.7045900274	-1.5300188704	-0.197787
C	 1.5170636412	-2.1476456815	-1.5099294968	-0.028369
C	 1.3279694196	-2.9758829043	-2.744173272	 0.01013
C	 1.5847037413	-2.4690019411	-4.150934506	-0.203656
C	 1.8790832232	-3.6069538725	-5.1378855426	-0.377955
N	 2.3848724147	-3.2977101287	-1.7767197196	-0.1183
C	 3.788840559	-3.101496782	-2.1023445222	-0.314078
H	 1.8080764181	 1.9540680864	-0.5961118392	 0.114509
H	 1.9006233596	 1.9977562677	-2.3601774994	 0.113081
H	 0.3904471931	 2.4220784445	-1.5442243074	 0.11183
H	 0.131426132	 0.0675905972	-0.7362246382	 0.097798
H	 0.226236544	 0.1038490491	-2.4860396331	 0.100682
H	 2.6516591708	-0.507116738	-2.3762337948	 0.094207
H	 2.5812703709	-0.5128182029	-0.6254744312	 0.09622
H	 0.8252560603	-2.3378637744	-0.6865413248	 0.07938
H	 0.5183313945	-3.7085461052	-2.7199293869	 0.07847
H	 0.6905391676	-1.9251116831	-4.4835183917	 0.100601
H	 2.4025132331	-1.7438463167	-4.1740526716	 0.097533
H	 2.0078744828	-3.2246739909	-6.155265077	 0.110477
H	 2.7911197297	-4.1460764425	-4.8628874605	 0.122459
H	 1.0594798897	-4.333443304	-5.1543079089	 0.117538
H	 4.0201622569	-2.2600948448	-2.7711254146	 0.098581
H	 4.3460082715	-2.9480824736	-1.1720177149	 0.120272
H	 4.1716972361	-4.0148908791	-2.5697585442	 0.120381
