16
gdb 10415	2.71752	1.97218	1.43361	2.3922	65.25	-0.2418	0.0151	0.2569	912.0184	0.130158	-379.889484	-379.881316	-379.880372	-379.922175	29.052	
C	 0.0360805004	 1.4181514455	-0.03905392	-0.266443
O	-0.0033800318	 0.006363717	 0.1095400273	-0.274457
C	-1.2788503809	-0.5693143656	 0.0351741454	 0.28281
C	-1.8965072007	-0.6725158294	-1.401087986	-0.2211
N	-1.4197771496	-2.0698599928	-1.48615097	-0.310358
C	-1.1540621957	-2.1167977454	-0.0313023857	-0.207537
C	-2.1786544237	-0.0391564858	 1.0712934971	 0.23419
N	-2.8889737809	 0.3825327538	 1.8801112711	-0.346781
H	 1.0876288959	 1.7025414053	 0.0241548382	 0.141448
H	-0.3617087981	 1.7373933156	-1.0116405463	 0.116836
H	-0.5248692327	 1.9230954494	 0.7578796896	 0.137766
H	-2.9855182299	-0.5432116224	-1.397827296	 0.115506
H	-1.4561595425	 0.0000375357	-2.1443033952	 0.121382
H	-2.1109981284	-2.7333810384	-1.813739069	 0.228608
H	-0.1584115747	-2.4799114214	 0.2391153812	 0.131772
H	-1.9120646267	-2.6283580612	 0.5729276983	 0.116357
