18
gdb 105423	2.25337	1.30188	0.97554	2.6667	70.01	-0.2624	0.0048	0.2672	1236.9414	0.146109	-476.182111	-476.172868	-476.171924	-476.21682	32.936	
O	-0.2526566204	 1.5613690601	-0.4835711203	-0.418142
C	-0.0726496213	 0.2036370418	-0.1491121801	-0.098436
C	-1.408801754	-0.5008157858	 0.0579388065	 0.298904
C	-2.2430746201	-0.6598943625	-1.2217459794	-0.119116
O	-1.8845757623	-2.0597887433	-1.3035918113	-0.272037
C	-1.360278201	-2.0464533001	 0.0360459633	-0.132922
O	-2.1343705491	 0.1489770834	 1.1028765434	-0.242872
C	-1.7710693757	-0.1265038079	 2.3764378986	 0.10647
N	-2.2410115585	 0.5616431279	 3.322592531	-0.436002
H	-0.8163472811	 1.9496244111	 0.1964908907	 0.299141
H	 0.4577056309	-0.2661476538	-0.9834714355	 0.127459
H	 0.5499690877	 0.0804684274	 0.753639021	 0.088875
H	-3.3162926748	-0.5151904798	-1.0511040509	 0.117479
H	-1.9166468858	-0.0888978257	-2.0949229616	 0.127436
H	-0.3746189669	-2.5214793553	 0.1035469706	 0.11181
H	-2.0456102192	-2.5157122931	 0.7549300701	 0.108033
H	-1.0802555363	-0.974710037	 2.4668514995	 0.09941
H	-1.899580022	 0.2099843726	 4.2148044644	 0.234509
