20
gdb 65113	3.34251	1.26661	1.00862	1.1253	81.05	-0.2301	0.0284	0.2585	1231.1208	0.171711	-403.162881	-403.154061	-403.153116	-403.197643	32.506	
C	 0.051681765	 1.4996408322	-0.237970507	-0.463409
C	-0.0039122991	-0.0018726157	-0.0330869264	 0.218339
C	 1.2864043504	-0.8032265085	-0.1254590422	-0.282177
C	 0.6410474468	-0.597526193	 1.2094005838	-0.282428
C	-1.2229969289	-0.6961872367	-0.515921811	 0.394662
N	-1.4661984057	-1.9427063267	-0.4318292113	-0.3398
C	-2.7820263013	-2.1638750859	-1.0408846568	-0.185483
C	-3.2440327428	-0.7539718329	-1.495790304	-0.115047
O	-2.1551313936	 0.1085912989	-1.1035276627	-0.259992
H	 0.9921629134	 1.8955659704	 0.1560170362	 0.109459
H	-0.0101498476	 1.7615249775	-1.2983766273	 0.125928
H	-0.7717263121	 2.0045304	 0.2758948028	 0.125698
H	 1.2138859526	-1.7879056105	-0.5707607379	 0.135925
H	 2.1889817553	-0.2481874911	-0.3584939985	 0.111278
H	 1.0948884737	 0.100571904	 1.9048700402	 0.111192
H	 0.1362868555	-1.4444270512	 1.6578453672	 0.136341
H	-2.6998688767	-2.8654484255	-1.8785610329	 0.112677
H	-3.4673262846	-2.6116904544	-0.312564774	 0.112709
H	-3.3803301807	-0.6640035873	-2.5773631381	 0.117071
H	-4.1533263494	-0.4072319036	-0.9963420301	 0.117057
