19
gdb 63958	2.79239	1.63811	1.48681	2.3948	69.24	-0.2521	0.0695	0.3216	972.6912	0.160095	-460.168093	-460.160322	-460.159378	-460.199895	31.32	
C	-0.1467656356	 1.5766979236	-0.0457010877	-0.463984
C	 0.018279951	 0.0572238584	-0.0292594652	 0.430829
O	-1.2531362693	-0.5629195346	 0.1436288262	-0.484266
C	 0.7898294538	-0.5250723655	-1.2637678441	-0.305067
C	 1.8998304274	-1.3168408726	-0.5490974132	 0.193537
O	 2.8763100563	-0.391415246	-0.0597396366	-0.280209
C	 2.2846970256	 0.1393350492	 1.1384260795	-0.095199
C	 0.8941861128	-0.5168191078	 1.1170781564	-0.002507
O	 1.2552724187	-1.8113953707	 0.6045920343	-0.247254
H	 0.7978598949	 2.0982749229	-0.2200456721	 0.12733
H	-0.8290698389	 1.865853441	-0.8536051221	 0.111029
H	-0.5794204336	 1.9291735594	 0.895894799	 0.124958
H	-1.8038262291	-0.3220779159	-0.6089218865	 0.274242
H	 0.1360286281	-1.1912282063	-1.8329850006	 0.104102
H	 1.1999396375	 0.2401730711	-1.9257479222	 0.10684
H	 2.3944016262	-2.1152860087	-1.1012789829	 0.093328
H	 2.8581554051	-0.1868551814	 2.0135907617	 0.108964
H	 2.2750684302	 1.231580649	 1.1041774646	 0.105252
H	 0.3777690289	-0.6079472951	 2.0705271516	 0.098073
