16
gdb 7263	4.50511	1.1289	0.95657	1.6336	65.99	-0.267	-0.0293	0.2377	1189.9657	0.129793	-417.098275	-417.089532	-417.088588	-417.132091	30.881	
C	 0.0582175288	 1.4366944947	-0.4434339195	-0.395669
C	 0.0524108074	 0.0251933754	 0.1645871322	 0.038176
O	 0.7904336653	-0.0018384673	 1.3554279388	-0.433762
C	-1.3734846704	-0.4562048382	 0.4619951711	 0.404938
O	-1.7372565334	-0.6463230841	 1.6090275996	-0.375213
N	-2.1882271085	-0.651857145	-0.6246084552	-0.306415
C	-3.5084904268	-1.0780565035	-0.543329893	 0.101149
N	-4.1848669228	-1.2396804061	-1.6041089138	-0.457935
H	 1.0938837134	 1.7592489691	-0.5737041631	 0.141317
H	-0.4379301162	 1.4705061653	-1.4189173045	 0.109053
H	-0.4397863311	 2.1407520306	 0.229412486	 0.133991
H	 0.4979617399	-0.6764215019	-0.5601793248	 0.093568
H	 0.1492239357	-0.2284437575	 2.0490929065	 0.295591
H	-1.8316700044	-0.495156018	-1.5572959779	 0.268363
H	-3.8285214197	-1.2340078569	 0.4882438006	 0.144808
H	-5.127371867	-1.5535420065	-1.380545583	 0.238042
