17
gdb 76104	2.43723	1.26382	1.01895	5.1889	74.21	-0.2465	0.0211	0.2676	1205.3614	0.135934	-417.967194	-417.958414	-417.95747	-418.001339	31.914	
O	-0.004866267	 1.4170138159	-0.0107640467	-0.399054
C	-0.0138326441	 0.0315157782	 0.0091442871	 0.083298
C	-0.518200292	-0.6925950613	 1.2618433831	-0.260875
C	-0.8621006219	 0.0989385042	 2.4053732161	 0.297885
N	-1.1012012481	 0.7473130842	 3.3336741835	-0.339269
C	-1.3577873848	-0.6252078813	-0.0261849264	-0.082946
C	-2.6140896727	 0.1792688343	-0.0923136045	 0.027143
C	-3.5286873323	-0.0047999458	-1.2479346503	-0.249892
N	-3.9179420704	-0.4814723334	 0.0896351211	-0.318783
H	 0.6383194154	 1.7381802071	 0.6314965252	 0.305813
H	 0.8079991847	-0.4527590344	-0.517676333	 0.108206
H	-0.0613867854	-1.6471480003	 1.5010198416	 0.13599
H	-1.4032529862	-1.5721414284	-0.5586869501	 0.101689
H	-2.5535756356	 1.1592665399	 0.3679858257	 0.125506
H	-4.1040499935	 0.8367593417	-1.6221685163	 0.127485
H	-3.2515311236	-0.7340023212	-2.0057698783	 0.109248
H	-3.7947871823	-1.4899724894	 0.1491243122	 0.228555
