20
gdb 95772	3.19525	1.1851	0.91626	1.0867	77.38	-0.2381	0.0148	0.2529	1290.1831	0.170949	-440.297836	-440.288723	-440.287779	-440.331688	34.19	
C	 0.0190256579	 1.5071495561	-0.2143449601	-0.443932
C	-0.0292865974	 0.0253609415	 0.031128445	 0.371295
N	-1.1192615903	-0.6137456341	-0.0123746841	-0.278428
C	-1.1897769343	-2.0637295689	 0.0475507872	-0.180453
C	-0.5825429984	-2.7556730928	 1.2798421866	 0.108634
O	-0.9460340403	-4.1300042651	 1.3000953684	-0.433775
C	 0.9393355146	-2.7131652421	 1.2728247277	-0.195364
C	 1.494255709	-1.3009075852	 1.3643804409	-0.088676
O	 1.2397694253	-0.4715502047	 0.2248830066	-0.26439
H	 0.7107685431	 1.7198203943	-1.0364082875	 0.139801
H	-0.9733005994	 1.8826244196	-0.460640881	 0.139645
H	 0.4066914828	 2.0286771424	 0.667665379	 0.130261
H	-2.2525217923	-2.3343187817	 0.0026091914	 0.086164
H	-0.7193549757	-2.4969678319	-0.847332562	 0.11514
H	-0.9517614601	-2.2435081057	 2.1850231873	 0.067936
H	-1.9072580727	-4.1846409853	 1.2999804712	 0.283352
H	 1.3150400281	-3.2879460525	 2.1272765418	 0.109218
H	 1.3097915241	-3.2018861078	 0.3640322596	 0.113307
H	 1.1071572876	-0.7985021771	 2.2622260209	 0.102807
H	 2.5841209383	-1.3311380093	 1.4408513211	 0.117458
