17
gdb 82354	3.34812	1.36112	1.13329	2.388	71.96	-0.2482	0.0139	0.2621	1070.4977	0.13777	-417.993528	-417.985767	-417.984823	-418.025874	29.83	
O	-0.0191723628	 1.4528056106	-0.0206092061	-0.422301
C	-0.0051858529	 0.0411303501	 0.0118841686	 0.081167
C	-1.42065632	-0.5062791401	-0.1467484709	-0.045921
C	-2.3560048121	 0.2393826642	-1.020503462	-0.232304
N	-1.6488746685	-0.9351284782	-1.5502676885	-0.10241
C	-0.4213515455	-0.61283951	-2.3071956624	-0.183878
C	 0.7028135658	-0.5774390498	-1.2386466751	-0.160653
C	 1.9025604015	 0.1526689911	-1.6219503625	 0.251841
N	 2.8399287014	 0.7764334811	-1.8864995384	-0.32513
H	 0.892779405	 1.7685005221	-0.0220944713	 0.300702
H	 0.4589531913	-0.325007569	 0.9364799806	 0.088196
H	-1.790955999	-1.1744190249	 0.6244384077	 0.100399
H	-3.4268124097	 0.1073129132	-0.8954142257	 0.12034
H	-2.0444262346	 1.2252950156	-1.3512996193	 0.139781
H	-0.2370337463	-1.3881883524	-3.0539747946	 0.127608
H	-0.4943882805	 0.3491154548	-2.8251639195	 0.128181
H	 0.9811913772	-1.6086008484	-0.9938902405	 0.134381
