10
gdb 431	5.55098	4.00493	2.53231	3.0125	39.11	-0.2674	-0.0058	0.2616	481.5842	0.072889	-342.315546	-342.309972	-342.309028	-342.344721	18.879	
O	 0.0848463736	 1.4165038163	 0.1788288254	-0.418746
C	 0.0076269495	 0.0229387891	 0.0619835616	-0.047499
C	-1.416068682	-0.5133398473	-0.1458773132	-0.086571
O	-1.0172927447	-1.1058068438	-1.4277899499	-0.234396
C	 0.243932931	-0.5756288792	-1.3422449429	 0.419797
O	 1.1165257493	-0.6109512082	-2.1476303444	-0.319023
H	 0.996051319	 1.681279877	 0.0097899646	 0.303995
H	 0.5743781626	-0.5031700057	 0.8424342708	 0.109265
H	-1.7674846955	-1.2806401212	 0.5448538965	 0.131067
H	-2.1626639229	 0.268686953	-0.2922062485	 0.142111
