19
gdb 98859	3.05269	1.07152	0.932	2.7421	72.26	-0.2605	-0.0382	0.2223	1303.8324	0.1583	-460.165395	-460.156307	-460.155363	-460.199939	33.704	
O	 0.0875935756	 1.3885837881	 0.1120779764	-0.418891
C	 0.0255278194	-0.0033598958	 0.0692867543	-0.132338
C	-1.4005936912	-0.5043963349	-0.086563377	 0.377249
O	-2.294900579	 0.3160994043	-0.2303000558	-0.365407
C	-1.6442420636	-1.9835161377	-0.0413347883	-0.183092
C	-2.2879921408	-2.4197960028	 1.3271330833	-0.230442
C	-3.6863157646	-2.4058750324	 0.6598696942	-0.25254
C	-2.9894814782	-2.4311276797	-0.7270227686	 0.166077
O	-3.5048137835	-1.6880899476	-1.7858305986	-0.431623
H	-0.8216377279	 1.6879429997	-0.0480702264	 0.295165
H	 0.6085729827	-0.4139050386	-0.7745473106	 0.121254
H	 0.4549731987	-0.4513537391	 0.9805386691	 0.120772
H	-0.73629178	-2.5215640294	-0.327177832	 0.085149
H	-1.9539053849	-3.4214623698	 1.6049877458	 0.116384
H	-2.1332056573	-1.7512033085	 2.1761797633	 0.116052
H	-4.3746111125	-3.2199137751	 0.8961106821	 0.104484
H	-4.193436804	-1.450690094	 0.8161598077	 0.120103
H	-2.8783704857	-3.4570448272	-1.0907399802	 0.09594
H	-3.5370538732	-0.7683963595	-1.4875169387	 0.295703
