18
gdb 36239	4.30183	1.1464	1.07501	2.1359	80.31	-0.2259	0.054	0.2799	1156.3377	0.147769	-364.693549	-364.685891	-364.684946	-364.726127	30.277	
C	 0.0054333735	-1.1724128976	 0.2307379641	-0.452903
C	-0.0226345848	 0.0153470854	 0.0509259999	 0.322827
C	-0.0411200257	 1.4567392228	-0.1668310886	-0.399772
C	 1.3444250517	 2.1038629492	-0.051172932	 0.070343
C	 1.5038964305	 3.6126505878	 0.0218540002	-0.117575
C	 1.4133577571	 3.9803528335	 1.520741897	-0.088009
C	 1.206336086	 2.6717081992	 2.2617284511	-0.180518
N	 2.1196525065	 1.9918716401	 1.2593142693	-0.174339
C	 2.6691581143	 3.4037738	 0.9391981515	-0.027444
H	 0.0311455183	-2.2209840812	 0.3945313654	 0.195179
H	-0.4177448906	 1.6725198787	-1.1759938297	 0.130826
H	-0.7497429461	 1.9312544489	 0.5204347132	 0.131378
H	 1.9965899819	 1.6823137487	-0.8219697768	 0.092923
H	 1.3839191261	 4.3649514081	-0.7485001399	 0.09004
H	 1.2265818241	 5.0009040083	 1.8317833513	 0.091441
H	 1.7038884279	 2.6664963197	 3.2348254868	 0.111744
H	 0.2088883585	 2.234669431	 2.3668420716	 0.102351
H	 3.7107844011	 3.6890314673	 0.9226438256	 0.101509
