19
gdb 117108	3.81547	0.85433	0.7338	0.8207	79.24	-0.241	0.0177	0.2587	1563.1482	0.157286	-419.171572	-419.161114	-419.160169	-419.207736	37.238	
C	-0.9116570482	 1.1822794118	 0.4902499959	-0.39113
C	-0.1800764183	-0.0625393018	 0.0256257217	-0.031341
O	 0.5505479609	-0.582233138	 1.1496094952	-0.255988
C	 1.2790104814	-1.696835083	 0.9371913809	 0.401728
N	 1.3379828775	-2.2601305053	-0.1946555112	-0.537162
C	 1.9346458903	-2.1040108727	 2.2701556868	-0.263067
N	 0.9555496128	-2.3903192467	 3.3346470645	-0.505624
C	 2.8408750764	-3.2354418409	 2.0939094481	 0.350665
C	 3.5721704503	-4.1746227594	 1.9315440723	-0.435543
H	-0.2080931165	 1.9381593794	 0.8507082006	 0.128533
H	-1.4803753558	 1.6097248061	-0.3408188309	 0.123525
H	-1.6097756878	 0.9487485218	 1.2995237392	 0.124456
H	-0.8668345127	-0.83346026	-0.3391841307	 0.120346
H	 0.5238538658	 0.1508397178	-0.7851826381	 0.123704
H	 1.9427062029	-3.0791042476	-0.1450651541	 0.23232
H	 2.5169563495	-1.2355518722	 2.6065097282	 0.133288
H	 0.3113693198	-1.6052173186	 3.3807692141	 0.241445
H	 0.4044281964	-3.2008516185	 3.0632715169	 0.234736
H	 4.2296404954	-4.9991441422	 1.8033831909	 0.205109
