18
gdb 54253	2.62534	1.42865	1.30345	2.9728	73.4	-0.225	0.0051	0.23	1068.3684	0.14688	-439.129846	-439.120877	-439.119933	-439.163646	33.518	
C	 0.0939979583	 1.4895604829	 0.086235917	-0.412411
C	-0.0652134858	-0.0353033026	 0.0299369889	 0.243214
O	 0.5817472316	-0.5519082696	-1.1491407674	-0.321061
C	 1.6053707641	-1.4865434944	-0.7961450791	-0.138744
C	 1.5606433111	-1.5630358526	 0.7028235845	-0.098252
C	 0.6181138064	-0.7542667599	 1.168327387	-0.100784
C	-1.5756371731	-0.3754042004	 0.0296678511	 0.365617
N	-1.9951132482	-1.0701444177	-1.0543710711	-0.52259
O	-2.2902039062	-0.0330520765	 0.9538119492	-0.388581
H	 1.149624969	 1.7536084029	 0.1894504354	 0.115469
H	-0.2930243083	 1.9404899071	-0.8323367409	 0.124514
H	-0.4678608581	 1.8872992221	 0.9338369927	 0.144785
H	 1.4044155765	-2.4575059534	-1.2741676609	 0.107841
H	 2.5756489286	-1.132655323	-1.1764634308	 0.112452
H	 2.2170423787	-2.2004745422	 1.2811756498	 0.111653
H	 0.3233377785	-0.5953539388	 2.196075086	 0.126333
H	-1.3483277177	-1.2480479588	-1.8037298329	 0.270747
H	-2.9733142154	-1.2860302252	-1.1475968084	 0.259798
