18
gdb 88736	3.37137	1.00815	0.88359	1.8383	74.8	-0.2565	-0.0447	0.2118	1347.0131	0.145734	-439.040054	-439.030971	-439.030026	-439.074713	32.51	
C	-0.0916690744	 1.4854911958	-0.1228395251	-0.397825
C	-0.0343596203	-0.0015072777	 0.1318570704	 0.008425
N	 1.2430540755	-0.684606639	-0.1137293383	-0.349127
C	 0.7022965328	-0.6475510995	 1.2587525516	-0.072314
C	 1.5095223027	 0.1278113964	 2.2428619106	 0.072558
O	 0.9816410843	 0.2525845128	 3.5529215868	-0.229661
C	 2.1835738016	-0.4999405623	 3.4199950109	-0.05008
C	 2.123143375	-1.9741754906	 3.660607213	 0.144532
O	 1.1192938335	-2.6410853418	 3.6355225728	-0.252993
H	 0.8530017888	 1.9728101529	 0.128122425	 0.125819
H	-0.2914692987	 1.6806817488	-1.1816976638	 0.12318
H	-0.8910414818	 1.9502841137	 0.4636999528	 0.125885
H	-0.9367602076	-0.5354468204	-0.1648600758	 0.091055
H	 1.0989306643	-1.6035188305	-0.5222663136	 0.23807
H	 0.2639015322	-1.5502455697	 1.6727420092	 0.123178
H	 1.9945824579	 1.0228887552	 1.8544805084	 0.107656
H	 3.0819351592	-0.0132345762	 3.8027505194	 0.106824
H	 3.119272245	-2.4308699277	 3.8560688559	 0.084819
