13
gdb 129589	2.09614	1.88527	0.9932	2.4622	70.39	-0.2124	0.0045	0.217	1089.2331	0.088499	-452.716034	-452.707886	-452.706942	-452.748459	30.864	
N	 0.0269568108	 1.340859817	-0.089401408	-0.601949
C	-0.0596640173	-0.0146236353	-0.057787521	 0.426376
C	-1.1536865224	-0.8560420834	-0.0513198106	-0.105332
C	-2.5125017945	-0.4991988438	-0.0105014966	 0.165514
C	-3.6684257322	-0.1594516979	 0.0315657852	-0.409451
C	-0.530773768	-2.1419602759	-0.0861483373	 0.381813
O	-1.1968266646	-3.3013210761	-0.0942897031	-0.410857
N	 0.7770196066	-2.0971750227	-0.1056899194	-0.276385
O	 1.0801068598	-0.7042460183	-0.087367078	-0.219616
H	 0.8944538298	 1.7410388271	 0.2340328703	 0.27414
H	-0.8066171377	 1.8332893056	 0.1935650694	 0.277786
H	-4.6917295583	 0.1213914347	 0.0586347753	 0.185558
H	-0.544254902	-4.0145307009	-0.1175982562	 0.312404
