19
gdb 102746	2.83683	1.07427	0.88163	2.1195	78.31	-0.2518	0.0311	0.2829	1355.2485	0.156439	-422.951288	-422.941607	-422.940662	-422.986399	35.657	
O	-0.2863298506	 1.4752079031	 0.6528401988	-0.425085
C	-0.095927993	 0.139890874	 0.2442192233	-0.048478
C	-1.4438934626	-0.5512106697	-0.0447328502	-0.12205
O	-2.3396568786	-0.3456357828	 1.05945384	-0.267979
C	-2.1283735294	-1.2034915451	 2.1471102966	 0.1502
C	-1.220616947	-0.7885339941	 3.2786056638	-0.293422
C	-2.7270411319	-0.771034862	 3.4445108147	-0.29517
C	-2.0913176328	-0.0213277151	-1.2419589823	 0.341871
C	-2.5912869671	 0.4012507777	-2.2484801976	-0.435459
H	-1.1195036582	 1.4884466172	 1.1408146683	 0.290417
H	 0.5147757625	 0.143191636	-0.6641309026	 0.116684
H	 0.4358259525	-0.444195525	 1.0100561331	 0.094908
H	-1.2675867662	-1.6299516046	-0.1773535559	 0.101685
H	-2.1702319376	-2.2596858144	 1.8816481566	 0.093937
H	-0.6450790911	-1.5534278924	 3.7886753549	 0.117403
H	-0.720044593	 0.1686290131	 3.1845501314	 0.129577
H	-3.2141496234	 0.1973907916	 3.4511840388	 0.129355
H	-3.1977870838	-1.5199332569	 4.070829077	 0.120162
H	-3.0392895388	 0.7800348792	-3.1338120385	 0.201445
