20
gdb 37964	2.62428	1.89422	1.39933	0.8995	77.55	-0.2246	0.0821	0.3067	981.4489	0.174549	-403.102094	-403.095067	-403.094122	-403.13319	29.097	
C	 0.0122430799	 1.5673908514	-0.0373649675	-0.287384
C	 1.5360407778	 1.4536469908	-0.0681860866	-0.040132
C	 2.0611955151	 0.778046397	 1.1346403557	-0.003477
C	 1.500220696	 0.9224356574	 2.5473916125	-0.244693
C	 0.5770320509	-0.2037736503	 3.0210670439	-0.072874
O	-0.700292378	-0.1596188151	 2.4139265705	-0.238598
C	-0.7576437369	-0.7273449773	 1.1224584324	-0.101976
C	 0.0012976171	 0.0181255354	 0.0367363387	 0.051549
N	 1.5123978199	-0.0685236793	 0.0426121574	-0.177329
H	-0.4099653676	 2.1021365988	 0.8182396594	 0.113533
H	-0.4260091931	 1.9624803541	-0.9547362445	 0.107894
H	 2.1794893838	 1.9574081609	-0.783161498	 0.091247
H	 3.14285488	 0.6617528338	 1.1187781714	 0.096016
H	 2.3477146979	 0.9764494731	 3.240880293	 0.100995
H	 0.9545104916	 1.8671390868	 2.6546877453	 0.114384
H	 1.0489283128	-1.1850632632	 2.8549661703	 0.096436
H	 0.3998635479	-0.0928308996	 4.0963071792	 0.103733
H	-0.3943633926	-1.7694541302	 1.1424570038	 0.096609
H	-1.8218994088	-0.7492540114	 0.8606802564	 0.106589
H	-0.3137302739	-0.4082486932	-0.9220714732	 0.087478
