19
gdb 56276	3.92788	0.81174	0.70636	3.3195	73.1	-0.2358	0.0577	0.2936	1583.9988	0.158718	-456.353023	-456.343397	-456.342452	-456.389221	34.286	
N	 0.6171277092	-0.7031618836	 1.2770523959	-0.563627
C	 0.1057562232	-0.3919972659	 0.0471726188	 0.500239
O	 0.6678762398	 0.2640459471	-0.7976138136	-0.39706
O	-1.1187966559	-0.9556970137	-0.0997204646	-0.261544
C	-1.7266571869	-0.7593692064	-1.3870778999	-0.050377
C	-3.0932213385	-1.4193061763	-1.3702773856	-0.164037
N	-2.9901144945	-2.8719162571	-1.3577741024	-0.059443
C	-2.9514528702	-3.5140012364	-0.0481130518	-0.205649
C	-4.1687960547	-3.6000736856	-0.8997365231	-0.224185
H	 1.412401818	-0.1642979609	 1.5734158999	 0.268
H	-0.003153114	-1.0570684088	 1.9850376664	 0.261906
H	-1.8139906119	 0.3132222021	-1.586061644	 0.116546
H	-1.0926854714	-1.2019568474	-2.1603507001	 0.131186
H	-3.6764815681	-1.0270023783	-0.5173011747	 0.086203
H	-3.6177193122	-1.1250027505	-2.2874156716	 0.110182
H	-2.2768780038	-4.3604857442	 0.0413627955	 0.11718
H	-3.0009131662	-2.8752829601	 0.8309088436	 0.11004
H	-5.0368246341	-3.021888444	-0.5854620589	 0.107061
H	-4.4028126378	-4.5095031699	-1.4456507797	 0.117378
