21
gdb 96514	2.20013	1.64822	1.09872	1.9583	78.45	-0.2339	-0.0197	0.2142	1168.2134	0.183105	-424.256275	-424.247397	-424.246453	-424.289872	33.907	
C	 0.7056228564	 1.416824662	-0.3785364188	-0.397968
C	-0.0937657582	 0.2323369597	 0.1628490921	 0.021518
O	-0.4702152899	-0.7042585748	-0.8354379641	-0.25792
C	 0.5562625948	-1.5546026706	-1.3387369046	-0.083224
C	 0.5553836917	-2.9158347564	-0.6409606496	-0.184838
C	 0.9910009528	-2.8693173871	 0.827617601	-0.20444
C	 0.1920017687	-1.8672912268	 1.6929496931	-0.280717
C	 0.5722322128	-0.426358309	 1.3855819629	 0.344728
O	 1.3511477898	 0.1899639937	 2.0769229454	-0.309356
H	 1.6720611954	 1.1015698536	-0.7822371614	 0.122121
H	 0.140357616	 1.9129326252	-1.1711406475	 0.119086
H	 0.9045912071	 2.1261728537	 0.4268153501	 0.140243
H	-1.055465692	 0.6098722957	 0.5427134087	 0.111473
H	 0.3509917609	-1.6843600746	-2.4070319747	 0.108232
H	 1.5432977353	-1.0776142192	-1.2545335238	 0.098936
H	-0.4589148361	-3.3274345212	-0.7135266922	 0.107682
H	 1.2147067652	-3.5948467096	-1.1959723258	 0.09619
H	 0.8797680502	-3.8665470028	 1.2664009371	 0.105446
H	 2.0577891936	-2.6204874749	 0.8958725754	 0.111438
H	-0.8807584106	-2.015875706	 1.5250168282	 0.113971
H	 0.415810916	-2.0333166905	 2.7497637286	 0.117398
