17
gdb 95949	2.20655	1.61577	1.33316	1.7531	64.03	-0.2524	-0.0375	0.2149	1019.0553	0.13511	-496.101152	-496.092731	-496.091787	-496.134369	31.645	
O	-0.1291658318	 1.4008858712	 0.198852437	-0.444158
C	-0.102907119	 0.0044254317	-0.0521724287	 0.068482
C	 0.5781861364	-0.7574774891	 1.0781657327	-0.133761
O	-0.3878261969	-0.6943878493	 2.1216630798	-0.266076
C	-1.6252267001	-1.0727249244	 1.5082049411	-0.138108
C	-1.5812637188	-0.557429991	 0.0378308854	 0.247606
O	-2.5273649451	 0.4385391961	-0.2538380966	-0.485464
C	-1.7485406196	-1.6761380241	-0.9785099013	 0.119627
O	-1.2804301719	-2.7797082977	-0.8543668414	-0.257034
H	-0.2334952017	 1.5030401493	 1.1556561184	 0.29968
H	 0.3517561346	-0.134124126	-1.0348331377	 0.104204
H	 0.784559181	-1.7949048839	 0.7796489619	 0.128105
H	 1.4984981794	-0.2796644767	 1.4220077232	 0.122331
H	-1.7299928648	-2.1643686648	 1.5257781266	 0.120431
H	-2.4450812677	-0.6054095819	 2.0555032205	 0.125082
H	-2.043658905	 1.2792153774	-0.2239220585	 0.289904
H	-2.329126269	-1.3666522668	-1.8737907422	 0.09915
