16
gdb 26579	2.36351	1.83799	1.0472	2.83	74.9	-0.2501	-0.0553	0.1948	1096.7171	0.123694	-437.961849	-437.953266	-437.952322	-437.995854	30.489	
C	 0.1045976889	 1.5274735162	-0.2404408654	-0.470637
C	-0.0339841902	 0.0389662256	-0.1110140587	 0.231446
C	-1.2041177977	-0.6349030195	 0.0826903658	 0.044621
C	-2.5795508716	-0.0399301334	 0.2054760127	-0.483642
C	-1.1734259109	-2.0871487743	 0.188845509	 0.398472
O	-2.1056866894	-2.8235444769	 0.3583357521	-0.331452
O	 0.1048369135	-2.6717016356	 0.0770912536	-0.194751
C	 1.1763323844	-1.8941787711	-0.1124648916	 0.129541
N	 1.1890295445	-0.6223196187	-0.2102176052	-0.325811
H	 0.7845119966	 1.8964746261	 0.5349007014	 0.150078
H	 0.572478387	 1.765242566	-1.2017707763	 0.150074
H	-0.8405860915	 2.0622864368	-0.1654376231	 0.130567
H	-2.5774595988	 1.0461534535	 0.1219205302	 0.124121
H	-3.2399639093	-0.4487287461	-0.566440422	 0.149176
H	-3.0279637472	-0.3158583234	 1.1656491439	 0.14914
H	 2.0889764316	-2.4795836852	-0.1795400963	 0.149057
