23
gdb 95077	2.21286	1.87873	1.26515	1.5323	84.25	-0.2312	0.0795	0.3107	1106.1001	0.207181	-388.301514	-388.293033	-388.292089	-388.333766	34.721	
C	 0.0298686456	 1.5974351589	-0.0898005707	-0.415164
C	 0.0306470847	 0.070621503	 0.0448483863	 0.01255
C	 0.6073505169	-0.5887052842	-1.2378383882	-0.22211
C	 1.175613466	-2.0054984875	-0.9917287463	-0.212565
C	 1.6827603265	-2.0965011281	 0.4464561519	 0.099867
C	 2.2778687993	-0.7659761026	 0.9487041331	-0.300506
C	 0.7937866028	-0.4629050423	 1.2793756017	 0.408889
C	 0.4504892126	 0.20053726	 2.5945538084	-0.478207
O	 0.5349209994	-1.9059462977	 1.3186790351	-0.329018
H	 1.0519195812	 1.9940418018	-0.12478617	 0.111783
H	-0.4688810046	 1.8994715319	-1.0170281921	 0.113727
H	-0.4916009864	 2.0843597716	 0.7392365467	 0.115387
H	-1.0030134568	-0.2708067683	 0.1862067849	 0.079883
H	-0.1533364427	-0.603258503	-2.0250271714	 0.095666
H	 1.4123100974	 0.0522881506	-1.6172591	 0.096795
H	 0.4019150605	-2.7711450267	-1.1148612011	 0.1072
H	 1.9733102378	-2.2288219178	-1.7102982283	 0.089424
H	 2.2134474765	-3.0279609576	 0.6633422551	 0.068886
H	 2.8703421482	-0.8981836432	 1.8560241797	 0.101159
H	 2.8094553345	-0.1220719454	 0.2447905729	 0.0953
H	 0.8101436129	 1.2335761557	 2.6214087806	 0.119569
H	-0.633150772	 0.2107843114	 2.7560478823	 0.12127
H	 0.9130603697	-0.3500743705	 3.4180717993	 0.120215
