18
gdb 46919	3.30801	1.40003	1.0845	3.5665	72.33	-0.2374	0.0281	0.2655	1103.2318	0.149956	-439.098022	-439.090367	-439.089423	-439.130198	30.055	
O	 0.018883945	-0.0842034114	 0.346157881	-0.367951
C	 0.0096070295	 1.1105536539	 0.1068446283	 0.361472
C	-1.3527543345	 1.7749045098	-0.161848829	-0.184291
O	-1.4103141133	 3.1753016142	-0.3629089396	-0.243907
C	-0.7950281105	 3.5778587489	-1.5495759263	 0.118401
C	-0.1638481412	 4.9325058988	-1.5412235426	-0.333995
C	 0.7072132738	 3.6911795436	-1.5051722272	-0.046665
C	 1.3290893898	 3.2727872895	-0.1876611026	-0.188438
N	 1.1588180217	 1.8458253401	 0.0757489765	-0.306296
H	-1.790750741	 1.2333730897	-1.0133725202	 0.124626
H	-1.9749227107	 1.5604448568	 0.7108443497	 0.143487
H	-1.2801574456	 3.219394375	-2.457568354	 0.091984
H	-0.1961016963	 5.5170151764	-2.4532538472	 0.121056
H	-0.2536420553	 5.5097058814	-0.6272962373	 0.129047
H	 1.2650569507	 3.4289476275	-2.3987721822	 0.094727
H	 2.4045322815	 3.469244727	-0.1931460328	 0.114679
H	 0.9002086242	 3.8651647268	 0.6271117293	 0.125207
H	 1.9759799224	 1.2959252318	 0.296962306	 0.246857
