20
gdb 65392	2.0971	1.54653	1.09284	3.848	80.55	-0.2477	0.0094	0.2571	1184.3316	0.169596	-403.131442	-403.12222	-403.121276	-403.165441	34.378	
C	 0.0112895334	 1.6306677424	-0.524813399	-0.447603
C	 0.0522602708	 0.1789562001	-0.085093025	 0.263088
C	 1.1869116473	-0.7025570282	-0.5638582432	-0.275354
N	 1.1717957856	-0.173675255	 0.7735040401	-0.071792
C	 1.2993717046	-0.8579661544	 1.9579046977	 0.130804
O	 1.9893547582	-1.8377782113	 2.1206628411	-0.308289
C	-1.3079168652	-0.4411486667	 0.1023369699	-0.027858
C	-1.5751363748	-1.68341474	 0.9088250863	-0.302414
C	-2.0724760313	-0.3458576465	 1.4012428907	-0.275606
H	 1.0212120545	 2.0254447037	-0.657292319	 0.128395
H	-0.5300334219	 1.7284605059	-1.4717676268	 0.122578
H	-0.5047082859	 2.2439259091	 0.2210129573	 0.128656
H	 0.9917560809	-1.766592386	-0.6727123678	 0.134947
H	 1.9405971368	-0.294891954	-1.2334004373	 0.122331
H	 0.7582566214	-0.3575183504	 2.7837637766	 0.083659
H	-1.9122196923	-0.3322793774	-0.7954982381	 0.09459
H	-2.2997790855	-2.3865720789	 0.513667426	 0.11765
H	-0.7576337975	-2.1545728598	 1.4418543757	 0.147248
H	-1.5682128544	 0.0937298668	 2.2554744523	 0.117453
H	-3.1357908349	-0.1378112695	 1.3608459725	 0.117519
