17
gdb 38108	2.68056	2.29974	1.69586	1.5417	77.03	-0.2082	0.0042	0.2124	847.8182	0.138076	-384.645762	-384.639486	-384.638542	-384.675815	27.245	
C	-0.0985950195	 1.4752297121	 0.0778287592	-0.40967
C	 1.3141959307	 0.8869223892	 0.0249673113	-0.075707
C	 2.3008230262	 0.3555774866	 1.0102890935	-0.096916
C	 2.1752135321	-0.9204374012	 1.4039448923	-0.061644
C	 0.8685327997	-1.6582411292	 1.0998817532	-0.028993
O	-0.1506280633	-0.6577802919	 1.1698188905	-0.264109
C	 0.0653161912	 0.0063202045	-0.0606962039	 0.373897
C	 0.1936939885	-1.1039529935	-1.0578984577	-0.178325
C	 0.7426263545	-2.1131405808	-0.3700324071	-0.099451
H	-0.5276111514	 1.7915931931	 1.0224963706	 0.134995
H	-0.3723957796	 2.0835694786	-0.7774983103	 0.121256
H	 1.7792279207	 1.0932923091	-0.9395952156	 0.098475
H	 3.1902488566	 0.9343045256	 1.2491120257	 0.090621
H	 2.938027342	-1.4188618746	 1.9932377301	 0.095261
H	 0.6576856015	-2.4399134004	 1.83336994	 0.0821
H	 0.0233608262	-1.0336649334	-2.1233735786	 0.110223
H	 1.0992076839	-3.0596702539	-0.7519397032	 0.107987
