20
gdb 108762	2.30231	1.31294	0.88784	6.2914	86.08	-0.2112	-0.0042	0.207	1336.1829	0.17081	-403.201781	-403.19205	-403.191106	-403.236959	35.103	
C	 0.0913605806	 1.4251825069	 0.0038119005	-0.324939
N	-0.048917889	-0.0147253317	-0.0502733769	-0.359131
C	-1.2438251321	-0.6434979585	-0.0353733528	 0.418633
C	-2.4826091161	-0.079930608	-0.0234648691	-0.36021
C	-3.5123198287	-1.1062040203	 0.0073216193	 0.399561
O	-4.7185056005	-0.9621861641	 0.0257910105	-0.371242
C	-2.7975780933	-2.4741437967	 0.0238295355	-0.349248
C	-1.2880595971	-2.1657119047	-0.0424029293	-0.095335
C	-0.5916407417	-2.7724654894	-1.2719205091	-0.394023
H	 1.1508084575	 1.6851895316	-0.0310634675	 0.130898
H	-0.4087150056	 1.8981863598	-0.8493964934	 0.143047
H	-0.3410736511	 1.839587298	 0.9237525516	 0.137809
H	 0.782966117	-0.5741873621	 0.0211173229	 0.248996
H	-2.7109980222	 0.9767057554	-0.0243362134	 0.089761
H	-3.0796577229	-3.018277724	 0.9298689771	 0.122449
H	-3.1386968083	-3.074484211	-0.8254699564	 0.120234
H	-0.775964823	-2.5324783411	 0.8576759204	 0.084769
H	-1.0717549288	-2.4281399067	-2.1937268708	 0.129922
H	 0.4685569502	-2.5024477261	-1.3263286939	 0.102732
H	-0.6530053351	-3.8643985172	-1.2433521149	 0.125318
