18
gdb 120186	2.82149	1.23666	1.11699	3.1493	74.02	-0.2426	0.0085	0.2511	1164.0377	0.146755	-439.014823	-439.006324	-439.00538	-439.048422	31.661	
O	-0.0321272451	 1.430376307	 0.1185614551	-0.413576
C	 0.0776493318	 0.0324419563	-0.11476646	-0.072464
C	-1.3146463574	-0.5722941621	-0.02566379	-0.157575
N	-2.1290192513	-0.1518258987	-1.1733739956	-0.097693
C	-2.8343008793	 1.2019515345	-1.114679654	-0.129095
C	-3.7783851741	 0.6272882684	-2.20382782	-0.22602
C	-3.601712346	-0.5334885877	-1.1891336042	-0.143338
C	-3.7701428128	 0.5333379916	-0.0712355357	 0.419693
O	-4.1829801043	 0.6653996134	 1.0373993053	-0.320418
H	 0.8297089244	 1.8308638181	-0.0262324719	 0.290271
H	 0.4963945199	-0.175385625	-1.1102639414	 0.097522
H	 0.723480309	-0.4467265034	 0.6374245195	 0.089389
H	-1.2248631548	-1.6636265076	-0.0762537214	 0.106405
H	-1.7539642558	-0.3168445106	 0.9513066689	 0.122317
H	-2.2757044344	 2.1323209289	-1.0925129662	 0.113783
H	-4.7709518271	 1.0685055825	-2.3024977756	 0.111133
H	-3.2795868429	 0.4469616728	-3.1569210188	 0.113885
H	-3.9291635596	-1.5696113284	-1.2615938942	 0.09578
