21
gdb 80673	3.06195	1.18016	1.05649	1.3842	82.83	-0.2256	0.075	0.3006	1239.2527	0.183922	-383.188708	-383.180218	-383.179274	-383.222092	32.846	
C	-0.5996503031	 1.0055651506	 0.773586214	-0.426323
C	 0.0310979265	-0.3691765035	 0.7410603179	 0.03385
C	 0.6205759547	-1.0330687328	-0.4367270702	-0.042654
C	 1.393776493	-0.0631964383	-1.3295563626	-0.304738
C	 2.282553322	 0.2252674109	-0.0873675272	 0.061355
C	 2.5652761391	 1.6199169746	 0.4006963441	 0.009
C	 3.6895495092	 1.832397248	 1.3469892291	-0.240069
N	 3.7973111999	 2.303940605	-0.0430430272	-0.325598
N	 1.4747929023	-0.7073095926	 0.7928991157	-0.17909
H	-0.2797398591	 1.6526166887	-0.0449391462	 0.127483
H	-1.6873027315	 0.8989330383	 0.6978582298	 0.120201
H	-0.3833839533	 1.5156234214	 1.7181088562	 0.13008
H	-0.4817652854	-1.063956158	 1.4051795788	 0.097216
H	 0.3891285258	-2.0594174832	-0.7047811619	 0.092022
H	 1.937354902	-0.547148233	-2.1423976962	 0.110219
H	 0.8213654635	 0.7708079946	-1.7469420328	 0.108108
H	 3.2514281131	-0.2740288957	-0.2119221447	 0.074217
H	 1.7195399604	 2.2958763769	 0.4668008842	 0.0901
H	 3.6296322736	 2.6180935153	 2.0943677148	 0.118746
H	 4.2620356115	 0.9598585953	 1.6516092982	 0.118297
H	 4.3732465757	 1.6562627174	-0.5777155239	 0.227579
