19
gdb 52904	2.03049	1.0404	0.7585	2.9559	86.06	-0.2313	-0.0183	0.213	1544.3664	0.155907	-385.865347	-385.854993	-385.854049	-385.902709	35.688	
C	-0.2244137464	 1.5334086658	-0.0488101373	-0.500923
C	-0.1305613349	 0.0803442203	-0.0424210138	 0.082028
C	-0.0587877732	-1.1231309672	-0.0310065041	 0.003861
C	 0.0448119456	-2.5602525875	-0.0409583381	 0.156198
C	 1.2252360425	-3.1262921804	-0.83223304	-0.357092
C	 2.5622836276	-2.7582777352	-0.2196621752	 0.166072
O	 3.4605673273	-3.5387347027	-0.0328271983	-0.244958
C	-0.3946111378	-3.3216833166	 1.2040077746	-0.289214
C	-1.2463613755	-3.366185629	-0.031404877	-0.302585
H	 0.4858386349	 1.9716669981	-0.7586313231	 0.150058
H	-1.2271215732	 1.8673535589	-0.338088763	 0.148945
H	-0.0060708128	 1.9541545759	 0.9390816849	 0.14923
H	 1.1688338377	-4.2162266581	-0.9005793107	 0.11804
H	 1.2005711914	-2.7199857563	-1.8531759667	 0.128358
H	 2.663529578	-1.6848040463	 0.0535488059	 0.088555
H	 0.1778491091	-4.2046895241	 1.4674983155	 0.127257
H	-0.7435846179	-2.739055376	 2.0477589688	 0.127774
H	-2.1749700911	-2.8082419917	-0.0332196149	 0.128134
H	-1.2640919015	-4.2796100079	-0.6159963573	 0.120262
