16
gdb 56125	4.81932	0.7027	0.61793	5.1153	69.15	-0.2489	-0.0714	0.1775	1706.862	0.120208	-475.072351	-475.062232	-475.061288	-475.110018	33.396	
C	-0.0029674663	 1.4572140025	 0.0091668846	-0.478243
C	 0.0332663324	-0.0526086192	 0.0015112576	 0.369519
O	 1.0645998323	-0.6871802851	-0.0121879775	-0.295279
C	-1.3140282595	-0.7662530148	 0.0140458356	-0.233319
N	-1.1084252153	-2.189808998	 0.0057594922	-0.331582
C	-2.1431707383	-3.0673391183	 0.0066910718	 0.327685
O	-3.3144147277	-2.7485093945	 0.0163287033	-0.353058
C	-1.673618539	-4.5319275751	-0.006793765	 0.086374
O	-2.4371298676	-5.4541519667	-0.0086628109	-0.205625
H	 1.0131440309	 1.8518778249	 0.0015937986	 0.155085
H	-0.5506647824	 1.8282991524	-0.8641351187	 0.152584
H	-0.5346226602	 1.8201697377	 0.895674361	 0.15251
H	-1.88903522	-0.4512852104	 0.8961499188	 0.152272
H	-1.9091992643	-0.4443337931	-0.8520189055	 0.152399
H	-0.1403653857	-2.4837091927	-0.0062653993	 0.265939
H	-0.5679702294	-4.6806074794	-0.0152845266	 0.082738
