22
gdb 120395	3.17393	0.84726	0.73208	3.826	83.84	-0.241	0.0386	0.2795	1630.4064	0.193206	-404.386324	-404.376043	-404.375099	-404.422197	37.078	
C	 0.1328116596	 1.5715702747	 0.0732412778	-0.380671
C	 0.0287594804	 0.045470856	 0.1387049122	-0.171271
C	-1.3961756897	-0.4696918157	-0.1012854816	-0.174622
C	-1.4932838705	-1.9904275505	-0.0672587388	 0.042564
N	-1.3167618969	-2.6089965463	 1.2574754707	-0.336338
C	-2.5273495604	-3.2586767505	 1.2823411677	 0.432166
O	-3.0465552047	-3.9901870536	 2.0832925618	-0.368912
C	-2.9084502199	-2.6745078656	-0.1016680602	-0.18016
C	-4.1744663819	-1.830862421	-0.1637500512	-0.407471
H	 1.1587059061	 1.9092462909	 0.2491960132	 0.114601
H	-0.1784034882	 1.9466122716	-0.9079522882	 0.116216
H	-0.5077666307	 2.0443405605	 0.825684475	 0.118137
H	 0.705560506	-0.4015645022	-0.6017363196	 0.09666
H	 0.3778856465	-0.3009304145	 1.1203942445	 0.09398
H	-2.0705146398	-0.0411044643	 0.6493536835	 0.100399
H	-1.7485933714	-0.1210764964	-1.0814017598	 0.098844
H	-0.8121034335	-2.4158230006	-0.8166889516	 0.078003
H	-0.5096765665	-2.6985977096	 1.8574132342	 0.246168
H	-2.9475893292	-3.4694044353	-0.853117214	 0.100603
H	-4.1828176919	-1.0461128646	 0.5976977811	 0.12578
H	-4.2939858609	-1.3576903694	-1.1436561419	 0.118069
H	-5.0463951725	-2.4677936739	 0.011816735	 0.137255
