20
gdb 124510	3.74613	1.02351	0.86881	4.0618	82.5	-0.2434	0.0059	0.2492	1402.2253	0.170904	-399.343897	-399.334399	-399.333455	-399.379034	34.133	
C	 0.1400410834	 1.5244125432	 0.2078665113	-0.381839
C	-0.0398454145	 0.0176216725	-0.0550956599	-0.063699
C	-1.5172629401	-0.3894636248	-0.0007858262	-0.396732
C	 0.6074566934	-0.3758229214	-1.3530825021	 0.316397
C	 0.063701866	-0.8633972655	-2.5209245843	-0.203007
N	 1.1210627511	-1.0252498259	-3.3541771464	 0.074671
C	 1.1507717805	-1.5127620877	-4.7173735384	-0.331976
N	 2.2640471041	-0.6601886455	-2.7424627787	-0.148059
N	 1.9568326474	-0.269457452	-1.5395552654	-0.262488
H	 1.1966600295	 1.7987159164	 0.1643023542	 0.139983
H	-0.3954778065	 2.1159296599	-0.5432346709	 0.11008
H	-0.2507361492	 1.7937829464	 1.1946693735	 0.106423
H	 0.4933255155	-0.5186397505	 0.741124933	 0.096849
H	-2.0996303513	 0.1345607634	-0.7677984773	 0.112614
H	-1.6451280463	-1.4659011023	-0.1538277001	 0.113874
H	-1.9500012979	-0.1335006597	 0.9708641593	 0.115144
H	-0.9429002758	-1.1039017985	-2.8176127133	 0.139284
H	 0.5539392159	-0.8711901292	-5.3718492186	 0.145963
H	 2.1910388229	-1.4952460712	-5.0421919184	 0.170507
H	 0.769364242	-2.5363668978	-4.7717291812	 0.146011
