15
gdb 19899	4.06192	1.9967	1.71562	4.4672	65.26	-0.2186	0.0103	0.2289	777.6193	0.11887	-362.573095	-362.566709	-362.565765	-362.603616	25.13	
O	-0.1682399606	 0.1758385171	 0.4646592694	-0.283109
C	-0.0680264383	 1.2188987663	-0.1324749844	 0.16613
C	 1.1708603816	 2.0834005212	-0.0627508135	-0.119875
C	 1.244107745	 3.5802776464	-0.1998518996	-0.096075
C	 0.0739844366	 4.2964809975	 0.5348733466	-0.055084
N	-0.8088205581	 3.2489497687	 1.0913397484	-0.323032
C	 0.4314656514	 3.6324143995	 1.8053510035	-0.04572
C	 1.6171485511	 2.9020814982	 1.1219849159	-0.070318
H	-0.8273074503	 1.5498368657	-0.8698866329	 0.070977
H	 2.0154484906	 1.5864608615	-0.5390911799	 0.116446
H	 1.8942102875	 4.0803692387	-0.9054677993	 0.095154
H	-0.2885441628	 5.2955216132	 0.3334790732	 0.101962
H	-1.6050395542	 3.6887870888	 1.5493136054	 0.239471
H	 0.402885321	 3.9886543573	 2.8259937743	 0.103941
H	 2.5933176196	 2.7958870998	 1.575806563	 0.099133
