20
gdb 79990	2.12564	1.75888	1.65396	2.0247	79.98	-0.1918	0.0164	0.2082	1000.1732	0.169295	-403.085205	-403.076349	-403.075405	-403.117759	34.934	
C	 0.0176176722	 1.4686288547	-0.1257992453	-0.338791
N	 0.0310293595	 0.0096442596	-0.0398504406	-0.119037
C	-1.1460931577	-0.670522074	 0.6284606615	-0.126563
C	-0.7562529961	-2.1256380215	 0.3957235038	-0.078656
C	 0.5447030376	-2.1216737967	 0.7081447255	-0.109937
C	 0.7995264269	-0.661407601	 1.1000581231	 0.275711
C	 2.1787943853	-0.1826712407	 1.4635878622	-0.531888
C	-0.4517542206	-0.4734685875	 2.0417512147	 0.119638
O	-0.4999759372	 0.7897620534	 2.6539143714	-0.434405
H	 1.0138465989	 1.8028755528	-0.4366666371	 0.113186
H	-0.6754932012	 1.7479167495	-0.9283132537	 0.109319
H	-0.262779174	 2.0096265569	 0.784393024	 0.119623
H	-2.1526724151	-0.3222260673	 0.3957680246	 0.061707
H	-1.4028358168	-2.9339279717	 0.0865267908	 0.102857
H	 1.2715521471	-2.9215869037	 0.7215498579	 0.100998
H	 2.8427077314	-0.2215436112	 0.5937835794	 0.128043
H	 2.1519685877	 0.8448304916	 1.8362029812	 0.136072
H	 2.6091784676	-0.8138915846	 2.248151329	 0.118507
H	-0.6312307929	-1.2724371942	 2.7743466831	 0.066718
H	-1.2579451625	 0.8113195156	 3.2457718645	 0.286897
