18
gdb 53125	4.42064	0.98848	0.95243	1.7667	84.36	-0.2314	0.0365	0.2679	1313.6589	0.147806	-364.718105	-364.709926	-364.708982	-364.752568	30.289	
C	-0.0055743125	 1.5216169005	-0.0148220078	-0.500822
C	-0.0290538584	 0.0666264483	 0.0119865121	 0.101378
C	-0.0528118475	-1.1381538791	 0.0277733894	 0.077999
C	-0.0750673938	-2.5890105153	 0.0459633987	-0.144375
C	 0.3239365314	-3.3706267534	 1.3229054185	-0.085634
C	-0.6421413036	-2.7991864109	 2.3931132626	-0.246872
C	-1.7560831167	-3.4126158722	 1.5464772071	-0.027756
C	-0.8233400812	-4.3667959541	 0.9040233881	-0.065866
N	-1.4244679219	-3.279855714	 0.0808134817	-0.147265
H	 0.7149519471	 1.9209825345	 0.7075758738	 0.148541
H	 0.2732092204	 1.898206136	-1.0050987493	 0.150159
H	-0.9883240969	 1.9370480708	 0.2340461137	 0.151745
H	 0.4436987207	-2.9896759534	-0.8309874928	 0.102365
H	 1.363075394	-3.5928892109	 1.5566290303	 0.076506
H	-0.5451896754	-3.3330825059	 3.3419213746	 0.104658
H	-0.6296720712	-1.7186669302	 2.560722341	 0.109562
H	-2.8067493716	-3.5260786731	 1.7776651445	 0.097669
H	-0.871251723	-5.4183180277	 0.6555104939	 0.09801
