18
gdb 122059	3.39791	0.684	0.61827	6.8403	71.44	-0.2521	-0.0364	0.2157	1768.2259	0.144908	-476.25001	-476.239675	-476.238731	-476.287201	34.523	
O	-0.0708920528	 1.4361160191	 0.0105843097	-0.415342
C	 0.0150154502	 0.0230927019	 0.0020404539	-0.070657
C	-1.4087023978	-0.521395314	 0.0127465579	-0.169821
C	-1.4502448263	-2.0515636811	 0.0048084856	-0.217646
N	-2.8142430323	-2.5916879638	 0.0149392907	-0.081823
C	-3.4476852826	-2.816462283	-1.2153938128	 0.16566
O	-4.5663626391	-3.2116730347	-1.3833512147	-0.260111
C	-3.4241336475	-2.8295409506	 1.254678525	 0.165661
O	-4.5394352177	-3.2266480673	 1.4397434036	-0.26011
H	 0.8208949319	 1.7959516754	 0.0039255898	 0.291116
H	 0.5474944655	-0.3427930277	-0.8919031827	 0.09004
H	 0.5645370806	-0.3524781469	 0.8815374626	 0.09004
H	-1.92848005	-0.1398434531	 0.8990041975	 0.123466
H	-1.9453673137	-0.1302662854	-0.8591547831	 0.123467
H	-0.9370725165	-2.4451038444	-0.8787643711	 0.128873
H	-0.9202532009	-2.4546624943	 0.8740289138	 0.128873
H	-2.7559567145	-2.5823302581	-2.0502710189	 0.084156
H	-2.7165585768	-2.6042741122	 2.0786436831	 0.084158
