16
gdb 28486	3.12158	1.41689	0.98164	3.6105	76.11	-0.2085	-0.0295	0.1789	1150.2116	0.12598	-434.140242	-434.132139	-434.131195	-434.172611	30.996	
C	-0.0404538612	 1.5163477674	-0.0110099408	-0.500289
C	 0.0101870348	 0.0148525611	-0.0049393225	 0.291129
N	-0.0073200562	-0.6097197387	-1.1829141749	-0.337471
C	 0.0517627862	-1.9369505864	-1.1625011213	 0.42646
O	 0.0372643421	-2.5411204521	-2.3667469552	-0.401484
N	 0.1219249925	-2.7189801775	-0.0878826298	-0.351145
C	 0.1285668656	-2.0873803183	 1.0866233653	-0.046871
C	 0.0770201225	-0.7013710247	 1.2063419055	 0.199171
N	 0.1624430127	-0.0500020214	 2.445883763	-0.597833
H	 0.7919678072	 1.9374905304	 0.5645592703	 0.142136
H	 0.0039827594	 1.8807738914	-1.037372085	 0.15114
H	-0.9676879889	 1.8870000945	 0.4469318064	 0.126962
H	 0.087421896	-3.4891482276	-2.1874906055	 0.300773
H	 0.1820824661	-2.7145815573	 1.9758854937	 0.102112
H	-0.0335319913	-0.6561836736	 3.2316356774	 0.246287
H	-0.3956458372	 0.790617873	 2.5108576534	 0.248924
