21
gdb 105346	2.06538	1.56549	1.13175	2.4264	82.28	-0.2449	-0.019	0.2259	1187.4324	0.181388	-387.072137	-387.06301	-387.062066	-387.106226	34.453	
C	 0.1996668993	 1.6311086841	 0.3212722298	-0.394129
C	-0.0495590697	 0.1393504143	 0.0598237033	-0.251593
C	 0.6553858127	-0.4472741813	-1.178998547	 0.226296
C	 2.2370665288	-0.4694521745	-1.1877854572	-0.304838
C	 2.1885538781	-1.9850477308	-1.4044154107	-0.024439
C	 1.4653093999	-2.6527377642	-0.2716712933	-0.307228
C	 0.6594946379	-1.9753210056	-1.343487006	-0.077403
C	 0.1786518562	 0.2381550185	-2.4404429474	 0.108485
O	-0.3823814799	-0.3072030164	-3.357625554	-0.255275
H	 1.2705958476	 1.8544720215	 0.3743229101	 0.121164
H	-0.2348125443	 2.2696853231	-0.4532699565	 0.12274
H	-0.2465028564	 1.9285294105	 1.2750409748	 0.119799
H	 0.2812712665	-0.4317101864	 0.9341604546	 0.105129
H	-1.1275823877	-0.0464030295	-0.0313058537	 0.109192
H	 2.6645199905	 0.0843344826	-2.0288403364	 0.110416
H	 2.7241966531	-0.1283173956	-0.2677150098	 0.099798
H	 2.8320191818	-2.5325905163	-2.0813399523	 0.090069
H	 1.4435597322	-3.7373281918	-0.3083650732	 0.115461
H	 1.5277663474	-2.2505965513	 0.7368665943	 0.104173
H	-0.0456902164	-2.5071544375	-1.9677114513	 0.104728
H	 0.4017736325	 1.3285360466	-2.4838542581	 0.077453
