15
gdb 132739	2.40975	1.82451	1.04558	4.0498	70.79	-0.2385	-0.0148	0.2237	1058.8235	0.113872	-458.172008	-458.164154	-458.16321	-458.204229	29.59	
C	 0.0017953905	 1.5500335621	 0.0275764832	-0.531685
C	 0.0086106601	 0.0476040625	 0.0036176209	 0.049135
C	 0.0700924833	-0.6996177569	-1.1911849846	 0.343088
N	 0.1545649172	-0.0843025769	-2.4081346085	-0.563661
N	 0.08745239	-2.0438017184	-1.2015718651	-0.32769
C	 0.0474606886	-2.6398193124	-0.0173724391	 0.063959
N	-0.0153256542	-2.0566277827	 1.1801068011	-0.327838
C	-0.0327971876	-0.7375068942	 1.1441479664	 0.297442
F	-0.0946589151	-0.130659378	 2.3277298797	-0.06788
H	 0.8794787051	 1.9599197376	-0.4866431273	 0.137788
H	-0.8884560819	 1.9604934502	-0.4674714123	 0.128775
H	 0.0068488491	 1.9189028391	 1.0535300388	 0.15162
H	-0.1464714964	 0.8707117771	-2.4990668068	 0.260853
H	 0.0117879785	-0.6823726679	-3.2064373853	 0.265117
H	 0.0638795829	-3.7269868511	-0.0227783011	 0.120977
