20
gdb 8333	5.55137	1.18985	1.18526	2.0283	74.85	-0.2412	0.0704	0.3116	1108.7034	0.177088	-348.975562	-348.967512	-348.966568	-349.008498	30.166	
C	-0.9690023299	 1.096848463	-0.0846433295	-0.40834
C	 0.0935909664	 0.0198791252	 0.0642580784	 0.06178
C	 1.3412716955	 0.0579164118	-0.8647417374	-0.306577
C	 2.2207249029	-0.3405613403	 0.3441302828	 0.313448
C	 2.8041404123	-1.7681042639	 0.4343595481	-0.12184
O	 4.1428739754	-1.261938271	 0.6030432814	-0.275137
C	 3.6809593748	 0.1025333806	 0.529250072	-0.142379
C	 1.0627508467	 0.0796639706	 1.2801321628	-0.306579
H	-0.5220340066	 2.0967402975	-0.0367440664	 0.110523
H	-1.4920606123	 1.0117366561	-1.0438275055	 0.115115
H	-1.7198836905	 1.0295301076	 0.7106640043	 0.115116
H	-0.3720163767	-0.9709177912	 0.0138430728	 0.072918
H	 1.3562303817	-0.6020355462	-1.7371557594	 0.097892
H	 1.5601207993	 1.0791638065	-1.1976527637	 0.096434
H	 2.4774518066	-2.3613770982	 1.2995727273	 0.09571
H	 2.7076742432	-2.3793675924	-0.4735735738	 0.095711
H	 4.1222801068	 0.6417857066	-0.3203018579	 0.09594
H	 3.8920947918	 0.6597329207	 1.452422047	 0.095939
H	 1.1919682254	 1.1079099638	 1.6374611032	 0.096434
H	 0.8527116572	-0.5627196868	 2.1404189333	 0.097892
