16
gdb 108744	2.70635	1.34445	0.90334	3.4866	78.99	-0.218	-0.0502	0.1678	1232.8084	0.12548	-434.134213	-434.125444	-434.124499	-434.168268	31.518	
C	 0.1257867886	 1.3849932761	 0.0065174907	-0.327345
N	-0.065026745	-0.0460983845	 0.003591574	-0.375368
C	-1.269293624	-0.632972487	 0.010440309	 0.399447
C	-2.5383401675	-0.1437479018	 0.0215008369	-0.411657
C	-3.469795446	-1.2736510397	 0.0243650423	 0.435686
O	-4.6781940505	-1.3041439789	 0.0333080864	-0.369979
N	-2.6581637167	-2.4457761896	 0.0146061871	-0.418463
C	-1.320615776	-2.1332762312	 0.0056446072	 0.351901
N	-0.2608626388	-2.8405471226	-0.0046564629	-0.560875
H	 1.1941675704	 1.6050817224	-0.0020232392	 0.13869
H	-0.3321424623	 1.8490439206	-0.8763166625	 0.139088
H	-0.3167860884	 1.843514027	 0.9000184932	 0.13907
H	 0.7230968114	-0.6766088253	-0.0046066293	 0.269499
H	-2.8697498883	 0.8817942883	 0.0276076514	 0.110832
H	-3.0487370042	-3.372894754	 0.0142436738	 0.258114
H	-0.4570026228	-3.8418320699	-0.006593508	 0.221359
