14
gdb 132790	2.32906	1.76076	1.00368	0.9765	68.85	-0.2095	0.0066	0.2161	1058.6752	0.100938	-486.00107	-485.993702	-485.992758	-486.03265	28.95	
N	-0.0164111803	 1.4211820542	 0.1557301971	-0.600901
C	 0.0018510331	 0.035718257	 0.0544900197	 0.049395
C	-1.1719097949	-0.7225543349	 0.0348156289	 0.251081
F	-2.3334158146	-0.0420498653	 0.0442452115	-0.094233
C	-1.1760198503	-2.1054562482	-0.0028242504	-0.243115
C	 0.0397586869	-2.7864372353	-0.0247444066	-0.118982
C	 1.2367523858	-2.0726682118	-0.0163313912	-0.243114
C	 1.1954886243	-0.6903820976	 0.0215559712	 0.251079
F	 2.3381080589	 0.0214322408	 0.0181004272	-0.094233
H	 0.8175850598	 1.8692617539	-0.1939077059	 0.258093
H	-0.8661395378	 1.8463792035	-0.1844765895	 0.258093
H	-2.1258364604	-2.6261893959	-0.0153803305	 0.110285
H	 0.0543202888	-3.8691489468	-0.051909314	 0.106268
H	 2.2001680607	-2.5674016336	-0.0395993076	 0.110284
