21
gdb 102666	2.55038	1.13685	0.98594	2.2305	75.09	-0.245	0.073	0.318	1310.0483	0.181661	-461.327452	-461.317855	-461.316911	-461.362126	35.926	
O	-0.0093744542	 1.3701109889	-0.2537700289	-0.422872
C	 0.0220682263	 0.022648048	 0.2150090236	-0.085057
C	-1.3609369731	-0.6252947197	 0.1167194666	 0.075628
C	-2.3907329001	 0.0476248521	 1.0396580816	-0.071077
O	-2.6591693068	 1.3944605833	 0.7130773433	-0.424755
O	-1.6796700902	-0.5357173764	-1.2701967678	-0.274979
C	-2.8675325421	-1.1501867091	-1.6764675699	 0.137209
C	-4.1534298938	-0.3646156046	-1.6657014215	-0.284585
C	-3.4392501304	-0.6602288109	-2.968024553	-0.295776
H	-0.3730541333	 1.3172796862	-1.1474304186	 0.298952
H	 0.7453359856	-0.5694460919	-0.3620200929	 0.105766
H	 0.3562209582	 0.0572094865	 1.2558978907	 0.115962
H	-1.2782490039	-1.6834020162	 0.4202012077	 0.067754
H	-3.343028539	-0.488415485	 0.9888858753	 0.112297
H	-2.01667384	-0.058504944	 2.0732570586	 0.083865
H	-1.8033644692	 1.8069450472	 0.5251558718	 0.286729
H	-2.9047036328	-2.2185603907	-1.4610382429	 0.082669
H	-5.0780575744	-0.8890607295	-1.4488361063	 0.109733
H	-4.0872326876	 0.642961605	-1.2730828687	 0.148282
H	-2.9157433331	 0.1604026855	-3.4454993248	 0.120078
H	-3.8663617262	-1.3850584948	-3.6516480839	 0.114176
