20
gdb 10849	4.47939	1.36175	1.0985	1.266	77.49	-0.2306	0.0311	0.2617	1110.8757	0.177836	-349.031285	-349.023064	-349.02212	-349.063445	31.788	
C	-0.0199349671	 1.5315891401	 0.0580567031	-0.473988
C	 0.0143851113	 0.0298710339	-0.0292346364	 0.330371
C	-0.0274546307	-0.6191545845	-1.1960084145	-0.150654
C	-0.0208317814	-2.1204500568	-1.3313058375	-0.278165
C	-0.3565662573	-2.8211519589	-0.0093356329	 0.13553
O	-0.0452817246	-4.208086754	-0.0426450625	-0.442468
C	 0.4414000521	-2.194983223	 1.1282487223	-0.202103
C	 0.0873874361	-0.7108731713	 1.2885947828	-0.300759
H	 0.8855003202	 1.9216132537	 0.5411642029	 0.12061
H	-0.1060241831	 1.9944402338	-0.9286466234	 0.117771
H	-0.8661578755	 1.8729334766	 0.6689521047	 0.120075
H	-0.072743958	-0.0460813952	-2.1200802192	 0.073751
H	-0.7323714051	-2.4276110607	-2.1111859261	 0.088004
H	 0.9647189413	-2.4756309259	-1.6671740915	 0.112044
H	-1.4309871755	-2.6786044428	 0.1997173691	 0.062007
H	-0.5152079772	-4.5999586275	-0.7857660567	 0.277647
H	 0.252502278	-2.7446505706	 2.0555336084	 0.100247
H	 1.5087312854	-2.3057987635	 0.9006693816	 0.103577
H	 0.8213096052	-0.2218459514	 1.9426363479	 0.1008
H	-0.8759394342	-0.6043640219	 1.8105886079	 0.105704
