20
gdb 123244	2.44787	0.80954	0.68241	2.6174	74.64	-0.2603	0.0271	0.2874	1684.0347	0.169108	-477.398519	-477.38809	-477.387146	-477.436064	35.728	
O	-0.0281231827	 1.2435658326	-0.4591230008	-0.419929
C	-0.0257447369	-0.1637279747	-0.5962922004	-0.061625
C	-1.4138953059	-0.7455951887	-0.3859068472	-0.071683
O	-2.2520815257	-0.1773504206	-1.3809475103	-0.262699
C	-3.615906992	-0.5133589777	-1.2450722729	-0.05494
C	-4.3615459118	-0.0114095024	-2.4692466452	-0.100343
O	-4.0417216608	-0.7656268932	-3.6310512419	-0.181247
C	-2.9581540445	-0.3796745096	-4.3390899745	 0.138227
N	-2.5454882088	-1.0976560007	-5.2905018585	-0.443289
H	-0.7449094577	 1.5602834929	-1.0205653999	 0.285681
H	 0.3454706421	-0.4737155702	-1.5860138315	 0.098226
H	 0.6585357051	-0.562275334	 0.1594675782	 0.11253
H	-1.3989293063	-1.8433886413	-0.4717125695	 0.099157
H	-1.7844962957	-0.4795142591	 0.6163389972	 0.098678
H	-3.7414399614	-1.6038605453	-1.1659967322	 0.11203
H	-4.0450171978	-0.0547003407	-0.3385236458	 0.09625
H	-5.4379635361	-0.1276618831	-2.3173716111	 0.125874
H	-4.1464077459	 1.0541920826	-2.6250428346	 0.113283
H	-2.5373132011	 0.5768452703	-4.0061267538	 0.088156
H	-1.7478232461	-0.651028297	-5.7380644456	 0.227663
