22
gdb 96454	2.38415	1.63494	1.11676	2.1776	82.56	-0.2417	0.0687	0.3105	1167.8052	0.19642	-404.333102	-404.324678	-404.323734	-404.36586	33.405	
C	 0.4756812211	 1.587204338	-0.0660411608	-0.39643
C	-0.0256425798	 0.1432655166	-0.0571169242	 0.1137
O	 0.4623859826	-0.4445648714	-1.243088181	-0.241495
C	-0.0950806997	-1.6878452358	-1.6223131462	-0.06891
C	 0.571996051	-2.89038293	-0.9527136978	-0.194622
C	 0.1629443362	-3.125074656	 0.5039017474	-0.219384
C	 0.4914367163	-2.0173673802	 1.4850754812	-0.025836
N	 1.7101379957	-1.2147778217	 1.2822444427	-0.329756
C	 0.3984525179	-0.5541725582	 1.2331524449	-0.017741
H	 1.5687319226	 1.5977759297	-0.0249207704	 0.133483
H	 0.1579006875	 2.0890340917	-0.9831757946	 0.119336
H	 0.085936442	 2.1439180315	 0.7914887036	 0.10554
H	-1.1316660439	 0.1453489096	-0.0779574802	 0.059694
H	-1.1832862067	-1.6941185721	-1.43689708	 0.077837
H	 0.0517195022	-1.7515390331	-2.7063991049	 0.100196
H	 0.3200527853	-3.7887082909	-1.5307707336	 0.086144
H	 1.6557176585	-2.7532862307	-1.0179336223	 0.126254
H	-0.9194652787	-3.3116481683	 0.5561419753	 0.095025
H	 0.6431418459	-4.0456822415	 0.8612921843	 0.097754
H	 0.2682771505	-2.3015979376	 2.514692544	 0.074974
H	 2.1799771465	-1.033161996	 2.1639665505	 0.228734
H	 0.1089659871	 0.0348433163	 2.1054536223	 0.0755
