17
gdb 42788	2.4511	1.62996	1.4066	3.4139	72.48	-0.2444	-0.0338	0.2105	990.1113	0.137215	-421.862483	-421.855048	-421.854104	-421.89473	28.636	
O	-0.0706433616	 0.0325446155	-0.2054847413	-0.309836
C	-0.0647707206	 1.2243207161	-0.1150963157	 0.415836
C	-1.1243047156	 2.3079159283	 0.1249378487	-0.138803
C	 0.0080641644	 3.07855637	 0.86747787	-0.250331
C	 1.0505288018	 2.2869364466	-0.0012218331	-0.237729
C	 1.1676508052	 3.0369428614	-1.3275399596	 0.413912
O	 2.2134165803	 3.4564986276	-1.7510941107	-0.314284
C	-0.1577143602	 3.1835167231	-2.0841853448	-0.323026
C	-1.4282931633	 3.0236767738	-1.2109712946	-0.230035
H	-2.0331948911	 2.0376234692	 0.6643867351	 0.095639
H	 0.0093728946	 4.1657977323	 0.7591058982	 0.117104
H	 0.0871194718	 2.8117531972	 1.9223763643	 0.127141
H	 2.0288655384	 2.0225604694	 0.3962290635	 0.108019
H	-0.1429209247	 4.123344427	-2.6398987663	 0.134643
H	-0.126893571	 2.3846265389	-2.837626077	 0.151068
H	-2.1912882851	 2.4655991947	-1.760432879	 0.122341
H	-1.8542765133	 4.0058332189	-0.9805209877	 0.11834
