19
gdb 2392	5.0964	1.93406	1.73713	0.0893	71.73	-0.2524	0.0941	0.3465	822.4452	0.171771	-273.764207	-273.756793	-273.755849	-273.795566	28.096	
C	 0.0754365949	 1.5242557269	-0.2364950686	-0.403224
C	 0.0829782871	 0.0201852597	-0.0740286688	-0.058782
C	 1.3910285909	-0.7403972934	-0.0173980949	-0.349045
C	 0.530917693	-0.6137624864	 1.2104041456	 0.386534
C	 0.9474475088	 0.063644755	 2.5263372402	-0.288495
C	 0.6131170182	-1.2678094706	 3.2624071717	-0.203304
C	-0.1034702038	-1.7825765077	 1.9788282532	-0.29267
H	 0.9087204751	 1.982773487	 0.305977015	 0.114587
H	 0.1683381057	 1.811881499	-1.2897638228	 0.114772
H	-0.8513436335	 1.9655404167	 0.1481863588	 0.113255
H	-0.73141624	-0.4919204897	-0.5835455936	 0.076479
H	 1.4518620089	-1.7071922589	-0.5082645072	 0.104193
H	 2.3114123871	-0.1634204064	-0.0542271659	 0.103455
H	 1.9787140554	 0.4201015702	 2.5992576355	 0.094855
H	 0.2789974358	 0.8826368355	 2.8128422353	 0.097497
H	 1.5095200374	-1.8472238119	 3.4963955235	 0.103093
H	 0.0058579554	-1.1897070987	 4.1667872047	 0.095437
H	-1.1941048449	-1.7055749249	 2.0443666862	 0.096231
H	 0.1513583287	-2.7919268713	 1.6430952023	 0.095132
