25
gdb 108820	2.92675	1.00205	0.82714	0.2217	95.71	-0.2248	0.0319	0.2567	1544.0533	0.228857	-352.387463	-352.377223	-352.376278	-352.422529	38.892	
C	-0.0723365726	 1.5684409678	 0.483583981	-0.371563
C	-0.0990262264	 0.2940451966	-0.37924959	-0.290769
C	-1.383526993	-0.4758520707	-0.2761482188	 0.340251
C	-2.2752521041	-0.6825875436	-1.2486148579	-0.184068
C	-3.4235909064	-1.5721342114	-0.8257540937	-0.032413
C	-3.3045364739	-2.9726951335	-1.455204084	-0.386816
C	-3.3028684585	-1.5239425911	 0.7321050409	 0.033825
C	-3.8232864875	-2.7377644296	 1.5002797645	-0.411347
C	-1.8158841941	-1.18098633	 0.9959665881	-0.316368
H	 0.8808860286	 2.0943016192	 0.3708905831	 0.111332
H	-0.8749174155	 2.2529303532	 0.1914354406	 0.11889
H	-0.2004572073	 1.3378769899	 1.545759827	 0.118184
H	 0.0792019745	 0.562301626	-1.4268711707	 0.098898
H	 0.7376493896	-0.3520866418	-0.0768188697	 0.098943
H	-2.1689497967	-0.3196983283	-2.2671739673	 0.07642
H	-4.3908722375	-1.1546816596	-1.135927875	 0.064558
H	-2.3696356261	-3.4635607467	-1.164575691	 0.113357
H	-4.1363739203	-3.6207443177	-1.1607472116	 0.110259
H	-3.310311197	-2.9012336694	-2.548054676	 0.108459
H	-3.8839716471	-0.6492904971	 1.0506136139	 0.073578
H	-3.2673112693	-3.6472092288	 1.2496325734	 0.114914
H	-3.7265553671	-2.5816391076	 2.5802697163	 0.108995
H	-4.88198243	-2.9247522709	 1.2891759828	 0.109959
H	-1.2092036788	-2.086276694	 1.1547763214	 0.09588
H	-1.6896160635	-0.5718082307	 1.8986399828	 0.096643
