21
gdb 72082	2.82611	1.73829	1.59191	0.4889	86.02	-0.2175	0.027	0.2445	978.1151	0.186131	-349.98296	-349.975858	-349.974914	-350.01376	30.582	
C	-0.0179954802	 1.5036446663	 0.0254051166	-0.493963
C	 0.047480474	-0.0022932974	-0.0022759228	 0.346471
C	 0.3623803036	-0.7197265514	-1.3072223188	-0.266116
C	 0.5416799425	-2.1991393096	-0.8591947466	-0.091405
C	 1.3423667723	-2.027629829	 0.4677142443	-0.222465
C	 0.6560952729	-0.8313988535	 1.0998157013	-0.095845
C	-0.8697806645	-0.8192160872	 0.9205969496	-0.12068
C	-1.5113522749	-2.0388797246	 0.3827529888	-0.04941
C	-0.8191382429	-2.7500138929	-0.5130332567	-0.099514
H	 0.9258454756	 1.9493092912	-0.3116259508	 0.113447
H	-0.8132397711	 1.8806475377	-0.6284703751	 0.117346
H	-0.2170626467	 1.8749303807	 1.0361168545	 0.112922
H	-0.4216032854	-0.6095897552	-2.0640096913	 0.092939
H	 1.2980228179	-0.3279690395	-1.7253698161	 0.090645
H	 1.0670937107	-2.8068869001	-1.5973854264	 0.060471
H	 1.3132555706	-2.9310210971	 1.085160485	 0.096301
H	 2.3915123333	-1.7901605419	 0.2554649322	 0.093315
H	 1.0653074269	-0.3784362152	 1.9960040719	 0.076723
H	-1.4248553648	-0.2415594908	 1.651756683	 0.072724
H	-2.5027103125	-2.3175132523	 0.7251155218	 0.084598
H	-1.1901305673	-3.6617602679	-0.9675612942	 0.081496
