21
gdb 104019	3.13036	1.32654	1.23263	2.1771	77.7	-0.2482	0.0632	0.3114	1112.1058	0.184206	-424.211289	-424.203126	-424.202182	-424.243496	33.359	
O	-0.1749059956	 1.4656500287	 0.0653600613	-0.437689
C	 0.0027619601	 0.0480721047	 0.0517301852	-0.156948
C	-1.3955688359	-0.5564856665	-0.0397626585	 0.458779
O	-2.1498498656	-0.0793882568	 1.0670538804	-0.504082
C	-2.117867742	-0.309972761	-1.4163751841	-0.267025
C	-2.4270699634	-1.7709239594	-1.7978008363	-0.018287
C	-2.9040899066	-2.371686683	-0.4433637403	-0.227501
C	-1.4264829215	-2.0964852382	-0.0332827691	-0.059492
C	-1.0666102024	-2.4652360245	-1.5038401701	-0.235335
H	 0.6549859107	 1.8775009861	 0.3204277602	 0.293653
H	 0.6297919473	-0.2601771935	-0.7950004159	 0.090289
H	 0.4785192408	-0.2942868417	 0.9822553169	 0.093192
H	-1.9522350992	 0.8642514627	 1.1249005289	 0.281321
H	-3.0170816595	 0.2922827932	-1.266672537	 0.099382
H	-1.4808541428	 0.1928748572	-2.1499621327	 0.094416
H	-2.9711037634	-1.9417874541	-2.7275002261	 0.055728
H	-3.6871499406	-1.8533890577	 0.1117688734	 0.110913
H	-3.1186948569	-3.440574233	-0.5124557454	 0.089731
H	-0.9616982178	-2.5828985516	 0.8251889008	 0.057863
H	-1.097879688	-3.5446486709	-1.6703581997	 0.096287
H	-0.1609457477	-2.0488111406	-1.9546845219	 0.084806
