16
gdb 82691	2.87956	1.62165	1.25625	3.2903	76.35	-0.2372	0.0326	0.2699	1004.7747	0.123586	-400.63968	-400.631996	-400.631051	-400.671553	30.202	
O	-0.0823209848	 1.4850407683	 0.1486891222	-0.431463
C	-0.0230849294	 0.0847897431	 0.0863459652	 0.068543
C	 0.2079012173	-0.7360916022	 1.3899590332	-0.163907
C	-0.933238108	-0.2355487039	 2.2869183956	-0.146966
N	-1.9262193549	-0.8828960026	 1.3595856249	-0.18225
C	-0.8499545287	-1.7536703944	 0.8340569316	-0.112347
C	-1.3630595391	-0.6385795	-0.0283191445	 0.229657
C	-2.2468916152	-0.6563117251	-1.1410244924	 0.118135
C	-2.9606827522	-0.6588825888	-2.1087545184	-0.358305
H	 0.8032345945	 1.8390727285	 0.0218843534	 0.288509
H	 0.6394969993	-0.2651640235	-0.7150594402	 0.086626
H	 1.2136215689	-0.9416169776	 1.7509004297	 0.076885
H	-0.9897093875	-0.7523270563	 3.247667306	 0.111731
H	-1.0467930322	 0.8440940088	 2.4150066478	 0.120457
H	-0.9123087385	-2.8264542459	 0.7154553578	 0.11193
H	-3.6033036695	-0.6595532584	-2.9538205218	 0.182767
