19
gdb 64192	2.04504	1.61741	1.40762	2.0674	71.12	-0.2479	-0.0375	0.2104	1061.2012	0.155155	-460.157522	-460.14772	-460.146776	-460.192132	36.042	
C	-0.4162884767	 1.4392363989	 0.239010506	-0.458112
C	 0.0198045063	 0.0047791925	-0.0185230039	 0.293264
O	-1.073077517	-0.7889996101	-0.4287710249	-0.469536
C	 1.2127078922	-0.2198630398	-0.9697094035	-0.094784
O	 1.9834489681	-0.8943388466	 0.0508057084	-0.325902
C	 0.9523527262	-0.6986388852	 1.042662348	 0.259803
C	 1.4539738482	 0.0947110468	 2.2454237121	-0.447375
C	 0.4112514273	-2.0325902657	 1.520178328	 0.128235
O	-0.6770560573	-2.1620699973	 2.028023338	-0.281302
H	 0.4253615501	 2.0983742758	 0.4671944311	 0.119199
H	-0.9220411918	 1.8211317165	-0.6528437808	 0.133623
H	-1.1249241657	 1.4850348308	 1.0728705937	 0.123307
H	-1.5756679689	-1.0324645879	 0.3600229125	 0.294137
H	 0.9793270799	-0.8733211922	-1.8157516094	 0.118473
H	 1.7168944378	 0.687404735	-1.3211520084	 0.102258
H	 1.8829754027	 1.0475544299	 1.9277121734	 0.129962
H	 0.6384851522	 0.2796678778	 2.950612084	 0.13824
H	 2.2372053778	-0.4686595232	 2.7635017182	 0.133463
H	 1.1045458985	-2.8886063963	 1.3689915175	 0.103048
