21
gdb 114334	3.00836	1.13468	1.07272	2.4987	77.99	-0.2417	0.0768	0.3185	1244.7896	0.183128	-424.213197	-424.204331	-424.203387	-424.246943	33.836	
C	 0.1139463273	 1.6302532542	 0.0564977487	-0.416991
C	 0.148934743	 0.1204408963	 0.0126291856	-0.033304
C	 0.6870754098	-0.6874317082	-1.1624765201	-0.093148
C	 1.6087119926	-0.0092048429	-2.1775286709	-0.283317
C	 2.9590912191	 0.0596841927	-1.4342429357	 0.131524
C	 3.8054468427	 1.2973617884	-1.6839530357	-0.074064
O	 4.9629050778	 1.3089850066	-0.873333817	-0.424616
O	 2.6286764723	 0.047724305	-0.0303455748	-0.289143
C	 1.4302065809	-0.6659638772	 0.1465864849	 0.068482
H	 1.0755347266	 2.0624213689	-0.2271728227	 0.13004
H	-0.6565802472	 2.0339389733	-0.6092795327	 0.115903
H	-0.1098134715	 1.9749868939	 1.0715170328	 0.119737
H	-0.703498313	-0.35572994	 0.4930546166	 0.084997
H	 0.1299982439	-1.5614739069	-1.478391477	 0.090013
H	 1.6877941678	-0.5963055364	-3.0958684726	 0.108755
H	 1.2596612133	 0.9916270141	-2.4567068107	 0.105609
H	 3.5621826466	-0.8344503384	-1.6548246285	 0.078858
H	 4.1423078113	 1.3116284532	-2.7263596172	 0.106992
H	 3.1874209448	 2.1959578341	-1.5200134984	 0.08813
H	 4.656220062	 1.146619992	 0.0265659341	 0.293103
H	 1.5110261199	-1.5190101827	 0.8138036214	 0.09244
