19
gdb 102074	2.42874	1.12384	0.8099	5.4451	73.26	-0.2416	-0.0337	0.2079	1388.665	0.154924	-460.171453	-460.160845	-460.1599	-460.208055	36.494	
C	-0.1324747878	 1.4307337	 0.1326923841	-0.42054
C	 0.0139863482	-0.0910462171	-0.0779187423	-0.068054
C	-1.4023566991	-0.6601380629	-0.162047099	 0.178085
O	-2.0871174832	-0.8740585138	 0.8027163532	-0.268407
C	 0.8489365086	-0.4590124124	-1.3157606503	-0.097834
C	 2.3033405219	 0.0328035411	-1.2729443388	-0.109983
O	 2.8709868881	-0.2209879344	-2.5495050157	-0.419029
C	 0.8325579928	-1.9597264509	-1.5682452915	 0.148977
O	 0.0677429701	-2.7213455056	-1.0284074992	-0.243322
H	 0.8317721724	 1.9123177179	 0.313610218	 0.123142
H	-0.5904483767	 1.9104295021	-0.7401215561	 0.122175
H	-0.7718108066	 1.6200364612	 0.9985266575	 0.145
H	 0.4659899129	-0.5291491809	 0.8190028082	 0.106168
H	-1.805215643	-0.7741648846	-1.1942251937	 0.071573
H	 0.4039725185	 0.0010283154	-2.2136850422	 0.116431
H	 2.3302750665	 1.1044856248	-1.0366917445	 0.104875
H	 2.8509047447	-0.4955187965	-0.4759216547	 0.101821
H	 3.8085357397	-0.0096488743	-2.5154588814	 0.295108
H	 1.5847696622	-2.3178584891	-2.2979872917	 0.113814
