20
gdb 65322	2.94722	1.07877	1.02386	2.0051	85.96	-0.2399	0.0378	0.2777	1288.5858	0.169292	-365.940661	-365.931233	-365.930289	-365.974922	35.862	
C	 0.4711562418	 1.3499550057	-0.967674566	-0.440903
C	 0.031378306	 0.0983139574	-0.2362215438	 0.308104
N	 1.0079571957	-1.0041704873	-0.2792817217	-0.362367
C	 0.7527031266	-0.3157226511	 1.0144673768	-0.31598
C	 1.81864867	 0.4561507494	 1.5926902587	 0.378033
C	 2.6875747932	 1.1056342634	 2.1115367932	-0.429501
C	-1.4314129652	-0.2137929459	-0.3971300278	-0.049108
C	-2.221429217	-1.1105042787	 0.5236450577	-0.293368
C	-2.4749322501	 0.3765628207	 0.5193845961	-0.26028
H	 1.5411369939	 1.5191971662	-0.83963815	 0.139532
H	 0.2635991164	 1.2517212832	-2.0388821525	 0.115281
H	-0.0710492057	 2.2251507949	-0.5954596584	 0.119499
H	 0.5120760621	-1.8940938638	-0.2636862722	 0.231668
H	 0.1718284156	-0.8663496124	 1.7498919503	 0.10287
H	 3.4621846384	 1.6761080874	 2.5608086128	 0.195214
H	-1.7199469056	-0.2715987861	-1.4449349022	 0.090389
H	-2.9612883192	-1.7611635221	 0.0708633143	 0.11548
H	-1.7421688679	-1.5395500478	 1.3966051085	 0.11854
H	-2.1203938742	 0.9417573139	 1.3747513356	 0.121117
H	-3.3979026748	 0.748114453	 0.0884461605	 0.11578
