21
gdb 68289	2.71192	1.45268	1.33591	1.9542	82.35	-0.241	0.0762	0.3172	1087.0728	0.18271	-387.022663	-387.014432	-387.013488	-387.05537	32.244	
C	-0.0628053978	 1.4748392459	 0.0131409349	-0.517121
C	 0.0256354173	-0.0274507334	-0.0001723437	 0.267795
C	 0.6951267706	-0.9390421349	-1.0787694846	-0.266927
C	 0.1191549071	-1.9187783626	-0.0170706837	-0.119645
C	 0.6819215662	-0.9588876336	 1.0695475382	-0.26693
C	-1.1552964734	-1.0444178167	-0.0168291823	 0.34388
C	-2.2915497069	-1.1028570736	 1.0181116712	-0.179322
O	-3.282238191	-1.1177103394	-0.0305989139	-0.277783
C	-2.2787167958	-1.0835845948	-1.0665820101	-0.179322
H	 0.9347342242	 1.9271377762	 0.0230716202	 0.12178
H	-0.5900260748	 1.8483926069	-0.8718503057	 0.121789
H	-0.6002728112	 1.8321134984	 0.8986888971	 0.121787
H	 0.2347916158	-0.9519932886	-2.0710162999	 0.093229
H	 1.7853732775	-0.884186664	-1.1500449547	 0.08852
H	 0.1663651759	-3.0085423943	-0.0268452641	 0.072646
H	 1.7712030669	-0.9054909727	 1.155227278	 0.088521
H	 0.2094196742	-0.9901091528	 2.0556498928	 0.093228
H	-2.3343182311	-2.0097792115	 1.6364961352	 0.099221
H	-2.3995529142	-0.225634037	 1.6707919372	 0.097715
H	-2.3787767835	-0.1944312875	-1.7042127025	 0.097715
H	-2.3137678759	-1.9789127202	-1.7021091498	 0.099222
