15
gdb 125050	3.131	1.33781	0.94357	4.3063	71.21	-0.2247	-0.06	0.1646	1165.1141	0.111824	-453.957564	-453.948849	-453.947905	-453.991307	30.963	
C	-0.45938094	 1.3763840076	 0.2596588183	-0.536237
C	-0.1296946417	-0.07499196	 0.0938665342	-0.031897
C	-0.0496398276	-0.8009107048	-1.06593982	 0.427995
N	-0.2834283669	-0.4825766019	-2.3790167949	-0.594645
O	 0.2665905228	-2.0839909072	-0.811134993	-0.20922
N	 0.4082185471	-2.254264505	 0.5624607283	-0.207744
C	 0.1711846598	-1.0609144135	 1.0761221468	 0.251427
C	 0.259646081	-0.9404443493	 2.5442947732	 0.097039
O	 0.0837028889	 0.0868037568	 3.1577947153	-0.268179
H	-0.3419716216	 1.6670739919	 1.3035418583	 0.172933
H	 0.1973995517	 2.0135123784	-0.3461701244	 0.118228
H	-1.4917456278	 1.5954327953	-0.0383633095	 0.133567
H	-0.1654885806	 0.4942112389	-2.603875169	 0.269692
H	 0.1559426224	-1.0985407794	-3.0483758692	 0.271234
H	 0.5088774325	-1.8938948781	 3.0516922856	 0.105808
