21
gdb 90481	2.6379	1.43636	1.22322	1.6813	82.11	-0.2447	0.0846	0.3293	1132.367	0.182911	-387.032974	-387.024501	-387.023557	-387.066177	32.805	
C	-0.3088754508	 1.8021977894	 0.672726724	-0.419352
C	-0.0948377379	 0.298805362	 0.5351553138	 0.037045
C	 0.7751697691	-0.2746135173	-0.6374581413	-0.253987
C	 1.6043579291	-1.0720630414	 0.3848293075	-0.097746
C	 2.2693541866	-0.202366125	 1.413310458	-0.016855
C	 2.9822145559	 1.103107449	 1.2136102003	 0.043272
C	 4.1535600363	 1.2221291405	 0.3314222794	-0.175208
O	 2.8970411973	 1.7957718489	-0.033613218	-0.222692
C	 0.7893215783	-0.4606949132	 1.5405686792	-0.108261
H	 0.6299227776	 2.3572155984	 0.6162176167	 0.143008
H	-0.9575095578	 2.1723825986	-0.1295362787	 0.108716
H	-0.7952531135	 2.0414408864	 1.6257196215	 0.104474
H	-1.0725203348	-0.1945943675	 0.5121371382	 0.072349
H	 0.1969518877	-0.92336243	-1.2993524262	 0.092714
H	 1.3254298572	 0.4511280395	-1.2354634267	 0.12188
H	 1.9083113633	-2.1043636543	 0.2527157692	 0.081198
H	 2.8134051515	-0.8017789923	 2.1452796053	 0.091386
H	 2.948108772	 1.7708225253	 2.0774686875	 0.091729
H	 4.942526797	 1.9357454359	 0.5641665594	 0.112808
H	 4.4574705394	 0.3621354324	-0.2631830833	 0.11694
H	 0.4061136864	-0.9545697152	 2.4274718242	 0.076585
