18
gdb 16228	2.93189	2.19878	1.5234	1.7704	72.33	-0.2447	0.022	0.2666	884.0403	0.153838	-347.798231	-347.790769	-347.789825	-347.829913	28.825	
C	-0.1774511451	 1.5674335772	-0.0387194215	-0.393594
C	 0.0081922987	 0.0406421209	 0.0148375223	-0.103271
C	 0.8414648191	-0.4766576818	-1.1371001289	-0.067809
C	 2.0165539263	-0.9688179628	-0.7469497921	-0.076431
C	 2.1938420888	-0.9040282658	 0.7499531921	-0.333107
C	 0.8083824492	-0.4604140004	 1.2312418545	 0.414928
C	 0.5159583427	-0.0915181409	 2.6189644188	-0.246772
O	 0.127664077	-1.3692637756	 2.1083674922	-0.271554
H	 0.7879033085	 2.0827435668	-0.0005441048	 0.117336
H	-0.675482982	 1.8632712522	-0.9679244352	 0.115341
H	-0.7899218831	 1.9252444927	 0.794759035	 0.115138
H	-0.982043872	-0.4313623249	 0.0406835338	 0.094614
H	 0.5023846912	-0.4068258958	-2.1651809058	 0.092057
H	 2.7797594304	-1.3655842015	-1.4069882584	 0.094592
H	 2.4562132943	-1.8666255624	 1.2031997899	 0.122949
H	 2.9809586395	-0.1921690461	 1.0342182491	 0.109953
H	 1.3148090795	-0.1052893091	 3.3609198712	 0.106943
H	-0.302842223	 0.5910129973	 2.8446291577	 0.10869
