19
gdb 126651	6.2401	0.67227	0.61483	4.3322	78.74	-0.2088	-0.001	0.2078	1793.7423	0.159727	-419.193236	-419.184218	-419.183273	-419.22802	32.561	
C	 0.0142686095	 1.5427317651	 0.0551097226	-0.381391
C	-0.054982187	 0.0167905335	-0.0392253018	-0.195396
C	 0.7277089785	-0.5340700873	-1.2293637634	-0.117187
N	 0.6088528254	-1.9834443266	-1.3111903886	-0.411803
C	 1.3015301645	-2.6296105335	-2.3281623503	 0.188555
C	 1.9038472824	-2.1252126889	-3.4445328873	-0.006479
O	 2.399504075	-3.1326422724	-4.201169246	-0.172549
N	 2.1412373175	-4.3356036853	-3.5782171718	-0.127119
C	 1.4914518021	-4.0368287764	-2.4812355539	-0.048999
H	 1.048027026	 1.8894956967	 0.1594381965	 0.119785
H	-0.4055690658	 2.0138032013	-0.840140106	 0.120791
H	-0.5483224603	 1.909357595	 0.9183116809	 0.119982
H	 0.3398114414	-0.4259095818	 0.8858689666	 0.096363
H	-1.0973551305	-0.311932467	-0.1210501335	 0.114034
H	 0.3253369321	-0.1120583483	-2.1600121393	 0.112764
H	 1.7825884227	-0.2106914346	-1.1690983306	 0.092536
H	 0.7195042982	-2.4348860134	-0.412842867	 0.233357
H	 2.0490109841	-1.1305025114	-3.8303268066	 0.138938
H	 1.1711217543	-4.8305535345	-1.8204428706	 0.12382
