17
gdb 54733	3.10441	1.36756	1.3473	2.3669	71.32	-0.2262	0.0221	0.2483	1021.0738	0.136117	-417.937693	-417.9297	-417.928756	-417.970561	30.718	
N	 0.1190290014	 1.1207092404	 0.8347874756	-0.506576
C	 0.0790894043	 0.12512832	-0.1014694412	 0.319913
O	 0.8584522081	 0.0564432911	-1.0290766831	-0.354142
C	-1.1002905372	-0.8161790803	 0.0660535025	-0.109606
C	-1.152672209	-2.299560965	-0.121666835	-0.104043
C	-0.0887147749	-3.0853941642	 0.6665582455	-0.020561
C	 0.8257871009	-2.2861631871	 1.5010170268	-0.25855
N	-0.5518924796	-2.5229977374	 1.9874117103	-0.147571
C	-1.5553082202	-1.6913896039	 1.2123500175	-0.051422
H	 0.8763229397	 1.7838343888	 0.7968487556	 0.262057
H	-0.4500602615	 1.0795826525	 1.6624985225	 0.26515
H	-1.9817096939	-0.3548793833	-0.3826140745	 0.127132
H	-1.7743650644	-2.7673656342	-0.8730113857	 0.101723
H	 0.0245230095	-4.1571611127	 0.5413871886	 0.103178
H	 1.5489906956	-2.8449262497	 2.0894019258	 0.12402
H	 1.1644929493	-1.3005513966	 1.2161023343	 0.144996
H	-2.5306752382	-1.5816338784	 1.6706131046	 0.104303
