19
gdb 57601	2.32795	1.4408	1.28825	1.8206	71.35	-0.2403	-0.0337	0.2066	1100.5506	0.156441	-460.146078	-460.136505	-460.135561	-460.1805	34.773	
C	 0.1005581045	 1.5443937888	 0.0692465942	-0.42334
C	 0.0223828459	 0.0187801182	 0.0488321381	 0.214568
O	 0.6523794387	-0.4397089909	 1.250796456	-0.457413
C	-1.4499699124	-0.394219841	 0.161385729	 0.134907
O	-2.0756656935	-1.071406758	-0.612208617	-0.252532
C	 0.765214447	-0.5306164937	-1.1742055684	 0.131519
C	 0.6048140894	-2.0145626136	-1.5885265037	-0.325753
C	 0.0039759689	-1.4315297986	-2.8836835719	-0.050588
O	 0.1994772767	-0.0744396684	-2.4168672236	-0.297641
H	 1.1424947594	 1.8481301529	 0.2054491538	 0.132772
H	-0.2719672331	 1.9499137444	-0.8740873131	 0.153925
H	-0.4846864099	 1.9538051152	 0.8979423273	 0.12401
H	 0.6715810117	-1.4039879355	 1.231697632	 0.290531
H	-1.9054634212	-0.0262973878	 1.1096056137	 0.090963
H	 1.8124817484	-0.2128144802	-1.0707491307	 0.082349
H	 1.5460273622	-2.5522311983	-1.7108099462	 0.10946
H	-0.0856397933	-2.6100764348	-0.9921154842	 0.117327
H	 0.5718881932	-1.6251940496	-3.8005926069	 0.100343
H	-1.0548957628	-1.6493882093	-3.0456007384	 0.124592
