18
gdb 117282	4.73824	0.67104	0.59429	4.3968	71.2	-0.2437	-0.0204	0.2233	1817.5004	0.144474	-476.27709	-476.266383	-476.265439	-476.314825	35.821	
C	-0.003980361	 1.5250349082	-0.252089792	-0.501889
C	-0.0126124516	 0.0590045173	 0.1581411341	 0.412933
O	-0.0374316149	-0.3131319478	 1.3015445009	-0.292648
N	 0.011431974	-0.8075413809	-0.947615782	-0.388238
C	 0.0110661987	-2.2098737192	-0.9488597873	 0.430083
O	-0.0102741685	-2.8847766767	 0.0489744508	-0.306443
C	 0.0401880197	-2.7936283616	-2.3563641092	-0.322759
C	 0.0454181675	-4.3156636785	-2.3448097591	-0.073211
O	 0.0720772827	-4.7367972591	-3.7004384031	-0.425843
H	 0.892536235	 1.762967937	-0.8348002804	 0.142026
H	-0.8767512193	 1.7632895127	-0.8696968003	 0.142161
H	-0.0217225748	 2.1373103982	 0.6484635888	 0.158939
H	 0.0309837114	-0.3676617762	-1.8556204126	 0.252276
H	-0.8283180141	-2.4339091591	-2.9228782669	 0.132408
H	 0.9265016983	-2.4273020679	-2.8900482354	 0.132071
H	 0.920004955	-4.6756882414	-1.7858315502	 0.109087
H	-0.8465858649	-4.6818337767	-1.8184365323	 0.109331
H	 0.0722536766	-5.6981701984	-3.7131415738	 0.289716
