15
gdb 20199	3.93589	2.80283	2.08953	1.4333	70.75	-0.2011	-0.029	0.1722	675.4982	0.120674	-325.430127	-325.424507	-325.423563	-325.459375	23.406	
C	 0.0340579609	 1.5130573241	 0.1031468475	-0.176355
C	 1.5029843383	 1.8705952967	-0.1000016409	-0.097706
C	 2.1690671625	 0.7510606169	-0.4290736129	 0.038227
C	 3.1003433272	 0.1420825555	 0.5858172837	-0.149491
C	 2.3152126481	-0.7241104695	 1.2498030395	-0.080158
C	 1.0019320924	-0.9659527224	 0.5215068184	-0.051649
C	 1.1515592174	-0.3319268638	-0.7949445325	-0.08888
N	-0.0477250303	 0.0422083666	-0.0736600314	-0.13986
H	-0.2552757902	 1.8129941239	 1.1189719528	 0.120895
H	-0.6944154352	 1.9701120876	-0.5827340321	 0.114548
H	 1.9499504716	 2.7185374932	 0.4090006697	 0.101071
H	 4.0758725922	 0.5051553375	 0.8814118561	 0.114518
H	 2.5797250386	-1.2557633825	 2.1560904264	 0.104509
H	 0.5062299117	-1.9201830146	 0.6560753224	 0.102964
H	 1.1146675549	-0.8108805892	-1.7716408669	 0.087366
