17
gdb 9395	5.63369	0.81608	0.73931	3.7689	66.33	-0.2658	0.0091	0.2749	1484.3179	0.140041	-400.992632	-400.983142	-400.982198	-401.027698	32.098	
C	-0.0215269183	 1.3835219567	 0.0522883381	-0.231648
O	-0.0307113487	-0.0236373197	-0.0111800478	-0.232594
C	 0.6595950555	-0.5262148103	-1.1306847626	-0.05863
C	 0.5886054629	-2.0483327089	-1.0746640531	-0.219727
C	 1.3221735727	-2.7008009091	-2.2563748442	-0.026087
O	 2.6946791196	-2.3541414075	-2.3259683873	-0.407417
C	 1.1487958118	-4.1686499989	-2.2266690526	 0.260165
N	 1.0343168129	-5.3173268169	-2.176176083	-0.312497
H	 1.0028077771	 1.7827371569	 0.1179366899	 0.106815
H	-0.5095288329	 1.8349112816	-0.8259003851	 0.106781
H	-0.5724921963	 1.6728500354	 0.9501003518	 0.131323
H	 0.2039694034	-0.158169559	-2.0675339805	 0.087784
H	 1.708806252	-0.1926897478	-1.1312460018	 0.102888
H	 1.0244568545	-2.4011680239	-0.1326107604	 0.120174
H	-0.4592049492	-2.3662679203	-1.0783053361	 0.1335
H	 0.8915458376	-2.3369490941	-3.1968159201	 0.142552
H	 3.1351782856	-2.7097124142	-1.5449465752	 0.296619
