14
gdb 54446	3.48416	1.29559	1.06418	1.4101	63.	-0.2687	-0.0238	0.2449	1077.0996	0.100368	-473.854737	-473.846837	-473.845893	-473.887534	29.234	
N	 0.0290011769	 0.8277998069	-0.8912453718	-0.539953
C	-0.0393981655	 0.0183918897	 0.1940874916	 0.319435
O	 0.8102316674	-0.0712915668	 1.0595438174	-0.368911
C	-1.2833181563	-0.8034469229	 0.2554545729	 0.365768
C	-1.8727906238	-1.4416748769	 1.4563373903	-0.323889
C	-1.4232223031	-2.3176973082	 0.286449382	-0.299566
C	-2.3647306259	-2.0977241274	-0.8660853491	 0.457273
O	-2.965171941	-2.7379255397	-1.661165937	-0.309751
O	-2.2946934954	-0.6993716528	-0.7893160088	-0.313027
H	 0.8428128833	 1.407026505	-1.0138220687	 0.271338
H	-0.71004173	 0.8421478351	-1.5736985213	 0.281404
H	-1.2139070505	-1.4932407331	 2.3164176562	 0.166688
H	-2.9285453286	-1.3012016675	 1.6611043445	 0.143811
H	-0.6711557176	-3.0872232415	 0.3758881318	 0.14938
