21
gdb 118975	2.65599	1.03634	0.97271	2.9221	75.53	-0.2427	0.0706	0.3132	1367.005	0.18001	-461.332993	-461.322858	-461.321914	-461.368282	36.66	
C	-0.1212436208	 1.3689814612	-0.1263911974	-0.229665
O	 0.0605317927	-0.0291719644	-0.09851745	-0.256398
C	 0.6062342012	-0.5031796639	 1.1203201727	-0.12813
C	 0.6309547678	-2.021237049	 1.0127192643	 0.318202
O	-0.653388884	-2.5061971839	 0.7191309178	-0.484466
C	 1.8180273143	-2.5689357462	 0.1782707854	-0.120925
O	 2.518709379	-2.942481286	 1.3837416962	-0.29955
C	 1.3197134008	-2.7711175132	 2.1786244361	 0.122461
C	 1.5830309735	-2.1199144426	 3.5202993283	-0.421323
H	 0.8345648824	 1.9022119932	-0.0138443065	 0.112803
H	-0.556446639	 1.6228054341	-1.0957026619	 0.132571
H	-0.8007305489	 1.7053202932	 0.6714993254	 0.111219
H	 1.6173567804	-0.0999549408	 1.2796066121	 0.103411
H	-0.0269473685	-0.191748703	 1.9667366695	 0.094903
H	-1.0382284656	-1.8814734598	 0.0905179306	 0.286871
H	 1.5317807588	-3.440145634	-0.4246689408	 0.09961
H	 2.3895911628	-1.8617368289	-0.4317907975	 0.101938
H	 0.8101267838	-3.7359322975	 2.3195050223	 0.082677
H	 2.0775376362	-1.1507482198	 3.4116901022	 0.11895
H	 0.6458516554	-1.9829871619	 4.0697714359	 0.123953
H	 2.2342440278	-2.7635191467	 4.1198649653	 0.130887
