21
gdb 96273	2.12052	1.58134	1.01103	3.9568	79.17	-0.2308	0.0643	0.2951	1227.1083	0.185656	-420.4628	-420.453923	-420.452979	-420.496199	34.185	
C	 0.0885223729	 1.5777429474	 0.054467915	-0.4247
C	 0.0408105235	 0.0519343978	-0.0031738843	 0.065955
C	 0.5817380728	-0.4889318457	-1.3378814667	-0.181349
C	 0.9003217575	-1.9912172958	-1.2802319758	-0.206723
C	-0.1557380306	-2.8144276698	-0.5357281367	-0.159267
N	-0.1259858346	-2.6673623458	 0.9216834337	-0.325908
C	 0.5052366406	-1.7247522256	 1.7102501874	 0.405905
O	 0.7861292195	-1.9591182429	 2.8749968089	-0.417695
N	 0.7908677469	-0.5043860706	 1.1240749151	-0.335566
H	 1.1246750498	 1.9327288183	 0.0175136772	 0.125037
H	-0.4451482479	 2.0098201027	-0.7966440144	 0.124852
H	-0.3739355971	 1.9540011736	 0.9723866677	 0.123882
H	-1.0102753651	-0.2575768807	 0.0902658483	 0.090286
H	-0.1637242741	-0.2906816793	-2.1183374314	 0.094678
H	 1.487731657	 0.0620137951	-1.6179910428	 0.097218
H	 0.9853682429	-2.3829992129	-2.2995532767	 0.100178
H	 1.8705119649	-2.1502974145	-0.7993010695	 0.121581
H	-1.1547159752	-2.571991342	-0.9289706215	 0.102918
H	 0.0097195575	-3.8754744847	-0.7516886207	 0.109111
H	-0.2694473882	-3.5126780515	 1.4510528944	 0.246937
H	 1.1209105571	 0.1495522668	 1.8176838325	 0.242669
