19
gdb 88010	2.91472	1.31472	1.09976	3.267	76.27	-0.2549	0.0493	0.3042	1176.1154	0.157043	-422.974937	-422.966177	-422.965233	-423.009164	32.736	
C	 0.0047269898	 1.4749214139	-0.188625418	-0.417603
C	 0.0239660048	-0.0162643609	 0.0211546962	-0.026954
O	 1.308069587	-0.6616905623	 0.0056832162	-0.284014
C	 0.5898643207	-0.6443864568	 1.2222161547	 0.378717
C	 1.0864810361	-0.0113612885	 2.5317716533	-0.33306
C	 0.4837483023	-1.2244034303	 3.3144812927	-0.325145
C	 0.1444260091	-1.892859055	 1.9730582106	 0.365077
C	-0.8154356555	-2.9416371888	 1.6256497098	-0.269021
O	 0.595143281	-3.1919637842	 1.6334252674	-0.258697
H	 0.7811958993	 1.9646405475	 0.4043906134	 0.129244
H	 0.176289884	 1.7161418974	-1.2428023287	 0.132883
H	-0.9686591153	 1.8894570213	 0.0960382434	 0.121558
H	-0.7455396984	-0.5727298009	-0.5180049857	 0.088085
H	 2.1766200837	 0.038223852	 2.5799754769	 0.124972
H	 0.6753336577	 0.9708555954	 2.7754815364	 0.108234
H	 1.19477792	-1.791424609	 3.918133953	 0.12427
H	-0.3881920497	-0.9779330252	 3.9249650481	 0.110823
H	-1.3843700474	-3.4322950316	 2.4151681949	 0.114953
H	-1.2843033391	-2.949544704	 0.6421308857	 0.115678
