18
gdb 32422	2.89531	1.24706	0.93162	1.2027	75.05	-0.1742	0.0578	0.232	1259.6503	0.146919	-439.11539	-439.105841	-439.104897	-439.149436	35.403	
C	 0.0738843555	 1.6036573199	 0.0892605615	-0.366956
C	-0.0708212946	 0.078947383	-0.059897616	-0.303236
C	 0.6476693861	-0.4676299123	-1.2580771687	 0.193353
C	 0.0925536508	-1.0493561632	-2.373055929	-0.200446
N	 1.1126535305	-1.388182982	-3.2478714594	-0.313802
C	 2.3085210363	-1.0365930277	-2.6953437549	 0.339037
O	 3.4650184893	-1.2575400148	-3.3671086942	-0.443361
C	 2.0652290926	-0.4684178106	-1.4701706933	 0.042687
O	 3.067680645	 0.0643451659	-0.6770156039	-0.461457
H	 1.1285626973	 1.8839892756	 0.1624851479	 0.129414
H	-0.3479953564	 2.1185748189	-0.779365816	 0.116051
H	-0.442121042	 1.9634883394	 0.9856368192	 0.101508
H	 0.302659678	-0.4015369794	 0.8559851846	 0.086494
H	-1.1318008859	-0.1881164526	-0.1249974074	 0.098333
H	-0.9361364293	-1.255966666	-2.6180102745	 0.113503
H	 1.0087422388	-1.8151201913	-4.1508207471	 0.265197
H	 4.1689565665	-0.8893769244	-2.819263271	 0.308241
H	 3.0958194314	-0.4206989283	 0.154810362	 0.295443
