19
gdb 83698	2.74133	1.60373	1.19086	2.5332	76.9	-0.2421	0.015	0.2571	1079.0647	0.160405	-423.022551	-423.014534	-423.01359	-423.054977	31.177	
C	-0.2206069377	 1.5287290415	 0.0616613428	-0.490696
C	-0.1036795952	 0.0419679922	-0.0231787907	 0.293181
C	-0.1187014057	-0.7277349199	-1.1150235962	-0.197665
C	 0.0821233363	-2.1879847443	-0.8156004636	-0.1172
C	 1.549742268	-2.6781983235	-0.8788635135	-0.077379
O	 1.7046556866	-2.503955371	 0.5519459303	-0.307149
C	 0.2903668519	-2.2159598381	 0.7164032985	 0.078179
C	 0.0808286323	-0.7791585392	 1.2491195646	 0.03171
O	 1.169968264	-0.3497800167	 2.0452843652	-0.433754
H	 0.6286371071	 1.9385014764	 0.6192187149	 0.144375
H	-0.2566788197	 1.9963103948	-0.9256871715	 0.11877
H	-1.1237073035	 1.8204388818	 0.6137241982	 0.125991
H	-0.2291574467	-0.3565601845	-2.1295426098	 0.090381
H	-0.6619675939	-2.8537790831	-1.2575109323	 0.083294
H	 1.6737576009	-3.7310743107	-1.1600101374	 0.103545
H	 2.2516871338	-2.0593293759	-1.4479757112	 0.107194
H	-0.2042049577	-2.992715727	 1.3063137887	 0.07826
H	-0.8091574427	-0.712310519	 1.8895054447	 0.079538
H	 1.9467665621	-0.7803012835	 1.6577063584	 0.289426
