13
gdb 123695	4.09082	1.6194	1.25973	4.231	62.72	-0.2918	-0.0511	0.2407	910.8309	0.091035	-452.680445	-452.674536	-452.673592	-452.710752	23.399	
C	-0.0614770529	 1.5200314353	 0.0071973607	-0.379632
C	 1.4329689033	 1.8931520317	-0.0395002067	 0.052598
O	 2.1693747249	 1.4730444496	 1.1052311567	-0.235132
C	 2.2966896116	 0.6814362314	-0.0909666792	-0.124377
C	 1.3505580766	-0.4558320721	-0.0574827502	 0.372817
N	 1.360826074	-1.7515158433	-0.0781071814	-0.213824
O	 0.0260755644	-2.100841361	 0.021948446	-0.158968
N	-0.7981893866	-0.9879659262	 0.1016830826	-0.193335
C	 0.0145913772	 0.0193369805	 0.0453699214	 0.330224
H	-0.5486200857	 1.9502863798	 0.8866967924	 0.157982
H	-0.5885442431	 1.8813901058	-0.8817047008	 0.144844
H	 1.7399199367	 2.8418921667	-0.4707167444	 0.117668
H	 3.2792738996	 0.6396424918	-0.5455525572	 0.129134
