23
gdb 60098	3.5904	0.97836	0.90707	1.4338	86.53	-0.2591	0.0706	0.3297	1413.0119	0.20559	-388.246679	-388.237435	-388.236491	-388.281099	35.881	
C	-0.0683927806	 1.5719981955	 0.0415318637	-0.39822
C	 0.0017533014	 0.0446351562	-0.0032487701	 0.138633
O	 0.8443019142	-0.4592792107	 1.0321736884	-0.425827
C	-1.3919790532	-0.6004902014	 0.0262463058	-0.372578
C	-1.3918411791	-2.1052195517	-0.1034717373	 0.392399
C	-0.8000899654	-3.1637011889	 0.8816893007	-0.241985
C	-1.4271406732	-3.9832872785	-0.2794201572	-0.048189
C	-2.6485189554	-3.0261849351	-0.2039245177	-0.265314
C	-0.7767906483	-2.9644983907	-1.2570900175	-0.249954
H	 0.939092126	 1.9965935671	 0.0423211815	 0.122464
H	-0.6151135998	 1.971263917	-0.8190521464	 0.113998
H	-0.5830902014	 1.9109481309	 0.9495081545	 0.104543
H	 0.5069881156	-0.2597382412	-0.9283099414	 0.091886
H	 0.4277578159	-0.248578542	 1.8754357924	 0.275221
H	-1.896563214	-0.3139480138	 0.962200234	 0.083294
H	-1.9935998276	-0.1702166835	-0.7859493549	 0.096769
H	 0.2869591201	-3.1815953726	 0.9763175939	 0.102227
H	-1.2906590912	-3.2452049479	 1.857379011	 0.075863
H	-1.4485592282	-5.0684400719	-0.3843392154	 0.067023
H	-3.2752419463	-3.0972934646	 0.6907160934	 0.081876
H	-3.2562970937	-2.92785608	-1.1091112351	 0.0819
H	-1.2409898446	-2.8637225253	-2.2434090162	 0.081164
H	 0.3143733286	-2.9813177569	-1.3279480502	 0.092807
