11
gdb 3804	8.07499	2.25881	1.7851	2.2981	48.03	-0.265	-0.0072	0.2578	654.3669	0.079374	-376.564063	-376.558121	-376.557176	-376.59415	20.191	
C	 0.009483156	 1.4021068853	-0.0366188655	-0.251492
O	 0.0176656982	-0.034889446	-0.0276148769	-0.244856
C	 0.5949907814	-0.6430960784	-1.0391763447	 0.54191
N	 0.6942191064	-1.9321285825	-1.1945306958	-0.365746
C	 1.3677334147	-1.994991304	-2.3842831805	 0.060834
N	 1.6736021897	-0.8556336303	-2.9439010574	-0.133737
O	 1.1427868815	 0.0835858904	-2.0193577346	-0.218541
H	 1.0301721628	 1.7932293347	-0.0340333203	 0.153502
H	-0.5238002354	 1.778876483	-0.9132247544	 0.153508
H	-0.5093404547	 1.6926611611	 0.8756705172	 0.154811
H	 1.6429497994	-2.9276083232	-2.856609067	 0.149808
