16
gdb 36079	3.73282	1.1963	1.10419	4.6293	72.03	-0.2445	0.0294	0.2739	1111.5525	0.124925	-400.68977	-400.682428	-400.681484	-400.722254	27.855	
N	-0.2174314175	-1.1473723719	-0.3098031351	-0.302261
C	-0.1387613763	-0.0113384717	-0.1161132957	 0.268054
C	-0.029315897	 1.4284581482	 0.1397487959	-0.502724
C	 1.3849598526	 1.9276376829	 0.098760173	 0.3099
C	 1.9811335775	 3.3310038446	-0.0040017944	-0.185426
C	 2.8607432526	 3.1017113229	 1.2251288581	-0.230307
C	 2.7230882944	 1.5963025723	 0.8806918742	 0.021988
O	 3.4436562013	 1.4630099713	-0.3750939902	-0.284442
C	 2.382631078	 2.1982536968	-0.9736372807	 0.050493
H	-0.6282090916	 1.9616539067	-0.608596344	 0.160204
H	-0.4916526597	 1.6412915763	 1.1120562297	 0.158179
H	 1.4955654093	 4.2385107126	-0.3404617488	 0.097606
H	 3.878655985	 3.5017846364	 1.2341344867	 0.110059
H	 2.335337468	 3.3588262226	 2.1483127518	 0.106993
H	 2.9201218471	 0.7914310792	 1.5849740224	 0.102973
H	 2.3069902463	 2.2434775807	-2.051986773	 0.11871
