19
gdb 94726	2.74285	1.53516	1.27363	1.9556	70.51	-0.2442	0.0504	0.2946	1056.2914	0.158853	-460.143976	-460.135524	-460.13458	-460.17674	32.306	
C	-0.1686074627	 1.5892893034	 0.1324223139	-0.466149
C	 0.099069622	 0.106491021	 0.0225950349	 0.365013
C	-1.0779106507	-0.8783190185	 0.2341475275	-0.120381
O	-0.3356751521	-1.6179892245	 1.2281113378	-0.286621
C	 0.7732740288	-0.6983704967	 1.1673047655	 0.038688
C	 2.0258257388	-1.293487515	 0.5264269826	 0.108376
O	 2.3470988232	-2.5436927696	 1.0902133843	-0.426489
C	 1.6219603547	-1.3251031538	-0.9614115627	-0.146219
O	 0.8581003089	-0.1410921024	-1.1587988566	-0.299728
H	 0.7715633417	 2.1474628708	 0.1639995267	 0.125044
H	-0.7377726499	 1.9348329221	-0.7366135893	 0.131556
H	-0.7441608918	 1.8161144641	 1.0340532405	 0.122375
H	-1.9895353128	-0.4346536134	 0.6535043892	 0.098012
H	-1.3344995355	-1.4864065827	-0.6410471664	 0.107131
H	 0.9553569216	-0.2124992261	 2.130664862	 0.075222
H	 2.8410994579	-0.5643499937	 0.6621788163	 0.072133
H	 3.1952629976	-2.8255441349	 0.7345416081	 0.288904
H	 2.4659481301	-1.2970573391	-1.6561913827	 0.102219
H	 1.0345349699	-2.2354701409	-1.1499981216	 0.110913
