18
gdb 92010	2.64259	1.59397	1.28239	3.944	70.9	-0.2428	-0.0145	0.2282	1023.0064	0.148842	-439.079408	-439.071629	-439.070685	-439.111797	30.178	
O	 0.0724188597	 1.4727658425	-0.036113368	-0.432642
C	 0.1245289484	 0.0612431207	 0.0525532336	 0.082745
C	 0.6290825073	-0.4284119206	 1.4359742078	-0.236275
C	-0.6332731824	-0.5396893177	 2.2724766691	-0.039602
N	-1.5179298708	 0.636762133	 2.1006253714	-0.351195
C	-1.8039313983	-0.6162763244	 1.3619674567	-0.023573
C	-1.303591741	-0.5642325266	-0.068781336	-0.129593
C	-2.1819725605	 0.192404734	-1.0421767767	 0.164477
O	-3.2919385018	 0.585339709	-0.7896021669	-0.252552
H	-0.4910423118	 1.7492081263	 0.7061848983	 0.294636
H	 0.7790109328	-0.2676291064	-0.758166629	 0.085441
H	 1.102866755	-1.4138254801	 1.3538910635	 0.10227
H	 1.3639646214	 0.2737895075	 1.8393883176	 0.117458
H	-0.6200151762	-1.0451448718	 3.2322747304	 0.092866
H	-2.1536290454	 0.7250546787	 2.8877386469	 0.241924
H	-2.7032015825	-1.1675980132	 1.6090922471	 0.101636
H	-1.2095565501	-1.5914789857	-0.4547995548	 0.098791
H	-1.7304690937	 0.3461199049	-2.046812691	 0.083189
