19
gdb 39213	2.49773	2.02948	1.52443	2.3771	73.79	-0.242	0.0717	0.3138	931.4556	0.1618	-422.986686	-422.979806	-422.978862	-423.017615	28.521	
C	 0.0401007462	 1.6175191176	-0.0023104758	-0.226414
C	 1.5769295415	 1.4248452772	 0.0744303448	 0.129325
C	 1.3126874496	-0.0053245535	 0.6292416269	-0.268283
C	-0.1086424791	 0.0707574871	-0.0104423386	-0.057422
C	-0.1263332369	-0.5271889427	-1.4107244021	 0.040732
O	-0.2437842713	 0.3527527374	-2.5429166552	-0.248729
C	 0.9833829431	-0.3487326063	-2.3565821024	 0.046695
C	 2.2604840288	 0.4221848058	-2.0639926458	-0.11697
O	 2.1960870542	 1.5317202224	-1.1996435872	-0.26632
H	-0.3615070079	 2.0493879439	 0.9182381606	 0.094075
H	-0.3291159929	 2.1613822123	-0.8709273199	 0.126616
H	 2.1326633425	 2.1087284087	 0.7212216698	 0.079398
H	 1.9722491743	-0.8225798664	 0.328897291	 0.102305
H	 1.2692325466	 0.0236482322	 1.7211155691	 0.105191
H	-0.931481422	-0.3444247008	 0.5757990819	 0.065547
H	-0.7174245236	-1.4378510671	-1.5134601541	 0.089492
H	 1.1610906143	-1.1427930442	-3.0879784568	 0.089364
H	 3.0033755747	-0.3174427569	-1.7184065029	 0.094444
H	 2.6412492179	 0.8300607234	-3.0075477631	 0.120953
