19
gdb 108982	3.78191	1.13886	1.01865	1.0138	76.08	-0.2329	0.0054	0.2383	1207.6653	0.160775	-423.006082	-422.998322	-422.997378	-423.038356	30.698	
O	 0.1787786811	 1.3779064197	 0.0280380169	-0.4077
C	 0.0100315353	-0.0199692338	-0.0981985517	-0.145126
C	-1.4222802297	-0.4816215927	-0.0774492764	 0.257767
C	-2.4777444914	 0.3367424469	-0.0857858731	-0.16511
C	-3.839995695	-0.3198504398	-0.0231966446	 0.045364
C	-3.9335895595	-1.4200595752	-1.1083301072	-0.239561
C	-3.201662457	-2.2294690078	-0.0146442071	 0.087761
C	-1.6849876133	-1.9785787882	-0.0224555759	-0.31025
O	-3.8013492264	-1.3709656312	 0.9963049878	-0.294928
H	-0.2053066501	 1.6371946493	 0.8725743999	 0.284222
H	 0.4749267191	-0.291261016	-1.0559685967	 0.122144
H	 0.576310816	-0.5676346859	 0.6763374355	 0.093941
H	-2.3750118156	 1.4137180559	-0.1542631229	 0.093802
H	-4.6705196209	 0.3719949093	 0.1280917681	 0.07416
H	-4.9548038526	-1.7778411963	-1.2500848477	 0.107909
H	-3.4405016191	-1.2450178593	-2.066235316	 0.099908
H	-3.4562378114	-3.2828454782	 0.1301356536	 0.07523
H	-1.2178026551	-2.4880569173	-0.8772986172	 0.106469
H	-1.2329307445	-2.4115720792	 0.8801154045	 0.113997
