19
gdb 37246	3.48074	1.50466	1.35922	1.6518	78.35	-0.2493	0.0708	0.3201	1007.6218	0.159692	-385.808891	-385.801724	-385.800779	-385.840318	29.535	
C	-0.0338680626	 1.5195140201	-0.0180830968	-0.306203
C	 1.2748846291	 0.7648698239	 0.0106473257	-0.346433
C	-0.0323129429	 0.0230010846	-0.003949448	 0.418353
C	-0.5585643262	-0.9158025138	 1.1025495659	-0.330548
C	-1.0372258814	-1.905508966	-0.0035175235	-0.051864
C	-2.4684156915	-1.6967041933	-0.5600557703	 0.013607
O	-2.7704822519	-0.2995148185	-0.5000297763	-0.233741
C	-1.9795936085	-0.7690833215	-1.5973566421	 0.022388
C	-0.5131012308	-0.9278890089	-1.1100325103	-0.174347
H	-0.3510783742	 2.0320645668	 0.884342922	 0.112465
H	-0.3184455835	 2.0224856876	-0.9368380095	 0.109202
H	 1.8817177218	 0.7528718278	-0.8898141376	 0.10709
H	 1.8478982004	 0.7657303872	 0.9329770851	 0.109175
H	 0.2240633161	-1.3297212621	 1.7447825569	 0.096042
H	-1.3566273715	-0.5030384087	 1.7237955455	 0.110194
H	-0.6986964848	-2.940053323	 0.0377290337	 0.074158
H	-3.3112177367	-2.3794301257	-0.5464599276	 0.099957
H	-2.3488927363	-0.5475389584	-2.5929286798	 0.100873
H	 0.1958807554	-1.2565803882	-1.8714150929	 0.069633
