18
gdb 74770	3.89146	1.13885	1.08499	4.4544	79.59	-0.2305	-0.0017	0.2288	1179.4003	0.147775	-401.926614	-401.918662	-401.917718	-401.959235	30.341	
C	-0.2292500865	 1.5083994558	 0.049114849	-0.519883
C	-0.0641213529	 0.032274203	-0.0323079194	 0.368993
C	-0.1068860854	-0.8294439542	-1.0550309384	-0.187443
C	 0.171130144	-2.1827618872	-0.3838356807	-0.06365
C	-0.7662597475	-2.0748610572	 0.8702745775	-0.207938
C	 0.2357709755	-0.9066881873	 1.1595993971	-0.143762
N	 1.2936909838	-1.7803331589	 0.5373626199	-0.033275
C	 2.148173503	-2.6297523857	 1.1698262081	 0.12902
O	 2.5070124016	-3.7087441595	 0.7440738458	-0.333577
H	 0.6792895478	 1.9895980327	 0.4329225522	 0.136254
H	-0.4509702255	 1.9373107818	-0.9317893944	 0.133563
H	-1.0423791241	 1.7848890669	 0.7323404833	 0.130995
H	-0.2761105669	-0.6548844588	-2.1074067445	 0.1114
H	 0.3026492816	-3.0897435986	-0.9666494318	 0.108407
H	-1.8134494864	-1.8162370379	 0.6994696709	 0.105237
H	-0.6572672111	-2.916219042	 1.5606502058	 0.115828
H	 0.4223777824	-0.4928002175	 2.1502524378	 0.084562
H	 2.5448831065	-2.1828397755	 2.105982332	 0.065268
