23
gdb 60254	2.89271	0.92976	0.8737	2.2821	82.65	-0.2431	0.0727	0.3158	1501.3448	0.202924	-425.410391	-425.399784	-425.39884	-425.447281	38.066	
C	 0.1357955774	 1.2691055754	 0.7430085002	-0.390226
C	-0.0351453006	-0.059388817	 0.0015458902	 0.148735
C	-1.490120419	-0.3323389645	-0.3620645836	-0.38992
O	 0.6961307241	-0.0658571824	-1.2278003263	-0.266437
C	 2.0677419702	-0.3248013245	-1.110301638	 0.061348
C	 2.4870891573	-1.8082681184	-0.9768777332	-0.096371
O	 3.1295646064	-1.7850343321	-2.2655411061	-0.293632
C	 2.7916043565	-0.3901643765	-2.4788139591	 0.122841
C	 1.9730387354	-0.1695008079	-3.7342453988	-0.388558
H	 1.1827545371	 1.4662235226	 0.9909740349	 0.117856
H	-0.2311623877	 2.0947062622	 0.1251194336	 0.124061
H	-0.4296618424	 1.2590389906	 1.6802356262	 0.115634
H	 0.3324706858	-0.878516005	 0.6405133351	 0.070669
H	-1.8665747472	 0.4531516758	-1.0251069451	 0.124896
H	-1.5821767097	-1.2900181425	-0.8808828077	 0.121564
H	-2.1159038678	-0.3572315708	 0.5349659102	 0.11322
H	 2.5427284507	 0.34567553	-0.383615223	 0.071427
H	 3.1920221018	-2.0424523132	-0.1690969402	 0.094715
H	 1.6466253265	-2.513246455	-0.9436886287	 0.100349
H	 3.7055233597	 0.2192226809	-2.5072085501	 0.071642
H	 1.0327105394	-0.721743975	-3.689683963	 0.129823
H	 1.744585163	 0.8936108463	-3.8609181324	 0.116047
H	 2.5444763832	-0.5065626691	-4.604591635	 0.120317
