19
gdb 61498	3.37838	0.80676	0.74725	2.1165	78.16	-0.2591	0.0069	0.266	1540.5924	0.157928	-419.247323	-419.237031	-419.236087	-419.283539	35.509	
C	 0.1787894431	 1.5584814638	 0.0404159177	-0.395784
C	 0.0354016097	 0.0285309596	-0.0462463529	-0.138095
C	-1.4316543883	-0.4797293806	 0.0659508598	-0.1922
N	-2.0962921766	-0.0976838276	 1.2979675338	-0.036927
C	-3.0109928465	 1.0365151641	 1.3108322555	-0.356036
C	-1.9860016036	-0.8870030557	 2.4102052319	 0.150391
O	-2.5213135489	-0.6828930654	 3.4773124213	-0.33173
C	 0.6116604314	-0.4794708169	-1.2952307937	 0.266917
N	 1.0405913544	-0.8816645429	-2.2902666609	-0.313531
H	 1.2253774676	 1.8526425205	-0.0666190703	 0.14522
H	-0.3957931578	 2.0523707241	-0.7485638526	 0.137235
H	-0.1768555238	 1.9091081614	 1.0115497539	 0.142063
H	 0.603075017	-0.4213626194	 0.7780469977	 0.136084
H	-2.0128929964	-0.0971248627	-0.7784738411	 0.134217
H	-1.4229944594	-1.5710900257	-0.0216328214	 0.141551
H	-3.8172508865	 0.8902557042	 0.5823454912	 0.131893
H	-3.4366254671	 1.1016134771	 2.3121553211	 0.174708
H	-2.4966863068	 1.9728514245	 1.075465754	 0.128505
H	-1.3320592213	-1.7627476224	 2.2244287149	 0.075519
