18
gdb 13089	4.22734	1.21576	1.04183	3.9395	69.81	-0.2763	0.0099	0.2862	1145.8923	0.152842	-384.957663	-384.949269	-384.948325	-384.991406	29.921	
C	-0.1268072622	 1.4944262441	 0.1478743023	-0.386635
C	 0.0639133701	-0.0179594165	 0.07634072	-0.028422
C	 1.2088170412	-0.4758197619	-0.8811120346	-0.22746
C	 2.1517058464	-0.6158200512	 0.3477944687	-0.254122
C	 0.897797106	-0.6228131082	 1.2426399637	 0.147981
O	 0.9834891615	 0.1469176317	 2.4385251435	-0.185121
C	 0.599064836	-0.4119646001	 3.600842038	 0.163677
O	 0.625577004	 0.1720513046	 4.6419169475	-0.276734
H	 0.823672444	 2.0172141118	 0.2928760195	 0.124545
H	-0.5751331001	 1.8603494208	-0.7813629668	 0.115463
H	-0.7830433829	 1.7729422308	 0.9773876124	 0.127759
H	-0.903132297	-0.504359539	-0.0829346194	 0.073171
H	 0.9988144388	-1.4360793678	-1.3582091267	 0.105683
H	 1.5079928268	 0.23833474	-1.6512005336	 0.107092
H	 2.8137614147	-1.4825210612	 0.4006682637	 0.105234
H	 2.7395768458	 0.2887444453	 0.5197433329	 0.126081
H	 0.5713514881	-1.6406784955	 1.4870274672	 0.086009
H	 0.2641789788	-1.4615933078	 3.4806607817	 0.075797
