17
gdb 75061	2.32973	1.86292	1.12653	3.4901	75.6	-0.2417	-0.0362	0.2055	1071.278	0.134647	-421.84086	-421.832572	-421.831628	-421.873805	31.004	
C	-0.0186580523	 1.5106562669	 0.046714474	-0.505084
C	 0.0145237049	 0.0175373707	-0.0024522313	 0.249358
C	-0.0553160822	-0.7749276641	-1.080737082	-0.197022
C	-0.0223974588	-2.2473352411	-0.7586604558	-0.391047
C	 0.0383538166	-2.2638219526	 0.7726888558	 0.34101
O	 0.0365705432	-3.2244493834	 1.4950786584	-0.303771
C	 0.1084158246	-0.812712755	 1.2282581333	 0.26144
C	 0.7769548142	-0.4581903941	 2.4959062692	-0.236445
O	-0.6399607593	-0.4559224373	 2.4026777653	-0.265897
H	 0.9375667484	 1.9205951696	 0.3950661232	 0.13066
H	-0.229504459	 1.9367335002	-0.9371880421	 0.128792
H	-0.7859821869	 1.8517355986	 0.750144604	 0.148802
H	-0.1307052424	-0.407432098	-2.0984813544	 0.102422
H	-0.9011764813	-2.7986285188	-1.1160445841	 0.142671
H	 0.8527333512	-2.7681322206	-1.1686329142	 0.140577
H	 1.2024370653	-1.2641332677	 3.0918666229	 0.135869
H	 1.2473871638	 0.5189100167	 2.5963646579	 0.117665
