14
gdb 131564	3.1906	1.60859	1.15518	5.3565	63.29	-0.2527	-0.0152	0.2375	991.3997	0.102406	-473.794861	-473.787891	-473.786947	-473.826657	26.227	
O	-0.1555350392	 1.4927884576	 0.2596398643	-0.419678
C	-0.0118915429	 0.1084222535	-0.021824908	-0.102437
C	 0.6476348587	-0.7027638205	 1.1565280393	-0.109941
O	-0.3857617551	-1.451893009	 1.8549018626	-0.263137
C	-1.4735000055	-1.3925905006	 1.0727856453	 0.476669
N	-2.623194114	-1.9963215251	 1.1919868512	-0.274883
O	-3.333435038	-1.5116076415	 0.0623210757	-0.17805
C	-2.561828344	-0.6633552568	-0.6446093788	-0.065856
C	-1.3522551598	-0.5458131592	-0.0522052433	 0.140626
H	 0.7106077484	 1.906605647	 0.1793210074	 0.288568
H	 0.5691257742	-0.0362113506	-0.9421508458	 0.093797
H	 1.3827992406	-1.4229899844	 0.783325663	 0.124961
H	 1.119749458	-0.0314092289	 1.87729781	 0.128317
H	-3.0249703614	-0.2387850515	-1.5218500329	 0.161044
