18
gdb 67585	2.33619	2.20689	1.51434	2.7304	74.06	-0.2176	0.07	0.2876	929.7461	0.148093	-401.89268	-401.885231	-401.884286	-401.924004	30.26	
C	-0.0912791411	 1.4906125664	 0.1380293942	-0.507187
C	-0.0584377891	 0.0169425841	-0.1130027603	 0.255651
C	 1.0136608983	-0.7866727523	-0.7584303324	-0.096331
C	 0.4532840309	-1.9506118133	-1.5475650285	-0.246954
C	-0.7634507851	-2.223729517	-0.6874190837	-0.16361
C	-0.4381684128	-1.8691321889	 0.7546100029	-0.079987
N	 0.7525082057	-0.9388040483	 0.7156334303	-0.193064
C	-1.2804344131	-0.9385034578	-0.054799501	 0.321293
O	-2.5970038132	-0.5757690598	 0.1169570275	-0.458866
H	 0.9171814458	 1.8653536807	 0.33545075	 0.13
H	-0.4952617794	 2.0313862997	-0.7256743182	 0.114845
H	-0.7193570519	 1.7225790851	 1.0042700997	 0.134407
H	 1.9752725214	-0.3463060111	-1.0014202096	 0.093104
H	 0.2008224473	-1.6647547243	-2.5750962465	 0.101825
H	 1.1454241379	-2.7987852711	-1.5823982098	 0.110291
H	-1.4660258265	-3.0255287665	-0.878434952	 0.093403
H	-0.6284592059	-2.4857422716	 1.6220444326	 0.102987
H	-2.9956817991	-0.4449660637	-0.7509791753	 0.288194
