21
gdb 124502	4.00967	0.90709	0.88699	2.4065	86.28	-0.227	0.0329	0.26	1462.3825	0.182823	-383.313941	-383.304126	-383.303181	-383.349273	35.826	
C	-0.2682861625	 1.4617364333	 0.1182825383	-0.382503
C	 0.0695849756	-0.0297906853	-0.0680800597	-0.089291
C	 0.934789579	-0.2522927267	-1.3231947336	-0.382643
C	 0.7032627575	-0.618619375	 1.1613329525	 0.41775
C	 0.2882117791	-1.6221038419	 2.0136143906	-0.410101
C	 1.3034552228	-1.7367789338	 2.9957638308	 0.356364
C	 1.3691747206	-2.6697572786	 4.1638774667	-0.489545
N	 2.2837617982	-0.8648696883	 2.7711302106	-0.290182
N	 1.8982908892	-0.2011841888	 1.6580071899	-0.26617
H	 0.6385174806	 2.0615908957	 0.256855587	 0.10831
H	-0.7894053311	 1.8517504483	-0.7619218558	 0.115301
H	-0.906026622	 1.615396551	 0.9931111299	 0.126341
H	-0.8725465312	-0.5713499097	-0.2106379295	 0.091757
H	 1.8922476894	 0.2755000345	-1.2461258747	 0.108247
H	 1.1507911631	-1.3140437069	-1.4704685933	 0.126352
H	 0.4234118133	 0.1231859531	-2.2153477713	 0.115351
H	-0.6243820896	-2.1923000276	 1.9342941698	 0.092703
H	 1.3516750084	-3.7172047139	 3.8426528281	 0.124728
H	 2.2900322629	-2.4975124978	 4.7251426505	 0.137046
H	 0.5200717455	-2.5254716438	 4.8412594656	 0.124721
H	 2.4977028511	 0.520043652	 1.2957930777	 0.265464
