23
gdb 59049	3.11093	0.99906	0.93261	1.3856	88.55	-0.2329	0.0276	0.2605	1414.1222	0.206079	-388.306826	-388.297302	-388.296358	-388.341238	36.155	
C	-0.1045574544	 1.5499985892	-0.0091966945	-0.387059
C	 0.0420240637	 0.0164293117	-0.0334742378	-0.062633
C	 0.7422835165	-0.4435080632	-1.325458341	-0.389297
C	 0.7378302312	-0.5112020849	 1.2069642316	 0.336361
C	 0.0965568452	-1.2457673872	 2.1178942531	-0.194749
C	 0.7581851099	-1.8082761417	 3.3460708405	-0.117253
O	 2.1665832585	-1.6842794777	 3.3395110103	-0.245644
C	 2.5900510196	-0.4118577482	 2.8850815935	-0.085092
C	 2.2039875889	-0.1936630314	 1.4210068079	-0.301729
H	 0.8691831943	 2.0507929282	-0.0369163525	 0.114689
H	-0.6720730147	 1.8939605158	-0.8803879026	 0.11151
H	-0.629018039	 1.8824502733	 0.8917238576	 0.114762
H	-0.9698829422	-0.4084973126	-0.0349168966	 0.072287
H	 1.7538233058	-0.0303230975	-1.401615268	 0.115608
H	 0.8203196895	-1.5342944846	-1.3673500385	 0.116939
H	 0.1837481614	-0.1080610009	-2.205490526	 0.11068
H	-0.9625289541	-1.4689883716	 2.0034037157	 0.079327
H	 0.3329362225	-1.3307662196	 4.2497765509	 0.092122
H	 0.5491020955	-2.8817270339	 3.4342936429	 0.114364
H	 2.1503650792	 0.3847921864	 3.5087174148	 0.086053
H	 3.6752352454	-0.3845072479	 3.0195963324	 0.103619
H	 2.8279306183	-0.8275812759	 0.7773197488	 0.115625
H	 2.424910779	 0.8432071844	 1.1383682179	 0.099508
