18
gdb 51329	4.1308	1.06489	0.98629	1.8507	75.08	-0.248	-0.0265	0.2215	1214.2837	0.148141	-401.893732	-401.886043	-401.885099	-401.927247	28.834	
O	-0.133419022	-0.0702209127	-0.0731475395	-0.237287
C	-0.0641479177	 1.1314952062	-0.0678302129	 0.163961
C	 1.2182641733	 1.9274252405	 0.0251727275	-0.320915
C	 1.377291033	 2.8821979049	-1.1634348884	 0.013815
C	 2.6151919075	 3.7456457304	-1.3279917702	-0.076521
C	 3.6375900426	 2.9935946715	-2.1205011691	-0.035971
C	 3.0835751075	 1.6281233875	-2.4806959535	-0.241037
C	 1.7421091115	 2.3781006768	-2.5822295185	-0.025973
N	 2.5214817706	 3.7142009741	-2.8290239427	-0.161693
H	-0.9849001926	 1.7576988297	-0.1461536366	 0.072597
H	 1.1684711804	 2.529391144	 0.9443416086	 0.122204
H	 2.0584782448	 1.2359912967	 0.1196764554	 0.124691
H	 0.4946846057	 3.5275273706	-1.2455582617	 0.092996
H	 2.8583774654	 4.6621459582	-0.8012632716	 0.09555
H	 4.6615806331	 3.3416861587	-2.1968962596	 0.098802
H	 3.4286436815	 1.3257334175	-3.472486844	 0.118625
H	 3.1815976754	 0.7881135107	-1.78674702	 0.107044
H	 0.97063236	 2.0691177548	-3.2845819933	 0.08911
