21
gdb 89235	2.94753	1.57506	1.24915	1.4011	81.83	-0.2515	0.0778	0.3294	1079.078	0.183835	-387.061102	-387.053254	-387.05231	-387.092886	32.375	
C	-0.1311621862	 1.5428506652	-0.0238228893	-0.403979
C	 0.0379697857	 0.0228658799	-0.0124768219	 0.010285
C	 0.9652948128	-0.5392676676	-1.1263855407	-0.328396
C	 2.0026118198	-1.2657195551	-0.2666639622	 0.459734
O	 2.9987639732	-1.9973434815	-0.9154041623	-0.49161
C	 1.2907253464	-1.9616088116	 0.9303137575	-0.102894
C	 2.5336610547	-1.6873142158	 1.8131154798	-0.252827
C	 2.3275384636	-0.3865529095	 1.0002537743	-0.128044
C	 0.7864522213	-0.5121891524	 1.2170567424	-0.002564
H	 0.8388214491	 2.0491664191	 0.039819531	 0.11203
H	-0.6239135943	 1.8820576538	-0.9412034946	 0.112342
H	-0.7373540558	 1.8804096224	 0.8241927844	 0.111283
H	-0.9535429963	-0.4418907374	-0.0735474305	 0.068127
H	 0.4587016795	-1.2259419441	-1.8115522682	 0.101343
H	 1.4217362752	 0.2554690076	-1.7303333434	 0.082833
H	 3.4523326701	-1.4098832646	-1.5289408656	 0.279632
H	 0.6822190477	-2.867087254	 0.8796574914	 0.064299
H	 2.3613976506	-1.6212964879	 2.8909574077	 0.08335
H	 3.4281707635	-2.2681606123	 1.5834319196	 0.105214
H	 2.9240473938	 0.5282301567	 1.031667569	 0.059015
H	 0.3843442957	-0.2923801908	 2.2076776117	 0.060829
