18
gdb 65540	2.86576	1.56195	1.32824	4.4104	75.31	-0.2484	0.0317	0.2801	1005.8803	0.151044	-398.107498	-398.099998	-398.099054	-398.139119	30.283	
N	 0.1155951258	 1.4331409176	 0.0258646134	-0.559929
C	 0.0346112727	-0.0247323427	 0.0051300859	 0.181367
C	 0.4575920548	-0.6335750923	 1.3983038931	-0.233242
C	-0.8750596099	-1.3059534717	 1.7592789696	-0.006864
C	-1.2454150283	-2.0706244673	 0.4610264728	-0.243271
C	-1.4173010995	-0.6128323806	-0.0243607143	-0.046208
N	-1.8428518762	-0.2037792505	 1.365853265	-0.344617
C	 0.8368030769	-0.5368982738	-1.1099390827	 0.263684
N	 1.4412477915	-0.956825823	-2.0010285327	-0.348255
H	-0.1664633996	 1.811437763	-0.874901715	 0.233099
H	-0.5648880227	 1.7514320672	 0.7134032643	 0.246736
H	 1.2862599283	-1.3389851946	 1.3221952469	 0.126111
H	 0.7309349971	 0.1706535563	 2.0824299512	 0.127053
H	-0.9724125494	-1.7362886178	 2.75547029	 0.080037
H	-0.5010894769	-2.7132531585	-0.0190435266	 0.118809
H	-2.203674547	-2.5897741121	 0.5411999172	 0.103943
H	-2.0398952006	-0.317366624	-0.8692403515	 0.080364
H	-2.7900470471	-0.5547704752	 1.5092548136	 0.221182
