12
gdb 16609	3.37643	2.4157	1.56564	5.2895	55.16	-0.258	-0.0837	0.1742	757.5461	0.084216	-418.505647	-418.499536	-418.498592	-418.536033	22.963	
O	-0.0420375492	 0.0067963491	 0.125087234	-0.296866
C	-0.0115240008	 1.1952859109	 0.0606603452	 0.330809
O	-1.1253732237	 1.9839842075	 0.0422894038	-0.214698
C	-0.7768627971	 3.3610843515	-0.0038119682	 0.091313
C	-0.1377423962	 3.8927166863	 1.2245583863	-0.316502
C	 0.7245908346	 3.5122030712	 0.0053546343	-0.185485
C	 1.2391826236	 2.120596212	-0.0229601949	 0.295566
O	 2.3603726657	 1.7150186037	-0.1502672253	-0.278587
H	-1.4408511499	 3.9374602707	-0.6340510012	 0.136582
H	-0.2035781662	 4.9561093005	 1.4231743142	 0.147873
H	-0.1136443626	 3.2579158338	 2.1038480965	 0.152607
H	 1.2585678218	 4.2893328627	-0.5239840646	 0.137388
