18
gdb 41536	2.83885	1.65452	1.13988	3.4363	73.29	-0.241	0.0225	0.2635	1060.8646	0.150332	-439.068529	-439.061083	-439.060139	-439.100602	28.581	
C	 0.0603778504	 1.5005021817	-0.1530061325	-0.121268
O	 1.3329039381	 1.4999046214	 0.5635064562	-0.259464
C	 1.2514051677	 0.1428234244	 0.7817740665	 0.467083
N	 2.0146959785	-0.5314053773	 1.5034297338	-0.305285
C	 1.7246445373	-1.9390786461	 1.7302551099	-0.148315
C	 0.4480179335	-2.5194098526	 1.0966720158	-0.10013
O	-0.7103653247	-1.7946671407	 1.4905122086	-0.248353
C	-1.1552463618	-0.7891472785	 0.5943167801	-0.081952
C	 0.0030144786	-0.0401113066	-0.0758982897	-0.207876
H	-0.7067197901	 2.0290786346	 0.4212479756	 0.122178
H	 0.1649565382	 1.9425027274	-1.1460440159	 0.12226
H	 2.5851649002	-2.5384385227	 1.4018148597	 0.105904
H	 1.6570280485	-2.0777924156	 2.816795445	 0.121737
H	 0.5347826305	-2.5748265596	 0.0030657673	 0.095501
H	 0.3179089137	-3.5463046692	 1.4577306125	 0.108471
H	-1.8184371692	-1.2206216179	-0.171135825	 0.0963
H	-1.7542395083	-0.1012963964	 1.2007834589	 0.116666
H	 0.2589326291	-0.4886343165	-1.0391064268	 0.116544
