16
gdb 29429	5.0234	0.87227	0.78925	1.9591	75.25	-0.1925	-0.0284	0.1641	1388.8528	0.123679	-437.9241	-437.915268	-437.914324	-437.959069	31.629	
O	-0.1144107998	 1.3574216424	-0.4855941503	-0.446974
C	-0.0047549972	 0.0378714627	-0.1557430628	 0.333993
C	 0.2523674101	-0.9624695807	-1.0661300075	-0.171794
N	 0.2782677556	-2.1476215689	-0.3626551357	-0.29015
C	 0.0428708628	-1.9190415967	 0.9666242513	 0.324214
C	 0.0377749593	-3.0456991584	 1.9556859406	-0.378746
C	 1.4095518097	-3.7013926064	 1.9347599905	 0.151847
O	 1.6556535078	-4.7235842048	 1.3449557068	-0.24999
C	-0.1317934813	-0.5576076602	 1.129350603	-0.392542
H	-0.2926658208	 1.8577550909	 0.3154331284	 0.296759
H	 0.4095162957	-0.9224756295	-2.1301450326	 0.123104
H	 0.4807309653	-3.0513761336	-0.7550299294	 0.271419
H	-0.16949872	-2.6436254986	 2.9518804368	 0.125464
H	-0.7135128243	-3.8057357224	 1.713213479	 0.127119
H	 2.2061772105	-3.1265912525	 2.4568313989	 0.086735
H	-0.3428164835	-0.0540476833	 2.061567683	 0.089542
