19
gdb 115980	2.10408	1.44813	0.90232	1.1152	87.44	-0.2292	-0.025	0.2042	1304.7692	0.157625	-385.871721	-385.862427	-385.861482	-385.906223	34.157	
C	 0.0825691923	 1.5582170024	 0.0785869912	-0.384124
C	 0.0817185017	 0.0281631956	 0.0547258762	-0.175267
C	 0.5899602798	-0.5386052902	-1.2734619962	 0.011518
O	 1.9370312304	-0.1215828794	-1.5130770645	-0.278383
C	 2.7798309688	-1.2391504923	-1.7649445978	-0.111133
C	 1.9027502073	-2.4415321659	-1.5963931887	-0.232918
C	 0.6508879355	-2.0584867978	-1.3246299829	 0.180749
C	-0.4871984342	-2.8699916457	-1.1207782233	 0.258859
C	-1.4881742247	-3.5172916078	-0.9437064067	-0.442093
H	 1.089923194	 1.9443020699	-0.0980600481	 0.134328
H	-0.574273869	 1.9657898753	-0.6982227834	 0.112113
H	-0.2667669244	 1.9367724649	 1.0437819564	 0.109587
H	 0.712320022	-0.3658602502	 0.8607587196	 0.096168
H	-0.9310326922	-0.3574366331	 0.2227686752	 0.105703
H	-0.0513164126	-0.1594763548	-2.0874981001	 0.083522
H	 3.2027256433	-1.1775138796	-2.7816456985	 0.109705
H	 3.6295334282	-1.2329856771	-1.0644447848	 0.111902
H	 2.2522555573	-3.4604717922	-1.6969946151	 0.113638
H	-2.3611495834	-4.101671292	-0.7888332787	 0.196126
