20
gdb 40798	3.87614	1.05132	0.88031	2.3568	79.31	-0.2412	0.0288	0.2701	1328.6796	0.173163	-403.148545	-403.140362	-403.139417	-403.181762	31.138	
C	-0.1899989845	 1.4117266436	-0.1657638405	-0.279723
C	 1.2458433106	 1.031965946	 0.0963044937	-0.27359
C	 0.1821170281	-0.0367083126	 0.044329779	 0.025046
C	-0.2339207166	-0.7703359677	 1.3000851783	-0.051643
C	-1.6629148669	-1.3008284186	 1.1901539239	-0.076717
O	-2.0488277445	-2.0337875662	 2.3623124331	-0.227713
C	-1.0731868266	-2.7780331504	 2.93873693	 0.128093
N	 0.1608299003	-2.835803424	 2.6730987842	-0.274466
C	 0.6831578832	-1.9587813948	 1.6278953605	-0.161019
H	-0.7313949302	 1.9158017192	 0.6283572684	 0.113355
H	-0.4648856389	 1.7349634651	-1.1634987804	 0.114299
H	 1.9541451552	 1.0942851436	-0.7220521375	 0.115103
H	 1.6649193585	 1.2808261034	 1.0657492827	 0.115493
H	 0.1831215561	-0.6580427657	-0.849258006	 0.083551
H	-0.2046252053	-0.0697739163	 2.1460105023	 0.08233
H	-2.3920233216	-0.4938770488	 1.086788974	 0.119647
H	-1.7581116771	-1.9637815084	 0.3189565034	 0.107719
H	-1.4991602236	-3.3803252259	 3.7394479102	 0.120953
H	 0.8597695137	-2.558521226	 0.7233793946	 0.106577
H	 1.66795401	-1.6002605856	 1.9468022462	 0.112703
