12
gdb 19339	5.34091	1.70365	1.52856	4.9489	59.45	-0.2509	-0.0166	0.2342	793.5491	0.083539	-377.418623	-377.412525	-377.411581	-377.448796	23.457	
N	 0.0397665884	-1.1418058779	-0.1334305233	-0.334305
C	 0.0567586786	 0.0121480725	-0.0539593111	 0.202465
C	 0.0542753816	 1.4277704499	 0.109904127	 0.348166
O	 0.2072312662	 2.2831445923	-1.0231818052	-0.237278
C	 1.1342230348	 2.4297847636	 0.0414373725	-0.049192
C	 0.468052428	 3.2374628615	 1.2129114142	-0.091785
N	-0.9038004164	 3.5877606127	 0.7813679058	-0.302452
C	-0.6162904838	 2.2365598682	 1.2905922498	-0.16116
H	 2.1894089105	 2.3093395599	-0.1695536869	 0.139639
H	 0.9930538405	 3.7634560884	 1.9974701259	 0.117193
H	-1.3350320856	 4.1078685297	 1.5457461226	 0.245477
H	-1.1163054929	 1.7931482191	 2.1399345787	 0.123231
