21
gdb 112123	2.18222	1.53133	1.04	2.2258	80.8	-0.2471	0.0085	0.2556	1221.2183	0.183293	-424.231207	-424.222174	-424.22123	-424.264978	34.396	
C	-0.0021443301	 1.3244511012	 0.0860488251	-0.237923
O	-0.1700803023	-0.0602329798	-0.1188130873	-0.26515
C	 0.5939520272	-0.6066318109	-1.2047175268	 0.054448
C	 2.0691934476	-0.6912561235	-0.8961315569	-0.082252
C	 2.6726515033	-1.8279600369	-0.5470163957	-0.037965
C	 1.9641351229	-3.1489341337	-0.4151825574	-0.265672
C	 0.437665663	-2.985188394	-0.3955363086	-0.222855
C	-0.0145656586	-1.9932701508	-1.4728201213	 0.120157
O	-1.4222454595	-1.9064958485	-1.5725068675	-0.451526
H	 1.0129969183	 1.572340355	 0.4254789273	 0.113074
H	-0.21380962	 1.8977120692	-0.829834753	 0.107438
H	-0.7111811341	 1.6244088546	 0.8617825081	 0.128607
H	 0.4311582997	 0.0317893632	-2.0878535725	 0.069851
H	 2.6493142648	 0.2239959679	-0.9803998977	 0.087424
H	 3.7442186557	-1.8261666432	-0.3568132745	 0.090437
H	 2.2654518096	-3.796985578	-1.252428282	 0.11307
H	 2.3105563492	-3.6663609054	 0.4880190729	 0.107613
H	-0.063854698	-3.9439681548	-0.5544266317	 0.098498
H	 0.1178631695	-2.6030135561	 0.5807159355	 0.107965
H	 0.3465198213	-2.3344874218	-2.4514464544	 0.081961
H	-1.6870914396	-1.2933093937	-0.8739867315	 0.282798
