24
gdb 6549	2.88194	1.48166	1.32985	0.0785	85.09	-0.2609	0.0757	0.3366	1119.6065	0.221698	-314.267222	-314.257305	-314.256361	-314.301223	38.116	
C	 1.9724315558	-0.8138402955	-0.8804207275	-0.41282
C	 0.6888138149	-0.3458798221	-0.2250600302	-0.009855
C	-0.1072169152	-1.2557214203	 0.6841651581	-0.324692
C	 0.4964966611	 0.0140962361	 1.2359057628	 0.030069
C	 1.5256517305	 0.1014164422	 2.37156109	 0.240056
C	 2.2821928139	 1.4384578242	 2.2374054511	-0.396445
C	 0.7366987222	 0.0997397138	 3.6989048168	-0.39228
C	 2.5464846535	-1.0494968212	 2.4217541052	-0.42028
H	 2.477890053	-1.5898120436	-0.3025327692	 0.119775
H	 1.7529378474	-1.2384386866	-1.8667505537	 0.113178
H	 2.6801063789	 0.0098029453	-1.0298020155	 0.11353
H	 0.0891354006	 0.2704466578	-0.8918091246	 0.079047
H	-1.1843579006	-1.3251285015	 0.5726157343	 0.103377
H	 0.3651071141	-2.1962453951	 0.9509488628	 0.10756
H	-0.234977643	 0.8130324569	 1.3534410233	 0.074464
H	 1.5874123975	 2.2855707511	 2.2346051004	 0.105312
H	 2.9791253464	 1.5819244852	 3.0708767547	 0.10375
H	 2.8570067817	 1.4750061513	 1.3064385389	 0.112874
H	 0.1861784027	-0.8381362539	 3.8272833336	 0.112047
H	 1.4107234498	 0.2167713274	 4.5547642322	 0.103185
H	 0.0110894119	 0.919864546	 3.7305520419	 0.105001
H	 3.2336612524	-1.031400534	 1.573311994	 0.115622
H	 3.1518614842	-0.9624343147	 3.330679058	 0.107422
H	 2.0587800762	-2.0289091886	 2.4498714125	 0.110104
