18
gdb 29520	3.07859	1.53226	1.04468	0.7524	79.7	-0.1586	0.0624	0.221	1122.52	0.151479	-398.146068	-398.137939	-398.136995	-398.178385	31.53	
N	-0.0002968212	 1.4362339597	 0.1153657233	-0.607984
C	 0.0257773354	 0.0299026041	 0.0084972511	 0.057689
C	-1.0610064625	-0.8235294708	-0.0330502386	-0.166754
N	-0.5885000804	-2.1434044395	-0.0239666877	-0.382812
C	 0.765792504	-2.0914957273	-0.000463969	 0.341466
C	 1.1913577263	-0.7925558146	 0.0230926492	 0.239314
C	 2.6912856567	-0.7761076725	 0.1410065018	-0.370634
C	 3.0137055947	-2.2784734842	-0.1865655535	-0.159136
N	 1.7636770077	-3.088354567	-0.0132909208	-0.413577
H	 0.7432363363	 1.8672363157	-0.4208928944	 0.236144
H	-0.8827384897	 1.8259285689	-0.1930447655	 0.233724
H	-2.1180250192	-0.6157949633	-0.059349843	 0.097586
H	-1.1531911715	-2.9629602974	-0.1545782109	 0.255525
H	 3.2059121187	-0.1200460448	-0.569740569	 0.097552
H	 3.0346143973	-0.4853949872	 1.1446957996	 0.100144
H	 3.3194714612	-2.3602791104	-1.2347528973	 0.115623
H	 3.8168091288	-2.6921839969	 0.4281654877	 0.100729
H	 1.7914557173	-3.6023038825	 0.8643989772	 0.225402
