17
gdb 54956	2.39898	1.38854	1.12393	3.4132	76.04	-0.2469	0.0304	0.2773	1151.5802	0.133545	-417.986562	-417.977042	-417.976098	-418.020741	35.3	
C	-0.2234302737	 1.5946572169	-0.2044691762	-0.459196
C	 0.1444953574	 0.1295462642	-0.057647564	 0.136082
C	 0.9300342458	-0.572747168	-1.1442156705	-0.289343
N	 1.5713372486	-0.1474922771	 0.0850288537	-0.156336
C	 2.1041738278	-1.0205123839	 1.0535765814	 0.419804
N	 2.9988015856	-1.926615259	 0.5223401537	-0.538943
O	 1.8308142116	-0.9522116162	 2.2293356891	-0.364391
C	-0.8071135152	-0.6727080873	 0.6752476862	 0.327442
C	-1.6409427249	-1.3044930799	 1.266111224	-0.459334
H	 0.5415017693	 2.1175113733	-0.7836645711	 0.125148
H	-1.1889830677	 1.6974830842	-0.7077830267	 0.130068
H	-0.2966389878	 2.064459818	 0.7801024681	 0.145276
H	 0.7419968958	-1.634358969	-1.2816518684	 0.139011
H	 1.2033344796	-0.0225896761	-2.0419790033	 0.12132
H	 3.4234652774	-1.7166047113	-0.3669759862	 0.258586
H	 3.599304921	-2.3645580991	 1.203366428	 0.264223
H	-2.3577880807	-1.8711727899	 1.8072344923	 0.200582
