14
gdb 4390	3.72437	1.95997	1.29453	4.5409	68.8	-0.2259	-0.0564	0.1696	891.1494	0.109109	-378.788208	-378.781404	-378.78046	-378.819209	25.406	
C	-0.0141482384	 1.5216748764	 0.0471635236	-0.495811
C	-0.0035660077	 0.0271891868	-0.0491512756	 0.376686
C	-0.0413103687	-0.6784028294	-1.2161176568	-0.119236
N	-0.0286145255	-2.0466241269	-1.2468574684	-0.216999
C	 0.0210484891	-2.7015121534	-0.12757503	-0.09814
C	 0.0658897993	-2.0842130895	 1.2003588733	 0.37796
O	 0.1125850441	-2.6589713797	 2.2723737325	-0.386669
N	 0.0484251709	-0.68458464	 1.1175738069	-0.39087
H	 0.8891659367	 1.8919316952	 0.5458039052	 0.147236
H	-0.0624121417	 1.9673077325	-0.9475738267	 0.152111
H	-0.8770503653	 1.8745198714	 0.6238323525	 0.146972
H	-0.0832294669	-0.1657314291	-2.1691089929	 0.113291
H	 0.0311076451	-3.7886295707	-0.1503036004	 0.132453
H	 0.077729029	-0.2050466836	 2.0086738167	 0.261017
