18
gdb 23468	3.03457	1.31774	1.0204	1.8673	75.85	-0.243	-0.0004	0.2426	1166.3065	0.14893	-439.044239	-439.03637	-439.035426	-439.076692	30.687	
O	-0.0324225255	 1.3263703784	 0.1483813929	-0.391952
N	 0.0402510069	-0.0717845001	 0.1331764563	-0.217453
C	-1.1041197007	-0.6244936891	-0.0116524355	 0.397732
C	-2.445055006	 0.0493069843	-0.1397945712	-0.315316
C	-3.4412186533	-0.5917386774	 0.8457635674	-0.210993
C	-3.6421418892	-2.0970196023	 0.5979094923	-0.225891
C	-2.3531238679	-2.8359463372	 0.2762440113	 0.040071
O	-1.8817437129	-2.7110658522	-1.0674997288	-0.255794
C	-1.0997414592	-2.1078630938	-0.0211425521	-0.021468
H	 0.8900705201	 1.574095798	 0.2710470267	 0.308357
H	-2.3424662873	 1.1180893815	 0.0470045758	 0.134224
H	-2.8049026027	-0.0793174001	-1.1680621528	 0.129401
H	-3.0655053	-0.4396293423	 1.8649632603	 0.108999
H	-4.4041923408	-0.0742887383	 0.7880734632	 0.102454
H	-4.11151921	-2.5565322164	 1.4744560161	 0.103158
H	-4.3279420765	-2.2559613674	-0.2432294857	 0.119228
H	-2.2618310399	-3.8464585175	 0.6757771275	 0.095975
H	-0.1353386552	-2.5740459981	 0.1671915064	 0.099268
