21
gdb 39587	3.26007	1.45102	1.0646	0.1215	89.83	-0.2216	0.0273	0.2489	1164.3302	0.18612	-349.989988	-349.982579	-349.981635	-350.021582	30.579	
C	-0.0614719744	 1.5384001109	 0.0389312691	-0.35948
C	 1.3999747338	 1.9377904691	-0.0059500351	-0.074744
C	 2.1879325772	 0.9209118538	-0.3562964132	-0.093996
C	 1.39649465	-0.3390385663	-0.6362219462	-0.090778
C	 1.8875976908	-1.6666408022	-0.0454860225	-0.214752
C	 0.8002878096	-2.7314357911	-0.2605600752	-0.205804
C	-0.5248898359	-2.3575444375	 0.433405403	-0.235486
C	-0.8132597537	-0.8770892292	 0.4183899541	-0.188107
C	 0.0290519153	 0.0269792621	-0.0732461981	 0.333621
H	-0.574841965	 1.8620730431	 0.952259744	 0.109431
H	-0.613195172	 1.9924831834	-0.7997417676	 0.110652
H	 1.7334820428	 2.9499195025	 0.1947329671	 0.091208
H	 3.2636242166	 0.9746503512	-0.4865932714	 0.089251
H	 1.3350236875	-0.4734932633	-1.7310110305	 0.082089
H	 2.8275585589	-1.9797551283	-0.5143883733	 0.086616
H	 2.0861498436	-1.53832031	 1.0261801444	 0.095717
H	 0.6282667786	-2.8362416707	-1.339581188	 0.097182
H	 1.1398403181	-3.7100893031	 0.0947574576	 0.089921
H	-1.3543884702	-2.9137612151	-0.0235881401	 0.101049
H	-0.5036830991	-2.6893971422	 1.4825205931	 0.104304
H	-1.7376138826	-0.5553965372	 0.8958847986	 0.072107
