22
gdb 85426	2.32824	1.45204	1.13878	3.3225	83.22	-0.2513	0.0345	0.2858	1198.4228	0.193653	-404.390748	-404.381287	-404.380343	-404.424305	36.745	
C	-0.6039941131	 1.4021368577	 0.0737981869	-0.415868
C	 0.1335144702	 0.0802727436	-0.0390685911	 0.120433
O	 1.2104492489	 0.2332113143	-0.991691392	-0.254794
C	 2.2322892375	-0.6241007179	-0.6919443104	 0.401377
N	 3.292731224	-0.743911926	-1.3671888585	-0.547646
C	 1.8831024718	-1.3834853186	 0.5670413343	-0.327638
C	 0.8062604823	-0.5013775721	 1.2358692339	 0.258462
C	 1.47933924	 0.5920667288	 2.0827613418	-0.432048
C	-0.1837701049	-1.30117187	 2.0867140126	-0.44996
H	 0.0638797895	 2.2045244452	 0.3956639503	 0.131506
H	-1.0277017506	 1.6796213744	-0.8951016855	 0.130813
H	-1.4259350611	 1.3198250414	 0.7918478453	 0.121666
H	-0.5539866322	-0.6799367288	-0.4400207171	 0.077141
H	 3.2665000123	-0.1255397764	-2.1804433275	 0.21776
H	 1.4670829854	-2.3596497741	 0.2883893035	 0.120751
H	 2.7670277172	-1.5639810092	 1.1804110775	 0.129316
H	 2.1707308142	 1.1965777209	 1.4874135616	 0.131929
H	 0.7432139162	 1.2639236569	 2.5341572954	 0.11606
H	 2.05285295	 0.1358792373	 2.8960801875	 0.117356
H	 0.322886366	-1.7679803084	 2.9377195339	 0.121373
H	-0.9737016519	-0.6576077455	 2.4894527723	 0.117192
H	-0.6607621918	-2.0965386735	 1.5041394653	 0.114819
