20
gdb 93518	2.8069	1.33828	1.03877	3.7965	75.96	-0.2343	0.0312	0.2655	1200.0607	0.171463	-440.331393	-440.322428	-440.321484	-440.364868	34.098	
C	-0.0118463335	 1.5950343486	-0.0925832274	-0.390229
C	 0.0147243134	 0.0644856677	 0.0033060695	 0.02795
N	 0.6684838741	-0.5270536642	-1.16489971	-0.321253
C	 1.9614600456	-0.955562837	-1.2327318258	 0.376429
O	 2.4787613818	-1.352977524	-2.2598173085	-0.375942
C	 2.7237666742	-0.9607794699	 0.0909191072	-0.194632
O	 2.1314292576	-0.2036426907	 1.127985388	-0.258101
C	 0.7407743926	-0.469309411	 1.252254974	 0.12817
C	 0.2683947099	 0.1337632488	 2.565688501	-0.415572
H	 1.0005545156	 1.9969081515	 0.00268721	 0.137953
H	-0.4159082416	 1.9067073737	-1.0605387815	 0.113894
H	-0.6404813451	 2.0328108941	 0.6879266565	 0.120527
H	-1.0159537499	-0.3132842211	 0.0318252312	 0.086406
H	 0.1998514378	-0.4769220897	-2.0591500642	 0.244947
H	 2.8476389149	-2.0146577815	 0.390888985	 0.119996
H	 3.718600482	-0.549468959	-0.0925700538	 0.141938
H	 0.5842089105	-1.5613257756	 1.2789159347	 0.074174
H	 0.5012915162	 1.2003286216	 2.6132109584	 0.134944
H	-0.8111211871	 0.0036081791	 2.6884601144	 0.118025
H	 0.7737386409	-0.3595473914	 3.399504851	 0.130376
