17
gdb 36364	3.82532	0.94089	0.85557	2.4073	74.91	-0.2587	0.0491	0.3078	1362.3601	0.133386	-421.740119	-421.731248	-421.730304	-421.774562	32.174	
C	-0.0205651004	-0.8754011202	-0.8155346942	-0.440949
C	-0.0485913924	 0.2239684147	-0.3313698317	 0.299149
C	-0.0569193933	 1.5553685984	 0.2654255003	-0.398034
C	 1.348484645	 2.1090846927	 0.4361011875	 0.06396
O	 1.9269348914	 2.801998242	-0.6750610383	-0.247384
C	 1.6710310367	 3.5458924757	 0.5123067873	 0.016011
C	 0.6915594751	 4.678708036	 0.4332105373	 0.044448
C	 0.4793814383	 5.4087181385	-0.82568296	-0.172463
O	-0.5081956376	 4.5086888529	-0.3152034299	-0.224645
H	-0.0065305942	-1.8426497125	-1.2529165104	 0.19581
H	-0.639255655	 2.2521518205	-0.3416390901	 0.173165
H	-0.5375830046	 1.5113079387	 1.2522712835	 0.131795
H	 2.0411433909	 1.4224698896	 0.9254927433	 0.103495
H	 2.5676893259	 3.8217376269	 1.0743863225	 0.094921
H	 0.5639261741	 5.2172848927	 1.3736314141	 0.101708
H	 0.2054513023	 6.4616383648	-0.8026124508	 0.119982
H	 0.9956382977	 5.0617491586	-1.7174744505	 0.139031
