19
gdb 83079	2.37915	1.70697	1.50477	2.9512	79.76	-0.2218	-0.0057	0.2161	998.0333	0.160663	-385.906573	-385.898881	-385.897937	-385.938314	30.765	
C	-0.1984795179	 1.5854768224	 0.0473644421	-0.428745
C	 0.0363658737	 0.0837064694	 0.0057764785	 0.027811
C	 0.8034256371	-0.5798921549	-1.1976213027	-0.169443
C	 2.0728568136	 0.2252677905	-1.5651037434	-0.262729
C	 2.8627648788	 0.544148238	-0.3167818275	-0.067843
C	 2.4135137249	 0.145414213	 0.8750019032	-0.058712
C	 1.0919333849	-0.6032816745	 0.9491356046	-0.202146
C	 1.1835847975	-1.6602370431	-0.1711507728	 0.441419
O	 1.3452309402	-2.844277532	-0.2108269497	-0.326474
H	 0.733350839	 2.1522386112	-0.010392101	 0.127173
H	-0.8394215601	 1.8958338662	-0.7850478729	 0.117947
H	-0.7047629691	 1.8690461579	 0.9761599191	 0.118759
H	-0.9185450044	-0.4384754979	 0.1292127431	 0.088368
H	 0.2391060537	-0.8865934971	-2.080591246	 0.082742
H	 2.6846183045	-0.3665999623	-2.2588889634	 0.12493
H	 1.8072240633	 1.143589554	-2.1076872641	 0.111374
H	 3.7950275878	 1.0916615165	-0.4194341616	 0.09591
H	 2.9663475297	 0.3260075747	 1.7908943176	 0.099738
H	 0.8074470025	-0.9053935321	 1.9565497966	 0.07992
