18
gdb 29696	2.36801	1.61852	0.97819	1.9766	76.16	-0.1824	0.0407	0.2232	1191.382	0.147727	-435.310098	-435.300339	-435.299395	-435.344647	34.932	
C	 0.0222246386	 1.4599674715	-0.0188624743	-0.346255
N	 0.0317003942	 0.0127391357	 0.0008812552	-0.044737
C	 0.0466064064	-0.8285088385	-1.0648810324	 0.324748
C	 0.0549354967	-0.365124183	-2.4821600937	-0.499448
N	 0.0518977638	-2.098886069	-0.6793765814	-0.395853
C	 0.0402991937	-2.0648036712	 0.679873189	 0.294028
O	 0.0417683951	-3.1976938455	 1.4264456719	-0.448378
C	 0.0274251096	-0.7800609326	 1.1596004015	 0.107942
N	 0.012429467	-0.2021180193	 2.4426274931	-0.616781
H	 0.915031452	 1.8551779469	-0.514669962	 0.132519
H	-0.8630936819	 1.84291504	-0.5370902182	 0.132548
H	 0.0070255803	 1.8016625426	 1.0168940807	 0.16289
H	 0.9320789616	 0.252816413	-2.7103136783	 0.128198
H	 0.07248584	-1.2407815707	-3.1323436256	 0.150918
H	-0.8330764478	 0.2302031361	-2.7280255981	 0.128354
H	 0.0520736732	-3.9278952623	 0.7960545708	 0.29586
H	 0.8273989965	-0.4628590554	 2.9880822147	 0.246712
H	-0.8072613392	-0.4756185783	 2.974583157	 0.246735
