20
gdb 36904	4.12616	0.99911	0.89905	1.9541	78.6	-0.2326	0.0753	0.3079	1337.127	0.171021	-403.06305	-403.054855	-403.053911	-403.096625	31.381	
C	 0.4901025133	 1.497798298	 0.9458978086	-0.17598
C	 0.2325520464	 0.0212837255	 0.692477069	 0.138649
O	-0.4753646321	-0.6265966154	 1.7903728928	-0.307985
C	-1.4099199167	-1.1923061109	 0.866479485	 0.109551
C	-2.2161386099	-0.125081749	 0.2021460314	-0.300637
C	-0.8238719873	-0.4502233799	-0.310440153	-0.139507
N	 1.3424773154	 2.0385692253	-0.1056731964	-0.069946
C	 0.6614814639	 2.6343815292	-1.2538790509	-0.217264
C	 1.351972676	 3.4892902454	-0.2501558828	-0.219338
H	-0.4647770978	 2.0427757937	 1.0444464694	 0.082344
H	 1.0175318986	 1.5925311904	 1.9030053245	 0.114913
H	 1.1900039049	-0.4856645016	 0.5228344338	 0.093029
H	-1.7101522809	-2.2229392884	 1.0138034705	 0.103797
H	-3.0162584624	-0.4756461642	-0.4426969869	 0.114449
H	-2.426105875	 0.7980422123	 0.7344866788	 0.115161
H	-0.6296198036	-0.7766842784	-1.3224040109	 0.100204
H	 1.1139076918	 2.4447310184	-2.2229679985	 0.116135
H	-0.427046852	 2.645476299	-1.2518480328	 0.114915
H	 0.7236910948	 4.0736925142	 0.4203950061	 0.110149
H	 2.3172106228	 3.9351255563	-0.472840808	 0.117362
