12
gdb 23716	5.85493	1.5072	1.19864	4.054	59.3	-0.2327	-0.0336	0.1991	887.6782	0.084836	-422.6859	-422.679748	-422.678804	-422.716127	23.625	
O	 0.0830252858	 1.361251573	-0.1207717701	-0.439264
C	 0.06531529	 0.0032743845	-0.0276244649	 0.34039
C	 0.0137802571	-0.7335729496	-1.2115877983	-0.052051
N	-0.0075282867	-2.0672299255	-1.2363088806	-0.302247
C	 0.0218116308	-2.6998774138	-0.0865170433	 0.330261
F	-0.000489466	-4.0320203754	-0.1399642052	-0.078594
C	 0.073557228	-2.0828177016	 1.1585206196	-0.246116
C	 0.095634709	-0.694987188	 1.1808704049	-0.205394
H	 0.1187528554	 1.7439802336	 0.7617814314	 0.301093
H	-0.0105918699	-0.2132577869	-2.1647120614	 0.126233
H	 0.0953057731	-2.6729292191	 2.0660241203	 0.120663
H	 0.1359535233	-0.1619008012	 2.1268562375	 0.105027
