16
gdb 37349	3.16967	1.94965	1.67725	1.0993	65.67	-0.2572	0.0119	0.2691	830.5386	0.128242	-437.879631	-437.873714	-437.87277	-437.909621	24.873	
C	-0.0145434388	 1.5497839785	-0.0229023774	-0.26026
C	 1.4905765644	 1.835198604	-0.0146252227	 0.065753
O	 2.0364168819	 1.4392280804	 1.2721442645	-0.243909
C	 1.4862078802	 0.3108817521	 1.796547422	 0.12558
N	 0.5707455101	-0.4259040578	 1.3185604602	-0.266234
C	 0.0357083315	 0.0103341915	 0.0150976212	-0.04025
C	 1.1156486117	-0.3035486316	-1.0272633047	 0.06311
O	 1.1605937675	 0.5925787996	-2.1440288182	-0.259919
C	 2.035866057	 0.8407862171	-1.0381828397	 0.040487
H	-0.5233641327	 1.9711936904	 0.8456349019	 0.116199
H	-0.4704637515	 1.9240679097	-0.9391477871	 0.129785
H	 1.7808677231	 2.8766285967	-0.1535380668	 0.093836
H	 1.940987168	 0.0904570868	 2.7601730725	 0.130624
H	-0.922349573	-0.4798482301	-0.1645696756	 0.082626
H	 1.4297874142	-1.325098539	-1.213882855	 0.112603
H	 3.1011245365	 0.7663336618	-1.231216225	 0.109968
