17
gdb 132740	2.27005	1.80608	1.0131	1.2936	80.51	-0.2014	0.0081	0.2095	1131.6247	0.136406	-426.050345	-426.041988	-426.041044	-426.083167	32.051	
C	-0.0131611199	 1.5132766152	-0.0252667989	-0.496792
C	-0.0131224876	 0.0075505726	 0.0217464054	 0.188681
C	-0.0152761857	-0.7228110878	-1.1578287752	 0.160652
F	-0.0084664632	-0.0611349484	-2.3384531192	-0.098595
C	-0.0136694993	-2.1191485801	-1.2115584077	 0.202293
N	-0.0781667471	-2.7667663781	-2.4445195252	-0.596357
C	-0.0029163444	-2.80476817	 0.0084818286	-0.20877
C	 0.000652706	-2.1029405254	 1.208870822	-0.091028
C	-0.0068203109	-0.7110431153	 1.2212240608	-0.222834
H	 0.8645955129	 1.8974065886	-0.5561691303	 0.134819
H	-0.8926977354	 1.8969535866	-0.5533657679	 0.136595
H	-0.0113716069	 1.9316985137	 0.9838098931	 0.122214
H	 0.227396359	-2.1967499038	-3.2198209992	 0.253244
H	 0.343147297	-3.6838872186	-2.459124233	 0.247959
H	-0.0026619424	-3.890397771	 0.0037154203	 0.087119
H	 0.0088224107	-2.6508207072	 2.1451385151	 0.091539
H	-0.0056146227	-0.170454511	 2.1616381011	 0.089261
