17
gdb 46990	2.72166	1.78593	1.45794	3.8623	66.85	-0.2312	-0.023	0.2082	935.4448	0.138418	-458.991311	-458.984324	-458.98338	-459.022788	27.361	
O	 0.072105163	-0.0780967107	 0.0099867272	-0.310417
C	-0.0194472644	 1.1229593982	 0.0463415156	 0.418169
C	-1.3360094073	 1.8862482119	 0.1575383996	-0.327485
C	-1.2008717245	 3.1527195892	 1.0370643974	-0.225885
C	 0.1650424797	 3.8174027991	 0.8374642223	 0.058715
C	 0.4871010984	 4.1436097917	-0.6315080522	-0.096143
O	 1.0694036681	 2.932123988	-1.1252649615	-0.270558
C	 1.2043172349	 2.0531476056	-0.0169879157	 0.068056
O	 1.1930604285	 2.859349774	 1.1393666159	-0.248184
H	-1.6111937749	 2.1731190612	-0.865709122	 0.140545
H	-2.111086605	 1.2085131864	 0.5216521799	 0.128385
H	-2.0060787109	 3.8635758663	 0.8199245015	 0.107266
H	-1.2859071634	 2.8787086842	 2.0937506871	 0.123505
H	 0.3015700988	 4.6695443726	 1.5060202509	 0.097325
H	-0.400849483	 4.3961331373	-1.2207297593	 0.111762
H	 1.2155353667	 4.9576187563	-0.7162328426	 0.116344
H	 2.1387867951	 1.4912320385	-0.0801888342	 0.1086
