16
gdb 49866	3.04183	1.33776	0.99857	4.1439	71.27	-0.2443	-0.0341	0.2102	1137.3295	0.124678	-437.919049	-437.911303	-437.910359	-437.952161	28.664	
O	-0.053565645	 0.0230739996	-0.294087557	-0.333227
C	 0.0256181127	 1.2304893618	-0.2111615987	 0.141512
N	 1.1745306243	 1.9067553445	 0.0498789766	-0.051402
C	 2.4520279392	 1.2370541288	 0.2492637907	-0.293012
C	 3.4108638433	 2.3581305899	 0.6843335533	 0.400576
O	 4.5134301752	 2.1849117431	 1.131911393	-0.310356
C	 2.7039456827	 3.6697605274	 0.5202422327	-0.174597
C	 2.1870087603	 3.9875354241	-0.8859401591	-0.309652
C	 1.285334554	 3.3455690305	 0.1208893229	 0.007021
H	-0.8409742144	 1.9116847627	-0.3264123422	 0.075445
H	 2.3842414618	 0.4692466004	 1.0256509289	 0.166
H	 2.8146646152	 0.7431847775	-0.6606116103	 0.152848
H	 2.9767346192	 4.4848148125	 1.1771671098	 0.126006
H	 2.0466647714	 5.0409272795	-1.0998064825	 0.139042
H	 2.5394852326	 3.3937717858	-1.7221773067	 0.138027
H	 0.4296933377	 3.8703640819	 0.5283355885	 0.125768
