18
gdb 9693	3.75962	1.28221	1.16271	1.7184	63.88	-0.2579	0.0502	0.3081	1078.3889	0.152038	-422.046861	-422.037542	-422.036598	-422.081406	33.299	
O	 0.1791734972	 0.5685826125	 0.8503695421	-0.427518
C	-0.2286718161	 0.2353804596	-0.4658590507	-0.074237
C	-1.5602737341	-0.491386379	-0.4882501326	-0.075836
C	-1.7555983233	-1.6852410261	-1.408870871	-0.363542
C	-1.6214340252	-1.8795572838	 0.0775023485	 0.375602
O	-0.3975151951	-2.3756342397	 0.5820794792	-0.480444
C	-2.803431435	-2.3111169088	 0.9177124281	-0.127051
O	-2.8601784618	-3.7246663485	 1.057716319	-0.421188
H	 0.3350943186	-0.2718091295	 1.296844843	 0.292223
H	-0.3080325314	 1.180836763	-1.0122691834	 0.107686
H	 0.5319382017	-0.3742858453	-0.9731810968	 0.086613
H	-2.4269615709	 0.1364707594	-0.2979211469	 0.093397
H	-2.7251401713	-1.8490056679	-1.8666954112	 0.118787
H	-0.9091427437	-1.9661389173	-2.0280133032	 0.113641
H	-0.2819669501	-3.269547532	 0.2433516199	 0.290367
H	-2.7503566407	-1.8211609049	 1.901515323	 0.098734
H	-3.738522037	-2.0024871598	 0.4399529589	 0.110681
H	-2.1589345517	-3.9681940217	 1.6702703641	 0.282085
