18
gdb 38277	3.70973	1.7637	1.6995	2.0219	75.43	-0.2172	0.0696	0.2868	867.7771	0.150565	-401.782064	-401.776213	-401.775269	-401.811821	26.155	
C	 0.0056055062	 1.5589717461	-0.0477572611	-0.175721
C	 1.5528321146	 1.3374229462	 0.0158604456	-0.211846
C	 1.0959923365	 0.1811499702	 0.9783413202	-0.158146
N	-0.140450153	 0.027315593	 0.0958543293	-0.188277
C	 0.4045064439	-0.2423848643	-1.2741508628	 0.048359
C	 1.4790389378	-1.1617443256	-1.9440185807	-0.01045
C	 1.9685978219	 0.1256311696	-2.727596289	-0.311507
C	 1.768231487	 0.4663549338	-1.2216112445	 0.398062
O	 2.4617409683	-0.849495344	-0.9250371364	-0.336247
H	-0.3903417106	 2.0495514916	 0.8430308159	 0.116501
H	-0.4425750209	 1.9912035162	-0.9461869483	 0.10387
H	 2.2653831075	 2.1073890799	 0.3076449595	 0.080656
H	 1.7168508377	-0.6997454428	 1.0890130618	 0.141465
H	 0.7789753594	 0.570019222	 1.9484533153	 0.102024
H	-0.3277437869	 0.1263746447	-1.9947928545	 0.084481
H	 1.4335799751	-2.1907121038	-2.307086	 0.096097
H	 3.0027184624	 0.0533367757	-3.0651234889	 0.11702
H	 1.3075119031	 0.6020077714	-3.4555568315	 0.103659
