19
gdb 58445	2.43182	1.62796	1.20676	1.7178	70.78	-0.2346	0.0589	0.2935	1078.6538	0.157881	-460.102121	-460.093432	-460.092487	-460.135043	34.109	
C	-0.0675193843	 1.5821932048	 0.2302021768	-0.418119
C	 0.0510566099	 0.0739313889	-0.0355082001	 0.064544
O	 0.9892582468	-0.5116964493	 0.8523119724	-0.437184
C	-1.3238957633	-0.5988917475	-0.0056368256	 0.3409
O	-2.2306593394	-0.0381633683	-0.9266882517	-0.463536
C	-1.640678458	-2.0774025394	 0.1068823804	-0.165374
C	-0.7999661291	-2.7770251244	 1.1643934413	-0.113727
O	-1.1086035895	-1.7353574522	 2.1506139236	-0.305846
C	-2.0205467995	-1.1190880198	 1.224359514	-0.003601
H	 0.9334985597	 2.0194962586	 0.2507093145	 0.13158
H	-0.6425868887	 2.0931444431	-0.5489215166	 0.109363
H	-0.5405574485	 1.7714258477	 1.2014216925	 0.112039
H	 0.4591191601	-0.0710681914	-1.0442227017	 0.093657
H	 0.5286547073	-0.6722749704	 1.6880317019	 0.292155
H	-2.4734644978	 0.8387696799	-0.6102963477	 0.289922
H	-2.2654141684	-2.5529150182	-0.6363378676	 0.11207
H	-1.2350504324	-3.7275047259	 1.4904855098	 0.116252
H	 0.2731949604	-2.8773235401	 0.9951413582	 0.135125
H	-2.9740484554	-0.7664352661	 1.6033502456	 0.109779
