18
gdb 32996	5.10188	0.89904	0.77299	4.3496	83.8	-0.215	-0.029	0.186	1462.9025	0.149936	-398.179471	-398.171087	-398.170143	-398.213	30.819	
C	-0.0569325999	 1.5629822665	 0.0013216897	-0.408842
C	 0.0002855375	 0.0406536349	-0.067735916	-0.110429
N	-1.3219245353	-0.5281458746	 0.140480051	-0.393708
C	-1.5592508936	-1.8841235357	 0.0618031281	 0.287446
C	-0.5510311939	-2.8602162947	 0.0860088786	-0.052092
N	-0.8171186669	-4.1664144397	 0.0541703752	-0.24463
C	-2.0977245286	-4.519629637	-0.0114641434	 0.050977
N	-3.1434885702	-3.6876577377	-0.0543162562	-0.2409
C	-2.8683466328	-2.3914450163	-0.0180179939	-0.049822
H	 0.9401556237	 1.9889267481	-0.1355714817	 0.130737
H	-0.7029339416	 1.9693767783	-0.7853644535	 0.121981
H	-0.4447319148	 1.8950845458	 0.9689074088	 0.133829
H	 0.4287827161	-0.2774601847	-1.0325736719	 0.104656
H	 0.672878022	-0.3356655344	 0.7130831251	 0.121266
H	-2.0851878904	 0.0534621854	-0.17312499	 0.23648
H	 0.4976765587	-2.5807058999	 0.1336818462	 0.104474
H	-2.3164008618	-5.5832632536	-0.037072254	 0.110629
H	-3.7146037082	-1.7042531207	-0.0525466721	 0.097948
