18
gdb 126573	4.76703	0.81576	0.72999	2.6741	75.19	-0.2402	0.0107	0.2509	1569.9291	0.148202	-435.291551	-435.282538	-435.281593	-435.326002	32.764	
C	 0.0503516555	 1.5128236507	-0.0745092725	-0.381851
C	 0.0971310901	-0.0159716263	-0.0384640881	-0.163992
C	 0.6172032877	-0.5551012534	 1.3062317962	-0.296376
C	 0.7143424966	-2.0447876604	 1.3280116695	 0.370867
N	-0.0027511001	-2.770586853	 2.1447357664	-0.200104
O	 0.3918261261	-4.1014213972	 1.8193175228	-0.210616
C	 1.2965116026	-3.9798070101	 0.8453100809	 0.49197
N	 1.8041539004	-5.1203429003	 0.3104002208	-0.594386
N	 1.551116673	-2.7503335276	 0.4905589217	-0.385471
H	 1.046429819	 1.9435407475	 0.0773015409	 0.115356
H	-0.3250940479	 1.873534771	-1.0369387274	 0.114311
H	-0.6046039986	 1.9101209458	 0.7088912485	 0.116312
H	-0.9036605341	-0.4248390063	-0.2220113252	 0.106464
H	 0.7391549282	-0.3935799941	-0.8414701153	 0.120159
H	 1.6145361363	-0.1409489569	 1.5000313801	 0.11859
H	-0.0353909961	-0.2383240729	 2.1252979787	 0.123462
H	 1.7551048504	-5.9484561982	 0.8821825844	 0.275725
H	 2.6522263009	-5.0028951981	-0.2202913925	 0.279582
