20
gdb 78484	2.63962	1.68997	1.55461	1.0017	77.18	-0.2261	0.0642	0.2903	981.9752	0.173302	-403.094355	-403.086825	-403.085881	-403.126007	30.299	
C	-0.0442161196	 1.5477769974	 0.1307730605	-0.44132
C	 0.0477002469	 0.0453790612	-0.0548504233	 0.033013
C	 0.4575098999	-0.7150835066	-1.2501223555	-0.089461
C	 1.721960138	-0.2003928751	-1.9488112044	 0.089097
O	 1.7758802102	 1.1650170689	-2.3288953117	-0.267989
C	 2.925602875	 1.7363712541	-1.6960510741	-0.077588
C	 3.0846284332	 1.0275891808	-0.3278397199	-0.269927
C	 2.4543936172	-0.345462986	-0.6096682544	 0.024396
N	 1.2093947664	-0.861891045	 0.0931222177	-0.185554
H	 0.5709838622	 2.1142016028	-0.5616627635	 0.150659
H	-1.0846626281	 1.8457551281	-0.0393824187	 0.119401
H	 0.2071533045	 1.8252071006	 1.1605718375	 0.119699
H	-0.7779887203	-0.452439452	 0.4552333199	 0.100959
H	-0.1351001953	-1.5346145099	-1.6452395804	 0.090881
H	 2.0610638177	-0.8495065484	-2.7641716997	 0.078402
H	 3.8196823317	 1.5745742905	-2.3174526375	 0.097062
H	 2.7584836203	 2.8143847415	-1.6198339129	 0.112367
H	 4.13533108	 0.9456969052	-0.0388866452	 0.10497
H	 2.564984453	 1.5620169285	 0.4677767572	 0.122543
H	 3.1853705572	-1.1541119768	-0.5728138715	 0.088388
