14
gdb 3739	7.6649	2.03642	1.64206	4.2223	60.23	-0.2439	0.006	0.2499	754.2101	0.114118	-320.766684	-320.759646	-320.758702	-320.798504	23.909	
C	-0.0220003605	 1.4603925698	 0.0448804605	-0.330707
N	 0.0438547109	 0.0183033719	-0.0680754333	 0.084418
C	-0.0277324431	-0.7635671296	-1.1730506853	-0.188481
C	 0.0900096878	-2.0509374505	-0.7005463843	 0.309533
C	 0.0839591469	-3.3496595566	-1.4380887668	-0.482286
N	 0.2259545089	-1.984654817	 0.6564623764	-0.249275
N	 0.1979501578	-0.7390263268	 1.0350434897	-0.147119
H	 0.7929817728	 1.9307629667	-0.5125272378	 0.146065
H	-0.9782567405	 1.8356151723	-0.3305234199	 0.146064
H	 0.0736184594	 1.7041943396	 1.1028840994	 0.170714
H	-0.1513579914	-0.3564879913	-2.1628441803	 0.136985
H	 1.0171592081	-3.8981161633	-1.2750490752	 0.141786
H	-0.7334071363	-3.9920478205	-1.0953047671	 0.141783
H	-0.0349391006	-3.1903972647	-2.5128048158	 0.120522
