17
gdb 125143	2.82823	1.50736	1.03643	3.4898	76.81	-0.2156	0.0052	0.2208	1137.9273	0.136117	-417.975447	-417.967097	-417.966153	-418.009763	29.868	
C	 0.2628362053	 1.4496981917	-0.0752560484	-0.518317
C	 0.0558529645	-0.0301491304	-0.00131693	 0.052165
C	-0.0989632483	-0.9197052043	-1.0306117736	 0.407669
O	-0.285829974	-2.1659739959	-0.5604788878	-0.215623
N	-0.2617790381	-2.1312214578	 0.8416677446	-0.160713
C	-0.0556889798	-0.8710048721	 1.1378336184	-0.023043
N	-0.1729291278	-0.7319496728	-2.4009219837	-0.162738
C	 1.0489056136	-0.4565358379	-3.1695435118	-0.227596
C	 0.3461711748	-1.7622802008	-3.296673607	-0.221732
H	 1.3147687465	 1.7323167427	 0.053603709	 0.129264
H	-0.0674939776	 1.8376488834	-1.0429025562	 0.136785
H	-0.3077862664	 1.9679044678	 0.7018562775	 0.133178
H	-0.0000231089	-0.5875890844	 2.1809982129	 0.124889
H	 0.9440793952	 0.3024269717	-3.9380641039	 0.131592
H	 1.988427648	-0.4430127257	-2.6237049848	 0.133995
H	 0.8084315324	-2.6327549382	-2.8418975371	 0.147621
H	-0.2736956894	-1.965459347	-4.164028308	 0.132604
