14
gdb 42256	2.86636	1.13865	0.99708	4.0337	75.82	-0.2695	-0.0889	0.1805	1193.6763	0.098731	-399.519773	-399.511097	-399.510153	-399.553828	30.954	
O	 0.1029165675	-0.0288067547	-0.514302561	-0.286034
C	-0.0247195945	 1.142470927	-0.2479407811	 0.310387
C	 1.1646246276	 1.9746447452	 0.0351249941	 0.2177
N	 2.0909640262	 2.6335059319	 0.2472630543	-0.301905
C	-1.3147178606	 1.8627487101	-0.1569786612	-0.13875
C	-2.5334414956	 1.2362617224	-0.7901315159	-0.293058
C	-2.4481316623	 1.2361474223	 0.7073873127	-0.188315
C	-2.2391922056	 0.0300633386	 1.4478258709	 0.353099
C	-2.085396249	-0.9721877873	 2.092928273	-0.446563
H	-1.2467347988	 2.942948414	-0.1070617907	 0.126067
H	-3.2449175808	 1.9023287021	-1.2633045873	 0.137395
H	-2.362009481	 0.2877466584	-1.2850805237	 0.162646
H	-3.0374990639	 1.9901558026	 1.2208895375	 0.137132
H	-1.9434220391	-1.8643165727	 2.6515206685	 0.210201
