17
gdb 94027	4.4051	0.99465	0.865	3.9218	74.55	-0.245	-0.01	0.235	1290.524	0.13729	-418.008605	-418.000203	-417.999259	-418.041894	31.416	
O	-0.046881663	 1.4317498428	 0.0381520741	-0.425939
C	 0.040905786	 0.0124181534	-0.0146117187	 0.068237
C	-1.3966086128	-0.521052049	 0.0316967996	-0.179081
N	-1.4979980336	-1.9409645816	-0.2991472751	-0.314013
C	-0.9817048123	-2.2344445691	-1.6414692582	-0.13059
C	 0.2706381981	-1.4590889824	-2.0254646034	-0.060216
C	 0.7235601174	-0.4577652017	-1.2778017314	-0.100028
C	-0.7470674396	-3.6804357886	-1.7711111983	 0.255936
N	-0.5395904872	-4.8119178992	-1.8756013198	-0.314643
H	 0.8430108146	 1.7916994687	 0.1096606238	 0.286701
H	 0.5944404108	-0.3638700902	 0.8634443977	 0.076167
H	-1.8342513306	-0.3566599733	 1.0196166393	 0.118004
H	-1.9903969424	 0.0543718285	-0.6881681605	 0.125662
H	-0.9854051675	-2.4928997855	 0.3818987552	 0.234615
H	-1.771812006	-1.9824636851	-2.3678696791	 0.145616
H	 0.7567038353	-1.7451796762	-2.9536298683	 0.117087
H	 1.6153040026	 0.0872147383	-1.5820442768	 0.096486
