17
gdb 15079	2.66412	1.69665	1.19182	3.9143	65.24	-0.2505	-0.0291	0.2214	1022.2807	0.140353	-400.963028	-400.954449	-400.953505	-400.996976	30.152	
O	 0.2382272033	 1.0932826645	-0.1450312153	-0.425196
C	-0.1198091218	-0.2368998724	 0.1627242487	-0.063078
C	-1.6450818433	-0.4278453691	 0.0938983208	-0.086043
C	-2.3168811874	 0.4632317708	 1.1361912882	 0.180003
O	-2.366915929	 0.1824588041	 2.3044166353	-0.25349
N	-2.0918718763	-0.033654096	-1.2399801275	-0.089068
C	-2.1645030521	-1.0874162148	-2.2501441416	-0.220793
C	-3.4062507445	-0.5095548136	-1.6697640474	-0.228361
H	-0.2550541647	 1.3191237946	-0.9445682264	 0.290141
H	 0.3583268065	-0.9592272947	-0.5191543766	 0.090113
H	 0.2266032585	-0.4470634745	 1.1786109587	 0.129317
H	-1.8885813492	-1.4747638235	 0.3439857444	 0.083506
H	-2.75149167	 1.4042200819	 0.7352744129	 0.091031
H	-1.8437451268	-0.8073340226	-3.2488404613	 0.127161
H	-1.8933740378	-2.0976678619	-1.9498189473	 0.121977
H	-3.969975099	-1.1332242873	-0.9784482346	 0.124908
H	-4.0021167164	 0.1986736545	-2.2371361111	 0.127874
