17
gdb 130316	3.19766	1.20956	0.91058	4.5558	70.7	-0.2132	0.0137	0.2268	1230.9805	0.136789	-455.135694	-455.127083	-455.126139	-455.16945	32.14	
N	 0.4943308691	 1.3305344706	 0.4596045959	-0.599867
C	 0.2489029416	 0.0196844879	 0.1323659436	 0.340188
N	-0.9755763271	-0.4017640168	-0.1154009051	-0.238797
O	-0.8574822783	-1.7841854135	-0.3325282976	-0.177749
C	 0.4271991888	-2.1240956297	-0.2066893851	 0.000754
C	 1.210825865	-1.0532952179	 0.0793998099	 0.098755
C	 2.7068669975	-1.0402525422	 0.2189684368	-0.328155
C	 3.2730322445	-0.2715826589	 1.4152808556	-0.080542
O	 3.3177046662	 1.1171515837	 1.0764704679	-0.409123
H	 1.4600945142	 1.6221835878	 0.3985172745	 0.261443
H	-0.1977687941	 1.9910150177	 0.1423871538	 0.254685
H	 0.6569431717	-3.169620656	-0.3540417926	 0.137329
H	 3.0531241668	-2.0774376138	 0.2831493008	 0.110738
H	 3.1795721863	-0.6158018777	-0.6774459801	 0.126875
H	 2.6552394968	-0.4414723025	 2.307130417	 0.109706
H	 4.2895495229	-0.6314341931	 1.6290946935	 0.098734
H	 3.5033157079	 1.6182620444	 1.8765450712	 0.295025
