21
gdb 76825	2.70199	1.48031	1.1832	1.0866	84.96	-0.2299	0.0184	0.2483	1138.0008	0.183511	-387.076778	-387.068298	-387.067354	-387.109569	33.433	
C	-0.0402401952	 1.5707704481	 0.1430818044	-0.404222
C	 0.0156871775	 0.0607817662	-0.0183015015	-0.103078
C	 0.7859407694	-0.5766616986	-1.2585509365	 0.094244
O	 1.8272692864	 0.2202835647	-1.7633715967	-0.420008
C	 1.2444973142	-1.7510547334	-0.3016347101	-0.05889
C	 2.7034713084	-2.1819762911	-0.0686470097	-0.259849
C	 2.9687115988	-1.8090664212	 1.4292157871	-0.233384
C	 1.9434021165	-0.7119008452	 1.7112069643	-0.2441
C	 0.9644998867	-0.7769242815	 0.8117754283	 0.258771
H	 0.952425702	 2.0191570169	 0.0433203989	 0.110634
H	-0.6870846	 2.022017192	-0.6160434817	 0.120846
H	-0.4347444453	 1.8432905785	 1.1273519939	 0.119018
H	-0.9955356017	-0.3646020924	 0.0010759951	 0.084752
H	 0.1690275279	-0.849697602	-2.1179469194	 0.083836
H	 2.3999132281	 0.4613087322	-1.0242447522	 0.28099
H	 0.5394016841	-2.5872830787	-0.3673404253	 0.072364
H	 2.8860669184	-3.2387924476	-0.2796059389	 0.097114
H	 3.3694946662	-1.602652184	-0.7189358745	 0.103949
H	 2.8320213296	-2.6776523718	 2.0887046867	 0.10598
H	 3.9949963153	-1.4614477829	 1.5930318514	 0.099961
H	 2.0666028128	 0.0247128818	 2.4972145364	 0.091072
