15
gdb 29669	3.18843	1.41219	0.98473	3.8138	73.15	-0.2155	-0.0538	0.1616	1113.8801	0.113412	-454.021573	-454.013313	-454.012368	-454.054721	29.609	
C	-0.0278318007	 1.4577390005	-0.0035144916	-0.337075
N	-0.0025935179	 0.0050549508	 0.0255765429	-0.193029
C	-0.0183437557	-0.7540090941	-1.1336578981	 0.461906
O	-0.0532183364	-0.3855371772	-2.2881189863	-0.424341
N	 0.0144084925	-2.0791620581	-0.6647537085	-0.344264
C	 0.0486661067	-2.1161512066	 0.700647275	-0.13534
C	 0.0385496996	-0.8263881696	 1.149434125	 0.223595
C	 0.0654636307	-0.4028367514	 2.5313245966	 0.074771
O	 0.05632925	 0.7474126229	 2.92286746	-0.307563
H	 0.861797945	 1.8719324335	 0.4750265841	 0.14923
H	-0.0567576726	 1.7467230054	-1.055146709	 0.161604
H	-0.9082423408	 1.8421442744	 0.5153257124	 0.149104
H	 0.011221987	-2.8621198066	-1.29573875	 0.279783
H	 0.077494838	-3.0340281579	 1.2640870161	 0.165538
H	 0.0968189145	-1.258777046	 3.2407294513	 0.076081
