20
gdb 56541	1.93058	1.45969	0.96974	2.9588	80.84	-0.2435	0.0248	0.2682	1282.5577	0.168271	-403.15845	-403.147771	-403.146827	-403.194736	38.957	
C	-0.117628833	 1.5094581466	 0.08659273	-0.411292
C	-0.0512441928	-0.0222207897	-0.0795527512	-0.131573
C	-1.3942281136	-0.5554614362	-0.3150724649	 0.321715
C	-2.5021570215	-0.9683381376	-0.5371394509	-0.480568
C	 0.9197120149	-0.4797430409	-1.2135920925	-0.07836
C	 2.3314108486	 0.1002949853	-1.060993954	-0.410333
C	 1.0112218925	-2.0117702235	-1.1806683902	 0.403996
N	 0.3437224857	-2.6650140968	-2.1812896581	-0.515576
O	 1.6629934947	-2.5953496117	-0.335909191	-0.374564
H	 0.8460282836	 1.9132621783	 0.4042711231	 0.12513
H	-0.4065375694	 1.9914601616	-0.8528105168	 0.123531
H	-0.8622313862	 1.772144581	 0.8421702036	 0.129898
H	 0.3320918114	-0.4587064978	 0.8522094419	 0.129076
H	-3.4832963122	-1.339764774	-0.7020812904	 0.196262
H	 0.4926853266	-0.1555421661	-2.1700796725	 0.07677
H	 2.7658400891	-0.2106985525	-0.1076261786	 0.142491
H	 2.981440362	-0.2734801681	-1.8575686927	 0.122971
H	 2.3274258368	 1.1910027443	-1.1177966901	 0.114655
H	-0.4087364466	-2.1943793575	-2.6572992335	 0.259047
H	 0.2530641596	-3.6643422748	-2.0711096714	 0.256723
