17
gdb 38211	3.27761	1.7618	1.41315	1.9381	73.61	-0.2349	-0.0053	0.2296	928.9124	0.137263	-421.7396	-421.733015	-421.732071	-421.770279	27.291	
C	-0.0405285761	 1.638834156	 0.1085662219	-0.263265
C	 1.4209633703	 1.1906181686	-0.021424713	-0.024199
O	 1.1302728916	 0.0505825944	 0.907791077	-0.363485
C	-0.0038703695	 0.0867552094	-0.0571183777	 0.422838
C	-1.1008268623	-0.855368877	-0.3262723725	-0.264154
C	-1.3301129655	-1.0279061599	-1.6339234016	-0.059991
C	-0.5188560111	-0.3979320071	-2.7570450754	-0.134851
O	 0.4539694116	 0.5889822321	-2.3900881216	-0.273398
C	 1.0304116899	 0.2153481584	-1.1672554872	 0.104945
H	-0.3313343597	 1.9934306255	 1.0976109775	 0.104665
H	-0.4748593319	 2.2108812959	-0.7120290165	 0.113556
H	 2.3466428628	 1.736326095	 0.1580199716	 0.095925
H	-1.7158050398	-1.3027003518	 0.4473385712	 0.109093
H	-2.1454231637	-1.6591662062	-1.9794238614	 0.107846
H	-0.0266731816	-1.2119196189	-3.3178995763	 0.115222
H	-1.1977585699	 0.0987273512	-3.4594572626	 0.1281
H	 1.7041904648	-0.6450954458	-1.2546709935	 0.081153
