16
gdb 70972	3.97396	1.24958	1.1204	4.7018	73.63	-0.2669	0.0179	0.2848	1074.3116	0.124777	-400.707761	-400.70036	-400.699415	-400.739328	29.41	
O	-0.1228314563	 1.3309292321	-0.077368747	-0.458805
C	 0.0502977202	-0.0319888428	-0.0338578798	 0.398505
C	 0.9836240669	-0.8720079315	-0.9022900349	-0.339132
C	 0.1008546104	-2.0810835345	-0.4491995009	 0.194875
C	 0.3917733098	-2.2157834544	 1.080873423	-0.273936
C	-0.3056918863	-0.8677295113	 1.2154833651	-0.145392
C	-1.0547852165	-1.0442932224	-0.0922658179	-0.169956
C	-0.0382212566	-3.2411761578	-1.2861049723	 0.162904
N	-0.153965058	-4.1781543541	-1.9546580084	-0.343135
H	 0.5288559798	 1.7450478925	 0.4994443314	 0.291748
H	 0.8391224658	-0.6495702139	-1.9616954478	 0.128998
H	 2.0513423098	-0.9277000212	-0.664322154	 0.102096
H	-0.193191678	-3.0238221717	 1.5261268481	 0.125001
H	 1.4434385512	-2.3107092852	 1.3708516139	 0.105521
H	-0.6717496219	-0.3798537823	 2.1091532487	 0.101747
H	-2.0982173303	-0.9922171913	-0.3633523772	 0.11896
