16
gdb 15796	3.31883	1.40311	1.09627	4.098	62.4	-0.2751	0.0022	0.2773	1070.5204	0.128058	-420.873587	-420.865091	-420.864147	-420.907952	29.11	
C	 0.4258282826	 1.5801344058	 0.0463344169	-0.392086
C	 0.0866639944	 0.0978751144	-0.0829124171	 0.067788
O	 0.6986259226	-0.4166007346	-1.2771368017	-0.184989
C	-0.0959694895	-0.7553936958	-2.3099277853	 0.1713
O	 0.3287230711	-1.1859529469	-3.3387445141	-0.273141
C	 0.5732571688	-0.6932909045	 1.116749451	 0.084396
C	 1.2997405022	-1.9632418363	 1.0143169643	-0.176938
O	 1.9794440375	-0.7413683855	 1.3246459339	-0.229742
H	 1.5096970461	 1.7036508334	 0.1050279672	 0.157629
H	 0.0499939323	 2.1392384087	-0.8144808563	 0.126489
H	-0.0232814426	 1.9960254388	 0.953457356	 0.124613
H	-1.0026294803	-0.036300387	-0.1546183826	 0.088764
H	-1.1711684012	-0.5924186518	-2.0962487412	 0.078455
H	-0.0093111078	-0.4981041275	 2.0197842082	 0.099233
H	 1.2357045721	-2.6814102318	 1.8303170891	 0.118042
H	 1.5208642119	-2.3741129993	 0.0332438119	 0.140186
