13
gdb 131961	2.77215	1.60083	1.02118	1.1757	63.78	-0.3003	-0.0937	0.2067	1057.5546	0.088567	-489.798143	-489.790627	-489.789682	-489.830742	26.745	
C	-0.0354529145	 1.5325214727	 0.0039186342	-0.485396
C	-0.0142302017	 0.0418847437	 0.0493178255	 0.341278
N	-0.0337586324	-0.660827257	-1.0570505122	-0.179161
O	-0.0054725583	-2.0147609489	-0.6703224004	-0.156732
C	 0.0302674323	-2.0945310423	 0.6499480171	 0.068135
C	 0.0270598278	-0.838435297	 1.175416787	 0.131004
N	 0.0592175514	-0.5162357389	 2.571322337	 0.348513
O	 0.0926282461	-1.453062706	 3.3613790302	-0.365581
O	 0.0511072955	 0.6726172032	 2.873890438	-0.370125
H	 0.8500970619	 1.9421682789	 0.4963373119	 0.159686
H	-0.0671394554	 1.8649751611	-1.034735595	 0.152222
H	-0.9046690955	 1.9185904316	 0.5423379959	 0.159691
H	 0.0552166827	-3.0740187912	 1.0994355809	 0.196464
