16
gdb 28232	4.85083	1.19708	0.97307	2.9658	73.29	-0.1841	0.0342	0.2183	1158.6795	0.126221	-437.894615	-437.886889	-437.885944	-437.927003	28.756	
N	 0.1501979492	 1.3347098515	-0.1836675324	-0.593024
C	-0.0547821955	-0.0318721779	-0.0559309393	 0.378004
C	-1.1768717039	-0.8159115943	-0.0084087356	-0.480347
C	-0.6768232227	-2.1629470088	 0.0074629566	 0.256607
C	 0.6622461285	-2.0773645477	-0.0226765592	 0.247859
C	 1.3454562055	-3.3959810268	 0.0257155822	-0.176606
O	 0.2289136669	-4.2985127418	 0.0673734475	-0.283701
C	-1.0427311029	-3.6093086319	 0.0710767616	-0.179512
O	 1.0893325926	-0.783068241	-0.0650184561	-0.222721
H	 0.9692780564	 1.6562137616	 0.3178444553	 0.257022
H	-0.6627205093	 1.8731497938	 0.0823350114	 0.256802
H	-2.1960436929	-0.4651630724	 0.0138228738	 0.103399
H	 1.9635085538	-3.6176925426	-0.8577703326	 0.110774
H	 1.9757665347	-3.5435975254	 0.9167590988	 0.108012
H	-1.5939017926	-3.8838492246	 0.9823895718	 0.107797
H	-1.6333540978	-3.9547384718	-0.789513104	 0.109635
