17
gdb 37415	3.57525	1.83369	1.72295	1.4052	68.73	-0.247	0.071	0.3179	833.7385	0.139483	-421.77423	-421.768615	-421.767671	-421.803906	24.793	
C	 0.0015491282	 1.5967303856	-0.0705525027	-0.208202
C	 1.5292627671	 1.7953018383	-0.0082170594	 0.056295
O	 1.9287450353	 0.9765799032	-1.1576077277	-0.296487
C	 1.5686338842	-0.1239099114	-0.3034606446	 0.087662
C	 2.0698885627	 0.6544380131	 0.9365087044	-0.072933
C	 1.274729918	 0.1348052088	 2.1245540111	 0.015991
O	 0.0520010109	 0.7950999229	 2.4617371873	-0.245263
C	-0.0089660471	-0.3229800753	 1.559442754	 0.023515
C	 0.0311453324	 0.0464812816	 0.0648816527	-0.113297
H	-0.5621770486	 2.0881340077	 0.7182841245	 0.126161
H	-0.3520170234	 1.9159856232	-1.0527609111	 0.103612
H	 1.9453064934	 2.8019779599	-0.015373752	 0.084555
H	 1.9386776175	-1.0978657888	-0.6254323138	 0.083947
H	 3.1510438874	 0.6916702724	 1.0567260188	 0.081525
H	 1.7866628738	-0.3441479404	 2.9546384972	 0.101824
H	-0.5705020424	-1.1779724775	 1.9235499951	 0.099494
H	-0.6795217794	-0.4987970334	-0.5540466738	 0.071602
