18
gdb 51118	3.73711	1.07902	0.99867	1.0762	75.96	-0.2137	-0.0265	0.1872	1222.4484	0.14647	-401.865611	-401.857479	-401.856534	-401.899395	30.809	
O	-0.5178667852	 0.6881221163	 0.9026190314	-0.237662
C	 0.0970935642	 0.912796562	-0.107057942	 0.16568
C	 1.3163124042	 1.8145954735	-0.1805430234	-0.407954
C	 1.1998376824	 2.8505034669	-1.2648887182	 0.329704
N	 1.8476047447	 4.1805695784	-1.1627275139	-0.383016
C	 0.3771701225	 4.0733514683	-1.3784643615	-0.117604
C	 0.1114277594	 3.7942729278	-2.8858745539	-0.051932
C	 1.384333388	 3.6782581026	-3.6803567085	-0.291347
C	 0.9703700075	 2.5407023152	-2.7829913845	-0.10745
H	-0.2061372759	 0.4536586691	-1.0749290021	 0.082237
H	 1.4475674685	 2.2797449134	 0.8014465973	 0.121125
H	 2.195886248	 1.1804119499	-0.3731647699	 0.130604
H	 1.9884273566	 4.3735400163	-0.1712293783	 0.228497
H	-0.3207424685	 4.5186994402	-0.6810902243	 0.101733
H	-0.8640807396	 3.9022667257	-3.3408359295	 0.093678
H	 1.2334845595	 3.4840550616	-4.7378957019	 0.108717
H	 2.2447042853	 4.2878429682	-3.4381564579	 0.145091
H	 0.7564486183	 1.5477117146	-3.157388439	 0.089901
