22
gdb 109893	2.79507	1.30451	1.03149	1.9695	83.06	-0.2115	0.0736	0.2851	1253.5233	0.193575	-404.30307	-404.293916	-404.292972	-404.336997	34.573	
C	-0.1013482578	 1.5371984762	-0.0968636187	-0.383435
C	 0.041736135	 0.0167984696	-0.1334566196	-0.126628
N	 0.7135577496	-0.5000602385	 1.0456789956	-0.097009
C	 2.1870315494	-0.2744731232	 1.1762942938	 0.036584
C	 2.6249277121	 0.7431412271	 2.2146745592	-0.399679
C	 2.3696416033	-1.777113456	 1.5018862897	 0.082424
O	 2.1089812094	-2.1325802298	 2.8742573478	-0.295335
C	 0.7304194737	-2.4819348836	 2.5748372883	-0.07756
C	 0.8825669387	-1.9679279045	 1.134735998	-0.041109
H	 0.8762191876	 2.0295599226	-0.1106996794	 0.120334
H	-0.6607544901	 1.8903481019	-0.9687240726	 0.111731
H	-0.6266094227	 1.8515138458	 0.8095439491	 0.12503
H	-0.9538475886	-0.4425989777	-0.1730970584	 0.098934
H	 0.5611536316	-0.2776179202	-1.0685667634	 0.070278
H	 2.6430365382	-0.057166442	 0.1949382876	 0.05865
H	 2.2594139416	 0.4473923191	 3.2005360304	 0.135207
H	 3.718283791	 0.8048703969	 2.2534911262	 0.111073
H	 2.2371813813	 1.7387217354	 1.9805785415	 0.115827
H	 3.2300833113	-2.3065552149	 1.0874656943	 0.07757
H	 0.5728538981	-3.5643149805	 2.670380403	 0.095727
H	 0.0139152573	-1.9358311562	 3.1965671531	 0.107635
H	 0.4976510402	-2.5578083273	 0.3001032245	 0.07375
