16
gdb 32329	3.27339	1.22454	0.90631	4.0658	66.87	-0.2132	0.0215	0.2348	1218.0988	0.124015	-475.066988	-475.058186	-475.057242	-475.100927	31.162	
C	-0.0009109926	 1.4469887914	 0.032933799	-0.351572
N	 0.0283557277	 0.0003961708	 0.0628766241	-0.189236
C	-0.0563920318	-0.7647262251	-1.0856792747	 0.483063
O	-0.1628938192	-0.4049395222	-2.2284935984	-0.413215
O	 0.0016147236	-2.0775444803	-0.6741503281	-0.211484
C	 0.1230614948	-2.0950321369	 0.7004919702	-0.125436
C	 0.1405460959	-0.841663777	 1.1755292085	 0.22143
C	 0.24318671	-0.3579715564	 2.5885990587	-0.165823
O	 0.0719534946	-1.4099058743	 3.5155590389	-0.398753
H	 0.9080398887	 1.8727482417	 0.4703422907	 0.138405
H	-0.064193145	 1.7396548549	-1.0162294312	 0.178312
H	-0.8717037866	 1.84236195	 0.5666903469	 0.137358
H	 0.2018703278	-3.0547520197	 1.1770767856	 0.160872
H	 1.2396303004	 0.0562035936	 2.7865449352	 0.139172
H	-0.4741039611	 0.462386169	 2.7568888074	 0.107437
H	-0.8132220072	-1.7687300697	 3.387432487	 0.28947
