18
gdb 75930	2.60104	1.61892	1.1598	2.0897	71.85	-0.2337	-0.0323	0.2014	1068.1341	0.147879	-439.08269	-439.074529	-439.073585	-439.115298	31.783	
O	 0.4176173333	 0.9300061638	-0.7671940694	-0.437242
C	 0.0835186578	-0.2584789824	-0.112743558	-0.013706
C	 0.4090996044	-0.2092917017	 1.3815967255	 0.355039
O	 1.2242715933	 0.5365088532	 1.8628454334	-0.324343
C	-0.577114896	-1.1367788217	 2.0938349742	-0.283716
N	-1.5239510113	-1.5831999765	 1.0561437037	-0.348979
C	-1.3935501434	-0.6334758129	-0.0448115318	 0.301323
C	-2.4587223109	 0.4106213416	-0.2422489048	-0.284762
C	-2.2989055172	-0.7321012752	-1.2256631734	-0.347683
H	 1.0087558274	 1.4079014893	-0.1651397846	 0.293808
H	 0.6380025424	-1.1145361745	-0.5454378113	 0.087172
H	-0.0674591718	-1.9715741355	 2.5837787979	 0.13603
H	-1.0852055703	-0.561711525	 2.8784260947	 0.145821
H	-1.2605746679	-2.5081380141	 0.7295131383	 0.225517
H	-3.3100421292	 0.3804168909	 0.4273019571	 0.118517
H	-2.1319681393	 1.3941278615	-0.5580207947	 0.131621
H	-1.882991049	-0.5104867998	-2.2025488275	 0.12736
H	-3.0497233721	-1.5148061109	-1.2114314293	 0.118223
