19
gdb 63328	2.51995	1.42266	1.13809	0.9405	77.84	-0.254	-0.005	0.249	1142.2877	0.159717	-419.280885	-419.271993	-419.271049	-419.314996	33.809	
C	-0.092538135	 1.5647984657	 0.0314206136	-0.423501
C	 0.0103500422	 0.0334803583	-0.0067166597	 0.221274
C	-1.3954585254	-0.5969626294	 0.0003365356	-0.420118
C	 0.8546790813	-0.4824482047	-1.2000443439	-0.391723
C	 1.9102635071	-1.4100077506	-0.6100758382	 0.405537
O	 2.7160675316	-2.0963772271	-1.1870240756	-0.352123
N	 1.7919560039	-1.3118096552	 0.7698950381	-0.368988
C	 0.7749954367	-0.4769568667	 1.2230521024	 0.366339
N	 0.4676836448	-0.1694079985	 2.4146808224	-0.530814
H	 0.8985024406	 2.0297896566	 0.0172713233	 0.115319
H	-0.6529019669	 1.9308628597	-0.8351360216	 0.113753
H	-0.6018446287	 1.8865097352	 0.9426011182	 0.144804
H	-1.9677061748	-0.2557909767	-0.8686102505	 0.116281
H	-1.3423514089	-1.6902243708	-0.0369972551	 0.117033
H	-1.9318759502	-0.3141227749	 0.909184163	 0.142454
H	 0.269225159	-1.0247906087	-1.9465621126	 0.137193
H	 1.3712019269	 0.3264575675	-1.7267017326	 0.138213
H	 2.4156031726	-1.8198355036	 1.380836678	 0.258597
H	 1.0773831931	-0.6148901861	 3.1019506052	 0.210472
