17
gdb 67685	2.23188	2.20229	1.66894	2.7716	71.91	-0.2324	-0.0276	0.2048	888.4302	0.138596	-417.936872	-417.930024	-417.92908	-417.967616	28.285	
O	-0.202645799	 1.451557055	-0.1046519483	-0.468035
C	-0.0341945326	 0.0858495782	 0.0473646725	 0.333087
C	-1.0871114418	-0.9354565716	-0.0908575128	-0.1264
C	-0.7713008338	-1.7276991216	-1.4135809726	-0.181791
N	 0.4904662752	-1.1194608088	-2.0054499845	-0.330538
C	 1.0151868341	-0.7484715974	-0.7215863058	 0.073283
N	 1.7028484234	-1.5762145491	-0.0407007837	-0.164022
C	 1.1599056068	-1.5557466554	 1.3368006395	-0.188214
C	-0.1748983115	-0.8171766518	 1.2142737517	-0.146763
H	 0.5208645061	 1.9000907995	 0.3481573417	 0.289024
H	-2.1259551844	-0.6972801235	 0.1149089305	 0.101939
H	-0.575510082	-2.7880508448	-1.2423685516	 0.134391
H	-1.5978242206	-1.6229038003	-2.1221189133	 0.114846
H	 0.2019705784	-0.2770730115	-2.5018965377	 0.231637
H	 1.0623620399	-2.6027840336	 1.6455805359	 0.123504
H	 1.8267057399	-1.0691956443	 2.063006901	 0.110027
H	-0.723811898	-0.5235063191	 2.1037917274	 0.094025
