15
gdb 60997	3.41241	1.09733	0.93615	6.2641	67.48	-0.2748	-0.051	0.2237	1208.5948	0.111014	-453.922559	-453.913767	-453.912823	-453.956837	31.005	
O	-0.5535087918	 1.1514420241	-0.0285737006	-0.40382
C	-0.0892045724	-0.1568541713	-0.0913690086	 0.026437
C	 0.9647711551	-0.3040553946	-1.1829106109	 0.144277
O	 1.3884770559	 0.6505955252	-1.7819335285	-0.243198
C	 0.529482842	-0.6438321719	 1.2220475957	-0.05121
N	 1.4195665232	 0.2862627762	 1.9064018653	-0.305347
C	 0.1565581619	-0.0983419663	 2.5639641683	-0.190694
C	-0.8330416514	 0.9268669106	 2.8036958777	 0.350725
N	-1.6430125844	 1.6944636966	 3.1030832788	-0.335125
H	 0.1037043959	 1.6976718854	-0.4864008033	 0.304588
H	-0.9240713078	-0.834250734	-0.335512098	 0.114001
H	 1.3359264198	-1.3319051943	-1.3776556058	 0.097649
H	 0.7882943028	-1.7032240543	 1.2201353726	 0.104041
H	 2.202171662	-0.189199029	 2.3468006678	 0.250646
H	 0.2128755992	-0.8101124727	 3.3850915097	 0.137029
