11
gdb 21475	8.42396	1.27507	1.10999	2.4168	54.95	-0.2813	-0.0419	0.2394	965.2928	0.07293	-430.70484	-430.698338	-430.697394	-430.736682	22.031	
N	-0.1548660207	 1.2844658072	 0.1224906465	-0.409967
C	-0.0304156527	 0.0474974892	-0.0405376034	 0.11489
O	-1.1694293423	-0.7245717195	 0.0509255667	-0.202561
C	-1.036536594	-2.0545800876	 0.0474123154	 0.486789
N	 0.0992197736	-2.6988102817	 0.1677522231	-0.222834
O	-0.3095787322	-4.0404619879	 0.1057727617	-0.154086
C	-1.6344037678	-4.0195121306	-0.0318541313	 0.123449
N	-2.1556155324	-2.8355298984	-0.0765017267	-0.315133
H	 0.74560049	 1.7455527854	 0.005198119	 0.246885
H	 0.8658375742	-0.5328607897	-0.2654993389	 0.153979
H	-2.1392048857	-4.9724402364	-0.0930421721	 0.178589
