12
gdb 129288	3.11846	1.54862	1.15265	1.0885	67.52	-0.2802	-0.127	0.1532	984.2981	0.076792	-468.754242	-468.74704	-468.746096	-468.786601	26.141	
N	 0.1694351004	 0.8822881937	-0.7743651745	-0.444497
C	-0.0717294069	 0.0389330671	 0.1240120612	 0.406166
O	 0.8326901934	-0.141980727	 1.1995146126	-0.250837
N	 1.5137209372	-1.3284739512	 1.368329717	-0.043402
C	 1.0458840867	-2.4412341895	 0.9337916867	-0.050236
C	-0.2915229958	-2.8548425692	 0.4243555234	 0.315354
O	-0.5049316612	-4.0209923693	 0.1672612236	-0.290701
C	-1.4105319719	-1.8598076158	 0.3596972712	-0.051023
N	-1.3014531766	-0.6050560934	 0.2117207785	-0.169054
H	 1.1156003382	 1.2509969483	-0.6768447367	 0.254455
H	 1.719439856	-3.2802278896	 1.0950156965	 0.162649
H	-2.4070724895	-2.3016400341	 0.3943236904	 0.161128
