16
gdb 29380	5.86504	0.91541	0.79664	2.468	77.62	-0.1821	0.0376	0.2197	1373.5618	0.124905	-396.935699	-396.926972	-396.926028	-396.969818	32.44	
N	-0.7846042148	 1.087598831	 1.0054957442	-0.598217
C	-0.2454869617	 0.0069625303	 0.3011620089	 0.282671
C	-0.7539775124	-0.6674823493	-0.7846229083	-0.194949
N	 0.1547589653	-1.6898764177	-1.0180608845	-0.271724
C	 1.1340671072	-1.5875877162	-0.0918537923	 0.38005
C	 2.3055026296	-2.5291820328	-0.0112258841	-0.477199
C	 2.3188744145	-3.5280417988	-1.0744976351	 0.289864
C	 2.3046215937	-4.342375627	-1.9586747329	-0.436958
N	 0.9272101197	-0.5702529122	 0.7226252215	-0.365129
H	-0.0681574705	 1.5453582456	 1.5542892251	 0.246879
H	-1.255197534	 1.7598150175	 0.4147512452	 0.239559
H	-1.6368985806	-0.534544882	-1.3850509652	 0.114329
H	 0.1166720633	-2.38708717	-1.7432719442	 0.266031
H	 3.2343260823	-1.9453803273	-0.036369556	 0.160435
H	 2.2974181553	-3.0296253887	 0.9659068372	 0.161236
H	 2.3177866329	-5.0722394224	-2.7301366193	 0.203122
