18
gdb 66473	3.6112	1.5708	1.45264	0.3192	74.09	-0.2395	0.0672	0.3067	976.0464	0.14712	-401.86732	-401.859844	-401.8589	-401.898759	29.905	
C	 0.0023104053	 1.4457561936	 0.0249640274	-0.523327
C	-0.0779645671	-0.0441874069	-0.0472119838	 0.353689
C	 0.502555026	-0.9269802783	-1.0937049784	-0.170295
N	 1.0683164759	-0.9589555344	 0.3028120779	-0.222539
C	-0.0025352569	-2.0184119048	 0.5867700702	-0.094323
C	-1.1747358506	-1.0170852316	 0.4776416956	 0.004702
O	-1.7427745338	-1.6945064423	-0.6629081763	-0.325483
C	-0.3951199114	-2.1832736632	-0.9130952344	 0.438841
C	-0.2973971971	-3.3859398813	-1.7981946851	-0.520831
H	 0.9604908892	 1.7979959185	-0.3685629019	 0.134311
H	-0.8002810072	 1.9052811494	-0.5625356405	 0.129434
H	-0.0855456724	 1.7984112486	 1.0580389706	 0.126939
H	 1.0813961326	-0.592264815	-1.9464591137	 0.093986
H	 0.1517076919	-2.8006112366	 1.3271229821	 0.087534
H	-1.8926531109	-0.717796919	 1.2388492888	 0.085861
H	-0.6516864546	-3.1457873058	-2.8065060894	 0.134868
H	 0.74174176	-3.7207360607	-1.8704231978	 0.13351
H	-0.905699729	-4.2056286503	-1.4064283914	 0.133124
