18
gdb 32686	3.41014	1.27376	0.9907	1.9755	79.77	-0.2038	0.0421	0.2459	1185.8443	0.149682	-401.942789	-401.934803	-401.933858	-401.976061	30.065	
O	 0.0180600447	 1.4454267719	 0.214169788	-0.416022
C	-0.0133333852	 0.1109429071	-0.2537417273	-0.068028
C	-1.3952210256	-0.5163261974	-0.0722592171	-0.182312
C	-1.4526976305	-2.0941237451	-0.1587198498	-0.205384
N	-1.8080678736	-2.0744445367	 1.2693873728	 0.021019
C	-2.2429533293	-2.6700049359	 2.4194120603	-0.158047
C	-2.5267193488	-1.6252375022	 3.2871836621	-0.12558
C	-2.2838429941	-0.3747527998	 2.6305506027	-0.349228
C	-1.8366979404	-0.7177510009	 1.3733002266	 0.338015
H	-0.1636540011	 1.4152403187	 1.1606415538	 0.288284
H	 0.2513504972	 0.1529303069	-1.3160558979	 0.108625
H	 0.7394397122	-0.5131033615	 0.2543851164	 0.089011
H	-2.1235751443	-0.0104797525	-0.7127643291	 0.098579
H	-2.2400658768	-2.493868586	-0.8035014156	 0.128511
H	-0.5042836939	-2.5948224557	-0.3775626549	 0.122299
H	-2.3011324268	-3.738038885	 2.5501187549	 0.119281
H	-2.86905144	-1.7446166554	 4.3046781172	 0.094435
H	-2.4413064835	 0.6087047694	 3.0448696967	 0.096542
