19
gdb 30819	2.2062	1.3854	0.89632	0.7391	81.66	-0.163	0.05	0.213	1321.9763	0.159466	-419.237447	-419.227725	-419.226781	-419.272089	35.887	
C	-0.3559184271	 1.5528192488	-0.2081999555	-0.363109
C	 0.1013141855	 0.0950091459	-0.0166536991	-0.303206
C	 0.9123307944	-0.437879828	-1.1425750373	 0.294504
C	 2.1792338043	-0.9208814215	-1.2722190078	 0.142903
N	 3.1446810053	-1.1189274017	-0.2691321558	-0.611122
C	 2.3521648661	-1.3043270967	-2.6514207795	-0.331414
C	 1.1676988764	-1.0207244933	-3.2604958703	 0.372859
N	 0.7347919076	-1.0848250056	-4.5793171419	-0.596669
O	 0.2810934935	-0.5064495013	-2.3866739894	-0.224064
H	 0.5040228193	 2.2242899687	-0.2944831005	 0.113332
H	-0.9477746303	 1.6513984856	-1.1224865772	 0.128023
H	-0.9713489482	 1.885750415	 0.6339904803	 0.104319
H	 0.6973249748	 0.0118075123	 0.9001899499	 0.096882
H	-0.7840635526	-0.5362394778	 0.1494254321	 0.107336
H	 2.9564540584	-0.574532434	 0.5632128661	 0.237111
H	 4.0784858463	-0.8990420458	-0.5937984828	 0.24037
H	 3.2296297218	-1.7400428876	-3.1023325258	 0.086651
H	 1.2387932635	-1.773467781	-5.120946557	 0.252682
H	-0.2632232589	-1.2417385822	-4.6461893987	 0.252611
