16
gdb 65495	3.05373	1.21529	1.02016	1.594	69.27	-0.2773	0.0034	0.2807	1159.4252	0.122606	-437.85749	-437.849138	-437.848194	-437.890635	31.435	
O	 0.3077894367	 1.4074424956	-0.476203161	-0.454387
C	-0.0190234096	 0.1419270952	 0.0402160147	 0.26783
C	 0.1020325334	-0.0685479941	 1.5946144212	-0.383259
C	-1.3287895756	-0.6086898574	 1.5695742495	 0.482171
C	-1.8662005631	-1.8192457786	 2.1888097193	-0.262517
O	-2.2462434565	-0.5045531522	 2.6322055114	-0.264792
C	-1.5604714051	-0.0634797887	 0.1598189654	-0.362931
C	 0.6484598761	-0.9277351968	-0.7161309195	 0.228812
N	 1.2034795324	-1.7544429311	-1.3036140318	-0.333318
H	 1.2677543947	 1.4952130565	-0.5063967035	 0.29541
H	 0.8993920066	-0.7165558207	 1.9616245237	 0.127314
H	 0.1543979943	 0.9096508305	 2.0802259082	 0.133833
H	-2.6482399907	-2.3841405521	 1.6839279152	 0.125514
H	-1.2542304052	-2.3872255543	 2.8877157573	 0.124714
H	-2.0405602421	 0.9183318108	 0.1784375447	 0.142584
H	-2.0433168062	-0.7022165026	-0.580138045	 0.13302
