13
gdb 48376	2.62974	1.26283	0.99375	4.8027	71.74	-0.2731	-0.0558	0.2172	1152.8019	0.086621	-415.555015	-415.546377	-415.545433	-415.588698	30.568	
O	-0.3211868552	 0.3809438255	 0.7500447554	-0.229887
C	 0.2760864153	 0.8274218757	-0.1879445807	 0.146847
C	 1.3728852799	 1.8645464575	-0.0703180649	-0.0114
N	 2.3397354989	 1.798542774	-1.1911051199	-0.32912
C	 1.4476094088	 2.9487102576	-1.140910007	-0.223273
C	 0.45619138	 3.0677914069	-2.1850659435	 0.33908
N	-0.3456629301	 3.1928412821	-3.0078711939	-0.316544
C	 1.8244869503	 2.2147281018	 1.2457344013	 0.257091
C	 2.2285909752	 2.4962556382	 2.3413973255	-0.39046
H	 0.0902050531	 0.5148527717	-1.2351310091	 0.117933
H	 3.2675724595	 2.0549989103	-0.8618761179	 0.266375
H	 1.8309973162	 3.9005759627	-0.7843780513	 0.158099
H	 2.5714901781	 2.7387811759	 3.3175364061	 0.21526
