23
gdb 122552	4.89999	0.7113	0.68314	0.9152	86.89	-0.2411	0.0875	0.3286	1772.5757	0.205287	-388.258873	-388.24929	-388.248346	-388.29424	35.522	
C	-0.253940548	 1.4239618368	 0.0742263219	-0.382314
C	 0.2329153371	-0.0212784944	-0.0547794497	-0.18139
C	 0.6973433703	-0.6013562867	 1.2741946147	-0.037803
O	 1.1284593173	-1.9314239981	 1.0646761419	-0.25854
C	 1.5942003619	-2.5653581007	 2.2282740516	 0.146418
C	 0.545866954	-3.0774257379	 3.2852630046	-0.270876
C	 1.0870610287	-4.4950132498	 3.0730964507	-0.042857
C	 0.9253955077	-4.8853683398	 1.6338845977	-0.267195
C	 2.0753193324	-3.992510545	 2.0118851031	-0.080273
H	 0.538611933	 2.0810485811	 0.4493831348	 0.115428
H	-0.5792049867	 1.8171781912	-0.8932469873	 0.116476
H	-1.1011580982	 1.5004681967	 0.7648107987	 0.115349
H	-0.5663979026	-0.6580542246	-0.451064041	 0.105165
H	 1.0621176941	-0.0818964521	-0.7689455563	 0.106188
H	 1.521688103	 0.0049760437	 1.6899107832	 0.08037
H	-0.1235924419	-0.5711216874	 2.0106172513	 0.085302
H	 2.3602576231	-1.9443386533	 2.7162212223	 0.063841
H	 0.7239205677	-2.6725254705	 4.2839236432	 0.099406
H	-0.5065294872	-2.929828776	 3.021154215	 0.096759
H	 1.2592663888	-5.2244980039	 3.854290103	 0.084648
H	 1.2053763972	-5.9047814209	 1.3887654869	 0.108213
H	 0.1020277262	-4.4906250144	 1.0452310838	 0.115692
H	 3.1044860121	-4.2803005541	 1.8359657459	 0.081994
