15
gdb 125580	3.13295	1.46084	1.00246	1.7125	74.9	-0.2156	-0.048	0.1677	1123.7764	0.114222	-450.151288	-450.143441	-450.142497	-450.183692	29.677	
C	-0.2302505187	 1.4789067638	 0.0214193556	-0.453559
C	 0.0005720839	-0.000336571	-0.0185454326	 0.369123
N	 0.062808675	-0.5888454968	-1.1715102603	-0.243347
N	 0.2742398035	-1.93159252	-1.1364084854	-0.313902
C	 0.4295018574	-2.7335845948	-0.0175986057	 0.317888
N	 0.6291649041	-3.9968643394	 0.0272248306	-0.538615
C	 0.3321553769	-1.9109655651	 1.2041100962	 0.420954
O	 0.4654722893	-2.5709959677	 2.3493174342	-0.365614
N	 0.1323080737	-0.6375622199	 1.2037026767	-0.385355
H	 0.5965323476	 1.9795450488	 0.536406661	 0.137929
H	-0.3199353885	 1.8755068914	-0.9902263704	 0.139851
H	-1.1418917087	 1.7069670094	 0.5838082565	 0.137924
H	 0.3179881565	-2.3609966697	-2.0482454011	 0.265195
H	 0.6686526957	-4.4034770967	-0.9099066976	 0.205357
H	 0.3802234323	-1.9108331522	 3.0545414723	 0.306172
