16
gdb 5262	7.15847	1.12975	0.98787	2.3765	67.24	-0.2162	0.0373	0.2534	1155.4195	0.131692	-379.945427	-379.937601	-379.936657	-379.978669	27.42	
C	-0.0484912567	 1.3989520296	 0.0103127527	-0.220593
O	 0.0115006767	-0.0057205272	 0.0022484968	-0.234244
C	-1.2648915938	-0.6071294464	 0.0107326127	-0.163205
C	-1.0980111024	-2.0917195361	 0.002027331	 0.256397
C	 0.0663629803	-2.8120216209	-0.009450941	-0.165293
N	-0.3290094495	-4.1339030396	-0.0126374909	-0.23534
C	-1.6905701345	-4.1487591805	-0.0043793139	 0.008888
N	-2.1882456203	-2.9337127864	 0.0049266953	-0.314205
H	 0.9788986161	 1.7713354407	 0.0027664104	 0.124264
H	-0.5753638096	 1.7914252882	-0.8742098423	 0.104539
H	-0.5588246091	 1.7819165387	 0.908596516	 0.104526
H	-1.8380897067	-0.2943150878	 0.9009271485	 0.101644
H	-1.8539773861	-0.2859017578	-0.8659626899	 0.101701
H	 1.0997533216	-2.5142116721	-0.0149978275	 0.138642
H	 0.278838591	-4.9351615499	-0.0203421986	 0.265309
H	-2.2585386971	-5.0671365423	-0.0051969992	 0.126969
