18
gdb 85273	2.55225	1.52207	1.15203	3.0946	71.88	-0.2381	-0.021	0.217	1091.8622	0.147634	-439.093194	-439.084824	-439.08388	-439.126039	32.28	
C	-0.0263923457	 1.528958153	 0.0165535644	-0.498243
C	 0.1381603826	 0.0348839119	-0.0326557739	 0.291362
N	-0.7406658603	-0.8519690218	 0.7457626405	-0.380572
C	 0.7236131355	-0.7901419225	 1.0635059618	-0.217516
C	 1.4799605231	-1.9264705015	 0.4373191979	 0.446096
O	 2.3664705034	-2.5547749934	 0.9572891107	-0.322311
C	 0.9923667624	-2.045140773	-1.0087056424	-0.376989
C	 0.436276175	-0.646048005	-1.3768111285	 0.104552
O	-0.6986464882	-0.6616847592	-2.2174595827	-0.439853
H	 0.8891582459	 2.0351278434	-0.3066107925	 0.133503
H	-0.8345858737	 1.8399926117	-0.6535505472	 0.143621
H	-0.2639778635	 1.8726187681	 1.0285939955	 0.117056
H	-1.2292123747	-0.3060477872	 1.4534985842	 0.23912
H	 1.0461497775	-0.3811903809	 2.0141995814	 0.106889
H	 1.7921811103	-2.3933514223	-1.663700958	 0.12982
H	 0.1838227579	-2.7832565009	-1.04568559	 0.138583
H	 1.1950779988	-0.0693704744	-1.9161312525	 0.096904
H	-1.4053633364	-1.070528806	-1.7009278088	 0.28798
