22
gdb 91929	2.0998	1.71483	1.4958	1.5235	80.65	-0.2207	0.0689	0.2896	1058.9979	0.194432	-404.332902	-404.32395	-404.323006	-404.365511	35.867	
C	 0.0599154793	 1.5617200672	-0.0015334351	-0.424625
C	 0.0593249738	 0.0278053932	 0.01349771	 0.281352
C	-1.3910470102	-0.4930177787	-0.0330464629	-0.432805
C	 0.8309166187	-0.5821633551	-1.1602588026	-0.037531
C	 2.3151598081	-0.5890791322	-1.1314024756	-0.270021
N	 1.5609480062	-1.7969111996	-0.7431120956	-0.107836
C	 1.3587661436	-1.9147928256	 0.7116392476	-0.185567
C	 0.7785807512	-0.5850946259	 1.2513473159	 0.04438
O	 1.7881535043	 0.3137100288	 1.7108939305	-0.42812
H	 1.0735645757	 1.9620463301	 0.0330483784	 0.131824
H	-0.427304233	 1.9272391541	-0.9120141588	 0.105049
H	-0.4903239482	 1.9642901762	 0.8553104151	 0.110436
H	-1.8848763153	-0.1701310715	-0.9555659364	 0.115745
H	-1.4328948397	-1.5866867329	-0.0031565864	 0.120196
H	-1.9730051691	-0.1067482386	 0.8103609436	 0.112279
H	 0.3130982177	-0.6376041934	-2.1154439507	 0.079264
H	 2.8642623242	-0.6927413818	-2.0633361281	 0.108008
H	 2.81622016	-0.0197080906	-0.3558238953	 0.131396
H	 0.6507307122	-2.7337406479	 0.8828576159	 0.106253
H	 2.2965495895	-2.1806924085	 1.2131729385	 0.093291
H	 0.0580506145	-0.7663822577	 2.0615983998	 0.0641
H	 2.2462871266	-0.1103896995	 2.4430924622	 0.282931
