19
gdb 60314	2.39901	1.10779	0.84479	2.4165	78.34	-0.2501	-0.0637	0.1864	1403.4426	0.154454	-422.998126	-422.987527	-422.986583	-423.034993	37.281	
C	-0.2718200186	 0.2933161177	-0.6275106339	-0.387232
C	 0.5989494504	-0.0679010883	 0.5770592978	 0.139824
C	 2.0225356636	 0.4570631316	 0.4413530526	-0.389456
O	 0.0703693246	 0.506423288	 1.7818788731	-0.245236
C	-0.9954260155	-0.1924875036	 2.3595090061	-0.18669
C	-0.5960807185	-1.4358718822	 3.1652698909	 0.202481
O	-1.4037102243	-2.2981960754	 3.4313833047	-0.27361
C	 0.7778904638	-1.5015364909	 3.6344730126	 0.308389
C	 1.9038727324	-1.5910721191	 4.0514087859	-0.453755
H	-0.3049658607	 1.3797989136	-0.7553060889	 0.125166
H	 0.1364973135	-0.1522369931	-1.5400566247	 0.118161
H	-1.2974733968	-0.0696563346	-0.513268496	 0.118595
H	 0.6304122579	-1.1633490984	 0.6872171474	 0.075241
H	 2.0164169815	 1.5498855862	 0.3783589702	 0.125027
H	 2.6200573701	 0.1658634376	 1.3082912307	 0.126074
H	 2.4945755267	 0.0612650157	-0.4626770931	 0.113839
H	-1.4807578645	 0.4924236142	 3.0672730746	 0.141632
H	-1.7630465927	-0.5074239772	 1.6397633594	 0.122921
H	 2.8961178871	-1.6718418219	 4.4243971206	 0.218629
