19
gdb 73559	2.78106	1.62763	1.31521	2.8149	76.71	-0.238	0.0039	0.2419	1026.6529	0.160644	-423.032464	-423.024513	-423.023569	-423.064804	30.987	
O	-0.1300074531	 1.4572129977	 0.0388659703	-0.483728
C	-0.0274229978	 0.0285472366	 0.0551842434	 0.344997
C	 0.8820955964	-0.5019551737	 1.1825745136	-0.296479
C	 2.2552489965	-0.7558858206	 0.4911686356	-0.262255
C	 1.8835874647	-0.9051222356	-0.9744842395	-0.242037
C	 0.638978392	-0.4952556748	-1.1989323281	 0.264384
C	-0.4031520541	-0.5535589806	-2.2699891478	-0.176215
O	-1.6543572169	-0.4835199858	-1.571229087	-0.275949
C	-1.4432567515	-0.5053015994	-0.1539894463	-0.105705
H	 0.7399817342	 1.8111850776	-0.1759741219	 0.27493
H	 0.9346463046	 0.2038878941	 2.0145071924	 0.107192
H	 0.4926184755	-1.4486046554	 1.5698586355	 0.106922
H	 2.9636012387	 0.0689860854	 0.6512184195	 0.10688
H	 2.7505744835	-1.6532976053	 0.8779611131	 0.111135
H	 2.5643063403	-1.3228537213	-1.7089835877	 0.098837
H	-0.3524611633	 0.2916814375	-2.9693155512	 0.115568
H	-0.3457274036	-1.479941575	-2.8577844244	 0.109359
H	-1.5323608939	-1.5297407854	 0.2373370961	 0.085882
H	-2.2073564123	 0.126528644	 0.3058438343	 0.116282
