19
gdb 7565	3.17442	1.61568	1.52006	3.3883	70.98	-0.2381	0.034	0.2721	955.6011	0.164935	-365.093815	-365.084934	-365.08399	-365.127581	32.767	
C	-0.1083146263	 1.5658389234	 0.1409752074	-0.445046
C	-0.0247801816	 0.0376777671	 0.0349566629	 0.249723
C	 1.09096412	-0.4474457301	-0.9538215294	-0.274128
C	 2.0092212901	-0.7282747614	 0.2666522669	-0.214516
C	 0.7742960151	-0.6110158871	 1.2003483635	-0.251931
C	-1.4212821332	-0.5422448759	-0.1723682739	 0.329042
N	-1.9341247195	-0.3704490579	-1.4300520232	-0.522382
O	-2.050861538	-1.0876220333	 0.7137963394	-0.364569
H	 0.8844125059	 1.9940742883	 0.315328553	 0.117003
H	-0.5124820979	 2.0120498618	-0.7738030881	 0.110635
H	-0.7545291136	 1.8592228833	 0.9746723512	 0.132926
H	 0.8091203831	-1.3634456907	-1.4811725722	 0.10316
H	 1.4442464429	 0.2829545849	-1.6882778568	 0.091981
H	 2.5403556472	-1.6823257179	 0.268465736	 0.101455
H	 2.7396807641	 0.0682694946	 0.4291540468	 0.10319
H	 0.8865215714	-0.0066456604	 2.1037171831	 0.096327
H	 0.348260352	-1.5754736279	 1.4814228349	 0.1212
H	-1.3634531346	-0.0566956416	-2.1954833234	 0.257831
H	-2.8212366371	-0.7986065791	-1.6395647681	 0.2581
