17
gdb 76844	2.46338	1.66044	1.35596	3.2162	67.09	-0.2707	-0.0029	0.2678	995.9193	0.135946	-458.972563	-458.964562	-458.963617	-459.005197	30.359	
C	-0.4943869551	 1.4230211882	-0.0004891275	-0.405824
C	-0.0610802016	-0.0346396198	 0.0077838672	-0.04868
C	 1.1758265862	-0.4548656223	-0.8799442938	 0.121506
O	 1.852805725	 0.5223054187	-1.6135349094	-0.425218
C	 1.8921787147	-0.9778804533	 0.3866282801	 0.059024
O	 2.6703713635	 0.1028562106	 1.0003105148	-0.277132
C	 1.6364474523	 0.4054116777	 1.8806292351	 0.462386
O	 1.6523648877	 1.2177664435	 2.7447825455	-0.318861
C	 0.6773286037	-0.6067942042	 1.2742410235	-0.249791
H	 0.3343804959	 2.1020469275	 0.218702423	 0.129195
H	-0.8879439204	 1.6926989485	-0.984829342	 0.130758
H	-1.2766010198	 1.6032578558	 0.7433936196	 0.126825
H	-0.9160969253	-0.6753747491	-0.2252816715	 0.089662
H	 0.9157115926	-1.2604894362	-1.5722924044	 0.097444
H	 2.3958793769	 1.0221759856	-0.9903147138	 0.296997
H	 2.4441280237	-1.9159242114	 0.3978351074	 0.102062
H	 0.1413966298	-1.2720369598	 1.9467306862	 0.109646
