23
gdb 84803	2.88019	1.21142	0.95482	0.1352	90.37	-0.2344	0.0292	0.2637	1320.8113	0.206888	-351.157257	-351.148333	-351.147388	-351.190999	34.875	
C	-0.1912557649	 1.5171562977	-0.0439716099	-0.391128
C	 0.0075183066	-0.0036618625	 0.0907223688	-0.039403
C	 0.7213512197	-0.5726061508	-1.1175100178	-0.064294
C	 1.9813065837	-0.9122779761	-0.8507766923	-0.071337
C	 2.3339657025	-0.6707504232	 0.5966493701	-0.270031
C	 0.9463677323	-0.4538419973	 1.261638737	 0.00561
C	 0.9679286681	 0.430976054	 2.485703605	 0.028683
C	-0.0973943888	 0.3024874503	 3.5475657471	-0.275578
C	 1.3130349324	-0.1501569784	 3.8349477578	-0.281179
H	 0.7661618956	 2.0360894695	-0.1612118047	 0.113815
H	-0.798218391	 1.7476694233	-0.9259566021	 0.106916
H	-0.7011977489	 1.9304987811	 0.831446383	 0.11726
H	-0.985186941	-0.4541744965	 0.2180660343	 0.068231
H	 0.2515482426	-0.6235991595	-2.094704423	 0.085109
H	 2.6958105966	-1.2895511798	-1.5747257032	 0.087269
H	 2.8835194094	-1.5005321579	 1.0553175818	 0.099763
H	 2.9785789522	 0.2147161671	 0.701961801	 0.099931
H	 0.5896014472	-1.4439168003	 1.5741812646	 0.067581
H	 1.3331354915	 1.4394283595	 2.3084702538	 0.080097
H	-0.4586563273	 1.2027360212	 4.0325051099	 0.107948
H	-0.8560362364	-0.4619509506	 3.4131879457	 0.108469
H	 1.4994049067	-1.2178652613	 3.8933450278	 0.108341
H	 1.9152003514	 0.4413094405	 4.5157760751	 0.107926
