23
gdb 71230	2.61502	1.74322	1.59074	0.0607	87.97	-0.2585	0.0875	0.346	1012.3863	0.209089	-351.148992	-351.141612	-351.140668	-351.179977	32.053	
C	-0.0517579554	 1.5393549842	 0.0241171784	-0.480851
C	 0.022584663	 0.0226741383	-0.0001490437	 0.337459
C	 1.0772749784	-0.6492468728	-0.9379040435	-0.272646
C	 1.3003047899	-1.6811188844	 0.1784886969	-0.021269
C	 0.0376660134	-2.5645053872	 0.5419416848	-0.019071
C	-0.0469205524	-1.81667148	 1.9063074472	-0.242387
C	 0.7408946267	-0.6809267584	 1.2325157434	-0.04648
C	-1.1622921454	-2.1756065857	-0.3277337953	-0.22213
C	-1.3417004835	-0.6392098139	-0.2557032995	-0.243372
H	 0.9298248836	 1.983384344	 0.2226893658	 0.107423
H	-0.4089013419	 1.9343682529	-0.9345752982	 0.109734
H	-0.7397298504	 1.8893445097	 0.8034896947	 0.110333
H	 0.7462085493	-0.9800758471	-1.9285986335	 0.084436
H	 1.9650191664	-0.0192824049	-1.0592896693	 0.088843
H	 2.2625417465	-2.1845420496	 0.2870577615	 0.055155
H	 0.1919870296	-3.6456362969	 0.5694675875	 0.056114
H	-1.0409893122	-1.6191842669	 2.3226309478	 0.085433
H	 0.563630186	-2.2996459545	 2.6756804414	 0.092541
H	 1.3750121675	-0.0140616374	 1.8212150377	 0.051173
H	-0.992748375	-2.4961487172	-1.3617293658	 0.09686
H	-2.0670503138	-2.6904783891	 0.014528153	 0.090338
H	-2.0347970197	-0.3684624946	 0.5494914376	 0.094683
H	-1.7786436505	-0.2525101985	-1.184120899	 0.087681
