15
gdb 46267	3.09098	1.52352	1.25351	2.5723	65.88	-0.2509	-0.0385	0.2124	993.6676	0.110946	-457.706933	-457.699552	-457.698608	-457.739172	27.695	
O	-0.0904530433	 0.0289751344	-0.392234211	-0.26463
C	-0.0656401798	 1.1898987306	-0.1268760922	 0.275211
C	-1.0793818479	 2.2438486875	 0.3427266246	-0.19721
O	-0.009585238	 3.2157855955	 0.3977908803	-0.330394
C	 0.992884847	 2.2963651947	-0.075564859	 0.324962
C	 2.3308681494	 2.2546025438	 0.733707633	-0.329734
C	 3.061635909	 2.6826946312	-0.5474438504	 0.038967
O	 2.7590677281	 1.6997056726	-1.5445940243	-0.226488
C	 1.8069006341	 2.7359963003	-1.3144609461	-0.060059
H	-1.8582533555	 2.5057836559	-0.3835654617	 0.136145
H	-1.5360204088	 2.0594182855	 1.3222577855	 0.137511
H	 2.3030110532	 3.029739579	 1.503277283	 0.132852
H	 2.6325955386	 1.2959659565	 1.1605168536	 0.128576
H	 3.9834773706	 3.2394373875	-0.6618166044	 0.116534
H	 1.4806962135	 3.3452424848	-2.1490237012	 0.117756
