14
gdb 101978	1.99896	1.41911	1.18344	3.9175	63.95	-0.2899	-0.0997	0.1901	1094.6867	0.097131	-473.829238	-473.819676	-473.818732	-473.86473	32.07	
O	 0.2322691188	 1.4503778115	 0.1149111276	-0.408165
C	 0.0945857093	 0.0579489367	 0.1348548164	-0.088117
C	-1.4009270575	-0.4016749988	 0.118296152	-0.164088
C	-2.1215475072	 0.2129024557	-1.1041203459	 0.143512
O	-1.5244970356	 0.6389621677	-2.0560338188	-0.247068
C	-1.4408068336	-1.9373199176	-0.0912377604	 0.140658
O	-2.0290291002	-2.7070598071	 0.6089987185	-0.203583
C	-2.11835968	-0.0171507477	 1.3285663409	 0.300862
N	-2.7038101842	 0.3156162111	 2.2666325354	-0.311395
H	 0.0317008647	 1.7470148145	-0.7804569474	 0.306284
H	 0.5981264183	-0.4214657153	-0.7148000183	 0.118467
H	 0.5551688166	-0.302194139	 1.0582649612	 0.147903
H	-3.2266008395	 0.2103087417	-1.0447943134	 0.143684
H	-0.8524319097	-2.2583957534	-0.9758448876	 0.121045
