19
gdb 91777	2.38265	1.70564	1.24547	1.8957	75.33	-0.2328	-0.021	0.2118	1064.5003	0.159347	-423.048923	-423.040314	-423.03937	-423.081909	33.004	
C	-0.3037289981	 1.496148302	 0.0958935774	-0.48501
C	 0.1188009435	 0.0538749105	-0.0208853369	 0.219833
C	-0.6926785611	-1.0551517428	 0.6612005786	-0.319365
C	 0.713947482	-0.8014690047	 1.092899119	-0.08887
C	 1.7784122117	-1.7296775795	 0.5058713786	-0.239364
C	 1.5840124772	-1.6888698877	-1.016737551	 0.003189
O	 0.8374604209	-2.8281306486	-1.44396188	-0.427532
C	 0.7645438487	-0.4018899584	-1.285961658	 0.34155
O	 0.6906644574	 0.1353514721	-2.3668757539	-0.345723
H	 0.5507536401	 2.1715897369	-0.0162083802	 0.125073
H	-1.025206369	 1.7472172172	-0.6876550322	 0.138223
H	-0.7684814246	 1.6925369528	 1.0665238904	 0.11376
H	-1.4942020317	-0.6962144866	 1.2983610493	 0.117778
H	-0.9137876267	-1.9612831268	 0.1092159333	 0.141559
H	 0.8921299955	-0.3595794196	 2.0671287878	 0.091569
H	 2.7766564939	-1.3585493771	 0.7588121053	 0.108485
H	 1.6988158743	-2.7557792518	 0.8767550829	 0.120691
H	 2.5369386279	-1.6299143459	-1.5583975541	 0.089813
H	 0.6317461384	-2.6974457119	-2.3773948565	 0.294341
