15
gdb 7684	4.10657	1.64017	1.54095	4.3687	61.74	-0.2398	0.0077	0.2475	856.1513	0.117778	-399.786707	-399.779249	-399.778305	-399.817986	28.542	
C	 0.0317077098	 1.5559925185	 0.0697924371	-0.469388
C	 0.0740799991	 0.0465467101	 0.0540673509	 0.392214
O	-1.1103695357	-0.5565639729	-0.3932414535	-0.456713
C	 1.3067179348	-0.7797327014	-0.2240105704	-0.088402
N	 2.5207339231	-0.2127262027	 0.3604252448	-0.340383
C	 1.9576241396	-0.1565483097	 1.651667577	 0.407963
O	 2.3767432032	 0.2855866419	 2.6831489401	-0.343722
C	 0.6754652036	-0.8156134339	 1.1673618394	-0.266754
H	 0.9583458738	 1.9919891887	 0.4478119962	 0.137002
H	-0.1331184327	 1.9419201144	-0.9442470834	 0.11112
H	-0.7917285873	 1.8987539228	 0.7027645915	 0.142736
H	-1.3096224897	-0.2052053002	-1.2685625697	 0.288125
H	 1.3455893176	-1.5774145891	-0.9543109631	 0.116869
H	 3.060812699	 0.5435904687	-0.0448341111	 0.242267
H	 0.0901836615	-1.589073295	 1.6423608641	 0.127066
