18
gdb 34032	3.24395	1.31684	1.13168	2.1017	78.4	-0.2404	0.0374	0.2778	1116.8002	0.14901	-401.891972	-401.884064	-401.88312	-401.924206	31.085	
C	-0.0310930282	-1.1939721297	 0.0226748959	-0.398349
C	 0.0176343762	 0.0073332618	 0.0427236014	 0.279257
C	 0.0394425473	 1.4453869797	 0.0085463593	 0.079804
C	-1.1072535338	 2.0758742405	-0.7828357448	-0.180759
O	-0.9642491137	 3.4763971091	-0.8902056728	-0.245053
C	 0.2352702158	 3.820562008	-1.571439588	-0.079081
C	 1.4739008769	 3.5133197504	-0.7206812491	-0.249238
C	 1.3343166379	 2.2061010608	 0.0482151283	-0.048641
N	 0.4739744467	 2.1415090652	 1.2389014094	-0.35789
H	-0.0635010255	-2.2553752639	 0.0247191967	 0.192801
H	-1.1587886426	 1.6097871166	-1.7794028984	 0.106101
H	-2.0575813183	 1.8951950152	-0.270913278	 0.124888
H	 0.2831885811	 3.2685001482	-2.5234026435	 0.097648
H	 0.1666897159	 4.8867271528	-1.8024877667	 0.113225
H	 2.355491616	 3.4681920706	-1.3692558177	 0.110763
H	 1.653326383	 4.3258372382	-0.0056452309	 0.116444
H	 2.2451516145	 1.6236860442	 0.1576892241	 0.103429
H	-0.0595906391	 3.0093757821	 1.3002986948	 0.23465
