19
gdb 103109	2.19869	1.28685	1.22471	3.8722	77.41	-0.2258	0.0226	0.2484	1176.2017	0.157424	-419.192651	-419.182533	-419.181589	-419.227484	36.625	
C	 0.2395271104	 1.3808543992	 0.2414713872	-0.330646
N	-0.1655573276	 0.0506521716	-0.220586768	-0.331424
C	 0.6402935608	-0.486082327	-1.2797982643	 0.303516
C	 0.4400632531	 0.1869001995	-2.6225824969	-0.442659
C	 1.9986371109	-1.0768889211	-0.9809668505	 0.050424
O	 2.4172038096	-1.0080267065	 0.3390408472	-0.409539
C	 0.8172196006	-2.0088776186	-1.3225018034	-0.322495
C	 0.2993015526	-2.8302823316	-0.2715371844	 0.302138
N	-0.0944870647	-3.4873430253	 0.5970449524	-0.351195
H	 1.2950498385	 1.4435160629	 0.5436559454	 0.121361
H	 0.0579267322	 2.124531234	-0.5406511325	 0.121968
H	-0.3836860415	 1.6527544776	 1.0973794958	 0.12479
H	-0.171464808	-0.5861340746	 0.5676232636	 0.242953
H	 0.7341716329	 1.2398553676	-2.5799699785	 0.130948
H	 1.0429094141	-0.2908737265	-3.3999964658	 0.11668
H	-0.6130599343	 0.1362002293	-2.9129122468	 0.138994
H	 2.7850084332	-1.0116479954	-1.7331837763	 0.098525
H	 2.7915115117	-1.8573403476	 0.5999034917	 0.303541
H	 0.8098613855	-2.4736117375	-2.3027191859	 0.13212
