15
gdb 14580	14.2027	0.63067	0.61182	0.9415	67.38	-0.2703	0.0068	0.2771	1665.1872	0.118981	-358.855809	-358.847121	-358.846176	-358.890181	29.015	
N	-0.0560863082	-1.1569988257	-0.0336443149	-0.296319
C	-0.0423046355	-0.0020722779	-0.0103311286	 0.257539
C	 0.0033018856	 1.4570649022	 0.0182948854	-0.348844
C	 1.4428289472	 1.9919326016	-0.0736084521	-0.126784
N	 1.4224866976	 3.4475717927	-0.0153991838	-0.302842
C	 2.7615218891	 4.0278953131	 0.0237539205	-0.264825
C	 2.6958944116	 5.4914594272	 0.03283322	 0.257785
N	 2.6441702676	 6.6448841891	 0.0157900286	-0.289688
H	-0.5968494061	 1.8409597027	-0.8156534352	 0.154391
H	-0.4620214387	 1.8207451295	 0.9398261121	 0.170975
H	 2.017193212	 1.6217796329	 0.7830426447	 0.135355
H	 1.9284965216	 1.5905954347	-0.9795136046	 0.113323
H	 0.9186335186	 3.8234390117	-0.8132663442	 0.236269
H	 3.2620071344	 3.6976629465	 0.9424071128	 0.164007
H	 3.4117939734	 3.7210337398	-0.8152484008	 0.13966
