20
gdb 112481	2.41329	1.16309	0.8854	0.9467	78.72	-0.255	0.0181	0.2731	1391.8769	0.168716	-440.282602	-440.272218	-440.271274	-440.318721	36.068	
C	 0.3892129629	 1.437488073	 0.0433472849	-0.39023
C	 0.1714948495	-0.0770715378	-0.0174555528	-0.176403
C	 0.4117987502	-0.643566649	-1.3999364506	 0.103826
O	 1.8186750126	-0.4826030384	-1.8341788766	-0.281709
C	 2.0146024929	-1.8473913215	-1.8190230372	 0.419983
N	 3.0484019088	-2.5454369096	-1.9164692132	-0.341774
C	 4.3378928048	-1.8907065698	-2.0951055588	-0.33888
C	 0.5683023939	-2.1847021732	-1.5323826485	-0.036535
O	 0.3176943583	-2.959248175	-0.3882274687	-0.427752
H	 1.4095010398	 1.6934235601	-0.2563080046	 0.134409
H	-0.2989823167	 1.9667448832	-0.6249784348	 0.114908
H	 0.2270126679	 1.8147357182	 1.0569994329	 0.117274
H	 0.8251063166	-0.5919785222	 0.6936754335	 0.109864
H	-0.8557007633	-0.3315158913	 0.2716305072	 0.112986
H	-0.2417469325	-0.1855073235	-2.1487855108	 0.089863
H	 4.7086568337	-2.0911960616	-3.1067523015	 0.131987
H	 4.3080695529	-0.8052622984	-1.9444583731	 0.127725
H	 5.059185639	-2.3280725984	-1.3973334619	 0.126658
H	 0.036214791	-2.5891524344	-2.4031817262	 0.102158
H	 1.1026329477	-3.4991474904	-0.2392732791	 0.301641
