17
gdb 15114	7.86432	0.79428	0.75184	2.6116	72.17	-0.2478	0.0287	0.2766	1476.0795	0.140366	-363.777284	-363.768553	-363.767609	-363.811565	30.611	
C	 0.0769830235	-1.0975551024	 0.3719693555	-0.411466
C	 0.0798485658	 0.0848530712	 0.1638551817	 0.282182
C	 0.0483087247	 1.5184629884	-0.0916127302	-0.204136
O	 1.3565379208	 2.0517804478	-0.0270413511	-0.242872
C	 1.3813463344	 3.4464014525	-0.2661632158	-0.069977
C	 2.8094587403	 3.9143993962	-0.2562427097	 0.017028
C	 3.1232952153	 5.2765787338	 0.2437265732	-0.247147
N	 3.5245916333	 4.0904597672	 1.01431676	-0.301721
H	 0.0829658535	-2.1433421564	 0.5569084919	 0.201785
H	-0.3978186647	 1.709891429	-1.0830575417	 0.118649
H	-0.6075559029	 2.0116784234	 0.6470546418	 0.116713
H	 0.9124119621	 3.6759431409	-1.2389947645	 0.093921
H	 0.8019668274	 3.9809231253	 0.5083909501	 0.079229
H	 3.4250090252	 3.489331497	-1.0456872712	 0.102557
H	 3.9422841143	 5.8394359445	-0.1942576329	 0.122568
H	 2.3006198425	 5.8879658249	 0.6076500081	 0.1098
H	 2.8866649046	 3.9406988268	 1.7928600048	 0.232887
