23
gdb 63511	2.9544	1.28736	1.27689	0.0945	90.84	-0.2505	0.086	0.3365	1174.104	0.205577	-351.094133	-351.085368	-351.084424	-351.126877	35.273	
C	-0.0466739522	 1.5252547546	-0.0056971549	-0.45275
C	-0.0245571858	 0.0073770534	 0.0151939082	 0.208524
C	-1.247847025	-0.6477355292	-0.6006600711	-0.452746
C	 1.3296053857	-0.6794144493	-0.2104239087	-0.446521
C	 0.6789205289	-0.6877020242	 1.1335303635	 0.465181
C	 1.1688087643	-0.2290959655	 2.5235640188	-0.130752
C	-0.2006374295	-0.7331815106	 3.0755375988	-0.214972
C	 0.2798888469	-1.8371391467	 2.0833070492	-0.130753
C	 1.6959064333	-1.6838532046	 2.7185952192	-0.21511
H	 0.8547764652	 1.9461861726	 0.4494537481	 0.112007
H	-0.1095015739	 1.9024698816	-1.0336958135	 0.111549
H	-0.9114786277	 1.9178828258	 0.5425712949	 0.111601
H	-1.3593503285	-0.359180585	-1.6529537866	 0.111549
H	-1.1824756971	-1.739051524	-0.559263695	 0.112008
H	-2.1645044437	-0.3485852842	-0.0782718392	 0.111599
H	 1.3404273024	-1.5962020831	-0.7937644892	 0.10349
H	 2.1977037435	-0.045270991	-0.3690920484	 0.103489
H	 1.6831319095	 0.6997218742	 2.7759433042	 0.068954
H	-0.2232528962	-1.0103548709	 4.1335746531	 0.084931
H	-1.0872617321	-0.1640707969	 2.7869522045	 0.091887
H	-0.232639133	-2.7659050568	 1.8271138812	 0.068954
H	 2.5458418645	-1.9848913621	 2.1019964442	 0.093477
H	 1.8009083005	-2.0249946682	 3.7525935488	 0.084405
