17
gdb 74535	3.70732	1.47911	1.41108	1.6987	72.13	-0.2065	0.0482	0.2547	973.5787	0.137905	-417.975182	-417.968062	-417.967118	-418.006201	29.403	
N	 0.0601415732	 1.3306477185	-0.2189637463	-0.572582
C	-0.0537832893	-0.0165874689	-0.0415380184	 0.428323
N	-1.1401490482	-0.6998781131	 0.033405869	-0.393033
C	-0.706168758	-2.0726613752	 0.0480972388	 0.242584
C	 0.0532863452	-2.6255659416	-1.1297297494	-0.372779
C	 0.8148341694	-2.0442364398	 0.0271322078	 0.28956
C	 0.8746952908	-2.9166083776	 1.2869749026	-0.282003
C	-0.6984022107	-3.0104506763	 1.2711953282	-0.275966
O	 1.1672942347	-0.6751936861	-0.0221495087	-0.282593
H	 0.9142150976	 1.7436057864	 0.1228608345	 0.265834
H	-0.7813331101	 1.8477956998	-0.0182846503	 0.271686
H	 0.0948242505	-3.6984771371	-1.2969599096	 0.114255
H	 0.0284063199	-2.0218579915	-2.0291685422	 0.130558
H	 1.4426092461	-3.8485691024	 1.2054776639	 0.102949
H	 1.242514171	-2.3539242789	 2.1468087459	 0.116328
H	-1.1570921669	-2.5526844679	 2.1486315004	 0.116219
H	-1.1316889952	-4.0033742381	 1.1190386238	 0.100661
