22
gdb 60231	3.10249	0.83843	0.78247	2.5617	83.92	-0.2414	-0.0228	0.2186	1589.8549	0.192523	-404.350662	-404.34057	-404.339626	-404.386568	36.847	
C	-0.3078770421	 1.5037145881	-0.0559391922	-0.385452
C	 0.0634789297	 0.0144298633	-0.0259571704	 0.040871
C	 0.8060843124	-0.3824261976	-1.3088708616	-0.391573
C	 0.9000804693	-0.3601081723	 1.2116838153	-0.168828
C	 0.1608723118	-0.2241373595	 2.5392584004	-0.112373
N	-0.9541363062	-1.1959328864	 2.7627920483	-0.323973
C	-0.4324317293	-1.6149840444	 4.0919443653	-0.285397
C	 0.8410883416	-0.8084017375	 3.790725875	 0.385868
O	 1.9212570812	-0.7052484776	 4.2889619396	-0.289049
H	 0.5913372458	 2.1310337674	-0.0862023198	 0.114148
H	-0.9048166083	 1.7387311131	-0.9432040829	 0.112887
H	-0.8927501316	 1.8055415422	 0.818957007	 0.10534
H	-0.8640180561	-0.5723530174	 0.0226741614	 0.083998
H	 1.7529356617	 0.1636559282	-1.39890973	 0.112517
H	 1.0367213427	-1.4526447542	-1.3211824889	 0.113383
H	 0.207992136	-0.1569714168	-2.1979978861	 0.109209
H	 1.2318072232	-1.4006448902	 1.114882379	 0.097218
H	 1.8052710062	 0.2604379665	 1.2567655873	 0.104719
H	-0.1232402308	 0.8230841187	 2.7230764322	 0.095179
H	-1.8692910877	-0.7642489242	 2.8065486543	 0.224247
H	-0.9719217549	-1.2234108687	 4.9656614913	 0.122728
H	-0.3070651847	-2.6963174208	 4.2152122057	 0.134332
