19
gdb 49189	3.33703	1.319	1.21449	3.4429	82.73	-0.2457	-0.0544	0.1913	1092.3313	0.162227	-385.921682	-385.914447	-385.913503	-385.953458	28.93	
O	-0.0675298934	-0.0100631936	 0.1117554107	-0.277903
C	 0.0023552312	 1.1973070501	 0.0205996567	 0.044628
C	 1.2481636523	 1.9517933501	-0.0585104138	 0.264568
C	 1.3701652996	 3.2936956648	-0.0418220097	-0.160642
C	 2.847584033	 3.6189883278	-0.0106375163	-0.059715
C	 3.3457019063	 3.1987514844	 1.4190567295	-0.205039
C	 3.2179358556	 1.6451092211	 1.3914964834	-0.210095
C	 2.6519997463	 1.3662517039	-0.0397578907	-0.116339
C	 3.4021722374	 2.4441325432	-0.8570346002	-0.218302
H	-0.917229686	 1.8250137656	-0.0150146482	 0.063811
H	 0.5647796643	 4.0149567546	 0.0436322129	 0.109816
H	 3.1244557843	 4.6321662896	-0.3017107687	 0.067586
H	 4.384107904	 3.5142413522	 1.555765938	 0.10386
H	 2.7529917124	 3.6630170202	 2.2104973937	 0.10262
H	 4.193729236	 1.1659121482	 1.5112358648	 0.101508
H	 2.5604215738	 1.2557491522	 2.1713508677	 0.110711
H	 2.7264337441	 0.3300421232	-0.3643906653	 0.083469
H	 3.0858922248	 2.4866602447	-1.9023334161	 0.100794
H	 4.491969024	 2.353037158	-0.8059525186	 0.094665
