13
gdb 130279	5.9683	0.99387	0.8526	4.6574	64.53	-0.2381	-0.0327	0.2055	1247.1598	0.090585	-486.091086	-486.08332	-486.082376	-486.123949	27.895	
N	 0.0945958104	 1.3820865385	 0.1347371709	-0.587147
C	-0.0092339704	 0.0201252506	 0.0454534007	 0.428265
N	-1.1603239871	-0.613982624	 0.0194133688	-0.213171
O	-0.7559090768	-1.9842163454	 0.0040248261	-0.186324
C	 0.5667514025	-1.963481553	 0.0095913926	 0.585608
N	 1.286329429	-3.1339218656	-0.0055957592	-0.42414
C	 0.8091671644	-4.4368318452	-0.0482153159	 0.154582
O	-0.3457637133	-4.7607664763	-0.0819715948	-0.258937
N	 1.1110010777	-0.7800063763	 0.0331418244	-0.416631
H	 0.950004941	 1.758799237	-0.2432273377	 0.267851
H	-0.7357708228	 1.890761069	-0.1289199571	 0.269845
H	 2.2859902968	-2.9932210728	 0.0171584785	 0.281132
H	 1.6554200486	-5.1494584463	-0.0474022773	 0.099065
