19
gdb 106539	2.12924	1.6366	1.13687	2.8236	76.31	-0.2486	-0.0066	0.242	1153.5944	0.156799	-422.982756	-422.973599	-422.972655	-423.016734	33.821	
C	 0.06928276	 1.5154046551	 0.0361597266	-0.388584
C	 0.0242899985	-0.0162502343	-0.0424744309	-0.331985
C	 0.6088358131	-0.5398806737	-1.3153886247	 0.277549
O	 2.0281197048	-0.1792871959	-1.665702289	-0.33835
C	 1.6283439272	-1.058770317	-2.7946830538	-0.089334
C	 0.9196594363	-2.0006735339	-1.7823382431	-0.033908
C	 1.7937126717	-2.8571363388	-0.8809047494	-0.435135
C	 0.3487196057	-0.1887873327	-2.8077108281	 0.449631
O	-0.3364630161	 0.4800147572	-3.5106660846	-0.324258
H	 1.1001234113	 1.8739436094	-0.025958936	 0.139593
H	-0.4931398067	 1.9632620022	-0.7880631877	 0.142074
H	-0.3614971277	 1.8670892391	 0.977493457	 0.115149
H	 0.5568408125	-0.4620521371	 0.8066051298	 0.116707
H	-1.0118499337	-0.3729093151	 0.0156183818	 0.118007
H	 2.3792382208	-1.2763481719	-3.5512112235	 0.11021
H	 0.0595303553	-2.5508367002	-2.1808345752	 0.086507
H	 2.6466409235	-2.2851026031	-0.5108992386	 0.141359
H	 1.2206442882	-3.2240154495	-0.0230279815	 0.122096
H	 2.1684722352	-3.73014476	-1.424502379	 0.122673
