16
gdb 52381	7.27291	0.55229	0.52192	1.6135	69.25	-0.2647	-0.0841	0.1806	1959.5462	0.121002	-475.036374	-475.026678	-475.025733	-475.072965	32.092	
N	 0.0439402198	 1.4436205285	 0.0179387934	-0.503631
C	 0.0015845152	 0.1781583806	 0.0106342555	 0.311883
O	-1.1306404315	-0.5405634483	-0.0554216302	-0.241337
C	-2.3510910585	 0.2097011714	-0.1316848744	-0.071351
C	-3.4977263946	-0.7927222761	-0.195174174	-0.289342
C	-4.8452178501	-0.1147530763	-0.0526502496	 0.154739
O	-5.7649645902	-0.2556114566	-0.8140877242	-0.225904
C	 1.2082085571	-0.7342374582	 0.0755796806	 0.108031
O	 2.3272835303	-0.2997289761	 0.1440652818	-0.231403
H	 1.0230562172	 1.7328003299	 0.074457026	 0.250278
H	-2.4244325159	 0.8621581868	 0.7461222147	 0.132658
H	-2.319622646	 0.8561665097	-1.0147209761	 0.142561
H	-3.4813135486	-1.3672105867	-1.1240934667	 0.136388
H	-3.3902423923	-1.4909878793	 0.6469149231	 0.135927
H	-4.9385848419	 0.5393743716	 0.845671278	 0.080814
H	 0.9810548199	-1.818275991	 0.0553053122	 0.10969
