15
gdb 124215	5.05212	0.99972	0.84468	4.3325	70.67	-0.2309	-0.0206	0.2103	1303.3155	0.114145	-446.294566	-446.286217	-446.285273	-446.32969	29.17	
C	-0.1774384347	 1.4348856766	-0.1034681103	-0.486141
C	 0.0110725836	-0.0339974165	 0.220950154	 0.349275
N	 0.2224728311	-0.546391083	 1.3641943468	-0.461391
N	-0.0832774047	-0.8282124019	-0.9212201068	-0.403843
C	 0.0365403612	-2.1944313668	-1.0421355599	 0.514639
N	 0.2341638714	-2.7415005913	-2.2432992521	-0.310326
N	 0.2392837708	-4.0319973663	-1.9197261602	-0.067341
N	 0.0697561889	-4.2838136995	-0.6368448032	-0.092392
N	-0.0677715498	-3.1191567419	-0.0510873466	-0.245241
H	 0.5707572058	 1.7780859172	-0.827547641	 0.13881
H	-1.1663803994	 1.6152060943	-0.5391590677	 0.144604
H	-0.0807564986	 2.0375336548	 0.8002469844	 0.138623
H	 0.2448121554	 0.1819263741	 2.0750134138	 0.217057
H	-0.1033435975	-0.3516386168	-1.8081032868	 0.262964
H	 0.3709264665	-4.7630747131	-2.6017342042	 0.300703
