13
gdb 132311	2.09997	1.83731	0.98009	4.5712	67.17	-0.2174	-0.0284	0.189	1082.1154	0.08952	-494.083996	-494.076438	-494.075493	-494.116106	28.437	
N	 0.0500852851	 1.3007388821	-0.0726946557	-0.557689
C	-0.0473402442	-0.0429536732	-0.0276657536	 0.51877
N	-1.1999846246	-0.6374511279	-0.0108816413	-0.408689
C	-1.1358176741	-1.9919290851	-0.0036313692	 0.329807
F	-2.3224459577	-2.5759168371	 0.0101281471	-0.056963
C	-0.0096403374	-2.7397571258	-0.007235587	-0.33854
C	 1.2573770175	-2.0658712685	-0.0183551295	 0.396517
N	 2.4046417433	-2.5972466272	-0.0201212943	-0.540798
O	 1.1537704245	-0.6395092309	-0.0266597645	-0.262102
H	 0.9427843917	 1.7369293064	 0.0764180981	 0.279917
H	-0.792788619	 1.8339439448	 0.0527755556	 0.286163
H	-0.0241669493	-3.8185777402	-0.0001114338	 0.131877
H	 3.1421022542	-1.8946817074	-0.0302046519	 0.221729
