21
gdb 117352	3.34365	0.75297	0.67343	4.391	77.31	-0.2399	-0.0092	0.2306	1750.7828	0.178271	-461.363568	-461.352449	-461.351504	-461.401074	38.535	
C	-0.6280761832	 1.0425584987	 0.5025398041	-0.224521
O	-0.0070836615	-0.1278898168	 0.0262899109	-0.210727
C	 0.4965046633	-0.9280968766	 1.0498095791	-0.160719
C	 1.1176895604	-2.1986107587	 0.492159142	 0.366388
O	 1.1314594233	-2.4651980783	-0.6834753639	-0.293714
C	 1.688496329	-3.1577346867	 1.5335847686	-0.310883
C	 0.6982744593	-4.3086041579	 1.8152756688	 0.14912
C	 1.3131641939	-5.4012781569	 2.6862128684	-0.412799
O	-0.5136822214	-3.8117747682	 2.3809326037	-0.431362
H	 0.074115699	 1.6807358397	 1.0630342329	 0.101698
H	-0.98834229	 1.5947816433	-0.3683272832	 0.133193
H	-1.4827911793	 0.8148296409	 1.1590793429	 0.105436
H	 1.2629710808	-0.3988539826	 1.6485854063	 0.097281
H	-0.2876903758	-1.2477390929	 1.7611876173	 0.117202
H	 2.6167272912	-3.5709918932	 1.1271563037	 0.125841
H	 1.9213750947	-2.6433105479	 2.4747713021	 0.08797
H	 0.401075867	-4.7341995103	 0.8505602129	 0.117908
H	 1.6451269808	-4.9930577908	 3.649705573	 0.108075
H	 0.5764841568	-6.1856301425	 2.8809530957	 0.130392
H	 2.1828454201	-5.8533517361	 2.2000555485	 0.126288
H	-0.3444948284	-3.6144349361	 3.3091308762	 0.277934
