21
gdb 105687	2.93358	0.90955	0.79273	4.3628	80.54	-0.2434	0.0379	0.2813	1516.0788	0.182484	-420.413312	-420.403382	-420.402438	-420.449291	35.862	
C	-0.912287147	 1.105663301	-0.1260594357	-0.384376
C	 0.0016107102	-0.1208985773	 0.0088295655	-0.266665
C	 0.6445513854	-0.577810736	-1.2917952927	 0.325753
C	 1.6800514789	 0.3802358191	-1.8739576466	-0.210183
N	 2.069138816	-0.0031846347	-3.2150784312	-0.276306
C	 3.3453506145	 0.0621738695	-3.6679530388	 0.150999
O	 4.2972636374	 0.4684701979	-3.0327010518	-0.330956
C	 0.7776773194	-2.0340832672	-1.5416200185	-0.277939
N	-0.2032172851	-1.2349383133	-2.3075525138	-0.364401
H	-0.3613073454	 1.9970403645	-0.4387933923	 0.129289
H	-1.7061030959	 0.9317355511	-0.8602741409	 0.118845
H	-1.3884847412	 1.3342380582	 0.8318867461	 0.120339
H	 0.7924265504	 0.0889310121	 0.7406974724	 0.111363
H	-0.5780695385	-0.9566085905	 0.4197505437	 0.095544
H	 1.2737054171	 1.40069036	-1.8743333971	 0.111001
H	 2.5831641215	 0.3934888454	-1.2570583226	 0.144577
H	 1.3365525766	-0.3802639311	-3.7995806146	 0.26119
H	 3.4278813043	-0.3055007793	-4.7104927247	 0.071292
H	 1.6078221969	-2.4136584879	-2.1296413658	 0.124676
H	 0.408034897	-2.7162903538	-0.7810289814	 0.114212
H	-1.1421458927	-1.3852498976	-1.947464649	 0.231745
