19
gdb 60243	3.07109	0.93904	0.85915	3.2816	71.7	-0.2676	0.0134	0.2809	1415.6224	0.157986	-460.191386	-460.181908	-460.180963	-460.226467	34.05	
C	 0.0765510705	 1.5672425514	 0.0351314231	-0.4026
C	 0.0092468342	 0.0412771785	-0.0053695534	 0.123293
O	 0.7042266887	-0.5359565569	 1.1019046483	-0.436976
C	-1.428443573	-0.4771139913	 0.0863292261	-0.213735
C	-1.4979903342	-1.9970976356	-0.0532387953	-0.186507
C	-2.8715035865	-2.6854737411	-0.1671699729	-0.111544
O	-2.5251599323	-3.1816599683	-1.5022565913	-0.240966
C	-1.3020686935	-2.5591533517	-1.4644740465	 0.459183
O	-0.4772321816	-2.5267105632	-2.3220843684	-0.329232
H	 1.11644279	 1.9090215213	-0.0080964993	 0.108971
H	-0.4534805178	 2.0087825256	-0.8151760828	 0.118589
H	-0.3671348297	 1.9462244809	 0.9614697618	 0.122734
H	 0.4441594598	-0.3192281459	-0.9492944782	 0.101589
H	 1.6429884196	-0.3581306103	 0.990953378	 0.286251
H	-1.8437250234	-0.182570185	 1.0579887814	 0.11193
H	-2.0363583425	 0.0027558263	-0.6892734245	 0.105695
H	-0.8234342403	-2.4630911655	 0.6680532541	 0.13408
H	-3.0654714925	-3.514913691	 0.515451423	 0.126273
H	-3.7369940655	-2.0204275583	-0.2199044334	 0.122973
