23
gdb 88821	2.89204	1.10703	0.88415	1.5793	86.51	-0.2379	0.0849	0.3228	1412.3136	0.205201	-388.264194	-388.254412	-388.253468	-388.299615	36.203	
C	 0.1579720792	 1.6159617504	-0.2471034189	-0.405385
C	 0.010047374	 0.1261639836	-0.0235723771	 0.000602
C	 1.1823214484	-0.810572045	-0.1531068668	-0.309437
C	 0.5438381214	-0.5865427555	 1.2034645931	-0.004953
C	 1.2945116336	 0.1375396477	 2.2780746197	 0.133146
O	 0.4228683137	 0.7447746255	 3.2678082258	-0.298773
C	 1.2070523243	 0.2119477076	 4.352246622	-0.076428
C	 2.0487079791	-0.6549990537	 3.3904417615	-0.053049
C	 1.8198239329	-2.1585164904	 3.4810766515	-0.404701
H	 1.1459662865	 1.9802663947	 0.0477492894	 0.116318
H	 0.025240818	 1.8592847051	-1.3070440059	 0.112891
H	-0.5868824471	 2.1790175013	 0.3249582787	 0.128901
H	-0.9377442221	-0.2712737073	-0.3779812504	 0.084734
H	 1.0485942285	-1.7722212119	-0.6360317503	 0.109381
H	 2.1579878971	-0.3634951738	-0.3218334824	 0.107797
H	-0.0848535582	-1.3906655255	 1.5732213941	 0.080138
H	 1.943484041	 0.9031361668	 1.8294830749	 0.059958
H	 1.7655226848	 0.9963332053	 4.8811631798	 0.091924
H	 0.5880987354	-0.3315357349	 5.077493852	 0.096383
H	 3.120553461	-0.4411355448	 3.4158766	 0.072835
H	 0.7534751547	-2.4029138494	 3.5212725528	 0.122778
H	 2.2537482444	-2.6826662244	 2.6235433656	 0.121422
H	 2.2839307595	-2.5602722015	 4.388355281	 0.113516
