19
gdb 73376	2.39437	2.1686	1.56617	2.9244	72.62	-0.2354	0.0713	0.3068	914.1716	0.16183	-423.012148	-423.00527	-423.004325	-423.042886	29.198	
O	-0.0885270838	 1.3337333919	 0.0070698951	-0.504955
C	 0.0230735248	-0.0653131181	 0.0097641954	 0.417008
C	 0.6707257566	-0.6929072588	-1.2372436316	-0.273079
C	 0.3503501661	-2.207845965	-1.0698983304	-0.258846
C	-0.7748503926	-2.2086555942	-0.0270436845	-0.027706
C	-0.4248653721	-1.8162457523	 1.4475393082	 0.066948
C	 0.6488135179	-0.7231283472	 1.2838796838	-0.290902
O	-1.6354596472	-1.0033534756	 1.4990696663	-0.297509
C	-1.3624662015	-0.7853603262	 0.0959094954	 0.045331
H	 0.7978291735	 1.7096261057	 0.0039504661	 0.276418
H	 0.1985699196	-0.2857188187	-2.1383880814	 0.104673
H	 1.7433476592	-0.4810032735	-1.3019856102	 0.089981
H	 0.0212670897	-2.6562611206	-2.0111234022	 0.106374
H	 1.2194840778	-2.7822448899	-0.7328057492	 0.1037
H	-1.508594957	-3.011493106	-0.0825508846	 0.080692
H	-0.3378658008	-2.5381397138	 2.2603874997	 0.076881
H	 1.6656706634	-1.0966164219	 1.1305119256	 0.088832
H	 0.6275414755	-0.0427271763	 2.1375814905	 0.112583
H	-2.190788759	-0.3752705895	-0.4809574918	 0.083576
