17
gdb 81998	2.51399	1.46878	1.3074	5.1667	72.32	-0.2633	0.0157	0.279	1047.7651	0.135637	-417.972489	-417.964103	-417.963159	-418.005212	31.994	
C	-0.1853588131	 1.5339532282	 0.0260450544	-0.409096
C	-0.0016654787	 0.0279266813	-0.0347707202	-0.059408
C	 0.7396510924	-0.5950416226	-1.2222491669	-0.044567
N	 2.14434186	-0.1146929484	-1.1466235612	-0.364042
C	 1.7175625918	-1.2831910372	-0.34432758	-0.109566
C	 1.1159378743	-0.6236678679	 0.9204682244	 0.264484
O	 1.9654312894	 0.2503354759	 1.6037376388	-0.46523
C	 0.5524310637	-1.5808119167	 1.8706696366	 0.262057
N	 0.0787512001	-2.3581580202	 2.5820700833	-0.335918
H	 0.7435152594	 2.0561184577	-0.2143783446	 0.128867
H	-0.9491254082	 1.8534674592	-0.690694617	 0.119352
H	-0.5052050632	 1.846582115	 1.0241381466	 0.136032
H	-0.9483229101	-0.493458628	 0.1293502911	 0.104971
H	 0.3213700546	-0.9237644351	-2.1648601216	 0.107532
H	 2.6499025753	-0.4614753989	-1.9592687425	 0.244675
H	 2.2079225104	-2.2447887646	-0.4217072675	 0.11799
H	 2.4788240618	 0.6848261024	 0.9055896563	 0.301868
