16
gdb 16028	4.01013	1.87952	1.50494	3.1513	60.38	-0.2534	0.078	0.3314	845.3224	0.13173	-420.846615	-420.839945	-420.839001	-420.87739	25.625	
C	 0.0444402031	 1.4890928848	 0.0095791806	-0.244128
O	 1.225014155	 0.6838676409	-0.0060256845	-0.261515
C	-0.0473704619	 0.0273571115	 0.0026190811	 0.395578
C	-0.3905435782	-0.7466426897	 1.2602628112	-0.155512
O	 0.0571919451	-2.0916122725	 1.1583494133	-0.231254
C	-0.4267077413	-2.7020220454	-0.0083702679	 0.022273
O	 0.0348633213	-2.0791006584	-1.1775213678	-0.231254
C	-0.4146069861	-0.7331637799	-1.2564480845	-0.155515
H	-0.1396739975	 2.0379594103	 0.933024175	 0.115397
H	-0.1572383882	 2.047816772	-0.9042346847	 0.115397
H	 0.1056612616	-0.3054926292	 2.1273141822	 0.124491
H	-1.4825462254	-0.7231318961	 1.420918415	 0.092648
H	-0.0430021116	-3.7234435505	-0.0175091174	 0.123902
H	-1.5352421237	-2.7069524412	 0.0021997535	 0.07235
H	-1.5094797499	-0.7080507178	-1.3959299861	 0.092649
H	 0.0649688476	-0.2827040487	-2.1280579392	 0.124492
