18
gdb 43794	2.48366	1.61965	1.16478	1.8876	77.95	-0.2441	-0.0312	0.213	1085.363	0.147194	-401.913393	-401.905246	-401.904302	-401.946219	31.277	
O	 0.0052318056	 0.3086164793	-0.919527129	-0.317242
C	-0.0047943741	 1.298626659	-0.2430963869	 0.352166
C	-1.0882752301	 2.0920497585	 0.524696018	-0.471811
C	-0.0267904371	 3.1913963752	 0.7495877752	 0.287077
C	-0.1902877456	 4.6623106375	 0.5076675933	-0.312427
C	 0.1128198157	 4.1447120124	 1.8960566396	-0.332729
C	 1.0480944569	 2.3187753337	 0.1206955818	 0.187925
C	 2.4406107726	 1.9833276235	 0.5328919919	-0.291057
N	 2.1839411458	 2.7396587828	-0.6929553444	-0.3614
H	-1.9603666756	 2.3651016075	-0.0764028013	 0.134053
H	-1.4286372774	 1.5772376093	 1.429217852	 0.133347
H	 0.6058931479	 5.1610762341	-0.0347090668	 0.133025
H	-1.1872885949	 5.0411255903	 0.3075755127	 0.114688
H	-0.679768109	 4.1682618778	 2.6370692795	 0.116356
H	 1.1054174203	 4.318237367	 2.3000831077	 0.116851
H	 2.900028009	 2.5533467935	 1.3359024892	 0.129108
H	 2.7466723872	 0.9424502326	 0.4622881393	 0.13249
H	 2.2548008527	 2.1331142661	-1.5089968819	 0.249578
