25
gdb 113198	3.05767	0.87439	0.85743	1.6568	89.51	-0.2523	0.0815	0.3338	1586.9183	0.225612	-389.494783	-389.48335	-389.482406	-389.531634	41.75	
C	-0.6350372511	 1.4487706218	 0.5287632624	-0.370843
C	 0.1887423305	 0.30069133	-0.0688856394	-0.223268
C	 0.9519525378	-0.4504919906	 0.9970091808	 0.021156
O	 0.1980008488	-1.2905100365	 1.8852207687	-0.31473
C	 1.1967073711	-1.9065243807	 1.0471328261	 0.397098
C	 0.6534646136	-2.8332614412	-0.021700845	-0.476137
C	 2.417653666	-2.3913606564	 1.8319731099	-0.017339
C	 2.0954890652	-3.6322618101	 2.6783486223	-0.401223
C	 3.635505094	-2.6208788101	 0.9250922328	-0.399553
H	 0.0061569165	 2.167490095	 1.0507543817	 0.114101
H	-1.1803832666	 1.9904075284	-0.2497153874	 0.111286
H	-1.3608334043	 1.0625097332	 1.2504255424	 0.134496
H	-0.4707624344	-0.3781509955	-0.6160175749	 0.101546
H	 0.9109487215	 0.697212671	-0.794892282	 0.098285
H	 1.6824678772	 0.1742199031	 1.520804531	 0.075314
H	-0.2995416683	-2.4693523128	-0.4064917122	 0.12962
H	 1.3527273364	-2.9258688663	-0.8587781913	 0.121994
H	 0.4826098907	-3.8349790733	 0.3840375769	 0.125706
H	 2.6623075328	-1.5803356146	 2.5289897986	 0.077439
H	 1.9161737989	-4.5160782539	 2.0566171463	 0.111734
H	 2.9311428389	-3.8683725248	 3.3450694944	 0.109629
H	 1.2074879482	-3.4595759535	 3.2931910662	 0.131051
H	 3.8641334555	-1.7325533462	 0.3266630981	 0.111674
H	 4.5203132569	-2.8584300997	 1.5243651023	 0.114476
H	 3.4737554741	-3.4572225663	 0.2365152712	 0.116488
