18
gdb 80374	2.34508	1.71141	1.21551	2.5549	76.39	-0.2471	0.0227	0.2697	1058.0996	0.147843	-398.081958	-398.073307	-398.072363	-398.114835	32.933	
C	-0.181228103	 1.4734333406	-0.1847744515	-0.327985
N	 0.0922256688	 0.0605302753	 0.0382086405	-0.072883
C	 1.3757043908	-0.5676986373	-0.1427748471	-0.03376
C	 2.550562112	 0.293807921	 0.3585862983	-0.293107
C	 1.9080741605	 0.2949404981	 1.7881933118	 0.135699
N	 2.66203099	-0.5794886883	 2.685983253	-0.536966
C	 1.621078826	 1.6011999132	 2.3991339861	 0.22668
N	 1.4197671377	 2.6122024893	 2.9254708662	-0.35519
C	 0.7008193598	-0.5026926315	 1.2058071031	-0.071204
H	 0.6391280047	 2.1569083033	 0.0666913156	 0.125386
H	-0.4298981164	 1.6088902886	-1.2415294088	 0.126147
H	-1.0517155946	 1.7603074991	 0.4112172794	 0.138257
H	 1.4613154406	-1.4013355107	-0.8303072103	 0.10369
H	 3.497839977	-0.2460750864	 0.3802153844	 0.127557
H	 2.6887027473	 1.263964407	-0.1234886528	 0.117907
H	 3.5362597302	-0.1320251344	 2.9499713366	 0.243097
H	 2.1401952439	-0.7179099634	 3.5481628651	 0.242294
H	 0.1793535746	-1.2609695333	 1.7810756905	 0.104383
