20
gdb 65095	2.94562	1.36037	1.279	0.9404	78.58	-0.2257	0.0799	0.3056	1106.2411	0.170687	-403.07943	-403.070943	-403.069999	-403.11252	32.883	
C	 0.2785482624	 0.7298785151	-1.365736894	-0.477036
C	-0.0274121085	 0.0077107076	-0.0697274922	 0.186544
C	 1.0437034255	-0.7678464792	 0.6086834466	-0.270974
N	 0.5472226556	 0.4943623302	 1.1955458024	-0.349465
C	-1.4431600039	-0.4316361696	 0.0649727841	 0.488825
C	-2.5708732303	 0.3597274578	 0.6538862441	-0.337982
C	-2.2575006333	-1.0272457868	 1.1870149301	-0.200607
C	-2.684787658	-2.0591871528	 0.1506776356	-0.090129
O	-1.9460818523	-1.373358754	-0.8989478221	-0.33791
H	 1.3432139765	 0.9745990534	-1.4373966685	 0.108089
H	 0.0115122289	 0.1046960969	-2.2233113007	 0.146425
H	-0.2969467739	 1.6594515019	-1.4377818497	 0.125275
H	 0.7928986325	-1.6602194256	 1.1742280608	 0.11654
H	 2.0315427471	-0.7764428343	 0.1552207047	 0.110304
H	 1.2048629442	 1.246296362	 1.0023954484	 0.229188
H	-2.2670292284	 1.1639962707	 1.3151932888	 0.12795
H	-3.4700105517	 0.5366162572	 0.0692547912	 0.107296
H	-1.9937421716	-1.2163894239	 2.2181693815	 0.108413
H	-2.2682615609	-3.0586122096	 0.3208010455	 0.106802
H	-3.7542001498	-2.1389247169	-0.0794576567	 0.102451
