15
gdb 18212	4.40147	1.67976	1.31848	3.532	69.28	-0.2431	-0.0571	0.186	903.1986	0.120161	-362.657017	-362.650407	-362.649463	-362.687898	25.141	
O	-0.0602676039	-0.0369729951	-0.0222329848	-0.274108
C	 0.0080664068	 1.1697181816	 0.0650767634	 0.063626
C	 1.259072974	 1.9269945452	 0.0409348822	 0.302484
C	 1.355161699	 3.2672816401	 0.0870474166	-0.160181
C	 2.7835113336	 3.7464237531	-0.0259998238	-0.258722
C	 3.5824738376	 2.4451768077	-0.0703620892	-0.043037
N	 3.4404298482	 1.6392577225	 1.1575030267	-0.331183
C	 2.6171864896	 1.3097778061	-0.0388744729	-0.168958
H	-0.9087595764	 1.7940052469	 0.1577281433	 0.06732
H	 0.5137938548	 3.9429785845	 0.2030627794	 0.113295
H	 2.9250847135	 4.3476371754	-0.9340258045	 0.119267
H	 3.0717217117	 4.3778245466	 0.8229248842	 0.133266
H	 4.5113704369	 2.3981561367	-0.6276326708	 0.094491
H	 4.2176076176	 0.9825439825	 1.2048463872	 0.233512
H	 2.7675325271	 0.3645525363	-0.5451530469	 0.108928
