15
gdb 5768	6.10144	1.45864	1.2846	1.7547	69.13	-0.2108	0.0152	0.226	939.1387	0.120961	-362.659004	-362.652391	-362.651447	-362.690291	24.881	
C	 0.4119024254	 1.5381647779	 0.2224737331	-0.235986
N	 1.2417475284	 0.4078312689	-0.2121583246	-0.307993
C	-0.1914021758	 0.1827873753	 0.0940485991	-0.148585
C	-0.5262544117	-0.6568050467	 1.2513189978	 0.429169
C	-1.4376571596	-1.6540916022	 1.4286380754	-0.290613
C	-1.3082043532	-2.0852221322	 2.7893656173	-0.16984
C	-0.329990773	-1.316790917	 3.3322567013	-0.018111
O	 0.1536598237	-0.4401510825	 2.4112836861	-0.176604
H	 0.6478678039	 1.9135842816	 1.213313473	 0.132861
H	 0.1196946084	 2.2958880862	-0.500262079	 0.112371
H	 1.3711607241	 0.4354469599	-1.2205443128	 0.233537
H	-0.8634288386	 0.0235422619	-0.745328913	 0.09326
H	-2.1156191497	-2.0374986347	 0.6819807496	 0.105129
H	-1.8668663129	-2.861771274	 3.2877044857	 0.109859
H	 0.1242570306	-1.2652965324	 4.3077909911	 0.131546
