20
gdb 52249	3.46813	0.98396	0.92029	3.6826	79.28	-0.2439	0.0326	0.2766	1341.0303	0.172036	-403.143152	-403.134443	-403.133499	-403.177628	32.422	
O	 0.5908291135	 0.6183851145	 1.5161509469	-0.328734
C	 0.3304676482	 1.4231009125	 0.6451553427	 0.159992
N	 1.1464158298	 1.754730023	-0.389384302	-0.268459
C	 2.4826638077	 1.1973128147	-0.5595901446	-0.186941
C	 3.5897719032	 2.1435584897	-0.0971152625	 0.013993
C	 3.7259529128	 2.4679817079	 1.4325207444	-0.2564
C	 5.1839481905	 1.9900412782	 1.3809396905	-0.033883
C	 5.2369171476	 0.5546093779	 0.9496179179	-0.276664
C	 5.0342818384	 1.6193272297	-0.0973682819	-0.069276
H	-0.6306858648	 1.9740088779	 0.6021902088	 0.073458
H	 0.8357589249	 2.4764356496	-1.0202602619	 0.244943
H	 2.5012576447	 0.2700705671	 0.0162119887	 0.144089
H	 2.6271558164	 0.9386665946	-1.6158264166	 0.104036
H	 3.5258202346	 3.0763617071	-0.6685561217	 0.063697
H	 3.6195228875	 3.534128121	 1.6428136267	 0.097939
H	 3.0645874684	 1.9078196469	 2.1000218117	 0.126008
H	 6.0192808361	 2.4715945338	 1.8740591166	 0.08429
H	 6.2240969142	 0.1033343327	 0.9473614071	 0.10984
H	 4.4399217764	-0.1315951512	 1.2250987843	 0.117812
H	 5.7409039598	 1.7507250222	-0.9086166852	 0.080259
