13
gdb 27720	2.9936	1.3167	0.91547	6.5791	71.25	-0.2061	-0.0068	0.1993	1163.6912	0.091418	-448.987586	-448.979578	-448.978634	-449.020012	29.706	
N	 0.0007739224	 1.3129963364	 0.1423217704	-0.594402
C	-0.0123225257	-0.0578406976	 0.0192392397	 0.434501
N	-1.1128812954	-0.7939261332	-0.0568862556	-0.395913
C	-0.6790061683	-2.0827848047	-0.0718824144	 0.285927
O	-1.5292222365	-3.1116442229	-0.1484465946	-0.412296
C	 0.6985068676	-2.1647289967	-0.0181208798	 0.109243
N	 1.1071104771	-0.8124778747	 0.0346882493	-0.379652
C	 1.592209335	-3.2406745809	-0.0333278893	 0.1968
N	 2.3551949819	-4.1166812457	-0.0413595161	-0.366677
H	 0.7513724601	 1.7901615372	-0.3368876943	 0.26123
H	-0.9018643693	 1.7176911086	-0.0631714211	 0.273788
H	-2.4195127975	-2.7389015108	-0.1772338005	 0.309476
H	 2.0508209586	-0.4995948849	 0.1878717464	 0.277975
