23
gdb 116309	2.15871	1.17163	0.82837	2.331	81.46	-0.2621	0.076	0.3381	1436.1867	0.206426	-425.427782	-425.417778	-425.416834	-425.463296	36.984	
O	-0.0526799511	 1.4743580202	-0.2946862792	-0.421582
C	 0.0759416228	 0.0582172869	-0.3074981673	-0.093162
C	-1.2897256013	-0.5295973691	 0.0510307937	 0.001418
C	-2.3748830795	-0.1119035063	-0.9910775007	-0.208523
C	-2.9103579965	-1.4205634739	-1.6221226464	-0.212156
C	-1.8113748514	-2.4582084781	-1.3540402974	-0.198872
C	-1.328603501	-2.0854102614	 0.0576387375	 0.039622
C	-0.0597848614	-2.794747849	 0.5098034759	-0.117145
O	-0.3497269631	-4.1858529737	 0.5766737545	-0.426142
H	 0.7859923708	 1.8547411791	-0.5708418822	 0.284325
H	 0.3946262607	-0.2980644376	-1.3011187525	 0.082784
H	 0.8367557967	-0.2656360224	 0.4194770196	 0.083293
H	-1.538678618	-0.1418125311	 1.0444228089	 0.074033
H	-3.1740260251	 0.4737097495	-0.5297340275	 0.097152
H	-1.922457624	 0.5364361284	-1.7467145135	 0.106668
H	-3.8340933022	-1.7334533084	-1.1211560408	 0.095511
H	-3.1482379762	-1.3088211321	-2.6838897971	 0.089224
H	-2.1555489052	-3.4925653087	-1.4183608768	 0.106629
H	-0.989087543	-2.3423984473	-2.073759432	 0.085397
H	-2.1151305814	-2.390017024	 0.7611254755	 0.081401
H	 0.7617887153	-2.6019272506	-0.1987949266	 0.081614
H	 0.2575149296	-2.4119912295	 1.4938728871	 0.084015
H	 0.4528249745	-4.6479490206	 0.8352035274	 0.284493
