17
gdb 65911	2.4448	1.40948	1.24339	2.0966	69.4	-0.2431	-0.0932	0.1499	1090.3808	0.132734	-458.959657	-458.950387	-458.949443	-458.994355	32.498	
C	-0.4961082089	 1.5490305634	-0.0258426448	-0.473722
C	-0.0437223936	 0.0996519887	-0.087996704	 0.335878
C	 0.9282929051	-0.3112885968	-1.2156612111	-0.330754
C	 1.8761541472	-0.7105304522	-0.0695668031	-0.068241
O	 0.9435961343	-0.2335240018	 0.933244102	-0.322059
C	-1.19039365	-0.8913839887	 0.1058653467	 0.255331
O	-1.5804275687	-1.6638982472	-0.7379117115	-0.288985
C	-1.8717236444	-0.961274728	 1.485374252	 0.101099
O	-1.8468453966	-0.0908726757	 2.312698566	-0.212645
H	 0.3687207517	 2.207445504	-0.1480967131	 0.126248
H	-1.2093872007	 1.7596383782	-0.83069255	 0.127701
H	-0.9704707885	 1.7599206387	 0.9339932182	 0.163416
H	 0.567392034	-1.1165682355	-1.8545780922	 0.135896
H	 1.2708638027	 0.5235418874	-1.8281797866	 0.114013
H	 2.0684790726	-1.7844935335	 0.0345737915	 0.112828
H	 2.8268436583	-0.1701360327	-0.0157806892	 0.114216
H	-2.4560332245	-1.8992778882	 1.603388349	 0.109779
