19
gdb 90624	3.93143	1.17759	1.09961	2.4508	74.53	-0.2346	0.0733	0.3079	1143.9066	0.15867	-422.959326	-422.951203	-422.950259	-422.9915	32.66	
O	-0.0457043523	 1.4036658538	-0.0704806714	-0.441736
C	 0.0438058313	-0.006472862	-0.0142098582	 0.114437
C	 0.3260063943	-0.5954637047	 1.4132941827	-0.299279
C	-1.0995581854	-1.2206025884	 1.4290645706	-0.089948
C	-1.3835557511	-0.6217711133	 0.021229105	-0.014429
C	-1.6202105095	-2.0423542003	-0.5331471867	-0.128375
C	-0.425252376	-2.9517843492	-0.3091249976	-0.361635
C	-1.331470772	-2.6367974458	 0.8425094334	 0.394007
O	-2.0466199346	-3.6180097966	 1.5081054023	-0.464248
H	 0.8401874511	 1.763365497	 0.0426177602	 0.279897
H	 0.6961776023	-0.3878154081	-0.8116710362	 0.06367
H	 1.1688448775	-1.2870189278	 1.5048195605	 0.091211
H	 0.4430443282	 0.20812798	 2.1450517602	 0.100885
H	-1.7518547017	-1.0001373672	 2.2734307349	 0.077661
H	-2.1899036424	 0.0920445998	-0.1414467281	 0.081037
H	-2.3796207378	-2.3069882378	-1.2589180132	 0.092486
H	-0.5740027551	-3.9514761077	-0.706413499	 0.112595
H	 0.5999342684	-2.5993921086	-0.3770970434	 0.10833
H	-1.421242705	-4.2008824131	 1.952837734	 0.283436
