13
gdb 4529	3.58145	1.89765	1.25026	2.7987	57.7	-0.1866	0.0369	0.2235	897.074	0.096804	-431.947295	-431.93986	-431.938916	-431.97847	28.184	
N	 0.0318595628	 1.2718091184	 0.2267995721	-0.584544
C	-0.0389642133	-0.0885177308	 0.0632682646	 0.461489
N	-1.120362835	-0.7999007227	-0.0890207296	-0.424179
C	-0.6439375809	-2.0996067817	-0.1220018196	 0.314321
O	-1.4914145868	-3.1349730325	-0.2698631015	-0.427535
C	 0.7036595727	-2.1445759023	 0.0024092839	 0.156686
N	 1.6420545687	-3.1542541036	 0.0239510743	-0.597993
O	 1.1035129202	-0.7740129176	 0.12704867	-0.216091
H	 0.8992838529	 1.6899867792	-0.075145104	 0.263299
H	-0.790403453	 1.7552615929	-0.1023578221	 0.268706
H	-2.3755714535	-2.7528394836	-0.3200707147	 0.30127
H	 2.1547065169	-3.233044591	 0.8951819859	 0.243032
H	 2.2951807784	-3.1404591948	-0.7515450792	 0.241538
