15
gdb 83920	2.65113	1.55175	1.25882	1.7888	68.	-0.2428	0.0137	0.2565	1011.4017	0.110985	-457.686544	-457.678583	-457.677638	-457.718905	30.234	
O	 0.0633806375	 1.391034248	 0.0095546975	-0.419642
C	 0.0585977937	 0.0156108128	 0.0705718658	 0.057214
C	-0.4098525082	-0.744074801	 1.2956718534	-0.041799
O	-1.1127021291	 0.0006669307	 2.2595186571	-0.252443
C	-2.4427161519	 0.0707095875	 1.7834678796	 0.003018
O	-2.3524377651	 0.1299375808	 0.3667401015	-0.303116
C	-1.2733304239	-0.7409266628	 0.0359178972	 0.103823
C	-1.5588251228	-1.861868323	-0.7958168665	 0.264972
C	-1.7696178936	-2.8090848263	-1.5067384035	-0.392546
H	-0.8475287266	 1.6789155803	 0.1607839324	 0.298146
H	 0.8788597804	-0.4296579206	-0.4840401663	 0.12414
H	 0.0975725875	-1.6324530928	 1.6563429296	 0.121143
H	-3.0145439118	-0.8194189495	 2.0896198139	 0.109832
H	-2.9129193902	 0.9865899208	 2.1490149346	 0.130485
H	-1.9625095158	-3.6428017648	-2.1357315662	 0.196773
