13
gdb 132810	2.33117	1.86961	1.03752	3.2558	64.09	-0.2325	-0.0166	0.2159	1028.5761	0.089534	-497.898681	-497.891386	-497.890442	-497.930218	28.045	
O	 0.0699413703	 1.3518421929	-0.0307454313	-0.433522
C	 0.0529333627	-0.0040072536	-0.0302025037	 0.238335
C	-0.0205554811	-0.7197042532	-1.2270247189	-0.073329
N	-0.0396800646	-2.0508726989	-1.270639837	-0.261075
C	 0.0128445856	-2.7431518507	-0.1338592794	-0.073329
C	 0.0880888682	-2.1325551103	 1.1197413252	 0.238335
O	 0.1398100671	-2.8753339552	 2.2529761353	-0.433522
C	 0.1068227244	-0.7444508021	 1.1430691696	 0.04359
F	 0.1789445238	-0.1014797592	 2.3310046644	-0.103623
H	 0.1232922152	 1.6604202441	 0.8817984941	 0.306875
H	-0.0643141061	-0.176261882	-2.1660923211	 0.122195
H	-0.0040169333	-3.8272327954	-0.1936624245	 0.122195
H	 0.1880708678	-2.2799341765	 3.0105860973	 0.306875
