20
gdb 113680	2.47419	1.15848	0.97737	2.6037	77.25	-0.2385	0.0291	0.2675	1324.3218	0.16941	-440.288098	-440.277902	-440.276958	-440.324171	35.91	
C	-0.026975316	 1.3547019965	-0.5631713087	-0.332648
N	-0.0605566246	-0.0843299415	-0.7284239526	-0.303398
C	 1.0679111645	-0.8406199601	-0.8161948782	 0.412154
O	 2.1928911369	-0.3701414489	-0.7450517008	-0.390276
C	 0.8503357378	-2.3268156669	-0.9766208156	-0.174746
C	-0.3349994728	-2.9230678268	-1.7149735272	-0.356032
C	 1.0220348229	-2.9628426241	-2.3414576617	 0.148595
O	 1.2034829939	-2.1554490237	-3.453619489	-0.238319
C	 2.575265779	-1.8690522271	-3.706509679	-0.253784
H	 1.0206330912	 1.6571915505	-0.5765818296	 0.171018
H	-0.5593127741	 1.8602020213	-1.3764667886	 0.125808
H	-0.4736485825	 1.6592766879	 0.390232585	 0.12441
H	-0.9489344438	-0.5550011037	-0.7409379055	 0.248383
H	 1.253039244	-2.8892860373	-0.1393760902	 0.115818
H	-0.778037268	-3.841167012	-1.3459912204	 0.118403
H	-1.0328104819	-2.2386250967	-2.1863245195	 0.122865
H	 1.5510104492	-3.9165493914	-2.3807107925	 0.085651
H	 3.0341622376	-1.3526562363	-2.856753039	 0.151995
H	 3.1357618992	-2.7915934046	-3.9201242437	 0.101171
H	 2.6036797776	-1.2278178154	-4.590241493	 0.122931
