22
gdb 96040	2.76223	1.16079	0.92394	3.648	83.09	-0.2449	0.0324	0.2773	1333.926	0.195626	-404.397899	-404.388479	-404.387535	-404.433241	34.946	
C	-0.0311987741	 1.4741538835	 0.2976855271	-0.414488
C	 0.1440588732	-0.0297251389	 0.1053728648	 0.040988
C	 0.8136649313	-0.4631410384	-1.2093851484	-0.210311
C	 1.1427888797	-1.9413628697	-0.9590110859	-0.204216
C	 1.6508733259	-1.9623159402	 0.498094229	-0.237039
C	 0.9718742202	-0.7594554322	 1.2166745506	 0.038687
N	 1.9629791178	 0.0782768848	 1.883137362	-0.275196
C	 1.7531194144	 0.6680324606	 3.0887831741	 0.153499
O	 0.7324704146	 0.5893962264	 3.741470736	-0.330733
H	 0.9279821975	 1.9987689458	 0.2391678046	 0.102222
H	-0.6846490478	 1.8883675973	-0.4768928463	 0.109086
H	-0.4733701491	 1.6975692941	 1.2729854656	 0.139741
H	-0.8514662925	-0.4942576822	 0.1255544256	 0.07811
H	 0.178390864	-0.3005473129	-2.0850881288	 0.096329
H	 1.7375307264	 0.111315671	-1.3693957508	 0.084935
H	 0.2292817592	-2.5404772507	-1.0518400935	 0.102515
H	 1.8711465105	-2.3546174456	-1.6621676905	 0.095307
H	 1.4496339985	-2.9091618596	 1.0051400404	 0.110592
H	 2.7388467234	-1.8285926624	 0.5175031474	 0.093078
H	 0.3019263934	-1.0823331211	 2.0147872837	 0.114099
H	 2.8498327289	 0.2375182578	 1.4311441437	 0.241693
H	 2.6423880644	 1.2378098925	 3.4269062094	 0.071102
