18
gdb 68818	2.89124	1.32484	1.10106	2.0225	72.85	-0.2254	-0.0273	0.1981	1143.5188	0.145137	-439.041599	-439.032443	-439.031498	-439.075642	33.81	
C	 0.196143195	 1.6102942285	 0.1832109631	-0.506541
C	 0.119972431	 0.1217101596	 0.0717062015	 0.307869
C	 1.2767597055	-0.8022333145	-0.2230824617	-0.374458
C	 0.437199973	-1.021818963	 1.0157747987	 0.321124
O	 0.9424107783	-1.0104403371	 2.2969399342	-0.461522
C	-0.9136782617	-1.63075114	 0.6252828195	-0.136202
N	-1.1168006995	-0.5608707147	-0.4144916103	-0.38056
C	-0.9358587505	-3.0494518605	 0.1024796789	 0.151488
O	-0.2028613768	-3.9143509435	 0.5131675301	-0.251089
H	 1.1351226105	 1.9123388068	 0.654815836	 0.136812
H	 0.1471664948	 2.079659177	-0.8061552195	 0.132355
H	-0.6273017936	 2.0077338984	 0.7885199613	 0.118735
H	 1.2426821382	-1.4793900644	-1.0724224714	 0.115078
H	 2.251568156	-0.3788439789	-0.0009213196	 0.116758
H	 1.4782154802	-1.8048847606	 2.4105901362	 0.294649
H	-1.6279376671	-1.5534216875	 1.4559615264	 0.110824
H	-1.9319170638	-0.0015833643	-0.1763589061	 0.220591
H	-1.6816853995	-3.2455206114	-0.7002926774	 0.08409
