17
gdb 60670	2.12319	1.38171	1.24546	1.3999	74.15	-0.2566	-0.0355	0.221	1122.0303	0.131513	-421.76849	-421.758848	-421.757903	-421.803288	34.512	
C	-0.0767877045	 1.4463457595	-0.1431296543	-0.423438
C	-0.0257843148	-0.0928293048	 0.0625783293	-0.127279
C	 0.7205800856	-0.3536965179	 1.382803104	 0.160083
O	 0.2778011501	-0.9117475861	 2.3460672885	-0.234885
C	-1.3721274189	-0.6496927916	 0.0897011496	 0.357256
C	-2.4906225092	-1.0857030848	 0.1174982171	-0.447217
C	 0.8361458886	-0.6916041278	-1.0615003416	 0.087383
C	 0.5401443034	-1.9597549983	-1.7332814872	-0.194288
O	 0.274579391	-0.6980772183	-2.3639350932	-0.23732
H	 0.9303381101	 1.8742975529	-0.0982613757	 0.120612
H	-0.502761335	 1.6616968447	-1.1250773813	 0.158333
H	-0.6946622585	 1.9175237208	 0.6244394736	 0.14148
H	 1.7580697013	 0.0549233197	 1.3722094969	 0.082438
H	-3.4787331194	-1.474301625	 0.1482245004	 0.201533
H	 1.8747606382	-0.3553332023	-1.0246008817	 0.097571
H	 1.3532856459	-2.5356044504	-2.1716332348	 0.119825
H	-0.3434834538	-2.5206502802	-1.4407581294	 0.137913
