16
gdb 18386	3.48314	2.27474	1.53179	2.3932	64.27	-0.2409	0.0212	0.2621	811.7019	0.133945	-379.891637	-379.88517	-379.884225	-379.922143	25.17	
C	 0.0344918827	 1.5150907534	-0.0344869615	-0.087591
O	 1.4018555185	 1.9049502974	-0.2490603537	-0.229837
C	 2.3433253149	 1.6178023784	 0.6926473959	 0.142762
N	 2.3465019194	 0.9340441978	 1.7530112895	-0.267659
C	 1.205911497	 0.1746682252	 2.2636419531	-0.179151
C	 0.4831815318	-0.6630509859	 1.2192660531	-0.026231
N	-0.9796640657	-0.4946587379	 1.1202955606	-0.338495
C	-0.1105541844	 0.0166570229	 0.0432130708	-0.038495
H	-0.35129079	 1.9781361343	 0.8777763116	 0.128137
H	-0.5086736308	 1.9356327697	-0.8843317064	 0.117543
H	 3.2630461784	 2.1209933523	 0.3914566998	 0.120052
H	 1.5864687985	-0.4815818369	 3.0534693554	 0.108116
H	 0.4855015422	 0.842053523	 2.7489596308	 0.125677
H	 0.8861959517	-1.65932469	 1.0535277728	 0.094926
H	-1.4154728447	-1.3654049102	 0.8275495151	 0.236304
H	-0.0988106496	-0.5121847533	-0.9066169869	 0.093943
