16
gdb 28807	3.12316	1.37858	1.0476	5.1251	82.81	-0.246	-0.0748	0.1712	1136.4961	0.125035	-400.793148	-400.7853	-400.784355	-400.82568	29.354	
C	 0.1070248513	 1.4390267469	 0.3739003994	-0.488074
C	-0.0109634928	-0.0282774228	 0.0471677301	 0.24081
C	-1.190757611	-0.6908213922	 0.1900058166	-0.151382
C	-1.4862651815	-2.0610151476	-0.1372461909	-0.049203
C	-0.6059289134	-3.0718141767	-0.3034626659	-0.182589
C	 0.8383661945	-2.9444219939	-0.016211451	 0.334414
O	 1.4379250232	-3.76680285	 0.640775259	-0.323396
N	 1.5028304918	-1.8794007303	-0.6287074051	-0.231632
C	 1.1553520293	-0.647473312	-0.5668160315	-0.029235
H	 0.8384415035	 1.6061528223	 1.1734913052	 0.146538
H	 0.4539246398	 2.0108187062	-0.4948943611	 0.139695
H	-0.8489208928	 1.8561048786	 0.6981457407	 0.131815
H	-2.0417092468	-0.104812659	 0.5308880144	 0.105195
H	-2.5447923451	-2.2999879732	-0.2103870125	 0.11166
H	-0.958837843	-4.0762913549	-0.516974654	 0.130216
H	 1.8270975029	 0.0557257586	-1.0709587437	 0.115167
