27
gdb 122950	5.14603	0.45193	0.43164	1.3257	93.9	-0.2613	0.0809	0.3422	2617.6795	0.249772	-390.701604	-390.689277	-390.688333	-390.740631	43.438	
C	-0.2019617896	 1.5204640827	 0.1045798916	-0.391587
C	 0.008864302	 0.0074646678	-0.0131153091	-0.164913
C	 0.8162864562	-0.4465804522	-1.2451603127	 0.043326
C	 2.2587939412	 0.0798406507	-1.2078682054	-0.389603
C	 0.7665794208	-1.9814554641	-1.370235093	-0.176327
C	 1.3392750876	-2.5548731315	-2.6725970601	-0.199136
C	 1.1505422773	-4.0712652108	-2.7836638021	-0.16219
C	 1.7186843191	-4.650448209	-4.0721748718	-0.0749
O	 1.4836789383	-6.0513073149	-4.0674550687	-0.421938
H	 0.7394799946	 2.0595824748	 0.2472095948	 0.117092
H	-0.6818914127	 1.9233998645	-0.7947481329	 0.111503
H	-0.845509921	 1.7588689903	 0.9574131749	 0.110742
H	 0.5038337886	-0.365476017	 0.8946576385	 0.090481
H	-0.9728808394	-0.4825192925	-0.0430623849	 0.089778
H	 0.3243544089	-0.0250189688	-2.1356575636	 0.064331
H	 2.7931639095	-0.3160478858	-0.3351435932	 0.10904
H	 2.8199913065	-0.2107567557	-2.1004821381	 0.112779
H	 2.2902744402	 1.1714399319	-1.1490510854	 0.112745
H	 1.2933010436	-2.428663481	-0.5146488485	 0.089768
H	-0.2794729255	-2.3044102721	-1.2806976579	 0.088518
H	 0.8546108092	-2.0623795965	-3.5276746659	 0.090805
H	 2.4079788377	-2.3193861554	-2.751295148	 0.096389
H	 1.6311501417	-4.5750683508	-1.9357761768	 0.103303
H	 0.0843504537	-4.3242938734	-2.7307098205	 0.103018
H	 1.2374006615	-4.1692259633	-4.9399101513	 0.081498
H	 2.7969440566	-4.4281624364	-4.1363039127	 0.081578
H	 1.8414270333	-6.4185511716	-4.880811737	 0.283902
