14
gdb 57124	3.56383	0.78872	0.67638	4.001	80.34	-0.2498	-0.0323	0.2175	1568.651	0.098305	-436.657888	-436.648487	-436.647542	-436.692852	33.904	
N	-0.1105707919	 1.2644848749	 0.0897558179	-0.515021
C	 0.0214399044	-0.0649552746	-0.1031354758	 0.397663
O	 1.0507973937	-0.6213091084	-0.4366086509	-0.367213
C	-1.2736273113	-0.9182715164	 0.0511735006	-0.172036
O	-0.9271964064	-2.2717477015	-0.0320670792	-0.411534
C	-1.9828404022	-0.5974781594	 1.289279714	 0.490181
C	-2.5833146581	-0.3107312663	 2.300771734	-0.35106
C	-3.2534575842	 0.0100850533	 3.4404249773	 0.30628
C	-3.8479820769	 0.2981984848	 4.450989772	-0.555175
H	 0.7177127455	 1.8370244385	 0.0535134713	 0.274344
H	-0.9301494628	 1.631658443	 0.5449378318	 0.275866
H	-1.9251035283	-0.6371894706	-0.7959844786	 0.129282
H	 0.0238748315	-2.2600283532	-0.2459001947	 0.300483
H	-4.3718301529	 0.545395356	 5.3410011903	 0.197941
