18
gdb 76012	2.52939	1.19541	1.05773	3.6806	84.77	-0.2599	0.0066	0.2665	1224.2025	0.144898	-364.791112	-364.781241	-364.780297	-364.825493	36.05	
C	-0.1142691457	 1.5521249703	-0.0389845069	-0.426496
C	 0.0246263955	 0.0498012477	 0.0459720622	-0.042884
C	 1.3511943561	-0.6540569437	-0.2019876087	-0.239749
C	 2.5447439126	 0.1083772018	-0.4269466386	 0.301553
N	 3.5057130225	 0.728802774	-0.6048376606	-0.346446
C	 0.7063012974	-0.655955616	 1.2062802927	 0.087444
C	 1.3600436751	 0.1301218314	 2.3333308855	-0.461122
C	 0.1424366513	-1.9179351433	 1.6109299129	 0.26536
C	-0.3283051921	-2.9667477144	 1.9643714739	-0.422513
H	 0.7902689984	 2.0748180395	 0.2772521928	 0.144283
H	-0.3206388451	 1.8508838595	-1.071622088	 0.135422
H	-0.9462211324	 1.8974246302	 0.582974491	 0.130682
H	-0.8206072667	-0.4982762233	-0.3587918273	 0.112704
H	 1.3193001818	-1.5947223477	-0.739589369	 0.143331
H	 1.8643283734	 1.0257971654	 1.9682672768	 0.142633
H	 0.6078428047	 0.4270759112	 3.069852886	 0.13352
H	 2.1039485464	-0.4903304912	 2.8401794184	 0.142149
H	-0.743967133	-3.8926653714	 2.2769923669	 0.20013
