16
gdb 105605	2.23095	1.48672	1.2893	3.6571	67.13	-0.2387	-0.0405	0.1981	1059.7696	0.12202	-475.02837	-475.019208	-475.018263	-475.062584	31.955	
C	-0.1613930364	 1.4020921736	 0.0601261125	-0.27423
O	 0.1263019387	-0.0008100759	 0.1014991926	-0.293478
C	 0.6968333168	-0.5320179762	-1.0444815124	 0.179156
C	 0.5546206912	-2.0868743803	-1.1195881438	-0.216051
N	-0.1378858402	-1.9121672506	-2.3992294757	-0.318823
C	-0.2029871028	-0.5464115721	-2.3549843436	 0.362893
O	-0.7495224627	 0.2817055786	-3.0293484294	-0.346678
C	 2.1168567142	-0.082759074	-1.3418408184	 0.129682
O	 2.7212290084	 0.7438006782	-0.7120690865	-0.258246
H	 0.7582147596	 1.9921602616	 0.0426578448	 0.145274
H	-0.7802337554	 1.6503446575	-0.8082196861	 0.144523
H	-0.7166639289	 1.6157493934	 0.975333008	 0.129411
H	 1.4818534708	-2.663661278	-1.1834379245	 0.124757
H	-0.0729034771	-2.4560647659	-0.3049707731	 0.142313
H	-0.6434096448	-2.5710817396	-2.9745168935	 0.260131
H	 2.5676032986	-0.5968051904	-2.2223957211	 0.089367
