15
gdb 66921	2.64999	1.79133	1.30736	4.6089	65.31	-0.2322	0.0015	0.2336	953.9053	0.110843	-457.715614	-457.707798	-457.706853	-457.747462	30.352	
O	-0.0867585953	 1.3590209206	 0.0605583508	-0.450942
C	 0.0617082788	-0.0026027787	 0.0419398176	 0.276364
C	-0.2142915759	-0.858421904	-1.2120815195	-0.134182
C	 0.4660928043	-2.2187555595	-1.0261064654	-0.313974
C	 0.002287034	-2.1176565891	 0.4530162302	 0.267937
O	-0.1578192604	-3.1959173799	 1.2818492364	-0.458038
C	-1.0854244177	-1.024257535	-0.0061226454	-0.213224
C	 0.785923679	-0.8985759478	 1.0085436779	 0.332525
O	 1.4753297371	-0.7277928848	 1.9711540227	-0.336201
H	 0.6762394468	 1.7599336236	-0.3706535809	 0.299127
H	-0.4626918958	-0.3468691626	-2.1334016235	 0.106493
H	-0.0745805287	-3.0049311419	-1.5663472673	 0.100986
H	 1.5424754354	-2.312393854	-1.2088374534	 0.109894
H	-0.5729902921	-3.9119509042	 0.7888215427	 0.289434
H	-2.1287296095	-0.8618495728	 0.2155548971	 0.123803
