16
gdb 37769	3.07492	2.28332	2.16832	0.3023	70.13	-0.2069	0.003	0.2099	747.6262	0.12789	-400.6751	-400.669754	-400.66881	-400.704442	23.533	
O	-0.0232261845	 1.419355044	 0.1142098702	-0.284325
C	 1.4101599457	 1.4851952381	-0.0602618379	 0.077267
C	 2.1609185243	 0.9587929803	 1.229511495	-0.08337
C	 1.365240825	 1.0379866166	 2.4990006449	-0.055085
C	 0.4510562968	 0.0644170003	 2.5016250562	-0.055085
C	 0.5766866148	-0.7283374926	 1.2340563852	-0.08337
C	 0.0006699466	-0.015832061	-0.0562133282	 0.077265
C	 1.4511046509	 0.0330633453	-0.5783658752	-0.054063
N	 1.9909185211	-0.4702421459	 0.7503179181	-0.154703
H	 1.7305502007	 2.4012720374	-0.5598993846	 0.081703
H	 3.2084896946	 1.2672332887	 1.286067851	 0.07745
H	 1.4902377488	 1.8082532663	 3.2494906539	 0.106906
H	-0.3078103747	-0.1065915022	 3.254650864	 0.106906
H	 0.3348496677	-1.7930554135	 1.2943099873	 0.07745
H	-0.8948032732	-0.3945810227	-0.5523594529	 0.081703
H	 1.8482909954	-0.342436549	-1.5187944172	 0.083351
