17
gdb 109030	2.83683	1.36248	0.9965	2.169	75.38	-0.2367	-0.0448	0.1919	1173.7621	0.136224	-421.840337	-421.832176	-421.831232	-421.873419	30.549	
O	-0.0024306085	 1.424124752	-0.0600658503	-0.422352
C	-0.0130878651	 0.0080874022	-0.0135480536	-0.175716
C	-1.423911343	-0.4700933928	 0.0584171064	 0.162973
C	-2.5542867735	 0.2519070847	 0.0933873357	-0.162119
C	-3.7739161383	-0.6134560604	 0.0826713695	-0.085247
C	-3.9486704436	-1.4285591976	-1.1805493853	-0.275696
C	-3.2623510651	-2.0285848118	 0.0401243105	-0.152476
C	-1.7538890935	-1.9263780429	 0.07160924	 0.34154
O	-0.9594902125	-2.8400314232	 0.1135120099	-0.343488
H	 0.9136165142	 1.7151506262	-0.0688550047	 0.292185
H	 0.4724484162	-0.436124405	-0.898549081	 0.110934
H	 0.5386606422	-0.3775855626	 0.8591954811	 0.113923
H	-2.5954103617	 1.3337178184	 0.071833329	 0.130192
H	-4.6486586003	-0.3322504169	 0.65672497	 0.102359
H	-4.9371865934	-1.813190727	-1.4109107321	 0.123852
H	-3.3455627972	-1.1661312317	-2.0430985983	 0.127962
H	-3.740710717	-2.8550259215	 0.5489354534	 0.111175
