16
gdb 32263	2.68718	1.65037	1.02969	1.875	77.35	-0.2058	-0.0209	0.1849	1111.3362	0.126377	-434.124049	-434.116044	-434.1151	-434.156518	30.158	
C	 0.0197324049	 1.3888746448	 0.0128061803	-0.23687
O	-0.0172820603	-0.0373896495	-0.0207720224	-0.277857
C	-1.2417619041	-0.6118612295	-0.0145116105	 0.404429
N	-2.3344124893	 0.10278723	 0.0208848529	-0.342984
C	-3.506204261	-0.5726981161	 0.0340489399	-0.055656
C	-3.5340737172	-1.9490154858	 0.023269058	-0.036323
N	-2.4089696748	-2.6904753967	-0.0069305317	-0.319698
C	-1.2591324247	-2.0399321512	-0.0372938709	 0.291444
N	-0.081696251	-2.7396597215	-0.1302197751	-0.563035
H	 1.0770632096	 1.656436627	 0.0013551172	 0.128231
H	-0.4902795631	 1.8128518689	-0.8568492021	 0.138962
H	-0.461476303	 1.7720473915	 0.9173654616	 0.136962
H	-4.4142677516	 0.0202686853	 0.0594353996	 0.105454
H	-4.4733027576	-2.49344727	 0.0434758038	 0.105527
H	-0.144115019	-3.7154876906	 0.1158040708	 0.257293
H	 0.7511327621	-2.2556009766	 0.1632609285	 0.264123
