18
gdb 109486	2.06049	1.77409	1.04247	1.3266	73.58	-0.2564	-0.0148	0.2415	1155.9747	0.148317	-439.184004	-439.175178	-439.174234	-439.218642	31.576	
C	-0.0439209716	 1.5640685159	-0.0266347376	-0.385824
C	 0.008495613	 0.0359621059	 0.0119689474	-0.158607
N	 0.7105545337	-0.4673609352	 1.1881532457	-0.129796
C	 2.0817277325	-0.7067634752	 1.2077342413	 0.412306
O	 2.8203439534	-0.5305388455	 0.2699449254	-0.359814
C	 2.4459525229	-1.2217791075	 2.5977569426	-0.345088
C	 1.1227275973	-1.2474535733	 3.3766011009	-0.345091
C	 0.0694039145	-0.7467964106	 2.3917591948	 0.412306
O	-1.1135969601	-0.6080850455	 2.5849487576	-0.359804
H	 0.9647029566	 1.9852741474	-0.05399782	 0.137051
H	-0.5775023527	 1.8958850546	-0.9222016084	 0.124562
H	-0.5691443923	 1.9554800279	 0.8488248734	 0.137034
H	-0.9997050762	-0.3836696994	 0.0425093975	 0.136909
H	 0.5362282751	-0.3537931389	-0.8615786614	 0.136899
H	 2.912363591	-2.2050207493	 2.4959339565	 0.147008
H	 3.1971958581	-0.5575427737	 3.0325285947	 0.14647
H	 0.836170073	-2.2451512054	 3.7188476468	 0.146982
H	 1.119088462	-0.5972479823	 4.2551481926	 0.146496
