25
gdb 64316	2.40326	1.35875	1.11325	0.2189	93.33	-0.2334	0.0254	0.2588	1263.447	0.23018	-352.378213	-352.368741	-352.367797	-352.411917	37.907	
C	-0.0371232832	 1.5399164783	 0.1430555787	-0.405397
C	-0.0716751527	 0.0034170113	 0.0076637794	 0.265024
C	-1.5436755868	-0.4464429937	 0.07602334	-0.410579
C	 0.5503772122	-0.3491253574	-1.365651086	-0.187111
C	 0.6004735337	-1.8304427655	-1.7836703517	-0.270601
C	 1.5802156175	-2.6962759599	-1.0275994526	-0.048104
C	 1.6780149992	-2.8151260614	 0.2962036671	-0.048107
C	 0.8303819452	-2.1098358089	 1.3283315445	-0.270602
C	 0.7392704838	-0.5786774312	 1.1912018341	-0.187111
H	 0.9904111762	 1.9183407146	 0.1011310876	 0.10741
H	-0.6027354047	 2.0205618027	-0.6628837817	 0.105093
H	-0.4728822753	 1.862733491	 1.0950946794	 0.105093
H	-2.126108609	 0.0143635789	-0.7297901642	 0.106628
H	-1.6636769948	-1.5292193942	-0.012317951	 0.114337
H	-1.996331861	-0.1433426846	 1.0268855696	 0.106628
H	-0.0178712364	 0.1939392119	-2.1326013389	 0.084218
H	 1.5709683036	 0.053647156	-1.398486217	 0.08967
H	-0.4061422959	-2.266579066	-1.717643794	 0.108916
H	 0.8568241303	-1.8650162856	-2.8481587715	 0.095929
H	 2.2565468791	-3.2895304715	-1.6397042262	 0.079966
H	 2.428532208	-3.4985355935	 0.6882781116	 0.079966
H	-0.18072595	-2.5405137995	 1.3335501773	 0.108916
H	 1.2387068418	-2.3290915641	 2.3209262743	 0.095929
H	 1.758927565	-0.1747682809	 1.1457345397	 0.08967
H	 0.2960565343	-0.1875657365	 2.1167453515	 0.084218
