23
gdb 75204	3.40769	1.31143	1.13122	0.1523	91.4	-0.22	0.0323	0.2523	1204.1309	0.2069	-351.171764	-351.163251	-351.162307	-351.204031	34.86	
C	 0.009099518	 1.5134099192	 0.0400254618	-0.501583
C	-0.0019617011	 0.014985813	-0.0150798672	 0.354208
C	-0.0272140651	-0.7040629312	-1.1404487488	-0.176706
C	-0.036137061	-2.2132573272	-1.0700687842	-0.279432
C	-0.0129435443	-2.7050667677	 0.3921950023	 0.326828
C	-0.0213253074	-4.219988436	 0.4924922881	-0.477963
C	-1.0610008904	-1.8897035922	 1.2135695804	-0.246882
C	 0.0163752465	-0.7671687729	 1.2880796394	-0.11479
C	 1.0751003093	-1.904121424	 1.1748428877	-0.246879
H	 0.899426456	 1.8847192472	 0.5646630135	 0.121946
H	-0.0056121423	 1.9548751438	-0.9604400251	 0.117915
H	-0.8570872733	 1.8965370674	 0.5956730585	 0.121956
H	-0.0417196468	-0.2296300614	-2.1185628749	 0.074536
H	-0.924436845	-2.6150425685	-1.5806658391	 0.097388
H	 0.8275486759	-2.6268865057	-1.6124472981	 0.097386
H	 0.8510146092	-4.655562077	-0.0099124685	 0.110813
H	-0.0047319547	-4.5479890394	 1.5373902935	 0.106682
H	-0.9169341114	-4.6436946	 0.0218870091	 0.11081
H	-2.0160624776	-1.6455014793	 0.7402305816	 0.089009
H	-1.2375910367	-2.3510842558	 2.1902561697	 0.086955
H	 0.0366898457	-0.1209239219	 2.1680227855	 0.051839
H	 1.2807303449	-2.3680802376	 2.1446012913	 0.086955
H	 2.0155855415	-1.6727138329	 0.6671377534	 0.08901
