17
gdb 84756	2.88026	1.4073	1.10462	1.7261	78.1	-0.2504	-0.0512	0.1991	1115.1946	0.138034	-418.051352	-418.043281	-418.042336	-418.084832	30.214	
C	-0.6575005716	 1.4102014922	 0.0503774468	-0.380352
C	 0.0008385402	 0.0125869738	 0.0398533744	-0.029022
C	 0.7448719198	-0.2054173382	-1.2527467352	-0.071678
C	 2.0277349865	 0.0121083032	-1.5524397334	-0.143675
C	 3.1082508323	 0.5281969974	-0.6936762662	 0.390086
O	 4.1807001245	 0.8689946969	-1.1566390973	-0.35653
N	 2.9180889054	 0.6070413552	 0.6861649727	-0.356172
C	 1.9101039355	 0.1167124475	 1.5155940823	 0.092856
N	 0.7044404177	-0.190152631	 1.2984766053	-0.23475
H	 0.1069639005	 2.1921120924	 0.0261049646	 0.128695
H	-1.3109030012	 1.5390982238	-0.8178407653	 0.119776
H	-1.2520625267	 1.5266903917	 0.9601625288	 0.133126
H	-0.8171590129	-0.7191667561	 0.0451751187	 0.099036
H	 0.1100722265	-0.5617619672	-2.0632224096	 0.112726
H	 2.3771624388	-0.1546694413	-2.565918461	 0.120578
H	 3.7736385613	 0.8805144976	 1.1520392276	 0.255487
H	 2.2784976235	 0.0022862621	 2.5377997669	 0.119812
