23
gdb 115727	2.73828	1.05095	0.82348	1.7909	86.06	-0.2391	0.0869	0.326	1484.0823	0.205588	-388.263069	-388.253402	-388.252458	-388.298686	35.599	
C	 0.0467477442	 1.6163850934	-0.0798460217	-0.388088
C	-0.261818137	 0.1242965574	-0.2385121926	-0.181492
C	 0.6799714181	-0.5441429999	-1.2277654752	 0.142384
O	 2.0560012948	-0.536358085	-0.7674816033	-0.294819
C	 2.1324670943	-1.9742007082	-0.792491387	-0.088009
C	 0.6957856011	-2.0987886365	-1.3501699488	-0.075241
C	-0.2923893909	-2.9255777082	-0.5741317622	 0.027897
C	-1.595476444	-3.3539395546	-1.2056171126	-0.271404
C	-0.5157944948	-4.373133146	-0.9444815431	-0.28322
H	 1.0817998357	 1.7575313704	 0.2440798946	 0.137227
H	-0.0841090547	 2.1502113617	-1.0278367859	 0.111407
H	-0.6108994717	 2.0819500451	 0.6602395882	 0.108419
H	-0.1805652799	-0.3738434908	 0.7344146554	 0.095655
H	-1.2931044776	-0.0197379141	-0.5856800068	 0.097534
H	 0.6051748731	-0.0335432714	-2.1994542212	 0.065959
H	 2.9390111412	-2.3330485514	-1.4435442357	 0.097082
H	 2.2769263124	-2.3967465031	 0.2113542718	 0.094599
H	 0.6842441297	-2.4168119808	-2.3971558078	 0.070397
H	-0.3344094806	-2.706747692	 0.4892909814	 0.084746
H	-2.4855809403	-3.3747826738	-0.5868304414	 0.113212
H	-1.778807726	-3.0632011674	-2.2349973472	 0.111297
H	 0.0267654825	-4.766988699	-1.7978023918	 0.111731
H	-0.6666246399	-5.0909605057	-0.146035097	 0.112725
