18
gdb 90329	2.86852	1.80183	1.70107	3.211	74.87	-0.2459	-0.0217	0.2241	904.2663	0.149408	-401.894961	-401.888103	-401.887159	-401.925816	28.333	
C	-0.1284400679	 1.5661931279	-0.1126001022	-0.388699
C	 0.0629539882	 0.0637652368	-0.0370966449	 0.107036
O	 0.8707554529	-0.3987126911	-1.2037729513	-0.268404
C	 2.0630385094	-0.4740999064	-0.5324174784	 0.255522
N	 2.8732246056	 0.504406298	-0.4632408558	-0.210553
C	 3.3153783945	 0.5519068156	 0.950496288	-0.186851
C	 2.2960957475	-0.3265590664	 1.6894604685	-0.07079
C	 0.793782089	-0.504029476	 1.2262727355	-0.098931
C	 1.8921099198	-1.3587578688	 0.6995757917	-0.150345
H	 0.8418395701	 2.0667405985	-0.1622169863	 0.149828
H	-0.7065150135	 1.8391078487	-0.9992791793	 0.126941
H	-0.6636090007	 1.9172214009	 0.7766487093	 0.113815
H	-0.8917709004	-0.4648506309	-0.1234003678	 0.096181
H	 4.3349191741	 0.1735897767	 1.1084596893	 0.113216
H	 3.3072951613	 1.605472761	 1.2497470151	 0.120079
H	 2.4664260265	-0.5783404073	 2.7318600874	 0.091089
H	 0.1400609667	-0.8503915898	 2.0209570152	 0.098002
H	 1.9916553471	-2.4362701673	 0.710835106	 0.102864
