21
gdb 84854	2.39644	1.74362	1.22766	1.8005	82.55	-0.2371	0.02	0.2571	1092.7626	0.184414	-387.090228	-387.082169	-387.081224	-387.122668	31.802	
C	-0.3322549442	 1.4795579822	 0.0127556612	-0.404671
C	 0.090836293	 0.0058097118	-0.0596416395	-0.042096
C	 0.9839095845	-0.282359181	-1.2458198723	-0.049827
C	 1.7435211976	-1.3751975363	-1.31288106	-0.068095
C	 1.7549098909	-2.3999399433	-0.2078792646	-0.283558
C	 1.5941125156	-1.763894724	 1.1718200209	 0.126081
O	 2.7894326478	-1.0537262969	 1.5716564378	-0.293445
C	 2.0831213578	 0.1977253605	 1.660832366	-0.076064
C	 0.7481501599	-0.4635964102	 1.2485755211	-0.066858
H	 0.534634619	 2.1374657461	 0.137117523	 0.121509
H	-0.847384668	 1.7821597359	-0.9047115125	 0.115646
H	-1.0117273022	 1.6560548411	 0.8529625606	 0.111603
H	-0.8285256355	-0.5899412293	-0.1807365538	 0.086212
H	 0.9765047044	 0.432721263	-2.0652125811	 0.080931
H	 2.3615549127	-1.5605212027	-2.1869442801	 0.087987
H	 0.9429695764	-3.1278692546	-0.3588170448	 0.105921
H	 2.6869164555	-2.9759072683	-0.2119000844	 0.115376
H	 1.3320306754	-2.5286326979	 1.914660882	 0.067367
H	 2.1120820325	 0.6156028072	 2.6748553734	 0.09453
H	 2.4838855956	 0.9379288775	 0.9569949325	 0.099162
H	 0.0078886714	-0.4722030711	 2.0523766445	 0.072291
