20
gdb 91028	2.13565	1.8596	1.59318	2.7233	78.02	-0.2175	0.0578	0.2753	991.5207	0.170863	-403.074305	-403.066128	-403.065184	-403.106259	33.017	
C	-0.0157987015	 1.4732313251	-0.1011312241	-0.473588
C	-0.0130979811	-0.0298050293	 0.0254358984	 0.357617
C	-1.3642190701	-0.7328541092	 0.3703437446	 0.060894
O	-2.0036072665	-1.3924809355	-0.6989535412	-0.421093
C	-0.6454152225	-1.5724946401	 1.4855769571	-0.302188
C	 0.6762623686	-0.8171032034	 1.1741447544	-0.078951
C	 1.5945040654	-1.4155798885	 0.0996424692	-0.040362
C	 0.8739235349	-2.097458686	-0.9895635462	-0.244695
N	 0.9232151064	-0.6225822019	-1.0234924804	-0.183096
H	 1.0076900973	 1.8568591766	-0.1468577437	 0.124004
H	-0.524115997	 1.771523023	-1.025292059	 0.129374
H	-0.5282230424	 1.9438065446	 0.744741674	 0.104746
H	-2.0428327196	 0.0041613559	 0.8231294421	 0.070275
H	-2.8576083265	-1.7097182537	-0.3888698745	 0.286638
H	-1.0394283511	-1.3942872187	 2.4893388898	 0.097546
H	-0.6213006375	-2.6502304708	 1.3055439386	 0.104234
H	 1.1804898148	-0.3065182747	 1.9936979389	 0.06915
H	 2.6771867808	-1.4508733636	 0.18043234	 0.089218
H	 1.4876718916	-2.5294034037	-1.7759119799	 0.114855
H	-0.0709738642	-2.6005623461	-0.8347690581	 0.135419
