19
gdb 20124	3.57939	1.49249	1.13994	1.8728	71.68	-0.2392	0.0814	0.3206	1068.7153	0.164366	-365.006005	-364.997643	-364.996698	-365.039054	30.768	
C	-0.5102942622	 1.9148072848	-0.3358044243	-0.398721
C	-0.1120255039	 0.453281925	-0.1238514708	 0.019018
N	-1.3080919971	-0.3625577443	 0.0872828703	-0.066615
C	-1.1504898938	-1.5673271041	 0.8950088846	-0.22346
C	-1.8591497815	-0.3753268078	 1.4372357172	-0.219946
C	 0.6191451916	-0.0834376328	-1.3385965741	 0.110176
O	 1.9497892782	 0.3974192232	-1.5317679094	-0.242165
C	 1.7689182589	-0.9887339799	-1.2324905117	-0.18402
H	 0.3768306966	 2.5188282194	-0.5434561968	 0.133177
H	-1.2027947277	 2.0026425981	-1.1788069598	 0.124279
H	-1.0050579932	 2.3168932935	 0.5532456176	 0.11379
H	 0.5779516804	 0.3926445663	 0.7386243696	 0.05736
H	-1.7058690583	-2.4390417607	 0.5612266379	 0.117014
H	-0.1650197549	-1.7841244676	 1.3043312349	 0.108399
H	-1.3425144688	 0.1984367143	 2.2055578024	 0.111114
H	-2.9428579416	-0.3578449486	 1.5083116028	 0.117611
H	 0.0146423281	-0.1230580062	-2.2461457263	 0.097509
H	 2.1195570217	-1.3012065787	-0.2493866905	 0.109755
H	 1.9960350074	-1.6768106438	-2.0454757535	 0.115724
