16
gdb 8475	2.98345	2.02552	1.5146	3.9658	66.46	-0.2338	-0.0053	0.2285	869.7947	0.12829	-383.731985	-383.723744	-383.7228	-383.764702	29.933	
C	 0.0201176879	 1.5636975251	-0.0033929866	-0.495862
C	-0.0424251807	 0.066307542	 0.0724833514	 0.130091
C	 1.1597342133	-0.8268621163	-0.2886929066	-0.397875
C	 0.5772903151	-1.0091351862	 1.0567914219	 0.386133
O	 1.2357304225	-0.8393367976	 2.2520457132	-0.449686
C	-0.6865468753	-1.8631695975	 0.9861070679	-0.407389
C	-1.2801496923	-0.7693840106	 0.0566051389	 0.382115
O	-2.3946838119	-0.5678146955	-0.3424104334	-0.321496
H	 0.9454354793	 1.9396828657	 0.4468315065	 0.115267
H	-0.0135098354	 1.91625733	-1.0399892024	 0.134805
H	-0.8224322454	 2.0143898507	 0.5292664425	 0.138438
H	 1.0925548043	-1.5946932539	-1.0568908645	 0.123012
H	 2.0856104653	-0.2550569894	-0.3249313758	 0.114835
H	 2.1588574435	-0.6315592053	 2.0793672088	 0.293758
H	-0.5899333924	-2.8845274365	 0.6044787478	 0.114841
H	-1.2347975778	-1.8771844745	 1.9326590204	 0.139012
