17
gdb 16238	2.94073	2.30353	1.482	1.8604	69.88	-0.2296	0.0133	0.2429	861.5669	0.143627	-363.841288	-363.834113	-363.833169	-363.872567	28.12	
O	 0.4288585381	 0.865249044	-0.7519539956	-0.428743
C	 0.0675399663	-0.2563926499	 0.0282403555	 0.045604
C	 0.4455419127	-0.186377239	 1.53072963	-0.301841
C	-0.6496232183	-0.9867693217	 2.1973337101	-0.089748
C	-1.6753554847	-1.211524003	 1.3742583675	-0.113439
C	-1.4325158836	-0.6111750432	 0.0373942318	 0.296115
C	-2.4330104647	 0.2090727666	-0.7041677619	-0.294148
N	-2.1026077448	-1.1540621817	-1.1528117057	-0.371703
H	 0.040004435	 1.6453631661	-0.3405461474	 0.278423
H	 0.604964197	-1.0947197132	-0.431506027	 0.10298
H	 1.4529003156	-0.5676940895	 1.726392568	 0.11236
H	 0.4388519287	 0.8596915922	 1.8742974044	 0.099628
H	-0.5952668955	-1.3041635444	 3.2323552921	 0.098198
H	-2.5898902831	-1.7418934265	 1.6110222037	 0.105387
H	-3.4369530203	 0.3343443101	-0.307225345	 0.115514
H	-2.0578085848	 1.0455450471	-1.287643056	 0.111257
H	-1.4661425035	-1.096299584	-1.9466079744	 0.234156
