16
gdb 69072	2.62878	1.67291	1.21537	4.181	74.4	-0.2679	-0.0198	0.2481	1027.1624	0.123581	-400.757967	-400.750026	-400.749082	-400.790174	30.315	
C	-0.0817216303	 1.5617871201	-0.0001097665	-0.491957
C	 0.1288666128	 0.0765870501	-0.0306216098	 0.306556
O	-0.6659602127	-0.7063500533	 0.8947759338	-0.313003
C	 0.7557173761	-0.7423447262	 1.0479160006	 0.216798
C	 1.4323935701	-1.9550586876	 0.4106306476	-0.347693
C	 1.0935619709	-1.7904868361	-1.055516078	-0.083563
C	 0.4103272665	-0.6711972526	-1.2988396681	-0.117385
C	 1.2773052838	-0.1783036649	 2.2675321638	 0.235923
N	 1.7195049312	 0.2656544539	 3.2393255595	-0.344915
H	 0.7418319505	 2.0761682351	-0.5049408726	 0.136916
H	-1.0113551829	 1.8211419808	-0.5173882091	 0.138563
H	-0.1470679341	 1.9238140216	 1.0279464706	 0.153371
H	 2.5138770654	-1.9412248061	 0.5896942787	 0.137506
H	 1.0465041999	-2.8910437189	 0.8300998002	 0.143314
H	 1.3688262558	-2.5340344327	-1.7940952208	 0.115916
H	 0.0655611872	-0.3268684331	-2.2659314799	 0.113653
