18
gdb 68840	2.78939	1.4467	1.23231	1.5869	72.66	-0.2311	0.0535	0.2847	1067.7478	0.146486	-439.01315	-439.004562	-439.003618	-439.045839	33.408	
O	-0.0920534304	 1.4263868466	 0.0163268864	-0.462605
C	 0.0051114537	 0.0494567801	-0.0247026286	 0.304246
C	-0.1740936061	-0.8240012963	 1.1984479127	-0.385602
C	-1.1292379382	-0.9760300425	 0.041915607	 0.268621
O	-2.4927285092	-0.864483665	 0.2303550905	-0.451617
C	-0.4718029523	-1.7690926882	-1.070566201	 0.306759
C	-0.534927997	-3.2218263382	-1.3199626138	-0.31665
N	-1.1853165265	-2.2576852845	-2.2443487004	-0.37889
C	 0.6792412552	-0.7417815707	-1.1605062264	-0.371901
H	 0.6179233665	 1.7705353779	 0.5691227545	 0.289133
H	 0.5361733686	-1.6052752569	 1.4615377082	 0.10713
H	-0.621967523	-0.2994677603	 2.0375559523	 0.119907
H	-2.8417987838	-0.2651670709	-0.4393691401	 0.296043
H	 0.3174222716	-3.7451826716	-1.7447418784	 0.118184
H	-1.1655574339	-3.825612374	-0.6719175812	 0.116325
H	-2.1861888313	-2.2403161499	-2.0501551372	 0.22609
H	 0.6488518135	-0.2038184126	-2.1110064855	 0.120644
H	 1.6932320625	-1.1097715832	-0.9721106289	 0.094182
