15
gdb 66968	2.63305	1.73901	1.30396	6.2244	68.54	-0.2404	0.0201	0.2605	965.2894	0.112904	-416.737493	-416.729946	-416.729002	-416.769554	28.852	
N	 0.0661817087	 1.4382010531	-0.079686752	-0.620913
C	 0.0634599177	 0.0316264322	-0.0172969132	 0.286218
C	-0.0893491573	-0.893787802	-1.2351020823	 0.065377
O	 0.5893383789	-2.1161956645	-0.9652735951	-0.273292
C	 0.0296435034	-2.0278393485	 0.3686124661	 0.055289
C	-1.0673457392	-1.0170808754	-0.1140190453	-0.219292
C	 0.8117968744	-0.8380047441	 1.0151697025	-0.193495
C	 2.2681218556	-0.8860080065	 1.0128855126	 0.281637
N	 3.4235161602	-0.9154407271	 1.0155591251	-0.331093
H	 0.0687708764	 1.8083426316	-1.0201249417	 0.246264
H	-0.6680460248	 1.8776677961	 0.4606058933	 0.242752
H	-0.1759549676	-0.5464768649	-2.2568669218	 0.119189
H	-0.0899593128	-2.9830205304	 0.8718572476	 0.107557
H	-2.143477822	-0.9615546967	-0.0346704563	 0.111642
H	 0.4392831083	-0.6317356931	 2.0220986205	 0.122159
