25
gdb 105076	2.37569	1.13336	1.05071	0.1258	92.32	-0.2415	0.0856	0.3271	1372.5938	0.228305	-352.33141	-352.321218	-352.320274	-352.366692	39.18	
C	-1.4991943226	-0.8226572336	 2.7664391594	-0.407491
C	-1.0736014862	-1.8742910641	 1.7365842473	-0.254134
C	 0.0421279525	-1.4945246382	 0.7617436021	 0.368001
C	 0.1332008706	-0.0793082648	 0.224560773	-0.290968
C	 1.1440511181	-0.5664850699	 1.2306128888	-0.318735
C	 0.4963220635	-2.5922587585	-0.1890155028	-0.087225
C	-0.2032060075	-3.925558226	-0.3435769375	-0.314935
C	-0.2089246423	-2.944294849	-1.487578432	 0.01908
C	-1.4907890178	-2.270274263	-1.9247031305	-0.408111
H	-0.6837265124	-0.5536192882	 3.4443218399	 0.120112
H	-1.864606133	 0.0957359217	 2.296286601	 0.11897
H	-2.3140225011	-1.2165904235	 3.3817923376	 0.113614
H	-0.7590828479	-2.7799335072	 2.2711274344	 0.102345
H	-1.9638628037	-2.1647376174	 1.163766373	 0.098618
H	 0.4543910523	 0.0404225906	-0.8044216898	 0.107903
H	-0.5923413761	 0.6580846627	 0.5493821631	 0.10559
H	 1.0980340918	-0.1584483078	 2.2334503645	 0.106969
H	 2.1532375073	-0.7698023783	 0.8869026176	 0.10531
H	 1.5791040303	-2.6592903568	-0.2584351135	 0.078981
H	 0.405075398	-4.8212818771	-0.4132114551	 0.103852
H	-1.1407075476	-4.0759278481	 0.1806327229	 0.108321
H	 0.4579083577	-3.1840446442	-2.3126638761	 0.075812
H	-2.1404568944	-2.0395284123	-1.0760487043	 0.120491
H	-1.2903966604	-1.3286768351	-2.4474755255	 0.114866
H	-2.056023599	-2.9148771319	-2.6073930275	 0.112762
