25
gdb 101686	2.58109	0.90824	0.83693	1.2445	89.04	-0.2587	0.0794	0.3381	1563.4141	0.226965	-389.48197	-389.470958	-389.470014	-389.517997	41.135	
C	-1.1546048434	 0.6870276018	 2.2476402721	-0.396161
C	-0.9021529479	 0.5141707652	 0.7436729726	 0.02962
C	 0.403725574	-0.2422810783	 0.4945461726	-0.070501
O	 1.4681680419	 0.4998983504	 1.0778049402	-0.424406
C	-2.1076169969	-0.1705957495	 0.0690548032	-0.272706
C	-2.0721929091	-0.2995902465	-1.450017123	 0.381516
C	-1.8917771611	 0.9974068085	-2.2183153389	-0.461525
C	-1.4939604907	-1.5598349777	-2.0561103097	-0.290294
C	-2.9875238316	-1.3362862387	-2.0592097683	-0.318504
H	-0.2986109186	 1.1621943238	 2.730833235	 0.13234
H	-2.0426611834	 1.3013012836	 2.4291057241	 0.104505
H	-1.3186499838	-0.2848696424	 2.7298152671	 0.103705
H	-0.7743975786	 1.5137093231	 0.3077239261	 0.082618
H	 0.3327774078	-1.2496971898	 0.9407366434	 0.075662
H	 0.5644611825	-0.372192478	-0.5846634799	 0.092687
H	 2.286748457	 0.0201735228	 0.9241687684	 0.284566
H	-2.2365202128	-1.170075517	 0.5072198042	 0.085705
H	-3.0082925811	 0.3946882636	 0.3468975512	 0.093333
H	-0.9170719162	 1.4574028543	-2.0224033653	 0.120843
H	-1.9629061228	 0.8275839458	-3.2972581492	 0.109336
H	-2.6634181466	 1.7274675845	-1.9453674394	 0.113281
H	-0.9629630355	-1.4800490499	-2.9993264465	 0.10572
H	-1.0965747268	-2.3182771808	-1.3896575341	 0.106321
H	-3.5941212174	-1.9396394785	-1.3915421662	 0.106539
H	-3.4675847987	-1.1035281003	-3.0040634497	 0.105799
