14
gdb 47261	2.42326	1.76987	1.13741	3.5189	64.52	-0.2506	-0.098	0.1525	1012.0643	0.100605	-473.832686	-473.82485	-473.823906	-473.866106	27.805	
O	-0.0545802612	 0.1211272374	 0.6271798795	-0.253328
C	-0.0003435395	 1.2435536418	 0.2010518299	 0.301837
C	-1.1507990512	 2.2355102318	 0.3655308268	-0.196907
O	-1.5228798509	 2.884949846	-0.8505025893	-0.214905
C	-0.6825041555	 3.7712053412	-1.4472143487	 0.139292
N	 0.5484053536	 4.0093807825	-1.3221842544	-0.251717
C	 1.4892661491	 3.2873446648	-0.4778382341	-0.280347
C	 1.297578702	 1.771248296	-0.4748621302	 0.296591
O	 2.0951854772	 0.9986998666	-0.9332685851	-0.255737
H	-2.0325445266	 1.6860632032	 0.6948007281	 0.156936
H	-0.8920610118	 2.9820613104	 1.1283809581	 0.138493
H	-1.2593874597	 4.343232488	-2.173093671	 0.140856
H	 2.4991372851	 3.4840624646	-0.8461976518	 0.147395
H	 1.4433970094	 3.6574727256	 0.5564323621	 0.131541
