17
gdb 128840	5.84987	0.68079	0.65003	3.1909	71.45	-0.2626	-0.0399	0.2227	1693.9484	0.134766	-455.110599	-455.101724	-455.100779	-455.145791	30.562	
C	-0.0167709519	 1.3822634227	 0.0450503001	-0.231504
O	-0.054733825	-0.0234108706	-0.0343107282	-0.229682
C	 0.6920044313	-0.5322275452	-1.1133639991	-0.047065
C	 0.5498233934	-2.0564527591	-1.1016239336	-0.324151
C	 1.2865041328	-2.7058893694	-2.2241468689	 0.242986
C	 2.3979087803	-3.4877840199	-2.2509453215	-0.049839
O	 2.6788170483	-3.8186081876	-3.5086683574	-0.161083
N	 1.6725676888	-3.1962503059	-4.3139633828	-0.001352
N	 0.8997734709	-2.5724948849	-3.5460705779	-0.167566
H	 1.0093786078	 1.7556645878	 0.1899903812	 0.105297
H	-0.4280258091	 1.8533363775	-0.8613488666	 0.108977
H	-0.6243362894	 1.6772468286	 0.9037831971	 0.129775
H	 0.327548864	-0.1290085506	-2.0721373969	 0.109963
H	 1.7550231486	-0.249137747	-1.0237911783	 0.087857
H	 0.917319022	-2.441639503	-0.1458615889	 0.120874
H	-0.5151835323	-2.3037354464	-1.1620119604	 0.137573
H	 3.0504358097	-3.870135627	-1.4830515278	 0.16894
