19
gdb 94125	1.87362	1.50206	1.28127	0.8667	87.77	-0.2517	0.0312	0.2829	1157.3028	0.156279	-348.678106	-348.668508	-348.667564	-348.711991	36.608	
C	-0.0982071317	 1.570834376	-0.0663899745	-0.422749
C	 0.0515118723	 0.0628567864	-0.0141198215	 0.027222
C	 1.0713621506	-0.6558208628	-0.9330776399	-0.242783
C	 1.3670352688	-1.6526061697	 0.2113856468	-0.246273
C	 0.759800396	-0.619173397	 1.2403750928	-0.061176
C	 1.7993108619	 0.2186332823	 1.8300233719	 0.316968
C	 2.6703637768	 0.9055285279	 2.2934274339	-0.477012
C	-0.1306102046	-1.1533252741	 2.2605702131	 0.23913
C	-0.8958322447	-1.6107431872	 3.0671860027	-0.427432
H	 0.8649127849	 2.0695087983	 0.0740318748	 0.128888
H	-0.5049325536	 1.8779865227	-1.036278641	 0.1148
H	-0.7807655214	 1.9283530579	 0.7118226627	 0.124763
H	-0.9261421056	-0.4193764052	-0.10846618	 0.089678
H	 0.6957474942	-1.0642605697	-1.8732186829	 0.101116
H	 1.934535078	-0.0182933347	-1.1448428714	 0.112897
H	 0.7361314721	-2.5423444097	 0.1636023059	 0.117089
H	 2.4014322357	-1.9461548162	 0.3918584466	 0.116243
H	 3.4340940431	 1.5081277752	 2.7191737412	 0.196488
H	-1.5610044026	-2.0090024403	 3.792678059	 0.192142
