22
gdb 118130	3.59717	0.74805	0.67501	1.0795	79.56	-0.2262	0.0688	0.295	1712.4648	0.191747	-441.438516	-441.42765	-441.426706	-441.475047	38.741	
C	 2.8928190113	-0.5997527873	 0.1607338285	-0.309072
N	 1.5386372847	-1.1176393336	 0.3101734486	-0.087682
C	 1.3088756147	-2.1594689533	 1.3007961169	-0.256726
C	 0.7635702577	-0.7846472366	 1.501891207	-0.004368
C	 1.2796234008	 0.120410669	 2.6030916024	 0.093513
O	 1.3628068311	 1.4764826377	 2.1522418219	-0.436483
C	 0.4200285503	-0.0061702154	 3.8656717202	-0.187065
C	 0.9153477145	 0.8642381037	 5.013355085	-0.07922
O	 0.033443797	 0.6739433921	 6.1107902163	-0.423883
H	 3.518414235	-0.6893115645	 1.0623158383	 0.099042
H	 3.3873896488	-1.1520195798	-0.6444563963	 0.118391
H	 2.8454635966	 0.4569275879	-0.1143368181	 0.134777
H	 0.6607030499	-2.9798241016	 1.0033806971	 0.114744
H	 2.1472407927	-2.4524939085	 1.9340373786	 0.103677
H	-0.2951774701	-0.6229886445	 1.2845563241	 0.080666
H	 2.3134957536	-0.1441983805	 2.8494365741	 0.086021
H	 0.4914716765	 1.7282669365	 1.8247484488	 0.278941
H	-0.6174529608	 0.2714089618	 3.6346159583	 0.096731
H	 0.3989845533	-1.0529363482	 4.1902410366	 0.111078
H	 1.9470793184	 0.5763563506	 5.2765087443	 0.081945
H	 0.9426966536	 1.9139464507	 4.6905305424	 0.09967
H	 0.3070519003	 1.2635260238	 6.8192774551	 0.285303
