16
gdb 131851	5.94825	0.77252	0.69728	6.3916	70.95	-0.2168	-0.0078	0.209	1532.0651	0.12359	-471.172243	-471.163406	-471.162462	-471.206843	31.236	
O	 0.0716441035	 1.3152700649	-0.2816555876	-0.423593
C	-0.0415485312	-0.0566847788	 0.0790427527	-0.095315
C	-1.5264762883	-0.3714979096	 0.1543062225	-0.136301
N	-2.1410724623	-0.0636414714	-1.1289414244	-0.398649
C	-3.3887744104	-0.4731129597	-1.4538316469	 0.5208
C	-4.230979303	-0.0979511229	-2.4884232822	-0.247497
N	-5.3423598746	-0.8714803236	-2.3751387009	-0.075823
N	-5.3065814757	-1.6637590618	-1.4188171926	-0.050121
O	-3.9590761117	-1.4206402652	-0.7394159292	-0.252472
H	 0.9936509765	 1.5100798359	-0.4714158205	 0.298132
H	 0.4345030296	-0.7041726043	-0.6711861617	 0.106343
H	 0.4215523094	-0.2578969704	 1.0556594325	 0.104332
H	-1.6736309433	-1.4307871712	 0.3774086817	 0.141532
H	-1.9828850412	 0.2096817787	 0.9685800486	 0.123628
H	-1.8207861125	 0.7986752463	-1.5438266542	 0.264268
H	-4.1041400948	 0.6371918429	-3.2630128379	 0.120736
