17
gdb 73326	3.01149	1.98238	1.42891	2.5079	70.65	-0.2266	0.0641	0.2907	901.6812	0.136301	-421.713992	-421.707298	-421.706354	-421.744543	28.265	
O	 0.0370817492	 1.4982930284	 0.1053050994	-0.479491
C	-0.0095452301	 0.1081974867	 0.0294830578	 0.353808
C	 0.8224925522	-0.7001720802	 1.0929265431	-0.276019
C	 0.4506964387	-2.2019863307	 0.7655004668	-0.353613
C	-0.4738825483	-1.8419741742	-0.3731538222	 0.480812
O	-1.3635200939	-2.3842054118	-1.3840579804	-0.398242
C	-1.3977996013	-0.8929201147	-1.5556136616	 0.015941
C	-1.362014343	-0.6099850379	-0.0341509336	-0.143388
C	 0.1143172816	-0.719142424	-1.2733054116	-0.184731
H	 0.9580845397	 1.7763348522	 0.0554286743	 0.279424
H	 1.8971386711	-0.5170338717	 0.9840836988	 0.098019
H	 0.5350818809	-0.4160886477	 2.1090175204	 0.114949
H	 1.3161019153	-2.7966298351	 0.462163488	 0.114556
H	-0.0473322508	-2.7037279239	 1.5989438447	 0.116841
H	-2.0395467298	-0.5200275648	-2.3510055579	 0.100594
H	-2.1918934718	-0.6054489206	 0.6712397884	 0.083039
H	 0.9466007402	-0.8441304902	-1.9658896144	 0.077502
