16
gdb 37819	3.07867	2.03485	1.74419	1.9652	72.71	-0.2265	-0.0154	0.2111	828.7342	0.12591	-400.615157	-400.609078	-400.608134	-400.645219	25.792	
C	-0.0394040553	 1.4955142298	-0.2143736629	-0.418455
C	 1.4177793031	 1.8919269186	 0.0662742217	-0.045246
C	 2.168961501	 0.9279929997	 0.6304765485	-0.227995
C	 1.3202203964	-0.2712708798	 0.8216899675	 0.391355
O	 0.585817572	-0.5433928119	 2.0779828904	-0.355672
C	-0.2632498765	-1.1104840362	 1.0489084024	 0.031568
C	 0.9181370672	-1.6410845176	 0.1625676801	-0.145275
N	 0.3582393698	-1.0179320552	-1.0794631668	-0.37298
C	 0.0489092664	-0.0055685647	-0.0100021508	 0.259864
H	-0.7159713243	 1.9873829201	 0.4944825529	 0.137574
H	-0.3708941114	 1.7727132231	-1.2206590409	 0.125482
H	 1.7839323181	 2.8900876489	-0.1579063205	 0.108704
H	 3.2045852433	 1.038929274	 0.9279061036	 0.111938
H	-1.1927738166	-1.5979471761	 1.341980888	 0.100709
H	 1.4073012098	-2.6159106146	 0.1862189375	 0.089774
H	 1.131216807	-0.6743557181	-1.6577766506	 0.208653
