17
gdb 40933	3.87392	1.34294	1.21206	2.4769	67.46	-0.2492	0.0484	0.2975	1040.5995	0.136069	-458.88781	-458.880512	-458.879568	-458.919982	27.636	
C	 0.3117637352	 1.5268301991	-0.2870795409	-0.097882
O	 1.6404373846	 1.3448730743	 0.2769380172	-0.288833
C	 1.3296791506	 0.0052498319	 0.6968922917	-0.026268
C	-0.0681786321	 0.078994463	 0.0574737718	 0.058817
O	 0.3133500111	-0.8677536239	-0.9592077165	-0.325957
C	 1.6261293066	-1.0428167646	-0.3880686473	 0.352199
C	 2.875813478	-0.9608572951	-1.2706535913	-0.131772
O	 3.3673983786	-2.2099251426	-0.7308003296	-0.274428
C	 2.1141029266	-2.4645621208	-0.0648491183	-0.13608
H	-0.2447379569	 2.2956177865	 0.2626647948	 0.110154
H	 0.3300991853	 1.7636722505	-1.3556185916	 0.119684
H	 1.5961916877	-0.1997959238	 1.7351980059	 0.094135
H	-1.0334442419	-0.1439597299	 0.5124497451	 0.097142
H	 2.6492726664	-1.0303560891	-2.3423829352	 0.110389
H	 3.5510088529	-0.1199881136	-1.0837266851	 0.123517
H	 2.2462297027	-2.7264364049	 0.991976132	 0.104949
H	 1.5186211147	-3.2387612372	-0.5665732827	 0.110234
