23
gdb 101688	2.66314	0.92204	0.84016	2.3162	81.83	-0.2386	0.0643	0.3029	1513.5576	0.202887	-425.405856	-425.394922	-425.393978	-425.44219	40.276	
C	-1.4712112602	-0.2867744536	-0.0262490346	-0.397866
C	 0.0474321613	-0.2101746892	 0.1709025821	 0.009293
C	 0.5014007211	-1.1528680602	 1.2949118213	-0.05998
O	-0.1440197023	-0.8889379519	 2.5348679785	-0.421803
C	 0.7835059909	-0.4820346004	-1.1552729234	-0.239139
C	 2.2840984425	-0.2728644891	-1.1219506	 0.428469
O	 2.5718722261	 1.0022890012	-0.5981885871	-0.47283
C	 3.224038391	-1.4176357092	-0.8399718419	-0.31877
C	 3.1322964867	-0.8202452871	-2.2370332094	-0.34253
H	-1.8195987813	 0.4709706911	-0.7355458512	 0.105883
H	-1.7662154662	-1.2693506048	-0.415368974	 0.1063
H	-1.9875882609	-0.1388846981	 0.9249789886	 0.124029
H	 0.3093567219	 0.8107297056	 0.4811060085	 0.083495
H	 0.2382753906	-2.188466528	 1.0442423614	 0.098208
H	 1.5930250228	-1.1086264255	 1.4071311525	 0.094997
H	 0.124179147	-0.0083046645	 2.8165949394	 0.279854
H	 0.580137166	-1.5069671024	-1.4905136265	 0.092199
H	 0.3640608747	 0.183371197	-1.920708841	 0.102897
H	 3.5232086914	 1.1418046399	-0.6243202159	 0.280443
H	 4.1183797633	-1.206942048	-0.2606993985	 0.106052
H	 2.8162010763	-2.4090309303	-0.6734969518	 0.118592
H	 2.6586468923	-1.4021899595	-3.0209035675	 0.116598
H	 3.965536425	-0.2139631729	-2.5801629594	 0.105609
