23
gdb 86616	2.98649	1.11208	1.00091	1.6566	85.3	-0.2621	0.0782	0.3403	1325.1774	0.205194	-388.264042	-388.254543	-388.253599	-388.298302	36.147	
C	 0.0695998929	 1.5526160051	-0.2148910296	-0.41301
C	 0.0925570251	 0.0474045327	 0.0061561419	 0.04304
C	 1.0135377965	-0.8299160711	-0.8834051528	-0.262625
C	 1.2971246118	-1.7253422903	 0.3498730711	-0.002983
C	 2.6808908398	-2.2823665175	 0.5508567968	 0.059912
C	 3.5336507406	-2.6998334073	-0.5705721301	-0.183825
O	 3.7937401327	-1.482766811	 0.1315147183	-0.231031
C	 0.7805314175	-0.565870965	 1.2746554149	-0.026096
C	 1.868717301	 0.2885916319	 1.9224058884	-0.398205
H	 1.0746770523	 1.9842203317	-0.1773014059	 0.117609
H	-0.354214765	 1.7909945482	-1.1970893091	 0.111452
H	-0.5418635791	 2.0613708456	 0.539123336	 0.111265
H	-0.932442882	-0.3374646052	-0.0504735498	 0.066721
H	 0.5718327643	-1.2997138413	-1.766029118	 0.089011
H	 1.9172006163	-0.2899416643	-1.1819199691	 0.115245
H	 0.5918726406	-2.5642672656	 0.3899659289	 0.072812
H	 2.84614718	-2.7798991573	 1.5090946461	 0.088182
H	 4.272321291	-3.4876297639	-0.4293048154	 0.112397
H	 3.1729457143	-2.5793149807	-1.5910558079	 0.114506
H	 0.0765849027	-0.8903486956	 2.0480820519	 0.058965
H	 2.6325293056	 0.6000559632	 1.2052826702	 0.137723
H	 1.4376850269	 1.1870089302	 2.3767531131	 0.108334
H	 2.3787252844	-0.2682436326	 2.7156028701	 0.110602
