16
gdb 26488	3.71202	1.32109	1.07395	2.2248	71.11	-0.2432	-0.0097	0.2335	1107.6716	0.124294	-437.896647	-437.88883	-437.887886	-437.929746	28.91	
C	 0.2153043456	 1.3657735291	 0.4587987905	-0.474991
C	-0.030208353	-0.0363157723	-0.0473387249	 0.270803
C	 0.5228745594	-0.4972877513	-1.3294179645	-0.211072
O	 1.137207598	-0.8849565866	-0.101125904	-0.264642
C	-1.2485987919	-0.7205219657	 0.4514949739	 0.39057
N	-1.9139577732	-1.6913763819	-0.0932788954	-0.314073
C	-2.9270169694	-1.9734640363	 0.8099608589	-0.114156
C	-2.8224872926	-1.1352028966	 1.8675781744	-0.043949
O	-1.7476088334	-0.3224440464	 1.6516612489	-0.174316
H	 1.1514435862	 1.7454929052	 0.0443197695	 0.131667
H	-0.5998172076	 2.0357647405	 0.1673865252	 0.129856
H	 0.2872314163	 1.3766076539	 1.5496525528	 0.141949
H	 0.0141949863	-1.2924660736	-1.8686254825	 0.142438
H	 1.088488698	 0.2099702058	-1.9351889028	 0.111992
H	-3.6526750375	-2.7500486744	 0.6282634418	 0.128694
H	-3.3721616312	-0.9776917395	 2.7792251984	 0.149229
