11
gdb 130835	4.64384	1.13964	0.91507	0.8705	58.72	-0.2971	-0.1331	0.164	1127.1644	0.064892	-484.847341	-484.839971	-484.839027	-484.880456	24.691	
O	-0.090205662	 0.0200442298	 0.0026162754	-0.185174
C	-0.0477143348	 1.2161267807	 0.0089462713	 0.067194
C	 1.3338094328	 1.9160132536	-0.0019129841	 0.35562
O	 2.3785452267	 1.3338045935	-0.0157901826	-0.258254
N	 1.2962303089	 3.338144152	 0.005830993	-0.059521
C	 2.3318744991	 4.2205977462	-0.0005019201	 0.102626
N	 1.8553795991	 5.4343882768	 0.0109521911	-0.212938
N	 0.4846610452	 5.2980601399	 0.0246137152	-0.062258
N	 0.1380420827	 4.0689613701	 0.0216481283	-0.110926
H	-0.9339616954	 1.8708754235	 0.0210609526	 0.159444
H	 3.3662320277	 3.921156204	-0.0129171302	 0.204185
