20
gdb 15832	5.35318	0.94212	0.88625	1.4846	71.71	-0.2634	0.0852	0.3486	1368.8064	0.175716	-386.122788	-386.113667	-386.112723	-386.156963	33.058	
C	-0.0967511658	 1.5756700344	-0.0918223825	-0.383008
C	-0.0248693872	 0.0476344126	-0.0397078087	-0.16674
C	 0.7542763436	-0.5562837796	-1.2113922591	-0.179501
C	 0.7822823484	-2.0923391231	-1.190287202	 0.085849
O	-0.5223625162	-2.6474810048	-1.2106214484	-0.435131
C	 1.5975597246	-2.6401000603	-2.3534499138	 0.06489
C	 1.3706142372	-3.985118468	-2.8875859403	-0.187688
O	 0.8447096448	-2.8281097102	-3.5609450965	-0.251419
H	 0.9031440906	 2.0240148575	-0.0708573635	 0.110504
H	-0.5910261349	 1.9179983032	-1.0079688688	 0.113918
H	-0.6582668352	 1.9767890071	 0.7577389653	 0.112038
H	 0.4430089565	-0.2668962279	 0.9030631053	 0.090811
H	-1.0335259718	-0.3783001665	-0.0353810457	 0.114582
H	 0.3135761607	-0.2290564406	-2.1636906267	 0.099683
H	 1.7881540576	-0.1834777824	-1.2053687573	 0.088321
H	 1.2413257431	-2.4299838564	-0.2509032264	 0.09023
H	-0.8057611873	-2.6025496473	-2.1349874561	 0.288575
H	 2.575041431	-2.18064904	-2.5039737907	 0.095443
H	 2.1714329062	-4.4982821656	-3.4163142098	 0.118982
H	 0.623203624	-4.6187967521	-2.4172846145	 0.12966
