18
gdb 65077	2.05575	1.88155	1.16033	2.3026	72.49	-0.246	-0.0273	0.2186	1074.5497	0.146071	-439.045688	-439.036924	-439.03598	-439.078939	33.473	
O	 0.1582504801	 0.9941724919	-1.000512975	-0.463198
C	-0.0162871812	-0.0457766403	-0.0597267296	 0.28782
C	 1.1979111141	-0.8772716167	 0.2597915522	-0.337963
C	 0.6952862462	 0.155722091	 1.2488163384	-0.29097
C	-1.4150449634	-0.6207678134	-0.1124746932	 0.172395
C	-2.5534843416	 0.33161449	-0.3503236727	-0.263967
N	-2.1595463329	-0.6034154837	-1.3975095451	-0.354463
C	-1.7756844898	-1.8211890867	 0.6990058506	 0.129912
O	-1.1191266794	-2.3041027498	 1.5891725826	-0.280226
H	 0.6580688662	 0.6417125232	-1.7437012321	 0.291258
H	 1.0653789215	-1.9198958045	 0.5152292654	 0.144984
H	 2.1012785616	-0.6432164861	-0.2951430967	 0.106474
H	 1.2511619779	 1.0812488009	 1.3417902336	 0.119532
H	 0.2263188009	-0.2136374952	 2.1514547593	 0.139556
H	-3.5238787	 0.1447303216	 0.1015891125	 0.124285
H	-2.2724056921	 1.3752617248	-0.4500108009	 0.143735
H	-1.5859178039	-0.099553759	-2.0709103974	 0.233003
H	-2.7594823042	-2.2447344082	 0.401560718	 0.097834
