14
gdb 2525	3.43242	2.13097	1.39606	4.223	55.26	-0.2483	-0.046	0.2024	839.3759	0.10998	-361.705669	-361.697364	-361.696419	-361.739556	26.927	
C	-0.446586871	 1.3208931103	 0.2129493562	-0.319356
N	 0.0346277857	-0.057047595	 0.1711483006	-0.312896
C	 0.7170902763	-0.4110635293	-1.0596308851	-0.130577
C	 1.5745460561	-1.6558055554	-0.8269867753	 0.145141
O	 1.7803239027	-2.5082752801	-1.6452363852	-0.221003
C	-0.3022924796	-0.6941732733	-2.16677528	 0.183671
O	-0.230653863	-0.2538752773	-3.2802826786	-0.231593
H	 0.3433404481	 2.0715989218	 0.0405798053	 0.108729
H	-1.2152371651	 1.4685669542	-0.5525932154	 0.140388
H	-0.9057650616	 1.5137332311	 1.1858587293	 0.129591
H	 0.6334803157	-0.2401350955	 0.9695573258	 0.225137
H	 1.4030515124	 0.3725018278	-1.4397881977	 0.10591
H	 2.021526182	-1.7071229885	 0.1951287584	 0.081485
H	-1.1381082789	-1.3444773809	-1.8293341384	 0.095374
