19
gdb 128679	3.13602	1.24226	0.90485	1.9584	80.02	-0.2054	0.0366	0.2419	1306.0606	0.158471	-419.237328	-419.227198	-419.226254	-419.273403	34.931	
C	 0.0667457271	 1.397503099	-0.0275288419	-0.231724
O	 0.051455306	-0.0248061009	 0.0007539355	-0.266673
C	 0.6300324936	-0.6347108601	-1.0514313094	 0.409622
N	 1.1945267876	 0.0206367798	-2.0533371659	-0.334273
N	 1.6340297336	-0.97663936	-2.8659506141	-0.29872
C	 1.3526232712	-2.2207240608	-2.3972476514	 0.31949
C	 1.7634750748	-3.455301847	-3.130734498	-0.500933
C	 0.6887398721	-2.0457788105	-1.1958121604	-0.014521
C	 0.1496886021	-3.067578069	-0.2462395908	-0.511794
H	 1.0931532685	 1.7795156591	-0.0480561227	 0.12938
H	-0.4604376938	 1.7794263489	-0.9085276563	 0.128962
H	-0.4377012913	 1.7234795254	 0.8835225929	 0.122141
H	 2.0964588085	-0.7336285569	-3.7239894394	 0.262966
H	 2.8130203759	-3.713880693	-2.9452662353	 0.139193
H	 1.1556602481	-4.3075429146	-2.8178843446	 0.142189
H	 1.6382341734	-3.337924969	-4.2126210995	 0.128488
H	 0.7378394619	-3.1209478753	 0.6779903455	 0.128956
H	-0.8786463062	-2.8312064264	 0.0469728646	 0.133063
H	 0.1491141972	-4.0670273487	-0.6913042688	 0.114189
