19
gdb 126749	4.85443	0.91694	0.81419	1.9274	80.4	-0.1966	0.0235	0.2201	1463.1173	0.161036	-415.418602	-415.409315	-415.408371	-415.45343	32.872	
C	 0.0436244521	 1.4892616486	 0.0807635808	-0.372274
C	-0.0604507026	-0.0231152715	-0.1163737981	-0.142307
N	 0.7277709102	-0.492870844	-1.2395181754	 0.059234
C	 1.8179269036	-1.2733239956	-1.2580050309	 0.003152
N	 2.2541017487	-1.4546027762	-2.4935912072	-0.344129
C	 1.359374217	-0.727460622	-3.2251314482	 0.443836
N	 1.4604591322	-0.5837617131	-4.5883256137	-0.371486
C	 2.1780401616	-1.5850166994	-5.3597062153	-0.318902
N	 0.4042155971	-0.1277138269	-2.5167614286	-0.368312
H	 1.0744773268	 1.7848414143	 0.2966760759	 0.126072
H	-0.2824754468	 2.0089124451	-0.8227150936	 0.152228
H	-0.5901160382	 1.8032830386	 0.9154489391	 0.119026
H	 0.2945839532	-0.560923036	 0.7678802996	 0.119566
H	-1.1021466234	-0.3140878772	-0.2876314614	 0.130316
H	 2.2554611157	-1.6890426903	-0.3620488807	 0.134916
H	 0.6098518417	-0.2380465884	-5.0064403762	 0.244132
H	 2.2761565636	-1.232862806	-6.3896549179	 0.117695
H	 3.1764747362	-1.7144064702	-4.938688034	 0.156131
H	 1.6864631413	-2.5695892298	-5.3685646342	 0.111109
