12
gdb 20748	7.51468	1.28927	1.10805	4.5043	65.18	-0.2855	-0.0694	0.2161	994.0972	0.084169	-377.534186	-377.527286	-377.526342	-377.565532	24.343	
C	-0.0011439721	 1.5141853475	-0.0280495725	-0.499213
C	-0.0010996206	 0.0213344595	 0.0355473189	 0.391778
N	-0.0802407288	-0.6926687736	-1.0660639662	-0.16802
O	-0.0573839778	-2.021618193	-0.6836173421	-0.202919
C	 0.0364516005	-2.0769566014	 0.6620239945	 0.355406
C	 0.0767705444	-0.8202455681	 1.1826392752	-0.406096
C	 0.07522435	-3.3547126277	 1.2712395487	 0.243023
N	 0.108291551	-4.3894346957	 1.7882011382	-0.319196
H	 0.9163108561	 1.9220770855	 0.4074694434	 0.14843
H	-0.073635058	 1.8430247561	-1.065953879	 0.160658
H	-0.8456117272	 1.9273517745	 0.5322454931	 0.148406
H	 0.1502280826	-0.5401055137	 2.219957668	 0.147742
