18
gdb 94055	3.25393	1.0415	0.99013	5.8883	72.25	-0.2617	0.0408	0.3025	1252.2132	0.147973	-439.103282	-439.094524	-439.09358	-439.137435	31.937	
O	-0.7599311899	 1.3083476123	 0.7018619394	-0.430079
C	-0.0996915082	 0.1508823566	 0.1996150071	 0.101883
C	 0.6414675752	-0.6317778801	 1.2874016317	-0.087212
O	-0.3299664586	-1.4424711152	 1.9378383535	-0.264654
C	-1.5057007158	-1.5561954683	 1.1369169431	 0.131705
C	-2.694181425	-0.9060963589	 1.8783168263	-0.353931
C	-2.952772944	-1.5234319066	 3.1760189698	 0.267968
N	-3.1707016707	-2.0178950355	 4.1973110497	-0.310775
C	-1.1849463077	-0.852905503	-0.1972540174	-0.268358
H	-0.1027174785	 1.883329737	 1.1069214702	 0.288838
H	 0.5605710517	 0.41187596	-0.6380157765	 0.076913
H	 1.4279230395	-1.2588304604	 0.8397914356	 0.098687
H	 1.1114674641	 0.0220885736	 2.0315541444	 0.104314
H	-1.7194468832	-2.6212116157	 0.9910263257	 0.095762
H	-2.4808352565	 0.1583321668	 2.0109923008	 0.168588
H	-3.5995120321	-0.9916402352	 1.2659751985	 0.142329
H	-2.045960689	-0.3562122306	-0.6484582519	 0.123317
H	-0.7822279412	-1.5704521769	-0.9170487599	 0.114705
