22
gdb 93899	2.82397	1.46242	1.16711	0.4752	81.92	-0.2154	0.0882	0.3036	1156.7666	0.195232	-404.327694	-404.319028	-404.318084	-404.360767	34.124	
C	-0.6647236632	 0.9844559402	-1.5321816523	-0.402906
C	-0.1898805314	-0.3583976909	-0.995507456	 0.098327
O	 0.7869552485	-0.8733265586	-1.8904151184	-0.254092
C	 1.2048095791	-2.1640550585	-1.4810909235	-0.094952
C	 2.026490905	-2.1199075861	-0.1770568773	 0.044186
C	 3.5186500766	-1.9000239747	-0.4313018238	-0.393044
N	 1.5008821814	-1.1359910035	 0.7965816414	-0.112582
C	 1.7531964884	 0.2912049756	 0.5774205591	-0.250742
C	 0.3864809677	-0.2641726692	 0.4094443451	-0.012568
H	 0.1665864347	 1.6929103268	-1.5826847437	 0.125766
H	-1.0817128419	 0.8648743831	-2.5359441951	 0.123357
H	-1.4382842247	 1.4035090436	-0.8814239426	 0.117132
H	-1.0443733549	-1.0589009563	-0.9719543917	 0.065426
H	 0.3203602783	-2.8082285143	-1.3484261507	 0.087035
H	 1.801753963	-2.5789632454	-2.299375484	 0.10414
H	 1.9132368275	-3.0988291031	 0.3076406655	 0.080819
H	 3.6960403915	-1.0164314696	-1.0517225177	 0.124575
H	 4.0543747613	-1.7716127452	 0.5135526689	 0.124506
H	 3.9429292675	-2.7647652257	-0.9513572518	 0.111746
H	 2.0203731968	 0.8556811505	 1.467314028	 0.107653
H	 2.2643234916	 0.5981215754	-0.3307980775	 0.121239
H	-0.356330123	-0.1120025242	 1.1920206081	 0.084978
