23
gdb 100350	2.14573	1.08438	0.93135	3.4243	82.53	-0.2386	-0.0148	0.2238	1422.0341	0.201237	-425.433123	-425.421699	-425.420755	-425.470087	40.541	
C	-0.0173005893	 1.5707994811	 0.1492938567	-0.395747
C	-0.0884662753	 0.0475252109	 0.0146296555	-0.202978
C	 0.6529420217	-0.5408772267	-1.207935981	 0.338282
C	 0.5553792515	-2.0755102576	-1.1847844396	-0.436092
C	 0.0574839724	 0.0064306762	-2.5247187165	-0.294556
C	 0.6970437387	-0.5758030729	-3.7665471596	 0.15142
O	 0.0813286652	-1.0267763972	-4.7001370438	-0.252289
O	 2.0174821389	-0.0929145834	-1.2520624011	-0.279296
C	 2.898565448	-0.5567002742	-0.2510467492	-0.24778
H	 1.0184143262	 1.9188480171	 0.1086203773	 0.13004
H	-0.5705170367	 2.0782851588	-0.6467791513	 0.120163
H	-0.4495896912	 1.8924932538	 1.1013619592	 0.112915
H	 0.3205268095	-0.4171163309	 0.9201261523	 0.096638
H	-1.1341739039	-0.2790819749	-0.0354411189	 0.100618
H	-0.4809067163	-2.3881016538	-1.3426337116	 0.127711
H	 1.1655619634	-2.5203994686	-1.9766982471	 0.129236
H	 0.8818673325	-2.4886828875	-0.2264013363	 0.117277
H	-1.0206297088	-0.1683616851	-2.5714610164	 0.11324
H	 0.2378759221	 1.0884033268	-2.5529232489	 0.128373
H	 1.8070006512	-0.5453701366	-3.7674320638	 0.091522
H	 3.8578463028	-0.0671736123	-0.4375625452	 0.130165
H	 2.5680820799	-0.2909247545	 0.7623848446	 0.109151
H	 3.0510467973	-1.6431848884	-0.2933962353	 0.111986
