20
gdb 96407	2.55913	1.41681	0.96944	4.2315	80.69	-0.2292	0.0268	0.256	1220.4778	0.173487	-399.330603	-399.322048	-399.321104	-399.363572	32.812	
C	-0.0539765372	 1.4889601782	-0.0107189965	-0.336859
N	-0.0085004186	 0.0321915091	 0.0073957909	-0.074527
C	-1.3504381677	-0.5440313371	-0.0822215342	-0.138343
C	-1.2904900985	-2.071544988	-0.1479572506	-0.176097
N	-0.5539971683	-2.6601113181	 0.9703581889	-0.285065
C	 0.757060074	-2.0521876823	 1.1083656918	-0.176212
C	 0.7075744559	-0.4980363908	 1.169700339	-0.10038
C	 2.0788367183	 0.0230788207	 1.2319944651	 0.284186
N	 3.1720689344	 0.3897281198	 1.3094660953	-0.332142
H	 0.9595571533	 1.8971522027	-0.0067122479	 0.150055
H	-0.552725263	 1.8199376236	-0.9261052734	 0.124865
H	-0.6028835038	 1.9128958551	 0.8511765939	 0.096686
H	-1.9775657403	-0.2385871392	 0.7818088199	 0.071111
H	-1.8290834534	-0.1439431503	-0.9828454007	 0.107448
H	-2.3027310311	-2.4866787856	-0.1674725177	 0.105756
H	-0.789823692	-2.3708365576	-1.0768131655	 0.119095
H	-1.0829075361	-2.5412299755	 1.8300416754	 0.217605
H	 1.2494850716	-2.4320135907	 2.0074670265	 0.121325
H	 1.3684972561	-2.333668078	 0.2438653003	 0.131796
H	 0.2082992863	-0.2072914259	 2.1184547096	 0.089697
