22
gdb 95775	3.14199	1.17671	0.91171	1.7948	84.75	-0.2341	0.0198	0.2539	1350.2712	0.194464	-404.373181	-404.363779	-404.362835	-404.407292	35.429	
C	 0.1344305609	 1.6197202383	 0.0187727275	-0.399161
C	 0.0069340197	 0.0912932162	-0.0171394042	 0.017423
C	 0.6860884086	-0.4863674122	-1.2633061979	-0.190986
C	 0.4850600311	-1.9848852226	-1.4358218442	-0.087427
O	 1.1244346973	-2.8003297478	-0.4493088583	-0.264659
C	 0.5705687556	-2.8631061666	 0.8105705362	 0.365647
C	 0.4019135878	-4.2938109928	 1.2391678759	-0.443949
N	 0.2761105048	-1.904563083	 1.5787056412	-0.27829
C	 0.5851003603	-0.5147731515	 1.2757273993	-0.148801
H	 1.1852967696	 1.9256605356	 0.0859731712	 0.115298
H	-0.2850398973	 2.0733844078	-0.8849945946	 0.11085
H	-0.390609027	 2.0417620106	 0.8815014281	 0.116103
H	-1.0614359904	-0.1662365188	-0.0549856597	 0.076122
H	 0.29103067	 0.0032064005	-2.1633933169	 0.094338
H	 1.7625952677	-0.2706861591	-1.2330397009	 0.102159
H	-0.5887228482	-2.2202812614	-1.4513652063	 0.099921
H	 0.9151838999	-2.3170350457	-2.3850133121	 0.111208
H	 1.3589383876	-4.8189407604	 1.1490819793	 0.137623
H	 0.0509430858	-4.3413365711	 2.2692275223	 0.1385
H	-0.3049353644	-4.8106200508	 0.5806026986	 0.128457
H	 1.6796720074	-0.3903879319	 1.2547034528	 0.102611
H	 0.2245214533	 0.0774972969	 2.1236821527	 0.097014
