23
gdb 104852	1.9168	1.41423	1.21426	1.5015	81.49	-0.2389	0.0723	0.3112	1233.9919	0.203487	-425.408989	-425.398506	-425.397562	-425.443909	38.988	
C	-0.5310735609	 1.1656009682	 0.3306564892	-0.392046
C	-0.0167900069	-0.2641899128	 0.1385665402	-0.228101
C	 0.9847883265	-0.6940363245	 1.2188516301	 0.408779
C	 0.3300818987	-1.0036339983	 2.5921577051	-0.279783
C	 0.3173965791	-2.5114915767	 2.2200682082	-0.27816
C	 1.3814674425	-2.1986581615	 1.1360357944	 0.08042
O	 1.2782686776	-2.7841696554	-0.1421969655	-0.438051
O	 2.0633933203	 0.2139025588	 1.3590426143	-0.294816
C	 2.9079682975	 0.32444328	 0.2300630396	-0.258183
H	 0.2919059591	 1.8852314061	 0.3284351178	 0.126932
H	-1.2261411996	 1.4378836247	-0.4693922635	 0.107587
H	-1.0606074536	 1.2803641189	 1.2822629842	 0.114735
H	-0.853839239	-0.9707320163	 0.1384709745	 0.100085
H	 0.4490503385	-0.3703998894	-0.846688944	 0.109436
H	 1.0282552519	-0.7776658521	 3.4006043831	 0.112503
H	-0.6299482052	-0.5303498552	 2.8047014642	 0.1018
H	 0.5836450934	-3.2302417094	 2.9979749163	 0.095045
H	-0.6266394539	-2.8153770312	 1.7604411039	 0.108555
H	 2.3932143045	-2.3130011536	 1.5515932999	 0.072016
H	 1.4696855105	-3.7240367304	-0.0621718154	 0.284152
H	 3.2382385107	-0.6583599042	-0.1337229028	 0.118072
H	 2.4272475363	 0.8541526896	-0.6042407257	 0.108115
H	 3.7834282422	 0.8979609247	 0.5455279917	 0.120909
