17
gdb 67614	2.70958	2.20685	1.69512	0.7259	69.07	-0.2259	0.0755	0.3014	841.8455	0.138689	-421.793555	-421.787451	-421.786507	-421.823591	26.523	
O	-0.0534083721	 1.3433410399	 0.1091373465	-0.474329
C	 0.0644475949	-0.0346667203	 0.0589715194	 0.365355
C	-0.3450406165	-0.904885647	-1.1120870546	-0.024921
O	 0.4947784383	-2.0291531468	-1.1923604556	-0.24165
C	 0.7738565847	-2.2091897979	 0.1730488776	 0.09818
C	-0.5395888931	-2.0806018759	 1.0327273939	-0.079972
C	 0.3261910357	-1.3491463986	 2.0969609691	-0.24361
C	 1.1101501019	-0.8394149125	 0.8587028366	-0.15721
C	-1.1417178171	-0.950137858	 0.1880139191	-0.157114
H	 0.6344735501	 1.7247926063	-0.4478405172	 0.286329
H	-0.7276791529	-0.5372200428	-2.0548999631	 0.108416
H	 1.4329420285	-3.0579774516	 0.3385127429	 0.088775
H	-1.171888336	-2.9350537295	 1.2695360646	 0.067852
H	-0.1634901834	-0.6025237306	 2.7263976807	 0.107705
H	 0.9086608664	-2.0395537798	 2.7141393392	 0.096822
H	 2.1203985943	-0.4334102886	 0.913970792	 0.060935
H	-2.1585088137	-0.5926169365	 0.2687303587	 0.098439
