13
gdb 129069	3.3231	1.45491	1.05544	3.301	73.41	-0.2625	-0.0989	0.1636	1047.0431	0.091292	-448.92212	-448.914972	-448.914028	-448.954466	26.252	
N	-0.1142515153	 1.2667866581	-0.2942286192	-0.465819
C	 0.0025876346	 0.0129385637	-0.0515438912	 0.22754
C	 1.2906048803	-0.6820760749	 0.0843010252	-0.040731
N	 1.576397276	-1.9270958168	 0.2173059758	-0.171047
N	 0.6812752976	-2.9260149683	 0.1924259297	-0.257431
C	-0.6827333287	-2.9793225623	-0.1765093735	 0.436058
O	-1.0962941779	-3.9890214065	-0.6890384751	-0.315635
N	-1.5480451225	-1.9394182895	 0.1874378781	-0.248738
C	-1.2723516574	-0.699690075	 0.2253773602	 0.039686
H	 0.8013904524	 1.6966351429	-0.4554975064	 0.234583
H	 2.1611405018	-0.0276330138	 0.1052795573	 0.125837
H	 1.1257002372	-3.8306225167	 0.0986946115	 0.280705
H	-2.0794956882	-0.017175231	 0.4993715377	 0.154991
