15
gdb 75662	2.8942	1.29742	1.10767	1.0247	72.23	-0.2605	-0.049	0.2114	1103.3377	0.111875	-416.790279	-416.782102	-416.781158	-416.82319	29.989	
C	-0.0479653204	 1.6078843676	 0.0618045514	-0.421701
C	 0.0407512529	 0.091194815	 0.0061395472	-0.170781
C	 1.1072120647	-0.5982492356	-0.9016499589	 0.460191
O	 1.2826340064	-0.6311333004	-2.0804147527	-0.29316
C	 1.7213304454	-1.32985814	 0.283577443	-0.248378
N	 2.0994638219	-0.2415509264	 1.2313734677	-0.349634
C	 0.6914240377	-0.6786789815	 1.1821541577	 0.220644
C	 0.0315671978	-1.2578258374	 2.3037734602	 0.181763
N	-0.5159623641	-1.7111413816	 3.2172570085	-0.333266
H	 0.9009901824	 2.0373590286	 0.3897200515	 0.148581
H	-0.2815717593	 2.0009109425	-0.9319698937	 0.142214
H	-0.8366784647	 1.9305854321	 0.7479469651	 0.132993
H	-0.9260402426	-0.3611140155	-0.2457707457	 0.127445
H	 2.1727492055	-2.3119553811	 0.3454257203	 0.142278
H	 2.5523546261	-0.6882374362	 2.0296501284	 0.260811
