14
gdb 9111	5.03576	0.98382	0.82723	0.8562	68.13	-0.2611	-0.0942	0.1668	1314.2675	0.105622	-415.896311	-415.887934	-415.88699	-415.929732	28.403	
C	-0.1047221629	 1.6678893561	-0.7037156196	-0.314592
N	-0.4117322475	 0.2648840743	-0.8914598022	-0.225224
C	 0.1621079126	-0.5666326907	-0.1324142752	 0.120634
N	-0.0893120122	-1.9272565278	-0.2611243794	-0.333923
C	 0.4849220542	-2.8920504161	 0.51402018	 0.31308
O	 1.2833052637	-2.7157028498	 1.4122625929	-0.339078
C	 0.0192150407	-4.3025590658	 0.1441543254	 0.101896
O	-0.7690805436	-4.5282977975	-0.7365058607	-0.239097
H	 0.2956005387	 2.0800544607	-1.636890208	 0.135105
H	-1.028601179	 2.2159136594	-0.4867527376	 0.135106
H	 0.617079859	 1.8626984072	 0.1043184295	 0.107224
H	 0.8769089631	-0.3359375911	 0.6634102084	 0.133093
H	-0.7407823343	-2.2303192917	-0.9755035699	 0.280875
H	 0.4850144577	-5.0858041673	 0.7726223862	 0.1249
