22
gdb 18361	3.04942	2.03338	1.48882	0.1762	80.5	-0.2767	0.0782	0.3548	952.5504	0.202889	-313.083105	-313.075489	-313.074545	-313.114753	30.512	
C	-0.1251495959	 1.5557824976	-0.0676298148	-0.411085
C	 0.1140060425	 0.0463963993	-0.054220464	 0.045721
C	 1.0431860121	-0.4822777684	-1.1666692524	-0.214944
C	 1.3696660421	-1.9197841209	-0.7185610246	-0.221576
C	 1.4900905818	-1.837966399	 0.8147703413	-0.000311
C	 2.8173121574	-1.2371123372	 1.3621052884	-0.219433
C	 2.0820532242	 0.082903349	 1.7246070517	-0.228068
C	 0.731810117	-0.5275347655	 1.236495203	-0.002282
H	 0.8098940738	 2.1145440015	 0.0457407428	 0.113774
H	-0.5836145167	 1.8724340627	-1.0107178992	 0.109951
H	-0.79454371	 1.860406317	 0.7443400769	 0.109247
H	-0.8592151209	-0.4505018438	-0.182482591	 0.066199
H	 0.5846648667	-0.4356492453	-2.159303382	 0.089347
H	 1.9574662895	 0.1244632383	-1.2097198156	 0.094157
H	 0.5401391232	-2.5839280536	-0.9900324208	 0.091712
H	 2.2719403969	-2.3244978345	-1.1894037504	 0.089638
H	 1.1832716739	-2.7658833494	 1.3023485383	 0.057255
H	 3.223874616	-1.7720197282	 2.2241174385	 0.094926
H	 3.6164281221	-1.1397945092	 0.6203062213	 0.091157
H	 2.1018895611	 0.3417543365	 2.7860013514	 0.094612
H	 2.4202980691	 0.9589686451	 1.1645468649	 0.094907
H	-0.0106591659	-0.6301489621	 2.0317618964	 0.055096
