22
gdb 116326	2.95197	1.26474	0.98369	1.6489	82.42	-0.2371	0.0734	0.3105	1274.9528	0.1964	-404.329432	-404.320761	-404.319817	-404.362853	33.439	
C	 0.0172455749	 1.3856124974	 0.0297867142	-0.236328
O	-0.1393244945	-0.006398493	-0.1072111574	-0.254361
C	 0.6234736746	-0.5890969655	-1.1542492793	 0.163671
C	 2.1225178493	-0.6949022167	-0.8388493732	-0.23663
C	 2.8445951742	-1.4542666874	-1.9610882015	-0.206029
C	 2.3788431222	-2.9172050875	-2.0728580982	-0.195004
C	 0.8737378908	-3.0791312976	-1.8958591508	-0.03455
N	 0.385865888	-3.0265094759	-0.5062090943	-0.323981
C	 0.0199631773	-1.9471287611	-1.433887169	-0.049225
H	 1.0238224997	 1.6708504617	 0.3687123878	 0.106427
H	-0.1883930209	 1.9145772844	-0.9152673156	 0.097553
H	-0.7047644169	 1.7180526381	 0.7803230575	 0.124131
H	 0.5017727743	 0.023981518	-2.0668903539	 0.05431
H	 2.5514485434	 0.3064751792	-0.7316232819	 0.087718
H	 2.2388002551	-1.2137235947	 0.1179665768	 0.124262
H	 2.6531136289	-0.9397875513	-2.9128274862	 0.092931
H	 3.9283051187	-1.4209398107	-1.8073158011	 0.093641
H	 2.6771116243	-3.3237366331	-3.0455489074	 0.091851
H	 2.8768820325	-3.5260885448	-1.3095244099	 0.11035
H	 0.3977153221	-3.8015430268	-2.5558053422	 0.079866
H	-0.4010507225	-3.6552005695	-0.3739838092	 0.229564
H	-1.0101141555	-1.9107783332	-1.7823613052	 0.079831
