18
gdb 77140	2.91908	1.20233	0.91068	2.2723	74.62	-0.2492	-0.0394	0.2098	1273.4735	0.144805	-439.124764	-439.115089	-439.114145	-439.160002	33.83	
C	-0.2906064626	 1.4566038502	 0.0257311073	-0.401272
C	 0.0660338388	-0.0227939068	-0.0287072303	-0.071066
N	 0.9271910657	-0.4608655812	-1.1464059177	-0.092343
C	 1.9939609059	-1.03908328	-0.316714111	-0.307317
C	 1.1884819144	-0.5277566016	 0.9021557055	 0.378498
O	 1.3784908941	-0.5076300795	 2.0782900477	-0.274477
C	 0.5016361159	-0.7390123612	-2.4154036545	 0.370785
C	 1.5063201772	-1.4603931213	-3.2970891453	-0.488405
O	-0.6079800352	-0.4069523736	-2.7928393017	-0.362211
H	 0.6050539865	 2.0806175813	-0.0440103148	 0.120521
H	-0.955813924	 1.7014806653	-0.8050812811	 0.157071
H	-0.7994235727	 1.6802119329	 0.9678915752	 0.135841
H	-0.8434882305	-0.6351182435	 0.0474142584	 0.122753
H	 2.085317613	-2.131885028	-0.3627652803	 0.140285
H	 2.9861365631	-0.5904276221	-0.4416780455	 0.14328
H	 2.492299437	-0.9878902613	-3.2553537361	 0.136261
H	 1.6246559064	-2.5001620905	-2.9715198354	 0.13981
H	 1.1369570269	-1.4539858192	-4.3221584603	 0.151987
