20
gdb 93570	3.59315	1.0167	0.81161	4.6008	89.69	-0.1916	-0.0203	0.1713	1435.448	0.170333	-403.185119	-403.175498	-403.174554	-403.219949	34.357	
C	-0.0468610327	 1.4132983027	 0.1006941143	-0.330737
N	 0.0008698137	 0.0059837828	-0.2158220904	-0.032821
C	-1.1836033736	-0.8374795894	 0.0078426615	-0.164629
C	-0.6498365627	-2.2846118345	-0.1553986783	-0.351768
C	 0.8561198334	-2.0980442994	-0.0142913895	 0.124159
C	 1.1144754547	-0.7678550091	-0.0719280829	-0.046365
C	 1.8915224615	-3.1181896852	 0.0715177838	 0.279832
C	 1.4272521102	-4.5695404613	 0.085511141	-0.48733
O	 3.0821325784	-2.8415173376	 0.1386731304	-0.353982
H	 0.9220538333	 1.8705085253	-0.1134367991	 0.14059
H	-0.8041250397	 1.9140725049	-0.5119128301	 0.131825
H	-0.2916642768	 1.5960008248	 1.1598072195	 0.119292
H	-1.5671440148	-0.6640584518	 1.0260523015	 0.10304
H	-1.9817187098	-0.582139027	-0.6958339067	 0.113878
H	-1.0877277303	-2.9590661615	 0.58633365	 0.112565
H	-0.9134585429	-2.6872944271	-1.1427518489	 0.112382
H	 2.0954676771	-0.3109724445	-0.0448360138	 0.144484
H	 0.8460849895	-4.8036327028	-0.814329449	 0.126082
H	 2.2968274089	-5.2254771246	 0.1386278	 0.132814
H	 0.7735923127	-4.7613488046	 0.9446794468	 0.126691
