16
gdb 80346	2.22514	1.54253	1.3586	6.4964	69.16	-0.2293	0.0101	0.2394	1024.6592	0.124667	-434.009759	-434.001338	-434.000393	-434.042551	31.98	
N	 0.2295050762	 1.4755567657	-0.0513653146	-0.606872
C	 0.0192464015	 0.0809900733	-0.0457560532	 0.246412
C	-0.3354339438	-0.7522929587	-1.2605430278	 0.124519
O	 0.4301010572	-1.7909368209	-1.7637312459	-0.42728
C	-1.1949622242	-0.9026269446	-0.0483209738	-0.154822
N	-0.4719955219	-1.8468081587	 0.8334576868	-0.351608
C	 0.6154566131	-0.8329836236	 1.0445560079	-0.16433
C	 1.9846312353	-1.3313298448	 0.8917548033	 0.299877
N	 3.070829315	-1.7146562063	 0.7986978615	-0.325455
H	 0.2130969385	 1.8797764323	-0.9778476038	 0.245519
H	-0.3924809046	 1.9933219645	 0.5574245602	 0.23826
H	-0.7716681408	-0.1501417412	-2.0549274083	 0.105848
H	 0.4004415232	-2.4981501982	-1.1017338641	 0.303018
H	-2.2694622808	-0.7713173578	 0.0014516555	 0.10373
H	-0.9676232852	-2.0398090407	 1.696090086	 0.239205
H	 0.5332256913	-0.3432740102	 2.0208546702	 0.123978
