20
gdb 61848	2.32166	1.19425	0.88829	4.7913	75.88	-0.2426	0.0246	0.2672	1340.025	0.170353	-440.289155	-440.279444	-440.2785	-440.325066	34.086	
C	-0.3010200782	 1.7855038127	-0.0244799537	-0.409484
C	-0.024122614	 0.2814036703	 0.0420444137	 0.012265
N	 0.8378676396	-0.0194236159	 1.1857406226	-0.278758
C	 1.91595859	-0.844921929	 1.1211367062	 0.157069
O	 2.2772037764	-1.4536381373	 0.1350820488	-0.325344
C	-1.3139622706	-0.5386890008	 0.09347802	-0.016076
C	-2.1686342795	-0.6001246514	-1.1937854785	-0.084974
O	-2.0713394459	-2.0337281916	-1.2489366036	-0.271695
C	-1.1951805297	-2.0684478129	-0.0997863949	-0.102396
H	 0.631150179	 2.3508763093	-0.1064622934	 0.1297
H	-0.9243735076	 2.0254784385	-0.8907119849	 0.131964
H	-0.8339657496	 2.129027961	 0.8707434502	 0.112962
H	 0.5493541295	-0.0273233101	-0.8377949722	 0.12494
H	 0.6355511745	 0.4247129501	 2.0684786281	 0.243764
H	 2.4478255026	-0.9013692595	 2.0918432118	 0.078559
H	-1.8939050458	-0.2598981558	 0.9794778415	 0.068746
H	-3.2071028696	-0.257826844	-1.1078962627	 0.099924
H	-1.7127095521	-0.1229790881	-2.0735691492	 0.097093
H	-0.1889739161	-2.4190833092	-0.3562641984	 0.133896
H	-1.6042638628	-2.6918411463	 0.7038435686	 0.097843
