16
gdb 43990	3.34015	1.54689	1.39087	2.9091	68.04	-0.2513	0.0037	0.255	945.927	0.126585	-437.864336	-437.857507	-437.856563	-437.895399	27.213	
O	-0.0649442532	 0.0244712139	 0.064603955	-0.340432
C	-0.0291846655	 1.2198718831	 0.0202488163	 0.375533
N	-1.0425522844	 2.193871906	 0.0442674209	-0.381846
C	-0.0837461682	 3.2991253073	-0.0141725679	 0.224622
C	 0.9338084091	 3.2559278848	 1.0799299025	-0.34688
C	 1.0634967337	 2.2893375412	-0.0928682403	 0.036672
C	 1.9007790868	 2.7019192057	-1.2818470012	-0.15696
O	 1.4923319082	 4.0523331064	-1.560588266	-0.260545
C	 0.1093712682	 4.2016937138	-1.2109025706	-0.135935
H	-1.8691018518	 2.1609705666	 0.6295643542	 0.247008
H	 1.6692637892	 4.0544952186	 1.0986146677	 0.144253
H	 0.6477751331	 2.8694283845	 2.0518114405	 0.131211
H	 2.9797114738	 2.7315655863	-1.1088857621	 0.122627
H	 1.6990003385	 2.0354201373	-2.132744879	 0.114787
H	-0.5593587865	 3.8660546679	-2.0175433809	 0.108917
H	-0.0508050509	 5.2685314364	-1.0328883591	 0.116967
