18
gdb 55699	3.07216	1.11045	0.97588	4.6261	68.13	-0.2449	0.0082	0.2531	1240.3821	0.146773	-476.236209	-476.227069	-476.226125	-476.270949	33.509	
N	-2.6442507191	 0.6896714592	-1.3503295156	-0.515029
C	-1.7829001149	-0.3577225618	-1.3599232339	 0.430712
O	-1.4154328412	-0.8800993247	-2.4057003356	-0.381475
C	-1.289796973	-0.8332492663	 0.0016494396	-0.386566
C	-1.0859339387	-2.3557838048	 0.0301046705	 0.368312
O	-0.1366954485	-2.7707064906	-0.9036604676	-0.480831
C	-0.8502902749	-2.9135358831	 1.4477121579	-0.121613
O	-2.2220430856	-3.3505095545	 1.5441458391	-0.277907
C	-2.4185035791	-3.1562658036	 0.127471957	-0.124434
H	-2.9655848851	 1.0572427735	-2.2315937106	 0.267928
H	-2.9595528688	 1.1188927673	-0.4987535826	 0.267771
H	-0.3230301669	-0.3495324249	 0.1903195624	 0.140754
H	-1.97493228	-0.5297601593	 0.7999138447	 0.11433
H	-0.3550605341	-2.3030977197	-1.7295390979	 0.295417
H	-0.1430182012	-3.7526020908	 1.440466848	 0.109646
H	-0.5811931322	-2.2072288195	 2.2419128207	 0.094931
H	-3.3598255213	-2.6377432444	-0.0913923708	 0.091801
H	-2.3731662155	-4.0981543621	-0.4333901654	 0.106252
