17
gdb 128128	3.17189	1.23107	0.90598	2.013	72.63	-0.1869	0.0544	0.2414	1253.3577	0.137474	-451.330783	-451.321342	-451.320397	-451.364975	34.079	
C	 0.2240967686	 1.4153811337	-0.1104882468	-0.335552
N	-0.2122173306	 0.0599827874	 0.1861842282	-0.383353
C	 0.5173398652	-0.710779564	 1.0666046572	 0.461464
C	 0.6683701365	-2.091761539	 1.0735529029	-0.059957
N	 0.1418506253	-2.9562525256	 0.0745821804	-0.63558
C	 1.4509981569	-2.3338852327	 2.2281043649	 0.38035
O	 1.8611160966	-3.5569328924	 2.6327151372	-0.438165
N	 1.7768731444	-1.2360283957	 2.8844643293	-0.360073
N	 1.1961928599	-0.233972225	 2.1357641437	-0.304264
H	 1.2731263877	 1.4809158854	-0.4376985591	 0.120493
H	-0.4135263103	 1.8264615888	-0.8959913543	 0.134022
H	 0.1007392209	 2.0572954498	 0.7694038051	 0.125214
H	-0.4524029747	-0.4943326013	-0.6264223119	 0.25058
H	-0.590235882	-3.5554481941	 0.4455567363	 0.239566
H	 0.860139741	-3.5753111556	-0.2888803708	 0.240261
H	 2.3961887982	-3.4222875723	 3.4250841938	 0.298961
H	 1.2124185864	 0.7031758425	 2.4931138239	 0.266034
