15
gdb 97098	2.53962	1.23944	1.10951	3.0668	69.25	-0.277	-0.0224	0.2546	1163.2698	0.110705	-453.934185	-453.92496	-453.924016	-453.968742	31.733	
C	-0.0848909718	 1.3961148674	-0.0286822037	-0.345269
N	-0.1973044919	-0.0416613767	-0.2371730154	-0.324047
C	 0.5773655098	-0.6217312583	-1.0196975003	 0.428255
O	 1.6191144702	-0.1818133472	-1.8122389826	-0.261284
C	 1.9429105879	-1.5415274379	-2.2310195502	-0.099892
C	 0.7719675134	-2.0980967615	-1.3817100721	 0.104061
O	 1.2069177289	-2.9220916868	-0.3347292348	-0.438763
C	-0.3328590853	-2.6996946244	-2.1420122302	 0.242619
N	-1.2029538481	-3.1786375489	-2.7320664773	-0.325398
H	 0.7638257557	 1.8558257769	-0.54677935	 0.134537
H	-1.0092407869	 1.8745979689	-0.368515321	 0.143596
H	 0.0029052618	 1.5904758788	 1.0447740532	 0.137761
H	 1.8597097506	-1.656946811	-3.3120200641	 0.147672
H	 2.918833568	-1.857048002	-1.8590191143	 0.14762
H	 0.5436014977	-2.8814607774	 0.3661638928	 0.308532
