20
gdb 57664	3.46232	0.9198	0.87708	1.6713	75.6	-0.2512	-0.0293	0.2219	1388.216	0.168025	-440.262043	-440.251994	-440.25105	-440.297352	36.585	
C	 0.0639753949	 1.6863908571	-0.0694211606	-0.396013
C	 0.0653502924	 0.1555750271	-0.0402566584	 0.278804
O	 0.7646569702	-0.2143361966	 1.153530743	-0.459248
C	-1.3758606271	-0.4065507652	-0.0086588119	-0.323993
C	-2.1936084246	 0.0668685817	 1.1759654858	 0.153679
O	-3.3253317134	 0.4714877966	 1.0994568337	-0.240002
C	 0.7876008112	-0.3776197352	-1.2815807435	 0.017257
C	 2.2648144284	-0.4068076361	-1.346877967	-0.249257
N	 1.4926663556	-1.6666910888	-1.2681297942	-0.33482
H	 1.0899305394	 2.0590538568	-0.0248816958	 0.132889
H	-0.3998775725	 2.0524639417	-0.9898423414	 0.124676
H	-0.4880845601	 2.095249845	 0.7816068219	 0.129948
H	 0.5388715469	-1.1234291717	 1.3768037141	 0.282564
H	-1.9167101329	-0.1559219725	-0.9253646296	 0.129233
H	-1.3185491722	-1.5055973967	 0.041758166	 0.120677
H	-1.6706784056	 0.0068967996	 2.1556446351	 0.085274
H	 0.2370079138	-0.2027621072	-2.2042794421	 0.09249
H	 2.7737066915	-0.2372847953	-2.2909469366	 0.119372
H	 2.8075122785	-0.0941230554	-0.4600445706	 0.125603
H	 1.5568543754	-2.0053552249	-0.3097629278	 0.210868
