17
gdb 98821	3.05433	1.17268	0.86483	3.0723	71.58	-0.2448	-0.0321	0.2127	1297.7377	0.135875	-455.192318	-455.183036	-455.182092	-455.228045	32.066	
N	-0.1072198304	 1.4503621608	-0.1861700729	-0.487716
C	-0.008866489	 0.0109659218	-0.0288412332	-0.267754
C	 0.8593647875	-0.4401896719	 1.1485356827	 0.357594
O	 1.4277762672	 0.3214542109	 1.9003185199	-0.338398
N	 0.9740404855	-1.8137973207	 1.3275410551	-0.140376
C	 1.7242467818	-2.565558868	 2.3511843051	-0.166663
C	 1.2106270249	-3.8726648946	 1.6831971106	-0.377161
C	 0.4798166023	-2.9592399233	 0.6827938091	 0.430083
O	-0.2310113141	-3.090810925	-0.2718460767	-0.341015
H	-0.463331502	 1.8536863679	 0.6763126737	 0.235516
H	 0.8280160275	 1.8372487598	-0.281136004	 0.235535
H	-1.0072151392	-0.4260217026	 0.0897987913	 0.146771
H	 0.3864747573	-0.4438215662	-0.9446113148	 0.146753
H	 2.8014502804	-2.3962426853	 2.3010237108	 0.136855
H	 1.3680222257	-2.3770562255	 3.3656407961	 0.136857
H	 1.9740965307	-4.5058223365	 1.2282796322	 0.14656
H	 0.5437574739	-4.4866903117	 2.2906355452	 0.146559
