9
gdb 21753	5.9132	2.4772	1.74582	5.235	48.8	-0.3067	-0.0641	0.2426	632.8313	0.051457	-425.636502	-425.631753	-425.630808	-425.665419	17.489	
O	-0.068881818	 1.3447085831	 0.0098969134	-0.188953
C	 1.2595374728	 1.7024514633	-0.0007187347	 0.102942
N	 2.110974152	 0.7295519254	-0.0142403018	-0.204906
N	 1.2746865847	-0.3583159492	-0.0123341648	 0.103489
N	 1.3593164813	-1.704620764	-0.0206444578	-0.137088
N	 0.1140658448	-2.0915948235	-0.0108913285	-0.085177
N	-0.7932274529	-1.0525164501	 0.003468114	-0.336349
C	-0.0154140227	-0.0051294325	 0.0018971258	 0.544574
H	 1.4864273778	 2.7558631776	 0.0029758746	 0.20147
