17
gdb 64615	2.83491	1.43503	1.34054	3.5462	77.09	-0.2562	-0.0152	0.241	1028.4216	0.137133	-380.865002	-380.857161	-380.856217	-380.897081	30.481	
C	-0.0610712767	 1.5721771637	 0.0492406721	-0.424036
C	 0.0029493551	 0.0295064152	 0.0116136178	 0.092387
C	 0.8041128527	-0.4991288248	-1.1830986382	-0.108438
C	 1.8117772151	-1.2894265419	-0.8150593148	-0.055391
C	 1.8881878523	-1.3993684905	 0.670763577	-0.082893
N	 2.1587798165	-0.0780618842	 1.3110962722	-0.339351
C	 0.7769772996	-0.5733190663	 1.2062088626	-0.082795
C	-1.3610716928	-0.5215537698	-0.0201601027	 0.249586
N	-2.4334585929	-0.9532621372	-0.0384694751	-0.34224
H	 0.9541956983	 1.9590894313	 0.1490862378	 0.152441
H	-0.5113697132	 1.9640918738	-0.8665141856	 0.130404
H	-0.6609520984	 1.9137293597	 0.8972245541	 0.131323
H	 0.5555086723	-0.2007671565	-2.1944067426	 0.116617
H	 2.5187845258	-1.7601692269	-1.4869127741	 0.113812
H	 2.2399596373	-2.3009488574	 1.1591505886	 0.103069
H	 2.4807504421	-0.2279236295	 2.2660094263	 0.235798
H	 0.2290654668	-0.8353828086	 2.1037497446	 0.109707
