16
gdb 26699	2.25295	1.63099	0.95666	1.4191	69.27	-0.1789	0.0472	0.2261	1173.1287	0.122323	-475.042862	-475.033157	-475.032213	-475.077038	34.858	
C	 0.0697891013	 1.5658552948	 0.0819733268	-0.537469
C	 0.0586343617	 0.0708094055	 0.0547108914	 0.017934
C	 0.0040487269	-0.756722639	-1.0212254239	 0.338202
O	-0.053894842	-0.460645072	-2.3336047217	-0.431036
O	 0.0107874188	-2.0555991369	-0.6853014464	-0.227321
C	 0.0749954312	-2.1126414764	 0.730362503	 0.17547
N	 0.0960885728	-3.3398109152	 1.3688015435	-0.588134
C	 0.1040615738	-0.8315093234	 1.1825610744	 0.215591
O	 0.166164028	-0.4695208251	 2.4907107384	-0.43672
H	 0.9784439417	 1.966529522	 0.5509997391	 0.123228
H	 0.0280472472	 1.9655639034	-0.934157155	 0.145873
H	-0.7889517184	 1.9784421586	 0.6283367144	 0.123295
H	-0.0812714715	-1.2913645661	-2.822422861	 0.304648
H	 0.9092222156	-3.9061689928	 1.1519814862	 0.239436
H	-0.7406768436	-3.8954240944	 1.227120696	 0.239436
H	 0.1744642266	 0.4912293569	 2.5387908849	 0.297567
