21
gdb 77669	2.18415	1.60832	1.33851	0.2892	78.03	-0.2129	0.0698	0.2827	1098.4221	0.181305	-424.219334	-424.20989	-424.208946	-424.252737	36.034	
C	-0.2139233481	 1.5754611764	 0.0405544742	-0.48027
C	 0.0939074241	 0.0974167142	 0.015766495	 0.225784
C	 0.6279421244	-0.5087162112	-1.2781453446	-0.293015
C	 1.3524456312	-1.7915886397	-0.8192869088	-0.097609
O	 1.6804686321	-1.6140551319	 0.5585920999	-0.298104
C	 0.8149334264	-0.6493336307	 1.1186903086	 0.354366
C	 1.366546839	-0.0560112806	 2.3824138551	-0.478643
C	-0.673690589	-0.8701857542	 0.9040728952	-0.036297
O	-1.5895049626	-0.2850088904	 1.7881798477	-0.423224
H	 0.6843409195	 2.1659628529	-0.173219049	 0.111618
H	-0.9652061283	 1.8285034898	-0.7165037933	 0.117831
H	-0.6116764239	 1.8832142019	 1.0089460485	 0.136096
H	-0.1532351258	-0.7233248442	-2.0148165011	 0.103495
H	 1.3300270821	 0.1977464776	-1.7353050503	 0.105998
H	 0.7078260625	-2.6726905916	-0.9425849378	 0.098508
H	 2.281658182	-1.9822510874	-1.3647317915	 0.107569
H	 2.286760199	 0.5019574624	 2.183085778	 0.124391
H	 0.6403010374	 0.617992584	 2.8411005949	 0.127703
H	 1.6055541895	-0.848364409	 3.100237024	 0.123312
H	-1.0010555306	-1.818954476	 0.475505622	 0.080574
H	-1.580782961	-0.7962047823	 2.6043704134	 0.289917
