23
gdb 122810	6.95754	0.46114	0.43947	1.0983	83.59	-0.2417	-0.0066	0.235	2490.8955	0.20234	-425.452246	-425.440519	-425.439574	-425.491473	39.881	
C	 0.1697012132	 1.5202047832	 0.0082244702	-0.374299
C	-0.0310049773	 0.0068136051	 0.0015114445	-0.274155
C	-1.4961903957	-0.4153398698	 0.0140462192	 0.370512
O	-2.394399149	 0.3962291166	 0.0274803154	-0.2976
C	-1.765683748	-1.9158767449	 0.008771966	-0.300996
C	-3.2502891928	-2.2784887557	 0.0206157945	-0.177663
C	-3.4896730113	-3.7903819051	 0.015336714	-0.172296
C	-4.9686549666	-4.1531745053	 0.0271815433	-0.074924
O	-5.0731831435	-5.5694728313	 0.0211161754	-0.42245
H	 1.2344316633	 1.7696567854	-0.0013689571	 0.108376
H	-0.3022255002	 1.9798093573	-0.8638396812	 0.130574
H	-0.2839686335	 1.9696074836	 0.8951709669	 0.13055
H	 0.4434156648	-0.4525371512	-0.8768409941	 0.119105
H	 0.4613029889	-0.4626699504	 0.8645261725	 0.119082
H	-1.2637455614	-2.3479287068	-0.8689474754	 0.118284
H	-1.2477918747	-2.3567260119	 0.8727589602	 0.118332
H	-3.7205254775	-1.8233975454	 0.8999919639	 0.11013
H	-3.7365799758	-1.8147938933	-0.8454441536	 0.110077
H	-3.0288851949	-4.2470223132	-0.8697729617	 0.102105
H	-3.0126856457	-4.2557089831	 0.8872426762	 0.102108
H	-5.4494630542	-3.7213881116	 0.9204176449	 0.085098
H	-5.4658302928	-3.7125873847	-0.8526980248	 0.085092
H	-6.0061527052	-5.8017163676	 0.0285147908	 0.28496
