21
gdb 111136	3.0746	1.15716	0.94037	3.1369	79.39	-0.2363	0.0695	0.3057	1303.7619	0.180124	-424.139489	-424.12995	-424.129006	-424.174719	36.022	
C	-0.0353272475	 1.5079407496	-0.2608938997	-0.454318
C	 0.0259633803	-0.0118110519	-0.0981473828	 0.348377
C	-1.3207648909	-0.6087037466	-0.5013619742	-0.485184
C	 1.3864079409	-0.6741334814	-0.5225598245	-0.036121
O	 2.0421904283	 0.0566325472	 0.5879334886	-0.304727
C	 0.8058093627	-0.5212021193	 1.1663047809	-0.037322
C	 1.2084256313	-1.856381747	 0.4732949971	 0.072438
C	 0.3501096047	-3.110243936	 0.2856470072	-0.151658
O	 1.1817962855	-4.2149561545	 0.6219799694	-0.429161
H	 0.9101998974	 1.9758788112	 0.0093405176	 0.1404
H	-0.2758361771	 1.7708763497	-1.2976416388	 0.108285
H	-0.8288756944	 1.9275019448	 0.3683898374	 0.108426
H	-1.5356549936	-0.3675408246	-1.5487392542	 0.120377
H	-1.4043659358	-1.687267588	-0.3903212611	 0.11991
H	-2.1185681837	-0.155682446	 0.0980984173	 0.12018
H	 1.8892517576	-0.6592978554	-1.4923408614	 0.086072
H	 0.6130501622	-0.3243515541	 2.2235178654	 0.085842
H	 2.1835736426	-2.1817345632	 0.8397482922	 0.110631
H	-0.5368188295	-3.0823955145	 0.9368433775	 0.096467
H	-0.0043290704	-3.197028906	-0.7521642015	 0.096842
H	 0.6693637794	-5.0207244641	 0.5049484676	 0.284244
