15
gdb 20442	6.09242	1.46052	1.27879	3.8451	67.68	-0.2267	0.0235	0.2502	933.8267	0.122675	-358.836224	-358.829698	-358.828754	-358.867285	24.552	
C	-0.0094396356	 1.5245338759	-0.0063852346	-0.226033
N	 1.2389684876	 0.7719121821	 0.1689304624	-0.324103
C	-0.0258213359	 0.0302820182	 0.0133824127	-0.152356
C	-0.45354663	-0.7349920651	 1.2011763459	 0.428198
C	-1.5172661432	-1.5846407969	 1.4456404339	-0.331541
C	-1.3622881026	-1.9667656735	 2.7953102358	-0.001304
N	-0.2902070614	-1.4083068176	 3.352728315	-0.232741
N	 0.2384854931	-0.6636721003	 2.3644419111	-0.239002
H	-0.3410134181	 2.0694648647	 0.8723230835	 0.130767
H	-0.1942804641	 2.0224453548	-0.9545420345	 0.120243
H	 1.7758834071	 0.7522746518	-0.6926952575	 0.242238
H	-0.2204649058	-0.4563358923	-0.9390692638	 0.101249
H	-2.2891445443	-1.8772236513	 0.7522080606	 0.09762
H	-1.9860958422	-2.6268065276	 3.3803574121	 0.108051
H	 1.0999130354	-0.1580839829	 2.4956347874	 0.278715
