23
gdb 59575	2.94284	1.18511	0.99788	1.7613	84.72	-0.2376	0.0722	0.3098	1302.4632	0.205653	-388.261739	-388.25255	-388.251605	-388.295887	35.207	
C	-0.149477484	 1.5009364049	 0.0659677365	-0.390637
C	-0.0104628113	-0.0264646162	-0.0073161388	 0.014471
C	 0.6461783048	-0.4558186842	-1.3266799954	-0.391306
C	 0.7705166332	-0.5557992505	 1.1962441194	 0.050768
C	 0.1426373861	-0.4265900977	 2.6260568449	-0.277114
C	 0.3745912032	-1.9379755538	 2.8536776043	 0.121167
O	-0.7856683011	-2.7339392347	 2.5366481778	-0.291755
C	-0.3059574987	-2.9754776616	 1.1930519886	-0.083454
C	 0.9372498557	-2.0935031605	 1.412756573	-0.119109
H	 0.8336942564	 1.9848681789	 0.0210867985	 0.10997
H	-0.7453946712	 1.8827534469	-0.769479274	 0.110012
H	-0.6344684326	 1.8173037357	 0.9948098696	 0.117104
H	-1.0230109439	-0.4526779933	 0.0260431281	 0.076006
H	 1.6597262516	-0.0448489924	-1.4092981605	 0.11092
H	 0.722966042	-1.5451757579	-1.4061755015	 0.113352
H	 0.0732169272	-0.0980299923	-2.1884716648	 0.111161
H	 1.7667546975	-0.096760024	 1.1866718362	 0.067769
H	 0.6859696851	 0.2369472582	 3.3037866154	 0.097724
H	-0.9192560938	-0.1670707407	 2.6507881879	 0.108025
H	 0.8683996235	-2.2666713041	 3.772006076	 0.072421
H	-0.0777328698	-4.0381886826	 1.0394759078	 0.098714
H	-1.0261230458	-2.6582686937	 0.4294644313	 0.101097
H	 1.9030841558	-2.5350793744	 1.1696722695	 0.072695
