18
gdb 39068	2.6076	1.92108	1.29223	2.1014	76.28	-0.2437	0.0074	0.2511	988.7048	0.150162	-401.909199	-401.902151	-401.901207	-401.940623	28.307	
C	-0.1101024287	 1.5097575205	-0.2148927563	-0.147864
O	 1.1610660065	 1.6928597888	 0.4605410503	-0.304217
C	 1.4037434953	 0.254086595	 0.4924883407	 0.03807
C	 1.7804446269	-0.3323580808	 1.8118967019	-0.088493
C	 1.0244054054	-1.2558753637	 2.4053917391	-0.047673
C	-0.3144132776	-1.7456268113	 1.9009644372	-0.298049
C	-0.9210199117	-0.9029984867	 0.7861918524	-0.081147
N	-0.5961922749	-1.1163002366	-0.6463368078	-0.397354
C	-0.0285008294	 0.0148645507	 0.0518274859	 0.268701
H	-0.9196580634	 2.0665758739	 0.2693212859	 0.109512
H	-0.0546830818	 1.7863806446	-1.2763016495	 0.105807
H	 2.1542818629	-0.0054900085	-0.272513921	 0.077894
H	 2.7271272164	-0.025289672	 2.2479579492	 0.099283
H	 1.3685134957	-1.7122947998	 3.330930138	 0.096007
H	-0.2327232326	-2.798024609	 1.5889390085	 0.118784
H	-1.0131875731	-1.7614959485	 2.746664912	 0.121549
H	-1.960162998	-0.618431613	 0.9311803743	 0.100294
H	 0.100600442	-1.8515940536	-0.7591466708	 0.228896
