12
gdb 6248	4.81894	1.24236	0.99805	6.2655	60.24	-0.2613	-0.05	0.2114	1075.6364	0.082363	-414.680262	-414.672036	-414.671092	-414.713641	28.743	
N	-0.2084969389	 1.3599261622	-0.0005826025	-0.571928
C	 0.1381958427	 0.0210584926	 0.0765869245	 0.471656
O	 1.2622701578	-0.376824888	 0.234824475	-0.323972
N	-1.0052632869	-0.8076118141	 0.0161072565	-0.407189
C	-1.0162987768	-2.1970296703	-0.0894700266	 0.323392
O	-0.0539481552	-2.8958475999	-0.2793751027	-0.297283
C	-2.3692816209	-2.7304431609	 0.0387252686	 0.184678
C	-3.4720317319	-3.1995565604	 0.1370665051	-0.384066
H	 0.5925236417	 1.9668709068	-0.0903905219	 0.270758
H	-1.0007723764	 1.6247584123	-0.5660503113	 0.255125
H	-1.9047093217	-0.3735495299	 0.1602406996	 0.262377
H	-4.4390053435	-3.6325905405	 0.2251392257	 0.216452
