19
gdb 56006	3.78799	0.98971	0.91082	2.189	78.15	-0.2523	0.0104	0.2627	1354.7742	0.158688	-423.08171	-423.072574	-423.071629	-423.117463	32.379	
C	 0.0849222556	 1.420380841	-0.3811238289	-0.476366
C	 0.0548953922	-0.0464777465	-0.0184507559	 0.427111
O	 0.1746680714	-0.4910085234	 1.0971417221	-0.36145
O	-0.1288517257	-0.8039789393	-1.116794232	-0.26043
C	-0.2080380838	-2.2474916009	-0.9009329662	 0.103646
C	-0.7325570089	-2.8956584469	-2.1964385038	-0.244869
C	 0.5065325199	-3.502435774	-2.9024564494	-0.253843
C	 1.5516091231	-3.5079073877	-1.8145588005	-0.05161
C	 1.1650182193	-2.8443713938	-0.726246868	-0.086028
H	 0.8816042834	 1.610944828	-1.1057118098	 0.148051
H	-0.8585110022	 1.7098484271	-0.8527704812	 0.14702
H	 0.2485412312	 2.0132722251	 0.5179363498	 0.145901
H	-0.858625617	-2.3999618698	-0.0372596013	 0.101211
H	-1.4382139639	-3.6892641174	-1.9356826814	 0.111214
H	-1.267933458	-2.1660002349	-2.8070700445	 0.113791
H	 0.3064186961	-4.5054356115	-3.2956160086	 0.108049
H	 0.8392836944	-2.8998554845	-3.7579706372	 0.115027
H	 2.5145597627	-3.9923873588	-1.9380705061	 0.099047
H	 1.7424688601	-2.6872479918	 0.1753733529	 0.114526
