18
gdb 125382	2.83136	1.48477	1.03461	1.9476	79.32	-0.2061	0.0325	0.2385	1156.1353	0.149156	-398.123574	-398.115124	-398.114179	-398.15724	31.135	
C	-0.163983509	 1.4776907785	 0.1206025848	-0.511363
C	 0.0035612772	-0.0045732401	 0.0143773346	 0.134908
C	 0.1107586246	-0.7901267533	-1.1131434207	-0.109009
N	 0.2629041387	-2.0703343801	-0.693709859	-0.198002
N	 0.262771386	-2.1867920936	 0.652685131	-0.302494
C	 0.1060033213	-0.9378902398	 1.0827164793	 0.311768
N	 0.1178113595	-0.5998736673	 2.4446699384	-0.149776
C	-1.1679708959	-0.4953518917	 3.149582705	-0.231532
C	-0.2392006454	-1.6288180523	 3.4121155389	-0.216563
H	-0.0178160131	 1.9644698691	-0.8477810179	 0.117937
H	-1.1620580375	 1.7550568579	 0.4813732217	 0.124366
H	 0.5569471074	 1.9021044241	 0.827357708	 0.137894
H	 0.0991017075	-0.5333395556	-2.1614762822	 0.128232
H	 0.3972989292	-2.8939228118	-1.2528173024	 0.270976
H	-1.2476311369	 0.3299165314	 3.8509259426	 0.116637
H	-2.0693006729	-0.7124320615	 2.5814602123	 0.120041
H	-0.5107947123	-2.6040985194	 3.0205158032	 0.139925
H	 0.3636776717	-1.6391428746	 4.3152650323	 0.116054
