13
gdb 573	7.39757	2.68675	2.36455	0.8803	54.94	-0.239	0.0381	0.2771	568.5035	0.107234	-249.281074	-249.274838	-249.273894	-249.310679	22.525	
C	-0.3129253145	-0.3984434848	-0.9774566492	-0.470173
C	-0.0332822117	 0.3783336393	-0.1025124167	 0.299839
C	 0.3277905581	 1.3484499174	 0.9369477774	-0.273216
N	 1.1199569805	 2.5121474872	 0.5227775481	-0.076107
C	 2.1264380024	 2.340041911	-0.5192339947	-0.219228
C	 0.8720399146	 3.097441522	-0.7903788437	-0.219228
H	-0.5705647796	-1.0962066606	-1.7357273575	 0.201475
H	-0.587827697	 1.7288722764	 1.4059511208	 0.139018
H	 0.8915771065	 0.8356189898	 1.7257382047	 0.139022
H	 3.0640481594	 2.8606664649	-0.3469612564	 0.115884
H	 2.2157654175	 1.3645096696	-0.9918151734	 0.123419
H	 0.144814675	 2.614940362	-1.4394635289	 0.123413
H	 0.8736284589	 4.1832292157	-0.8204268506	 0.115884
