20
gdb 85238	2.65035	1.56871	1.14035	3.0893	80.76	-0.2501	0.0306	0.2807	1135.5925	0.171346	-403.174051	-403.16539	-403.164446	-403.206911	33.529	
C	 0.1316504524	 1.558037455	-0.0865135114	-0.397684
C	-0.0073275991	 0.0563307015	 0.1028945376	 0.104273
O	 0.4833299201	-0.6167993042	-1.0818515495	-0.262968
C	 1.1232711671	-1.784161571	-0.7546121712	 0.361582
N	 1.3908791938	-2.710786416	-1.5709397454	-0.554552
C	 1.4539271988	-1.7935528573	 0.7009779135	 0.261861
C	 1.5979257561	-3.120665326	 1.3994572212	-0.477276
C	 2.2643139106	-0.5777612677	 1.1206546503	-0.327873
C	 0.7689228034	-0.5619519629	 1.2546436695	-0.114119
H	 1.182268012	 1.8481421171	-0.1707113939	 0.126277
H	-0.3909923889	 1.8783973232	-0.9918588593	 0.130603
H	-0.3063566229	 2.0838252207	 0.7676593274	 0.120482
H	-1.0710166378	-0.2003442037	 0.2076364112	 0.08776
H	 1.0306377062	-2.4841676245	-2.499335348	 0.220133
H	 2.3973498147	-3.7053528235	 0.9359439863	 0.146159
H	 1.8370236087	-2.9815258122	 2.4579533322	 0.108936
H	 0.6770811743	-3.7076799649	 1.3276539807	 0.125557
H	 2.8415383908	-0.6847638898	 2.0325391118	 0.118432
H	 2.7390029497	 0.0267595309	 0.3549061971	 0.126362
H	 0.3144074401	-0.5624102248	 2.2382865199	 0.096055
