19
gdb 90368	2.38194	1.55368	1.30863	3.7177	77.08	-0.2332	0.0215	0.2547	1084.1916	0.158842	-419.18581	-419.177168	-419.176224	-419.218764	33.174	
C	 0.3803250302	 1.5274842923	 0.0001361599	-0.38914
C	 0.1278854007	 0.0320884329	 0.05334307	-0.010349
N	 0.9854200228	-0.7921653609	-0.8553834151	-0.333555
C	 1.3456907602	-1.7206033214	 0.2527219819	-0.207998
C	 2.6211503365	-1.2546318932	 0.9235658478	 0.474322
N	 3.8357734293	-1.5474119314	 0.8442350011	-0.55557
O	 1.966690367	-0.3306904338	 1.7297215975	-0.303755
C	 0.6432890728	-0.7830293875	 1.2708069156	 0.422912
C	-0.2574987412	-1.1389975277	 2.4184001228	-0.483399
H	 1.4315220571	 1.7442342082	 0.2014940649	 0.138574
H	 0.1305775872	 1.9199412415	-0.9905957872	 0.119105
H	-0.23608289	 2.0527009588	 0.7381198872	 0.112337
H	-0.9427006915	-0.1788322823	-0.0823692702	 0.07027
H	 0.4733074425	-1.2455080142	-1.6021908346	 0.225922
H	 1.1668822037	-2.7863589737	 0.1152422146	 0.096812
H	 4.3994394849	-0.9733327191	 1.4744373113	 0.226652
H	-0.4994076834	-0.2454393626	 3.0046881465	 0.136957
H	-1.194311167	-1.5707453703	 2.0537898035	 0.125225
H	 0.225229608	-1.8603438454	 3.0838430225	 0.134678
