14
gdb 129406	2.83778	1.76	1.08637	7.8775	68.66	-0.1891	-0.0373	0.1518	1013.6203	0.101021	-466.197723	-466.189617	-466.188672	-466.230892	29.661	
N	-0.0604194537	 1.3214814433	 0.028747179	-0.553429
C	-0.007729712	-0.0030499495	 0.0005874821	 0.601869
N	 1.1185687242	-0.7210921837	-0.0441363993	-0.559606
H	 1.0111914202	-1.7258921664	-0.0246346738	 0.310837
H	 2.0258535387	-0.2968695954	 0.0201973208	 0.279203
N	-1.1720179491	-0.6652612949	 0.0125175337	-0.1019
N	-1.2285313358	-2.0712336163	 0.0048565939	-0.231884
N	-2.4896084012	-2.3522174282	 0.0098048999	-0.159865
C	-3.2699498504	-1.2471955304	 0.0194290307	-0.201083
C	-2.4850878366	-0.0804789931	 0.0229517956	 0.386963
O	-2.6589449847	 1.1539447754	 0.0328124455	-0.486166
H	 0.767079351	 1.8885426571	-0.0212964112	 0.272183
H	-1.0365938414	 1.6918763849	 0.0332621119	 0.325942
H	-4.3444152691	-1.3121294027	 0.0253250613	 0.116936
