16
gdb 123662	4.03588	1.59731	1.2501	2.0872	74.72	-0.1879	0.027	0.2148	965.7445	0.12884	-396.920403	-396.913933	-396.912989	-396.950921	26.782	
C	 0.0015516142	 1.4747771749	 0.1068072789	-0.302332
C	 1.3076559687	 0.7245740443	-0.0090661233	-0.003447
N	 2.0856383197	 0.389717059	 1.1863042112	-0.422237
C	 1.2322825823	-0.3862844407	 1.994365463	 0.214901
C	 1.1774242251	-1.0409161544	 3.2006514407	-0.19134
N	-0.0133957367	-1.7303091468	 3.1662897728	-0.195095
N	-0.7213169517	-1.5581354973	 2.0258534062	-0.342072
C	 0.0412122375	-0.7325385655	 1.3269269914	 0.358507
C	-0.0136378815	-0.0448450073	 0.0167431115	-0.178825
H	-0.2653208474	 1.9283856507	 1.0554084532	 0.116921
H	-0.3233113366	 2.0237238907	-0.7706355546	 0.11443
H	 1.8896437304	 0.8234834939	-0.9185850443	 0.097977
H	 2.5137628615	 1.1910347204	 1.6336268467	 0.234085
H	 1.8351039564	-1.0952230408	 4.0522844222	 0.125009
H	-0.3877728185	-2.3276097662	 3.8820381685	 0.270051
H	-0.4176816732	-0.5270671949	-0.8645236841	 0.103465
