21
gdb 57864	2.23601	1.18248	0.90664	2.12	80.16	-0.246	-0.0468	0.1992	1382.184	0.17833	-424.265133	-424.25408	-424.253136	-424.302085	38.476	
C	 0.1576850411	 1.4792146984	 0.3026891422	-0.408045
C	 0.0230495669	-0.0067974292	-0.0986771211	-0.077909
C	 0.6914130975	-0.297972943	-1.4430481158	-0.387843
C	 0.5846908575	-0.8911033618	 1.0099073954	 0.376912
O	 1.5979479264	-1.5405721495	 0.8855666736	-0.32122
C	-0.1838933072	-0.9122181433	 2.3474969888	-0.161157
C	-0.3562139066	-2.3626774375	 2.8336876607	-0.408622
C	 0.6361500035	-0.125421498	 3.3640259908	 0.170197
O	 0.3031686938	 0.9276636013	 3.8409216396	-0.249056
H	 1.2131212977	 1.7649067868	 0.3630237077	 0.130682
H	-0.3187220503	 2.1108028501	-0.4525945053	 0.124128
H	-0.3048366724	 1.6968266691	 1.2689789554	 0.145759
H	-1.0509381362	-0.2344966448	-0.1634626457	 0.092753
H	 1.7647333347	-0.0963399311	-1.3922895031	 0.133081
H	 0.5685796755	-1.3454411067	-1.7308981703	 0.122175
H	 0.2571150409	 0.3298682145	-2.2268136906	 0.110312
H	-1.1469425612	-0.406573644	 2.2449053621	 0.099264
H	-0.8287213291	-2.3908900778	 3.8196137966	 0.127733
H	-0.9835039383	-2.9279838983	 2.1387604479	 0.129751
H	 0.6164821423	-2.8570145293	 2.8883745145	 0.150512
H	 1.5977741434	-0.6132349258	 3.6360491669	 0.100594
