20
gdb 73053	3.29189	1.07618	0.96146	3.4676	82.04	-0.2496	0.0233	0.2729	1311.5779	0.170403	-403.119428	-403.110372	-403.109427	-403.153608	33.532	
C	-0.1670464951	 1.5890976196	 0.2591131756	-0.498274
C	-0.0019568861	 0.1136036855	 0.0291747065	 0.29073
C	-1.166651939	-0.8776410199	-0.1361892232	-0.274227
C	-0.376543631	-1.9471152143	 0.6785533836	-0.226822
C	 0.7934731014	-0.968148889	 0.8195919541	-0.157168
C	 1.2394028963	-0.485079672	-0.5300261409	 0.066302
O	 1.1742639973	-1.2850819228	-1.6925100799	-0.191458
C	 2.0781654848	-2.2847267439	-1.7732236128	 0.130059
N	 2.1408883949	-2.9945339813	-2.8150139532	-0.442836
H	 0.7866511104	 2.0665292695	 0.5065315502	 0.117985
H	-0.5627363683	 2.08257618	-0.6368676753	 0.129291
H	-0.8638302341	 1.7862281522	 1.0813519934	 0.119893
H	-2.0674393352	-0.5429330451	 0.3831211062	 0.101679
H	-1.4215869448	-1.1347956453	-1.1668045046	 0.118929
H	-0.8489238929	-2.1689409492	 1.6373392741	 0.105567
H	-0.1578692385	-2.8905564511	 0.170190889	 0.109968
H	 1.4301653959	-0.8624246204	 1.691630204	 0.085014
H	 2.1063790745	 0.1733994219	-0.5218958442	 0.099239
H	 2.6965531922	-2.3843396234	-0.8712077026	 0.088595
H	 2.8642228374	-3.7026260111	-2.7062403399	 0.227535
