20
gdb 52264	4.45022	0.79728	0.72543	3.5903	81.62	-0.2437	0.0215	0.2652	1560.6333	0.17215	-403.188439	-403.179436	-403.178492	-403.224294	32.613	
O	 0.1898887171	 0.737928024	-1.2746820582	-0.323597
C	 0.0976621667	 1.4095678018	-0.2689268611	 0.154775
N	 1.0698075703	 1.5591861443	 0.6701315059	-0.274407
C	 2.3864123018	 0.9486809844	 0.5557722178	-0.191192
C	 3.4878762318	 1.9411972656	 0.1734788971	 0.040945
C	 3.7207802475	 3.0864021835	 1.1999306547	-0.274098
C	 5.2154814137	 3.2982883628	 1.154126665	-0.058519
C	 5.8396716112	 2.3186208872	 0.5035652822	-0.059348
C	 4.8786792016	 1.2720874966	-0.0065064894	-0.274678
H	-0.8173493233	 1.976670001	-0.003599539	 0.07123
H	 0.884434964	 2.1730676626	 1.4471431275	 0.24745
H	 2.6386776479	 0.4612734511	 1.5066859035	 0.103926
H	 2.2947859749	 0.1709013179	-0.2060192654	 0.146645
H	 3.205255496	 2.3983228662	-0.781079821	 0.093991
H	 3.1518642318	 3.9901699905	 0.9534410491	 0.104724
H	 3.4079801629	 2.793894729	 2.2157149019	 0.09261
H	 5.7003853501	 4.140107279	 1.6361091533	 0.091776
H	 6.9130934873	 2.2382990157	 0.371493611	 0.093474
H	 4.96327108	 0.3476880783	 0.5857633144	 0.102925
H	 5.064793027	 0.9835417086	-1.0468987794	 0.111371
