19
gdb 55749	4.02606	1.07699	0.98671	3.366	76.92	-0.2414	0.0548	0.2962	1247.0086	0.160959	-419.200416	-419.192106	-419.191162	-419.233808	32.375	
N	-0.1289114005	 1.3338912374	 0.2040387494	-0.572674
C	 0.0614697918	-0.0353754734	 0.0391123033	 0.429714
O	 1.1630561519	-0.5435531898	-0.0415737004	-0.385708
N	-1.1158932922	-0.7576200632	-0.0003249094	-0.497232
C	-1.0919639299	-2.1860352244	 0.0170259824	 0.451586
C	-0.5280651985	-3.1522544002	 1.1107137607	-0.251321
C	-1.1303644314	-4.0537209167	-0.0037420406	-0.04283
C	-2.3517246771	-3.0854615057	-0.0412641145	-0.289052
C	-0.4478735207	-3.1206424472	-1.045485037	-0.236423
H	 0.7118627104	 1.8586028334	 0.0138437156	 0.259847
H	-0.9587277223	 1.7381154623	-0.2045752067	 0.246619
H	-1.9405468385	-0.3207532566	 0.3827714181	 0.238429
H	 0.5563288226	-3.1611329087	 1.2270893607	 0.113408
H	-1.0466148098	-3.1536028629	 2.0741585404	 0.081419
H	-1.1638744162	-5.1409368082	-0.0184753216	 0.077344
H	-3.0004473069	-3.0807130157	 0.8406059736	 0.085776
H	-2.9302892999	-3.0581544034	-0.969317804	 0.090736
H	-0.8928535815	-3.0944812583	-2.0444090832	 0.084251
H	 0.6416519387	-3.1232031587	-1.0800953868	 0.116109
