17
gdb 50472	4.54947	0.95061	0.82437	2.4556	70.15	-0.2477	-0.0426	0.2051	1324.7767	0.137417	-455.200163	-455.191482	-455.190537	-455.234678	30.881	
O	-0.1915540192	 0.0045573764	-0.0039084153	-0.23571
C	-0.0589754676	 1.1994546838	 0.0088860065	 0.151585
C	 1.2729726923	 1.9214948948	-0.0001942807	-0.086505
C	 1.3784348418	 2.825315168	-1.2405470359	-0.173066
N	 2.5853977105	 3.6237620905	-1.1599788951	-0.345246
C	 3.1239232262	 4.1341691878	 0.0017423516	 0.439612
O	 4.0194159524	 4.959595187	-0.0002765069	-0.411627
N	 2.6165182039	 3.5956805068	 1.1647961777	-0.345243
C	 1.4118358745	 2.7952046569	 1.2583075866	-0.173073
H	-0.9464757152	 1.8761590587	 0.029042682	 0.079685
H	 2.0693691044	 1.1730724911	-0.0198612251	 0.119169
H	 1.4180227199	 2.2106666715	-2.1459317873	 0.128441
H	 0.4730242208	 3.4511572436	-1.3133395775	 0.107096
H	 2.9166881298	 4.0915368445	-1.9881364113	 0.254674
H	 2.9700047845	 4.0434261386	 1.9948457813	 0.254674
H	 0.5089224492	 3.4188659411	 1.3702892411	 0.107097
H	 1.4753506219	 2.1589495589	 2.1472542584	 0.128437
