14
gdb 27917	2.00901	1.8053	0.95086	1.2863	68.21	-0.221	0.0049	0.2259	1129.288	0.102718	-473.91062	-473.903344	-473.9024	-473.942117	28.95	
O	-0.0108139481	 1.3806616988	 0.1171231177	-0.433263
C	 0.0396951595	 0.030814727	 0.0371776061	 0.464738
C	 0.0748537725	-0.642578672	-1.1851047101	-0.397981
C	 0.1257488219	-2.0317494521	-1.1382152379	 0.456015
O	 0.1608460006	-2.7173002784	-2.299641412	-0.420028
N	 0.1426520398	-2.745886063	-0.0147738395	-0.479558
C	 0.1079749449	-2.0691042862	 1.1353405915	 0.456107
O	 0.1254129083	-2.7998987007	 2.2686023332	-0.41887
C	 0.0560283598	-0.6845202907	 1.2334923669	-0.334064
H	-0.017034751	 1.7514055722	-0.7720579056	 0.303062
H	 0.0637568188	-0.1249023112	-2.1365198768	 0.096183
H	 0.1933349898	-3.6526111434	-2.0572156371	 0.296999
H	 0.1619145971	-3.7249256563	 1.9904207752	 0.296412
H	 0.0295189162	-0.1850353839	 2.1912697384	 0.11425
