13
gdb 2792	4.39888	2.38721	1.66123	3.4062	49.66	-0.2799	-0.0017	0.2782	711.6475	0.102219	-381.607752	-381.601174	-381.60023	-381.638596	23.145	
O	-0.0048955616	 1.452489594	 0.0895614577	-0.415171
C	 0.0757918234	 0.0611163604	-0.123753293	-0.076532
C	-1.3194295974	-0.5709982733	-0.0968153915	-0.204002
C	-1.4758681514	-2.0925362814	 0.0829703549	-0.109252
O	-2.1009632974	-1.8803294128	 1.3964459037	-0.236075
C	-1.9564202046	-0.5241982871	 1.2896635586	 0.463686
O	-2.2075447367	 0.3121977212	 2.101464264	-0.335183
H	-0.4728048799	 1.5943131009	 0.9226199483	 0.302055
H	 0.5414907691	-0.0820740251	-1.1039803519	 0.119928
H	 0.7178317289	-0.4354879849	 0.622570688	 0.09805
H	-1.9489117423	-0.1296843422	-0.8726026555	 0.126555
H	-2.1638540214	-2.5979216619	-0.5961286922	 0.133984
H	-0.5510081788	-2.663307278	 0.1928478789	 0.131957
