20
gdb 103708	2.91744	1.16899	0.95745	4.1299	80.52	-0.2874	0.0083	0.2957	1297.7939	0.167424	-403.159383	-403.148896	-403.147952	-403.195089	37.607	
C	 0.0765557088	 1.3581963147	-0.5675026051	-0.380247
C	-0.0387559102	 0.1518064268	 0.3756290523	-0.255847
C	-1.4214901547	-0.4831946813	 0.343196665	 0.345666
C	-2.5163411227	 0.3228207592	 1.0121425634	-0.472617
O	-1.7965700479	-1.0790145425	-0.9131610005	-0.304841
C	-1.5825842285	-1.9623950727	 0.1931589212	 0.170082
C	-0.4479526446	-2.9606797969	 0.0724655343	-0.471991
C	-2.7986217094	-2.5700309405	 0.7242847625	 0.265098
N	-3.7355515207	-3.0869253669	 1.1618895057	-0.34515
H	 1.0960252712	 1.7536360134	-0.5563839425	 0.119493
H	-0.1652987023	 1.0647586187	-1.5929567176	 0.138623
H	-0.5961056938	 2.1711846873	-0.2796429591	 0.123739
H	 0.7232372338	-0.5813275411	 0.1042117135	 0.10583
H	 0.173785111	 0.4572816489	 1.4071119844	 0.108796
H	-2.5916394158	 1.3117589861	 0.5510287896	 0.133999
H	-3.4856620087	-0.1690609366	 0.922573578	 0.154697
H	-2.2929880093	 0.462044583	 2.0748507712	 0.129946
H	 0.4159496353	-2.5121081358	-0.4168368039	 0.142075
H	-0.153548194	-3.3311513462	 1.0589477369	 0.142682
H	-0.7730124474	-3.8153253875	-0.5276915494	 0.149967
