19
gdb 41763	2.57711	2.08523	1.59478	1.2876	78.43	-0.2329	0.0286	0.2614	913.8505	0.163138	-385.888283	-385.88163	-385.880686	-385.919181	27.694	
C	-0.0441663639	 1.4228798577	-0.3865948641	-0.072131
O	 1.0038223999	 2.0463859413	 0.3570671846	-0.256178
C	 2.0480316605	 1.109429061	 0.4669769943	 0.080116
C	 2.0039916343	 0.1619040461	 1.6406762083	-0.068218
C	 1.0447366277	 0.3312951687	 2.8109516217	-0.283235
C	-0.3723500154	-0.0786443524	 2.5129226159	-0.040586
C	-0.8409837369	-0.2892374998	 1.285258217	-0.068189
C	-0.0127840604	-0.0700227481	 0.0443658269	-0.094914
C	 1.4934013202	-0.2713599377	 0.276067299	-0.121754
H	-0.9800438501	 1.9323027383	-0.1427912415	 0.107941
H	 0.1469781289	 1.5171639364	-1.4671298961	 0.085955
H	 2.9973508023	 1.4396347081	 0.0556374367	 0.087794
H	 2.9747049418	-0.2445500458	 1.9115176877	 0.085511
H	 1.4128455894	-0.2581385324	 3.6599123433	 0.103846
H	 1.0536052072	 1.3758071582	 3.1519141391	 0.125182
H	-1.0297184866	-0.1968345891	 3.3710437363	 0.084383
H	-1.8816813353	-0.5678497136	 1.1405841008	 0.082101
H	-0.3675106768	-0.7104278378	-0.7680899235	 0.075385
H	 2.0104356831	-1.041862819	-0.2819676466	 0.08699
