17
gdb 24211	4.11706	1.67685	1.43876	2.8038	78.43	-0.1947	0.0391	0.2338	917.153	0.140014	-380.833487	-380.827247	-380.826302	-380.864635	25.89	
C	-0.0392319944	 1.5403990594	-0.0293153327	-0.171224
C	 1.5031090028	 1.344374481	-0.0193643059	-0.048685
C	 1.1593916551	 0.1500187348	 0.9212304141	-0.174221
N	-0.0946474596	 0.0018574114	 0.0301112528	-0.232214
C	 0.5880661492	-0.2821421986	-1.2222935116	 0.380287
C	 0.6699733109	-1.1514921948	-2.2754149966	-0.38995
C	 1.8379619755	-0.7511781323	-3.009651859	-0.144545
C	 2.4258357801	 0.3228815723	-2.3670907997	-0.155593
N	 1.6310112254	 0.61015943	-1.2898031298	 0.050487
H	-0.4497428609	 1.9686209652	 0.8870680803	 0.115076
H	-0.4940403852	 1.9770655816	-0.9196972386	 0.124581
H	 2.2507804476	 2.1153900048	 0.1594832611	 0.092169
H	 1.8237800104	-0.7154159002	 0.9140379386	 0.127802
H	 0.8752373727	 0.4311002423	 1.9377814597	 0.115133
H	 0.0028716476	-1.9661485324	-2.5064491504	 0.101155
H	 2.1925087814	-1.1969498394	-3.9266946235	 0.092573
H	 3.2968254914	 0.9069526348	-2.6161542189	 0.117169
