21
gdb 93659	2.34082	1.50454	1.22345	1.5685	78.	-0.2376	-0.0234	0.2142	1148.4182	0.180628	-424.262944	-424.253206	-424.252262	-424.297193	36.28	
C	 0.1346038685	 1.4211564803	-0.2643642704	-0.400953
C	-0.1270603363	-0.0219456628	 0.1753790629	 0.022133
O	 0.0279519543	-0.9639967948	-0.8800640493	-0.270244
C	 1.3311539684	-1.5455771593	-0.7830489775	-0.131122
C	 1.6196003994	-1.6922011368	 0.7196982542	 0.161273
C	 0.9293448327	-2.9508482208	 1.2890289568	-0.427808
C	 3.0987692899	-1.6485580044	 1.1002810765	-0.438988
C	 0.8597632488	-0.4700807982	 1.2606441324	 0.361987
O	 1.0150888016	 0.0544986533	 2.3328359866	-0.332719
H	 1.1460424442	 1.5362975916	-0.6664459968	 0.119953
H	-0.5790072078	 1.7125314802	-1.0388867839	 0.128528
H	 0.0281427135	 2.0909083958	 0.5935920238	 0.138985
H	-1.1518860685	-0.1086778034	 0.5563507184	 0.110161
H	 1.3033965171	-2.4978672876	-1.3192262395	 0.111898
H	 2.0841224068	-0.9008686951	-1.2635648665	 0.091419
H	 1.4377329905	-3.8513250352	 0.9282703257	 0.119451
H	 0.9651430825	-2.949700947	 2.3822828818	 0.132772
H	-0.1176582101	-3.0040573716	 0.9762158199	 0.132831
H	 3.5998161805	-0.7794909682	 0.661934542	 0.116689
H	 3.2038074006	-1.5808614974	 2.1866855833	 0.138948
H	 3.6186742333	-2.5492130786	 0.7575793697	 0.114804
