22
gdb 103667	3.60395	0.87971	0.82874	4.4867	87.22	-0.2984	0.0326	0.331	1487.9374	0.193454	-367.232624	-367.22278	-367.221836	-367.267373	36.893	
C	-0.0496358223	 1.5921417099	-0.0079369844	-0.395628
C	 0.1648892024	 0.0747159775	-0.02996554	-0.223482
C	 0.7487172119	-0.5284954116	 1.2603173104	 0.34687
C	 2.1155244787	 0.054099502	 1.6072148979	-0.464625
C	-0.2901045364	-0.5602434843	 2.4301501233	-0.27317
C	-0.6292627576	-2.0384455135	 2.0637129757	-0.1368
C	 0.6831221655	-2.090106566	 1.2210413628	-0.277878
C	-0.7804566169	-2.9922393322	 3.1483875471	 0.264664
N	-0.8814630879	-3.7457881954	 4.0200940913	-0.33048
H	 0.8955336717	 2.1358234036	 0.0786084934	 0.12289
H	-0.5358366913	 1.9245185126	-0.9300053475	 0.118489
H	-0.6873620095	 1.8986282985	 0.8282989668	 0.118652
H	-0.792388789	-0.4160370011	-0.2503087373	 0.093898
H	 0.832521412	-0.1857957483	-0.862306752	 0.098575
H	 2.0556151054	 1.1242241117	 1.8302331091	 0.121973
H	 2.5400009206	-0.4416915948	 2.48612236	 0.116035
H	 2.8207535782	-0.0745803002	 0.7775228327	 0.116385
H	 0.1877657075	-0.4906711985	 3.4098525338	 0.119997
H	-1.1218065042	 0.1465276763	 2.3932678411	 0.111825
H	-1.513741746	-2.0949225279	 1.4241535107	 0.123275
H	 0.6079635314	-2.5655299087	 0.2402029323	 0.109898
H	 1.4990205159	-2.5539527396	 1.7796741228	 0.118634
