18
gdb 47598	2.37086	1.80219	1.18664	3.5175	71.62	-0.2175	-0.0357	0.1818	1045.4433	0.150222	-439.06938	-439.061776	-439.060832	-439.102149	28.927	
O	 0.0437082499	-0.049654292	-0.1903629019	-0.302574
C	-0.0244169574	 1.1545460739	-0.1053964058	 0.366529
C	-1.3372505685	 1.9235665696	-0.0928578002	-0.270313
N	-1.3107166985	 3.0473251739	-1.0357072932	-0.28599
C	-0.2806472465	 4.0222886112	-0.6888174362	-0.182497
C	 1.1646329541	 3.4700171084	-0.6193716093	-0.093526
C	 1.8995102048	 3.8042007901	 0.6945769572	-0.081976
O	 1.54955979	 2.513009859	 1.2466632076	-0.295183
C	 1.236408273	 2.016181584	-0.082319229	 0.052394
H	-2.1516564418	 1.23657101	-0.3357314909	 0.126332
H	-1.5173301104	 2.325645648	 0.9128031943	 0.134886
H	-1.1750185879	 2.7020295307	-1.9816103455	 0.223544
H	-0.3285809333	 4.848855941	-1.4045840604	 0.110437
H	-0.5562991175	 4.4359217191	 0.2893850107	 0.115734
H	 1.7092377758	 3.6502661036	-1.5488980225	 0.082036
H	 2.9877787846	 3.9109965804	 0.5936526309	 0.103794
H	 1.506231466	 4.6319911911	 1.2948765139	 0.110217
H	 2.0679596136	 1.4223590981	-0.4834692899	 0.086154
