16
gdb 12649	3.30981	1.98846	1.29823	5.5077	67.67	-0.2377	-0.0517	0.186	923.2727	0.131472	-379.954631	-379.94692	-379.945976	-379.986765	28.407	
C	-0.2747700055	 1.5362686244	 0.0138824325	-0.403911
C	 0.1205950534	 0.0636047555	-0.0153600635	-0.088087
C	 0.9608163893	-0.399125438	-1.2208556354	-0.192462
N	 1.7827775143	-1.4745360648	-0.6683050663	-0.336593
C	 1.9623807076	-1.4096957212	 0.6961922217	 0.272576
N	 2.7447254678	-2.0398552499	 1.4794036889	-0.516518
C	 0.9613525833	-0.3705261575	 1.1888630215	 0.366986
O	 0.8624115764	 0.040343635	 2.312183294	-0.292563
H	 0.6058011573	 2.1812134655	-0.0714513234	 0.1253
H	-0.9584301185	 1.7821553483	-0.8039337065	 0.11776
H	-0.7657777747	 1.7677569771	 0.9622040279	 0.146994
H	-0.7844421569	-0.5593965899	 0.029364684	 0.121354
H	 0.3467183463	-0.7663579517	-2.0486085457	 0.117501
H	 1.5743664331	 0.4312756096	-1.6008848488	 0.111638
H	 2.4561455695	-1.9504265928	-1.2478147013	 0.24509
H	 3.3525739973	-2.6841217496	 0.9674106503	 0.204935
