19
gdb 52880	2.03555	1.28875	0.89575	3.1918	85.43	-0.2329	0.0314	0.2644	1364.9863	0.158738	-381.98983	-381.980178	-381.979234	-382.026273	34.27	
C	-0.0481809727	 1.4812847201	 0.0465220401	-0.503933
C	-0.0017756838	 0.0261353764	 0.0321237522	 0.127174
C	 0.026141598	-1.1799061412	 0.0303010557	-0.072225
C	 0.0727579696	-2.6212977466	 0.0037119422	 0.165198
C	-0.4420149517	-3.350446298	 1.2078198686	-0.271227
N	-1.2088045136	-3.3750380755	-0.0409659809	-0.351409
C	 1.1737548584	-3.2488034027	-0.8111631794	-0.014851
C	 1.6958826564	-2.5969643409	-2.0347386911	-0.255431
N	 2.5247359303	-2.6728263217	-0.8156513506	-0.330974
H	 0.9596535283	 1.9073350232	 0.09794149	 0.154969
H	-0.5307598926	 1.8768267428	-0.853926216	 0.153089
H	-0.6065287853	 1.84962	 0.9139957008	 0.153615
H	 0.0178937333	-4.2964859341	 1.4813689144	 0.126416
H	-0.8026319607	-2.7547219609	 2.0410101019	 0.120688
H	-1.9839506763	-2.7190394985	 0.0121825117	 0.238954
H	 1.1502036415	-4.3348798931	-0.7693639297	 0.094803
H	 2.0422300556	-3.2063150616	-2.8643816181	 0.117066
H	 1.2740816744	-1.6352391255	-2.3119914584	 0.117429
H	 2.4997468909	-1.7693589123	-0.3452193633	 0.230649
