20
gdb 110779	2.61259	1.30951	1.16315	1.6435	78.7	-0.2334	-0.0211	0.2123	1170.6401	0.170798	-403.153456	-403.144902	-403.143958	-403.186996	32.632	
C	 0.0094977197	 1.6802827131	-0.2950719805	-0.371972
C	-0.3923005914	 0.2068640751	-0.2828480889	-0.140631
N	 0.4477650172	-0.5474877944	-1.2079766499	-0.085567
C	 1.7181492088	-1.1411790233	-0.8094366428	-0.044589
C	 2.0323480855	-1.3500631124	 0.6601750143	-0.347621
C	 0.9116488085	-2.248214218	 1.2098610029	 0.388408
O	 0.7229806249	-2.4993101527	 2.3705752946	-0.308311
C	 0.0709678053	-2.7713939608	 0.033823107	-0.343853
C	 0.5368772127	-1.9999835144	-1.1869016595	-0.045607
H	 1.0339242599	 1.8106642767	 0.0691660154	 0.118424
H	-0.0385803636	 2.0809218604	-1.3112799484	 0.128561
H	-0.6543096392	 2.2665664058	 0.347358253	 0.114885
H	-0.3746089552	-0.1653576697	 0.7534100414	 0.101219
H	-1.4260657769	 0.0997533737	-0.6318408034	 0.108458
H	 2.5459193011	-0.9656518088	-1.490812881	 0.093751
H	 2.988562139	-1.8753860115	 0.7761079265	 0.134454
H	 2.103927993	-0.434825923	 1.2563196418	 0.136972
H	 0.2694448377	-3.8434539473	-0.0889215704	 0.133443
H	-0.994787327	-2.6737321259	 0.2631982576	 0.135919
H	 0.45986868	-2.4814928627	-2.1580248799	 0.093657
