21
gdb 63418	3.45045	1.01141	0.96805	0.8724	90.67	-0.2442	0.0177	0.262	1343.734	0.181011	-349.940836	-349.931422	-349.930478	-349.97467	36.649	
C	 0.483054021	 1.4325397998	-0.0847091517	-0.418633
C	-0.2146459877	 0.065800929	 0.0827052807	 0.262752
C	-1.7301628946	 0.2761130964	 0.229735329	-0.433063
C	 0.1264996608	-0.8970562597	-1.0928391167	-0.261413
C	 1.3184384413	-1.7766084396	-0.6037365499	-0.205711
C	 1.2009513769	-1.6604006489	 0.9100945354	-0.087851
C	 0.3809933263	-0.6773621671	 1.2660050497	-0.09116
C	 1.2887288678	-3.1454993073	-1.1073544002	 0.316221
C	 1.2581076287	-4.2748012278	-1.5191986059	-0.466856
H	 1.5594619836	 1.3126196948	-0.243256299	 0.114832
H	 0.0700410943	 1.9782961107	-0.9406045562	 0.111472
H	 0.3455610412	 2.055111198	 0.8061275361	 0.111238
H	-2.1501883643	 0.7379006495	-0.6709678219	 0.112693
H	-2.2464831218	-0.6747532596	 0.3949545653	 0.116642
H	-1.9565476783	 0.9352309741	 1.0754007199	 0.109728
H	-0.7263526456	-1.552261926	-1.2900670963	 0.111569
H	 0.3575609324	-0.3676069443	-2.0209494291	 0.100226
H	 2.2719577578	-1.3268121573	-0.9207336819	 0.109094
H	 1.7654400516	-2.301474145	 1.5767846262	 0.104089
H	 0.1743543637	-0.3776429475	 2.2889962754	 0.0919
H	 1.232741005	-5.2717957721	-1.8831472889	 0.192232
