17
gdb 51115	3.65336	1.08655	0.97485	2.8845	72.15	-0.2348	-0.0272	0.2076	1213.2217	0.133855	-421.750168	-421.742172	-421.741228	-421.78385	29.982	
O	-0.6894801097	 0.7050462035	 0.6090594745	-0.235992
C	 0.1436640169	 0.9372218219	-0.2276366491	 0.163394
C	 1.2777578016	 1.9349441818	-0.0649739918	-0.389297
C	 1.2573966468	 2.9703141595	-1.1574348002	 0.300972
C	 1.8758721041	 2.8119796705	-2.5245193375	-0.330242
C	 2.3547492379	 3.9220372504	-1.6250581517	-0.170988
C	 1.3234516422	 5.0929311315	-1.5734409936	 0.026125
O	 0.2188116023	 4.7957762356	-2.4399260478	-0.235577
C	 0.2646447022	 4.1897854819	-1.1428125467	-0.037703
H	 0.1265927154	 0.4261731262	-1.217492652	 0.080862
H	 1.2004683124	 2.3851556381	 0.9305877887	 0.12098
H	 2.2233664056	 1.3772928741	-0.1144737187	 0.121996
H	 2.5657771643	 1.9786280998	-2.6167357378	 0.113177
H	 1.3063930854	 3.0424324277	-3.4156901349	 0.142224
H	 3.3707335061	 3.9975222427	-1.2604739542	 0.098855
H	 1.5225704582	 6.1335732921	-1.3503732401	 0.1135
H	-0.5884666617	 4.3224283426	-0.4878495969	 0.117714
