25
gdb 77566	2.17645	1.41191	1.27675	0.2644	92.64	-0.2409	0.0816	0.3225	1229.6512	0.227042	-352.347041	-352.336769	-352.335825	-352.380977	40.255	
C	-0.4317981917	 1.530984034	 0.4037781463	-0.41743
C	-0.1041124257	 0.0524924581	 0.220578946	-0.085893
C	 0.2759913233	-0.4580285691	-1.1831608555	 0.376157
C	-0.7032099255	-1.0540137888	-2.1556110719	-0.500988
C	 1.5947952089	 0.1266645681	-1.612011081	-0.357677
C	 1.5919618575	-1.0197883917	-0.6379460979	-0.128373
C	 1.244493383	-0.5598534947	 0.7911704731	 0.328757
C	 2.2319668569	 0.3903363831	 1.4701203723	-0.443777
C	 0.9632826959	-1.7586949094	 1.7006197938	-0.441761
H	 0.3568488579	 2.1844325749	 0.0193052336	 0.112536
H	-1.3575099305	 1.7876459738	-0.1237057266	 0.111931
H	-0.5786894393	 1.776658402	 1.4613686206	 0.111451
H	-0.9431379655	-0.5375219823	 0.6072093006	 0.061949
H	-1.3628756964	-0.2874556941	-2.5814952406	 0.11669
H	-0.1876458072	-1.5407763183	-2.9904791864	 0.114487
H	-1.3406814266	-1.8047359836	-1.673441139	 0.11236
H	 1.8985437414	-0.1326217048	-2.6222427389	 0.104353
H	 1.907535367	 1.1233341186	-1.3121162867	 0.100332
H	 2.0719660693	-1.9648922701	-0.872815182	 0.072356
H	 2.4863558267	 1.2508021868	 0.8458613558	 0.10951
H	 1.826061664	 0.7739472323	 2.4133627608	 0.108521
H	 3.1664114689	-0.1333099284	 1.7028100068	 0.109337
H	 1.8890296982	-2.2957796734	 1.9399328813	 0.107129
H	 0.509256806	-1.4396510756	 2.6460376635	 0.107653
H	 0.2815378534	-2.4690639374	 1.2211362617	 0.110389
