17
gdb 67012	2.23206	1.76573	1.63102	2.0341	74.03	-0.2539	0.0183	0.2721	958.6751	0.135637	-417.95418	-417.946133	-417.945189	-417.986386	31.136	
C	-0.1727606388	 1.5005373172	-0.0206106135	-0.526609
C	 0.0981564605	 0.0388095448	 0.0143142496	 0.256729
C	 0.646899989	-0.9877798834	-0.8774450643	-0.085461
C	 1.4062461977	-1.7114601129	 0.235868883	-0.289828
C	 0.4034063809	-1.0373109622	 1.2002391933	 0.291126
O	 0.7108684423	-0.8519279068	 2.5195840929	-0.467496
C	-0.9218685784	-1.5786588385	 0.7589320418	 0.33813
N	-1.8670123876	-2.068811241	 1.42832042	-0.57701
N	-0.8443485299	-1.0170486634	-0.5740511025	-0.236794
H	 0.7174213308	 2.0654036468	 0.2744283656	 0.137485
H	-0.4653309458	 1.8121387037	-1.0275576904	 0.142201
H	-0.9830160832	 1.7630538432	 0.6677238078	 0.138018
H	 0.8913072408	-0.9229057813	-1.9295984121	 0.111674
H	 1.4386106328	-2.8055021775	 0.2370365377	 0.112754
H	 2.4116189198	-1.299038295	 0.3512505466	 0.121329
H	-0.1060688203	-0.9705775169	 3.0229815883	 0.303635
H	-2.7011279808	-2.1972452671	 0.8513349762	 0.230118
