21
gdb 101948	1.97603	1.42611	0.90151	1.5346	79.03	-0.2511	0.0795	0.3306	1339.0582	0.180523	-424.17201	-424.162251	-424.161307	-424.207492	35.099	
C	-0.1513905253	 0.0203448867	-1.1043062627	-0.237269
O	-0.0999932559	-0.956456036	-0.0881674864	-0.245028
C	 0.6551001764	-0.5922816963	 1.0583654196	 0.065645
C	 0.3209170352	-1.5845313404	 2.145128348	 0.017295
C	 0.5364240608	-1.2126361767	 3.5893371777	-0.259584
C	-0.8630188046	-1.3486413307	 3.0454704625	-0.279672
C	 2.1450308332	-0.5889891305	 0.7514700628	 0.081744
C	 2.8810526444	 0.6368873858	 0.4130905851	-0.184428
O	 2.9797995124	 0.0575402521	 1.7135123535	-0.232578
H	 0.8229537973	 0.1853482413	-1.584965046	 0.109141
H	-0.8543802217	-0.3418619828	-1.8586530493	 0.128385
H	-0.5141165392	 0.9867623402	-0.7197828618	 0.101933
H	 0.3761092502	 0.4220536702	 1.3940572341	 0.061739
H	 0.5238189978	-2.6145510343	 1.8646310652	 0.087852
H	 0.9084934004	-1.9776388701	 4.2612692491	 0.111961
H	 0.9132646822	-0.2182856741	 3.7999469248	 0.123504
H	-1.4414767496	-0.4435516497	 2.8918148706	 0.110732
H	-1.4545013694	-2.2062858185	 3.3453659306	 0.112313
H	 2.5318869411	-1.5405315121	 0.3819367725	 0.096931
H	 3.7816846311	 0.5778696341	-0.1965825848	 0.116519
H	 2.3501348432	 1.5872744718	 0.3663994149	 0.112865
