23
gdb 112550	2.80708	1.13451	1.02881	2.2306	81.58	-0.2411	0.0606	0.3017	1305.1331	0.20423	-425.418029	-425.407814	-425.40687	-425.452906	39.056	
C	 0.5224243277	 1.3403005622	 0.1968050128	-0.430223
C	-0.0053832218	-0.0798377629	-0.002849461	 0.327984
C	-1.5324467466	-0.091328237	-0.0356207222	-0.447643
C	 0.6754000575	-0.8370446866	-1.1936247242	-0.308726
C	 1.4207564635	-1.7707739827	-0.1983911604	-0.016241
C	 2.9227624931	-1.568179638	-0.1213159622	-0.110473
O	 3.389057227	-2.2868945525	 1.0279050629	-0.42688
C	 0.6193686239	-1.1315036633	 0.9792714223	 0.093485
O	 1.3659207152	-0.5845823821	 2.0409806414	-0.440815
H	 1.6140427757	 1.3708654787	 0.2344493911	 0.113212
H	 0.1901431785	 1.9844034499	-0.6258518913	 0.100617
H	 0.1557868529	 1.7668495294	 1.1354622086	 0.121086
H	-1.9146788007	 0.5239908697	-0.8585597494	 0.108831
H	-1.9218072591	-1.1064486601	-0.1713359797	 0.105869
H	-1.9476993807	 0.3038764446	 0.89872757	 0.116615
H	-0.0284317088	-1.3617597773	-1.8443889023	 0.096459
H	 1.322635217	-0.2183653308	-1.823665747	 0.091093
H	 1.223301999	-2.8378143614	-0.3329531877	 0.073573
H	 3.4026735027	-1.9441558541	-1.0371474138	 0.095657
H	 3.1635886428	-0.5003137556	-0.028773155	 0.103576
H	 4.3335619437	-2.1295255784	 1.1227999934	 0.292605
H	-0.1487103347	-1.8201927854	 1.3625393155	 0.053434
H	 2.0981167623	-1.1961976163	 2.2017598081	 0.286906
