17
gdb 43137	2.49444	1.98953	1.63024	2.8157	71.93	-0.2203	-0.0163	0.204	899.422	0.137046	-421.765005	-421.758167	-421.757223	-421.795949	27.831	
O	 0.0720657473	 0.0058864595	 0.0963186064	-0.325424
C	-0.0084224168	 1.1955487675	 0.0789927979	 0.393168
C	-1.0967107755	 2.2663168962	-0.0038540269	-0.236752
C	-0.6728667227	 3.0431990752	 1.2986602059	-0.095743
O	 0.798981366	 3.0315340004	 1.2454619814	-0.34406
C	 0.9613244609	 2.4252328782	-0.0268631991	 0.356891
C	 2.0360648433	 2.34832687	-1.0975581073	-0.332978
C	 0.8141590665	 2.3449121686	-2.1085919157	-0.281946
C	-0.0973213098	 2.9744272475	-0.984381233	-0.055194
H	-2.1615717423	 2.0834666066	-0.142021505	 0.092829
H	-1.021795463	 4.0814193444	 1.3076137414	 0.11543
H	-1.0089644499	 2.5340762715	 2.2060232356	 0.127807
H	 2.625500731	 3.2642711185	-1.1872353691	 0.121197
H	 2.6978016088	 1.479890191	-1.0852151249	 0.12278
H	 0.9287903135	 2.9786057238	-2.9876428493	 0.114662
H	 0.5307268033	 1.3410748886	-2.4286335618	 0.135756
H	-0.2023751705	 4.0572809226	-1.0670054865	 0.091577
