18
gdb 19290	3.41985	1.75769	1.41476	1.8163	66.73	-0.2497	0.0733	0.323	935.0007	0.153361	-384.900922	-384.893104	-384.89216	-384.932976	29.729	
C	 0.0078753256	 1.5293002065	-0.0895714762	-0.385932
C	-0.1162747232	 0.0078145074	 0.0485762745	-0.18893
C	 0.6992486484	-0.5513461316	 1.2080533407	-0.054032
C	 0.7918215737	-2.0725959896	 1.3703935085	 0.009328
O	 1.5122633346	-2.5842345326	 0.2333925194	-0.26293
C	 2.2622334371	-2.0606525045	 1.3446278031	-0.018668
C	 2.2926441432	-0.5418361208	 1.1150261304	 0.10687
O	 2.8940004931	-0.1184674395	-0.0777714208	-0.427294
H	 1.0473807443	 1.8146649373	-0.2717016979	 0.139097
H	-0.598436529	 1.8998404685	-0.9219335401	 0.10988
H	-0.3306679009	 2.0388389063	 0.8198770668	 0.107533
H	-1.168717477	-0.2699595009	 0.1930286525	 0.09433
H	 0.2000538931	-0.4779071272	-0.8809448609	 0.099332
H	 0.394764332	-0.0856924403	 2.1527911342	 0.07423
H	 0.1138082268	-2.7592559247	 1.8641157274	 0.10541
H	 2.9931444737	-2.7191134748	 1.7998161697	 0.106368
H	 2.7513991083	 0.0234140313	 1.9290318235	 0.092725
H	 2.620397526	-0.7525017208	-0.7531579051	 0.292683
