17
gdb 10091	3.09846	1.34385	0.98965	2.4199	68.36	-0.2701	-0.0093	0.2608	1181.1898	0.138906	-401.028008	-401.018507	-401.017563	-401.063125	31.884	
C	 2.6439012191	-1.1715545012	 1.3342608905	-0.372979
C	 2.6887674954	-0.2566528306	 0.1133716856	-0.258994
C	 2.8455623381	 1.2012385439	 0.4388013708	 0.375478
O	 2.7581717464	 1.9916833443	-0.7294663756	-0.205879
C	 3.8775060905	 2.630409268	-1.1581498692	 0.161643
O	 3.8796191515	 3.3408812394	-2.1146568259	-0.261431
N	 2.9811653049	 1.6588342095	 1.5991932275	-0.238585
C	 3.0624502409	 3.0780890078	 1.885023468	-0.347366
H	 2.5240874332	-2.2126665597	 1.0219223774	 0.113609
H	 3.5610668457	-1.0872834438	 1.9218868935	 0.131935
H	 1.8108740321	-0.9069183249	 1.989996661	 0.132838
H	 3.5091113659	-0.5391734752	-0.5612281855	 0.122519
H	 1.7793715618	-0.35712016	-0.4932772207	 0.136392
H	 4.7596008716	 2.4037594054	-0.5328084557	 0.096584
H	 2.3693213213	 3.3024366713	 2.701914962	 0.142297
H	 4.0673555551	 3.3149671585	 2.251583907	 0.138635
H	 2.8302632463	 3.7346764275	 1.0384612494	 0.133307
