18
gdb 65326	3.81498	1.02536	0.92558	4.0972	77.59	-0.265	0.0061	0.2711	1279.3593	0.147556	-398.086111	-398.077242	-398.076298	-398.119744	32.853	
C	-0.0399144448	 1.7355799504	 0.3267298565	-0.446732
C	-0.0782554667	 0.2537521703	 0.0184826486	 0.283939
N	 0.9147172553	-0.2050770153	-0.9509191735	-0.34509
C	 1.0502612111	-0.6409520056	 0.4580610231	-0.240971
C	 2.1913052848	-0.1459850754	 1.1880948246	 0.33342
N	 3.088475585	 0.2462939175	 1.8029268922	-0.335068
C	-1.4673406252	-0.3350112379	 0.0357233841	-0.050269
C	-2.2667673357	-0.4322565794	-1.2127857078	-0.242207
N	-1.7956501021	-1.6487278531	-0.5237950723	-0.323738
H	 0.9867382113	 2.1052137212	 0.3373036865	 0.153779
H	-0.60074138	 2.2894935662	-0.4324255025	 0.130775
H	-0.4932219566	 1.9379612155	 1.3024289281	 0.130882
H	 0.5803669236	-0.9830737588	-1.5169575615	 0.229325
H	 0.7841592826	-1.6654064028	 0.7049659106	 0.137793
H	-1.9975847048	-0.125723807	 0.9627902063	 0.109716
H	-3.3412197822	-0.2786205045	-1.1909867359	 0.13098
H	-1.7839197438	-0.1432205715	-2.1431224597	 0.122414
H	-1.0066066118	-2.0539849398	-1.0240621276	 0.221053
