18
gdb 47470	3.03117	1.21712	0.95935	4.0543	77.67	-0.2352	0.0307	0.266	1233.3302	0.148118	-401.961779	-401.95294	-401.951996	-401.995888	32.592	
O	-0.03525994	 0.1343049999	-0.8685389789	-0.371468
C	 0.01926776	 1.2575249209	-0.4219804152	 0.405017
N	-1.0460396557	 1.9956122035	 0.0257028519	-0.296926
C	-0.7166028478	 3.2948300855	 0.5787746219	-0.165365
C	 0.7056620579	 3.5355799632	 0.0203785186	-0.236687
C	 1.2764909218	 2.1243529238	-0.2187670775	-0.11276
C	 2.1095700946	 1.6099391355	 0.9850672254	-0.373278
C	 2.7279888576	 0.3077276751	 0.7771718076	 0.323976
C	 3.26650839	-0.7525481362	 0.6085165943	-0.437463
H	-1.956975493	 1.5713613806	 0.0986605888	 0.250743
H	-1.4234628597	 4.0631029647	 0.2493211731	 0.11511
H	-0.7268685129	 3.2864657687	 1.6783059607	 0.107516
H	 0.6352064511	 4.0707671639	-0.9304689637	 0.116229
H	 1.3154967761	 4.1397337846	 0.6967735755	 0.106492
H	 1.8962203474	 2.0691611388	-1.115795159	 0.111006
H	 2.8929694402	 2.3499651636	 1.1937879972	 0.130818
H	 1.4761814413	 1.5790753218	 1.8820521349	 0.131246
H	 3.7184225612	-1.7001383379	 0.4509737742	 0.195794
