19
gdb 88312	3.62492	0.89381	0.86905	4.5276	79.49	-0.2504	-0.0223	0.2281	1417.9246	0.159454	-419.232774	-419.223506	-419.222562	-419.267494	33.865	
C	-0.327297207	 1.6160942612	 0.096482962	-0.414518
C	 0.0192891714	 0.1464694234	 0.0360647245	 0.0125
C	 1.3823162552	-0.3196964215	-0.376160324	-0.286282
C	 0.9531267618	-0.5169954009	 1.0573298614	-0.114005
C	 1.5992776157	 0.2782007224	 2.1389058948	 0.390159
N	 2.388646438	 1.2447037556	 1.9031568576	-0.509554
N	 1.2087671727	-0.162929007	 3.4310342693	-0.35225
C	 1.6049050054	 0.3531977533	 4.6383611212	 0.168336
O	 2.366767925	 1.2798162077	 4.8012220938	-0.299245
H	 0.5224806997	 2.2050256402	 0.447899989	 0.155552
H	-0.6078561478	 1.9787200706	-0.8983652942	 0.117592
H	-1.1740708568	 1.7987219992	 0.7676398785	 0.109581
H	-0.8055021996	-0.4960062645	-0.2634559135	 0.086926
H	 1.476819699	-1.2019052977	-0.9993985157	 0.109938
H	 2.1430659342	 0.4390843595	-0.5232339459	 0.1493
H	 0.6752202795	-1.5265054253	 1.3492620715	 0.077687
H	 2.6995498559	 1.6824689465	 2.7697894444	 0.251306
H	 0.5539386874	-0.929492564	 3.4703293896	 0.255163
H	 1.13550612	-0.1901475787	 5.4815648859	 0.091814
