15
gdb 44895	4.06088	1.18877	1.10551	3.6195	70.4	-0.2496	-0.0404	0.2092	1079.0538	0.114757	-416.805415	-416.798385	-416.797441	-416.837073	26.996	
O	 0.0287827061	 0.0481550869	 0.0017731176	-0.311862
C	 0.0087255614	 1.2460036944	 0.015850956	 0.423778
C	-1.2014745974	 2.2136123007	 0.0532141408	-0.359638
C	-0.3843896684	 3.5198953514	-0.00108418	-0.003991
N	 0.6728821906	 3.2565060829	-1.0315878752	-0.302403
C	 1.1763861312	 2.2437259914	-0.0480139907	-0.112252
C	 0.7339873674	 3.2586153256	 1.0625646741	-0.169999
C	 1.6578911403	 4.358553487	 1.274105977	 0.291294
N	 2.3865453883	 5.2280439375	 1.494588488	-0.318204
H	-1.8506152554	 2.0916009296	-0.8186649774	 0.138164
H	-1.8065949982	 2.0686921841	 0.9532817708	 0.138162
H	-0.9078038913	 4.4729881402	-0.0473691908	 0.109508
H	 0.3171820546	 2.8476040022	-1.8968184405	 0.229213
H	 2.1912141075	 1.8645311127	-0.1389919899	 0.115499
H	 0.4181111932	 2.8399988934	 2.0207990901	 0.13273
