21
gdb 78283	2.18164	1.66549	1.49098	1.6165	82.04	-0.2344	0.0717	0.3061	1053.0504	0.18146	-387.049675	-387.040624	-387.03968	-387.082623	35.471	
C	-0.0665323896	 1.5476278462	 0.0293517788	-0.501207
C	-0.0764179695	 0.0409182346	 0.0569139887	 0.279413
C	 1.1293067124	-0.7913470451	-0.3100697757	-0.382461
C	 0.5473130032	-0.951931892	 1.0743579258	 0.279371
C	 1.3429451594	-0.6958562894	 2.3283252343	-0.501207
C	-0.6953609105	-1.8123258756	 1.0041263578	-0.168841
C	-1.929709433	-1.0249463681	 1.3372389403	 0.109595
O	-2.0270021116	-0.0556031227	 2.3426685849	-0.435697
C	-1.3230583177	-0.8131648389	-0.0198384942	-0.168822
H	 0.8947443966	 1.9507255999	 0.3658080061	 0.116558
H	-0.2366022731	 1.9211767116	-0.9876321558	 0.125086
H	-0.8550839401	 1.9691283291	 0.6624449813	 0.121091
H	 1.0434081122	-1.5929790838	-1.0396679973	 0.101764
H	 2.0706006292	-0.2488300182	-0.3577040323	 0.103332
H	 2.0240314372	 0.1533839621	 2.2072864677	 0.116579
H	 0.6923126553	-0.4934464591	 3.1862333808	 0.121046
H	 1.9551471573	-1.567976684	 2.5878163975	 0.125099
H	-0.6954944712	-2.8971598658	 0.9559250557	 0.081373
H	-2.8462660569	-1.6084886364	 1.3296898954	 0.10546
H	-1.2119579935	 0.4554016882	 2.3428335362	 0.291094
H	-1.8552254462	-1.0510779226	-0.9360158859	 0.081374
