23
gdb 118667	1.61487	1.00795	0.65436	2.1566	84.54	-0.2414	-0.0282	0.2133	1793.3417	0.201754	-425.438287	-425.426799	-425.425855	-425.476503	39.471	
C	-0.09948253	 1.5371549391	-0.1502381912	-0.383549
C	-0.0262428999	 0.0098177823	-0.0827784663	-0.171915
C	-1.4071427111	-0.6404988043	 0.0566931094	-0.19332
C	-1.3419128789	-2.1711752981	 0.1562868178	 0.033551
O	-0.6226652919	-2.5141616438	 1.3222578686	-0.253704
C	-0.1821891022	-3.8637094388	 1.3535263631	-0.044031
C	 0.5632926833	-4.0951135894	 2.6558874131	-0.3859
C	-2.762412198	-2.7273137439	 0.2212618756	 0.133027
O	-3.4646359709	-2.9199502057	-0.7362155424	-0.247336
H	 0.8973700805	 1.9769668865	-0.2529650322	 0.113748
H	-0.7004181733	 1.8706602962	-1.0036107548	 0.115373
H	-0.5539733671	 1.9525483047	 0.7560514243	 0.116291
H	 0.4619761757	-0.3770884513	-0.9869857158	 0.094235
H	 0.5961079155	-0.3004588749	 0.7624727703	 0.115655
H	-1.9112805002	-0.2535175236	 0.9520160766	 0.105062
H	-2.0392576723	-0.3875729802	-0.8023800001	 0.116341
H	-0.8546695207	-2.5757223759	-0.7455617309	 0.086539
H	-1.0391131204	-4.5524781511	 1.2726566587	 0.094523
H	 0.4707229174	-4.0619855468	 0.4880860445	 0.095328
H	 0.9268894715	-5.1255212113	 2.7080798973	 0.119117
H	 1.4198938874	-3.4194363233	 2.7317202279	 0.129131
H	-0.092838808	-3.9140365336	 3.5118271812	 0.128754
H	-3.1149775665	-2.9068191928	 1.2646075551	 0.08308
