14
gdb 5204	6.704	1.17403	1.08	1.483	63.79	-0.2354	-0.0489	0.1865	1041.9944	0.107872	-378.756861	-378.74969	-378.748745	-378.789737	24.912	
O	 0.052231498	-0.122301918	 0.2630355305	-0.218845
C	 0.0770130964	 0.9661709284	-0.2415151578	 0.147579
C	 1.2525629486	 1.9330735546	-0.087379014	-0.266451
N	 1.3163905857	 2.9070149521	-1.1512904347	 0.016266
C	 1.6878929466	 2.6688225274	-2.4607325809	-0.133093
C	 1.5312732445	 3.864336087	-3.1098908365	-0.082423
N	 1.0709563278	 4.8294289403	-2.2446807998	-0.267314
C	 0.9501753139	 4.2231386542	-1.0878543618	 0.005098
H	-0.7639653591	 1.3649331242	-0.851405501	 0.105679
H	 1.1255239536	 2.463294895	 0.8639146212	 0.156805
H	 2.1798040168	 1.356854395	-0.017143345	 0.156103
H	 2.0292046622	 1.6985832408	-2.7831034688	 0.13462
H	 1.7276204728	 4.0862073024	-4.1477604435	 0.114991
H	 0.6141222423	 4.6723378566	-0.1641494581	 0.130984
