18
gdb 116670	2.36401	0.96883	0.79334	3.0889	78.19	-0.2508	0.0095	0.2603	1499.64	0.143996	-439.031657	-439.021045	-439.020101	-439.068463	36.384	
C	-0.5391587797	 0.7858997741	-0.0068448662	-0.252877
O	 0.7034419554	 0.1165487701	-0.2028504498	-0.194908
C	 0.6933886007	-0.8646141731	-1.1206965646	 0.135581
N	 1.7454238846	-1.524281778	-1.3428231877	-0.263419
C	 1.7362839011	-2.6000274483	-2.3332372514	-0.131269
C	 2.3717746913	-3.8379005612	-1.6529048369	-0.051074
O	 1.6668027928	-4.2290307314	-0.4994737744	-0.418659
C	 0.4371880234	-2.9210127691	-2.9353610936	 0.337943
C	-0.6263751027	-3.1767438049	-3.4353880916	-0.491806
H	-0.8976711644	 1.2445679682	-0.9357529053	 0.131914
H	-1.3043704833	 0.1026189788	 0.3796438243	 0.132913
H	-0.3519364617	 1.5679331022	 0.7295362122	 0.148618
H	-0.2656255015	-1.0189824867	-1.6302391508	 0.101447
H	 2.4219839054	-2.3007836612	-3.1396082143	 0.115294
H	 2.3565757055	-4.6860375209	-2.3427389772	 0.114493
H	 3.4179828075	-3.5844006178	-1.4267159425	 0.096882
H	 1.6762714155	-3.4669597442	 0.0921281481	 0.288676
H	-1.5584920301	-3.4234018066	-3.8809802083	 0.20025
