19
gdb 38047	3.56101	1.74037	1.49379	0.3188	83.97	-0.2182	0.0144	0.2326	931.3196	0.162407	-348.717689	-348.71139	-348.710446	-348.747755	27.976	
C	-0.060352653	 1.572560982	 0.2242175029	-0.239224
C	 1.4708750034	 1.3727496689	 0.0319989775	-0.125486
C	 1.7461512812	 0.422897105	 1.2198948103	-0.079557
C	 0.7340853127	-0.4561539614	 1.1830939518	-0.204656
C	-0.0622750957	 0.0123407047	-0.0334969529	 0.34802
C	-1.218406199	-0.5892773289	-0.8178018242	-0.413271
C	-0.9047891003	-0.0604404333	-2.2163820878	-0.040849
C	 0.3215108196	 0.4686260952	-2.329279233	-0.145532
C	 1.1015523789	 0.2835457207	-1.0541860986	-0.000882
H	-0.3954968848	 1.903962901	 1.2092511817	 0.087229
H	-0.5420133621	 2.1460583196	-0.5705054635	 0.098331
H	 2.1655586123	 2.1956365156	-0.1389613266	 0.054583
H	 2.5754473098	 0.490122455	 1.9101898189	 0.096114
H	 0.5185601446	-1.295402325	 1.8292183518	 0.099772
H	-1.2257986512	-1.6888430097	-0.8028504655	 0.106318
H	-2.2017397619	-0.2613778455	-0.4592147295	 0.10489
H	-1.6229687552	-0.1280162906	-3.0276992888	 0.091384
H	 0.7347265416	 0.8683492642	-3.249354174	 0.089037
H	 1.8644839191	-0.4963384875	-1.1624566803	 0.07378
