17
gdb 42265	3.34068	1.18108	1.07014	2.9199	79.22	-0.2473	-0.0554	0.1919	1168.1689	0.134728	-384.635479	-384.627127	-384.626183	-384.669338	31.204	
O	 0.2826666488	 0.1569568522	-1.1482279237	-0.301329
C	 0.0564431723	 1.1758312433	-0.5283041675	 0.240571
C	 1.065880663	 1.782254908	 0.3284157312	 0.258312
C	 1.8868610933	 2.3125190133	 1.0316099358	-0.415777
C	-1.2819557466	 1.8778788963	-0.5318707606	-0.106156
C	-2.4022227693	 1.3360771356	-1.4723570835	-0.266481
C	-3.2765310903	 1.0532508123	-0.2423679082	-0.034838
C	-2.576212954	 0.1058319159	 0.6875995426	-0.276518
C	-2.1764380674	 1.5569472808	 0.6932347915	-0.063077
H	 2.6251616059	 2.7631543473	 1.6495468728	 0.213547
H	-1.129037684	 2.9553869805	-0.6339923815	 0.096416
H	-2.798628335	 2.1211228067	-2.1189459928	 0.105281
H	-2.12846639	 0.4701493624	-2.0790838683	 0.123054
H	-4.3418960245	 1.2362272342	-0.1799351184	 0.089239
H	-3.1494594319	-0.2058312103	 1.554676801	 0.11384
H	-1.9046784035	-0.6541721807	 0.2967062633	 0.131126
H	-2.2472388469	 2.174898832	 1.5791970162	 0.09279
