21
gdb 59699	2.29303	1.26757	1.00242	3.5752	78.68	-0.242	-0.0322	0.2098	1286.6827	0.180123	-424.215623	-424.205714	-424.20477	-424.251033	35.52	
C	-0.1206596137	 1.3052767804	-1.2779975524	-0.39669
C	-0.2255331521	-0.0845501011	-0.6313754221	 0.002074
C	 0.6591662398	-0.1658676337	 0.6211430661	-0.397401
C	-1.6851559248	-0.4030283364	-0.3116034517	-0.026844
C	-2.6990983935	-0.5185703842	-1.4718452709	-0.097595
O	-3.2045717611	-1.7719520194	-0.9685460666	-0.265682
C	-2.1614420891	-1.8677444701	 0.0024047414	 0.014832
C	-1.1588706307	-2.9635837956	-0.3045555419	 0.139893
O	-1.0511533337	-3.5097299196	-1.3705932012	-0.238854
H	 0.9171128473	 1.5351260463	-1.5385020636	 0.118553
H	-0.7160855435	 1.3726598479	-2.1940226262	 0.120415
H	-0.4716184293	 2.0846945379	-0.5911097582	 0.114912
H	 0.133045656	-0.8237195049	-1.3605113144	 0.095426
H	 0.3356138738	 0.5620688425	 1.3745484614	 0.115827
H	 0.6288080942	-1.1573972899	 1.0841132249	 0.112037
H	 1.7035240872	 0.0519803209	 0.3764891552	 0.120135
H	-2.0457509517	 0.2779080918	 0.4659975885	 0.0865
H	-3.4803549544	 0.2466936956	-1.5282948153	 0.107754
H	-2.2389132096	-0.6415858176	-2.4609707483	 0.111792
H	-2.5493901224	-2.0244671137	 1.0192279414	 0.090528
H	-0.4981919987	-3.228031897	 0.5550739338	 0.072386
