18
gdb 23386	3.02158	1.22244	1.08866	1.4959	74.51	-0.2302	0.0115	0.2416	1169.7561	0.145858	-438.994531	-438.985641	-438.984697	-439.029236	32.523	
C	-0.6856394272	 1.2031398679	 0.0581881491	-0.483282
C	 0.0212707706	-0.1165510891	 0.1953454113	 0.34895
N	 0.4607301264	-0.6175997494	 1.2865900335	-0.176391
O	 0.2088084423	 0.2059408828	 2.3956034456	-0.394031
C	 0.2257773257	-0.9203163425	-1.0454430071	-0.124153
C	 0.1830637774	-2.4309807353	-1.1359997908	-0.1499
C	-0.9414454293	-2.9779002927	-0.2616667914	-0.089755
O	-1.9035711129	-2.0554177103	-0.8540995174	-0.284353
C	-0.9095754316	-1.5956315936	-1.7680411285	 0.084534
H	-0.3955629323	 1.6969167595	-0.8743555351	 0.121139
H	-1.7676181763	 1.0313609184	 0.0114205629	 0.154441
H	-0.4756512365	 1.8583747488	 0.9029900553	 0.150528
H	 0.626491346	-0.2876316605	 3.1088242073	 0.304858
H	 0.9448752621	-0.4861217995	-1.7409077146	 0.102905
H	 0.9788591298	-3.0123153913	-1.5809123747	 0.100311
H	-1.2107720689	-4.0096013307	-0.5132422628	 0.105557
H	-0.8537168368	-2.8517510483	 0.8197213013	 0.125687
H	-1.2072971884	-1.4068248143	-2.7935292538	 0.102954
