23
gdb 64158	2.07429	1.45195	1.31821	0.6307	91.33	-0.2501	0.0517	0.3018	1179.5138	0.20303	-351.124783	-351.114616	-351.113671	-351.158614	40.067	
C	-0.6450930391	 1.3899507199	 0.2401626797	-0.455992
C	-0.0091867483	 0.02808696	-0.0224137857	 0.303572
C	-1.0323017296	-0.9090328136	-0.6706231018	-0.435688
C	 1.3387449468	 0.0169019688	-0.8058025793	-0.261819
C	 1.8940744675	-1.041913684	 0.1767080811	-0.257903
C	 0.7619942786	-0.6704514334	 1.1948891484	 0.104426
C	 1.2758355815	 0.3147690883	 2.2593874256	-0.445444
C	 0.0851638567	-1.7793703342	 1.8472121761	 0.281649
C	-0.4688444642	-2.6926516237	 2.4020759682	-0.468181
H	 0.0608081066	 2.1054323832	 0.6698469699	 0.110499
H	-1.016704753	 1.817850339	-0.6983364473	 0.112614
H	-1.4990999492	 1.3053341555	 0.9222039983	 0.117339
H	-1.3867181235	-0.4779052521	-1.6137267634	 0.105159
H	-0.6079583848	-1.8931853002	-0.8889757389	 0.117119
H	-1.8969007276	-1.0633152913	-0.0179652865	 0.121169
H	 1.2817043497	-0.266218494	-1.8598924888	 0.095338
H	 1.8681167882	 0.9712091309	-0.7350331739	 0.096571
H	 1.7889431682	-2.0617112997	-0.1972589145	 0.111749
H	 2.9153975783	-0.9075229101	 0.5414200825	 0.099
H	 1.8443510822	 1.130795883	 1.8036055321	 0.113442
H	 0.4528527571	 0.7467070018	 2.8353421701	 0.124478
H	 1.9372654435	-0.2080072663	 2.9566759608	 0.123423
H	-0.9572540057	-3.5020248579	 2.8854766372	 0.187479
