18
gdb 18726	3.21662	2.23191	1.52992	1.8492	67.2	-0.2482	0.085	0.3333	861.742	0.155112	-384.928186	-384.921073	-384.920129	-384.959261	27.877	
C	-0.0396917882	 1.5277433495	-0.05690559	-0.398421
C	 0.0391554083	 0.0103966507	 0.0112561684	 0.1082
O	 0.663012115	-0.4432868879	-1.1933637759	-0.247404
C	 0.8917312791	-1.8242979862	-1.1596811736	 0.014912
O	 1.9224626092	-2.1746121227	-0.2695410472	-0.245652
C	 1.7098548818	-1.693274405	 1.0315206669	 0.094156
C	 2.2815046171	-0.3419785895	 1.3696689898	-0.309155
C	 0.7845327909	-0.5167371562	 1.227813715	-0.070699
H	 0.962867076	 1.9631559701	-0.0778237517	 0.127396
H	-0.5731120482	 1.8383639166	-0.9595565475	 0.124286
H	-0.5707300652	 1.9200394758	 0.8156957154	 0.114909
H	-0.983746973	-0.4046181663	 0.0416720954	 0.068074
H	-0.0424147547	-2.3514091425	-0.8919405671	 0.075798
H	 1.2264795931	-2.1272359099	-2.1537199377	 0.116075
H	 1.7357212034	-2.4839226326	 1.7766816805	 0.095582
H	 2.6902563445	-0.1736890807	 2.359771817	 0.110281
H	 2.8068827863	 0.1526013786	 0.5601474943	 0.130736
H	 0.2012951745	-0.5043945918	 2.1438275181	 0.090926
