21
gdb 101272	2.55784	0.96132	0.87878	1.6702	85.07	-0.2593	0.0205	0.2798	1467.8207	0.179098	-387.04288	-387.032458	-387.031514	-387.078813	37.915	
C	-0.2358506375	 1.528463876	-0.1383182122	-0.393245
C	-0.0866659669	 0.0069279129	-0.228677098	-0.170288
C	 1.0685973631	-0.4664497721	-1.1329747794	-0.007785
C	 2.4570239476	-0.0854274837	-0.5981904051	-0.405361
C	 0.9886486862	-1.9671011286	-1.3096123491	 0.075662
O	-0.0696122331	-2.4845045758	-2.1126844494	-0.254013
C	 1.2779450311	-2.6578396675	-2.5876326861	-0.16379
C	 1.6626532503	-1.9515398948	-3.7804243854	 0.341469
C	 2.013416002	-1.3934090037	-4.7859902119	-0.43309
H	 0.6354713128	 2.0022926497	 0.3244804983	 0.116616
H	-0.3669669717	 1.9706362101	-1.1322189801	 0.117378
H	-1.1106439416	 1.7971662533	 0.4618360549	 0.114215
H	 0.0494430219	-0.4109246803	 0.7786244942	 0.089737
H	-1.0165991913	-0.4228652483	-0.6182874143	 0.115349
H	 0.9360433095	-0.0149181846	-2.1235486889	 0.090146
H	 2.6384399394	-0.5354220512	 0.3853744542	 0.112577
H	 3.2452781703	-0.4276139394	-1.2759141263	 0.123581
H	 2.5586116358	 0.9975047871	-0.4911708537	 0.121598
H	 1.1728056941	-2.5483538944	-0.4013943776	 0.091137
H	 1.6304956714	-3.6880531557	-2.537429939	 0.114827
H	 2.3135647667	-0.8964614688	-5.6754416353	 0.203279
