21
gdb 78748	2.82037	1.55381	1.2079	1.215	81.38	-0.2435	0.0774	0.321	1103.8494	0.183779	-387.073554	-387.065558	-387.064614	-387.105387	32.853	
C	-0.0346297606	 1.4953089075	-0.0145931108	-0.405573
C	-0.0046450884	-0.0289664196	-0.0263409542	 0.009717
C	 0.7336128559	-0.6141133637	-1.2322634257	-0.126876
C	 1.9672929296	-0.909903904	-0.3827896008	-0.120561
C	 1.1149860969	-0.6444800134	 0.8882000281	-0.053823
C	 0.7093102579	-2.0337068602	 1.4068943142	-0.216589
C	 0.4846172349	-2.8645285829	 0.1142654282	-0.298762
C	 1.1889151939	-2.0454310683	-0.9703106937	 0.413041
O	 1.770455325	-2.7140241583	-2.0493380243	-0.483987
H	 0.9667651215	 1.9076579215	-0.1812555489	 0.116228
H	-0.6912962581	 1.8867298785	-0.7996717722	 0.109777
H	-0.4002539496	 1.8724178218	 0.947057163	 0.109409
H	-1.0150454845	-0.4188029246	 0.159577438	 0.055252
H	 0.6996774882	-0.2426102822	-2.251883842	 0.073693
H	 3.0157239301	-0.7189046343	-0.566753508	 0.088137
H	 1.5131782819	 0.0288539978	 1.6486676064	 0.063745
H	 1.5249608006	-2.4654920392	 1.9970700081	 0.097999
H	-0.177065278	-1.9937750104	 2.0482630417	 0.092978
H	 0.9449966652	-3.85487626	 0.1736582175	 0.103809
H	-0.5797009119	-3.0115553137	-0.1032609107	 0.091532
H	 1.0687762597	-2.9543188426	-2.663935564	 0.280857
