19
gdb 38120	2.4365	2.27497	1.6022	1.3024	79.25	-0.2234	0.009	0.2324	901.796	0.162604	-385.859819	-385.853271	-385.852326	-385.890197	28.343	
C	-0.0595878486	 1.4607848344	 0.0770907804	-0.42208
C	 1.3421020559	 0.8410989162	-0.0769168809	-0.084032
C	 2.263700327	 0.5098063595	-1.2013439204	-0.116662
C	 2.2223053582	-0.762462567	-1.6271170814	-0.061797
C	 1.0761527403	-1.675104959	-1.1876623782	-0.094013
C	 0.9967327376	-1.9982057293	 0.3561956103	-0.089462
O	 0.099866403	-1.0190997362	 0.9485018826	-0.31052
C	 0.1087626845	-0.0140559966	-0.039204101	 0.429913
C	-0.1787994908	-0.7816711025	-1.3154047004	-0.262013
H	-0.2459069652	 1.9131958653	 1.0450872895	 0.126771
H	-0.5554372091	 1.9565311892	-0.7521064144	 0.119262
H	 1.8471467247	 0.858100062	 0.8886976524	 0.106893
H	 3.0053094054	 1.2153405224	-1.566160058	 0.08715
H	 2.9219265374	-1.1322611775	-2.3716726542	 0.089266
H	 1.0610851851	-2.5948125156	-1.7755098394	 0.067469
H	 0.5728321239	-2.9898209646	 0.5401498114	 0.106597
H	 1.9820484121	-1.9359958478	 0.8316338704	 0.104037
H	-0.1861503556	-0.1920344689	-2.2312722683	 0.103476
H	-1.1215352461	-1.328184154	-1.2114196904	 0.099744
