17
gdb 48034	6.31662	0.58233	0.55005	5.0835	81.06	-0.2572	-0.0571	0.2001	1935.6274	0.134054	-421.782121	-421.772694	-421.77175	-421.819034	31.518	
O	-0.0928936415	-0.0374626459	-0.2315846718	-0.230877
C	-0.0041804099	 1.1669771396	-0.1555587606	 0.019107
C	 1.2362264655	 1.8939095633	-0.0885675048	 0.046203
C	 2.2581332765	 2.5356808682	-0.0367786433	 0.093978
C	 3.4860012181	 3.3118643832	 0.0331065307	-0.377465
C	 3.2440765519	 4.8153744228	 0.196811642	 0.169031
C	 4.4713766515	 5.7445904567	 0.0768736965	-0.302766
C	 3.6774615648	 6.3961441693	-1.0735223347	-0.058832
O	 2.6326817021	 5.4034526702	-0.9688019187	-0.284358
H	-0.9065037857	 1.8116292971	-0.13178254	 0.099505
H	 4.0947959521	 2.9566422412	 0.8761149455	 0.143229
H	 4.0759927483	 3.142217515	-0.8766191126	 0.144789
H	 2.63234984	 4.9908583614	 1.0918507609	 0.088003
H	 4.6842190755	 6.3747791667	 0.9408555549	 0.117404
H	 5.3875614782	 5.237008796	-0.2330954708	 0.113934
H	 3.3014079909	 7.4047513846	-0.8627614042	 0.108116
H	 4.1484860117	 6.3919063606	-2.0626000289	 0.110999
