20
gdb 95581	2.31429	1.57904	1.13633	2.0799	75.42	-0.2445	0.0115	0.256	1125.2516	0.171668	-440.284559	-440.275598	-440.274654	-440.318068	33.801	
C	-0.2794096324	 1.6028788081	 0.0866678672	-0.404089
C	-0.0141991111	 0.0924349137	 0.0095978473	 0.008464
C	 0.638953273	-0.3261161948	-1.3193704226	-0.17805
N	 1.9327358836	 0.2432926619	-1.6748181606	-0.230616
C	 2.9451632558	 0.2225048697	-0.9271704669	 0.112573
O	 3.1149591878	-0.2165766477	 0.3564398361	-0.232206
C	 2.1686733829	 0.1446030786	 1.3646675289	-0.094937
C	 0.7697907965	-0.4583031805	 1.205587696	 0.083291
O	 0.0118675839	-0.1736823659	 2.3764711073	-0.430764
H	 0.6278113732	 2.1892992837	-0.0846692285	 0.121634
H	-1.0021228526	 1.8957054414	-0.6812382021	 0.114032
H	-0.687953721	 1.8727404655	 1.063023842	 0.133098
H	-0.9863378508	-0.4166694856	 0.0405575487	 0.085696
H	 0.7395319919	-1.4218969596	-1.3341361468	 0.108724
H	-0.050810996	-0.0708478792	-2.1306592403	 0.106848
H	 3.9066151397	 0.5492620203	-1.3269296651	 0.116176
H	 2.612582161	-0.219724329	 2.296880763	 0.102439
H	 2.0984242621	 1.23621341	 1.432506566	 0.120802
H	 0.8813462418	-1.5464450737	 1.0692579602	 0.070603
H	 0.4279098106	-0.6137423169	 3.1247184801	 0.286282
