15
gdb 30438	4.00927	1.18843	0.92191	2.783	74.49	-0.2221	-0.039	0.1831	1207.204	0.114895	-450.182429	-450.174543	-450.173599	-450.215279	28.75	
C	-0.0001347877	 1.4011071366	-0.1113974323	-0.328058
N	 0.1410921076	-0.0412446671	-0.0560038872	-0.346129
C	 0.6361159608	-0.573090252	 0.9836951491	 0.450612
N	 0.7481041633	-1.9928585142	 0.9761353289	-0.373343
C	 1.2560122439	-2.6542700437	 2.0214354175	 0.528782
O	 1.3035188025	-3.9775266165	 1.8831629241	-0.392018
N	 1.6835057817	-2.0799426439	 3.1125491291	-0.396711
C	 1.5616222452	-0.712555617	 3.0876934733	 0.067714
N	 1.0906925982	 0.0409120744	 2.1446626663	-0.30461
H	 0.5539213711	 1.7843609175	-0.9769540988	 0.117913
H	-1.0543608556	 1.6537573711	-0.2781226644	 0.117915
H	 0.3495787741	 1.9158867604	 0.7896195916	 0.132196
H	 0.4288859201	-2.4799500313	 0.1501535104	 0.278977
H	 1.6880180661	-4.3191458808	 2.7039806533	 0.320842
H	 1.9133684986	-0.2151411133	 3.9901381392	 0.125918
