17
gdb 98739	3.82378	0.97044	0.85127	6.5054	73.29	-0.2471	-0.0032	0.2439	1361.3023	0.134918	-455.166111	-455.156658	-455.155714	-455.201453	32.547	
C	 0.0893922594	 1.4454272999	 0.2523631446	-0.337037
N	 0.0198171594	-0.0033239607	 0.2030434901	-0.330484
C	 0.9570651679	-0.802055017	 0.7792089878	 0.445145
O	 1.9177549747	-0.3848678548	 1.4040297482	-0.379447
C	 0.72215261	-2.280419828	 0.5761473337	-0.153979
C	 1.9341012727	-3.1247422001	 0.2433357415	-0.22825
N	 1.2947546053	-3.210611671	 1.5235187869	-0.066269
C	 1.9143465628	-2.878934397	 2.7312748402	 0.169546
O	 3.0086522097	-3.2632481969	 3.0477835414	-0.287172
H	 0.2031168357	 1.8731392941	-0.7496719733	 0.132743
H	-0.8090185151	 1.8666546412	 0.7153827604	 0.132647
H	 0.9599688988	 1.7091187684	 0.8533947041	 0.178543
H	-0.7389322334	-0.4338519578	-0.2992676965	 0.251728
H	-0.2446365033	-2.5726653682	 0.1692247093	 0.096148
H	 1.8187046299	-3.9780955225	-0.418812189	 0.129092
H	 2.8883346655	-2.6062887881	 0.2078273052	 0.157564
H	 1.2378733299	-2.3177071315	 3.3991670953	 0.089481
