18
gdb 90660	3.34546	1.17913	1.08721	3.4363	74.95	-0.2287	-0.0242	0.2045	1175.1447	0.145881	-439.037723	-439.029146	-439.028202	-439.070736	32.401	
C	-0.3257504465	 1.2580996207	-0.0792261597	-0.331481
N	 0.1005471713	-0.1205276455	 0.0663393099	-0.127952
C	 1.2844602315	-0.5547717977	-0.747286389	-0.205757
C	 1.9538190071	-1.1104856234	 0.5101511966	-0.140427
C	 0.8284996132	-0.4749628167	 1.2938504751	-0.06295
C	 0.9534813763	-1.9918147505	 1.2597147269	 0.321396
O	-0.0112804097	-2.7507822816	 0.6154504592	-0.48328
C	 1.4631317953	-2.6088647626	 2.5097065218	 0.094333
O	 2.3929248591	-2.1771744371	 3.1513651142	-0.277711
H	 0.4944717828	 1.9866675885	 0.0435228948	 0.104923
H	-0.7621425231	 1.3979807556	-1.0729910204	 0.13044
H	-1.0984240869	 1.4830525169	 0.6627405545	 0.130507
H	 1.0455845902	-1.2536550608	-1.5550017864	 0.118452
H	 1.8330796099	 0.3051267598	-1.1472987429	 0.114752
H	 3.0115139936	-1.164906468	 0.7282179439	 0.12068
H	 0.8025517216	 0.1174230003	 2.201085171	 0.113668
H	-0.6157982851	-2.1005840704	 0.2175864416	 0.288511
H	 0.8960355495	-3.5135634473	 2.8147159189	 0.091894
