21
gdb 5880	4.10756	1.01081	0.99776	3.1018	79.95	-0.2407	0.0331	0.2737	1331.5201	0.184683	-366.272608	-366.262339	-366.261395	-366.307468	36.931	
C	 0.0469723851	 1.3908214805	-0.0455642638	-0.312665
N	 0.0616463425	-0.0553251182	-0.0912588278	-0.212516
C	-1.0505217329	-0.6438628239	-0.0249573433	 0.12485
O	-1.1122908302	-1.9861399359	-0.0615690057	-0.244773
C	-2.4048410139	-2.6488535481	 0.0153074214	 0.346665
C	-3.27908779	-2.255387854	-1.1826536997	-0.408394
C	-2.0378246155	-4.1325476241	-0.0571560965	-0.398811
C	-3.0891142152	-2.332231866	 1.3516162071	-0.408452
H	 0.647388318	 1.7407526767	 0.802475547	 0.124261
H	 0.5143678831	 1.7949069899	-0.9513194722	 0.124258
H	-0.9617018865	 1.8291150343	 0.0444722359	 0.089811
H	-2.0142310115	-0.1230618401	 0.0641987735	 0.073149
H	-2.7457870968	-2.4435208073	-2.1186936052	 0.130966
H	-4.1994477936	-2.8472210273	-1.1848625213	 0.120427
H	-3.5653668042	-1.2002814753	-1.1553081498	 0.116273
H	-1.3813103161	-4.4022376505	 0.7741537203	 0.127137
H	-2.9374219469	-4.7527594122	-0.0089440792	 0.112953
H	-1.5129333644	-4.3485138145	-0.9913191813	 0.127166
H	-3.3725171598	-1.2789497818	 1.4305352904	 0.116289
H	-4.0009645759	-2.928096638	 1.455581563	 0.120437
H	-2.4228348452	-2.5731493743	 2.1846881671	 0.130969
