18
gdb 68251	2.8586	1.87878	1.46107	1.6677	69.94	-0.231	0.0578	0.2888	924.3995	0.15002	-439.015291	-439.008531	-439.007587	-439.045997	28.378	
O	-0.1141713937	 1.3815777361	 0.1071238877	-0.482216
C	 0.0404331251	 0.0041646681	 0.07452706	 0.362805
C	 0.8803262547	-0.8058161467	-0.9779355001	-0.242644
N	 0.8042742243	-1.9393908054	 0.0326820323	-0.142005
C	 0.8465493974	-0.8435931095	 1.0868338994	-0.256378
C	-0.6647925087	-2.2065841729	-0.0901480811	-0.035153
C	-1.475032355	-2.4807438994	 1.1840389985	-0.111609
O	-1.9183781527	-1.1026784784	 1.2512345169	-0.301567
C	-1.2743946652	-0.7869944784	-0.0068588787	 0.098439
H	 0.7497109199	 1.7884132137	 0.2299563929	 0.284245
H	 0.4523369395	-1.0280246325	-1.9601170681	 0.105776
H	 1.9085714442	-0.4504496152	-1.0807046305	 0.104046
H	 1.880369721	-0.5100313729	 1.2076671058	 0.099487
H	 0.4064772573	-1.073444913	 2.0563504287	 0.126335
H	-0.8508214284	-2.8470240844	-0.9515901872	 0.088452
H	-2.3200029232	-3.1631826733	 1.0336402805	 0.107506
H	-0.9141838203	-2.7937768191	 2.0720326411	 0.111304
H	-1.9765097862	-0.3969032871	-0.748091308	 0.083179
