19
gdb 44620	3.84768	1.39389	1.32283	3.2927	79.04	-0.2308	-0.0026	0.2282	1023.3781	0.162946	-385.916608	-385.910008	-385.909064	-385.947411	27.663	
O	 0.0483902173	 0.0573525925	-0.0426482397	-0.338491
C	 0.0255960004	 1.259435925	-0.0042862258	 0.421237
C	-1.1986774143	 2.1967421018	 0.0100935362	-0.355216
C	-0.4428429975	 3.5257877237	 0.0619433297	-0.025651
C	 0.7330992271	 3.3682833961	-0.9569501108	-0.022606
C	 1.6790681572	 4.536859186	-0.6590050383	-0.231562
C	 1.65964206	 4.4872309018	 0.8984663954	-0.231564
C	 0.7074599672	 3.3028200835	 1.0977622065	-0.022615
C	 1.178757791	 2.2328937768	 0.0410075887	-0.130583
H	-1.8099631234	 2.0623609733	-0.8882584678	 0.121844
H	-1.8322979772	 2.00596401	 0.8823834297	 0.121823
H	-1.0269428981	 4.4478801272	 0.0840235028	 0.06581
H	 0.5340688669	 3.1281456184	-2.0033574771	 0.070636
H	 2.6772318224	 4.3817261769	-1.0778328618	 0.103694
H	 1.294126336	 5.4811162744	-1.0562992419	 0.10157
H	 2.64718146	 4.3049441911	 1.3313079266	 0.103694
H	 1.2641849289	 5.4045923937	 1.345349923	 0.101565
H	 0.4825899443	 2.9967380791	 2.1214786555	 0.070632
H	 2.1870668518	 1.8204416288	 0.0404364288	 0.075783
