18
gdb 66810	3.67978	1.798	1.78335	1.644	76.58	-0.2237	0.0737	0.2974	863.8203	0.150062	-364.740529	-364.734324	-364.73338	-364.770703	26.634	
C	 0.0455320007	 1.5434805739	 0.0265572641	-0.521424
C	 0.0006674582	 0.0448649303	 0.0220427957	 0.330816
C	 0.5071903793	-0.8816871064	-1.0755413337	-0.13722
C	-0.4767427394	-2.0211074901	-1.2910235749	-0.07948
C	-1.6509031251	-1.862184462	-0.336388426	-0.110524
C	-0.5309580885	-2.820180978	-0.0095531493	-0.037491
N	 0.0530784029	-1.89618968	 1.0133589953	-0.151666
C	 1.0435567892	-1.0058962146	 0.3359335364	-0.093046
C	-1.0394786518	-0.8857408654	 0.6839945687	-0.076322
H	 0.9743887033	 1.9110183956	-0.4217131125	 0.121315
H	-0.7878830404	 1.9678472238	-0.5459102336	 0.121477
H	-0.0109330628	 1.9429624465	 1.0454194732	 0.122943
H	 1.1251562234	-0.4877222383	-1.8722662643	 0.084315
H	-0.6138016946	-2.4991916114	-2.2518812184	 0.087638
H	-2.691626726	-2.0408859335	-0.5748768215	 0.088114
H	-0.493960415	-3.8986962842	 0.08392555	 0.089374
H	 2.0813926391	-0.9406843723	 0.6424236255	 0.086558
H	-1.6312458823	-0.5267694839	 1.5264896453	 0.074623
