16
gdb 7723	3.12159	1.89782	1.30393	3.6605	65.74	-0.2464	-0.0357	0.2106	920.0704	0.131052	-383.798038	-383.79084	-383.789896	-383.829851	26.987	
O	-0.0023877165	-0.0939047907	-0.0377770466	-0.292717
C	-0.0333815368	 1.1116117205	-0.046231109	 0.381432
C	-1.3242019261	 1.9161715979	 0.0030600459	-0.293426
C	-1.3670262507	 2.9642828937	-1.1244917001	-0.224392
C	-0.1369610197	 3.8905100285	-1.0967091689	-0.293426
C	 1.1545036988	 3.0870238514	-1.1465795048	 0.381437
O	 2.0427198512	 3.3070304845	-1.9320549822	-0.292719
C	 1.2434407305	 1.9517572097	-0.1241087628	-0.389377
H	-2.1662324998	 1.2232055763	-0.0512473848	 0.128146
H	-1.3699742387	 2.4288370189	 0.9746686534	 0.118515
H	-1.4164300494	 2.4539771966	-2.0939382678	 0.125677
H	-2.2791915436	 3.5613362118	-1.0373644437	 0.11815
H	-0.1380234879	 4.5960323223	-1.930018706	 0.128146
H	-0.1423930348	 4.4702649673	-0.1624703629	 0.118519
H	 1.3745866284	 2.4222134823	 0.8620574733	 0.141269
H	 2.1073184751	 1.3188083089	-0.327819613	 0.144767
