17
gdb 42346	3.32227	1.0589	0.95862	2.9338	68.93	-0.2527	-0.0449	0.2077	1253.001	0.135005	-458.921208	-458.912666	-458.911722	-458.956456	29.773	
O	-0.2385406907	 0.1637123154	 1.5777858495	-0.315728
C	-0.11192573	 1.1816749116	 0.9327313701	 0.355738
C	 1.1002127693	 2.0462443965	 1.1511386208	-0.015525
C	 1.8684050391	 2.5811255313	 0.006564863	-0.181423
O	 1.0248459736	 3.4241730535	 0.7736588346	-0.213102
C	-1.1227107656	 1.6066793497	-0.1097344233	-0.16872
C	-1.349462674	 0.5998580864	-1.2755710055	-0.069921
O	-2.7461602397	 0.4761109034	-0.971855038	-0.266554
C	-2.6018703579	 1.2815978459	 0.2141370112	-0.076889
H	 1.6268415225	 1.8370036162	 2.0801510132	 0.122004
H	 2.9382106178	 2.7392606921	 0.1290573754	 0.137865
H	 1.5360345807	 2.38076028	-1.0109076139	 0.128369
H	-0.9505854473	 2.6316367866	-0.4341409077	 0.108822
H	-1.1754646267	 0.9962063742	-2.2826168289	 0.106264
H	-0.8154286689	-0.3507230608	-1.1538440774	 0.115644
H	-2.726684351	 0.6903755688	 1.1279515973	 0.124249
H	-3.2862640813	 2.1365348892	 0.2181838397	 0.108906
