12
gdb 3737	7.43112	2.07042	1.83731	4.9881	51.22	-0.3169	-0.0439	0.273	683.373	0.091004	-352.82952	-352.823336	-352.822391	-352.860599	20.751	
C	-0.0219207413	 1.5472334261	 0.0159445911	-0.384556
C	 0.0068837696	 0.01997366	-0.0074463634	-0.142549
N	 0.6838522482	-0.4941236654	-1.1962935123	 0.17114
N	 0.0789273991	-0.7345795044	-2.3483076325	-0.118961
N	 1.022406018	-1.1227345069	-3.1523145378	-0.082778
N	 2.1940464252	-1.1139567574	-2.4889581047	-0.082801
N	 1.9856504548	-0.7199362801	-1.2689011688	-0.118907
H	 0.9924592549	 1.9537650741	 0.0201532013	 0.151448
H	-0.5551820434	 1.937972922	-0.854229975	 0.151522
H	-0.5358028866	 1.8864178747	 0.9193763354	 0.138942
H	 0.5466786338	-0.3852110664	 0.8501310411	 0.15877
H	-0.9998824523	-0.4009559562	-0.0233849845	 0.15873
