19
gdb 67129	2.41755	1.82028	1.6038	0.8694	81.39	-0.2256	-0.0109	0.2147	958.2971	0.160727	-385.822856	-385.815529	-385.814585	-385.853975	30.595	
O	 0.0548845387	 1.4665341552	 0.4333819516	-0.466495
C	 0.0650953325	 0.1258648298	 0.1022241573	 0.337525
C	-1.006823249	-0.9451497353	 0.0359820398	-0.15771
C	-0.6450042666	-1.270913511	-1.4428700208	-0.28003
C	 0.6606356763	-0.5425614356	-1.1464809618	 0.054164
C	 1.8694186096	-1.10910583	-1.0897479066	-0.117767
C	 2.5464640964	-1.0754507021	 0.2579373848	-0.256784
C	 1.4781466325	-1.7403848167	 1.1976063985	-0.22507
C	 0.1566306462	-0.9578146711	 1.1022812407	-0.059761
H	-0.2958169858	 1.9596735659	-0.3169758022	 0.284476
H	-2.0244337586	-0.9101576497	 0.4127060402	 0.08929
H	-0.5633500179	-2.3165531935	-1.7560145744	 0.096998
H	-1.3480186527	-0.7466153794	-2.1009921301	 0.100789
H	 2.1509122436	-1.8899758634	-1.7940235007	 0.089786
H	 3.4894661656	-1.6273637873	 0.2715912435	 0.09427
H	 2.7455274499	-0.0592375134	 0.6115757293	 0.126067
H	 1.3613261248	-2.794556135	 0.9219269416	 0.102414
H	 1.8254942207	-1.7255159762	 2.2375458436	 0.097508
H	-0.2781802761	-0.6983688513	 2.0664641856	 0.090331
