17
gdb 5380	4.77239	1.45617	1.22408	2.6002	76.77	-0.2485	-0.018	0.2304	1013.252	0.144882	-326.794822	-326.78763	-326.786686	-326.826837	26.836	
C	-0.0419911835	 1.5606659151	 0.0490901054	-0.367018
C	 0.0009752485	 0.0226899846	 0.004055686	-0.292378
C	 0.7019302944	-0.4976660986	-1.2275887565	 0.312508
C	 0.0105743036	-0.7408861397	-2.4160921713	-0.194293
C	 0.7068072729	-1.1890004254	-3.5341771587	 0.013639
N	 2.0243098079	-1.4096252867	-3.552680999	-0.271166
C	 2.6838666696	-1.1770769013	-2.4144469611	 0.01368
C	 2.0788537302	-0.7284731493	-1.2445963734	-0.194603
H	 0.9684914399	 1.9808937769	 0.0477675438	 0.12458
H	-0.5705168353	 1.9634715525	-0.8204539183	 0.124556
H	-0.5548116569	 1.9082033837	 0.9510381089	 0.117584
H	 0.5105972121	-0.3520097876	 0.8988333193	 0.108331
H	-1.0218158578	-0.3694626194	 0.0341217342	 0.10845
H	-1.0631202127	-0.5881636681	-2.4712402922	 0.092221
H	 0.1761681673	-1.3846536523	-4.4635488981	 0.105836
H	 3.7555771768	-1.3629752769	-2.4362743927	 0.105838
H	 2.6768565531	-0.5656619675	-0.3529335963	 0.092235
