18
gdb 13489	3.11564	1.68257	1.41969	2.2439	67.96	-0.244	-0.024	0.22	960.7369	0.152436	-384.952759	-384.944361	-384.943417	-384.985718	31.171	
C	 0.0396360709	 1.5589650926	 0.0418372811	-0.417208
C	 0.0293120914	 0.029217756	 0.0369714633	 0.111786
O	 0.7594201613	-0.5042830068	 1.138963477	-0.440504
C	-1.3947428195	-0.5363060126	 0.0128038955	-0.097479
C	-1.6140647717	-2.0835797318	 0.0113156225	-0.260212
C	-2.6725824396	-1.9474120519	 1.1490290197	-0.328747
C	-2.1519957682	-0.5214074843	 1.3549249093	 0.391345
O	-2.1472145917	 0.2390009544	 2.2843434873	-0.315306
H	 1.0680541566	 1.9259564647	 0.0972687465	 0.123548
H	-0.4239902332	 1.9604357349	-0.8653586925	 0.112788
H	-0.5180078493	 1.9398720276	 0.9038344815	 0.13984
H	 0.5620636805	-0.3373974932	-0.8492778209	 0.092072
H	 0.4024175508	-0.0989084035	 1.9386817249	 0.29057
H	-1.990533052	-0.0490225152	-0.7683254523	 0.097638
H	-1.9605356682	-2.5230567481	-0.9242565925	 0.10637
H	-0.7158764348	-2.6004083536	 0.3536930975	 0.133026
H	-3.701855244	-1.9456214653	 0.7747690242	 0.130734
H	-2.6129364592	-2.6158252939	 2.0110666679	 0.129741
