14
gdb 17229	5.47529	1.72455	1.5701	4.5728	66.6	-0.2398	0.0054	0.2452	804.3467	0.109438	-341.521136	-341.515139	-341.514195	-341.551152	23.66	
N	 0.0095405335	-1.0570716843	-0.0779481244	-0.3456
C	 0.0042566046	 0.0993854019	-0.0279528833	 0.173542
C	-0.0209599466	 1.5218555185	 0.017538422	 0.268813
N	-1.0430491884	 2.3137869605	 0.746565035	-0.362839
C	-0.5092296655	 3.487804528	-0.0346307508	-0.052666
C	 0.8699573841	 3.7091351453	 0.6363495807	-0.208375
C	 1.2615128057	 2.3891447402	-0.0226371181	-0.109333
C	 0.1982153327	 2.5329794825	-1.0862961901	-0.150185
H	-1.9445803087	 2.0615544459	 0.3404379051	 0.228108
H	-1.2006865732	 4.3019379128	-0.2344588384	 0.092877
H	 1.4143894332	 4.5413449875	 0.1839985585	 0.114032
H	 0.8719152962	 3.7839442873	 1.7261978774	 0.118047
H	 2.2327824032	 1.9202035869	-0.1084584772	 0.116662
H	 0.2199195492	 2.4378930869	-2.1633643965	 0.116917
