17
gdb 73893	2.26915	1.65935	1.03098	5.2084	79.46	-0.2096	-0.0311	0.1785	1132.0262	0.137108	-418.010828	-418.002708	-418.001763	-418.043358	31.135	
N	 0.086257732	 1.339045016	-0.0148274186	-0.581224
C	-0.0079752882	-0.0163425944	 0.0094696187	 0.27176
C	-1.128250606	-0.8039161811	 0.024173275	 0.191987
C	-2.4985329009	-0.3630154138	 0.031519596	 0.041379
O	-3.4719149694	-1.096016509	 0.0468776757	-0.305494
C	-0.7252930495	-2.2398402406	 0.0017025573	-0.145547
N	 0.0428586074	-2.6107725371	-1.2229169877	-0.340481
C	 0.7579085941	-2.2799795185	 0.0269051484	-0.051248
C	 1.2651675128	-0.8441136817	 0.0641543801	-0.307325
H	 0.973846753	 1.7572617956	-0.2354163124	 0.264509
H	-0.7222199437	 1.8924504902	-0.2455230912	 0.268664
H	-2.6416827863	 0.7460787464	 0.0395589215	 0.022439
H	-1.3536598623	-2.9862149049	 0.471814375	 0.104178
H	 0.0286596794	-3.624725462	-1.3240554374	 0.227833
H	 1.3140442555	-3.053569941	 0.5440905615	 0.090916
H	 1.9267653054	-0.6151023941	-0.7799856972	 0.125872
H	 1.8187345466	-0.62801098	 0.9872531853	 0.12178
