21
gdb 110714	2.5867	1.435	1.1665	1.1727	83.38	-0.2202	0.0191	0.2393	1171.2279	0.182508	-387.044916	-387.036299	-387.035355	-387.078045	33.454	
C	 0.797323934	 0.9121573538	-0.8509369017	-0.244324
O	 1.2316583808	-0.4190539576	-0.6940734189	-0.245165
C	 1.3838409623	-0.7976721518	 0.6379982207	 0.193293
C	 0.1400452132	-1.175549374	 1.5398000107	-0.151261
C	-0.5037892844	-2.2622063295	 0.6762467452	-0.081379
C	 0.5380755694	-2.9856033109	 0.2554651456	-0.072687
C	 1.7449230277	-2.2887079811	 0.8972880058	-0.143974
C	 1.1690860568	-2.059485793	 2.3533042991	 0.052753
C	 2.044436054	-1.4119074676	 3.4211752287	-0.437794
H	 1.4823617019	 1.6256574441	-0.3652988439	 0.101337
H	 0.7722530575	 1.1224845532	-1.9228253305	 0.126397
H	-0.2100006837	 1.0676175463	-0.4363454259	 0.107009
H	 2.0567542593	-0.0929675473	 1.144469669	 0.062024
H	-0.4916970963	-0.4301612247	 2.0234584698	 0.053553
H	-1.558014618	-2.3759693311	 0.4686364135	 0.095035
H	 0.5708553368	-3.8531756701	-0.3873788534	 0.097219
H	 2.7450265357	-2.6822186008	 0.7148027842	 0.057751
H	 0.7057509282	-2.9615062733	 2.7601550258	 0.073989
H	 2.5448655659	-0.4978873021	 3.0928101323	 0.119768
H	 1.4414623407	-1.1600219108	 4.3010505163	 0.117694
H	 2.8203603381	-2.1128550919	 3.7491288776	 0.118762
