17
gdb 30584	6.49477	0.6502	0.59538	0.7789	88.2	-0.213	0.0009	0.2139	1840.1247	0.136198	-384.700307	-384.691594	-384.69065	-384.735336	31.231	
C	-0.0431259948	 1.5497194139	 0.06384197	-0.36437
C	 0.0076975483	 0.012707383	-0.0126385307	-0.327453
C	 0.6879125963	-0.4774230507	-1.2056729833	 0.215507
C	 1.2547982684	-0.8597058791	-2.200425176	-0.130999
C	 1.9139913964	-1.3377218352	-3.3570995558	 0.139723
C	 2.4739588151	-0.5947467649	-4.3605893998	-0.121408
O	 3.0177183421	-1.3954455534	-5.3074741114	-0.137998
C	 2.8073486183	-2.6811173809	-4.9119914454	 0.008867
C	 2.1412153669	-2.7144357991	-3.7333741439	-0.310494
H	 0.965461108	 1.9716583541	 0.0754775819	 0.12879
H	-0.5722918761	 1.9642497361	-0.7984565087	 0.128774
H	-0.5613519856	 1.8686498488	 0.9729880653	 0.114828
H	 0.5092082443	-0.3816398205	 0.881065544	 0.129704
H	-1.0139005788	-0.3888961466	 0.0156651378	 0.129705
H	 2.5563437707	 0.4662033705	-4.5255617073	 0.140794
H	 3.1890441805	-3.4412436862	-5.5730013562	 0.139091
H	 1.8369164201	-3.58752482	-3.1792615807	 0.116939
