15
gdb 128330	2.26126	1.56792	0.93287	4.0206	75.96	-0.2142	-0.0149	0.1993	1186.7568	0.114965	-413.025369	-413.017	-413.016056	-413.058676	30.069	
C	-0.0413311757	 1.4263630332	-0.0581593793	-0.319645
N	 0.1608495755	-0.0084179021	 0.0386563041	-0.387425
C	 0.6619004365	-0.7012692311	-1.0278121377	 0.373208
N	 1.2277173469	-0.0995869638	-2.0696372589	-0.3153
N	 1.640419573	-1.1267873765	-2.8660542457	-0.1923
C	 1.3471219539	-2.3393243372	-2.3794577584	-0.109503
C	 0.7002480963	-2.1293803589	-1.1697130207	 0.030445
C	 0.1822026799	-3.0788874136	-0.2671242165	 0.182731
N	-0.2669134491	-3.8197983781	 0.5042087514	-0.366721
H	 0.9076526565	 1.9145347974	-0.2937821746	 0.150907
H	-0.7646370576	 1.7061498347	-0.836998974	 0.12302
H	-0.3940615709	 1.7966614537	 0.9064801768	 0.126166
H	-0.4998803431	-0.5193790988	 0.6025533246	 0.25738
H	 2.1071694087	-0.9073639941	-3.7288671352	 0.284539
H	 1.6007957892	-3.2529928148	-2.8923619157	 0.162498
