18
gdb 69688	2.80777	1.45164	1.30465	2.8071	76.97	-0.227	-0.0313	0.1957	1056.2113	0.145452	-401.859617	-401.851246	-401.850302	-401.892905	31.589	
C	 0.1584977076	 1.5820660921	 0.065437048	-0.47091
C	 0.0427588827	 0.0923008046	 0.1251086947	 0.368759
C	-0.8574454167	-0.6607363062	 1.0658222118	-0.347569
C	 0.6160423924	-0.9493631153	 1.0695160941	-0.122346
C	 1.0627666363	-1.7217772319	-0.1752752749	-0.064814
C	 0.0532204538	-2.0073375144	-1.2313836885	-0.081001
C	-1.3633368107	-2.504154995	-1.2074015429	 0.119547
O	-2.3388422108	-1.863753796	-1.5037883005	-0.245112
N	 0.5679543408	-0.6424136558	-1.1139316771	-0.196989
H	 1.1509138552	 1.8820882107	-0.2845828518	 0.128716
H	-0.5819078139	 1.9954806086	-0.6291964059	 0.134745
H	-0.0144861907	 2.0251810029	 1.0507440375	 0.116817
H	-1.1787609536	-0.0455231479	 1.9020137655	 0.118766
H	-1.6000962167	-1.3876573666	 0.7685688246	 0.13332
H	 1.2538783313	-0.8267398907	 1.9348406759	 0.096952
H	 2.075066419	-2.1034005148	-0.2731734636	 0.103718
H	 0.5320285431	-2.4967178008	-2.0885035429	 0.127078
H	-1.4301354193	-3.5945222234	-0.9832333541	 0.08032
