17
gdb 53479	6.06333	0.62399	0.56975	4.6586	81.95	-0.2392	-0.0125	0.2268	1907.378	0.133403	-418.00842	-417.997812	-417.996868	-418.047526	34.868	
C	 0.3327998969	 1.5597120397	 0.0061173398	-0.49796
C	 0.1618853605	 0.114644748	 0.0009462294	 0.119432
C	 0.0088763534	-1.077954909	-0.0032151425	 0.068138
C	-0.1707638414	-2.5180199069	-0.0081254329	-0.523905
C	-1.6517468746	-2.9624365669	 0.0029546913	 0.448659
O	-2.5846472098	-2.2084190434	 0.017151905	-0.287062
N	-1.7555132913	-4.3559964589	-0.0054337332	-0.336144
C	-2.8997146169	-5.152451372	 0.000726015	 0.085969
N	-4.0854704852	-4.7092781246	 0.0156741791	-0.39584
H	 1.3929641138	 1.8359831869	-0.0060316412	 0.145469
H	-0.1403277874	 2.0170137242	-0.8695885668	 0.152235
H	-0.1177272007	 2.0080491355	 0.8982261907	 0.152199
H	 0.3102635834	-2.9641584144	-0.8905817609	 0.146569
H	 0.3252230699	-2.9719977413	 0.8619831723	 0.146783
H	-0.8861862778	-4.8658688801	-0.0176726458	 0.253471
H	-2.6175185993	-6.2138240864	-0.0091705604	 0.092602
H	-4.7406196734	-5.4896635304	 0.0171139511	 0.229385
