23
gdb 58769	2.94909	1.22887	1.19074	1.4375	84.52	-0.2563	0.0708	0.3271	1200.4465	0.207087	-388.287236	-388.278442	-388.277498	-388.320419	35.189	
C	 0.0825020814	 1.4969525525	-0.1231804176	-0.414316
C	-0.009515982	-0.0176460697	 0.077706815	 0.007855
O	 0.6661920524	-0.4258954898	 1.2691367427	-0.434597
C	-1.4321385195	-0.5508404366	 0.0468399836	 0.382643
C	-2.3220332824	-0.4747149021	-1.2349117837	-0.272504
C	-3.0936575839	-1.6266834828	-0.5311438133	-0.020915
C	-1.7113319915	-2.0856928912	 0.0097791268	-0.26136
C	-3.6897866834	-0.9095021413	 0.6949723212	-0.211929
C	-2.431406403	-0.0905489556	 1.1381077782	-0.273183
H	 1.1295003248	 1.8116622303	-0.1151448506	 0.122281
H	-0.3643368391	 1.7986894333	-1.0759344606	 0.119776
H	-0.4402941701	 2.0355191787	 0.6760446488	 0.10868
H	 0.5518995263	-0.5092500763	-0.7270540229	 0.080298
H	 0.2611919014	 0.0427152561	 2.0068170609	 0.277321
H	-2.8575144487	 0.457838867	-1.4409996197	 0.084199
H	-1.7894998675	-0.8081030123	-2.1296873795	 0.093163
H	-3.7490641037	-2.2994546559	-1.0850283155	 0.056658
H	-1.1061241986	-2.5951829607	-0.7444778661	 0.092024
H	-1.679080127	-2.6381415401	 0.9532443267	 0.089387
H	-4.5362818092	-0.2675746933	 0.4337275385	 0.093936
H	-4.0260897909	-1.6108267971	 1.4641256419	 0.095678
H	-2.0949711629	-0.3596304413	 2.144566583	 0.089761
H	-2.6091828628	 0.9886546782	 1.1186341722	 0.095143
