17
gdb 88403	2.22044	1.32867	0.95923	3.613	73.38	-0.2626	-0.0517	0.2109	1241.3793	0.134048	-417.997344	-417.987892	-417.986948	-418.032782	32.895	
C	-0.1125883021	 1.4842415638	-0.2808619559	-0.417313
C	-0.1179353039	 0.0398177418	 0.1599888262	-0.009333
N	 1.1153733321	-0.7426889454	-0.0238932046	-0.322438
C	 0.620351067	-0.5049281228	 1.3320153489	-0.021424
C	 1.4985876358	 0.3041399914	 2.2836474885	-0.266267
C	 2.1332882575	-0.5944907819	 3.373297653	 0.162519
O	 1.7122952171	-1.679914863	 3.6577708447	-0.227159
C	 2.5555546903	 1.096742274	 1.6575350287	 0.293625
N	 3.4280065541	 1.7268184331	 1.2372307704	-0.326023
H	 0.8526147898	 1.9595683335	-0.0990293991	 0.154779
H	-0.3182652919	 1.5498600765	-1.3542088769	 0.129251
H	-0.890680075	 2.0504241838	 0.2429537576	 0.117177
H	-1.0540604189	-0.479453509	-0.0466303058	 0.09168
H	 0.9219458013	-1.694185531	-0.3216080269	 0.240649
H	 0.15686897	-1.3326909742	 1.8616191754	 0.11802
H	 0.864998849	 1.0062850141	 2.8514099527	 0.160703
H	 2.9961728579	-0.1365955949	 3.8982091031	 0.121552
