16
gdb 44510	4.42305	1.46073	1.2632	3.7651	68.61	-0.2301	0.0041	0.2342	970.4526	0.126356	-437.850745	-437.844358	-437.843414	-437.881566	25.918	
O	 0.0481118314	 0.092487663	 0.641411829	-0.323361
C	-0.0156606312	 1.1633266527	 0.1078568658	 0.402269
C	-1.3104675734	 1.9180316941	-0.1642340463	-0.325973
N	-1.194711952	 3.2177546563	-0.8282956364	-0.130285
C	-0.1768870795	 3.2551973759	-1.9672480185	-0.065137
C	-0.072556659	 4.7744900249	-1.7056726268	-0.221806
C	-0.039916443	 4.0822504352	-0.3246244871	-0.065138
C	 0.9598988574	 3.0625430252	-0.9298094621	 0.142765
O	 1.1115552862	 1.7961646888	-0.3048263898	-0.237984
H	-1.9533540854	 1.2657628295	-0.7656227872	 0.14877
H	-1.8232718486	 2.0514192138	 0.7947573648	 0.148757
H	-0.3442017449	 2.7280634435	-2.9071025467	 0.096952
H	 0.8357280518	 5.2800727795	-2.0359687366	 0.107094
H	-0.9828250676	 5.3350655832	-1.9120158662	 0.124003
H	-0.0459195607	 4.5291546352	 0.6700772029	 0.09695
H	 1.9681567485	 3.3972668093	-1.1824274386	 0.102123
