20
gdb 38536	3.05715	1.63117	1.19985	1.254	86.33	-0.2234	0.0251	0.2486	1069.8552	0.174272	-365.98672	-365.979486	-365.978542	-366.018025	29.989	
C	 0.0446317922	 1.53583092	 0.1372368062	-0.366808
C	 1.5721914597	 1.4431328638	-0.1212541283	-0.127875
N	 1.840061302	 0.8965278215	-1.4464693351	-0.367273
C	 1.4652960994	-0.0434710657	-0.3809516583	 0.326618
C	 2.1796560024	-1.3345767024	-0.106411377	-0.335333
C	 1.2348145262	-2.4618981723	-0.5885138425	-0.211673
C	-0.158291046	-2.4226353328	 0.0810070694	-0.235566
C	-0.7564118732	-1.0329615943	 0.1754225722	-0.249621
C	 0.0066810654	 0.020811013	-0.0860404255	 0.31988
H	-0.2247868066	 1.8175993308	 1.1597543837	 0.11894
H	-0.5040109246	 2.1808764579	-0.5585873278	 0.105057
H	 2.3490428081	 2.0176523835	 0.3700032907	 0.100873
H	 1.0800075184	 1.0766496967	-2.1017746988	 0.222716
H	 3.1431861495	-1.3805641283	-0.6205206314	 0.110128
H	 2.3661954856	-1.4426719278	 0.969552916	 0.101203
H	 1.109131651	-2.3606893646	-1.6735604533	 0.105852
H	 1.6932020818	-3.4409095991	-0.4154090052	 0.092861
H	-0.8366824777	-3.0902818378	-0.4659418673	 0.103027
H	-0.0948015649	-2.8460100646	 1.0953478471	 0.105361
H	-1.7852997986	-0.9395065176	 0.5147803352	 0.081632
