13
gdb 21706	8.30442	1.19493	1.04462	11.4705	73.24	-0.1917	-0.0586	0.1331	1044.4065	0.098092	-390.950251	-390.942995	-390.942051	-390.982123	25.395	
N	-0.0327540173	 1.3612155148	 0.0085703705	-0.51472
C	 0.0197095973	 0.023417279	 0.0011791919	 0.201944
N	 1.1126097638	-0.6815021973	-0.0108231799	-0.316961
H	 2.0291765016	-0.2462700147	-0.0154906486	 0.284233
C	 1.1562990019	-2.0925186928	-0.0185842929	 0.389604
N	 2.3310572833	-2.7289178112	-0.0307790789	-0.380135
C	 1.8648062898	-3.9987054462	-0.0337420575	 0.002029
N	 0.5273594208	-4.1073077209	-0.0247756559	-0.236975
N	 0.0541469502	-2.8290489941	-0.0141454816	-0.321613
H	 0.7933745264	 1.9367940886	 0.0053662028	 0.287811
H	-0.9237184451	 1.8246884637	 0.0178682339	 0.301382
H	-0.9057966275	-0.5440026009	 0.0052299307	 0.214107
H	 2.5140239749	-4.863374818	-0.0431772745	 0.089294
