20
gdb 81535	2.93194	1.43741	1.14168	2.5163	81.26	-0.2093	-0.0239	0.1854	1126.0806	0.168753	-403.061288	-403.052269	-403.051325	-403.094905	34.028	
C	 0.291235979	 1.4867799631	 0.0602417025	-0.335031
N	 0.2178009405	 0.0260032915	 0.0261387552	-0.095707
C	-0.9487295567	-0.78567338	 0.545066267	-0.093157
C	 0.0210821514	-1.9932466103	 0.458067423	-0.216113
C	 0.7799930689	-0.8216268904	 1.1480712507	-0.07915
C	-0.4896709572	-0.5900389727	 2.0490641286	 0.273836
C	-0.8164049315	 0.7234937487	 2.7800506291	-0.499859
C	-0.8206706528	-1.6906362912	 3.0387695186	 0.089042
O	-0.0248590777	-2.4390222281	 3.5482028154	-0.254958
H	 0.5690842052	 1.9314315164	 1.022454699	 0.111604
H	 1.0441887222	 1.8013950758	-0.6717086178	 0.121089
H	-0.6652913318	 1.918139887	-0.2550809238	 0.119884
H	-1.9542121898	-0.6806045415	 0.131002202	 0.080893
H	-0.1972532322	-2.8782145452	 1.0511721738	 0.118983
H	 0.3673166726	-2.2182066811	-0.5486840026	 0.107242
H	 1.8298694573	-0.7768207365	 1.4402136657	 0.088949
H	-1.1432257935	 1.5192188748	 2.1143031391	 0.136061
H	-1.6343731239	 0.5565805538	 3.4921366932	 0.118757
H	 0.0415420754	 1.0797487022	 3.3590566161	 0.136317
H	-1.9022199553	-1.7321457764	 3.3177465053	 0.071317
