15
gdb 99835	2.11948	1.38935	1.19013	4.1843	61.95	-0.2699	-0.0014	0.2685	1100.9528	0.110922	-491.116039	-491.106504	-491.105559	-491.150721	34.238	
N	 0.0282574537	 1.2425643316	-0.3934932629	-0.527674
C	 0.056296814	 0.0336395196	 0.2051773744	 0.384002
O	 1.0156294221	-0.4733256084	 0.7478922833	-0.364307
C	-1.2763072948	-0.7478713923	 0.1051869778	 0.113901
O	-2.2782836595	 0.0283293622	-0.5153312566	-0.459275
C	-1.0325829067	-2.0335479549	-0.7295344287	-0.105772
O	-2.2711450137	-2.6665185719	-0.9903273331	-0.427699
C	-1.7161519797	-1.1509246928	 1.461468873	 0.267601
N	-2.122870333	-1.5159841752	 2.4795912516	-0.335896
H	 0.8543840924	 1.8169470594	-0.3662515082	 0.273449
H	-0.8288648918	 1.5897641343	-0.7900768993	 0.285951
H	-2.9000620216	-0.607032597	-0.9029370198	 0.30189
H	-0.6259014374	-1.7336363048	-1.6993761999	 0.136346
H	-0.3114700743	-2.67872133	-0.2200466681	 0.148512
H	-2.5551520995	-3.1193663898	-0.1866889636	 0.308971
