17
gdb 111964	3.29729	1.20279	0.93883	4.1682	70.89	-0.2503	-0.0243	0.226	1229.2282	0.136601	-455.188362	-455.179541	-455.178597	-455.222429	31.262	
C	-0.0577131565	 1.4458012532	-0.0377572178	-0.354815
N	 0.0001199303	-0.0009172947	-0.0219135263	-0.103312
C	 0.0848374266	-0.8611097042	-1.1093734873	 0.065484
N	 0.133843757	-2.1106927274	-0.8455701921	-0.280455
C	 0.0931330207	-2.2101366052	 0.621196267	-0.138223
C	 1.3280772022	-2.971107243	 1.1296069017	-0.0492
O	 1.3670408047	-4.2739431391	 0.5984167981	-0.420227
C	 0.0099142654	-0.7741413492	 1.1411347468	 0.404063
O	-0.0273672592	-0.3520666419	 2.2722210534	-0.376163
H	 0.8321582069	 1.8748053209	-0.5093531118	 0.141509
H	-0.9483490667	 1.8021945293	-0.5647305766	 0.142075
H	-0.103126279	 1.7723865545	 1.0030441677	 0.174931
H	 0.1088773911	-0.4462587668	-2.1128174068	 0.14133
H	-0.8000333279	-2.7689198896	 0.9246337874	 0.133617
H	 2.2323161566	-2.3955574569	 0.8740686848	 0.091446
H	 1.2789008003	-3.0547172392	 2.2188399446	 0.130878
H	 1.2570115776	-4.1797482906	-0.3560680228	 0.297062
