19
gdb 86562	2.42958	1.40918	1.31406	3.009	71.43	-0.2565	-0.0297	0.2268	1092.3103	0.158261	-460.1747	-460.165751	-460.164807	-460.208437	33.867	
C	 0.4722158641	 0.9235039498	 0.3095240985	-0.481068
C	-0.0574357439	-0.2708602772	-0.4446895089	 0.412237
O	 0.6674067307	-0.9438463668	-1.1578665257	-0.340547
C	-1.502961885	-0.6410114785	-0.2039559585	-0.185177
C	-2.1324376442	-1.5468309023	-1.3003756914	-0.276372
C	-1.7944262201	-2.8091095434	-0.4686762874	 0.088818
O	-0.5769645681	-3.4377617126	-0.8151421365	-0.451276
C	-1.6065119733	-1.8922642721	 0.7801950779	 0.134872
O	-0.5297596743	-2.2035321131	 1.6049068346	-0.428778
H	 1.5166918479	 1.103826883	 0.0536291373	 0.142966
H	-0.1292313768	 1.8152896028	 0.1047864096	 0.139115
H	 0.3857839791	 0.7137122493	 1.3827666929	 0.164364
H	-2.0767766863	 0.2327683952	 0.1107974478	 0.076853
H	-3.2084194043	-1.3841888123	-1.3940616708	 0.110712
H	-1.6720669539	-1.4994232717	-2.2894865716	 0.121225
H	-2.5509878458	-3.5939357683	-0.3981711178	 0.086072
H	 0.0022402413	-2.7534383897	-1.1964572939	 0.304837
H	-2.5139042384	-1.8018627861	 1.3851071477	 0.089784
H	 0.0058225012	-2.8268082559	 1.0864302362	 0.291362
