18
gdb 45360	2.90877	1.66063	1.45967	3.4023	71.61	-0.259	0.0224	0.2813	959.8683	0.151289	-439.117406	-439.110467	-439.109523	-439.149003	27.8	
N	-0.0295476247	 1.3095935915	-0.4594770316	-0.513004
C	 0.0091857243	 0.1107381853	-0.0603674581	 0.390792
C	-1.2771806009	-0.6808712082	 0.134534883	-0.289701
C	-1.0989898625	-1.9363450921	 1.0026346759	-0.064271
C	-0.5999793554	-1.5833818771	 2.4128701749	-0.080722
O	 0.8268659542	-1.4208666248	 2.27682059	-0.256507
C	 1.1868224943	-1.7237047374	 0.9560832025	 0.20893
C	 0.1233023323	-2.6995194538	 0.465324225	-0.261051
O	 1.2001210663	-0.5381311625	 0.1431599503	-0.257394
H	 0.9201191046	 1.6738950675	-0.5617090091	 0.220883
H	-2.0286915526	-0.0001380646	 0.541233672	 0.136217
H	-1.6307966795	-0.9776581867	-0.8603144654	 0.131459
H	-2.018201679	-2.5248411415	 1.0276520648	 0.081958
H	-1.0295832474	-0.6550517124	 2.803191492	 0.117665
H	-0.7963792061	-2.3892983562	 3.1306669883	 0.1061
H	 2.2193887478	-2.0722112232	 0.9449707229	 0.099231
H	 0.2512936072	-3.671960965	 0.9492161953	 0.113343
H	 0.1313764971	-2.8293534387	-0.6184390426	 0.116071
