18
gdb 40345	3.58734	1.31882	1.25548	1.3694	75.53	-0.2396	0.0723	0.3119	1064.3278	0.148843	-401.852645	-401.845439	-401.844495	-401.884767	28.143	
C	 0.0758822249	 1.5649384795	 0.0248642247	-0.181599
O	 1.1666268229	 0.6706181784	-0.1997375088	-0.234881
C	-0.1269850018	 0.1098296533	 0.0639916111	-0.12012
C	-0.2754671029	-0.6366535757	 1.3234829092	 0.417333
C	-0.1794407088	-2.0751059312	 1.6829474024	-0.093141
C	 0.6171167285	-1.765695939	 2.9484856966	-0.239769
C	 0.0012290845	-0.3441563842	 2.8542862015	-0.141521
C	-1.4978623185	-0.6276103183	 3.0367448296	-0.1465
N	-1.5120539923	-1.3707471416	 1.7313726239	-0.198286
H	 0.1166851085	 2.1264715532	 0.9571230783	 0.113405
H	-0.2558940369	 2.1304538033	-0.8448272914	 0.118368
H	-0.6006533435	-0.3692517045	-0.7938428643	 0.102943
H	-0.1263841441	-2.9402146018	 1.0349716161	 0.103349
H	 0.4166382737	-2.3422539378	 3.8580231323	 0.096058
H	 1.6884917503	-1.7618949864	 2.7352312954	 0.117256
H	 0.5031270581	 0.5159684673	 3.2924090762	 0.080311
H	-1.8125817854	-1.2102433282	 3.9106219671	 0.097666
H	-2.1311580172	 0.2567958038	 2.9322168902	 0.109128
