11
gdb 17015	7.1056	1.39006	1.34079	2.1431	56.39	-0.2874	-0.0423	0.2452	854.5224	0.071302	-397.338468	-397.332114	-397.331169	-397.369158	22.994	
N	-0.013523352	-1.1752281592	-0.0341550849	-0.304776
C	-0.0068056721	-0.0203525641	-0.0068674793	 0.284891
C	-0.0442029844	 1.4320617733	-0.016541226	-0.183127
C	 0.0604391608	 2.1260627918	 1.3771321032	-0.068335
O	 1.4839968646	 1.71848638	 1.4335313355	-0.282489
C	 1.3406608439	 2.1500400175	 0.0232005328	-0.068326
C	 0.6140582823	 3.3837717159	 0.6404427084	 0.471896
O	 0.617608445	 4.5645988053	 0.6647128578	-0.283623
H	-0.7914280901	 1.8161877647	-0.71628733	 0.146154
H	-0.5511620689	 1.9814598847	 2.2636720122	 0.143866
H	 2.1939265611	 2.0328715103	-0.6394670898	 0.143869
