20
gdb 56913	3.00642	0.99603	0.88453	2.3082	82.27	-0.2429	0.0305	0.2734	1399.9354	0.167397	-403.087528	-403.076983	-403.076039	-403.123162	38.609	
C	 0.026832429	 1.5376709214	-0.1936284167	-0.435501
C	-0.0243724136	 0.0384256943	 0.0225014194	 0.322035
C	-1.2117061077	-0.6423778568	-0.6318000387	-0.459279
N	 1.2811491446	-0.6541529616	-0.0180267086	-0.364896
C	 0.5330875853	-0.5988815219	 1.2479186535	-0.076441
C	 1.1702143117	 0.1793291725	 2.3913065842	-0.054951
O	 0.1825342922	 0.8024441371	 3.2118054275	-0.418275
C	 2.055578975	-0.6858619374	 3.1769109083	 0.295422
C	 2.7296500963	-1.4285155104	 3.8401238859	-0.445538
H	 0.9563331436	 1.9674713056	 0.1823180295	 0.127978
H	-0.0333958661	 1.7664534047	-1.2635645818	 0.111889
H	-0.8121620569	 2.0306973134	 0.3078638772	 0.125599
H	-1.182066773	-0.5104426815	-1.7198798826	 0.12175
H	-1.2252353378	-1.7166246602	-0.4198423796	 0.110624
H	-2.1559218647	-0.2170807051	-0.2742502401	 0.126474
H	 1.1928749929	-1.5744034614	-0.4419709521	 0.227175
H	 0.0374884685	-1.5114610935	 1.580231117	 0.077197
H	 1.7586748178	 0.9983414004	 1.9683414138	 0.125412
H	-0.2040243414	 0.1191510803	 3.7702713287	 0.284231
H	 3.347576624	-2.0667589699	 4.4222381152	 0.199095
