15
gdb 263	7.47672	2.0437	1.81354	3.4941	54.72	-0.2402	0.0381	0.2783	725.3315	0.130219	-287.734664	-287.726871	-287.725927	-287.767999	25.795	
C	-0.0592797191	 1.3454299169	 0.3073351558	-0.371498
C	 0.0028248675	 0.0180692244	-0.4521953378	-0.142051
N	-1.284208636	-0.6538056482	-0.5313056978	-0.306767
C	-1.5850714325	-1.7629972347	 0.2089616544	 0.408161
C	-3.007295059	-2.2803999821	 0.0466798964	-0.480758
O	-0.7830814963	-2.303562364	 0.949473837	-0.373107
H	 0.9284710006	 1.8165727714	 0.3350227817	 0.119391
H	-0.7512230919	 2.0480223066	-0.1704515047	 0.108433
H	-0.3931135545	 1.1850750823	 1.3364804158	 0.133436
H	 0.3862352011	 0.17945023	-1.467137389	 0.103043
H	 0.6735781018	-0.6805593794	 0.0521937375	 0.150919
H	-2.0103345997	-0.2324736703	-1.0866245293	 0.239522
H	-3.5600238453	-1.805376161	-0.7683851648	 0.10838
H	-2.9688524282	-3.3582809077	-0.1252826263	 0.152465
H	-3.5513667686	-2.1178496142	 0.9819171512	 0.150433
