20
gdb 113904	2.71014	0.96822	0.80683	3.1207	78.87	-0.2255	0.0361	0.2616	1486.9574	0.168456	-440.290296	-440.279871	-440.278927	-440.327894	36.237	
C	 0.3917987511	 0.8818180057	-0.4481594603	-0.243822
O	-0.2918105297	-0.1235965865	 0.283618057	-0.246646
C	 0.481100021	-0.6431129471	 1.3246282455	 0.090263
C	 0.0181662173	-1.951989831	 1.8932174529	-0.351454
C	 1.2747384651	-1.8974438187	 1.044622845	 0.025325
N	 1.2424196261	-2.4142815596	-0.2872984577	-0.32319
C	 2.2204061894	-3.2282126784	-0.7835031568	 0.41071
C	 2.0378549444	-3.6385327135	-2.2371189289	-0.485279
O	 3.1705395944	-3.6011267931	-0.118259273	-0.37841
H	 1.3136923902	 0.4975779241	-0.905125899	 0.118313
H	-0.2871793416	 1.2237825022	-1.2325266764	 0.130196
H	 0.6505288754	 1.7347759486	 0.1957350708	 0.116277
H	 0.9004590537	 0.1093760373	 1.9930699369	 0.092357
H	 0.1104655618	-2.1193939737	 2.9603909109	 0.1239
H	-0.8636342326	-2.3864259811	 1.4342034217	 0.125031
H	 2.2381097474	-2.0546306629	 1.5119811723	 0.134012
H	 0.4951220183	-2.0929882782	-0.8814267664	 0.249875
H	 1.1340973298	-3.2341848139	-2.7005963799	 0.109488
H	 2.9100450144	-3.3087717892	-2.8080040565	 0.150389
H	 2.007584094	-4.729936261	-2.2914791078	 0.152663
