16
gdb 19120	2.76789	2.00555	1.39784	1.976	70.94	-0.2461	0.047	0.2931	918.8538	0.128748	-346.529656	-346.521831	-346.520887	-346.56182	29.445	
C	 0.0159648997	-1.1947001804	 0.0819225033	-0.434696
C	-0.0110283692	 0.0076071677	 0.0608371264	 0.232258
C	-0.0416849586	 1.4451048243	 0.0470010482	 0.151315
C	 0.5403293002	 2.1848101622	 1.2485946261	-0.299691
C	 1.2903118713	 2.1837496977	-0.0468497696	-0.292657
C	-1.2200375384	 2.0910842659	-0.6293749676	 0.046312
O	-1.5937394258	 1.606541444	-1.9149978058	-0.235147
C	-2.5083613433	 1.4192610301	-0.8284484953	-0.202325
H	 0.0442043758	-2.2560379399	 0.0901163472	 0.192714
H	 0.0365175714	 3.0954401233	 1.5555302775	 0.12196
H	 0.9121728723	 1.5764887737	 2.0636232199	 0.13351
H	 2.183134241	 1.5760464172	-0.1262229151	 0.134617
H	 1.3040570152	 3.0918787947	-0.6398235485	 0.126106
H	-1.2181031812	 3.1801918327	-0.5458988194	 0.084874
H	-2.6253291911	 0.3898994981	-0.4970891451	 0.127986
H	-3.4219259493	 2.0102619688	-0.8778836622	 0.112864
