20
gdb 77003	3.04027	1.03426	0.97798	3.4823	79.81	-0.2628	0.035	0.2977	1314.0275	0.168969	-403.15451	-403.144444	-403.1435	-403.189476	36.972	
C	 0.0908119633	 1.5439713478	-0.1535774655	-0.46029
C	-0.0073684538	 0.0364575815	-0.0146615419	 0.2721
C	-1.2103707752	-0.5733855407	-0.7115984741	-0.452217
C	 1.2628075256	-0.7744130835	-0.0019629627	 0.065356
O	 2.4683703399	-0.0740542789	-0.0848270562	-0.426204
C	 0.4425460223	-0.6559948907	 1.269610227	-0.104838
C	 1.0167545131	 0.1075142446	 2.4570145284	-0.368897
C	 2.2319412556	-0.5363299857	 2.9652970419	 0.262497
N	 3.197719001	-1.0652015859	 3.3184480967	-0.322588
H	 1.061739261	 1.924700886	 0.1657461677	 0.140452
H	-0.0321786838	 1.826856643	-1.2046637759	 0.122653
H	-0.6976504292	 2.0480627146	 0.4169690625	 0.112825
H	-1.1982028609	-0.3409272996	-1.7824843345	 0.122393
H	-1.2309382817	-1.662605735	-0.6065089394	 0.115612
H	-2.1453353167	-0.1812778543	-0.2947276629	 0.118598
H	 1.2555493652	-1.7335234946	-0.5201821741	 0.088281
H	 3.1204554204	-0.5314779809	 0.4595691614	 0.304637
H	-0.1209667025	-1.5388561765	 1.5575234932	 0.096628
H	 1.2715112841	 1.135795203	 2.1899508785	 0.160661
H	 0.2830049224	 0.1648271157	 3.2680043	 0.152343
