15
gdb 131729	4.81391	1.05224	0.89098	1.5382	74.34	-0.2292	-0.0828	0.1464	1242.7188	0.114544	-450.12155	-450.113686	-450.112742	-450.154511	29.067	
O	 0.5941181803	 0.5074226306	-0.6242003493	-0.412225
C	-0.2147593201	 0.3865867923	 0.528111222	-0.138102
C	-1.5491340949	-0.2340678194	 0.2016156491	 0.356539
N	-2.6400467381	 0.2890688946	 0.6656436645	-0.213407
N	-3.7864244311	-0.3312164157	 0.3468546776	-0.247503
C	-3.9187470557	-1.4701783539	-0.4372440361	 0.358529
N	-5.0791851677	-1.9604661194	-0.6645329587	-0.551125
C	-2.6070270241	-1.9380362764	-0.899824928	-0.048305
N	-1.4933278242	-1.3649159396	-0.603824419	-0.273508
H	 0.5855656813	-0.3572604863	-1.053081517	 0.293904
H	 0.2831722593	-0.2209332659	 1.3029302272	 0.103323
H	-0.3712891263	 1.3866964432	 0.9374149234	 0.134242
H	-4.6281847939	 0.0924032437	 0.7118549206	 0.281837
H	-5.0089865144	-2.7873735059	-1.2547771736	 0.220628
H	-2.5880272504	-2.8258718119	-1.5324942128	 0.135173
