17
gdb 124763	4.30348	0.93832	0.91284	2.357	71.93	-0.2327	-0.0008	0.2319	1331.3535	0.135777	-455.14155	-455.132608	-455.131664	-455.175531	33.122	
C	 0.0007520097	 1.5697724453	 0.2210410643	-0.401846
C	-0.0126756186	 0.0519868951	 0.0038641054	 0.013242
O	 0.6927269839	-0.633389048	 1.0331166463	-0.425118
C	-1.4101798517	-0.4817474705	-0.1268530903	 0.483155
C	-2.0990604248	-1.0950725352	-1.1210381714	-0.445829
C	-3.3828060438	-1.3394988078	-0.5408551835	 0.427932
N	-4.4888215912	-1.8842944436	-1.1684969264	-0.588401
N	-3.4478414608	-0.9185365913	 0.704469016	-0.230224
O	-2.1874403734	-0.353243588	 0.9627913358	-0.244435
H	 1.0324540649	 1.9107815186	 0.3375133493	 0.127041
H	-0.4535751281	 2.0919520182	-0.6267248896	 0.123702
H	-0.5626622322	 1.832699357	 1.1216401315	 0.131577
H	 0.5211563273	-0.1898658641	-0.9205077924	 0.104424
H	 0.1749369207	-0.5486243275	 1.8421584986	 0.291963
H	-1.7593701882	-1.3347178331	-2.1150122086	 0.11598
H	-4.2748191825	-2.630055027	-1.8146652539	 0.255768
H	-5.2189227011	-2.1477601381	-0.5200457812	 0.261068
