23
gdb 63425	3.72539	0.79925	0.7834	0.7623	91.94	-0.2557	0.0562	0.3119	1600.7416	0.203404	-351.124838	-351.114656	-351.113711	-351.159903	38.973	
C	 0.0850608459	 1.5346274156	 0.1888670822	-0.447818
C	 0.0004900261	 0.0200214451	 0.0285039548	 0.352028
C	-1.4285160084	-0.4125103682	-0.3099708815	-0.434238
C	 1.0520787531	-0.6300446873	-0.9295705388	-0.290784
C	 1.3200026912	-1.7251609851	 0.1375567223	 0.053612
C	 2.7757054285	-2.1370594523	 0.3869761862	-0.377255
C	 2.9204105342	-3.0698825084	 1.4991208209	 0.303067
C	 3.0065505774	-3.8384612302	 2.4196439231	-0.450447
C	 0.6128695438	-0.8299821624	 1.1891685205	-0.264132
H	 1.1054813782	 1.8527949331	 0.4276490218	 0.105392
H	-0.218954987	 2.0490772578	-0.7307307526	 0.110203
H	-0.5710502421	 1.8834758679	 0.9952745618	 0.111431
H	-1.7650268085	 0.0453565373	-1.2474329563	 0.109939
H	-1.50777107	-1.4988551526	-0.4239927754	 0.111774
H	-2.1261148974	-0.1104057675	 0.4797010948	 0.111089
H	 0.6991060096	-0.9575078047	-1.9118025692	 0.092679
H	 1.9239126509	 0.0178434733	-1.0735339096	 0.089713
H	 0.7305737474	-2.6238120254	-0.0659208575	 0.082
H	 3.189977577	-2.5873492423	-0.5253840335	 0.127151
H	 3.3770587128	-1.2387296591	 0.5827317334	 0.12175
H	 3.0958466233	-4.5169424372	 3.2312114164	 0.192653
H	 1.3337582334	-0.253554648	 1.778563799	 0.092917
H	-0.0851172592	-1.3146595094	 1.8766771774	 0.097275
