16
gdb 26783	3.68359	1.08364	0.84172	0.6338	87.35	-0.1823	0.0006	0.1829	1314.3938	0.122793	-400.760112	-400.750792	-400.749848	-400.794125	34.068	
C	-0.0205299281	 1.5005906448	 0.1267935509	-0.520158
C	 0.0166615988	 0.0176815372	-0.012474724	 0.218001
C	 0.0519326024	-0.770465029	-1.1499950499	 0.293991
O	 0.0584749559	-0.2460578753	-2.4123603868	-0.457151
C	 0.0777831417	-2.1292730229	-0.7626339591	-0.41801
C	 0.0578194897	-2.1563404856	 0.6274142735	 0.201264
N	 0.0208071865	-0.847214123	 1.0556138908	-0.377444
C	 0.0697687567	-3.2357473128	 1.5280419861	 0.260284
C	 0.0795047401	-4.1507330918	 2.3143002078	-0.455355
H	 0.8428606154	 1.8885428059	 0.6821005907	 0.127246
H	-0.0080024054	 1.9532962437	-0.8668291349	 0.154299
H	-0.925356259	 1.8484428046	 0.6412995841	 0.127496
H	 0.0857102695	-0.9696190537	-3.044310669	 0.297511
H	 0.1075712231	-2.9964006657	-1.4044263292	 0.097919
H	 0.0002085452	-0.5746764755	 2.0230088674	 0.263038
H	 0.0883720875	-4.9628606809	 2.9975767017	 0.18707
