23
gdb 121282	2.72652	0.94035	0.73271	1.2908	88.67	-0.2252	0.0348	0.26	1590.8772	0.20574	-388.308251	-388.298283	-388.297339	-388.343383	36.934	
C	-0.2093122981	 1.5604099403	 0.1949635955	-0.498899
C	-0.0596048312	 0.0784144425	 0.0420804701	 0.338894
C	-0.1745294557	-0.6217664474	-1.088041475	-0.173881
C	-0.0422550632	-2.1083383287	-0.8741968739	-0.260657
C	 0.5200892687	-2.1961391373	 0.5653292785	-0.215588
C	 0.1773472344	-0.8387548621	 1.2369210151	-0.07408
C	 1.2400329497	-0.3398799264	 2.2260773695	-0.187594
C	 1.4167924792	-1.2505908253	 3.4345195876	-0.07546
O	 2.3702149434	-0.6471569873	 4.2978294997	-0.422771
H	 0.7030504299	 2.0232082535	 0.5900442884	 0.129909
H	-0.4425711058	 2.0380206036	-0.7606002298	 0.119764
H	-1.0124613935	 1.807478173	 0.9020845873	 0.121366
H	-0.3918318116	-0.1870891267	-2.0587826079	 0.080104
H	-1.0210045339	-2.6027825486	-0.9604394592	 0.100705
H	 0.6092275397	-2.5958169386	-1.6087802345	 0.098622
H	 0.1360885138	-3.0562229836	 1.1204716215	 0.092411
H	 1.6106657579	-2.3010673759	 0.5213191068	 0.100621
H	-0.7728905718	-0.9261935003	 1.791439507	 0.069026
H	 2.2060954002	-0.2384502999	 1.7154254527	 0.101796
H	 0.9738900989	 0.6563166307	 2.5981289188	 0.103435
H	 0.4462126383	-1.3809430187	 3.9425626934	 0.080998
H	 1.7512365636	-2.2494859625	 3.1131603442	 0.08748
H	 2.5097355571	-1.2330275743	 5.0473455943	 0.283798
