21
gdb 98669	4.83694	0.77963	0.75753	1.5129	80.77	-0.265	0.0128	0.2778	1609.7969	0.181505	-424.258395	-424.24847	-424.247526	-424.295042	35.267	
C	-0.3943496805	 1.4364465167	 0.1896530354	-0.240056
O	-0.3265999236	 0.009063233	 0.2952443769	-0.233256
C	 0.8429770674	-0.4793203997	 0.7604363391	 0.439585
O	 1.7772094358	 0.220473658	 1.0707235073	-0.37404
C	 0.8318431939	-1.9820527843	 0.840719882	-0.107502
C	 2.0333158957	-2.7218187024	 0.1775910648	-0.240369
C	 2.0975064363	-3.6673071288	 1.4085129461	 0.052699
C	 3.4553575456	-4.0961592451	 1.9402175196	-0.409879
C	 1.2784939324	-2.6084287847	 2.1966903932	-0.240381
H	 0.3724618688	 1.8098621555	-0.4939285105	 0.139608
H	-1.3899398863	 1.6597158097	-0.1942956035	 0.131115
H	-0.2469756774	 1.903337644	 1.1668868545	 0.139658
H	-0.1293140346	-2.3713023642	 0.5032508155	 0.085571
H	 1.8682406376	-3.1615623824	-0.808704682	 0.099352
H	 2.9039276738	-2.0606613481	 0.1394163676	 0.12027
H	 1.4734572187	-4.5497029598	 1.2247619284	 0.071044
H	 4.0940286849	-3.2262798264	 2.130025514	 0.118899
H	 3.3572496569	-4.6507403572	 2.8803347436	 0.11403
H	 3.9757888699	-4.7438590476	 1.2256319831	 0.114028
H	 1.9354539329	-1.9151572192	 2.7299241244	 0.120277
H	 0.4923939418	-2.954875987	 2.8715469704	 0.099348
