19
gdb 90037	2.68831	1.51981	1.17482	2.7833	71.2	-0.2438	0.0462	0.29	1081.3369	0.158676	-460.124281	-460.115858	-460.114914	-460.157057	32.957	
O	-0.8312331277	 1.0862680361	 1.0332446522	-0.451473
C	-0.1502903796	 0.167308589	 0.2050964986	 0.143792
C	 0.5925115683	-0.9502965076	 0.9883684585	-0.330341
C	-0.6751738166	-1.8201433448	 0.7985410301	 0.434953
C	-1.0627052055	-0.9454511638	-0.4045489982	-0.324165
O	-0.5597277872	-3.2503542205	 0.7090594968	-0.321418
C	-1.1519160088	-3.4255009688	 2.0153470314	-0.122206
C	-1.6340256274	-1.960403419	 1.9958260821	-0.010656
O	-1.351818314	-1.0962656678	 3.0761531822	-0.421609
H	-1.067038418	 0.6350607688	 1.8558401774	 0.288199
H	 0.4339381523	 0.7561881652	-0.5044676085	 0.080982
H	 1.4185136981	-1.3764575719	 0.4124068156	 0.112057
H	 0.925004719	-0.7160873445	 2.0014502804	 0.114056
H	-2.119303451	-0.70526597	-0.5492822878	 0.097444
H	-0.6424983819	-1.3490431614	-1.3306411592	 0.111014
H	-1.9091289406	-4.2162450873	 2.0232829998	 0.104787
H	-0.3996708883	-3.6190387546	 2.7913668168	 0.105755
H	-2.6821713977	-1.8753110949	 1.6848058547	 0.090346
H	-2.0794630735	-1.1273379022	 3.7049141574	 0.298483
