20
gdb 36419	3.62989	1.02125	0.95562	4.1215	81.88	-0.2772	0.0357	0.3128	1290.6054	0.173214	-366.03211	-366.023892	-366.022948	-366.065342	31.629	
N	-0.3716622587	-0.8441871683	-0.6360189508	-0.310876
C	-0.1793535967	 0.2835786217	-0.4712440159	 0.263101
C	 0.0854541823	 1.7052100956	-0.255771374	-0.357012
C	 1.541587635	 1.9803973864	 0.1947601148	 0.003661
C	 2.6168999293	 1.570642273	-0.8554891012	-0.239098
C	 3.1361192161	 2.8591130588	-1.4763629486	-0.016728
C	 2.1397109022	 3.8239880474	-2.069314277	-0.292131
C	 2.6340807891	 4.0281914311	-0.6583867938	-0.017418
C	 1.7892702427	 3.4910285863	 0.4877898633	-0.252927
H	-0.1554914744	 2.2413948381	-1.17940993	 0.152685
H	-0.6115210424	 2.0710462197	 0.50709152	 0.149895
H	 1.687858862	 1.400991899	 1.1102234461	 0.097812
H	 3.4430573426	 1.0562260087	-0.3536096083	 0.10776
H	 2.2165739821	 0.8662498752	-1.5930770078	 0.117429
H	 4.1402172804	 2.8536948623	-1.8858639102	 0.085318
H	 2.5078825478	 4.5105936099	-2.8241995143	 0.114407
H	 1.117126001	 3.5050208956	-2.2416209452	 0.105453
H	 3.2657861691	 4.8872082372	-0.4609278472	 0.084217
H	 0.8488443323	 4.0397248551	 0.6196308098	 0.098481
H	 2.3460343583	 3.5977568173	 1.4248794603	 0.105972
