23
gdb 110310	1.89572	1.47166	1.00292	1.0825	86.73	-0.2393	0.0764	0.3157	1313.3834	0.204606	-388.260763	-388.250732	-388.249788	-388.29545	37.82	
C	-0.4457887128	 1.5187256364	 0.1540991566	-0.414853
C	-0.0499589553	 0.0452032465	 0.1454174879	 0.05367
C	 0.8494080371	-0.5491388476	-0.9916468569	-0.327683
C	 1.7492348989	-1.2059790783	 0.0723840252	 0.353084
C	 2.2619411979	-2.6147819273	-0.0237904217	-0.495921
C	 2.3799464055	-0.1624392289	 0.9502378247	-0.023152
C	 2.9646405126	 1.1551568901	 0.5037937328	-0.121642
O	 4.3224233413	 0.9054876212	 0.1495421622	-0.424369
C	 0.9307881308	-0.5170351223	 1.1850274416	-0.166252
H	 0.4180746003	 2.1861988633	 0.0966399756	 0.115297
H	-1.1016893491	 1.7509724478	-0.692880629	 0.11092
H	-0.9919726722	 1.766606551	 1.0714263381	 0.112825
H	-0.9672969017	-0.5520001403	 0.1936425694	 0.07417
H	 0.3193183498	-1.2780565983	-1.6098843417	 0.097088
H	 1.3380021844	 0.167357311	-1.6606800694	 0.094878
H	 3.0498148021	-2.6977901238	-0.7824103244	 0.123792
H	 2.6886644395	-2.946333525	 0.9286538336	 0.115792
H	 1.4637778999	-3.3155185954	-0.2966787662	 0.109368
H	 3.0169837775	-0.6155847542	 1.7096653187	 0.087846
H	 2.4137836842	 1.5747356629	-0.347622867	 0.085223
H	 2.9000485784	 1.8857834578	 1.3268038447	 0.082895
H	 4.722754433	 1.7435825115	-0.1002838078	 0.28319
H	 0.6251726178	-0.9208108783	 2.1454520428	 0.073833
