14
gdb 70786	3.98134	1.33972	1.13408	4.815	67.3	-0.2579	0.0074	0.2653	1020.351	0.099872	-436.597152	-436.589836	-436.588892	-436.628806	28.109	
O	-0.047548868	 1.3275011797	 0.1057790236	-0.452363
C	 0.0693258056	-0.0323444409	 0.0757104441	 0.354474
C	 0.7933546921	-0.9848965121	 1.0567841032	-0.385746
C	 0.1017823259	-1.9453640313	 0.062839701	 0.204198
C	 0.1045809925	-3.3763467716	 0.0436229524	 0.164118
N	 0.1135455459	-4.5329843864	 0.0340877146	-0.343649
C	-1.1423490507	-0.9941804014	-0.1170230508	 0.007262
O	-1.0826523188	-0.9978058575	-1.5644647923	-0.305871
C	 0.3100642401	-0.9854132581	-1.1655277797	-0.027754
H	 0.8298711928	 1.7252801632	 0.0781245646	 0.29776
H	 1.8860466152	-0.9848186762	 1.0363830949	 0.118208
H	 0.419013322	-1.0074985207	 2.0825113783	 0.127719
H	-2.1082950186	-1.0327905435	 0.3835622628	 0.12345
H	 1.0873144138	-1.0127893533	-1.9279649668	 0.118195
