15
gdb 27934	2.53945	1.38599	0.90227	6.1859	74.53	-0.2184	-0.0288	0.1896	1226.8882	0.111927	-453.999131	-453.990545	-453.989601	-454.032416	30.91	
C	-0.0252070358	 1.4541198802	 0.1432366017	-0.490571
C	 0.0109438314	-0.015528636	-0.0525073434	 0.373532
N	-0.0208552389	-0.7055560832	-1.1298389659	-0.319187
C	 0.0355012622	-2.0478351597	-0.725184049	 0.088942
C	 0.0089238225	-3.1893538175	-1.612530241	 0.069549
O	-0.055028485	-3.1645584659	-2.8216184337	-0.282948
C	 0.1061863339	-2.0671540385	 0.6523623079	 0.325535
N	 0.2490250658	-3.0411253713	 1.5973174493	-0.593777
O	 0.090745974	-0.7955599927	 1.1019161522	-0.207129
H	 0.8772148323	 1.8081210818	 0.6527974501	 0.147467
H	-0.0945321698	 1.9330180716	-0.8335440038	 0.166197
H	-0.8864097741	 1.752052466	 0.7506437994	 0.145275
H	 0.0524997359	-4.1664172261	-1.0673799572	 0.02841
H	 0.0076403912	-3.9749665885	 1.3039528919	 0.275947
H	-0.0841150455	-2.8021828903	 2.5198228714	 0.272757
