20
gdb 87689	2.81617	1.20531	1.01576	3.7361	82.15	-0.2261	-0.025	0.2011	1272.2243	0.169016	-403.128218	-403.118829	-403.117885	-403.162569	34.614	
C	-0.9070906232	 1.1591665292	 0.2334416658	-0.402783
C	-0.0210542703	-0.0597886726	 0.0031918603	-0.09637
C	 0.8764525037	-0.1168751725	-1.2786877563	-0.357503
C	 2.1052712578	-0.3939128698	-0.385685145	 0.247433
C	 3.1580358372	-1.443322237	-0.5716398966	-0.297927
N	 3.5066185782	-0.0364871061	-0.5574154495	-0.119328
C	 3.8801953464	 0.5689931159	-1.8294321568	-0.316916
C	 1.2694718333	-0.1477534253	 0.8532516339	 0.338547
O	 1.5026506322	-0.0333349341	 2.0218427836	-0.309074
H	-0.3403494999	 2.0878531487	 0.1080324882	 0.120749
H	-1.7462851823	 1.1776929941	-0.4690551844	 0.119556
H	-1.3109635383	 1.1502871671	 1.2501403984	 0.137433
H	-0.6029380944	-0.9813042826	 0.1245325276	 0.10349
H	 0.6187038501	-0.8877702047	-2.0067943214	 0.110011
H	 0.9301070755	 0.849018985	-1.7903359502	 0.112265
H	 3.4938037815	-2.026190031	 0.2820555516	 0.132779
H	 3.1487624599	-1.9690141191	-1.5269472482	 0.111801
H	 3.3493775335	 0.1460309733	-2.6973138848	 0.104824
H	 3.6796075707	 1.6439242217	-1.7906426432	 0.129237
H	 4.9545223484	 0.4282794697	-1.9808832631	 0.131774
