20
gdb 118597	2.80472	0.76029	0.62777	3.6424	80.87	-0.2621	-0.0366	0.2255	1782.9184	0.168357	-403.181117	-403.170477	-403.169532	-403.218358	36.303	
C	-0.0185628504	 1.6253680722	-0.0289363164	-0.383571
C	 0.0268375882	 0.0950150418	-0.0348990123	-0.188936
C	-1.3689772377	-0.5318569629	 0.037368043	-0.173205
C	-1.3655870815	-2.0785251472	 0.0430489677	-0.161104
C	-2.7935321785	-2.6496314732	 0.2339885737	-0.29078
C	-2.8328183123	-4.1621236841	 0.3442882409	 0.146441
O	-3.3696429902	-4.7532707899	 1.2446822561	-0.233698
C	-0.759002844	-2.6010744494	-1.187632061	 0.286659
N	-0.2960545153	-3.0031935861	-2.1677858961	-0.332262
H	 0.988716019	 2.0487874232	-0.078045584	 0.121942
H	-0.5826099359	 2.0078789622	-0.8864579701	 0.121174
H	-0.4968455562	 2.0067378972	 0.8799757997	 0.117063
H	 0.5367202942	-0.255778169	-0.9396807223	 0.127587
H	 0.6264349922	-0.2591878998	 0.8138625133	 0.101634
H	-1.8769941674	-0.2028981626	 0.9517602856	 0.109317
H	-1.9806242725	-0.1844734612	-0.8044205904	 0.116143
H	-0.7406871443	-2.4185225961	 0.8796584724	 0.137218
H	-3.2418633786	-2.2275064798	 1.1368195013	 0.132362
H	-3.4085427003	-2.3557893893	-0.627359133	 0.13955
H	-2.3255396688	-4.7061068858	-0.482398478	 0.106467
