20
gdb 119511	3.97391	0.9268	0.86498	1.2653	78.69	-0.2052	0.0747	0.2799	1389.2323	0.170634	-403.051757	-403.043125	-403.042181	-403.085417	33.26	
O	-0.1174020097	 1.4817411136	-0.0359167957	-0.420596
C	-0.0143932728	 0.0719458161	-0.1710374008	-0.065428
C	-1.3797895734	-0.5304401441	 0.1535253309	-0.302331
C	-1.3775807399	-2.0311562919	 0.1072288567	 0.368076
C	-1.5299922227	-2.853982605	-1.1477912715	-0.339542
C	-2.5411900793	-3.0046485001	-0.0386522173	-0.139438
C	-1.9837340326	-3.8271315669	 1.1584309899	-0.048626
N	-0.6102820856	-4.2938245454	 0.8306116471	-0.339435
C	-0.8454749656	-2.9024817039	 1.2962660604	-0.120662
H	 0.7360323836	 1.8677075613	-0.2529324433	 0.28464
H	 0.2797161151	-0.2151390298	-1.1925934999	 0.091079
H	 0.746003063	-0.3399092077	 0.5127751752	 0.084311
H	-1.6841919423	-0.1777974521	 1.1478659097	 0.10245
H	-2.1152643311	-0.1346807986	-0.556557478	 0.104962
H	-1.892318412	-2.292965117	-2.004526293	 0.103663
H	-0.8436709766	-3.6587895653	-1.377600445	 0.139261
H	-3.5918090794	-2.7747845725	-0.1633628141	 0.087945
H	-2.5786831891	-4.3250343722	 1.9128392875	 0.092472
H	-0.2786676741	-4.8229681079	 1.6368501621	 0.227831
H	-0.3577843454	-2.5138461508	 2.181703839	 0.089369
