21
gdb 58535	2.23172	1.42309	1.1777	1.0618	78.79	-0.2495	-0.0283	0.2212	1185.8006	0.179322	-424.23737	-424.227295	-424.226351	-424.272023	37.177	
C	-0.3355159438	 1.4217392043	 0.1579609918	-0.4103
C	 0.0846991727	-0.0464051282	 0.0060009978	 0.013016
C	 0.7810234329	-0.3177365299	-1.3356293862	-0.412446
C	 0.9358207844	-0.5185644253	 1.2029049798	 0.285862
C	 2.3016086517	 0.1410789426	 1.3506639602	-0.443169
O	 0.1685765419	-0.4254897587	 2.4504438782	-0.331783
C	 0.1339670833	-1.8478167461	 2.6639912904	-0.196125
C	 0.942343859	-2.0487986123	 1.3798155059	 0.312387
O	 1.3813466468	-2.9775172793	 0.7706685527	-0.290422
H	 0.5198775029	 2.0986777649	 0.0608994798	 0.115027
H	-1.0554883872	 1.6906666311	-0.6215432049	 0.113576
H	-0.8026896745	 1.593395776	 1.1310687056	 0.136015
H	-0.8312387877	-0.6524396092	 0.0369230106	 0.076444
H	 1.6483816686	 0.3359220255	-1.4754392506	 0.117053
H	 1.121192002	-1.3548955696	-1.407731957	 0.140323
H	 0.090968201	-0.1268875052	-2.1634104903	 0.115946
H	 2.1966775639	 1.2236393174	 1.4627586318	 0.134407
H	 2.8131623782	-0.2411980947	 2.2380709606	 0.124627
H	 2.9285135964	-0.0625813488	 0.4786250977	 0.137031
H	 0.6383268222	-2.1592333565	 3.5878530955	 0.131071
H	-0.8808565848	-2.2658448779	 2.6507627307	 0.131462
