23
gdb 98884	3.75757	0.89425	0.80492	2.4931	86.07	-0.2382	-0.0048	0.2334	1543.6088	0.206166	-388.337201	-388.327367	-388.326422	-388.373529	35.75	
C	 0.2047951492	 1.535266041	-0.153180079	-0.377661
C	 0.1243400537	 0.0226420678	 0.0329627568	-0.280473
C	 0.7123830882	-0.4688944989	 1.3500330897	 0.361807
O	 1.0905207342	 0.302126681	 2.2041016883	-0.311101
C	 0.829579014	-1.9815503987	 1.5127763093	-0.05853
C	 2.1472780166	-2.4990474004	 0.8562456423	-0.212682
C	 2.4898796308	-3.7562611888	 1.6672774747	-0.198285
C	 2.166046639	-3.3371784041	 3.1098667735	-0.19587
C	 0.8937055855	-2.462631085	 2.9891449994	-0.227846
H	 1.2442844401	 1.8742353352	-0.1530009095	 0.12745
H	-0.2560107241	 1.8356700153	-1.098459423	 0.107617
H	-0.3037381313	 2.0539062519	 0.6630381424	 0.13348
H	-0.9189463911	-0.3241508833	-0.0006487975	 0.122316
H	 0.6226780961	-0.5114428464	-0.7874710146	 0.119669
H	-0.0137585349	-2.4496530562	 0.9926350599	 0.072063
H	 2.0406529315	-2.6841748623	-0.2161703119	 0.096702
H	 2.9402486439	-1.7522496344	 0.9865873869	 0.111613
H	 1.8424684204	-4.5864141295	 1.3572144066	 0.095842
H	 3.5261049888	-4.0803209484	 1.5314276902	 0.095326
H	 2.031291434	-4.1880818689	 3.7832321472	 0.093299
H	 2.9933527616	-2.7392779468	 3.508701557	 0.105268
H	 0.9268860849	-1.6044630855	 3.6628587043	 0.125311
H	-0.0032109213	-3.0401235744	 3.2313899968	 0.094685
