15
gdb 24493	3.93184	1.70018	1.18694	3.9499	81.9	-0.2164	-0.0228	0.1936	967.4076	0.117814	-379.762053	-379.75592	-379.754975	-379.792261	25.319	
N	-0.0295600288	 1.3652833132	 0.0100055575	-0.386285
C	 1.2709530031	 1.8328091134	-0.0000672765	-0.051172
C	 2.1451868132	 0.7816816931	-0.0143159856	-0.266435
C	 1.3537665333	-0.4133468193	-0.0131888095	 0.32191
C	-0.0125779228	-0.008618533	 0.0023602117	 0.318221
C	-1.0255573761	-0.9602730669	 0.0070331472	-0.228459
C	-0.6140765801	-2.2858114919	-0.0042410065	-0.105538
C	 0.7576516201	-2.5971116385	-0.0193257166	-0.040855
N	 1.7381141016	-1.6997829924	-0.023978323	-0.349445
H	-0.8516411997	 1.9427019286	 0.0211913532	 0.262446
H	 1.4621298159	 2.8949139278	 0.0038899441	 0.12868
H	 3.2216998768	 0.8385063563	-0.0244713518	 0.10952
H	-2.0763149757	-0.6884636669	 0.018760923	 0.095494
H	-1.3428135309	-3.0884115665	-0.0015328076	 0.094759
H	 1.0642364902	-3.640766117	-0.0280317196	 0.097156
