17
gdb 76106	2.31919	1.43787	1.10435	5.4055	74.29	-0.2515	0.0316	0.2831	1137.7174	0.135521	-417.96379	-417.955244	-417.954299	-417.997574	31.491	
O	 0.4141779448	 1.4742047009	 0.3100948822	-0.411009
C	 0.2783101986	 0.1162070951	 0.1320717592	 0.11674
C	-0.5051385142	-0.7325798843	 1.151827106	-0.280261
C	-1.0915637597	-0.106351298	 2.297664587	 0.309131
N	-1.5620542193	 0.3897697962	 3.2311739041	-0.343852
C	-1.0627459596	-0.4371973748	-0.2486489251	-0.037318
N	-2.090556194	 0.5555228798	-0.3314205452	-0.0846
C	-2.8479406616	 0.6385236845	-1.5799753599	-0.228599
C	-3.4823756605	 0.1081759582	-0.3422216545	-0.213407
H	-0.483601949	 1.8423945562	 0.2803220714	 0.30077
H	 1.1774778298	-0.3395937824	-0.2687091851	 0.122513
H	-0.1516890588	-1.7443537873	 1.3210040591	 0.13401
H	-1.1234686115	-1.2917482689	-0.92506959	 0.095048
H	-3.0695416744	 1.6428828343	-1.9267997285	 0.132711
H	-2.6033848016	-0.0732325976	-2.3655934509	 0.122819
H	-3.666248452	-0.9623092336	-0.2917478322	 0.124444
H	-4.1700456771	 0.7197982119	 0.2324232024	 0.140859
