21
gdb 82862	2.42794	1.97777	1.69234	1.658	79.6	-0.2504	0.0699	0.3203	933.4633	0.186767	-387.10119	-387.094251	-387.093307	-387.132022	29.817	
O	 0.1694378445	 1.3644730282	 0.2703067518	-0.451462
C	 0.0195215907	-0.0161049885	 0.0091296041	 0.159481
C	-1.4472003748	-0.5343716898	-0.0979533836	-0.060489
C	-2.2724518037	 0.2964550055	-1.1078163759	-0.24167
C	-1.5752595122	-0.5020314255	-2.2330000277	-0.01139
C	-0.1434456374	 0.0367881281	-2.4947013294	-0.23563
C	 0.6585637015	-0.5374121739	-1.3040167965	-0.052147
C	 0.1779098469	-2.0017196418	-1.2911261415	-0.23377
C	-1.3085699512	-1.6550054003	-1.1926520665	-0.010926
H	-0.2868384813	 1.8573332498	-0.4185985578	 0.278481
H	 0.510571373	-0.5056888895	 0.8571538908	 0.082387
H	-1.8938357859	-0.7592753938	 0.8717480274	 0.060974
H	-3.3378949667	 0.0594294619	-1.0368465109	 0.099017
H	-2.1717588039	 1.3892288749	-1.1060153871	 0.073989
H	-2.1390660925	-0.7111823168	-3.1436994716	 0.058395
H	 0.2575778366	-0.3474212287	-3.438353151	 0.097121
H	-0.1105210407	 1.1309480978	-2.5585874881	 0.082104
H	 1.7362486514	-0.3733263958	-1.3573543008	 0.059674
H	 0.4338440345	-2.5484072794	-2.2047800343	 0.091715
H	 0.5501464799	-2.5690543117	-0.4315151206	 0.093367
H	-2.0363232187	-2.465086071	-1.1640370906	 0.060778
