16
gdb 61487	3.31822	0.85578	0.70543	4.6847	70.68	-0.2914	-0.003	0.2885	1492.2298	0.12432	-434.077656	-434.068327	-434.067383	-434.112414	33.152	
N	-0.1950020023	 1.5411680004	-0.1191899519	-0.507565
C	-0.0949725021	 0.0717516861	-0.0856727858	-0.152593
C	-1.4856214028	-0.5679978237	 0.1024330768	-0.21099
C	-2.1303497074	-0.1533563161	 1.4453971664	-0.018536
O	-2.4533886521	 1.2135511899	 1.5103784206	-0.426353
C	-3.366583895	-0.9288063905	 1.6534954646	 0.289201
N	-4.3143794246	-1.5701223016	 1.8066791509	-0.309979
C	 0.572434417	-0.480075021	-1.2815657832	 0.26442
N	 1.0928167836	-0.8732962163	-2.2357099501	-0.302284
H	 0.7287923408	 1.9622558747	-0.0948376643	 0.261211
H	-0.6334517008	 1.8399969814	-0.9868573727	 0.261729
H	 0.5249357599	-0.1886821444	 0.7811624932	 0.146385
H	-2.1470172911	-0.2719005637	-0.7184738057	 0.142295
H	-1.3828572142	-1.6562544605	 0.0665494172	 0.14952
H	-1.4395220239	-0.4415601565	 2.2587703985	 0.112597
H	-1.6776976848	 1.6837607618	 1.1534958154	 0.300944
