17
gdb 10269	2.99913	1.45051	1.24578	5.9683	66.87	-0.2484	-0.0344	0.214	1047.9436	0.139789	-401.042569	-401.033519	-401.032575	-401.076441	31.545	
C	-0.0085118038	 1.5480731052	-0.0180976801	-0.386142
C	-0.0388838642	 0.0166223502	 0.0620695609	 0.005941
C	 0.7687995886	-0.5324310941	 1.2448123276	-0.386141
N	-1.4230481921	-0.5120288823	 0.0431139988	-0.095562
C	-1.8154619883	-1.3150240203	-1.038554913	 0.164994
O	-2.8894007481	-1.8188164667	-1.2076809442	-0.264959
C	-2.2863181769	-0.193762362	 1.0988410369	 0.167978
O	-3.4272028741	-0.5454599589	 1.2210046353	-0.266811
H	 1.0234203579	 1.8941873508	-0.1287852065	 0.128819
H	-0.5852499854	 1.9051495069	-0.8756626323	 0.133477
H	-0.4170912756	 2.0118174578	 0.8850013549	 0.129985
H	 0.4175299812	-0.3697260236	-0.8552914097	 0.104019
H	 0.3940431993	-0.1591050019	 2.2028130565	 0.12998
H	 0.7336685043	-1.6250467912	 1.2672577596	 0.133475
H	 1.814490031	-0.2231511289	 1.1564444192	 0.128819
H	-0.9741073121	-1.433757715	-1.7519606172	 0.084629
H	-1.7787821717	 0.4480778139	 1.8429657934	 0.0875
