12
gdb 50816	4.88254	0.86167	0.73241	2.4149	58.87	-0.2604	-0.1394	0.121	1391.5486	0.074528	-509.805309	-509.796412	-509.795467	-509.840566	28.899	
O	-0.4000822936	 0.0763121692	 0.0060456441	-0.240029
C	-0.1148859928	 1.2392571544	 0.0090446812	 0.170279
N	 1.1822010791	 1.7604734529	-0.0005764993	-0.353327
C	 2.3738702805	 1.0634774364	-0.0151856541	 0.337612
O	 2.5254637711	-0.1343067018	-0.022540419	-0.291687
C	 3.5839062448	 2.018804052	-0.0214542346	 0.214406
O	 3.4475718245	 3.2159759466	-0.0139454472	-0.264774
C	 4.9792587597	 1.351309067	-0.0378201425	 0.097435
O	 5.9699108131	 2.0288146311	-0.0439427284	-0.203395
H	-0.8580899344	 2.0596177937	 0.0202033455	 0.105941
H	 1.291774194	 2.768376009	 0.0034642678	 0.281148
H	 4.987953544	 0.2488983394	-0.0435158536	 0.146391
