17
gdb 106587	2.7848	1.45657	1.28909	2.7957	67.94	-0.2405	-0.0007	0.2398	1033.1688	0.134949	-458.901372	-458.893152	-458.892208	-458.934127	31.54	
O	 0.0268191263	 1.3708611317	 0.1002215657	-0.416963
C	 0.0329707788	-0.0405127279	-0.0271460978	-0.186735
C	-1.3674060166	-0.5848328582	-0.0956934389	 0.312215
O	-2.1407102909	-0.3897744454	 1.1462464153	-0.330885
C	-3.0674278778	-1.3417280804	 0.5302942136	-0.050111
C	-3.5149114569	-0.5859340658	-0.7273146798	-0.074095
C	-2.3625546125	-0.0683295255	-1.1534493634	-0.102353
C	-1.7761335807	-2.0871708624	 0.0187100802	 0.072933
O	-1.7672849991	-2.8551490548	-1.1439052655	-0.422845
H	-0.5641623589	 1.5788725032	 0.8332629039	 0.295754
H	 0.5665089116	-0.2749276347	-0.9544380412	 0.120319
H	 0.571748762	-0.5215128036	 0.8036887464	 0.094214
H	-3.7972247408	-1.7704058125	 1.2158942579	 0.078198
H	-4.5109902471	-0.5348254843	-1.1406230749	 0.111847
H	-2.1257532001	 0.5455445221	-2.0088001383	 0.119753
H	-1.2553219344	-2.5738673183	 0.8517503637	 0.086453
H	-1.7929060029	-3.7844444833	-0.8989407669	 0.292302
