21
gdb 90077	3.04871	1.5716	1.40403	1.5389	82.31	-0.234	0.0812	0.3152	1031.2962	0.184523	-387.026512	-387.019075	-387.018131	-387.057918	31.072	
C	-0.1787303095	 1.5713303877	-0.0137643739	-0.401904
C	-0.0004690759	 0.0577998056	 0.0063088977	-0.053307
C	 0.9471323208	-0.5770781719	-1.1020402842	-0.37981
C	 2.0315434239	-0.7242147801	-0.0065362773	 0.28649
C	 3.0599031909	-1.6292048769	 0.737860124	-0.339241
C	 3.0269921766	-0.3686240329	 1.6920830129	 0.106327
C	 2.9415015847	 0.4779775408	 0.4145743461	-0.258792
O	 1.6729077924	-0.2439787952	 2.2147967436	-0.304124
C	 0.9483909371	-0.6593939531	 1.0464790773	 0.140906
H	 0.7553884128	 2.1152989837	-0.1638220782	 0.121438
H	-0.8538248744	 1.8557748859	-0.8284601632	 0.114279
H	-0.6228404683	 1.9208988569	 0.92399901	 0.125676
H	-0.9943553003	-0.3989833402	 0.0247299406	 0.075796
H	 0.5584505482	-1.5289058288	-1.4728681815	 0.108139
H	 1.2020006887	 0.0568986315	-1.9548811357	 0.104161
H	 2.7007323757	-2.5855101435	 1.1255150924	 0.100086
H	 4.0398657998	-1.7396700642	 0.2687673667	 0.099869
H	 3.7459089185	-0.2101443124	 2.4939873587	 0.082817
H	 3.8648028621	 0.5058971097	-0.1688867923	 0.096139
H	 2.521952426	 1.4758972693	 0.5293177092	 0.104931
H	 0.4987242102	-1.6385449721	 1.2567301973	 0.070124
