20
gdb 90673	4.09153	1.06378	1.05205	1.0032	79.15	-0.2282	0.0683	0.2965	1234.2776	0.171416	-403.083537	-403.075382	-403.074437	-403.116244	32.08	
O	 0.1246280125	 1.1939468032	-0.4662298406	-0.436407
C	 0.022820684	-0.169799046	-0.1309633376	 0.156406
C	 0.2134412746	-0.5135950267	 1.3706399376	-0.219854
N	-1.2244630177	-0.9476446504	 1.5270748442	-0.195225
C	-1.4003194276	-0.7136289487	 0.023656626	-0.195783
C	-1.4069913839	-2.0685370407	 0.604319488	 0.397551
C	-0.4836706216	-3.2592766515	 0.2959378388	-0.30635
C	-1.7642046499	-4.0963452883	-0.000530938	-0.215778
C	-2.6285103832	-2.9901100358	 0.6719739679	-0.310602
H	-0.4401349513	 1.6924847963	 0.1356674663	 0.282969
H	 0.6633388764	-0.6924144691	-0.8478536191	 0.091647
H	 0.9439135348	-1.2859559588	 1.6334441227	 0.104799
H	 0.4073901385	 0.3792582302	 1.9711904337	 0.106846
H	-2.2893563884	-0.2438600759	-0.390548001	 0.093195
H	 0.2400502735	-3.1482949868	-0.5153725743	 0.106098
H	 0.0425084721	-3.6103745434	 1.1894523573	 0.110929
H	-1.9598304414	-4.1823800871	-1.0717668809	 0.10817
H	-1.8092733412	-5.0922704939	 0.4433144355	 0.103736
H	-2.8896539332	-3.2254607605	 1.7075234902	 0.114177
H	-3.5302170872	-2.6660272061	 0.1469357531	 0.103474
