18
gdb 80298	2.42631	1.63986	1.31454	4.1469	73.14	-0.2432	0.056	0.2993	1052.923	0.147024	-439.095873	-439.087411	-439.086467	-439.128779	31.946	
C	-0.3933439353	 1.4053635568	-0.2633535496	-0.426772
C	-0.0199544222	-0.0536582914	-0.132340249	-0.121155
C	 1.3911397192	-0.578361636	-0.3242412365	-0.007627
O	 2.4409152962	 0.3625393663	-0.2297040973	-0.248105
C	 2.4682760552	 0.8753741654	 1.0413165769	 0.474718
N	 3.2479036592	 1.755012124	 1.4853422235	-0.58043
O	 1.4936905025	 0.313936761	 1.8009001973	-0.25439
C	 0.7622840828	-0.6328333323	 1.0338530872	 0.370088
C	 0.3585877405	-1.8418545535	 1.8235339506	-0.471403
H	-0.5584537631	 1.6656501521	-1.3135400496	 0.127166
H	-1.3160499601	 1.6145219992	 0.2865665431	 0.129134
H	 0.3801691436	 2.0691265115	 0.1268948804	 0.154407
H	-0.767363351	-0.7494529311	-0.508800376	 0.098782
H	 1.6370933598	-1.4256318601	-0.952344555	 0.11821
H	 3.8988208324	 2.0443011713	 0.7595129328	 0.232587
H	-0.3373155006	-1.5676377128	 2.6226135466	 0.141188
H	-0.1380247065	-2.5685046385	 1.1750402075	 0.125846
H	 1.2328021273	-2.3181798819	 2.2775189571	 0.137756
