18
gdb 31148	1.99293	1.76414	0.99071	1.5059	75.45	-0.1628	0.0657	0.2286	1184.8908	0.148463	-435.276795	-435.26718	-435.266236	-435.310802	35.585	
C	 0.4482208288	 1.3724874391	 0.4182563211	-0.323245
N	-0.2068920798	 0.2584989062	-0.2800516305	-0.418216
C	 0.5832493495	-0.395873056	-1.2647347298	 0.037441
C	 0.2335156489	-0.3768158177	-2.5964370319	 0.381983
O	-0.8459763435	 0.1838844272	-3.1812708897	-0.440897
N	 1.1670027191	-1.0371921884	-3.3202124082	-0.32396
C	 2.1555974197	-1.5192459661	-2.4532282897	-0.188004
C	 1.8190674986	-1.1300986965	-1.1800506052	 0.185143
N	 2.5550708445	-1.3200571398	 0.0087883661	-0.609842
H	 1.3832379946	 1.0916492281	 0.9236320431	 0.119871
H	 0.6857671025	 2.1566303582	-0.3068049438	 0.125389
H	-0.2422186522	 1.7897455028	 1.1587483223	 0.106254
H	-0.5912818567	-0.3934869751	 0.3961952429	 0.217988
H	-1.3370901837	 0.5794147424	-2.4445980821	 0.298693
H	 1.1336995753	-1.1717788278	-4.3141169707	 0.26239
H	 2.9975005991	-2.0752023737	-2.8294180913	 0.100433
H	 3.254292268	-2.0461617414	-0.0892019981	 0.236406
H	 1.9536979072	-1.5637508318	 0.7874796553	 0.232172
