18
gdb 14464	3.72357	2.17401	2.15651	1.2828	69.92	-0.2265	0.0967	0.3232	762.942	0.156451	-347.81453	-347.808267	-347.807323	-347.844442	26.126	
C	-0.0138502474	 1.4650693618	-0.0377984538	-0.499415
C	 0.0057880496	-0.0284921758	 0.0209471987	 0.470371
O	 0.2140489358	-0.6754710463	-1.2292988804	-0.295643
C	 0.1735135298	-2.045767584	-0.8020106865	 0.053931
C	 1.2175653174	-2.0788897514	 0.3366406751	-0.225113
C	 0.6321409058	-0.8933132755	 1.094078	-0.149311
C	-0.8854627589	-0.9225672404	 0.8564948953	-0.149313
C	-1.1665264882	-2.1247553406	-0.0366863331	-0.225111
H	 0.9357076852	 1.8532411386	-0.420670478	 0.127019
H	-0.8154941122	 1.8195203765	-0.6940470618	 0.127009
H	-0.1775508936	 1.8834515814	 0.9592581198	 0.11977
H	 0.3197023804	-2.7058350331	-1.6544763586	 0.077021
H	 1.2010913529	-3.0171893542	 0.8987130251	 0.097588
H	 2.2305546925	-1.8923814444	-0.0309441918	 0.103097
H	 1.0718759149	-0.4795706193	 1.9917435461	 0.083707
H	-1.5936379898	-0.530965346	 1.5744707783	 0.083709
H	-2.0249907202	-1.9742052409	-0.6973139906	 0.1031
H	-1.2874002541	-3.0650810263	 0.5090021161	 0.097583
