17
gdb 55985	3.32188	1.08404	0.84911	3.385	70.06	-0.2374	0.0068	0.2442	1295.4459	0.136796	-455.181572	-455.173013	-455.172069	-455.215639	31.42	
N	 0.6267358154	 0.1768419855	-0.7914501337	-0.516761
C	-0.0586624357	 0.1265748715	 0.3789043912	 0.362251
O	 0.1863259465	 0.8432963367	 1.3320243309	-0.364007
C	-1.2039790871	-0.8971803872	 0.4367039484	-0.3133
C	-0.8687609688	-2.2926791655	-0.0954064923	-0.151613
C	-1.9737085568	-3.3759950233	-0.0605309108	-0.10698
O	-1.8842063315	-3.5192790885	-1.5175585737	-0.244544
C	-0.9464744937	-2.5256495007	-1.5939679766	 0.466641
N	-0.3944552109	-1.9931527212	-2.5901037512	-0.559857
H	 1.366456136	 0.8569607741	-0.8587843501	 0.253694
H	 0.4050283492	-0.4038013907	-1.5950000111	 0.289123
H	-1.4876293649	-0.9618301812	 1.4895788157	 0.134579
H	-2.064200126	-0.4899689617	-0.109513199	 0.126403
H	 0.0777883675	-2.6467609564	 0.3224747834	 0.125156
H	-1.7307964068	-4.3154459165	 0.4393951961	 0.131185
H	-2.9686598357	-3.0298353449	 0.2298960566	 0.1305
H	-0.7138706167	-2.3867535601	-3.4750471641	 0.237531
