17
gdb 132493	3.02536	1.30831	0.92375	2.2998	78.86	-0.2408	-0.0221	0.2186	1215.3618	0.135535	-426.046574	-426.038335	-426.037391	-426.0793	31.017	
C	 0.011519955	 1.5248824725	-0.0285863494	-0.500236
C	 0.0130237528	 0.0182408287	-0.0182924856	 0.259478
C	 0.0008752166	-0.7023682735	-1.2090119147	-0.294866
C	 0.0028198875	-2.0867756406	-1.1516680497	 0.248467
F	-0.0086626707	-2.8033281756	-2.2798576028	-0.07664
C	 0.0166461965	-2.7267761131	 0.0760454159	-0.122538
N	 0.028374774	-2.0456636437	 1.2227635391	-0.307173
C	 0.0267678431	-0.7088156146	 1.1904452664	 0.249309
C	 0.0404651703	-0.0048349763	 2.5231865754	-0.48325
H	 0.8964758966	 1.9312069932	 0.4745918482	 0.137367
H	-0.0013888935	 1.9124117773	-1.0502410806	 0.125882
H	-0.8614497876	 1.9296483723	 0.4962721412	 0.137338
H	-0.0100187515	-0.2032688921	-2.1723217317	 0.112356
H	 0.0182145707	-3.812242779	 0.1273988685	 0.118314
H	 0.9200923887	 0.6411218763	 2.6307133179	 0.12698
H	-0.8391395589	 0.6375540775	 2.6506017286	 0.127025
H	 0.0509308701	-0.7467284294	 3.3221594832	 0.142185
