22
gdb 14973	4.02631	1.33948	1.07613	0.2492	83.43	-0.2344	0.0336	0.2679	1173.0969	0.202108	-313.098611	-313.090329	-313.089385	-313.131151	32.069	
C	 0.097782965	 1.5638281666	 0.0210578284	-0.390523
C	 0.0034694728	 0.0345457503	-0.0106589497	-0.181567
C	-1.4278007192	-0.5228827763	 0.0253187615	 0.047227
C	-1.439563575	-2.0519810599	-0.1309761735	-0.201149
C	-2.8679252222	-2.6045246482	-0.2359475391	-0.263035
C	-3.7835751935	-1.9903973303	 0.7902035659	-0.03909
C	-3.4705903798	-0.8988003106	 1.4866365344	-0.060443
C	-2.1867277697	-0.129438363	 1.3064565538	-0.241903
H	 1.1373574586	 1.8940083187	-0.0704068087	 0.110341
H	-0.4661258825	 2.0118218504	-0.8052296268	 0.112391
H	-0.2961574673	 1.9788713355	 0.9539726723	 0.118037
H	 0.497156546	-0.3344798857	-0.9191354373	 0.088997
H	 0.5702718284	-0.3848831317	 0.8325207434	 0.090571
H	-1.9779420094	-0.0978464708	-0.8284591166	 0.067352
H	-0.8552626499	-2.3467565031	-1.0104931634	 0.086204
H	-0.941864125	-2.5002664028	 0.7400289877	 0.094147
H	-3.271095083	-2.4233659598	-1.2440024868	 0.104078
H	-2.8593685434	-3.6961112858	-0.1206427008	 0.098677
H	-4.7406090984	-2.4801284634	 0.955866078	 0.079223
H	-4.1674549097	-0.5164034841	 2.2294638647	 0.078867
H	-1.5372561565	-0.2858955136	 2.1830519339	 0.099871
H	-2.4088659463	 0.9447897875	 1.3011574787	 0.101722
