15
gdb 32153	3.84094	1.23337	0.9391	0.6213	71.6	-0.2442	-0.0236	0.2205	1185.6152	0.114686	-454.018094	-454.010533	-454.009589	-454.050299	28.134	
C	-0.0271761612	 1.343616355	-0.0196333167	-0.226162
O	-0.0031790858	-0.0817202077	 0.0706890047	-0.242247
C	 0.63794791	-0.6186180661	 1.1126772268	 0.472745
N	 1.2152990706	 0.1820510342	 2.004103455	-0.363836
C	 1.8353827698	-0.4429462447	 3.016333968	 0.018431
C	 1.8874289039	-1.8152175091	 3.1500799376	-0.231864
C	 1.2369161707	-2.535738787	 2.1391976149	 0.441749
O	 1.2340426212	-3.8755458073	 2.1841607666	-0.407808
N	 0.6145606684	-1.9559516638	 1.1250268915	-0.404612
H	 0.985014381	 1.7501082449	-0.0919285541	 0.13689
H	-0.5914055012	 1.5640350718	-0.9266267122	 0.130826
H	-0.5183457	 1.7846217754	 0.8517124903	 0.13691
H	 2.3115116626	 0.2010420705	 3.751965246	 0.11962
H	 2.3890840174	-2.3116415729	 3.9685729722	 0.115693
H	 0.7391357427	-4.1709863032	 1.4056935694	 0.303664
