17
gdb 42886	2.38797	1.79121	1.56704	1.8402	67.71	-0.2403	-0.0399	0.2004	931.7272	0.13752	-458.954866	-458.947725	-458.946781	-458.986312	28.115	
O	-0.0143318508	 0.0179624313	 0.1311235357	-0.302153
C	-0.0203381713	 1.2078437185	 0.0163795807	 0.366586
C	-1.1196682049	 2.2864255572	 0.0614788584	-0.147838
C	-0.0110090204	 3.258244392	 0.5723275238	-0.258579
C	 1.085245002	 2.3079734841	-0.0156089804	 0.018035
O	 1.5060019766	 2.6591014807	-1.3209261323	-0.252999
C	 0.5494498412	 2.497633767	-2.3454503652	 0.006277
O	-0.6179046158	 3.2551547171	-2.1633242888	-0.235475
C	-1.6165314547	 2.6524751031	-1.3514181783	-0.110934
H	-1.9723711899	 2.0638126835	 0.7081228083	 0.098915
H	-0.0117626053	 4.2636517442	 0.1532561078	 0.129417
H	 0.033755294	 3.2980493993	 1.6630589519	 0.114309
H	 1.9876872794	 2.136534671	 0.5735668164	 0.105131
H	 1.0347463191	 2.8712919845	-3.2486936602	 0.125882
H	 0.2932816028	 1.4307210717	-2.466165107	 0.103691
H	-2.0231069644	 1.7548806321	-1.8424474553	 0.113791
H	-2.4160248676	 3.3948021827	-1.2813362458	 0.125943
