23
gdb 114809	2.60396	1.18656	1.05931	1.277	85.13	-0.2412	0.0767	0.3179	1302.6104	0.205167	-388.270775	-388.261227	-388.260282	-388.305251	36.551	
C	 0.0375076275	 1.5493107371	-0.1709364469	-0.37754
C	 0.0598839037	 0.0210333334	-0.048798066	-0.206646
C	-1.333157778	-0.5863424388	 0.0624346543	-0.006702
C	-2.2801951257	-0.5931511775	-1.1804622432	-0.259298
C	-2.6731283993	-2.0719984108	-0.8881829163	-0.056359
C	-1.9153606831	-3.1155833935	-1.7406141881	-0.217164
C	-0.7090069075	-3.0433238959	-0.7526736259	-0.298701
C	-1.5440249556	-2.1204711502	 0.1925329836	 0.384687
O	-1.8236318591	-2.6336479455	 1.4680005754	-0.483656
H	 1.0489715962	 1.9583583536	-0.2582515968	 0.109946
H	-0.5270809809	 1.8669146716	-1.0542318013	 0.119377
H	-0.4349432294	 2.0079468532	 0.7046977834	 0.114259
H	 0.5807885155	-0.4011064835	-0.9177177528	 0.093658
H	 0.6533244192	-0.2644323891	 0.8312693545	 0.084559
H	-1.8613515335	-0.1340726519	 0.9108328959	 0.072568
H	-3.0991575244	 0.1281652479	-1.1481323783	 0.101194
H	-1.7557178868	-0.4687468616	-2.1340352019	 0.091563
H	-3.7184164796	-2.2577487336	-0.641473195	 0.068923
H	-2.394631489	-4.0976842682	-1.7420477645	 0.1026
H	-1.7146552116	-2.8291607134	-2.7768710809	 0.093477
H	-0.465786392	-3.9980188789	-0.2805194547	 0.100972
H	 0.2097625973	-2.6105896239	-1.1561404724	 0.094736
H	-0.9955359642	-2.6889660304	 1.9583377281	 0.273547
