19
gdb 95298	2.09703	1.82024	1.39938	1.251	69.74	-0.2511	0.0558	0.3068	1013.2263	0.159637	-460.151918	-460.143684	-460.14274	-460.18432	32.422	
O	 0.3187509156	 1.0985388087	-0.6470048328	-0.44697
C	 0.0249182421	-0.1004097173	 0.0466355154	 0.062605
C	 0.4486832546	-0.1706720261	 1.5239116969	-0.265204
C	-0.3391332858	-1.3830353249	 2.0584890458	-0.233204
C	-1.6925589082	-1.2693839246	 1.3579771855	 0.089268
O	-2.4777841485	-0.1731483741	 1.8954268254	-0.297159
C	-2.4393088287	 0.5438833917	 0.6460490902	-0.132153
C	-1.4674102396	-0.4923723517	 0.0356479211	 0.347457
O	-1.8725077765	-1.1174597233	-1.1518174072	-0.491151
H	-0.0153345576	 1.8351763703	-0.123312331	 0.28149
H	 0.5485789669	-0.8845973055	-0.514743125	 0.097911
H	 1.5308769464	-0.2577485038	 1.6430044903	 0.107206
H	 0.1283945644	 0.7405580449	 2.0444994291	 0.106651
H	 0.1460824813	-2.3209870121	 1.7621654472	 0.105953
H	-0.4452938176	-1.3895542886	 3.1464690311	 0.114339
H	-2.2717700776	-2.1958134996	 1.3023446956	 0.081839
H	-3.411943427	 0.5536971749	 0.1395871508	 0.108104
H	-2.0882000995	 1.5777700538	 0.7736654208	 0.076536
H	-1.5171000247	-0.6009842024	-1.8850877893	 0.286482
