13
gdb 9991	2.55934	1.61244	1.10203	3.3089	67.39	-0.2608	0.011	0.2718	1041.0245	0.092482	-361.40434	-361.395776	-361.394832	-361.438124	29.975	
O	-0.0409572148	 0.12572626	 0.7453900595	-0.316577
C	-0.0195426819	 1.216786786	 0.2193687555	 0.166968
N	 1.0919264559	 1.8130030577	-0.2949198456	-0.260196
C	 2.4015142325	 1.1621636841	-0.2535967788	-0.333608
C	 2.9184089033	 0.9063298678	-1.6041240571	 0.331875
C	 3.3324102987	 0.7040602797	-2.7125413068	-0.434984
C	 3.3607453404	 1.9326995488	 0.5481241433	 0.331949
C	 4.1372837011	 2.5715874552	 1.2036479372	-0.435091
H	-0.9167977703	 1.8533528162	 0.1005342752	 0.090151
H	 1.0247372798	 2.7257645349	-0.7166846371	 0.261734
H	 2.2056166705	 0.2027009211	 0.2442735923	 0.182557
H	 3.7029278111	 0.5159547009	-3.6901221534	 0.20761
H	 4.8288129838	 3.1280149676	 1.7871778358	 0.207613
