16
gdb 3225	5.11332	2.65369	2.29443	1.6661	63.81	-0.2027	0.0828	0.2855	647.7511	0.137174	-288.5546	-288.548456	-288.547512	-288.584003	24.783	
C	-0.0207240252	 1.5299789672	 0.0415957827	-0.494342
C	 0.0236423432	 0.0311584904	 0.0090438664	 0.358062
C	-0.8824794765	-0.8766090861	 0.7972350626	-0.334702
C	 0.6104328506	-0.9563099233	 1.0128192238	-0.109045
C	 1.3329823071	-1.6881809875	-0.1541471663	-0.046236
N	 0.3179732998	-2.1712572662	-1.127526611	-0.337903
C	 0.7551006274	-0.7507965608	-1.1331580229	-0.113902
H	 0.9604983851	 1.9666976776	-0.1816412963	 0.113477
H	-0.7333822618	 1.9262909502	-0.6928510632	 0.118704
H	-0.3279219609	 1.8912979743	 1.028334213	 0.11823
H	-1.4193052759	-0.3793629777	 1.6001936804	 0.100597
H	-1.4139124381	-1.6913135544	 0.3221989334	 0.138716
H	 1.0800738781	-0.7491059202	 1.9661268308	 0.083776
H	 2.3182479971	-2.1332736448	-0.1060192938	 0.090543
H	 0.8271309525	-2.6388351102	-1.8773707523	 0.226988
H	 1.1878333676	-0.2980407385	-2.0167103675	 0.087037
