17
gdb 40794	3.91542	1.20059	1.02039	2.2004	68.21	-0.2611	0.0788	0.3399	1157.0439	0.136006	-458.913385	-458.905832	-458.904888	-458.946121	28.223	
C	 0.1512821625	 1.4510558397	-0.0372161423	-0.174281
O	 1.0937892415	 0.4003446992	-0.267905947	-0.240817
C	-0.2619280219	 0.0466917989	 0.014289972	 0.072607
C	-0.479733076	-0.6605485312	 1.3302304931	 0.07976
O	-1.8616845644	-0.542881375	 1.6732378706	-0.276861
C	-2.3219604055	-1.731740256	 2.3096715721	-0.10636
C	-1.3605387799	-2.8190950926	 1.8873843569	 0.02695
O	-1.1530582161	-2.8566998823	 0.4715658405	-0.249728
C	-0.2058054442	-2.1528527219	 1.2852609281	-0.003661
H	 0.286613431	 2.0047314077	 0.8910327578	 0.116435
H	-0.0992642563	 2.0536927817	-0.9083224607	 0.11964
H	-0.8165296223	-0.3774712078	-0.8212188107	 0.112855
H	 0.1668380997	-0.2019036786	 2.0963761124	 0.077982
H	-2.3100354704	-1.6338929596	 3.4069944974	 0.099368
H	-3.3525869619	-1.9085602103	 1.9850605787	 0.122759
H	-1.3106388138	-3.7683406187	 2.4131131038	 0.107177
H	 0.8092084679	-2.5373124334	 1.3008373273	 0.116175
