18
gdb 54691	3.34668	1.155	0.89026	15.3507	76.97	-0.1666	-0.0233	0.1433	1270.6863	0.150586	-439.06337	-439.055209	-439.054265	-439.096763	30.5	
O	 0.072369402	-0.06373843	-0.0451230697	-0.457105
C	 0.090278471	 1.1700365705	-0.0230058122	 0.321121
O	 1.0179033073	 2.0129810186	-0.0461005908	-0.492659
C	-1.3064778344	 1.8623047658	 0.0430540909	 0.157083
C	-2.4710944721	 1.2178237278	-0.0052295734	-0.15196
C	-3.8238543483	 1.8824841805	 0.0491989711	-0.26668
C	-3.7131187124	 3.3682905943	 0.3874166908	-0.202592
N	-2.5372950285	 3.9643015469	-0.3533794644	-0.255462
H	-2.6380191793	 3.7599211492	-1.3499148416	 0.312798
H	-2.5238213255	 4.9798091656	-0.2475960447	 0.305362
C	-1.2115449195	 3.3520889478	 0.1052509325	-0.312511
H	-2.4267551973	 0.1358681762	-0.0987873297	 0.128326
H	-4.3670794701	 1.7529556959	-0.8990958591	 0.122651
H	-4.4612137737	 1.4184918438	 0.8119068061	 0.142363
H	-4.6049507901	 3.9373543583	 0.1145084149	 0.142139
H	-3.4993121421	 3.5255681939	 1.4470498478	 0.166712
H	-1.0228345005	 3.7471556396	 1.1081798572	 0.158158
H	-0.4087485165	 3.6945030053	-0.5497269657	 0.182255
