21
gdb 122589	4.22421	0.66189	0.60034	1.186	80.93	-0.2549	-0.0306	0.2243	1889.2639	0.180309	-424.231124	-424.221139	-424.220194	-424.267297	35.314	
C	-0.1464079562	 1.5885030809	 0.0745957793	-0.380561
C	 0.1410494905	 0.0909564268	-0.0617574324	-0.167696
C	 0.6986293081	-0.5304868555	 1.2231230761	-0.163064
C	 0.9833754606	-2.0311635877	 1.0917930599	-0.205276
C	 1.4990741351	-2.6432996952	 2.3857599907	 0.00457
O	 0.5309212754	-2.6277985515	 3.4708133168	-0.291893
C	 0.5324437443	-4.0592265265	 3.6354813255	-0.189195
C	 1.5370051714	-4.1763652182	 2.4820801451	 0.335679
O	 2.0866457338	-5.0594503894	 1.8992195705	-0.274098
H	 0.7635425924	 2.1453466503	 0.324538732	 0.114359
H	-0.5461650803	 2.0046457431	-0.8552987494	 0.112581
H	-0.8779342758	 1.7797215668	 0.8674403351	 0.116401
H	-0.7795952375	-0.43506436	-0.3469920529	 0.09707
H	 0.8508291615	-0.0742429348	-0.8833008671	 0.095409
H	 1.6225574643	-0.0096851693	 1.5109573051	 0.093114
H	-0.0096678414	-0.3767534142	 2.0462997596	 0.11704
H	 0.0712982826	-2.5588175716	 0.7853730292	 0.101697
H	 1.733885949	-2.2143970205	 0.3118825247	 0.113834
H	 2.4417535796	-2.1671514959	 2.6948598158	 0.104002
H	 0.9107642571	-4.3805770424	 4.6146379936	 0.132206
H	-0.4497890546	-4.5157963253	 3.4591947229	 0.133821
