21
gdb 87848	3.54559	1.27426	1.21192	1.783	82.29	-0.2496	0.0953	0.3449	1141.0543	0.184008	-387.070095	-387.062325	-387.061381	-387.102079	31.62	
C	-0.0048818533	 1.5116795963	-0.1214928618	-0.419042
C	-0.0176283217	 0.0169791798	 0.0693770253	-0.052422
O	 1.2529691312	-0.6577121057	-0.0063014198	-0.321162
C	 0.5534261974	-0.6557265551	 1.2388107071	 0.49855
C	 1.1946672696	 0.0063896483	 2.4758238345	-0.307216
C	 0.9503155459	-1.1396404326	 3.482052053	-0.02487
C	 1.3385817803	-2.3964626908	 2.6474239242	-0.228401
C	 0.0852200838	-1.9836453937	 1.8173670414	-0.09614
C	-0.5289875366	-1.5207221027	 3.1736142726	-0.229596
H	 0.7993152355	 1.976125224	 0.4542199328	 0.126476
H	 0.1426173243	 1.7618534563	-1.177366317	 0.128274
H	-0.9591727605	 1.9473087712	 0.1952094652	 0.118657
H	-0.8148152607	-0.5051598179	-0.4655423108	 0.082138
H	 2.2551328498	 0.2117906095	 2.3056524114	 0.111823
H	 0.7024102419	 0.9383445435	 2.7711448202	 0.099666
H	 1.3069757658	-0.9917108765	 4.50128646	 0.062336
H	 2.3066296133	-2.404703672	 2.1393343938	 0.103908
H	 1.1866279398	-3.3285422739	 3.1962892747	 0.095888
H	-0.4235364529	-2.6663223041	 1.1375073781	 0.063368
H	-0.8842963856	-2.3598290623	 3.775942656	 0.098817
H	-1.2773936372	-0.7222697315	 3.1580968494	 0.088946
