21
gdb 37950	2.88193	1.77004	1.38047	0.5416	87.41	-0.2164	0.0101	0.2265	1010.0774	0.185957	-349.912499	-349.905374	-349.90443	-349.943488	30.374	
C	-0.0603723939	 1.4246949404	 0.1685494254	-0.305826
C	 1.4610193599	 1.5556365348	-0.1106662945	-0.08654
C	 2.3104790985	 0.3557744342	 0.3341992087	 0.002095
C	 2.0613838451	-0.5616607997	 1.535084631	-0.226755
C	 1.7936710513	-2.0507739714	 1.1757858384	-0.180646
C	 0.6444245785	-2.3211145545	 0.1350455299	-0.241256
C	-0.3379037124	-1.1772631525	 0.1770778518	-0.171825
C	 0.0675601027	-0.0110962844	-0.3161571039	 0.248342
C	 1.4482173676	 0.2490052302	-0.8902984189	-0.159885
H	-0.4333592581	 1.5801129482	 1.1874533744	 0.095653
H	-0.6092289076	 2.0822925063	-0.515441203	 0.108132
H	 1.944370942	 2.4864872515	-0.3848575494	 0.083706
H	 3.3625457812	 0.5234426068	 0.1093763388	 0.080016
H	 2.9330456529	-0.5262259811	 2.1988294219	 0.087855
H	 1.2259717302	-0.1835575533	 2.1302315681	 0.106832
H	 2.7168390191	-2.5095119992	 0.8027175886	 0.095479
H	 1.5554533848	-2.5704364748	 2.1109651976	 0.09619
H	 1.079553485	-2.3998689297	-0.8657250947	 0.109765
H	 0.1781823534	-3.2872912887	 0.3491245183	 0.091358
H	-1.2069718582	-1.2395263099	 0.8286516797	 0.082171
H	 1.8085235778	 0.0238521868	-1.8866584483	 0.085139
