20
gdb 114771	3.94964	1.07354	0.9087	2.0551	81.27	-0.2148	0.0176	0.2324	1298.7788	0.172399	-403.118053	-403.109703	-403.108759	-403.151083	32.261	
O	-0.1032915192	 1.49111596	-0.0667443677	-0.421426
C	 0.0203737251	 0.0763442017	-0.0790545158	-0.090932
C	-1.3821905707	-0.519845508	 0.0365559695	-0.032594
C	-1.3288541743	-2.0470551948	-0.1295505006	-0.176883
N	-2.6296500707	-2.6995915124	 0.1069140305	-0.104419
C	-2.7571599163	-3.478437138	 1.3403353251	-0.246624
C	-3.4350704712	-2.1559905124	 1.2059337933	-0.044427
C	-2.9557906642	-0.9398770011	 1.9063425357	-0.097676
C	-2.0319689789	-0.1570070726	 1.3510051853	-0.052187
H	 0.7794872973	 1.8715931598	-0.0512197617	 0.288308
H	 0.4944341774	-0.273171293	-1.0102714029	 0.087664
H	 0.6404155088	-0.2756622408	 0.7615662413	 0.086755
H	-1.9732389292	-0.0889469399	-0.7847097915	 0.104198
H	-1.0098125503	-2.3045336003	-1.146663101	 0.102453
H	-0.5630907075	-2.4398778436	 0.5558401242	 0.090278
H	-3.32727018	-4.4010307625	 1.2619403824	 0.110642
H	-1.8916246423	-3.5270516128	 1.9989688686	 0.107679
H	-4.5067617848	-2.1690845743	 1.0023317001	 0.096479
H	-3.4309152883	-0.6765440854	 2.8479746628	 0.089965
H	-1.7154631606	 0.7688428904	 1.8205591726	 0.102748
