20
gdb 70008	3.51551	1.40969	1.18695	1.5426	85.66	-0.2243	0.009	0.2333	1112.0881	0.171993	-365.956076	-365.948245	-365.947301	-365.987974	31.455	
C	 0.1025236159	 1.5726276639	 0.0908180959	-0.495284
C	 0.0022880272	 0.085320321	-0.0585268857	 0.235418
C	-0.9502526378	-0.7880183276	 0.6789299098	-0.269813
N	 0.4805839372	-0.9103925576	 1.017629611	-0.214616
C	 1.1820330738	-1.68403816	-0.1119341929	 0.029692
C	 0.9277865731	-3.0947664071	-0.662767577	-0.258103
C	 0.9508561021	-2.8173032945	-2.2095644179	-0.236111
C	 0.4197088993	-1.3822605413	-2.324025637	-0.24758
C	 0.5727882769	-0.7957286388	-1.142245448	 0.239552
H	 1.1297157897	 1.918833317	-0.0623081766	 0.126503
H	-0.5365741606	 2.0787935118	-0.6419541733	 0.124518
H	-0.2168447023	 1.8793062165	 1.0907124652	 0.130795
H	-1.5237093562	-0.3393608617	 1.4862019017	 0.117422
H	-1.4625870477	-1.5900132907	 0.1534697159	 0.112543
H	 2.2507255562	-1.5021010135	 0.0517939197	 0.090801
H	 1.6592298708	-3.8443458401	-0.3492986619	 0.097213
H	-0.0680951772	-3.4513960027	-0.377441747	 0.108122
H	 1.9689683704	-2.9180157769	-2.6115867028	 0.108379
H	 0.3283200538	-3.5256739977	-2.7667993507	 0.104718
H	-0.0607225846	-0.9979683001	-3.2161618382	 0.095829
