18
gdb 77354	2.71804	1.29298	0.96277	1.4101	73.08	-0.2308	-0.0378	0.193	1210.6909	0.146745	-439.115048	-439.106136	-439.105192	-439.149245	32.204	
C	-0.4985837122	 1.3585446163	-0.0207687744	-0.407403
C	 0.0779536804	-0.0524817421	 0.0272969873	-0.121842
C	 0.9473767058	-0.5238786721	-1.1769535232	-0.071578
N	 1.9226309126	-1.4841210421	-0.6646716064	-0.312663
C	 2.1464176045	-1.2200425616	 0.7530135006	-0.275747
C	 1.0296273679	-0.2773556891	 1.2144558635	 0.382604
O	 0.9183405153	 0.2245797716	 2.3008344128	-0.30507
C	 0.0800609927	-1.1393719397	-2.2489051416	 0.149088
O	 0.0212910031	-2.3258846282	-2.457245369	-0.252256
H	 0.2817710297	 2.09144578	-0.250830206	 0.125854
H	-1.2847624714	 1.4504845952	-0.775484699	 0.119648
H	-0.920485933	 1.6159480644	 0.9542268169	 0.147739
H	-0.7338574265	-0.7823868127	 0.1716715083	 0.116975
H	 1.4485643184	 0.3566446955	-1.6103347072	 0.095318
H	 1.5700111901	-2.4191680571	-0.8375924062	 0.239892
H	 2.1499496513	-2.132653861	 1.3579391518	 0.138014
H	 3.1085200123	-0.7192805986	 0.9321303918	 0.136607
H	-0.5397315609	-0.4200225288	-2.8251379198	 0.094819
