14
gdb 34736	3.64639	1.54418	1.33354	4.0157	70.63	-0.2637	-0.0739	0.1898	933.0887	0.102318	-395.629999	-395.623484	-395.62254	-395.66099	25.302	
N	 0.3098752925	-1.1444564146	-0.0736860495	-0.313115
C	 0.1859891711	 0.0036394104	-0.0533327564	 0.311376
C	-0.0277247839	 1.4395015202	-0.0143362448	-0.206344
C	-0.1841336285	 2.2230568408	 1.3529752559	-0.083193
C	 1.0513246914	 2.8564703502	 2.0243491406	-0.045814
C	 2.4994507592	 2.4750756566	 1.6854371244	-0.18962
N	 2.3210350077	 1.9271075459	 0.3133707936	-0.177681
C	 1.1827656321	 2.3616379572	-0.0463445415	 0.15545
N	 0.5101011636	 3.4137546174	 0.7827438324	-0.129665
H	-0.8745823681	 1.7272623271	-0.6442098362	 0.155825
H	-1.1654554745	 2.3311852977	 1.8101172185	 0.130537
H	 0.8317629223	 3.4053252782	 2.9377961867	 0.116355
H	 3.1483319394	 3.3585810629	 1.7559270901	 0.133341
H	 2.9327175358	 1.6791205401	 2.2968642463	 0.142549
