22
gdb 8358	5.02662	1.10314	1.0797	0.2117	83.	-0.285	0.091	0.376	1232.4435	0.201125	-313.031823	-313.023609	-313.022664	-313.064848	31.615	
C	-0.0253360173	 1.5621153839	 0.0106204633	-0.37905
C	 0.0009499792	 0.0314770053	 0.002609561	-0.162927
C	-1.4009828119	-0.5928069282	 0.0118462363	-0.326504
C	-1.3956540785	-2.1019001011	 0.004225544	 0.378529
C	-0.7708872624	-3.0641505166	 1.0691409462	-0.245945
C	-1.4047428955	-3.9897536066	-0.0052271836	-0.042708
C	-2.638709217	-3.0463794756	 0.0090072424	-0.26345
C	-0.7873604811	-3.0533283287	-1.0797982975	-0.245942
H	 0.9862934977	 1.9800831611	 0.0037223289	 0.109535
H	-0.553535275	 1.9535626425	-0.8660948041	 0.112905
H	-0.5377887332	 1.9446001179	 0.9005363512	 0.112906
H	 0.5474276694	-0.3220239584	-0.8809277994	 0.098385
H	 0.562985355	-0.3309383204	 0.872677053	 0.09837
H	-1.9505829966	-0.2420678079	 0.8968114964	 0.092519
H	-1.9660799009	-0.2332402225	-0.8597146671	 0.092518
H	 0.3204180609	-3.0754903652	 1.1449237912	 0.0852
H	-1.2388671895	-3.0661036887	 2.058506215	 0.083275
H	-1.4103633819	-5.0802414686	-0.0106756076	 0.067306
H	-3.2487734072	-3.0458444235	 0.9176475115	 0.083301
H	-3.2626741069	-3.0366906678	-0.8900921997	 0.083298
H	-1.2704271542	-3.0453589091	-2.0618547849	 0.083275
H	 0.3026571368	-3.0638062017	-1.1723805569	 0.085204
