22
gdb 118087	3.14828	0.87261	0.75882	1.7111	78.7	-0.2468	0.0712	0.318	1559.4085	0.192944	-441.455347	-441.445017	-441.444073	-441.490892	38.284	
C	 0.1082390273	 1.5375715159	-0.2266541043	-0.483145
C	 0.0059214007	 0.0375674908	-0.0510013518	 0.31749
C	 1.1550457881	-0.803359236	-0.4715566238	-0.279077
N	 0.8496475974	-0.622935552	 0.9642710036	-0.369867
C	-1.4006892135	-0.5764672853	-0.1085633669	 0.063383
O	-1.3362171932	-1.9643555325	 0.179203232	-0.441273
C	-2.38911733	 0.1333660581	 0.828647916	-0.192429
C	-3.7636155731	-0.5228854929	 0.8268271817	-0.077859
O	-4.6091153082	 0.2440943823	 1.6750384808	-0.426557
H	 1.1551704301	 1.8533936244	-0.2769632471	 0.112632
H	-0.3789050317	 1.857190891	-1.1549520464	 0.128021
H	-0.3681321533	 2.0754549036	 0.5989116777	 0.133464
H	 0.9829774438	-1.8083235263	-0.8416013125	 0.131637
H	 2.0281828489	-0.3003633351	-0.8783584618	 0.10931
H	 1.4905945358	 0.0376512663	 1.3944870965	 0.231984
H	-1.7689032144	-0.4986598456	-1.1414349667	 0.082044
H	-0.7162904288	-2.0345695625	 0.9229249724	 0.28969
H	-1.9926255347	 0.130091784	 1.851873866	 0.103215
H	-2.5098839122	 1.1814834725	 0.5325995794	 0.101954
H	-4.1574581541	-0.5531720809	-0.2033886851	 0.078443
H	-3.6742807957	-1.5608909986	 1.1716686563	 0.103393
H	-5.4529041994	-0.2116673813	 1.743043474	 0.283549
