20
gdb 120806	4.41516	0.61849	0.58133	4.7769	80.48	-0.2734	0.0379	0.3114	1879.8166	0.170094	-403.145244	-403.13521	-403.134266	-403.181475	35.471	
O	 0.0015039013	 1.4122415046	 0.2505198339	-0.421311
C	-0.0138947419	-0.002642787	 0.3486977874	-0.069524
C	-1.3096425451	-0.4957176678	-0.289134034	-0.200422
C	-1.4281467191	-2.0046800414	-0.2443149821	-0.024223
C	-2.0047583329	-2.7117838349	 0.9619771146	-0.284788
C	-2.7440367846	-2.7418263907	-0.3515862575	-0.013554
C	-4.0681900686	-2.0099930365	-0.520354271	-0.365742
C	-5.2040776894	-2.8212194627	-0.0772303588	 0.26411
N	-6.0925178369	-3.473154033	 0.2703963264	-0.306493
H	 0.8107300617	 1.7351504994	 0.6571596942	 0.287749
H	 0.8488445409	-0.4504087977	-0.1715327436	 0.085843
H	 0.0298954859	-0.33561192	 1.3977580565	 0.091976
H	-2.1428777594	-0.0160612424	 0.2357673323	 0.104771
H	-1.3419824989	-0.1366740424	-1.3252678218	 0.110044
H	-0.5997953536	-2.5166792893	-0.7294052218	 0.090889
H	-1.5411766604	-3.6238712528	 1.3199108372	 0.12075
H	-2.4190135436	-2.0880301703	 1.748979987	 0.11856
H	-2.7103527473	-3.6808432533	-0.8957642155	 0.105699
H	-4.0767752641	-1.0744015626	 0.0473205817	 0.152194
H	-4.229679294	-1.7392232092	-1.5709337849	 0.153471
