18
gdb 8154	4.09481	1.6398	1.3984	1.9837	67.62	-0.2344	0.0769	0.3113	938.6745	0.153286	-384.927392	-384.919697	-384.918753	-384.959055	30.05	
C	 0.183221268	 1.572642721	 0.1080692571	-0.401217
C	 0.0698238238	 0.0634470003	-0.001521968	 0.1631
C	 0.7228963902	-0.5756740638	-1.2488590307	-0.323258
C	 1.2173270687	-1.9280934509	-0.7235372501	 0.365589
O	 0.7980973823	-3.0979308949	-1.3564067852	-0.46907
C	 2.4994090823	-1.9258595339	 0.0839092539	-0.364118
C	 1.1490660064	-1.8213046632	 0.7661691085	 0.052259
O	 0.737429643	-0.5332585684	 1.1280720202	-0.27621
H	 1.2328356677	 1.8814230394	 0.0752381591	 0.118656
H	-0.3494863853	 2.0566394406	-0.7165789191	 0.115156
H	-0.2487225764	 1.9235633187	 1.0494453589	 0.127291
H	-0.9911666709	-0.2314751211	 0.0302010643	 0.074423
H	-0.0002678685	-0.7293748381	-2.0533604124	 0.109931
H	 1.5388075839	 0.0485039753	-1.6317900805	 0.096028
H	 1.3985157756	-3.2709891275	-2.0897114158	 0.282956
H	 3.0133726861	-2.8777745485	 0.1736536768	 0.111232
H	 3.1307971519	-1.043487691	 0.0729032805	 0.11301
H	 0.7870291912	-2.6300292842	 1.3929586626	 0.104241
