21
gdb 105246	2.63968	1.27147	1.00089	1.9982	78.5	-0.258	0.0815	0.3395	1267.4692	0.181231	-424.195623	-424.186132	-424.185187	-424.229788	35.9	
C	 0.0397722861	 1.2985819684	-0.3811124361	-0.445178
C	 0.2798314772	-0.120666349	 0.0652909997	 0.046626
O	 1.6295513571	-0.5224890157	 0.4105193207	-0.306814
C	 0.6147789391	-0.5626124773	 1.4314773468	 0.304594
C	 0.8671302861	 0.4255942973	 2.5745396592	-0.131079
O	 1.6965418884	 1.5051441003	 2.2042645359	-0.415022
C	 0.213140423	-1.9355387707	 1.8943418694	-0.073805
C	 0.469371748	-3.1471736518	 1.04025664	-0.273235
C	 1.2765433081	-2.929530834	 2.295856894	-0.263059
H	 0.4431052661	 1.4491673182	-1.3884988448	 0.125191
H	-1.038990593	 1.4850860173	-0.4288915088	 0.121276
H	 0.4925651014	 2.0193026033	 0.2989418339	 0.153971
H	-0.2136375922	-0.8721751726	-0.5535612195	 0.090742
H	-0.0853574375	 0.8383388579	 2.9289233288	 0.111092
H	 1.3089075788	-0.1388347168	 3.4112353406	 0.098765
H	 2.3103053197	 1.1415513451	 1.5508594966	 0.290272
H	-0.6972628233	-1.9385905964	 2.489135063	 0.089746
H	-0.2764872642	-3.9338163827	 1.0292728242	 0.110381
H	 0.9823684567	-2.9867366519	 0.0989865113	 0.129372
H	 2.3106402477	-2.6285099599	 2.1681151981	 0.123662
H	 1.0919880866	-3.5650733691	 3.154468597	 0.112501
