18
gdb 55390	3.39242	1.20011	0.95132	0.964	72.88	-0.2482	-0.0245	0.2237	1223.4654	0.147538	-439.119611	-439.110982	-439.110038	-439.153925	31.357	
C	-0.8348144534	 0.2368718319	 0.6547539817	-0.475887
C	 0.372489881	 0.406555252	-0.2367705347	 0.350782
O	 1.2884570086	 1.1531582308	 0.0179013385	-0.304048
C	 0.448671967	-0.4249807804	-1.5216473852	 0.037167
C	 1.6057172906	-1.4269656942	-1.4744509514	-0.233313
C	 1.5722259145	-2.2718384753	-2.750523001	-0.170804
N	 0.2368997486	-2.7706442817	-3.0729996663	-0.259819
C	-0.7570654217	-2.1921698443	-2.5544314943	 0.128815
O	-0.7974938716	-1.1002869263	-1.7410419867	-0.242092
H	-1.7452761548	 0.5038186139	 0.1086640334	 0.154095
H	-0.9509645861	-0.812922206	 0.943630613	 0.146741
H	-0.7227589775	 0.8648245213	 1.5388202007	 0.140698
H	 0.6092264548	 0.2776972008	-2.3504877857	 0.11835
H	 2.5449292115	-0.8811135934	-1.359565404	 0.13213
H	 1.4842601962	-2.0736469478	-0.5971926969	 0.11331
H	 1.942732111	-1.6931188974	-3.6070680499	 0.118521
H	 2.2393561976	-3.135008416	-2.6548266246	 0.118085
H	-1.7699058065	-2.5500118781	-2.7292912767	 0.127268
