18
gdb 72823	2.8445	1.55879	1.28555	2.4238	72.52	-0.2609	0.0178	0.2787	1035.3979	0.148491	-439.092248	-439.084297	-439.083353	-439.124866	30.256	
C	-0.1121160586	 1.4796337353	 0.0845362529	-0.464267
C	 0.0303000989	-0.0276307587	 0.039577729	 0.407504
C	-1.2801288531	-0.7953577914	-0.157665571	-0.128549
O	-1.1476076204	-2.0351821082	 0.5524824095	-0.244747
C	-0.0989241206	-2.0038139108	 1.4312870679	 0.415837
N	 0.1326182908	-2.8851907385	 2.3044831717	-0.546725
C	 0.7573248893	-0.7907452893	 1.1726434541	-0.220143
C	 1.8559702346	-1.026265818	 0.1134581763	-0.086209
O	 1.0346464098	-0.447261458	-0.9233218087	-0.325214
H	 0.8602130978	 1.9519384671	 0.2471996394	 0.130751
H	-0.5115874779	 1.8509417613	-0.8653014291	 0.133912
H	-0.7898692086	 1.7880095973	 0.8869877338	 0.123674
H	-2.1394357134	-0.2476446156	 0.2479148289	 0.10783
H	-1.4546397349	-1.0151044214	-1.2139962328	 0.131278
H	-0.5825540171	-3.6143138271	 2.2773908572	 0.223844
H	 1.0430690671	-0.2746755439	 2.0870140051	 0.109089
H	 2.7712787197	-0.4455779473	 0.2795903361	 0.108044
H	 2.1175863368	-2.0693315928	-0.0892288503	 0.12409
