14
gdb 25204	2.37582	1.93698	1.30823	4.7745	74.23	-0.2516	-0.072	0.1796	956.8397	0.102531	-432.869292	-432.861983	-432.861039	-432.901496	27.124	
N	-0.2149362716	 1.4492103664	-0.269080491	-0.470305
C	-0.0838301414	 0.2057700231	-0.1769876347	 0.37116
O	 1.1792110049	-0.3920678755	-0.2067376454	-0.213214
C	 1.4181282579	-1.6249741602	-0.6912560368	 0.073142
C	 0.6046678147	-2.4529446325	-1.3727219396	-0.168583
C	-0.7958937101	-2.2433056053	-1.6875482503	-0.01131
N	-1.6375059433	-1.4798353941	-1.0907443534	-0.246365
C	-1.2401558812	-0.7382748793	 0.0268475829	 0.278921
N	-1.807402646	-0.7658249618	 1.1614565784	-0.467637
H	 0.687118524	 1.906520246	-0.4165944767	 0.236317
H	 2.4535382573	-1.8909915913	-0.5072374289	 0.144742
H	 1.0657704217	-3.3567489718	-1.7558883915	 0.11765
H	-1.1871498612	-2.830487406	-2.5206961994	 0.12673
H	-2.5859256158	-1.4314455578	 1.1325697663	 0.228752
