18
gdb 106909	3.04141	1.29707	1.22042	4.4458	77.93	-0.2502	-0.0527	0.1975	1114.0142	0.147912	-401.965819	-401.957701	-401.956757	-401.998622	30.962	
C	-0.3157215898	 1.4777709782	-0.0667212074	-0.382597
C	 0.2100388042	 0.0451659078	 0.0740825782	-0.27448
C	 0.8055551882	-0.4983290243	-1.209825635	 0.288602
C	 0.6342752939	-1.9347159333	-1.5991798608	-0.288447
N	-0.1081114276	-0.8644712839	-2.300820015	-0.159815
C	 0.5361440972	-0.4610644502	-3.5392219904	 0.359897
O	 0.1029258953	-0.7100852671	-4.63221973	-0.321814
C	 1.7869782834	 0.2600511867	-3.1774112165	-0.193762
C	 1.9561824558	 0.2070557674	-1.8512503664	-0.133332
H	 0.4859230347	 2.1773837929	-0.325080139	 0.117563
H	-1.0738104114	 1.5310582136	-0.8534853323	 0.140204
H	-0.768807588	 1.8192089491	 0.868274688	 0.118118
H	 0.9751703904	-0.0049043843	 0.8598802931	 0.102683
H	-0.6026898582	-0.6182905649	 0.3867491137	 0.113133
H	 1.4417516291	-2.4236390931	-2.1381119988	 0.131931
H	 0.0223701124	-2.5871719814	-0.9817756568	 0.130625
H	 2.4568644055	 0.6682622593	-3.9216644209	 0.128265
H	 2.7802163749	 0.6246272576	-1.2843203237	 0.123226
