19
gdb 61874	4.26615	0.69994	0.69223	1.811	73.75	-0.2393	-0.0378	0.2015	1637.6013	0.156554	-456.367783	-456.357399	-456.356455	-456.404248	36.285	
C	 0.3471030479	 1.4440266003	-0.4667359581	-0.339859
N	-0.1643233168	 0.1876432745	 0.0828393922	-0.09321
C	 0.4813333054	-0.1421562808	 1.3442506692	-0.232668
C	 1.9184390235	-0.5955742815	 1.1268234266	 0.154018
O	 2.8058896026	-0.4543198514	 1.924169232	-0.230745
C	-1.6236129885	 0.1790365963	 0.1418100188	-0.249239
C	-2.305346336	-0.0673104169	-1.2135976865	 0.366779
N	-1.5307942303	-0.7309426077	-2.110582078	-0.501383
O	-3.4529550876	 0.2746421245	-1.4160613379	-0.358205
H	 1.4340695449	 1.3896831328	-0.5818936099	 0.130489
H	-0.0888826889	 1.6214598479	-1.4528059868	 0.13967
H	 0.1142675609	 2.308903404	 0.1785201599	 0.115142
H	 0.4734834581	 0.6731598334	 2.0870316982	 0.1166
H	-0.0400380237	-0.9972758349	 1.7960164835	 0.133084
H	 2.074314799	-1.1097910825	 0.149836174	 0.079217
H	-1.945869639	-0.6367924151	 0.7984377975	 0.129921
H	-2.0522522134	 1.1065831943	 0.5513465695	 0.120449
H	-0.5892727868	-0.98303358	-1.8589871738	 0.257982
H	-1.9140833713	-0.9747236671	-3.0079674504	 0.261958
