15
gdb 69151	2.80727	1.68895	1.31273	3.8878	64.7	-0.2463	-0.0554	0.1909	969.5353	0.111201	-457.732541	-457.725143	-457.724199	-457.764304	28.307	
C	-0.0132575157	 1.539700752	 0.0536470485	-0.501714
C	 0.1366956512	 0.0485719232	-0.0230314607	 0.397831
O	-0.6154343226	-0.7520281568	 0.8821619257	-0.260444
C	 0.8173648485	-0.8018784396	 0.978977121	-0.168984
C	 1.4867883917	-1.9528456918	 0.2434798484	 0.418997
O	 2.3467154444	-2.6662462755	 0.6911272904	-0.299691
C	 1.0683220882	-1.8838361392	-1.2194305523	-0.098329
O	-0.3460869921	-1.9104557865	-1.4555111495	-0.220387
C	 0.2885309301	-0.6429599838	-1.3919728422	-0.034866
H	 0.8202073518	 2.0403378778	-0.4502154065	 0.132846
H	-0.9421552314	 1.8566336214	-0.4328688661	 0.141734
H	-0.0412201297	 1.8689372159	 1.0947683899	 0.143007
H	 1.2537277305	-0.4500057968	 1.9099774746	 0.116963
H	 1.6981440409	-2.3483887534	-1.9726422934	 0.121451
H	 0.2990483742	-0.0547671669	-2.3053708578	 0.111586
