20
gdb 103614	2.69079	1.20358	1.07159	2.5013	77.16	-0.2397	0.0281	0.2679	1254.9442	0.168971	-440.311366	-440.301071	-440.300127	-440.346635	36.457	
C	 0.0493638032	 1.5909706167	 0.0146721309	-0.404988
C	 0.0220577452	 0.060043149	-0.0541366184	-0.226415
C	-1.3961091542	-0.5069527093	-0.0558139785	 0.268705
O	-2.155265617	-0.064864953	-1.1655562862	-0.483239
C	-1.520812004	-2.0480860661	 0.1500166552	-0.219007
N	-2.1839458403	-1.7617917575	 1.4280345671	-0.082439
C	-2.7874222303	-2.6178475114	 2.4157142065	-0.344521
C	-2.1731873008	-0.4025989664	 1.2888751871	 0.360449
O	-2.6335542903	 0.4973930801	 1.9501803283	-0.395766
H	 1.077884535	 1.9612431383	 0.0449836629	 0.114709
H	-0.4320744807	 2.0275495705	-0.8660507708	 0.116625
H	-0.4732578774	 1.9528004951	 0.9050857596	 0.145912
H	 0.5275166541	-0.2861820385	-0.9643444104	 0.104766
H	 0.5687208648	-0.3640028723	 0.7974143363	 0.09963
H	-2.5380240042	 0.7877235834	-0.9295601083	 0.296675
H	-2.1676140426	-2.5289963951	-0.5902497833	 0.11947
H	-0.5782010627	-2.5975293481	 0.2477499326	 0.106512
H	-2.0455419409	-3.2762984473	 2.8831961668	 0.129826
H	-3.2281070741	-1.9791728514	 3.184957168	 0.161743
H	-3.5772809431	-3.2407497669	 1.9779316848	 0.131355
