15
gdb 21160	3.39698	1.87595	1.23935	4.4348	64.76	-0.1993	0.0205	0.2198	943.1439	0.120894	-392.14547	-392.137486	-392.136542	-392.178048	28.397	
C	 0.1813310297	 1.4512336719	 0.1230616545	-0.340318
N	-0.2103134394	 0.074029312	-0.1376908228	-0.389451
C	 0.4914389456	-0.66799793	-1.0615300499	 0.400554
C	 0.6949935744	-2.0360092853	-1.1319567672	 0.162253
N	 0.2526109624	-2.9707751776	-0.1676473195	-0.611139
N	 1.4117429076	-2.3086636706	-2.2564103628	-0.230799
N	 1.6787580272	-1.2085694487	-2.8909148477	-0.146946
N	 1.1065617127	-0.1950536686	-2.1691592933	-0.256393
H	 1.2420240729	 1.5654783538	 0.3943045367	 0.123852
H	-0.0181364585	 2.0742219127	-0.7562044371	 0.129215
H	-0.4308481663	 1.8425950953	 0.9380244962	 0.139406
H	-0.37647621	-0.4811939196	 0.6923106398	 0.254391
H	-0.5687404545	-3.4763135389	-0.4890548459	 0.244541
H	 0.972502315	-3.6665011116	 0.0012929861	 0.247653
H	 1.1918019111	 0.7515061352	-2.4985620071	 0.273183
