16
gdb 52830	2.73341	0.99374	0.95314	4.6145	74.3	-0.255	-0.0033	0.2518	1342.2613	0.122776	-437.873521	-437.863878	-437.862934	-437.910316	32.928	
C	 0.0063521369	 1.5067470004	-0.0632955767	-0.499811
C	 0.038916921	 0.0528219985	-0.0165049158	 0.041518
C	 0.0557554281	-1.1516186923	 0.0196043537	 0.05778
C	 0.0998479849	-2.6063528491	 0.0365514819	-0.073255
N	 1.0551054121	-3.2259311382	-0.8833707026	-0.557572
C	 0.0683425826	-3.2676451642	 1.4421634095	-0.082184
O	-1.243207118	-3.8544157202	 1.1540013622	-0.237687
C	-1.2811682882	-3.3112885469	-0.0937862011	 0.457067
O	-2.1143097206	-3.4231668913	-0.9312429168	-0.326578
H	 0.7620167463	 1.8981648242	-0.7529254598	 0.153553
H	-0.9713443804	 1.866698696	-0.4012203786	 0.159877
H	 0.1988843879	 1.9402673477	 0.9239715978	 0.153918
H	 0.6951810803	-3.1308051232	-1.829938475	 0.25122
H	 1.9294841224	-2.7077507673	-0.8588285241	 0.238235
H	 0.8176303352	-4.0466179506	 1.585407975	 0.134103
H	 0.0080906597	-2.5877886534	 2.2921695701	 0.129817
