16
gdb 130373	3.33033	1.11379	0.83722	1.7605	81.	-0.1759	0.0061	0.182	1313.8521	0.126637	-430.268096	-430.259293	-430.258349	-430.301817	32.457	
N	-0.0868466469	 1.3503611892	 0.0824059862	-0.507254
C	-0.0869738107	-0.0162619883	 0.0685617682	 0.114305
N	-1.1648825295	-0.6914653611	-0.0625506663	-0.36123
C	-1.1051406897	-2.0797045343	-0.0351540441	 0.378045
N	 0.0075102704	-2.8191528988	-0.1065296236	-0.317593
N	-0.4336459916	-4.0865494521	-0.055940593	-0.199885
C	-1.7908100568	-4.1863700198	 0.0428190904	-0.099601
C	-2.2683153095	-2.8917012419	 0.0577511749	 0.104424
N	-3.5775132518	-2.4115203253	 0.2134369604	-0.619526
H	 0.7755664175	 1.8284731401	-0.1158460913	 0.258079
H	-0.9300275737	 1.8042253202	-0.2355909292	 0.256688
H	 0.8955528805	-0.4726608064	 0.2189069156	 0.124147
H	 0.2289949857	-4.8366040594	-0.1386794665	 0.267562
H	-2.2904073183	-5.1400971832	 0.0955872006	 0.119703
H	-4.2465112085	-2.8730315568	-0.3902452218	 0.235949
H	-3.5898350572	-1.4142076921	 0.0290295795	 0.246187
