21
gdb 95514	2.1626	1.70914	1.22971	1.5791	80.27	-0.2477	0.0186	0.2663	1115.49	0.181176	-424.236416	-424.227075	-424.226131	-424.269642	36.362	
C	-0.1021847757	 1.5144707755	-0.0698768459	-0.422662
C	 0.0386374148	 0.0039442592	 0.0197054419	 0.115522
O	 0.6977797623	-0.4408308567	-1.1604267524	-0.266654
C	 0.6329875707	-1.8409872285	-1.3424308016	-0.12399
C	 0.9268621176	-2.6081980135	-0.0849490983	-0.087389
C	 1.0215674319	-1.9988135405	 1.0921784324	-0.095541
C	 0.8071624668	-0.5080721209	 1.2620101552	 0.326382
C	 2.145387623	 0.2082216969	 1.4810174564	-0.439443
O	-0.0792186603	-0.2681481834	 2.3628476031	-0.474714
H	 0.867279007	 1.9892101765	-0.2437926438	 0.122219
H	-0.7602610915	 1.7785632627	-0.9018421242	 0.117206
H	-0.5295846269	 1.903655719	 0.857164485	 0.132171
H	-0.964625784	-0.4475736325	 0.0796507311	 0.076338
H	-0.3599270058	-2.1352220115	-1.7315817279	 0.099479
H	 1.3619148992	-2.0845631622	-2.1249103884	 0.115306
H	 1.0435188785	-3.6848509767	-0.179692121	 0.093008
H	 1.2424494194	-2.5590951993	 1.9990767768	 0.078791
H	 2.7504980887	 0.1691699509	 0.5715939897	 0.135182
H	 1.9840888532	 1.2529190563	 1.7606071837	 0.121964
H	 2.7131316301	-0.2781579942	 2.2832018558	 0.100351
H	 0.391727651	-0.4816522571	 3.1753156628	 0.276474
