20
gdb 62695	3.12039	1.6551	1.40192	1.2239	84.97	-0.2081	-0.041	0.1671	1008.0996	0.170129	-365.892701	-365.884782	-365.883838	-365.924292	32.523	
C	 0.235924705	 1.3979704153	 0.3116426532	-0.449402
C	-0.024986672	-0.0910130828	 0.1303885532	 0.267526
C	-1.5282133639	-0.3771194638	 0.077129172	-0.430144
C	 0.6705003131	-0.8642889794	-1.0926086022	-0.068628
C	 0.9086035027	-2.0627143543	-0.2728562063	-0.09126
N	 2.0497862599	-1.5203364761	-0.980373666	-0.134163
C	 3.000083119	-1.129531667	 0.1011566403	-0.175841
C	 2.0860855752	-0.7010474815	 1.2443581098	-0.131544
C	 0.8365994665	-1.100613948	 0.9367330688	-0.020733
H	 1.2978304367	 1.6411515797	 0.2253437019	 0.115138
H	-0.3083503067	 1.9695853806	-0.4484899056	 0.115343
H	-0.1127161332	 1.7434887044	 1.2913814871	 0.121749
H	-1.9974424153	 0.1466916995	-0.7636734561	 0.112213
H	-1.7336390487	-1.4455382757	-0.0281130225	 0.121026
H	-2.0103094141	-0.0284042815	 0.9963935906	 0.121195
H	 0.3012185145	-0.8103517685	-2.1128777668	 0.101415
H	 0.570701102	-3.087807579	-0.3661265631	 0.090249
H	 3.6624542401	-1.9897567384	 0.2639336187	 0.117347
H	 3.6279365492	-0.2790508187	-0.1903354012	 0.11645
H	 2.3022587901	 0.2039143953	 1.8033395941	 0.102064
