23
gdb 68921	2.19501	1.74755	1.22154	1.1775	85.21	-0.2191	0.0822	0.3012	1144.3592	0.206115	-388.292292	-388.283248	-388.282304	-388.325267	36.056	
C	-0.0101904061	 1.5495241935	-0.1046315091	-0.470716
C	 0.016895931	 0.0343518432	-0.0160735622	 0.276106
C	 1.3535558761	-0.6787999837	-0.2164723	-0.39643
C	 0.7046002657	-0.6645769142	 1.1457997575	 0.400558
C	 1.3420817207	 0.0925257096	 2.2864334892	-0.444729
O	 0.1648699509	-1.8487395239	 1.6877465541	-0.296272
C	-0.7065096579	-2.6025769725	 0.8639913451	-0.078358
C	-1.8166318232	-1.7308172583	 0.2908290282	-0.204169
C	-1.2307094767	-0.6367606206	-0.6128142087	-0.279583
H	 0.918353546	 2.0089346955	 0.2428869758	 0.112956
H	-0.1584404576	 1.862555392	-1.1456098317	 0.114753
H	-0.8335794169	 1.9701389015	 0.485065149	 0.114697
H	 1.3521636825	-1.6015829718	-0.7880628812	 0.106225
H	 2.2433944381	-0.0732687343	-0.3602119936	 0.10187
H	 1.8753672088	 0.9798775064	 1.9419378082	 0.113023
H	 0.5870857047	 0.3992106075	 3.0176647181	 0.118683
H	 2.0582505015	-0.5590567086	 2.7971151618	 0.125339
H	-0.1496571896	-3.1007854307	 0.0529144742	 0.086505
H	-1.1083650823	-3.3874848837	 1.5114350658	 0.105056
H	-2.5321171415	-2.3470994134	-0.2646255223	 0.093194
H	-2.3573646754	-1.2764297588	 1.1296114434	 0.104409
H	-1.9934162724	 0.1277549236	-0.7949429923	 0.097337
H	-0.9864328564	-1.0608047481	-1.5950605692	 0.099547
