15
gdb 2225	3.567	2.89379	2.17424	1.1851	56.7	-0.2425	0.0728	0.3153	658.6981	0.124619	-345.61258	-345.605747	-345.604803	-345.642809	26.109	
O	-0.240705444	 1.4418809628	-0.028666047	-0.423899
C	-0.1712433822	 0.0437619827	 0.0093044391	 0.029593
C	-0.491012294	-0.7758476083	 1.2391130997	-0.169668
C	-1.5875773156	-0.0820876623	 2.0568302731	-0.215456
C	-2.5326662389	-0.1107376476	 0.8132755908	-0.283715
C	-1.4142582182	-0.7776547026	 0.0042973171	 0.362676
O	-1.6208078392	-1.8067821058	-0.8988491935	-0.45945
H	 0.4828991922	 1.7910358611	 0.5025253248	 0.287199
H	 0.6210624532	-0.392791358	-0.6012217077	 0.086468
H	 0.1907834183	-1.5363981269	 1.6015531532	 0.089374
H	-1.956335224	-0.6945687664	 2.8814330156	 0.104158
H	-1.3336493158	 0.9110632033	 2.436487507	 0.094574
H	-3.3738917721	-0.7922707035	 0.9544601418	 0.107655
H	-2.895460058	 0.8503854119	 0.440393267	 0.104244
H	-1.7000236018	-1.4247073102	-1.780118461	 0.286247
