23
gdb 57044	2.33886	1.24541	0.92774	0.5636	91.24	-0.255	0.0561	0.3111	1364.7419	0.204235	-351.11993	-351.109815	-351.10887	-351.154681	38.482	
C	-0.056706537	 1.5560109666	 0.0344693063	-0.395885
C	 0.0530218664	 0.0223010416	-0.0911973141	-0.184704
C	 0.7879643551	-0.3511200918	-1.3000520407	 0.338051
C	 1.415065019	-0.6497809097	-2.2821898871	-0.480808
C	 0.7067382285	-0.5913330979	 1.1574916686	 0.064756
C	-0.0173617753	-0.4620321472	 2.5255939861	-0.24813
C	 0.4804930819	-1.8895197445	 2.8765456359	-0.227349
C	 0.7549692241	-2.1429522818	 1.3632792572	 0.001934
C	-0.3418357188	-2.947718857	 0.6689200048	-0.403322
H	 0.9360649785	 2.0076609809	 0.1236243216	 0.124124
H	-0.5466056871	 1.9861571916	-0.8429219347	 0.123243
H	-0.6380688074	 1.823287176	 0.9218903677	 0.118716
H	-0.9657533504	-0.3797345405	-0.1783086457	 0.099869
H	 1.9589259565	-0.9167028033	-3.1541417025	 0.192245
H	 1.7236111271	-0.191093337	 1.239408966	 0.075723
H	 0.2824385256	 0.3579260923	 3.1823642236	 0.096167
H	-1.1056276071	-0.4262896092	 2.4082486475	 0.098052
H	 1.4002374976	-1.8688946175	 3.4674838046	 0.098379
H	-0.2303416075	-2.5612046148	 3.365716012	 0.092778
H	 1.7256252024	-2.5922736436	 1.1354272378	 0.068831
H	-1.3418119709	-2.563709761	 0.9014898381	 0.108867
H	-0.2200255911	-2.9353734182	-0.4185960924	 0.128167
H	-0.3111976001	-3.9915409139	 0.9997738793	 0.110295
