21
gdb 105478	2.04695	1.21335	0.89474	1.4305	87.95	-0.2411	0.0432	0.2843	1425.694	0.180101	-387.04831	-387.03787	-387.036926	-387.085046	36.903	
C	 0.1262066734	 1.5127667909	 0.0741277311	-0.252937
O	 0.1419375753	 0.1051260964	 0.2038823453	-0.270612
C	-1.1105327433	-0.5201943418	 0.0135576958	 0.246801
C	-1.6673160476	-0.5598959211	-1.455323257	-0.268006
C	-1.9373881227	-2.0759219169	-1.2685279134	-0.212977
C	-0.9705675747	-2.0683964747	-0.0562785132	-0.266521
C	-2.1131385164	-0.0787612935	 0.9847540293	 0.098523
C	-2.9430677538	 0.2793702027	 1.7819741588	-0.005287
C	-3.9429789543	 0.7069588543	 2.7501730643	-0.500007
H	 1.152691364	 1.8540053855	 0.2266332989	 0.123693
H	-0.2062005435	 1.8266459964	-0.9266115631	 0.104034
H	-0.5264021235	 1.9832396561	 0.8212520293	 0.116327
H	-2.5100728743	 0.0894841304	-1.6969771225	 0.101449
H	-0.8465693648	-0.3765434679	-2.1544085736	 0.10724
H	-2.9690643201	-2.2702268604	-0.9664258648	 0.111065
H	-1.686863038	-2.7337196457	-2.1025226097	 0.100418
H	 0.0547259903	-2.3125627181	-0.344482692	 0.112955
H	-1.2459710727	-2.6319176227	 0.8359475337	 0.105704
H	-4.616676231	-0.1164620254	 3.0120357301	 0.149805
H	-3.4730253389	 1.0550420947	 3.6765627846	 0.151041
H	-4.5566132631	 1.526477341	 2.3599207783	 0.147293
