16
gdb 42493	5.92726	0.66956	0.63946	2.6208	79.65	-0.2341	-0.0654	0.1687	1688.427	0.120511	-400.671955	-400.662017	-400.661073	-400.707961	34.802	
O	 0.3694338253	 0.0745906642	 0.3344836039	-0.288
C	 0.1783802376	 1.2244402926	 0.0022450608	 0.225307
C	 1.244745568	 2.0513809614	-0.7301236822	-0.270476
N	 2.540486396	 1.4226597079	-0.8434901069	-0.281558
C	 3.2943898211	 1.403378622	 0.4194161907	-0.287942
C	 4.5666665211	 0.7082338894	 0.2615313191	 0.28171
C	 5.6043695182	 0.1161201571	 0.1374658984	-0.42364
C	-1.0837164471	 1.9025193542	 0.2354251632	 0.246963
C	-2.1084364522	 2.5105692294	 0.4085240358	-0.393107
H	 0.8411344447	 2.2669645649	-1.7303161392	 0.140129
H	 1.3379724665	 3.0263581619	-0.2353251698	 0.133916
H	 2.4218113019	 0.4646337321	-1.1591511485	 0.235184
H	 3.4834346946	 2.4455034444	 0.7112591445	 0.131795
H	 2.7360266652	 0.9380082699	 1.2479978924	 0.132749
H	 6.5252357601	-0.4010877967	 0.0283427866	 0.197843
H	-3.0231481109	 3.0274368953	 0.5720727313	 0.219128
