21
gdb 95782	2.23089	1.61215	1.00156	2.6137	79.01	-0.2287	-0.0192	0.2095	1228.5491	0.182026	-424.262427	-424.253159	-424.252215	-424.296367	34.822	
C	-0.0264923654	 1.5880712969	-0.0383428412	-0.399164
C	 0.1051126559	 0.0670203454	 0.0055285657	-0.089864
C	 0.7526927497	-0.5311723294	-1.2612317711	-0.207299
C	 0.9791772908	-2.0315008512	-1.0985252665	-0.082579
O	 1.7870700817	-2.3053127203	 0.0322942477	-0.25556
C	 1.1811972779	-1.9225502111	 1.264976186	 0.032159
C	 2.1171797982	-2.3112167713	 2.3945113272	-0.398345
C	 0.8531404394	-0.4171510149	 1.2483064956	 0.377193
O	 1.1500872382	 0.3144612543	 2.1635388541	-0.310173
H	 0.957029565	 2.0601373223	-0.1248524084	 0.126105
H	-0.6313051202	 1.8961993525	-0.8967012447	 0.10799
H	-0.4911757162	 1.9680863113	 0.8738134328	 0.132186
H	-0.8992094707	-0.3804558601	 0.0925528568	 0.095795
H	 0.1212633192	-0.333062094	-2.1355112619	 0.100605
H	 1.7191392862	-0.0443619192	-1.4405241875	 0.113707
H	 0.01193518	-2.5574891993	-1.0120947248	 0.085286
H	 1.510790433	-2.4474494546	-1.9592572226	 0.11124
H	 0.2171237921	-2.4574117553	 1.3727460919	 0.076836
H	 3.0709661686	-1.7879053475	 2.2924743473	 0.132966
H	 1.6815328457	-2.038096671	 3.3573677704	 0.131821
H	 2.2999143109	-3.3880997035	 2.3708563632	 0.119095
