16
gdb 37031	3.07695	1.83176	1.51878	0.9312	67.98	-0.2231	0.0093	0.2324	887.8663	0.126115	-437.835108	-437.828333	-437.827388	-437.86633	26.738	
C	-0.041135105	 1.3702434409	 0.0590751706	-0.369799
C	 1.3234352902	 0.7489631879	 0.0309678675	 0.339726
C	 2.2733840922	 0.6560238935	 1.1809383174	-0.159387
O	 1.6404535175	 0.0119924851	 2.3243230015	-0.238999
C	 0.5673921895	-0.7996775883	 2.1692922716	 0.115953
N	-0.2120967416	-0.9559016366	 1.173917809	-0.337765
C	 0.1167919528	-0.1397488302	 0.0605372697	 0.23847
C	 0.5785729967	-0.6191816876	-1.3133479315	-0.137808
O	 1.6869063716	 0.3396445654	-1.2934567711	-0.330947
H	-0.3630047039	 1.7866151559	 1.0081011473	 0.132649
H	-0.4025617653	 1.885491914	-0.8258152211	 0.122196
H	 3.1304461302	 0.0462174856	 0.8765310272	 0.137347
H	 2.6370917025	 1.6115723718	 1.5688348374	 0.12681
H	 0.399517572	-1.3512071439	 3.0919070254	 0.131224
H	 0.9566135845	-1.6466896042	-1.3048964405	 0.119453
H	-0.087138214	-0.4678810894	-2.1700213403	 0.110875
