15
gdb 17940	3.44607	2.39725	2.13464	1.9203	65.41	-0.2199	0.0075	0.2274	708.0673	0.120668	-362.610707	-362.604696	-362.603752	-362.640294	25.107	
O	-0.1144658718	 1.4074770464	-0.0200587832	-0.460551
C	 0.0306434622	 0.0441566641	-0.0014840757	 0.371464
C	-1.0059695215	-1.006673711	 0.010727288	-0.074106
N	-0.4919181331	-1.6678337806	-1.1560411317	-0.289098
C	 0.8114359961	-0.8831107424	-1.0240602822	-0.120925
C	 1.7594247131	-1.6845585715	-0.1801735576	-0.128892
C	 1.2946401552	-1.7157572727	 1.0847154846	-0.071124
C	 0.1016692994	-0.8637540913	 1.1989899707	-0.195303
H	 0.6542913966	 1.7996491661	 0.4105864258	 0.289529
H	-2.0557543982	-1.0001575345	 0.2763157435	 0.109711
H	-0.3498565336	-2.6740247812	-1.0471015928	 0.210465
H	 1.1600911937	-0.476002424	-1.9725379688	 0.078999
H	 2.5920965723	-2.2520648943	-0.5764646057	 0.095572
H	 1.6823161275	-2.3238245352	 1.8933097608	 0.09747
H	-0.3147708381	-0.5323117779	 2.1426205341	 0.08679
