17
gdb 14417	3.15571	2.24606	1.74778	2.3173	67.71	-0.2293	0.0686	0.2979	814.1869	0.142527	-363.792067	-363.784957	-363.784013	-363.822938	27.852	
C	-0.1974576887	 1.562140609	-0.0637479681	-0.533879
C	 0.0463754408	 0.0973225171	 0.0383561802	 0.375008
C	 0.6900100999	-0.9083417472	-0.8418601033	-0.093597
C	 1.4463207706	-1.5327539736	 0.3234783758	 0.126558
O	 2.7065557102	-0.9013622674	 0.4227777099	-0.443994
C	 0.3457424135	-0.9094683879	 1.228138326	-0.176314
C	-0.9100405425	-1.6493077572	 0.756509325	-0.16184
N	-0.792691645	-0.9721198806	-0.5800411651	-0.193378
H	 0.7003500642	 2.1263709516	 0.2095808289	 0.131342
H	-0.4689971244	 1.8231772278	-1.091300089	 0.135798
H	-1.0144318463	 1.8812440571	 0.5932711398	 0.122223
H	 1.0023372653	-0.8311895512	-1.8751971168	 0.098871
H	 1.5460768001	-2.6284435231	 0.3582506804	 0.060098
H	 3.117842084	-1.1911689335	 1.2433447141	 0.283753
H	 0.5585553309	-0.67865373	 2.2717743609	 0.067222
H	-0.8867301714	-2.7460052191	 0.7298126479	 0.093878
H	-1.8343610512	-1.314851292	 1.2345241334	 0.108252
