19
gdb 94015	3.39219	1.00209	0.91416	3.0648	78.42	-0.2414	-0.0311	0.2102	1314.4667	0.159171	-423.044956	-423.036138	-423.035194	-423.079087	32.771	
O	 0.0062998377	 1.4525250708	 0.073780239	-0.437069
C	 0.0531462072	 0.0297718652	 0.0028271692	 0.103274
C	-1.3857454219	-0.4702830721	 0.1096461691	-0.212321
C	-1.4839813458	-1.959924632	-0.2411339542	-0.258169
C	-0.9795157879	-2.2675871303	-1.6674618557	-0.106236
C	-2.0459524134	-1.9739187512	-2.719651716	 0.157611
O	-2.2940921736	-2.6880518458	-3.6556551244	-0.248835
C	 0.2519161283	-1.4596529853	-2.0124787334	-0.082832
C	 0.7011634085	-0.4442301392	-1.2763046604	-0.086233
H	 0.9092266666	 1.7856815904	 0.0530830193	 0.281653
H	 0.6333560047	-0.36360478	 0.8569228636	 0.074909
H	-1.7672831396	-0.2847571371	 1.1180440933	 0.106013
H	-1.9921523991	 0.1332940349	-0.5749780947	 0.11719
H	-0.8808725392	-2.5420602693	 0.4657462608	 0.110686
H	-2.5163215316	-2.3081876911	-0.1231865773	 0.107909
H	-0.7495455846	-3.3339157054	-1.7724537227	 0.099228
H	-2.5861405484	-1.0109428179	-2.5714748987	 0.080732
H	 0.7660405064	-1.7423976807	-2.9275958452	 0.106831
H	 1.6028460757	 0.0848830361	-1.5817532615	 0.085659
