13
gdb 8980	7.26914	0.89288	0.80185	1.6284	62.39	-0.2667	-0.0867	0.18	1289.5449	0.094469	-394.795658	-394.7873	-394.786355	-394.829764	27.954	
N	-0.0722435949	 1.374605546	-0.1265373307	-0.510718
C	-0.0261525836	 0.1029216843	-0.0326742911	 0.299274
N	-1.1587185	-0.6679322152	 0.0288849662	-0.336845
C	-2.4494943607	-0.0130838713	 0.1384895648	-0.253655
C	-3.535452326	-0.9776580247	-0.0327185933	 0.24854
N	-4.3879363547	-1.7476471759	-0.1499696035	-0.288089
C	 1.2650845996	-0.6898519689	-0.0249983424	 0.109282
O	 2.3405772015	-0.159136992	-0.091256672	-0.225715
H	 0.8812632389	 1.7298577595	-0.2172112517	 0.244064
H	-1.0846931987	-1.6091070259	 0.3816863125	 0.263147
H	-2.5727627839	 0.505518157	 1.1005673843	 0.166884
H	-2.5093244667	 0.7618381553	-0.6329169992	 0.192297
H	 1.1613482892	-1.7956268481	 0.044492966	 0.091534
