16
gdb 19712	3.59655	2.57318	2.49006	1.5607	65.97	-0.234	0.0085	0.2424	670.5386	0.133619	-346.567746	-346.562385	-346.561441	-346.596739	23.407	
C	-0.0266800055	 1.5417998118	 0.0978715017	-0.299009
C	 1.2925281879	 0.8213582934	-0.01709039	-0.040817
C	 0.0020139832	 0.0383266683	-0.0084729529	-0.040819
C	 0.0638585095	-0.6733005124	-1.4031339915	 0.008586
O	 1.4747410212	-0.9502733842	-1.5003648992	-0.246583
C	 1.8815257228	 0.4295981952	-1.4152743632	 0.008591
C	 1.0315698978	 1.0542747911	-2.5192602302	-0.081344
C	-0.1084896851	 0.362506565	-2.5116598824	-0.081337
H	-0.2686301349	 1.9513094087	 1.0746817904	 0.107067
H	-0.3897550076	 2.1310123328	-0.7356155151	 0.113884
H	 1.9731585389	 0.8012880951	 0.824972041	 0.093079
H	-0.2862616188	-0.5696336497	 0.8400617172	 0.093079
H	-0.5149221254	-1.5926860474	-1.4735330171	 0.076051
H	 2.96354639	 0.5179322126	-1.4967695839	 0.076052
H	 1.2879992154	 1.9356431086	-3.0908086577	 0.106761
H	-1.0142035893	 0.5387122111	-3.0754571971	 0.106761
