17
gdb 84234	2.9577	1.59149	1.3663	4.3594	74.02	-0.2061	-0.0527	0.1534	998.3643	0.134165	-417.861105	-417.853083	-417.852139	-417.893187	31.504	
C	-0.0710628247	 1.5125841734	-0.0224417835	-0.371294
C	 0.0156549467	-0.0074744977	-0.0095723094	 0.034465
N	 0.8973514514	-0.4055007779	-1.183947367	-0.237429
C	 1.642209658	-1.2703689455	-0.6409462849	 0.22263
O	 2.9757859478	-0.9928866801	-0.2866747557	-0.265834
C	 2.3790104457	-1.0267124547	 1.0800312622	 0.008984
C	 0.7949516638	-0.6124421537	 1.19372284	-0.140635
C	 1.2771443104	-1.9383168953	 0.7468652474	 0.215572
N	 0.8215410707	-3.2469054697	 1.0230260405	-0.624441
H	 0.930135646	 1.9511280767	-0.0293786225	 0.132286
H	-0.605716114	 1.860950489	-0.9094439141	 0.129949
H	-0.6055186641	 1.8602129918	 0.8696796975	 0.106371
H	-0.9954989636	-0.4401575374	-0.0489541541	 0.09117
H	 3.0868475649	-0.9238337803	 1.89439628	 0.126663
H	 0.4606552911	-0.4471066355	 2.2183492088	 0.087718
H	 1.5690284697	-3.9311620316	 0.9700994549	 0.244259
H	 0.3982640702	-3.3047470312	 1.9422967898	 0.239566
