18
gdb 124748	2.47786	1.47322	0.9699	2.1911	74.29	-0.2038	0.0286	0.2324	1196.7306	0.149029	-435.278632	-435.269491	-435.268546	-435.312659	33.809	
C	 0.2476613328	 1.3550562403	-0.3393421753	-0.406971
C	 0.0377874157	-0.0550475809	 0.2121291466	 0.000052
O	 0.3672552675	-0.1361809102	 1.601896342	-0.431825
C	-1.3647951189	-0.5613057607	-0.0132916303	 0.33017
C	-2.2207910731	-0.5705291434	-1.1068893794	 0.036066
N	-1.9655470365	-0.0150365628	-2.3879876524	-0.61185
C	-3.3903648409	-1.2101075351	-0.6347490029	-0.056478
N	-3.2810847764	-1.5753614291	 0.6418260933	-0.238692
N	-2.0446353389	-1.1851883978	 0.9837875237	-0.242905
H	 1.2897865759	 1.659291453	-0.2097991129	 0.119355
H	-0.0221291827	 1.4000934677	-1.3970866859	 0.149991
H	-0.3987732717	 2.0664268435	 0.1888447348	 0.113262
H	 0.7519493181	-0.7346542582	-0.2723646935	 0.105847
H	-0.0071638616	 0.6426590861	 2.0293757041	 0.283099
H	-1.288433298	-0.5617823846	-2.9107038003	 0.241577
H	-2.8143823986	 0.015785217	-2.9405114963	 0.240208
H	-4.3058032311	-1.4044309971	-1.1767229335	 0.098844
H	-1.6774209817	-1.3702650878	 1.9021787382	 0.27025
