23
gdb 119456	4.63066	0.76387	0.72867	1.1336	86.41	-0.2441	0.081	0.3251	1649.945	0.205128	-388.26282	-388.252986	-388.252041	-388.297723	36.986	
C	-0.1766266817	 1.5929150029	 0.1648860924	-0.404124
C	 0.0290254626	 0.0848208779	 0.0871268163	 0.043193
C	 1.0325433924	-0.5009823208	-0.9670550099	-0.316629
C	 1.767986502	-1.2471923188	 0.1620244733	 0.390098
C	 2.2992791808	-2.6499115753	 0.0621081643	-0.306999
C	 3.5688345025	-2.7418683042	-0.7808477627	-0.065786
O	 3.9621595887	-4.1055894433	-0.8293826573	-0.420156
C	 2.2820144853	-0.2380249564	 1.1544114186	-0.3282
C	 0.8257885142	-0.6214743644	 1.1956189888	-0.133844
H	 0.7715778969	 2.1259205257	 0.2907841437	 0.112874
H	-0.6505149031	 1.9720857904	-0.7475556303	 0.111188
H	-0.8213322387	 1.8586870299	 1.0101594064	 0.112864
H	-0.9428853458	-0.4041481061	-0.0346324564	 0.072453
H	 0.547193426	-1.168106869	-1.6845277956	 0.098359
H	 1.6305502295	 0.2295436352	-1.5237919975	 0.087933
H	 2.5183488969	-3.0429464969	 1.0622486662	 0.102343
H	 1.5453430352	-3.3146025867	-0.3790164371	 0.101541
H	 3.3730176327	-2.3476307586	-1.7914173984	 0.086292
H	 4.354046116	-2.1125210594	-0.3325320377	 0.087169
H	 4.7606822078	-4.1694254274	-1.3610534436	 0.284048
H	 2.8818141291	-0.647589055	 1.9619946347	 0.106947
H	 2.5949689934	 0.7536108755	 0.8350818275	 0.100145
H	 0.3935739972	-1.0784715151	 2.0794449443	 0.078291
