19
gdb 81851	2.75186	1.43267	1.07395	1.5298	77.25	-0.2238	0.0145	0.2382	1153.8932	0.157924	-423.015779	-423.006804	-423.00586	-423.048824	34.699	
C	 0.0567707742	 1.5082183396	 0.0560637319	-0.507882
C	-0.0223351697	 0.0177938644	-0.0236246297	 0.313142
C	-0.1052851483	-0.7489075028	-1.1128577665	-0.267963
C	-0.0561465771	-2.2087646048	-0.7774365012	 0.369216
O	-0.8904144607	-3.1035337811	-1.4490546439	-0.46969
C	 1.239922593	-2.6819858231	-0.1558377872	-0.332455
C	 0.071290122	-2.2666891954	 0.7209051731	-0.090632
C	 0.0500006938	-0.8394878102	 1.2443977337	-0.007067
O	 1.2211085604	-0.5842758907	 2.0224166575	-0.428989
H	 1.001240104	 1.828176793	 0.5154658272	 0.125488
H	-0.0054421203	 1.9713229304	-0.9320349173	 0.128955
H	-0.7524700636	 1.9184121875	 0.675290474	 0.12246
H	-0.1597367988	-0.3894778992	-2.1359346638	 0.087491
H	-0.4432742773	-3.3768599838	-2.2569099288	 0.283197
H	 1.4320452577	-3.7498745734	-0.1903700785	 0.108192
H	 2.1158515521	-2.0454695244	-0.2038715	 0.121635
H	-0.4345804216	-3.0442895631	 1.2783859565	 0.09429
H	-0.8444812551	-0.6741780717	 1.8682049501	 0.067594
H	 1.1246225452	 0.2844073988	 2.425359303	 0.283019
