18
gdb 70053	3.76964	1.12262	0.96688	2.8937	82.09	-0.2362	-0.0534	0.1828	1235.1883	0.147446	-401.953006	-401.944831	-401.943887	-401.985685	31.157	
C	-0.0269367211	 1.5087752392	 0.0276331783	-0.473559
C	 0.0020819724	 0.0017144715	-0.018475972	 0.336731
C	-0.8033140369	-0.7881332018	 0.9476421288	-0.27747
N	 0.6779065122	-0.694897959	 1.1235990019	-0.139123
C	 1.3381455843	-1.7943194639	 0.5299681264	-0.119901
C	 1.2628962228	-1.8444454681	-0.8135502173	 0.214694
C	 0.4338145947	-0.683305607	-1.3220213234	-0.405596
C	 1.8726426004	-2.8629678523	-1.654123368	 0.067763
O	 1.7577915425	-2.9106861251	-2.8618483695	-0.284061
H	 0.9271810173	 1.9258219078	-0.3112366306	 0.127853
H	-0.8158417648	 1.8970541499	-0.6259346569	 0.125985
H	-0.2145343598	 1.8667671217	 1.0431685317	 0.129771
H	-1.3775506999	-0.2735259539	 1.7123155443	 0.126003
H	-1.1973141296	-1.7532105257	 0.6407927882	 0.12535
H	 1.8484348171	-2.4974403896	 1.1794835275	 0.125179
H	-0.4036375804	-1.0121054688	-1.9459207792	 0.131243
H	 1.032501951	-0.0024956197	-1.9391433982	 0.124643
H	 2.4684896678	-3.6246297454	-1.1027830618	 0.064495
