16
gdb 50138	3.89033	1.16327	0.96349	3.2802	74.34	-0.2596	-0.0342	0.2254	1187.3077	0.125099	-434.05478	-434.046635	-434.045691	-434.087933	29.522	
N	-0.1220803011	 1.1365876871	-0.5766014323	-0.555808
C	-0.0567181607	-0.0806740555	-0.2688633858	 0.34413
N	 0.9808521487	-1.0263812847	-0.0574556304	-0.126873
C	 0.0594381103	-2.1653208833	 0.1662936407	-0.253535
C	-1.085183917	-1.1478620551	-0.0183774984	 0.252763
C	-2.3947155277	-0.9858700743	 0.6493098324	-0.2906
N	-2.3083533437	-1.3621130213	-0.7706722707	-0.353985
C	 2.3401546182	-0.9008980116	-0.1027056436	 0.138765
O	 2.912582665	 0.1408275674	-0.3355612928	-0.303998
H	 0.8085395157	 1.5400107071	-0.6894454467	 0.254537
H	 0.1106820598	-2.9324612642	-0.6104584427	 0.140222
H	 0.1475048667	-2.6153387327	 1.1585631367	 0.131723
H	-2.7627630464	-1.76888571	 1.3063719936	 0.129882
H	-2.6916627956	 0.0260450956	 0.9108695093	 0.14311
H	-2.478690152	-0.5516472399	-1.3640308436	 0.256086
H	 2.8612453498	-1.8567903247	 0.0980262942	 0.093582
