19
gdb 35573	2.6378	1.59635	1.30984	3.3542	78.24	-0.2297	0.0127	0.2424	1035.8357	0.162458	-382.07355	-382.065933	-382.064989	-382.105869	29.68	
N	-0.6501490766	-0.9560573338	-0.8922746054	-0.338853
C	-0.4153273668	 0.1054574454	-0.4968770693	 0.276714
C	-0.108925076	 1.4459154545	-0.0018089748	-0.095339
C	-0.1579953843	 1.6247843668	 1.5454141663	-0.275535
C	 1.33915084	 2.0126449096	 1.4766708007	 0.046304
C	 2.3734082856	 1.0034054041	 2.0120243074	-0.22773
C	 2.5781732486	 0.0130839452	 0.8476913362	-0.227085
C	 2.3481471732	 0.8965425044	-0.3971247672	-0.178402
N	 1.3243024896	 1.8828506518	-0.0230894798	-0.108696
H	-0.7395172146	 2.1512622118	-0.5544093812	 0.128051
H	-0.837572566	 2.4086939982	 1.8819460971	 0.119991
H	-0.369988806	 0.7065253802	 2.0956846854	 0.126465
H	 1.5549182859	 3.0318387136	 1.8094667526	 0.080907
H	 3.3105618665	 1.5235528584	 2.2372593725	 0.106759
H	 2.0395789621	 0.5207888087	 2.9350670496	 0.106483
H	 3.5659452037	-0.4547932993	 0.8596173716	 0.103378
H	 1.8345566261	-0.789682995	 0.8810172264	 0.123797
H	 3.2640454043	 1.4413722618	-0.6564586575	 0.105256
H	 2.0383122945	 0.3325213637	-1.2802247905	 0.127537
