17
gdb 93466	2.89361	1.36266	0.96233	1.7888	69.98	-0.2525	-0.0284	0.2241	1171.7987	0.138454	-455.226174	-455.217983	-455.217039	-455.259162	30.801	
N	 0.011601736	 1.4848629966	 0.1626245082	-0.510208
C	-0.0177065416	 0.0409728983	-0.0138681098	-0.080464
C	-1.4460193127	-0.5074208514	-0.0065455024	-0.22873
C	-1.4397148271	-2.0312343859	-0.1501501194	-0.328432
C	-0.6428990186	-2.5218035094	-1.3463405507	 0.415971
O	-0.8428032601	-3.570615307	-1.9115688285	-0.336033
N	 0.3841121389	-1.6743902059	-1.7669629556	-0.360885
C	 0.7411876947	-0.4277459467	-1.2657143805	 0.400362
O	 1.6155721557	 0.2259193278	-1.7887505993	-0.346955
H	 0.9612712526	 1.8051667143	-0.0142207903	 0.244921
H	-0.5499129806	 1.9190248827	-0.5670834037	 0.228055
H	 0.5209166311	-0.4090687522	 0.8353228782	 0.115381
H	-1.9412202973	-0.2081011586	 0.9204438162	 0.128835
H	-2.0124637689	-0.056620257	-0.8323479708	 0.111012
H	-0.9908566212	-2.4911022088	 0.7408195368	 0.141093
H	-2.4450508786	-2.4468796021	-0.2425001471	 0.142126
H	 0.9114956677	-1.9953101948	-2.5714995614	 0.263951
