16
gdb 14665	5.61276	0.62906	0.58844	1.429	78.09	-0.2424	0.032	0.2744	1869.6309	0.127153	-346.538652	-346.528447	-346.527503	-346.577309	32.925	
C	 0.0339862459	 1.4818942407	-0.259199314	-0.495858
C	 0.0086765034	 0.0444616524	-0.030079537	 0.063407
C	-0.0156390165	-1.1433747333	 0.1568014644	 0.08616
C	-0.0378724145	-2.5898298013	 0.387460677	-0.49722
C	-1.3725273563	-3.1853293307	 0.2916478176	 0.087019
C	-2.4629794655	-3.6850200666	 0.2082170689	 0.098802
C	-3.7937055358	-4.2727927309	 0.1282504779	-0.21414
O	-3.8592710522	-5.1645576142	-0.9788725157	-0.409262
H	 0.6904331877	 1.7405532356	-1.0973171874	 0.147866
H	-0.9664447725	 1.8623925369	-0.4928626567	 0.149947
H	 0.3953720002	 2.0206511847	 0.623665659	 0.147021
H	 0.6249109487	-3.0878160136	-0.3343268271	 0.160442
H	 0.3894137403	-2.8113942417	 1.3756618233	 0.155007
H	-4.0144207185	-4.7957890126	 1.0733383295	 0.114621
H	-4.5362541684	-3.4636596488	 0.0325650571	 0.117222
H	-4.7512241561	-5.5259355164	-1.0019673469	 0.288968
