16
gdb 10545	3.04527	1.47532	1.11981	4.4579	66.5	-0.2386	0.0053	0.2439	1081.2518	0.129582	-379.892462	-379.883959	-379.883015	-379.925973	29.734	
C	 0.0940671157	 1.44495006	 0.0839365857	-0.312486
N	 0.2647286933	-0.0006956826	 0.0403592825	-0.276682
C	 0.4881394517	-0.5216481234	-1.2936895157	-0.21291
C	 0.5747126269	-2.0331887136	-1.2481412153	 0.233934
C	 1.5240538773	-2.7753546328	-2.1007333201	-0.20889
O	 1.801201293	-2.5609084291	-0.7200272867	-0.252249
C	-0.6229020287	-2.7248196571	-0.7964893306	 0.2802
N	-1.5846586904	-3.2776024301	-0.47373319	-0.329797
H	 0.9297413758	 2.0137336331	-0.3613089724	 0.097458
H	-0.819754912	 1.7208045917	-0.4540379136	 0.128723
H	-0.022260219	 1.7650013142	 1.1226839758	 0.128741
H	 1.0348172348	-0.2807459393	 0.6388485101	 0.233771
H	-0.3571303117	-0.2307841638	-1.9303429324	 0.125315
H	 1.4068137829	-0.1451910431	-1.7803167652	 0.09225
H	 1.2970904797	-3.8016804581	-2.3800504636	 0.142375
H	 2.1427767806	-2.215177836	-2.7994605484	 0.13025
