18
gdb 62013	4.39853	0.71745	0.64584	1.4157	71.52	-0.2487	-0.0481	0.2006	1686.6679	0.144667	-476.264968	-476.254587	-476.253643	-476.302967	35.253	
C	-0.1276508893	 1.4629182135	 0.0079157926	-0.482
C	-0.0200030122	-0.0428521726	 0.184659938	 0.406942
O	 0.7407039267	-0.550983402	 0.9889154988	-0.372841
N	-0.8372286767	-0.7804362998	-0.628684664	-0.311288
C	-0.9378057842	-2.2180026522	-0.5229400788	-0.178842
C	-2.3534916587	-2.6308371728	-0.0715782159	 0.040846
O	-3.3151562479	-2.111835558	-0.9536752463	-0.442354
C	-2.4699451733	-4.1372664735	 0.0152796938	 0.133692
O	-3.2755093344	-4.7466667269	-0.6467454685	-0.256543
H	 0.8778997659	 1.8744863426	-0.1038279022	 0.154475
H	-0.7373080748	 1.7612298063	-0.8486442913	 0.115625
H	-0.5587146745	 1.8945898553	 0.9160454562	 0.152932
H	-1.5207201226	-0.31986283	-1.2076250982	 0.257642
H	-0.726428733	-2.6853169021	-1.492865276	 0.115368
H	-0.181920409	-2.5369987696	 0.1990179098	 0.14942
H	-2.5123277299	-2.2299398933	 0.9444475391	 0.108737
H	-3.7886528663	-2.8819005315	-1.3074945967	 0.297733
H	-1.7748530456	-4.6494839933	 0.7101751998	 0.110456
