18
gdb 6011	2.41762	1.85253	1.51698	1.3789	68.7	-0.2495	-0.0551	0.1944	951.5906	0.149226	-384.977332	-384.967579	-384.966635	-385.012015	34.165	
C	 0.8603649185	 1.0353487703	 0.318433426	-0.488815
C	-0.4298219837	 0.4637388959	-0.2360724819	 0.364803
O	-1.5089783976	 0.7644683812	 0.2144729586	-0.294049
C	-0.3148076055	-0.5544582626	-1.4104574965	 0.060035
C	-1.7039016585	-0.7986894823	-2.0145485371	-0.424569
C	 0.7028797319	-0.0770768395	-2.4602772169	-0.428712
C	 0.1734411457	-1.8531281171	-0.7577681326	 0.139026
O	 1.3232158978	-2.2051637106	-0.7000687341	-0.251199
H	 1.625265172	 0.2611170619	 0.4261317846	 0.15901
H	 1.2596050337	 1.7874138008	-0.3710092968	 0.150099
H	 0.6571820007	 1.5116590819	 1.2781565634	 0.144827
H	-2.0990685745	 0.12373523	-2.4474516516	 0.130888
H	-1.6511756874	-1.5557000155	-2.8034460543	 0.115355
H	-2.4121709	-1.1293405048	-1.2520530727	 0.138367
H	 1.7160365901	-0.0577283298	-2.0570516583	 0.142217
H	 0.7022029642	-0.7623640457	-3.3129484279	 0.128182
H	 0.4442861034	 0.9199145195	-2.8293136035	 0.120071
H	-0.638959071	-2.4634297037	-0.3042308883	 0.094464
