15
gdb 34483	3.80313	1.50876	1.2504	3.8069	79.43	-0.2376	-0.0918	0.1458	968.8155	0.113722	-379.561669	-379.554952	-379.554008	-379.592759	26.55	
N	-0.3056568663	-0.8967505922	 0.5749994584	-0.344652
C	-0.2077729401	 0.1935124443	 0.187658762	 0.250096
C	-0.0481158017	 1.5002305483	-0.3269890941	 0.068116
C	-1.0629105043	 2.3900795075	-0.4801372786	-0.025391
C	-1.825150256	 2.7488098158	 0.7939762413	-0.277461
C	-0.7078889071	 3.8853939988	 0.858620137	-0.041512
C	-0.4758600714	 3.8149700413	-0.5981204141	-0.081526
N	 0.6815652631	 3.6816494063	 0.2561844041	-0.107886
C	 1.216138737	 2.3257608998	-0.0228757043	-0.224051
H	-2.7887618106	 3.252902107	 0.6741787986	 0.130219
H	-1.8815862897	 1.977577639	 1.5640919146	 0.137423
H	-0.7870126665	 4.7656674267	 1.487003484	 0.124997
H	-0.5768830394	 4.5400132856	-1.3960367816	 0.110122
H	 1.7202507128	 1.8890266012	 0.8447864616	 0.145688
H	 1.94797387	 2.4234423908	-0.8325386089	 0.135818
