20
gdb 69082	2.45424	1.56586	1.17477	4.4293	83.61	-0.2697	0.0343	0.304	1119.4064	0.172435	-366.046991	-366.038552	-366.037608	-366.07959	33.003	
C	-0.1502605457	 1.5473388402	 0.0832823591	-0.47944
C	 0.0974141038	 0.0618682868	-0.0186649348	 0.300767
C	-0.7032491877	-0.8884692768	 0.8268624497	-0.367687
C	 0.7898246175	-0.7372033045	 1.0976911347	 0.172278
C	 1.7180291448	-1.7702157251	 0.457006461	-0.274649
C	 1.2248629276	-1.8803476503	-1.0026739555	-0.241828
C	 0.6316763045	-0.4948540437	-1.3360111874	-0.260987
C	 1.2040942194	-0.1090347561	 2.3175986806	 0.20471
N	 1.5468011574	 0.4006006246	 3.2991637783	-0.360363
H	 0.737294456	 2.1154898081	-0.2158350487	 0.125432
H	-0.9755750791	 1.8464213367	-0.5725366709	 0.122753
H	-0.4077922248	 1.8429744081	 1.1041401722	 0.137038
H	-1.3701629224	-0.4507112504	 1.5611007527	 0.132538
H	-1.0483923331	-1.832729894	 0.4192079323	 0.120993
H	 2.7453684882	-1.3925732132	 0.4949889676	 0.120531
H	 1.7039675962	-2.7307501529	 0.9807673455	 0.114693
H	 2.0284228305	-2.1645714942	-1.6860467884	 0.109216
H	 0.4561881007	-2.654533865	-1.0854211998	 0.111755
H	-0.1416765686	-0.5467105712	-2.1102081244	 0.105432
H	 1.4131962447	 0.1794832929	-1.7071024137	 0.106821
