22
gdb 59529	4.10518	0.91045	0.81232	2.2693	84.33	-0.2151	0.0779	0.293	1488.0991	0.192332	-404.303477	-404.294002	-404.293058	-404.337683	35.898	
C	 0.9388535962	-0.417561923	-1.1765197536	-0.386997
C	 0.0614112009	-0.009394669	 0.0097271821	 0.075239
C	-0.0040559618	 1.5137685734	 0.1489556112	-0.386998
N	-1.2812640843	-0.5452038351	-0.1647120915	-0.076068
C	-2.2587439116	-0.3855378013	 0.9396835117	-0.255772
C	-2.6990248591	-1.827721439	 0.6953773124	 0.431796
C	-3.4901225592	-2.7595541479	 1.4902964347	-0.266552
O	-4.0035876747	-2.1793156887	 0.2796491252	-0.264035
C	-1.4619518711	-2.0175321599	-0.1804360709	-0.255773
H	 1.95537865	-0.032675925	-1.0509355381	 0.111161
H	 1.0047552316	-1.5055656544	-1.2736875015	 0.114821
H	 0.5269702404	-0.0176880049	-2.1086752963	 0.123091
H	 0.5198031502	-0.4206762943	 0.9350736966	 0.043198
H	-0.4380969115	 1.9590099503	-0.7520604473	 0.123092
H	-0.6161135896	 1.8144259984	 1.0048322479	 0.11482
H	 0.9980684114	 1.9281538376	 0.2947744043	 0.111161
H	-1.7943227676	-0.2470442354	 1.9301338266	 0.089596
H	-3.0154424827	 0.3898435517	 0.783149784	 0.11686
H	-3.2809383472	-3.8278821103	 1.4436068678	 0.115452
H	-3.9678278997	-2.4209919064	 2.4092282717	 0.115452
H	-1.6260782844	-2.4558638168	-1.1700016087	 0.11686
H	-0.6596269161	-2.5711233099	 0.3349967818	 0.089597
