15
gdb 31472	3.97529	1.00224	0.80772	1.4776	76.76	-0.233	-0.0184	0.2147	1353.8103	0.112858	-416.801553	-416.79309	-416.792146	-416.835286	30.65	
N	 0.2247399762	 1.2134057787	-0.6429669775	-0.48545
C	-0.2143597782	 0.343336607	 0.436131493	-0.287333
C	-1.4994932383	-0.3925211208	 0.1743592076	 0.385323
N	-2.2475943576	-0.345620176	-0.8774319263	-0.358443
C	-3.3111997576	-1.2170097681	-0.5978136658	 0.106333
C	-3.1179792859	-1.7411694512	 0.6427953002	-0.122561
O	-1.9647503841	-1.2242646661	 1.1492886859	-0.169025
C	-4.3709362303	-1.4608137921	-1.5008208692	 0.230915
C	-5.2763343587	-1.6732241685	-2.2645244021	-0.410959
H	 0.319295122	 0.6650980906	-1.493787999	 0.241227
H	-0.510611621	 1.8846968925	-0.8481611199	 0.241207
H	 0.5713847918	-0.3914969568	 0.6534943944	 0.13877
H	-0.3297608773	 0.9328453806	 1.3547025591	 0.138762
H	-3.6611683444	-2.4361621165	 1.2586323948	 0.157836
H	-6.0732515566	-1.8578721333	-2.9409788653	 0.193397
