17
gdb 46250	3.14454	1.46369	1.22653	3.972	73.59	-0.2339	0.0237	0.2576	1037.8157	0.137227	-417.947976	-417.94058	-417.939636	-417.980035	28.685	
N	 0.0354082139	 1.2173189354	-0.3321444358	-0.535716
C	 0.0137604359	-0.0013465334	-0.0431692171	 0.384837
O	 1.0270950681	-0.8284049967	 0.4170452161	-0.263928
C	 0.1163722367	-1.9630194883	 0.5151830327	-0.148502
C	-1.0348572091	-1.0950916547	-0.030269057	 0.232311
C	-2.4041315295	-1.0139917117	 0.7264592231	-0.307458
C	-3.0927799706	-1.5200499867	-0.5488105401	-0.040488
N	-2.7984597829	-0.5066310473	-1.5844391107	-0.309733
C	-1.7958837196	-1.5526765028	-1.2798542073	-0.138784
H	 0.9690515895	 1.6107922993	-0.1957285164	 0.22558
H	 0.4461783854	-2.7899418843	-0.1208672678	 0.116712
H	 0.016283702	-2.2990554828	 1.5513019504	 0.117324
H	-2.4449905011	-1.7156725788	 1.5629842118	 0.10683
H	-2.7076372404	-0.0171625614	 1.0514745627	 0.132932
H	-3.9553133223	-2.1690377546	-0.6271548363	 0.098853
H	-3.2715451978	-0.7958514078	-2.4407149097	 0.232033
H	-1.4274538281	-2.2188540035	-2.0509513384	 0.097196
