17
gdb 40635	3.59019	1.30861	1.26841	2.3482	72.53	-0.2349	0.0225	0.2575	1052.4218	0.137536	-417.955587	-417.948415	-417.94747	-417.987699	27.576	
C	 0.4598860432	 1.7656526946	 0.2558072169	-0.222374
C	 1.0478872814	 0.5033339257	-0.2762513324	-0.217849
N	-0.3287241205	 0.5393980531	 0.2031366981	-0.048606
C	-0.5997079839	-0.1087687763	 1.4452510528	-0.013975
C	-1.9995659925	-0.107159872	 1.9958122856	 0.014703
O	-3.03387743	 0.1852415219	 1.0727867542	-0.204401
C	-2.9766346077	-0.8053010315	 0.1432257438	 0.118387
N	-2.1427016358	-1.7511718619	 0.3007974254	-0.253833
C	-1.3862081217	-1.4121790546	 1.4805144724	-0.078762
H	 0.8099057779	 2.1071527665	 1.2286297442	 0.110887
H	 0.1449075844	 2.557427677	-0.417737748	 0.121682
H	 1.169575907	 0.3560582806	-1.3452915502	 0.123564
H	 1.790295865	 0.0004215678	 0.3411137755	 0.112192
H	 0.1697432195	-0.0504109736	 2.22139257	 0.082069
H	-2.2444741875	 0.1728607944	 3.0123445751	 0.111651
H	-3.6834748114	-0.7033572907	-0.6701461294	 0.143135
H	-1.0371340474	-2.2339558311	 2.094027826	 0.101529
