21
gdb 85129	2.12016	1.67114	1.13643	2.7552	82.88	-0.2316	-0.0169	0.2147	1165.1351	0.181804	-387.095935	-387.086944	-387.086	-387.129953	34.071	
C	-0.4522316775	 1.4177832257	-0.2655571273	-0.410801
C	 0.1491428413	 0.0197941156	-0.2429574167	-0.075063
C	 1.6293228698	-0.1344158256	-0.7210404442	-0.372844
C	 1.8975946765	-0.9481428089	 0.552926435	 0.364036
O	 2.798445569	-1.6467378472	 0.9262830971	-0.310758
C	 0.5262255056	-0.6015060002	 1.1397047939	 0.237879
C	 0.5674730356	 0.2007577887	 2.4794637529	-0.273308
C	 0.2642103687	-1.1237457524	 3.2265512191	-0.206286
C	-0.2431247318	-1.7204292046	 1.8879892656	-0.28066
H	 0.1821138083	 2.1324623091	 0.2703506208	 0.117145
H	-0.5641690424	 1.7788961963	-1.2933788427	 0.118922
H	-1.4432250796	 1.4367944351	 0.201191081	 0.117543
H	-0.4998579606	-0.6729904179	-0.7900654346	 0.078185
H	 1.8191376961	-0.646455003	-1.6678966528	 0.126138
H	 2.1848413439	 0.8107767477	-0.7226014025	 0.126844
H	 1.4922007501	 0.7292776766	 2.7239546309	 0.105961
H	-0.2684252899	 0.9044332447	 2.537013066	 0.104506
H	 1.1833793972	-1.6149133591	 3.5531274651	 0.125573
H	-0.4362037225	-1.0815196252	 4.0633353923	 0.096661
H	-1.3248085737	-1.6037698964	 1.7659045591	 0.100709
H	 0.0356335459	-2.749698649	 1.6495726419	 0.109617
