19
gdb 22996	2.23765	1.28836	0.99998	2.4265	75.48	-0.231	-0.0054	0.2256	1257.7859	0.157515	-456.270395	-456.260718	-456.259774	-456.305187	35.586	
C	-0.0009395611	 1.0209608714	 1.0401482539	-0.418896
C	-0.20650059	 0.3707470014	-0.3309342264	 0.133499
O	 0.8605421401	-0.5013121508	-0.6624173649	-0.43231
C	-1.5679780246	-0.3376376306	-0.4182979102	-0.073678
N	-1.9234829111	-0.88138931	-1.7657195503	-0.322843
C	-2.2154955289	-2.2345306366	-1.2092539447	-0.258612
C	-1.6484975858	-1.7594337454	 0.1072515997	 0.395409
N	-1.2583655904	-2.2666367285	 1.1985462188	-0.244468
O	-1.4754202413	-3.6562872424	 1.2168002277	-0.38742
H	 0.9847140662	 1.4914753649	 1.0824926216	 0.124593
H	-0.7601185888	 1.7850121166	 1.2394189423	 0.109862
H	-0.0616733154	 0.2692779451	 1.835351301	 0.132962
H	-0.1946875699	 1.1399641188	-1.1127368163	 0.092473
H	 0.8860830612	-1.1885421193	 0.0142655151	 0.282217
H	-2.3436738129	 0.311854554	 0.0142236537	 0.082854
H	-2.7317491393	-0.4318676136	-2.1799954932	 0.220924
H	-3.2776819675	-2.5077374364	-1.14791693	 0.118078
H	-1.673556692	-3.049617861	-1.7007298579	 0.136395
H	-1.1505178185	-3.9041112077	 2.08925049	 0.30896
