18
gdb 100342	2.53217	1.15532	0.96676	5.6343	68.08	-0.2742	0.0361	0.3103	1249.5449	0.144838	-476.223466	-476.212986	-476.212042	-476.259086	37.147	
O	 0.0284037878	 1.4355475446	-0.0984209012	-0.430031
C	 0.0495259345	 0.0171458618	 0.005360858	-0.125097
C	-1.405068396	-0.4798302867	 0.0359914486	 0.343351
O	-1.4112989331	-1.8944966398	 0.0539789212	-0.475141
C	-2.1316918385	 0.0518335637	 1.2808593681	-0.122554
O	-1.535726486	-0.6098688827	 2.3931769106	-0.438195
C	-2.1710956949	-0.0293127342	-1.2241718829	-0.357795
C	-1.5505741175	-0.4891981664	-2.4643150969	 0.279438
N	-1.0593666687	-0.8339184468	-3.4515676339	-0.322311
H	 0.9255854141	 1.7440295524	-0.2515768119	 0.297582
H	 0.5524316715	-0.449436908	-0.8508581161	 0.123732
H	 0.547899757	-0.3132949858	 0.9268502066	 0.104064
H	-1.2720268302	-2.1463923914	 0.9769020128	 0.292959
H	-2.0108049642	 1.1398772632	 1.3488268976	 0.121196
H	-3.2014406399	-0.1907594122	 1.2089534368	 0.094187
H	-2.060156718	-0.4335325912	 3.1786558665	 0.300142
H	-3.192436326	-0.4200725643	-1.1792507351	 0.149682
H	-2.2154751818	 1.0634248239	-1.2455729388	 0.164789
