21
gdb 94271	2.92304	1.57074	1.2379	1.6227	82.37	-0.2348	0.085	0.3197	1089.35	0.183393	-387.02754	-387.019557	-387.018613	-387.060183	31.669	
C	-0.2551905108	 1.4834537607	-0.0307920932	-0.406037
C	 0.0264378978	-0.0140575602	-0.0839038126	-0.153965
C	 1.3308853305	-0.42782328	-0.7979569877	-0.097785
O	 1.8991822707	-0.9297345062	 0.427428329	-0.340718
C	 0.6905839503	-0.6602698946	 1.1537875592	 0.553138
C	 0.7680749263	-0.0893751567	 2.5923280689	-0.125826
C	-0.6787811895	-0.6347974196	 2.7815514378	-0.229928
C	 0.0850268239	-1.7737933699	 2.0477482535	-0.126477
C	 1.2722467085	-1.5031413361	 3.0218002376	-0.237199
H	 0.6186559631	 2.0337689472	 0.3339175267	 0.122375
H	-0.5003170947	 1.8673778268	-1.0271251448	 0.116097
H	-1.0967307189	 1.714494801	 0.6297761537	 0.121507
H	-0.8563265434	-0.5575554273	-0.432907866	 0.078504
H	 1.2331679502	-1.2154320472	-1.5551515574	 0.098412
H	 1.9223363239	 0.3976497445	-1.2133974478	 0.097404
H	 1.1606872286	 0.878505396	 2.9062264011	 0.070004
H	-0.9704453788	-0.8491833788	 3.8122024051	 0.094783
H	-1.4846861247	-0.1359686487	 2.2375961605	 0.091963
H	-0.3085210607	-2.7396734082	 1.7276258276	 0.068958
H	 2.2645387956	-1.7954463327	 2.678305101	 0.117773
H	 1.1039874224	-1.77148293	 4.0682367775	 0.087018
