20
gdb 74002	2.77845	1.86838	1.43499	1.4582	85.33	-0.1999	0.0022	0.2021	982.0497	0.173	-365.946393	-365.93911	-365.938166	-365.977685	29.931	
C	-0.1375754332	 1.4282222501	-0.0381431582	-0.488208
C	 0.0058075378	-0.0355196115	 0.2286116894	 0.241437
C	-0.9778607848	-0.9139280807	 0.4807241021	 0.003431
C	-2.2507847005	-1.2069671108	-0.3107547574	-0.221023
N	-1.5227847214	-2.4173868109	-0.8715422961	-0.14471
C	-0.3428765244	-2.0666006465	-1.7632237015	-0.182181
C	 0.7021462274	-2.1538547799	-0.585099436	-0.035775
C	 1.2941233421	-0.8093167306	-0.1006214569	-0.307803
C	-0.5421405489	-2.3505602498	 0.2915807396	-0.003148
H	 0.4414235584	 2.0232677215	 0.6809354405	 0.128552
H	 0.2402082444	 1.6982517645	-1.0335005068	 0.118492
H	-1.180764803	 1.7494403979	 0.0364974862	 0.122482
H	-3.1150449696	-1.5652830894	 0.2560913419	 0.114281
H	-2.5749322661	-0.4572091261	-1.0398414882	 0.106409
H	-0.2165893007	-2.8386750533	-2.5254325257	 0.111034
H	-0.4218200017	-1.092967401	-2.2587386076	 0.101024
H	 1.4199423435	-2.9714014478	-0.6815039177	 0.063476
H	 1.8595803291	-0.290074119	-0.8844459638	 0.100976
H	 1.9851658341	-0.945807743	 0.7436714439	 0.101996
H	-0.6315876127	-3.0936696135	 1.0866249024	 0.06926
