20
gdb 37062	3.16631	1.68858	1.40525	1.7563	82.25	-0.2241	0.0192	0.2434	993.5432	0.174655	-366.011076	-366.004108	-366.003164	-366.041909	29.587	
C	-0.0440145001	 1.5663151701	 0.0240629152	-0.234828
C	 1.4622998262	 1.9512135045	-0.0369037629	-0.306572
C	 2.1130349433	 0.7995732513	-0.7787419563	 0.293642
C	 3.5328258785	 0.2768778143	-0.5843406642	-0.344451
C	 3.319591686	-1.2288312423	-0.4965165594	-0.062808
C	 2.0308400681	-1.5760174155	-0.5787596004	-0.154465
C	 1.1820930486	-0.3633190413	-0.769675692	 0.282239
C	-0.0903037081	 0.0120412859	-0.0363006452	-0.307896
N	 1.490471586	 0.350547641	-2.0412955899	-0.408958
H	-0.5338043721	 1.9593986253	 0.9185625257	 0.104642
H	-0.5810303787	 1.9954438282	-0.8281278199	 0.105593
H	 1.6186543183	 2.9302533623	-0.5042554427	 0.099784
H	 1.8870765935	 2.0079759316	 0.972887006	 0.103401
H	 4.1920151916	 0.5437830565	-1.4184466167	 0.117683
H	 3.9949591116	 0.6754393373	 0.3289598461	 0.101371
H	 4.1484449559	-1.924259699	-0.4126009465	 0.092051
H	 1.6474342284	-2.589302799	-0.5485544116	 0.093225
H	-0.0572308638	-0.4154733676	 0.9729617307	 0.106739
H	-1.007442627	-0.354946186	-0.5104705306	 0.099926
H	 0.7234576638	 0.9730997924	-2.2895797454	 0.219682
