20
gdb 86120	2.8621	1.3124	0.92016	3.7332	83.05	-0.2349	0.019	0.2539	1286.6797	0.171092	-403.205228	-403.19591	-403.194966	-403.239639	33.921	
C	-0.0848510928	 1.4296989534	-0.1771114449	-0.34229
N	 0.0283446495	-0.004784842	 0.0227049088	-0.110262
C	-1.2195803512	-0.687983346	 0.3179573705	-0.219055
C	-1.1157048393	-2.1714112422	 0.5265846341	 0.280395
C	-2.412555047	-2.8679460541	 0.8315623151	-0.47367
C	 0.0548165258	-2.797339455	 0.4413056006	-0.149089
C	 1.3405279491	-2.0977844122	 0.1376631289	-0.373488
C	 1.2612115264	-0.5927562815	-0.0781451936	 0.402168
O	 2.273057986	 0.0415525546	-0.3300275516	-0.391991
H	 0.9078083038	 1.8222303025	-0.3896436001	 0.171114
H	-0.756633002	 1.6518020644	-1.0162073804	 0.118479
H	-0.4887739344	 1.9149097595	 0.7207320255	 0.118489
H	-1.6735363218	-0.2282469534	 1.2130184425	 0.111587
H	-1.9363996878	-0.4871954878	-0.497166772	 0.111588
H	-3.141507446	-2.7286361832	 0.0228446463	 0.126086
H	-2.2614392762	-3.9410465923	 0.9704486665	 0.127794
H	-2.8766502078	-2.4687585634	 1.742645935	 0.126097
H	 0.1033849104	-3.8730597374	 0.5966992125	 0.085961
H	 2.0763633679	-2.2572062039	 0.9370384848	 0.140045
H	 1.8154144377	-2.51440329	-0.7605396483	 0.140041
