17
gdb 30355	3.04749	1.52483	1.12798	1.3622	73.73	-0.224	0.0069	0.2308	1062.9649	0.138428	-421.854892	-421.847524	-421.846579	-421.886766	28.809	
O	-0.3580520427	 1.4918982648	-0.2908119488	-0.430799
C	 0.0384168857	 0.1496960614	-0.0069097138	-0.007599
C	-1.167943712	-0.811823061	 0.2357457672	-0.229986
C	-1.4659749796	-1.5382960733	-1.1126161098	-0.365447
C	-0.1356834534	-1.4611610327	-1.8092722019	 0.22937
C	 0.5617835661	-1.9698388258	-2.8537408143	-0.171303
O	 1.8050875996	-1.3961491408	-2.896418052	-0.149589
C	 1.8907317375	-0.5105744455	-1.8639016699	-0.172731
C	 0.7274406206	-0.5160316866	-1.1654556704	 0.19876
H	-0.6432572008	 1.5231928897	-1.2101838644	 0.277962
H	 0.6579643467	 0.2299728768	 0.8906168654	 0.092359
H	-0.8750872791	-1.5564402203	 0.9836292206	 0.108104
H	-2.0232756229	-0.2596881112	 0.6319122558	 0.108384
H	-1.8253549707	-2.5593492572	-0.9569903948	 0.116191
H	-2.243859374	-1.0162780434	-1.6836243289	 0.114461
H	 0.3665166735	-2.7003074719	-3.6209642167	 0.138128
H	 2.8286081355	 0.0125509871	-1.7774378732	 0.143736
