23
gdb 101681	4.40894	0.65547	0.59673	1.2308	79.13	-0.2579	0.0534	0.3113	1904.0777	0.203931	-462.563829	-462.552897	-462.551953	-462.600043	40.174	
C	 0.0334079584	 1.56934671	 0.0967671764	-0.385565
C	 0.0113553776	 0.041280361	 0.0126297205	-0.167081
C	 0.698674582	-0.4983211043	-1.2420148174	 0.142526
O	 2.050293629	-0.0601068413	-1.2038768906	-0.44999
C	 0.604004113	-2.0307536538	-1.3372142324	-0.237547
C	 1.1866072895	-2.6125686784	-2.6252488076	 0.075275
O	 2.5932530618	-2.314754283	-2.7767012714	-0.44348
C	 0.9987346544	-4.1247371282	-2.7554784774	-0.060428
O	 1.5788417229	-4.6117199939	-3.9448207548	-0.422612
H	 1.061000479	 1.9391249306	 0.0741201052	 0.138656
H	-0.5037509416	 2.0185248712	-0.7462837939	 0.108879
H	-0.44083858	 1.9194354582	 1.0186212239	 0.106783
H	 0.5146965034	-0.3873404426	 0.888722237	 0.098243
H	-1.0231291444	-0.3231172428	 0.0292355677	 0.088734
H	 0.1895493151	-0.0718999243	-2.1264693289	 0.05878
H	 2.4954213521	-0.4577974358	-1.9634041708	 0.284975
H	 1.1133640893	-2.4731372637	-0.4688074702	 0.095043
H	-0.4499685734	-2.3300489635	-1.2731764032	 0.104386
H	 0.7241309669	-2.1337912272	-3.4967260788	 0.103602
H	 3.0380609364	-2.6191703715	-1.9748852175	 0.288676
H	 1.4266762032	-4.617814804	-1.8626056947	 0.074918
H	-0.0680552001	-4.3718847035	-2.7833703959	 0.111319
H	 2.4245829755	-4.1529145192	-4.0284904653	 0.285909
