25
gdb 122281	4.45222	0.6979	0.67927	0.2467	94.28	-0.2831	0.0901	0.3732	1822.6725	0.229651	-352.320227	-352.310706	-352.309762	-352.355343	36.418	
C	-0.0647819187	 1.5561791534	-0.0663783159	-0.382005
C	 0.0003118488	 0.0280032458	-0.000860296	-0.159949
C	 0.7393360406	-0.4933725136	 1.2362033183	-0.15967
C	 0.8050624839	-2.0243630006	 1.3040780867	-0.34917
C	 1.5298227093	-2.5521219444	 2.5182279587	 0.380159
C	 1.1653069691	-2.3326905147	 4.0243517846	-0.24587
C	 2.4327621143	-3.2309459509	 4.0308255387	-0.0433
C	 1.7748523137	-4.0496074229	 2.8864642978	-0.263251
C	 3.0167933847	-2.2976211514	 2.9348390003	-0.245901
H	 0.9391281597	 1.9949054789	-0.0905362477	 0.112771
H	-0.5977595973	 1.8967381345	-0.9597484118	 0.110123
H	-0.5823467919	 1.9685408993	 0.8071129984	 0.112771
H	-1.0179484122	-0.383281716	-0.0134871428	 0.093277
H	 0.4917048032	-0.3571926019	-0.9043655732	 0.093281
H	 1.7588442171	-0.0845186656	 1.2490868685	 0.095135
H	 0.2481554917	-0.1098498211	 2.1408556684	 0.09511
H	-0.2144766135	-2.4351008334	 1.2926442304	 0.092954
H	 1.2981605117	-2.4098529928	 0.4004534496	 0.092948
H	 1.2811490482	-1.3183208237	 4.4173541218	 0.085223
H	 0.2347803394	-2.7913571733	 4.3728374274	 0.083165
H	 2.9543520846	-3.6230423719	 4.904553853	 0.067328
H	 0.8906201411	-4.6394208555	 3.1472036954	 0.08324
H	 2.448320106	-4.6098984781	 2.2305299479	 0.083233
H	 3.785806456	-2.7240745064	 2.283338799	 0.083167
H	 3.2754439006	-1.2805359537	 3.2437904626	 0.085233
