20
gdb 105806	2.48623	1.43307	1.22675	3.4768	78.57	-0.2116	0.0645	0.2761	1134.7393	0.1708	-403.060574	-403.052206	-403.051262	-403.093427	33.148	
C	 0.0345289518	 1.5350273106	 0.1745501243	-0.37292
C	-0.0227610972	 0.0215352084	-0.079264511	-0.291931
C	-1.4240173425	-0.5234612877	-0.0171304264	 0.282917
C	-2.0850083604	-1.057492793	 1.2316811618	 0.086837
O	-3.2533366462	-0.6410940433	 1.8451211407	-0.430336
C	-1.9273353271	-1.9981585739	 0.0561383928	-0.210979
C	-2.8753039711	-1.6960074162	-1.1276374889	-0.042533
N	-3.8155650661	-0.5975837423	-0.7480699519	-0.371676
C	-2.4222751378	-0.2969133093	-1.1914740449	-0.110842
H	 1.0612330748	 1.9081742711	 0.1080875596	 0.1105
H	-0.5664372951	 2.083376511	-0.559084853	 0.113728
H	-0.3552205413	 1.7790580307	 1.1675697535	 0.129828
H	 0.4233206597	-0.2051015096	-1.0583347537	 0.092172
H	 0.593776723	-0.5007643324	 0.6624884548	 0.1
H	-1.3353530512	-1.2729785554	 1.9931041599	 0.098324
H	-3.8720740085	-0.4806394807	 1.1106785855	 0.298036
H	-1.3388723582	-2.907502688	 0.1024796468	 0.08544
H	-3.1351385369	-2.3868685335	-1.918725495	 0.101137
H	-4.4324393164	-0.4331139386	-1.5423794914	 0.234835
H	-2.2435260633	 0.3481546823	-2.0424635134	 0.097463
