17
gdb 52663	2.46713	0.9832	0.83259	2.1667	77.16	-0.2655	0.0188	0.2843	1449.0796	0.13406	-417.984633	-417.974077	-417.973133	-418.021792	36.181	
C	-1.1032571492	 1.082663774	-0.6407583608	-0.502134
C	-0.3793563359	-0.1323125558	-0.2999794182	 0.113128
C	 0.2238281924	-1.1342299035	-0.0130164357	 0.030581
C	 0.9177055136	-2.3775637657	 0.3077303226	-0.062095
O	 0.1182409193	-3.282679226	 1.0590007854	-0.422366
C	 1.4612980903	-3.0846492686	-0.9673076296	-0.112178
N	 2.2726849721	-4.2202242814	-0.5450411045	-0.506539
C	 0.3289112038	-3.4588262484	-1.8450857242	 0.248012
N	-0.5511754363	-3.8075459338	-2.509429839	-0.327113
H	-0.4184037952	 1.930230914	-0.7509837114	 0.156005
H	-1.6486195053	 0.9666975731	-1.5832140068	 0.160376
H	-1.8287620684	 1.3398281576	 0.1382819831	 0.15728
H	 1.7968695137	-2.1838853148	 0.9315789165	 0.135575
H	-0.7554374015	-3.3062785869	 0.6494363258	 0.299766
H	 2.0915055044	-2.3722530406	-1.5103265489	 0.136682
H	 1.7008931073	-4.8201521181	 0.0438824897	 0.250918
H	 2.567670265	-4.768487695	-1.3463411341	 0.244103
