14
gdb 1173	4.17631	1.89972	1.77896	4.8329	53.77	-0.2852	0.0128	0.298	757.2099	0.111582	-361.71821	-361.710311	-361.709367	-361.749815	28.405	
C	-0.0081003908	 1.5381916187	-0.0020484335	-0.420225
C	-0.0113343831	-0.0013665563	-0.0180246102	 0.192637
O	 0.6688390149	-0.5144048202	 1.1125656437	-0.450504
C	-1.4542851458	-0.5785773074	-0.0324870355	-0.109984
O	-2.0525627731	-0.39839251	 1.2417323317	-0.421367
C	 0.6861522403	-0.4819004157	-1.226729698	 0.285204
N	 1.1874319149	-0.8414802036	-2.2032321739	-0.33095
H	 1.0175342811	 1.9026156898	 0.0786518303	 0.153974
H	-0.4622932588	 1.9514870657	-0.9073758127	 0.13254
H	-0.5622197744	 1.8944232847	 0.8723624134	 0.109931
H	-0.0102884858	-0.5879572057	 1.7992966418	 0.295856
H	-2.0450035708	-0.1289844245	-0.839098946	 0.119449
H	-1.4004333996	-1.6575748434	-0.1957687742	 0.143778
H	-2.3904126191	 0.500784318	 1.3035203529	 0.299661
