21
gdb 35802	2.8768	1.39505	1.09891	0.7997	87.24	-0.253	0.0583	0.3112	1166.9875	0.184185	-349.929816	-349.921629	-349.920685	-349.962536	32.755	
C	-0.1079496196	-1.2243953962	-0.0811580149	-0.45507
C	-0.0703276974	-0.025798751	 0.0136904587	 0.311652
C	-0.0142070792	 1.422585982	 0.1426938406	-0.170435
C	-0.492688018	 1.9661894112	 1.515100973	-0.218052
C	 0.03307615	 3.4120921043	 1.5267860089	-0.229652
C	 1.4137226559	 3.3328492263	 0.8553233629	-0.002872
C	 2.5577810704	 2.7153370119	 1.7131543063	-0.224278
C	 2.5329741723	 1.4296736623	 0.8390077382	-0.225885
C	 1.3990658137	 2.0377381342	-0.0335373186	-0.011767
H	-0.1460693626	-2.2814831202	-0.1716742922	 0.189622
H	-0.660036501	 1.8630866691	-0.6297901439	 0.099564
H	-1.5765774827	 1.8931577683	 1.6341006386	 0.104065
H	-0.0380914875	 1.3780764556	 2.3196757836	 0.112039
H	-0.6330563739	 4.05121856	 0.934271073	 0.095032
H	 0.0781115055	 3.8384743184	 2.534272512	 0.095132
H	 1.68408272	 4.2642228672	 0.353532702	 0.062248
H	 3.4970001181	 3.2720021025	 1.6708418866	 0.097327
H	 2.3036110968	 2.5659167115	 2.7670868386	 0.094424
H	 3.4582280182	 1.2365412444	 0.291518044	 0.098546
H	 2.2555321889	 0.5102759039	 1.3606092607	 0.109087
H	 1.6522076222	 2.1535470842	-1.0887227081	 0.069273
