19
gdb 17392	4.4555	1.67792	1.55608	1.5486	75.12	-0.2242	0.0859	0.3102	899.5785	0.167049	-327.867405	-327.860425	-327.859481	-327.89845	27.965	
C	-0.0259772818	 1.549341128	-0.0730516554	-0.209823
C	 1.5182849567	 1.5484665372	 0.1034448628	-0.272376
C	 1.4208052778	 0.0968720697	 0.6271356994	 0.408372
C	 0.004809324	-0.002273706	 0.003445517	-0.291805
C	 2.4888341238	-1.0270213501	 0.4122474518	-0.322823
C	 2.5347761579	-1.2247141743	 1.9303244926	-0.033131
N	 2.942442549	 0.0837168766	 2.5031559866	-0.33862
C	 1.5230804816	-0.1561058902	 2.1387675633	-0.123528
H	-0.5359769481	 1.9910242566	 0.7876325921	 0.100037
H	-0.4325724756	 1.998741767	-0.9818559293	 0.094646
H	 2.0363354131	 1.5942599119	-0.859870036	 0.096223
H	 1.9679724923	 2.2814304092	 0.77669922	 0.106407
H	-0.7698164795	-0.5063328095	 0.5894926025	 0.091928
H	 0.037966962	-0.4590452628	-0.9910061128	 0.097271
H	 2.0708176641	-1.8842021938	-0.1232118303	 0.09831
H	 3.4333245386	-0.726980153	-0.0504065734	 0.102218
H	 2.7033422793	-2.142904475	 2.4797124926	 0.088959
H	 3.0135758596	-0.0438238352	 3.5129908806	 0.224213
H	 0.7360937753	-0.0652539962	 2.8794009059	 0.083523
