16
gdb 124895	3.7427	1.25741	1.04338	2.7879	70.4	-0.2503	-0.0051	0.2452	1127.2478	0.1249	-434.04796	-434.040112	-434.039168	-434.080855	29.093	
C	-0.289960711	 1.3494094204	-0.8162129802	-0.467782
C	-0.0630883662	 0.0551838709	-0.0703008216	 0.3098
C	 1.0832778607	-0.8110811708	-0.4122995136	-0.211636
O	 1.1038711408	-0.0034854236	 0.7663930769	-0.275219
C	-1.2614969505	-0.5592409001	 0.5537476948	 0.276133
C	-1.3539071085	-1.2457457222	 1.7428491017	-0.171273
N	-2.6639359639	-1.5733359283	 1.8212434223	-0.157951
N	-3.3555239914	-1.1205029021	 0.75974559	-0.107553
N	-2.5044048306	-0.5034292376	-0.008425732	-0.274109
H	 0.6449470649	 1.7053887293	-1.2549210757	 0.121212
H	-1.0302994103	 1.2012965328	-1.6067062078	 0.149872
H	-0.6743339621	 2.1178621104	-0.1386345733	 0.13211
H	 1.0141935272	-1.8845851418	-0.2443165252	 0.11239
H	 1.768001982	-0.5031789745	-1.2017119253	 0.117158
H	-0.628913275	-1.4952015047	 2.4974043123	 0.162299
H	-3.1502658759	-2.0739896481	 2.5479622966	 0.284549
