16
gdb 16819	3.66746	2.01098	1.50022	4.9721	64.62	-0.2532	0.0341	0.2874	850.1972	0.132236	-379.943246	-379.936175	-379.935231	-379.974482	26.927	
C	-0.1564085395	 1.6004202337	 0.0095953863	-0.397935
C	 0.0441454728	 0.0844006327	 0.0163176008	 0.027479
N	 0.9017521476	-0.399940647	-1.0509249941	-0.327118
C	 1.865590669	-1.3001858253	-0.6642918227	 0.404124
O	 2.6320186943	-1.8896083677	-1.3798740808	-0.366659
N	 1.8150795907	-1.4299454082	 0.7787154537	-0.15162
C	 2.2136869411	-0.1565913702	 1.4295373958	-0.251778
C	 0.7820076982	-0.4790022453	 1.2335305976	-0.030046
H	 0.800673281	 2.124598829	 0.0764041006	 0.126625
H	-0.6629846854	 1.9243373147	-0.9054852386	 0.121125
H	-0.779432394	 1.9022689175	 0.8574181451	 0.127196
H	-0.9438467372	-0.3975662989	-0.0353422133	 0.091576
H	 0.7277487671	-0.2345440398	-2.0285720879	 0.255741
H	 2.6616202099	-0.2757597956	 2.4108250735	 0.131772
H	 2.6735683323	 0.6019181945	 0.8021092359	 0.133756
H	 0.181845322	-0.795062404	 2.080240708	 0.105761
