18
gdb 12801	3.56623	2.03974	1.53175	1.7629	72.43	-0.2412	0.0289	0.2701	877.9099	0.154464	-347.813145	-347.805886	-347.804942	-347.844242	28.508	
C	-0.1114467542	 1.4911795884	 0.0676012498	-0.46769
C	-0.0224347533	-0.0174434247	 0.0346328735	 0.400547
C	-1.0792909613	-0.7233630422	-0.7962270431	-0.323848
C	-1.1978070253	-2.1987936801	-0.5337804477	-0.040433
C	-0.5913900235	-2.8397605179	 0.4614647116	-0.057692
C	 0.3086977009	-2.1780773621	 1.4671565535	-0.288578
C	 0.6517118712	-0.7469436655	 1.1229264644	 0.001087
O	 1.3085600533	-0.5350189473	-0.1326701572	-0.297269
H	 0.727556648	 1.9125657749	 0.6268890947	 0.126847
H	-0.0831436204	 1.9007049471	-0.9486091212	 0.123739
H	-1.0456992002	 1.8203986619	 0.5351056459	 0.118511
H	-2.0507497304	-0.2395368546	-0.6159880605	 0.109732
H	-0.862293078	-0.5465587577	-1.8597381409	 0.115676
H	-1.8376510615	-2.753134663	-1.2160051863	 0.085578
H	-0.7412863761	-3.9098500087	 0.5804239541	 0.086011
H	-0.1615042962	-2.1965857738	 2.4617697767	 0.110667
H	 1.2404894335	-2.7512155002	 1.5757972861	 0.118535
H	 1.0731903034	-0.1621081744	 1.9428787765	 0.078581
