16
gdb 31875	4.92479	0.98334	0.82388	1.9463	75.59	-0.2225	-0.018	0.2045	1322.3135	0.125199	-437.93777	-437.929558	-437.928614	-437.971059	30.474	
O	 0.0084003033	 1.4380333712	-0.0028799434	-0.42081
C	-0.002601176	 0.0211807688	-0.0322914726	-0.152689
C	-1.4280426531	-0.4764769616	 0.0131898116	 0.280649
N	-1.5708248112	-1.8078248926	-0.0079629878	-0.310778
C	-2.7966531728	-2.3167523256	 0.0294127429	-0.064488
C	-3.9511313624	-1.5285240235	 0.0900752366	 0.338767
O	-5.1548968834	-2.1641076073	 0.1240891693	-0.439038
C	-3.7997941203	-0.1458860635	 0.1119457679	-0.233154
C	-2.5161835642	 0.3892329906	 0.0728096699	-0.134013
H	 0.9229345266	 1.7305162134	-0.0341297233	 0.292435
H	 0.4758829703	-0.3700074158	-0.9438068087	 0.108469
H	 0.5451751087	-0.4072427219	 0.8216490892	 0.108494
H	-2.8959403537	-3.3993379935	 0.011546771	 0.112302
H	-5.8589414213	-1.5083635495	 0.1646244425	 0.298401
H	-4.6704042907	 0.5039385752	 0.1588215908	 0.092728
H	-2.3521283398	 1.4584544657	 0.0878862342	 0.122724
