18
gdb 114295	2.28045	1.59281	1.15959	4.6192	76.2	-0.2575	0.0344	0.2919	1110.6885	0.147559	-401.921057	-401.912539	-401.911595	-401.95453	31.357	
C	 0.037873641	 1.2942830418	-0.1612964571	-0.237831
O	-0.0530948341	 0.0145758511	 0.4273886743	-0.232337
C	-1.2614979253	-0.6334774077	 0.1707561335	 0.141984
C	-1.5600888881	-1.2170578749	-1.2632879663	-0.297325
C	-1.7465296158	-2.5905376205	-0.6099613961	-0.067766
C	-0.4607426976	-3.0254550649	 0.0562978368	-0.174231
C	 0.8402455893	-2.727430099	-0.4877876101	 0.310851
N	 1.8823668645	-2.5407690053	-0.9533746088	-0.355076
C	-1.3642149946	-2.0320494444	 0.7603332761	-0.108191
H	 1.0096535477	 1.7074447902	 0.1156728683	 0.137609
H	-0.0265736367	 1.2466557224	-1.257794465	 0.114741
H	-0.7554233358	 1.9646150699	 0.2055594429	 0.102985
H	-2.1109397584	-0.0157325815	 0.5013302114	 0.078003
H	-2.470730041	-0.8117568548	-1.7067716922	 0.110956
H	-0.7418043584	-1.1519610186	-1.9850223879	 0.131511
H	-2.5088666061	-3.3180069327	-0.8575107534	 0.105876
H	-0.5115239962	-4.0157927039	 0.4998465361	 0.135558
H	-1.7524297444	-2.2725744373	 1.7423562874	 0.102682
