16
gdb 26857	2.94851	1.43766	0.97381	5.515	78.24	-0.2024	-0.0494	0.153	1157.4941	0.124198	-437.948026	-437.939534	-437.93859	-437.981322	31.452	
C	 0.1015046305	 1.4894932056	 0.0240066225	-0.4961
C	-0.0635858268	 0.0030956583	 0.0153504685	 0.350647
C	-1.2399884503	-0.6807256504	 0.0023602696	 0.112045
N	-2.5095366291	-0.0686833399	 0.0739025985	-0.59639
C	-1.1685224605	-2.1118312108	 0.0000807575	-0.058049
C	 0.0170135047	-2.7634498591	 0.0110607982	-0.273493
C	 1.2695023757	-2.0384531235	 0.0468533957	 0.417585
O	 2.3845508803	-2.4925495179	 0.069263864	-0.356385
O	 1.1281231874	-0.6481774849	 0.0555977488	-0.258565
H	 1.0653774137	 1.7521445115	-0.4176172658	 0.15635
H	-0.6872908134	 1.984157481	-0.5520885276	 0.12518
H	 0.0777290546	 1.8980525409	 1.0419355225	 0.150125
H	-2.4865794448	 0.9307215315	-0.0768651658	 0.242807
H	-3.1797689706	-0.4862183166	-0.560541145	 0.247043
H	-2.1004554518	-2.6714697096	-0.0049112497	 0.112511
H	 0.0880346105	-3.8433130961	 0.0030911681	 0.124689
