18
gdb 122715	5.15604	0.50084	0.47775	3.5728	75.22	-0.2465	-0.0249	0.2215	2223.4715	0.143995	-476.212318	-476.201906	-476.200962	-476.250792	34.605	
O	-0.1817410687	 1.4715948081	 0.084862553	-0.415617
C	-0.0212316695	 0.0712844133	 0.0298905502	-0.061086
C	-1.3587119552	-0.6480413456	-0.0326281511	-0.091613
O	-1.9915233565	-0.2146891472	-1.2450598802	-0.218642
C	-3.2846141607	-0.5452145821	-1.4059521651	 0.138875
N	-3.9016298274	-0.2142895428	-2.4523939376	-0.224532
C	-5.2933383415	-0.5886227472	-2.5547547778	-0.237954
C	-6.1573972479	 0.6300896518	-2.8588589526	 0.156727
O	-7.3266021965	 0.7052455371	-2.5888160905	-0.235591
H	-0.6882882304	 1.7225144084	-0.6961662994	 0.296538
H	 0.5916863951	-0.237697882	-0.8308629732	 0.105729
H	 0.5046902385	-0.2294845455	 0.9416765611	 0.118339
H	-1.2196268736	-1.7370854133	-0.0463905063	 0.111971
H	-1.9770522695	-0.3716535436	 0.8301703099	 0.120809
H	-3.7218553676	-1.1080333512	-0.5674437412	 0.08794
H	-5.418345066	-1.2675678416	-3.4132028215	 0.139377
H	-5.7075192807	-1.101551686	-1.6726510621	 0.113622
H	-5.6110751819	 1.4500491395	-3.3739620057	 0.095108
