23
gdb 82953	2.97912	1.3104	1.21588	0.2188	87.93	-0.2571	0.0797	0.3368	1173.3062	0.208665	-351.142289	-351.134151	-351.133207	-351.174657	33.452	
C	-0.3069449817	 1.5189746531	-0.0840523964	-0.410221
C	-0.0182879067	 0.0368397823	 0.0064558549	-0.026399
C	 1.3194266637	-0.5928512881	-0.3264651167	-0.028344
C	 2.5912705745	 0.2211950834	-0.5650293342	-0.272985
C	 3.6405749664	-0.0691200442	 0.5105290311	 0.008071
C	 4.0826215748	 0.9989163887	 1.4804909784	-0.30584
C	 3.1316995919	-0.0812792453	 1.934206327	 0.008071
C	 1.6368140605	 0.1983855715	 2.1052446186	-0.272985
C	 0.8087421577	-0.6050538657	 1.1022733129	-0.028343
H	 0.5357075103	 2.143244492	 0.2225324201	 0.116835
H	-0.5617310776	 1.801966094	-1.1117574513	 0.115063
H	-1.1570110804	 1.7877182688	 0.5533976784	 0.115063
H	-0.8700527959	-0.5653626041	-0.3031405417	 0.07782
H	 1.2790510561	-1.5342531238	-0.8670120567	 0.073897
H	 2.9976648735	-0.0058676666	-1.5550669001	 0.098737
H	 2.3658089574	 1.2925088933	-0.5787495881	 0.099945
H	 4.3775662371	-0.8219369332	 0.247428621	 0.076569
H	 5.1042756856	 0.97913549	 1.8454991182	 0.104325
H	 3.68229324	 2.0006061199	 1.3459546298	 0.101573
H	 3.5390287056	-0.8419719033	 2.5934034914	 0.076569
H	 1.3248317729	-0.045847753	 3.1250020939	 0.098737
H	 1.4479346069	 1.2705738785	 1.9891757342	 0.099945
H	 0.4399758974	-1.5542985682	 1.4804321353	 0.073897
