18
gdb 17360	3.90017	1.57451	1.48941	2.7382	71.31	-0.2308	-0.0083	0.2224	938.4086	0.153214	-347.795955	-347.788073	-347.787129	-347.828733	29.257	
C	 0.0867107981	 1.1623014923	 0.7406568891	-0.480653
C	 0.0761921302	 0.0268369132	-0.2683446467	 0.385747
O	 1.052564154	-0.2491224724	-0.9312595736	-0.309841
C	-1.2114799619	-0.7681046294	-0.3626779948	-0.093523
C	-1.3456200717	-1.8458246882	-1.4825431885	-0.256586
C	-1.5065958377	-2.9287414251	-0.4059521867	-0.036614
C	-0.308288454	-2.9496237959	 0.4982849655	-0.275609
C	-1.3561649367	-1.8873750984	 0.7024824927	-0.069
H	 1.0954504504	 1.564085181	 0.8429043999	 0.140428
H	-0.589217146	 1.9586500371	 0.4068224311	 0.138569
H	-0.2817276173	 0.8204638964	 1.7139541633	 0.138805
H	-2.0714552742	-0.0925794949	-0.3322150106	 0.080742
H	-2.2438063313	-1.6951769796	-2.0846634005	 0.10152
H	-0.4790613076	-1.9447984508	-2.1400424351	 0.120719
H	-2.2011720298	-3.7581301263	-0.4538972253	 0.086412
H	-0.3071956586	-3.7318331781	 1.2505769579	 0.110702
H	 0.6748416172	-2.6907770011	 0.1148061097	 0.132075
H	-1.902428233	-1.7860111697	 1.6324327927	 0.086108
