19
gdb 3366	3.78397	2.47268	2.39621	0.1055	69.99	-0.2561	0.0816	0.3377	715.1205	0.173954	-273.788787	-273.781858	-273.780913	-273.819526	26.535	
C	 0.0431432856	 1.6572785966	 0.0454787839	-0.420083
C	 0.0883382908	 0.143390633	 0.0493773313	 0.00593
C	 1.2724280202	-0.7129074982	-0.3451119188	-0.051565
C	 2.6783991061	-0.125110696	-0.3610065314	-0.211986
C	 2.9242385002	 0.4761557033	 1.049544672	-0.217532
C	 1.85250275	-0.1437253222	 1.9869573406	-0.211983
C	 0.7689909165	-0.7242523875	 1.0861235993	-0.051564
H	 0.974325509	 2.1197557676	 0.3764447691	 0.119277
H	-0.168683457	 2.0337225538	-0.9618989152	 0.114901
H	-0.7542438691	 2.0205472141	 0.7039626293	 0.114901
H	-0.8546899049	-0.2855633908	-0.285726554	 0.07844
H	 1.080740904	-1.5498597002	-1.0091137882	 0.073137
H	 3.3906636243	-0.9334635583	-0.561751347	 0.097434
H	 2.8245451594	 0.6210003975	-1.1505131865	 0.094929
H	 3.9373744566	 0.265611316	 1.4042454825	 0.094629
H	 2.8343524075	 1.5651570188	 1.0265643087	 0.105636
H	 2.2862720345	-0.9583541279	 2.5779545366	 0.097434
H	 1.4685297199	 0.590439138	 2.7045424719	 0.094929
H	 0.2079967464	-1.5695267677	 1.4720357759	 0.073137
