21
gdb 104250	2.16265	1.30083	1.08209	2.0126	84.42	-0.2491	0.021	0.2701	1262.5585	0.179734	-387.041271	-387.031192	-387.030248	-387.076444	37.251	
C	-0.1808870353	 1.6008560035	 0.0592986129	-0.400658
C	-0.0885286551	 0.0717183272	 0.114356464	-0.226277
C	 0.7460937913	-0.4735734151	 1.2801018693	 0.26852
C	 2.2006010092	-0.0169058757	 1.2409568108	-0.469122
C	 0.032164474	-0.3614132377	 2.6519455359	-0.106616
O	-0.2603231081	-1.7733023831	 2.6809938064	-0.283942
C	 0.5637110336	-2.0175765892	 1.5169223809	-0.098933
C	-0.0781925354	-2.8364590739	 0.5039472644	 0.333889
C	-0.5889515025	-3.5242353616	-0.3398155247	-0.443993
H	 0.790546695	 2.0657877514	-0.1333844006	 0.119353
H	-0.8576435131	 1.9136222643	-0.7414319652	 0.118376
H	-0.5687259492	 2.0164334803	 0.9961498529	 0.116746
H	-1.0976997063	-0.3495495444	 0.1839002767	 0.113791
H	 0.3297149282	-0.3065429662	-0.8265365173	 0.102617
H	 2.2819218303	 1.0701208947	 1.3369393801	 0.123394
H	 2.7776566372	-0.4631239915	 2.0573401919	 0.118102
H	 2.6761244864	-0.3042071176	 0.2961615737	 0.121688
H	 0.682273246	-0.0625162667	 3.4852555637	 0.094542
H	-0.8828716749	 0.241450285	 2.6792820601	 0.104437
H	 1.5103335623	-2.494076077	 1.8122457996	 0.094214
H	-1.0460341537	-4.1330080367	-1.0805299957	 0.199872
