21
gdb 119774	4.70577	0.81663	0.74675	1.5383	83.06	-0.209	0.0639	0.273	1618.7838	0.183194	-420.438417	-420.428615	-420.427671	-420.474442	34.975	
C	 0.1216226674	 1.4449345319	 0.1052132044	-0.38843
C	-0.1675261657	-0.033454346	-0.1373614221	-0.124171
N	 0.6318450139	-0.5347556865	-1.249235874	-0.38166
C	 0.8300696499	-1.8634101277	-1.4808801363	 0.504471
N	 1.1458827879	-2.391699013	-2.6004790203	-0.38429
C	 1.3765906472	-3.8171637234	-2.3397539764	 0.032527
C	 2.8197331133	-4.2210174252	-2.6501210763	-0.380625
C	 0.9927951419	-3.9955717921	-0.8405825124	-0.118073
O	 0.7137342418	-2.6584342401	-0.3788906777	-0.258109
H	 1.1793221514	 1.6020086601	 0.3347395969	 0.130423
H	-0.1276001578	 2.0479953214	-0.7755046389	 0.116454
H	-0.4774153266	 1.8180494116	 0.9407860237	 0.121822
H	 0.0897385763	-0.621676871	 0.7455782025	 0.137827
H	-1.2448320096	-0.1783997947	-0.3156805105	 0.100177
H	 0.5928867439	-0.0019429298	-2.1056760851	 0.249983
H	 0.7074227615	-4.4123736669	-2.9744513608	 0.075635
H	 3.5195606736	-3.6637259631	-2.0180519758	 0.114661
H	 2.9753621438	-5.2923833682	-2.4789032428	 0.103515
H	 3.0571834113	-3.999502678	-3.6940175921	 0.126128
H	 0.0963427784	-4.6047914304	-0.6898426119	 0.110659
H	 1.805750926	-4.4038810888	-0.231984984	 0.111076
