18
gdb 51049	2.33585	1.45608	1.16138	4.2306	73.	-0.2457	-0.0273	0.2184	1123.2617	0.146371	-439.105891	-439.09685	-439.095905	-439.14021	32.554	
O	-0.1972048821	 0.0668772232	-0.6410012405	-0.327295
C	-0.1577231578	 1.0592466473	 0.052826074	 0.157368
N	 0.9717054105	 1.7830953843	 0.3142606007	-0.338063
C	 2.28224206	 1.2679079586	-0.0091989954	 0.235134
C	 2.5560602995	 0.880707448	-1.4968232613	-0.238177
C	 3.9086314017	 1.6362648013	-1.4322654072	-0.224438
C	 3.4217204491	 2.3362790647	-0.1362552791	-0.282911
C	 2.7065482597	 0.1659626572	 0.950752901	 0.15688
O	 2.1037500385	-0.1425229467	 1.9437707177	-0.265221
H	-1.0555775222	 1.5128026121	 0.5166810602	 0.082987
H	 0.9171402726	 2.4414636506	 1.0779491648	 0.248286
H	 2.5659792195	-0.1850526915	-1.7277468879	 0.12434
H	 1.8301159582	 1.3687313759	-2.147436083	 0.130607
H	 4.7556250768	 0.969617565	-1.2503982146	 0.113499
H	 4.158051613	 2.2830207721	-2.2750616011	 0.111907
H	 2.9836636881	 3.3175728617	-0.3336717829	 0.119803
H	 4.1218691659	 2.4213740561	 0.6987947602	 0.113572
H	 3.662705829	-0.3341046599	 0.6732424845	 0.081724
