19
gdb 68899	2.70056	1.47145	1.10347	3.4022	75.3	-0.243	-0.0167	0.2263	1139.826	0.156895	-423.060749	-423.051841	-423.050897	-423.094101	33.891	
C	-0.0318528692	 1.5241086283	-0.0356749897	-0.48593
C	 0.0935793464	 0.0254269852	 0.0065174983	 0.341896
C	 0.1336873978	-0.7587363805	-1.2909315466	-0.390218
C	 0.6665183091	-2.1451683339	-0.9029406094	 0.397061
O	 0.6619426158	-3.1166400511	-1.6104581321	-0.301339
C	 1.2291781392	-2.0857943517	 0.5241312873	-0.390222
C	 0.7441229286	-0.7626511394	 1.0843969392	 0.3419
C	 1.3901966988	-0.1985801825	 2.3205085558	-0.485934
O	-0.6919118658	-0.6642237138	 0.9997023441	-0.337749
H	 0.7905098248	 1.9659881285	-0.608394772	 0.12292
H	-0.9697611362	 1.8120652351	-0.5229993592	 0.133294
H	-0.0309552484	 1.9544827647	 0.9674611627	 0.131846
H	-0.8469953401	-0.8470568531	-1.7678601692	 0.139808
H	 0.8150465369	-0.3051188551	-2.0223405935	 0.127395
H	 0.8869047186	-2.9474736088	 1.1049525626	 0.139808
H	 2.3249120955	-2.1341450651	 0.4792773598	 0.127397
H	 2.4664423495	-0.0639951884	 2.1684244796	 0.122923
H	 0.9528371364	 0.7622350955	 2.5980957881	 0.131854
H	 1.2560692723	-0.884117554	 3.1643831842	 0.13329
