19
gdb 71847	2.75482	1.95408	1.67725	1.48	78.66	-0.2304	0.0057	0.2361	910.3506	0.160883	-385.859976	-385.853041	-385.852096	-385.890679	29.435	
C	 0.0512123606	 1.5158249363	-0.0900033185	-0.497905
C	-0.0847423707	 0.0205008177	-0.0404477846	 0.482253
O	 0.3258377111	-0.6447489803	-1.2282239294	-0.327481
C	-0.511201143	-1.7903374896	-0.8170013141	 0.036126
C	 0.408740103	-2.6878513727	-0.036003251	-0.079394
C	 0.9595268488	-2.0750756603	 1.016271942	-0.048046
C	 0.3739665435	-0.7275911534	 1.3333224811	-0.173216
C	-1.1507122584	-0.9682821075	 1.6045896056	-0.23415
C	-1.3716064698	-0.8235487984	 0.0979658732	-0.126685
H	 1.1063642531	 1.7952060159	-0.1856198142	 0.131361
H	-0.4901446032	 1.924867139	-0.9482767573	 0.125936
H	-0.3393584522	 1.9740180273	 0.8238204346	 0.119827
H	-1.0062115537	-2.248664354	-1.6737055672	 0.073575
H	 0.6702020952	-3.6799375293	-0.3842492366	 0.094465
H	 1.7347607254	-2.5104348659	 1.6379764575	 0.095559
H	 0.9401274297	-0.1453363365	 2.0609748522	 0.061429
H	-1.4177224069	-1.9034836795	 2.1022674504	 0.096954
H	-1.6099513708	-0.1254212343	 2.1308407423	 0.100125
H	-2.3369393718	-0.5342023941	-0.320777926	 0.069265
