21
gdb 114555	2.62942	1.49587	1.16883	2.0048	78.44	-0.2469	0.0858	0.3327	1137.5975	0.183362	-424.20984	-424.201432	-424.200487	-424.242545	33.376	
C	-0.1046105697	 1.2533440085	-0.0158375663	-0.240145
O	 0.2666064367	-0.1035204912	-0.1070931533	-0.266712
C	 0.7799298266	-0.6440149805	 1.0971456616	 0.085277
C	-0.27631329	-1.04176623	 2.1754976116	-0.25264
C	-0.0101585821	-2.563425038	 2.2085012606	-0.027086
C	 0.0583639378	-2.9105006619	 0.6964431417	-0.287924
C	 1.3529057297	-2.0352581038	 0.7823686498	 0.417443
O	 2.3751219993	-2.0766258734	-0.1558858838	-0.49879
C	 1.5487165109	-2.6233957687	 2.1994753603	-0.274243
H	 0.7442843096	 1.8859197067	 0.2869162507	 0.107192
H	-0.4442099461	 1.5663714634	-1.0062311086	 0.127383
H	-0.922498393	 1.4089836369	 0.7028519013	 0.110469
H	 1.5578132898	 0.026979946	 1.4917998582	 0.063923
H	-0.1027414898	-0.5578012619	 3.140925508	 0.095159
H	-1.2907147679	-0.8012528083	 1.8428979714	 0.103566
H	-0.5954402569	-3.160626709	 2.9055599894	 0.064832
H	 0.300743548	-3.9587351288	 0.5110532363	 0.09847
H	-0.7519590799	-2.5733378324	 0.0463621187	 0.097336
H	 2.1195338187	-1.4678050339	-0.8605837849	 0.282958
H	 2.1012476882	-2.0308600081	 2.9354959099	 0.088035
H	 1.93259335	-3.6449207313	 2.1659486576	 0.105494
