20
gdb 70424	2.87204	1.50226	1.29841	2.7782	78.42	-0.2268	0.0759	0.3027	1071.483	0.17071	-403.089978	-403.081601	-403.080657	-403.122938	32.199	
C	 0.149577287	 1.5102329472	-0.0833312579	-0.497336
C	 0.0012775028	 0.0196990335	-0.0580495856	 0.27163
C	-0.9399169231	-0.7303391353	 0.8025075217	-0.289263
N	 0.5038127419	-0.8625228903	 1.0799482919	-0.165326
C	 1.0009621898	-1.8379239302	 0.0468882016	-0.23654
C	 0.5650529732	-0.9280133121	-1.1211624475	 0.397703
C	-0.1930258924	-1.3496155148	-2.3963457213	-0.363414
C	 0.9882011891	-0.7069527507	-3.1451695266	-0.075476
O	 1.6539788162	-0.3932132278	-1.9019717395	-0.3132
H	 1.1419372335	 1.7882997156	-0.4485612122	 0.140887
H	-0.5963328414	 1.9689373216	-0.7435194677	 0.116267
H	 0.0148305173	 1.9239404449	 0.9200640678	 0.129141
H	-1.4738122185	-0.1702139546	 1.5648469263	 0.119858
H	-1.483544739	-1.5908608782	 0.4141723946	 0.105071
H	 2.0892259262	-1.9164435591	 0.0920952524	 0.124723
H	 0.551009026	-2.8349928174	 0.11780825	 0.097631
H	-0.2958430051	-2.4282315077	-2.5301232206	 0.113169
H	-1.1667792033	-0.875658339	-2.5349673354	 0.112699
H	 1.5893710445	-1.3787352518	-3.7681486376	 0.106584
H	 0.7525042955	 0.1963833163	-3.7201790244	 0.105192
