23
gdb 92659	2.79104	1.34159	1.06954	1.6334	84.22	-0.2513	0.0701	0.3215	1214.8571	0.208965	-388.300131	-388.291876	-388.290931	-388.332566	33.703	
O	 0.1956423006	 1.3616889063	-0.3228173402	-0.433436
C	 0.0241178461	-0.0165336588	-0.1125616839	 0.150137
C	 0.3498051253	-0.6595402658	 1.2606487423	-0.294068
C	-0.7868819656	-1.6819733106	 0.9712870829	 0.040618
C	-1.6797397603	-2.2325111702	 2.0839505812	-0.225845
C	-2.68415737	-1.205786387	 2.6290261455	-0.187476
C	-3.4428044785	-0.5165522713	 1.4869647337	-0.189961
C	-2.467934059	 0.2554912923	 0.586857115	-0.204117
C	-1.3993832352	-0.6570416766	-0.0396190805	-0.058519
H	-0.2608510593	 1.8335419972	 0.3807772228	 0.278747
H	 0.6056005254	-0.5010488101	-0.9026600896	 0.089274
H	 1.3606945418	-1.0390122728	 1.4286745047	 0.095742
H	 0.0922823356	 0.0171834978	 2.0832600726	 0.090691
H	-0.3576819726	-2.5204191288	 0.4125088232	 0.069733
H	-2.2472862255	-3.082697773	 1.681393383	 0.093318
H	-1.0615579053	-2.6354776836	 2.8959058945	 0.091854
H	-3.3823680238	-1.7031842857	 3.3111862453	 0.090315
H	-2.1645107654	-0.442561391	 3.2246696519	 0.091091
H	-3.981709243	-1.2699839758	 0.8955787803	 0.092526
H	-4.1997748012	 0.1662975473	 1.8887384408	 0.089299
H	-3.0030368823	 0.7907234657	-0.2042804609	 0.100716
H	-1.9997101555	 1.032682374	 1.2083391685	 0.069763
H	-1.7810753322	-1.0823230692	-0.972711333	 0.059596
