12
gdb 15514	3.10616	2.1593	1.53236	1.667	50.92	-0.2688	-0.0558	0.2131	790.2662	0.08317	-455.646303	-455.639403	-455.638459	-455.678186	23.518	
O	 0.1362406618	-0.0478796178	-0.1234615958	-0.22288
C	 0.0889024554	 1.1319461158	 0.0873714112	 0.140833
C	 1.334198246	 2.0267344024	 0.1029174768	-0.139585
O	 2.5388148922	 1.3093131986	 0.0446207773	-0.227128
C	 2.9346120383	 1.2800469022	-1.3081591504	 0.026656
O	 2.3465174956	 2.4193660742	-1.9423304222	-0.213523
C	 1.3451508375	 2.8958877679	-1.1649597061	 0.416799
O	 0.6251210502	 3.8007253408	-1.4563702311	-0.321219
H	-0.8613164288	 1.6774507088	 0.2684297827	 0.112137
H	 1.312500023	 2.6673242847	 0.9913035027	 0.147293
H	 4.0220029536	 1.3640986509	-1.3675485741	 0.142233
H	 2.5775361052	 0.3746801615	-1.8139643209	 0.138383
