18
gdb 61202	3.48683	0.77933	0.7506	4.0371	73.33	-0.2578	-0.0364	0.2214	1531.4611	0.144232	-439.103983	-439.093517	-439.092573	-439.140885	35.827	
C	-0.1357367184	 1.5469609022	 0.0927707826	-0.438227
C	 0.0106032722	 0.0157656992	-0.003061734	-0.069499
C	-1.3781261437	-0.6062199369	 0.0525944669	 0.142938
O	-1.8475833317	-1.1197053995	 1.0346233672	-0.245241
C	 0.7337961711	-0.4561521708	-1.2888674096	 0.104644
O	 0.1306082537	 0.0461659672	-2.465470953	-0.419983
C	 2.2485359756	-0.145871336	-1.2389290955	-0.386872
C	 2.958302276	-0.6442619957	-2.4143061645	 0.274083
N	 3.5251411732	-1.0413986861	-3.3390148863	-0.295904
H	 0.8345268721	 2.0523910441	 0.0609684416	 0.12794
H	-0.755953572	 1.9411362834	-0.719441684	 0.130596
H	-0.6171574904	 1.8196972111	 1.0352675641	 0.150112
H	 0.5547444767	-0.3534449792	 0.8731378292	 0.100435
H	-1.9498874504	-0.5353442602	-0.8984005495	 0.100451
H	 0.6240751157	-1.5437147352	-1.368189273	 0.123967
H	 0.2815063294	 0.9965276569	-2.5141475189	 0.291047
H	 2.4138400276	 0.9356773639	-1.1649209415	 0.148383
H	 2.6895048032	-0.5945252584	-0.3418433118	 0.161129
