22
gdb 69551	2.60122	1.5334	1.34242	1.6877	86.11	-0.2158	0.0807	0.2965	1107.8206	0.194244	-367.15967	-367.151097	-367.150152	-367.192047	34.65	
C	-0.0685567194	 1.552067992	 0.0606920778	-0.512831
C	 0.1129172853	 0.0668058613	 0.0033374458	 0.351803
N	-0.8051211472	-0.855628647	 0.7158024497	-0.377137
C	 0.6547928255	-0.9177225077	 0.9867914218	-0.174757
C	 1.3198368131	-1.7521605584	-0.1362309365	 0.381639
C	 2.8090082179	-1.9636627878	 0.0183070928	-0.493829
C	 0.4512308891	-2.8883565553	-0.7656641687	-0.273519
C	-0.12373691	-1.8778006752	-1.8073549857	-0.226211
C	 0.7252631802	-0.7385035474	-1.1733851382	-0.122374
H	 0.8307881969	 2.0734539669	-0.2845226071	 0.123397
H	-0.9033639017	 1.8746747545	-0.5736409936	 0.126973
H	-0.2774317365	 1.885518546	 1.0837449648	 0.113779
H	-1.2252868354	-0.3249586403	 1.4789664211	 0.220964
H	 1.0260410242	-0.7767125866	 1.9974257057	 0.07816
H	 3.0252590719	-2.6966196611	 0.8060350886	 0.114199
H	 3.2554270031	-2.3336167185	-0.9110592666	 0.113363
H	 3.3190845177	-1.0305459483	 0.2863136285	 0.110498
H	 1.0546312104	-3.6851843393	-1.2099745396	 0.085704
H	-0.2867963753	-3.3300567152	-0.09475799	 0.106993
H	 0.1626499166	-2.0999545223	-2.838411797	 0.087718
H	-1.2033121013	-1.7292834636	-1.75951047	 0.108305
H	 1.384202325	-0.1566942466	-1.8211925038	 0.057166
