21
gdb 76904	2.2549	1.75236	1.42748	2.2176	76.14	-0.2474	0.0501	0.2975	1028.3741	0.184627	-424.226803	-424.218491	-424.217547	-424.259693	32.912	
O	 0.5859990887	 0.9821061456	-0.560386581	-0.439924
C	 0.1235646249	-0.2617294573	-0.0572472645	 0.080645
C	 0.2178513236	-0.3745688028	 1.5007934268	 0.102537
O	 0.6253220474	 0.8172060862	 2.1248994547	-0.437548
C	-1.3106162885	-0.6974955755	 1.5649736223	-0.045474
C	-2.2089585532	 0.3839272541	 2.1834115148	-0.202752
C	-2.3558680863	 1.4595888308	 1.0889378098	-0.213357
C	-2.3592152443	 0.6591174075	-0.2299834034	-0.250016
C	-1.4116340109	-0.53192846	 0.0048199336	-0.052153
H	-0.172905829	 1.5460933332	-0.7388819727	 0.295526
H	 0.6771105923	-1.0463183326	-0.5812619571	 0.083264
H	 0.8484333638	-1.205129658	 1.8425403656	 0.065553
H	 0.9539497846	 1.378060672	 1.4055883082	 0.286735
H	-1.5210098911	-1.6938513491	 1.9586040739	 0.062563
H	-3.1883806364	-0.0479648064	 2.4194111811	 0.089961
H	-1.7876373492	 0.7890060574	 3.1060921694	 0.11663
H	-3.2538734669	 2.0724238912	 1.2077443329	 0.09564
H	-1.4938574982	 2.1332140091	 1.1305761346	 0.097375
H	-3.3639156962	 0.2687044791	-0.4263080736	 0.106628
H	-2.1015814943	 1.2619656731	-1.1114022493	 0.090737
H	-1.7113626607	-1.4083893676	-0.5727759259	 0.06743
