15
gdb 21192	6.85636	1.31565	1.11889	3.4302	64.3	-0.1908	0.0517	0.2425	1031.8526	0.1215	-392.18707	-392.17912	-392.178176	-392.21918	28.815	
C	-0.0012515727	 1.359346938	 0.2404409914	-0.341051
N	-0.0368024233	-0.0224882482	-0.1989892617	-0.382989
C	-1.1821713063	-0.7633916528	-0.0723189051	 0.472073
N	-1.2376355022	-2.0866301216	-0.0845773101	-0.406346
C	-2.5813523946	-2.3251533461	 0.0102326452	 0.399271
N	-3.0811407621	-3.6138160083	-0.0346973811	-0.584286
N	-3.3586461858	-1.2598837513	 0.095589471	-0.315367
N	-2.4198636127	-0.2423936777	 0.0440075989	-0.27146
H	 1.008864656	 1.7484204852	 0.1009976904	 0.14077
H	-0.669827812	 1.9715465609	-0.3762332195	 0.132507
H	-0.2856619213	 1.4923028204	 1.2952124797	 0.12485
H	 0.789757632	-0.5720861951	-0.0214669069	 0.258268
H	-2.4294317285	-4.2970223142	 0.3225207437	 0.252884
H	-3.9993859341	-3.6993183712	 0.376687397	 0.252606
H	-2.7227813124	 0.7144458324	 0.041487417	 0.268269
