15
gdb 8473	3.10371	2.04288	1.56867	3.6346	62.33	-0.2359	0.007	0.2429	842.5592	0.117697	-399.790177	-399.782485	-399.781541	-399.821746	28.901	
C	 0.0121391017	 1.5295935032	 0.1051017162	-0.477914
C	-0.006682058	 0.0336667092	 0.0816866339	 0.309989
C	 1.1106271181	-0.8709379655	-0.3679568888	-0.388115
C	 0.5616223114	-0.9667307262	 1.0686823273	 0.194724
O	 1.3234642957	-0.7081169161	 2.1798700761	-0.448352
C	-0.7828695247	-1.6890699397	 0.9865372135	 0.3603
O	-1.2737394053	-2.6806273698	 1.4441270707	-0.345602
N	-1.2797170775	-0.7137311223	 0.0931151692	-0.385396
H	 1.0086206147	 1.8901573151	 0.375346797	 0.135084
H	-0.2425834072	 1.9475327413	-0.8750922533	 0.125499
H	-0.7067362141	 1.9092872337	 0.8366861403	 0.139148
H	 0.9326026545	-1.6614445747	-1.0916041512	 0.118111
H	 2.0988699424	-0.4197371789	-0.4091045609	 0.12451
H	 1.8909248443	-1.4687335301	 2.3480766602	 0.300627
H	-1.773300466	-0.972592119	-0.7555840502	 0.237386
