16
gdb 104551	2.49488	1.30861	1.04332	4.0572	69.79	-0.2972	-0.0138	0.2833	1173.7154	0.12288	-437.929125	-437.920437	-437.919493	-437.962798	31.429	
C	-0.0461548018	 1.6341476815	 0.0650195425	-0.400556
C	 0.187607707	 0.1273765597	 0.1957519679	-0.235145
C	 0.6792059381	-0.523764865	-1.0949320209	 0.257538
C	 0.5824243364	-2.0694426682	-1.1868475896	-0.472145
C	-0.4627744288	-1.7788145508	-2.2613810585	 0.454724
O	-1.1898039297	-2.3842936537	-2.9735168228	-0.295672
O	-0.3253129183	-0.4088412484	-2.1693786383	-0.258498
C	 1.9603919354	 0.0283731834	-1.5450002481	 0.280182
N	 2.9851394137	 0.4528490219	-1.8677574873	-0.326497
H	 0.8819391234	 2.1609615773	-0.1756071772	 0.146785
H	-0.7733294784	 1.8446867926	-0.7237076271	 0.146828
H	-0.4316775077	 2.0403027931	 1.0036312051	 0.128041
H	 0.9223412338	-0.0862430601	 0.9809587011	 0.128081
H	-0.7420499855	-0.3804842827	 0.4762424068	 0.119169
H	 1.4700400883	-2.5860777346	-1.5524861378	 0.169673
H	 0.1997693342	-2.5652388659	-0.293694576	 0.157491
