19
gdb 117879	4.57758	0.55387	0.50696	4.1437	85.54	-0.2644	-0.0594	0.205	2114.4583	0.155495	-422.996038	-422.985041	-422.984097	-423.034368	36.347	
C	 0.0129168323	 1.3906603263	-0.0117358212	-0.23196
O	 0.0312549124	-0.0183189113	-0.0037051784	-0.232169
C	 0.6812676078	-0.5542357954	 1.1233296051	-0.047029
C	 0.6582681746	-2.0873546704	 0.9957757367	-0.181386
C	 1.4133999764	-2.5714529668	-0.2594466385	-0.387072
C	 1.1840558623	-2.7062505102	 2.2063001821	 0.107821
C	 1.6338434796	-3.2260429091	 3.200494299	 0.011657
C	 2.1693958174	-3.8132563934	 4.4005031953	 0.018326
O	 2.3142097091	-5.0010368559	 4.5803541742	-0.229467
H	 1.0305896957	 1.8109224521	-0.0232274674	 0.109082
H	-0.5103345312	 1.7043230343	-0.9178185775	 0.132421
H	-0.5166582456	 1.7958460532	 0.8644721837	 0.109046
H	 1.7244715361	-0.2003522221	 1.1834335565	 0.096336
H	 0.1742537079	-0.2466048422	 2.0518869851	 0.098688
H	-0.3958169944	-2.3818120347	 0.8977126586	 0.129752
H	 1.3247869952	-3.6543685237	-0.3713534434	 0.132089
H	 0.996119558	-2.0824327294	-1.1413592827	 0.141803
H	 2.4760936759	-2.3204180586	-0.1888517519	 0.125803
H	 2.4511828405	-3.0743832027	 5.1787209848	 0.09626
