22
gdb 88684	3.25575	0.9325	0.85461	1.6504	84.12	-0.246	0.0729	0.3189	1490.4094	0.191779	-404.316029	-404.305761	-404.304817	-404.35174	37.755	
C	-0.2190403641	 1.5963009613	-0.0402135423	-0.394814
C	 0.0068018138	 0.1039283225	-0.0070514642	 0.010148
N	 1.3481001645	-0.3900017049	-0.3527055165	-0.346497
C	 0.8327895787	-0.6068028206	 1.0138825237	-0.070162
C	 1.5692592567	 0.1045270319	 2.1008821301	 0.031785
O	 0.9431652196	 0.1532697489	 3.392210746	-0.305763
C	 2.1950111778	-0.5464097477	 3.2706027549	 0.38945
C	 2.1295917142	-2.0416731372	 3.4973920818	-0.457543
C	 3.3634004514	 0.1453162969	 3.9424295896	-0.449575
H	 0.6649803799	 2.1423018142	 0.2949623201	 0.128255
H	-0.4449492859	 1.9243945912	-1.0604577835	 0.118062
H	-1.0623165722	 1.8745854457	 0.6004799452	 0.123981
H	-0.8358915223	-0.4777601559	-0.3807962493	 0.082316
H	 1.2961873773	-1.2490514548	-0.8923304569	 0.232231
H	 0.4937082142	-1.60686248	 1.2707465718	 0.080782
H	 2.0099535071	 1.0490096554	 1.7805388999	 0.086658
H	 1.2186991501	-2.4770193379	 3.0839195038	 0.126685
H	 2.9943342191	-2.5410322128	 3.047139475	 0.121472
H	 2.1428899845	-2.2566733031	 4.5715472843	 0.123887
H	 3.3289514793	-0.0128631155	 5.0261346611	 0.121984
H	 4.3156950933	-0.2527210298	 3.575617822	 0.120241
H	 3.339630893	 1.2211929022	 3.7535233933	 0.126417
