20
gdb 93926	3.33525	1.14799	0.99257	2.9931	74.45	-0.2293	0.0338	0.2631	1253.1488	0.171521	-440.339421	-440.330211	-440.329267	-440.374238	34.34	
C	 0.798483253	 1.4716230332	 0.161054732	-0.385839
C	 0.2342325321	 0.0959422575	 0.5014767939	 0.13733
C	-0.1716323937	-0.7449120814	-0.7243912717	-0.244875
C	 1.076797742	-1.6001947636	-0.9885494429	-0.236243
C	 1.6003440532	-1.8338366141	 0.4323389657	 0.022386
O	 1.2477519865	-0.6742208305	 1.1875810266	-0.298344
C	 1.031915539	-3.1275746055	 1.048410127	 0.360438
N	 0.4738843939	-2.959535492	 2.2732799356	-0.515449
O	 1.1080027025	-4.1923725882	 0.4637789858	-0.373994
H	 1.6028053761	 1.395111331	-0.5778253403	 0.1183
H	 0.014409642	 2.1181319377	-0.2470236914	 0.113554
H	 1.2052317999	 1.9470741821	 1.0578832708	 0.124833
H	-0.6087556807	 0.2140013727	 1.1934223128	 0.075831
H	-1.023658262	-1.3869358496	-0.4804253323	 0.115101
H	-0.4555711149	-0.1217175959	-1.5754615593	 0.105598
H	 0.8703473208	-2.5445109185	-1.492724326	 0.137079
H	 1.8152611076	-1.0463040795	-1.5751879224	 0.103866
H	 2.6913773434	-1.9374447821	 0.4571607364	 0.11057
H	 0.5154922663	-2.0537142942	 2.7092791605	 0.27032
H	 0.1604279932	-3.7671678692	 2.7846086291	 0.259537
