22
gdb 88665	2.73521	1.18817	1.09584	2.1403	82.93	-0.2412	0.0723	0.3135	1265.4927	0.194112	-404.313692	-404.30437	-404.303426	-404.348065	35.193	
C	 0.5682468874	 1.5302864277	-0.2456374989	-0.404134
C	 0.3204189068	 0.070174913	 0.0494547151	 0.005617
N	 1.4941854114	-0.8051587562	 0.2428974799	-0.335887
C	 0.5572004736	-0.6053586057	 1.357398855	-0.042199
C	 1.0821082066	 0.0189389831	 2.6300293462	 0.138072
C	 2.2152448401	-0.7516100092	 3.3494452459	-0.316767
C	 3.0368343288	 0.5415373752	 3.1507101577	 0.175078
C	 4.2809240586	 0.4671266342	 2.2890957118	-0.405545
O	 1.9273049502	 1.1743857359	 2.4597804783	-0.299049
H	 1.3996531619	 1.9079945769	 0.3467948347	 0.15873
H	 0.7923255303	 1.6641294206	-1.3098805012	 0.10856
H	-0.3241684418	 2.1230613908	-0.0154174831	 0.108454
H	-0.4980767581	-0.3613897991	-0.5285487191	 0.07771
H	 1.3466871524	-1.7105206532	-0.1937225336	 0.227503
H	-0.1247829163	-1.4272820934	 1.5860442984	 0.076558
H	 0.2265999379	 0.2601938195	 3.2777289267	 0.071354
H	 2.016170256	-1.0394055781	 4.3826092896	 0.10299
H	 2.5930850926	-1.6105817364	 2.7914126178	 0.109811
H	 3.2463406171	 1.0756267346	 4.0875052123	 0.070274
H	 4.0554082026	-0.0489807262	 1.3519105151	 0.146771
H	 4.643740858	 1.4732204628	 2.0546428084	 0.11926
H	 5.0788933339	-0.0681180366	 2.8166211829	 0.106841
