15
gdb 66669	4.27792	1.26775	1.19526	5.1873	74.74	-0.2416	-0.0042	0.2373	1048.7481	0.112016	-379.566147	-379.558831	-379.557887	-379.597811	28.144	
C	-0.0218514375	 1.4741513186	 0.056331629	-0.519199
C	-0.0405825667	-0.0095285037	-0.0281117393	 0.386768
C	-0.0765095301	-1.0017841561	-1.1673408621	-0.162665
C	 0.8213451397	-1.9210785619	-0.3105381929	-0.105244
N	 0.8794556228	-0.9264606703	 0.804393642	-0.230106
C	-0.2196713313	-1.9733066618	 0.7648703751	 0.310985
C	-0.4643208168	-2.9074757918	 1.8066097903	 0.136453
N	-0.6953876684	-3.6816175373	 2.6355428269	-0.347139
C	-1.1418252891	-1.0387709654	-0.0579605422	-0.233486
H	 0.9628710142	 1.8685916761	-0.215407106	 0.139153
H	-0.7627904945	 1.9022552857	-0.6267551175	 0.132311
H	-0.257627415	 1.8089812171	 1.0718679558	 0.142096
H	-0.2078613083	-0.8690739621	-2.2310023171	 0.110459
H	 1.6332175315	-2.6052207968	-0.5240037529	 0.122441
H	-2.2152259006	-0.9436567202	-0.125950159	 0.117173
