14
gdb 50059	2.87117	1.30015	1.16827	4.0116	71.35	-0.2613	-0.0589	0.2024	1078.5854	0.097897	-436.643926	-436.635199	-436.634254	-436.678021	30.444	
O	 0.2872758584	 0.2941349838	 1.1604854445	-0.246854
C	 0.5390736463	 0.6958071234	 0.0536088121	 0.156718
C	 1.5769080686	 1.7480302759	-0.2250002695	-0.107875
C	 1.7852882553	 2.7803138768	 0.8709816634	-0.238605
N	 2.7705390888	 1.7797672003	 0.5924717309	-0.088212
C	 3.1970243985	 0.7360548066	 1.4192492234	 0.283774
O	 3.2703429286	-0.4106466152	 1.0454444492	-0.327142
C	 3.647943036	 1.1872196254	 2.7221814332	 0.269137
C	 4.0155509251	 1.5321918139	 3.8136839344	-0.43245
H	-0.0024377128	 0.3241311953	-0.8406371341	 0.100561
H	 1.7093138212	 2.0301503752	-1.2662036039	 0.117566
H	 2.0411742253	 3.7990885889	 0.5943509944	 0.13777
H	 1.1709610268	 2.6535845745	 1.7586338049	 0.159167
H	 4.3440341838	 1.8224171552	 4.7820399671	 0.216445
