22
gdb 76416	2.61278	1.16602	1.13956	2.3858	82.75	-0.2174	0.0786	0.296	1259.9962	0.19154	-404.297144	-404.286857	-404.285913	-404.332215	37.581	
C	 1.3947326686	-4.000665281	 1.4477322848	-0.421787
C	 0.9797743961	-2.6728372703	 0.8505968233	-0.032894
N	 0.5939271014	-1.5046704243	 1.6494719719	-0.127317
C	 0.6089744638	-1.5435840674	 3.1033653705	-0.319618
C	 1.8366058325	-1.4385815706	 0.8776098649	 0.26387
C	 3.2009778245	-1.419889924	 1.5440014822	-0.474158
C	 1.781553676	-0.5072444844	-0.305024616	 0.031073
C	 0.5921587121	 0.279081862	-0.6412833764	-0.17164
O	 1.7189873155	 0.8926611748	-0.0054820643	-0.249649
H	 2.0842119977	-3.9064547286	 2.2878911924	 0.121128
H	 0.5159464339	-4.5542172062	 1.7969622716	 0.125449
H	 1.8851645184	-4.6131935121	 0.6836525601	 0.124684
H	 0.3406677868	-2.7938524765	-0.025768892	 0.080873
H	 1.3892396392	-2.1667748598	 3.5612759597	 0.098994
H	 0.7309192024	-0.5227655572	 3.4782329925	 0.132195
H	-0.3607290881	-1.9139965669	 3.4517363336	 0.122733
H	 3.9760006421	-1.6906042441	 0.8184116835	 0.120503
H	 3.4237415182	-0.4089896313	 1.9006995802	 0.14106
H	 3.2859832715	-2.105405695	 2.3872687763	 0.117401
H	 2.4834438398	-0.7520843366	-1.105986375	 0.084339
H	 0.4218461292	 0.5791101712	-1.6748350077	 0.103509
H	-0.2882561418	 0.1726586282	-0.0138024258	 0.129252
