22
gdb 116321	2.93427	1.29674	1.00079	2.4375	82.39	-0.2394	0.0704	0.3097	1266.1432	0.196175	-404.33567	-404.327041	-404.326097	-404.368943	33.522	
C	-0.0123133963	 1.5355769742	 0.0475711363	-0.386032
C	 0.0069106264	 0.0066745505	-0.0156915614	-0.18668
C	 0.7250776244	-0.5400735013	-1.2483604788	 0.140667
O	 2.0627314318	-0.0651070808	-1.2110501011	-0.255997
C	 2.859297644	-0.5679424804	-2.2670582682	-0.07204
C	 3.1483831187	-2.0632273148	-2.093515236	-0.210573
C	 1.8712533515	-2.8200470815	-1.755187313	-0.040147
N	 1.4659986415	-2.7936712472	-0.3355786859	-0.323152
C	 0.6670708337	-2.0574379197	-1.3246253208	-0.058542
H	 1.0052803322	 1.9330974822	 0.0497674746	 0.13553
H	-0.5374484885	 1.9626201041	-0.8146564036	 0.105404
H	-0.5198367217	 1.884188686	 0.9522377983	 0.106432
H	 0.5048485327	-0.4087254032	 0.8669161073	 0.120637
H	-1.0186354437	-0.3842457881	-0.0178579241	 0.084961
H	 0.2355905723	-0.1499863144	-2.1620149964	 0.054153
H	 2.3555192802	-0.3928122408	-3.2333701287	 0.081743
H	 3.7844789757	 0.0157286447	-2.262113003	 0.103681
H	 3.5893846807	-2.4563093209	-3.0164930076	 0.092415
H	 3.8751608701	-2.21063892	-1.288501712	 0.117492
H	 1.7032764603	-3.7474451079	-2.2975835563	 0.082337
H	 0.9991972617	-3.6618969062	-0.0880087758	 0.228138
H	-0.3113368675	-2.4532893444	-1.5925883641	 0.079573
