21
gdb 90916	3.15958	1.4436	1.35074	1.8827	82.77	-0.2303	0.0629	0.2932	1069.0853	0.183796	-386.989944	-386.982335	-386.98139	-387.021454	31.734	
C	-0.0423836738	 1.6159581403	 0.0512109436	-0.420701
C	 0.016745367	 0.0986465465	-0.0236888192	-0.084807
C	 1.0283898954	-0.6342767865	-1.0497088184	-0.321547
C	 1.0495528653	-1.7881175635	 0.0167037147	 0.003938
C	 1.7114622313	-2.4493312289	 1.2859350458	-0.004754
C	 2.8854726509	-1.5565651592	 1.6884611521	-0.209745
C	 2.1387659885	-0.202387103	 1.532321837	-0.24654
C	 0.7733113447	-0.7517167353	 1.0408397192	 0.397136
O	 0.5822983161	-1.8417186646	 2.0592245611	-0.377372
H	 0.9430534167	 2.0556981775	 0.2308672739	 0.118963
H	-0.4278077032	 2.034172256	-0.8851782184	 0.118075
H	-0.708724159	 1.9413558383	 0.8573316608	 0.124811
H	-0.9813595096	-0.3135968872	-0.1978429313	 0.096355
H	 0.6261174118	-0.8868001233	-2.0329065583	 0.106287
H	 1.9560297535	-0.0731154057	-1.1720291877	 0.114845
H	 0.1265915078	-2.3537662978	-0.1331928842	 0.094934
H	 1.7747314748	-3.5304259365	 1.4158035194	 0.079673
H	 3.2064460318	-1.754733621	 2.7131145225	 0.107174
H	 3.7477027721	-1.6635471367	 1.0238233443	 0.097527
H	 2.0015697647	 0.3180272224	 2.4828754063	 0.107975
H	 2.6284824133	 0.4828993482	 0.8378770667	 0.097774
