17
gdb 32719	6.36552	0.73282	0.67577	3.8694	83.06	-0.1901	0.0106	0.2007	1636.1124	0.136264	-418.031246	-418.022418	-418.021474	-418.065782	31.493	
C	-0.090508517	 1.3787745527	 0.0070322555	-0.246428
O	-0.1318933599	-0.0419117365	-0.0078494181	-0.190257
C	 0.5211323445	-0.6330663742	-1.0264100558	 0.103241
N	 0.6815824864	-1.8851584249	-1.0386999108	-0.308097
C	 1.2630977278	-2.4806746736	-2.1618959905	 0.289945
C	 1.0650414945	-2.1779719059	-3.4992405848	-0.16653
N	 1.8222236084	-3.0544702922	-4.2381788966	-0.234505
C	 2.4933974801	-3.9110439274	-3.4036147614	-0.06717
C	 2.161539098	-3.5885444429	-2.1105586007	-0.237072
H	 0.9186041209	 1.747737746	 0.2272215794	 0.129056
H	-0.4277593673	 1.8017254326	-0.9476630417	 0.123614
H	-0.7691483187	 1.6995205729	 0.798311309	 0.14522
H	 0.8721970992	 0.0520607428	-1.8124176487	 0.077813
H	 0.4087304254	-1.4653007438	-3.9711004783	 0.107873
H	 1.8315458879	-3.1008362468	-5.2412612883	 0.260283
H	 3.1453849632	-4.6733413024	-3.7985676448	 0.116539
H	 2.5231777166	-4.0630031465	-1.2121461234	 0.096477
