17
gdb 44969	2.58546	1.82359	1.61385	4.1487	66.66	-0.2502	-0.0036	0.2467	907.5127	0.139392	-459.008365	-459.001709	-459.000764	-459.039275	26.901	
O	-0.0190221699	 0.0108837462	-0.3671085843	-0.337365
C	 0.0130254048	 1.1735805746	-0.0975634685	 0.410972
O	-1.1107160183	 1.9205712904	 0.1224452113	-0.23864
C	-0.7157588432	 3.2825403355	 0.4538811861	 0.090877
C	 0.6106696893	 3.450319809	-0.3008665365	-0.249871
C	 1.2302644355	 2.1107526251	 0.0938379473	-0.00765
O	 1.6328829459	 2.1445173107	 1.4592340309	-0.273552
C	 0.5500720773	 2.2919077611	 2.3802868457	-0.080439
C	-0.458142791	 3.3786853016	 1.9621212119	-0.231779
H	-1.5240714919	 3.9342403446	 0.1211297241	 0.097305
H	 0.4437589803	 3.5135801404	-1.3804279564	 0.118446
H	 1.2033595598	 4.3033983224	 0.0326412922	 0.117639
H	 2.0905900098	 1.7786487441	-0.4849575687	 0.110149
H	 0.02549699	 1.3321279503	 2.488943324	 0.124624
H	 1.0094717767	 2.5278102881	 3.3427682512	 0.118701
H	-0.0724603357	 4.3792818071	 2.1860879913	 0.112627
H	-1.3865820394	 3.2437075287	 2.5258924782	 0.117957
