16
gdb 13583	3.6096	1.37289	1.24307	1.7448	67.57	-0.2472	-0.091	0.1563	1026.7972	0.12857	-383.753331	-383.745056	-383.744111	-383.786469	29.405	
C	-0.0121985821	 1.6652281294	 0.0928507791	-0.420431
C	-0.0696474985	 0.1599026153	 0.2095697571	 0.014319
C	 1.0525665996	-0.7091220023	-0.231514785	-0.286899
C	 0.7527397464	-0.6191084546	 1.2601219478	-0.138364
C	 1.7076925418	 0.0841891606	 2.1303930286	 0.286886
O	 2.4956353612	 0.9458664523	 1.7887971827	-0.315247
C	 1.7105704357	-0.3150916384	 3.6147795336	 0.094224
O	 1.0096266412	-1.1699560613	 4.0884468974	-0.220374
H	 0.9954570066	 2.0420226412	 0.2774451591	 0.154852
H	-0.3139406659	 1.9710715044	-0.9148370753	 0.122093
H	-0.6938000096	 2.1435849938	 0.8040101761	 0.120063
H	-1.0640841035	-0.261831322	 0.087854446	 0.102999
H	 0.8422151552	-1.6554179872	-0.716835172	 0.124003
H	 1.9690442536	-0.2183895894	-0.5431677767	 0.139082
H	 0.249998689	-1.4508750303	 1.7373246703	 0.116958
H	 2.4440064194	 0.2734523585	 4.2056811811	 0.105837
