15
gdb 66016	2.65921	1.3675	1.28947	3.7139	60.87	-0.2752	-0.0159	0.2593	1034.858	0.110857	-494.883883	-494.875485	-494.874541	-494.917428	29.843	
O	 0.2098628523	 1.4636657549	 0.9097778489	-0.462936
C	-0.0080076557	 0.1717989333	 0.4090802422	 0.159003
C	 0.4425097272	-0.1726560115	-1.033872087	-0.130022
O	 1.3282938807	-1.2191694199	-0.5108191168	-0.235052
C	 1.0396292293	-0.9079114351	 0.7873001926	 0.38916
O	 1.5229566023	-1.344592407	 1.7812899263	-0.324691
C	-1.4295664393	-0.2011224886	 0.7715133354	 0.059023
C	-2.5592545964	 0.1396948987	-0.097712977	-0.180156
O	-2.0619787551	-1.2008659278	-0.0186270617	-0.223942
H	 1.1429536727	 1.5725138131	 1.123260629	 0.302159
H	-0.3093101008	-0.6063937704	-1.6921867872	 0.144649
H	 1.0175046293	 0.6140823701	-1.5255344498	 0.124367
H	-1.5951283575	-0.2814996388	 1.8449989337	 0.123421
H	-3.5421967016	 0.2987365872	 0.340265076	 0.132831
H	-2.3790097075	 0.6502826317	-1.0422678846	 0.122188
