21
gdb 61310	4.72521	0.66686	0.65292	1.6418	85.44	-0.253	0.0487	0.3017	1781.6986	0.179868	-387.041076	-387.030802	-387.029858	-387.077	37.769	
O	-0.3051893937	 1.3747496328	 0.0317992452	-0.42233
C	 0.0285915051	-0.0053272695	 0.0492314486	 0.13923
C	 0.7355654257	-0.4364498289	-1.2559269782	-0.39283
C	-0.0392131673	-0.1609023933	-2.4582094015	 0.312601
C	-0.6857167814	 0.0568141035	-3.4473472842	-0.436172
C	 0.8675783306	-0.3683963245	 1.2831331023	-0.230935
C	 0.1661779096	-0.0436981488	 2.5838483495	 0.035558
C	-0.7373383474	-1.062872859	 3.2333625035	-0.255883
C	 0.5868685126	-0.7100660058	 3.8674015963	-0.281319
H	 0.5100005168	 1.8770147932	-0.0815315973	 0.277553
H	-0.9367500871	-0.5204403347	 0.1076001695	 0.104131
H	 1.7084853978	 0.07370381	-1.314996066	 0.117466
H	 0.9619673342	-1.5090258602	-1.1994651875	 0.1303
H	-1.2578632246	 0.2550314993	-4.3193189674	 0.193418
H	 1.1140340947	-1.4380324367	 1.2531730766	 0.092002
H	 1.8267112854	 0.1696962825	 1.2254888661	 0.084848
H	-0.1560320988	 0.9899887906	 2.6579181386	 0.094464
H	-1.6475540786	-0.7189694701	 3.7116806638	 0.113495
H	-0.8266167613	-2.0365192911	 2.7614933998	 0.10656
H	 1.382107548	-1.4473735105	 3.81986229	 0.106874
H	 0.5822598496	-0.1243336289	 4.7800959324	 0.110968
