18
gdb 22761	2.04701	1.44054	0.97882	0.8857	81.99	-0.2463	0.	0.2464	1250.39	0.14484	-401.863108	-401.853545	-401.852601	-401.897896	35.239	
C	-0.9974705931	 1.0634898451	 0.3467898897	-0.400019
C	-0.1242672783	-0.1218230043	-0.0487694594	-0.06494
C	 0.8393657959	 0.0372858128	-1.2695973869	-0.24992
C	 2.0376726058	-0.5139811816	-0.410353231	-0.276121
C	 3.269385662	 0.249306283	-0.4080730438	 0.337139
C	 4.2737798745	 0.9086883821	-0.4449647738	-0.455473
C	 1.0984316746	-0.4208542346	 0.7986921159	 0.409119
N	 1.2111813396	-0.4909883461	 2.0557320581	-0.24215
O	 2.5274283089	-0.7716310929	 2.4491958304	-0.383541
H	-0.3965860576	 1.9718911581	 0.4553107061	 0.122459
H	-1.7658227433	 1.2490425937	-0.411002564	 0.115877
H	-1.4964380287	 0.8756256615	 1.3018580685	 0.133008
H	-0.7450673214	-1.0204079845	-0.1542053722	 0.095625
H	 0.5984668414	-0.5382400965	-2.1642182119	 0.109906
H	 0.994527335	 1.0824515609	-1.5433022741	 0.121598
H	 2.2484424456	-1.5654044757	-0.6427139037	 0.124565
H	 5.1673855206	 1.4816760972	-0.4591643852	 0.194741
H	 2.4606599785	-0.7590562781	 3.4101238774	 0.308128
