19
gdb 36668	3.09481	0.79337	0.66978	1.0369	88.23	-0.2438	0.046	0.2898	1659.6988	0.156451	-348.677097	-348.667291	-348.666347	-348.712466	36.279	
C	-0.1155303644	-1.2044591246	-0.001662182	-0.435027
C	-0.0611341063	-0.0095933863	 0.1177886602	 0.291795
C	 0.0378844246	 1.4385522088	 0.2492357004	-0.350323
C	 1.3686392007	 2.0010357899	-0.2973150708	-0.20929
C	 1.4448255492	 3.5042830227	-0.1594467446	 0.000538
C	 1.8815029359	 4.1429663292	 1.1284384853	-0.289781
C	 2.7868056182	 4.2267687261	-0.0935600684	-0.213629
C	 4.0236869767	 3.5029508427	-0.1307252944	 0.335724
C	 5.0671273013	 2.9049209998	-0.1715324186	-0.469872
H	-0.1747276388	-2.2595963765	-0.1026555215	 0.192943
H	-0.8027811352	 1.9109321722	-0.2761766756	 0.127112
H	-0.0685196891	 1.7212547636	 1.3043412846	 0.132411
H	 2.2043708821	 1.5334738377	 0.231764071	 0.124044
H	 1.4723093589	 1.7151924564	-1.350161854	 0.115645
H	 0.6837015708	 4.0456480562	-0.7168728877	 0.091564
H	 1.4005652138	 5.0567501009	 1.4586609786	 0.118874
H	 2.2113604316	 3.4891588263	 1.9284914219	 0.127819
H	 2.8185017842	 5.1923100063	-0.5901712902	 0.113654
H	 5.9877814356	 2.3774253686	-0.2052728442	 0.195799
