16
gdb 127174	4.31327	1.06089	0.88698	1.4288	74.02	-0.2283	-0.0061	0.2222	1251.7644	0.125947	-434.105026	-434.096697	-434.095753	-434.139004	29.673	
C	-0.3900974553	 1.4068884036	-0.0361188609	-0.370507
N	-0.042314911	-0.0102689672	 0.0106155616	-0.18266
C	 0.2557291451	-0.5918124694	 1.2255663706	 0.14804
O	 0.2090026296	-0.0182491473	 2.289089483	-0.325531
C	-0.0312024318	-0.7677499221	-1.161753004	 0.462079
C	-0.3636435877	-2.0873254613	-1.409762609	-0.309973
C	-0.11783174	-2.2542347918	-2.7897481046	 0.006145
N	 0.3132116665	-1.1390066783	-3.3662120545	-0.222756
N	 0.3684544919	-0.2457574191	-2.3524520083	-0.269103
H	 0.4204812318	 2.0085645179	-0.46490548	 0.129866
H	-1.2980633258	 1.5528409919	-0.6271878119	 0.144058
H	-0.5541345097	 1.7334909517	 0.9904857423	 0.180115
H	 0.5482705102	-1.6492024586	 1.110089683	 0.100212
H	-0.7564765728	-2.8030636584	-0.7075783622	 0.114637
H	-0.2554243676	-3.1443277182	-3.3859732989	 0.118387
H	 0.6893704368	 0.6884199866	-2.5401003762	 0.276991
