17
gdb 73202	2.35913	1.51043	1.37548	2.1048	68.05	-0.2486	-0.0338	0.2148	1022.6284	0.134048	-458.927407	-458.919009	-458.918064	-458.960822	30.934	
O	 0.3791697401	 1.2908258617	 0.0557126172	-0.477175
C	 0.0694494985	-0.0660134003	 0.0707464287	 0.338031
C	 0.2605698639	-0.8728916952	-1.2365207106	-0.142012
O	-1.1269466161	-1.2982022531	-1.2254032189	-0.287087
C	-1.3919510712	-0.5805760627	-0.0109659431	 0.078477
C	-1.177980816	-1.4557013071	 1.2553762882	-0.278008
C	 0.263925655	-0.8507551348	 1.3968772048	-0.163168
C	 1.4443395231	-1.7649584501	 1.5529904808	 0.13632
O	 2.4408711465	-1.7027347401	 0.8738836212	-0.253185
H	 1.3393160204	 1.3779199969	 0.0236727126	 0.290208
H	 0.4713184859	-0.2227538828	-2.0937102098	 0.107957
H	 0.9617712032	-1.7113062353	-1.2215841678	 0.120487
H	-2.2774057336	 0.0558995565	-0.0641754433	 0.091103
H	-1.8401549345	-1.2388615616	 2.0952600403	 0.114924
H	-1.2171418095	-2.5227628003	 1.0267631921	 0.121956
H	 0.286176535	-0.1409057313	 2.2334471732	 0.116533
H	 1.3493857593	-2.5271980503	 2.3602182746	 0.084639
