18
gdb 126179	4.02289	0.96551	0.86142	1.3882	73.37	-0.2604	-0.0111	0.2492	1364.7759	0.148935	-435.273237	-435.264337	-435.263393	-435.30797	32.028	
C	-0.0442378811	 1.5887926249	 0.0606344117	-0.385945
C	-0.0758556108	 0.0685117306	 0.2221118063	-0.173387
C	-1.4485228593	-0.5328969883	-0.1430557969	 0.005823
O	-1.8198873146	-0.2057000776	-1.4720137046	-0.432444
C	-1.4635606337	-2.0222492808	 0.073329855	 0.324733
N	-1.255553155	-2.8561472563	-0.9477717172	-0.301977
N	-1.300458464	-4.0569035792	-0.3841415164	-0.067588
N	-1.5220691775	-4.0875966185	 0.9201764283	-0.192285
C	-1.6277830614	-2.79621313	 1.2371621477	-0.136952
H	 0.9510667123	 1.9876025365	 0.2776869101	 0.109555
H	-0.3153126161	 1.8679828603	-0.9604184227	 0.136369
H	-0.7542995977	 2.0733779077	 0.7404827403	 0.111414
H	 0.6812626393	-0.4001980806	-0.4194777884	 0.099084
H	 0.1699670956	-0.2144546329	 1.2536228925	 0.094187
H	-2.207895658	-0.0765761243	 0.5064367126	 0.091973
H	-1.4860754695	-0.9098683686	-2.0408844756	 0.29536
H	-1.1926512241	-4.900594689	-0.9235084182	 0.295175
H	-1.8166259945	-2.4893187536	 2.2534172955	 0.126904
