20
gdb 22175	2.28381	1.44315	1.11151	0.9954	78.08	-0.2458	0.0057	0.2515	1181.1057	0.169102	-440.262162	-440.252687	-440.251743	-440.296126	35.798	
C	 0.0111852285	 1.5290369004	-0.0097622038	-0.411329
C	-0.0296614047	-0.0070883159	 0.0401944715	 0.299924
C	-1.4633385713	-0.5302442717	-0.0013701799	-0.414427
O	 0.6711013075	-0.5624580971	-1.085250529	-0.29164
C	 2.0364861419	-0.7534770508	-0.7358760074	-0.100809
C	 2.0298872051	-1.1809838433	 0.7397587068	-0.326326
C	 0.7619550645	-0.5348867184	 1.2344734062	 0.358612
N	 0.3388870981	-0.4024868911	 2.4239717982	-0.233845
O	 1.2362862268	-0.9607998064	 3.3527663551	-0.39145
H	 1.0406784515	 1.8994621795	-0.0130707663	 0.113392
H	-0.4856037679	 1.8840037931	-0.9174016116	 0.120007
H	-0.4943027498	 1.9491697188	 0.8640705359	 0.129465
H	-1.9678151706	-0.1745563749	-0.9044714312	 0.118643
H	-1.468279116	-1.6229717347	-0.0083032203	 0.118496
H	-2.0144713067	-0.1831136277	 0.8760149774	 0.130567
H	 2.4488072582	-1.5065120856	-1.411782614	 0.112161
H	 2.6130706209	 0.1752685	-0.8676790427	 0.095476
H	 1.9547879095	-2.2693019543	 0.8471786343	 0.13496
H	 2.9043800179	-0.8583707288	 1.3099881564	 0.132122
H	 0.7950674365	-0.788134551	 4.1914161846	 0.305998
