22
gdb 112512	2.11014	1.20811	1.08456	4.0023	85.89	-0.2939	0.0315	0.3254	1306.1594	0.193955	-367.230899	-367.221072	-367.220128	-367.265675	36.419	
C	 0.4671410565	 1.3725256805	 0.3687755447	-0.386085
C	 0.4299265684	-0.1468545172	 0.1731360449	-0.19206
C	 0.5660835121	-0.5532638866	-1.2965393025	 0.015157
C	 2.0091180049	-0.4301173558	-1.8681764635	-0.241547
C	 2.1752052661	-1.9840493232	-1.7800154308	-0.178563
C	 2.9612728445	-2.4319908125	-0.6413768159	 0.288702
N	 3.5790713651	-2.7841568455	 0.2715449142	-0.346016
C	 0.6153946764	-2.0898431673	-1.5936264686	 0.009208
C	 0.0381705362	-3.0992413852	-0.6145597893	-0.420582
H	 1.4051785229	 1.8027714033	 0.0018806316	 0.118828
H	-0.3530486397	 1.859944114	-0.1702186426	 0.113923
H	 0.3755136599	 1.6362367074	 1.4265804443	 0.117855
H	 1.2254746981	-0.6121857223	 0.7679763446	 0.118914
H	-0.5157707045	-0.539018929	 0.567468026	 0.099043
H	-0.1939613888	-0.0224691307	-1.879571465	 0.067788
H	 2.0383307138	-0.0916410879	-2.905891862	 0.110805
H	 2.7211747567	 0.1579044371	-1.2863194094	 0.121567
H	 2.5674181727	-2.4687366895	-2.6777015829	 0.117697
H	 0.1916231692	-2.268748659	-2.5870991394	 0.084379
H	 0.4676236026	-2.9946444246	 0.3850803159	 0.141095
H	-1.0473988498	-2.9797514253	-0.53364142	 0.118364
H	 0.2348461066	-4.1221032807	-0.9531016144	 0.121529
