15
gdb 64607	2.54302	1.53085	1.26121	4.0256	68.43	-0.2464	-0.061	0.1855	1021.3668	0.110679	-457.792226	-457.784086	-457.783142	-457.825263	30.126	
O	 0.1245882288	 1.4981567366	-0.02951754	-0.461345
C	 0.0669061796	 0.1082802142	 0.0561162702	 0.181
C	 0.7257715603	-0.5113034196	-1.1714668542	 0.115839
O	 1.1275505513	 0.1750704346	-2.077753659	-0.264583
C	 0.6408835077	-0.4574854168	 1.3331552693	-0.118654
C	-0.1903515574	-1.2948762222	 1.9562196491	-0.078831
C	-1.5145382196	-1.4470120877	 1.2598650423	-0.374181
C	-1.4235693522	-0.4202605992	 0.125698509	 0.345576
O	-2.3105689245	-0.0280968692	-0.5738208942	-0.282661
H	 0.432572311	 1.6951041039	-0.9297186981	 0.299278
H	 0.8069043647	-1.6155231844	-1.1821690829	 0.105675
H	 1.6314961152	-0.1765897114	 1.669105504	 0.121872
H	 0.0363942285	-1.8055551848	 2.8849361081	 0.117369
H	-1.6664780291	-2.4440897179	 0.8241449736	 0.145541
H	-2.3843475643	-1.2559298461	 1.899152963	 0.148105
