23
gdb 86422	2.35073	1.54764	1.11128	1.4156	84.25	-0.2541	0.0719	0.326	1191.2973	0.207416	-388.296687	-388.287896	-388.286952	-388.329793	34.918	
C	-0.225912641	 1.5545665653	 0.0034596143	-0.408483
C	 0.1300349219	 0.0700593782	-0.0612717272	 0.031435
C	 1.161317639	-0.314277627	-1.1385158701	-0.266962
C	 1.56684191	-1.7516358688	-0.7578701628	 0.123373
O	 2.8167746033	-2.1802194938	-1.275902872	-0.438405
C	 1.5990373524	-1.7587898259	 0.7808256682	-0.024666
C	 2.8495973065	-1.0994283533	 1.4269262462	-0.218137
C	 2.0000261223	 0.1411764005	 1.8191898234	-0.231157
C	 0.7241230987	-0.5366447456	 1.228870135	-0.012098
H	 0.6538790152	 2.1719637513	 0.2121539546	 0.116081
H	-0.651858453	 1.8993711889	-0.9449178486	 0.110168
H	-0.9641054314	 1.7504387622	 0.7889207846	 0.110632
H	-0.7936100978	-0.4870427281	-0.2764194829	 0.068915
H	 0.7655631766	-0.2371380804	-2.1573295075	 0.082257
H	 2.0444284067	 0.3349488013	-1.0800781438	 0.102283
H	 0.7698195975	-2.4374184331	-1.0899896023	 0.059846
H	 2.7685875751	-2.1439374478	-2.2360749813	 0.280391
H	 1.3400033116	-2.739645345	 1.183614725	 0.061286
H	 3.2421972932	-1.6565165344	 2.2805681051	 0.09438
H	 3.671861631	-0.9178321079	 0.7326017747	 0.113127
H	 1.9466992491	 0.3425006671	 2.8918089713	 0.094229
H	 2.2964763628	 1.0698141263	 1.3235091662	 0.094746
H	-0.0471900896	-0.7374764799	 1.97634515	 0.056758
