18
gdb 63795	3.21961	1.29263	1.26107	3.6031	71.9	-0.2391	-0.0014	0.2377	1069.0475	0.146613	-439.074971	-439.066634	-439.06569	-439.107682	32.259	
C	 0.0373807712	 1.5482348477	-0.0941882143	-0.463537
C	 0.005596746	 0.0278255135	-0.016562096	 0.376341
O	-1.3126641313	-0.4675648963	-0.1118325614	-0.472366
C	 1.0630556499	-0.7037050452	-0.9256687687	-0.242936
N	 1.7840190566	-1.1711197354	 0.2976939842	-0.131102
C	 0.7087473391	-0.6474842221	 1.2078087663	-0.010877
C	 1.7743109682	 0.0991683117	 2.0396643265	-0.39807
C	 2.72971483	-0.2856838634	 0.8819436829	 0.381265
O	 3.8049945773	 0.071914561	 0.4983915582	-0.320068
H	 1.0532645286	 1.9447059787	-0.012172289	 0.137617
H	-0.3598075723	 1.882123397	-1.060996308	 0.115396
H	-0.5767830726	 1.9848531577	 0.6992975432	 0.132047
H	-1.747310344	-0.0409552969	-0.8583418891	 0.280811
H	 0.6305418331	-1.5393548032	-1.4808662657	 0.119669
H	 1.6799834921	-0.0888446493	-1.5868973846	 0.122992
H	 0.0806356918	-1.3856891088	 1.7076160436	 0.097422
H	 1.6579987617	 1.173712633	 2.189945922	 0.13626
H	 2.0025023448	-0.3709691097	 2.9995083099	 0.139138
