21
gdb 41316	3.10707	1.65133	1.30899	0.153	86.62	-0.2305	0.0279	0.2584	1039.8222	0.185162	-349.944959	-349.937646	-349.936702	-349.976782	30.17	
C	-0.0332207036	 1.5203418837	 0.0386951545	-0.219255
C	 1.5261360615	 1.5470773952	 0.0036890798	-0.309909
C	 1.5556401731	 0.0046931758	 0.0437935043	 0.389912
C	 2.4986293908	-0.8310402222	-0.8260562182	-0.379069
C	 2.7298396307	-2.0726533425	 0.0073699023	-0.064681
C	 2.1925281389	-1.9850506497	 1.2255528256	-0.078322
C	 1.4738446345	-0.6843005889	 1.4486172626	-0.099292
C	-0.0882842825	-0.7438541145	 1.3485101363	-0.241555
C	-0.0193885814	-0.0339016965	-0.0264201406	-0.061907
H	-0.4880057701	 1.9295598896	 0.9457229849	 0.094638
H	-0.5041275496	 2.0029616782	-0.8209433617	 0.098625
H	 1.9179621547	 1.9501680733	-0.9353811709	 0.096235
H	 2.0323835839	 2.0604033291	 0.8275902467	 0.091358
H	 2.0629915561	-1.0588664288	-1.808540918	 0.101033
H	 3.4427403367	-0.3032402713	-1.029895597	 0.100678
H	 3.2887177916	-2.9255085529	-0.3642619721	 0.088169
H	 2.2440522978	-2.7598521968	 1.9842887718	 0.088119
H	 1.8616832958	-0.1256163577	 2.3087577032	 0.062748
H	-0.4735827218	-1.7659941797	 1.3059735179	 0.095897
H	-0.6374440154	-0.1998835439	 2.1234234495	 0.090098
H	-0.5626067915	-0.4898346295	-0.8569184708	 0.05648
