21
gdb 76741	2.03216	1.80342	1.15081	2.1887	78.59	-0.2411	0.0794	0.3205	1156.0985	0.179742	-424.21098	-424.201064	-424.200119	-424.245055	37.281	
C	-0.1836337357	 1.5485087915	 0.0281024734	-0.411957
C	-0.0554733987	 0.0344174552	-0.046478303	-0.097746
C	 1.0410781924	-0.5814666311	-1.0140141726	 0.073154
O	 1.906957362	 0.294709085	-1.6838125456	-0.433998
C	 1.6382122373	-1.3156606889	 0.2016323695	 0.298687
C	 2.4253819567	-2.5839269257	 0.2454844867	-0.513994
O	 2.0250859041	-0.2390689206	 1.0889975948	-0.346486
C	 0.6497473905	-0.6964009292	 1.1095567454	 0.352141
C	 0.0837675951	-1.1345712585	 2.4212686074	-0.505738
H	 0.7556660156	 2.0054324742	 0.3513849405	 0.120076
H	-0.4424011834	 1.9656139265	-0.9496909368	 0.125792
H	-0.9626781956	 1.8442412225	 0.738762296	 0.111339
H	-1.0268894717	-0.4281320795	-0.2554306684	 0.070084
H	 0.6089514841	-1.2449443678	-1.7676955672	 0.08484
H	 2.4056701508	 0.7483613438	-0.9917525927	 0.289285
H	 3.3961996796	-2.4506409896	-0.2445841935	 0.13757
H	 2.6051910769	-2.8964802156	 1.2777742202	 0.131144
H	 1.8936908856	-3.3856616235	-0.2773322174	 0.125362
H	-0.1404285608	-0.2705059089	 3.0567220148	 0.133695
H	-0.8476184046	-1.6903884349	 2.2713206553	 0.124868
H	 0.7913759698	-1.7726007052	 2.9576502834	 0.131883
