19
gdb 53146	2.83159	1.09927	0.931	1.3963	85.08	-0.2206	0.0535	0.2741	1347.7031	0.157333	-385.824607	-385.815191	-385.814246	-385.860589	33.87	
C	 0.2926781573	 1.5761131709	 0.0267946284	-0.502522
C	 0.1575791937	 0.1266104903	 0.0368698921	 0.124814
C	 0.0344262792	-1.0722039968	 0.0544951877	 0.058027
C	-0.0267257846	-2.5069030463	 0.063925476	-0.243555
C	-0.4961352026	-3.3408462442	 1.2313246381	 0.084572
O	-1.5494253713	-2.7107724664	 1.9472912026	-0.299331
C	-2.4382216513	-2.8622326362	 0.7930682367	 0.144787
C	-3.2227410877	-1.6192543038	 0.4342239815	-0.415791
C	-1.2769076531	-3.3849414247	-0.0573798048	-0.180405
H	 1.3330437788	 1.8757853516	-0.1424763153	 0.147201
H	-0.3146687184	 2.0325846697	-0.7630813056	 0.14502
H	-0.0239104964	 2.0105047486	 0.9816252224	 0.150304
H	 0.8056025991	-2.9874572571	-0.4499336478	 0.111865
H	 0.1181903702	-4.0654000326	 1.7544282902	 0.10696
H	-3.1236309472	-3.6936807438	 1.0075812768	 0.084838
H	-2.5619321007	-0.7871785967	 0.1910437469	 0.145136
H	-3.8676344989	-1.8271267126	-0.4267402445	 0.114469
H	-3.8638905686	-1.3290428496	 1.273048571	 0.12367
H	-1.3514627176	-4.1523122004	-0.8163827324	 0.09994
