20
gdb 94160	2.36089	1.39416	1.16445	3.4623	74.78	-0.2424	0.0315	0.2739	1154.3709	0.169659	-440.313326	-440.303322	-440.302378	-440.348246	36.962	
C	-0.0492237512	 1.6054621871	 0.207974508	-0.428563
C	-0.0222147978	 0.0826747884	 0.0247984409	 0.174203
C	 1.0930766705	-0.3909507307	-0.9614354669	-0.294047
C	 2.0178810827	-0.6437247983	 0.2645609806	-0.258414
C	 0.7658543553	-0.6507364589	 1.1602769788	 0.141116
O	 0.9073524658	-0.0244436968	 2.4066363288	-0.431834
C	-1.4484428373	-0.4205497207	-0.1191627319	 0.332971
N	-1.9117839925	-0.5823574456	-1.390451758	-0.529555
O	-2.1345118024	-0.6496323162	 0.8636487691	-0.384941
H	 0.9519924077	 1.9957437504	 0.4076960552	 0.125959
H	-0.4372594382	 2.0962927568	-0.691210534	 0.107201
H	-0.6884550127	 1.878417071	 1.0514124467	 0.132611
H	 0.8310844384	-1.3197374452	-1.4761019894	 0.103013
H	 1.4364375353	 0.3376301216	-1.7003947599	 0.09908
H	 2.6399754426	-1.5405265025	 0.2598940442	 0.102219
H	 2.6461517401	 0.2219983862	 0.4870024528	 0.117788
H	 0.3696105574	-1.6685618474	 1.2728709092	 0.076885
H	 0.0571975577	-0.0992698535	 2.8553021379	 0.291964
H	-1.351836394	-0.3631387902	-2.1950280421	 0.26211
H	-2.8698163773	-0.8625779156	-1.5236460202	 0.260234
