18
gdb 97593	3.02947	0.71724	0.61452	0.916	77.94	-0.25	0.0204	0.2704	1788.8527	0.145827	-439.005532	-438.995282	-438.994338	-439.043016	35.358	
O	-0.2616171359	 1.5196786827	 0.4373795227	-0.399056
C	-0.3152287233	 0.3596445293	-0.3799688145	-0.194209
C	-1.4708932732	-0.4959192231	-0.1111125297	 0.064844
C	-2.4194782023	-1.1974420008	 0.1363164698	 0.053822
C	-3.5645230725	-2.0479624987	 0.4747164122	-0.100674
O	-3.1681363643	-3.3673507318	 0.8436930156	-0.411499
C	-4.4227813089	-1.3909808249	 1.5454111164	 0.021945
C	-5.6330733273	-0.6290307986	 1.1516742085	-0.234663
N	-5.7543301	-1.9297298684	 1.829319943	-0.3182
H	-0.3235546133	 1.2317988207	 1.3540719242	 0.287323
H	-0.353377401	 0.7248557526	-1.4122156976	 0.14511
H	 0.605171207	-0.2396319957	-0.2911668811	 0.121619
H	-4.1842113079	-2.194251041	-0.4199895472	 0.110627
H	-2.5456330056	-3.2914503589	 1.5757616862	 0.284249
H	-3.8698749347	-1.0806757471	 2.4307325994	 0.091775
H	-5.9520283565	 0.2272964322	 1.7382117816	 0.124065
H	-5.8659441812	-0.561928813	 0.0915154829	 0.11536
H	-5.980133379	-2.6657271754	 1.1634717974	 0.237562
