20
gdb 101088	2.14475	1.36942	0.9603	2.6435	75.99	-0.2466	-0.0242	0.2224	1282.4743	0.16893	-440.270033	-440.260048	-440.259104	-440.304985	36.328	
C	 0.0618830902	 1.4368047403	-0.0924083089	-0.412858
C	-0.0006637713	-0.093706715	-0.1161369522	-0.18823
C	-1.409164794	-0.6470245457	 0.151557344	 0.019677
O	-2.346386033	-0.1978269347	-0.8264448026	-0.451323
C	-1.4428084427	-2.1693862191	 0.1093377773	 0.222498
C	-2.6958833706	-2.8763485014	-0.3197513915	-0.274043
N	-1.5268442585	-2.8686967875	-1.1943162637	-0.352977
C	-0.6241334401	-2.8999342466	 1.1175209881	 0.132604
O	-0.1115636379	-2.396856294	 2.0880349595	-0.278218
H	 1.0896082173	 1.7855239122	-0.2267475248	 0.126712
H	-0.5304009763	 1.8876150439	-0.897643167	 0.107189
H	-0.3000674355	 1.8361574708	 0.862036429	 0.122644
H	 0.3456437804	-0.4677595768	-1.0874394646	 0.101392
H	 0.668988331	-0.497510385	 0.6480422152	 0.133868
H	-1.7265144952	-0.3305649267	 1.1571207628	 0.089167
H	-2.3554008836	 0.7629850176	-0.8122117326	 0.293114
H	-2.9426317533	-3.8420046008	 0.1135580389	 0.121429
H	-3.536477589	-2.2365129614	-0.5629346662	 0.14527
H	-1.6642479636	-2.1517562598	-1.9052904441	 0.250924
H	-0.5413587342	-3.9882859303	 0.9040554833	 0.091161
