15
gdb 5324	4.62022	1.41469	1.33944	1.9596	61.94	-0.25	-0.0039	0.246	946.9814	0.119516	-399.829091	-399.821672	-399.820728	-399.861284	27.019	
C	 0.0811544277	 1.5310338021	 0.1541346794	-0.394761
C	-0.0255048503	 0.0046765757	 0.041531829	 0.01705
O	-1.3834969431	-0.413744782	-0.0086760882	-0.432002
C	 0.7159935853	-0.5151035813	-1.1566544566	 0.271982
C	 1.8750300723	-1.2019886824	-1.2794871756	-0.13702
O	 2.0983149137	-1.4335599545	-2.6120978988	-0.140489
C	 1.0388055141	-0.8701156613	-3.2282106098	 0.079619
N	 0.1885233091	-0.3106383574	-2.4333312758	-0.319721
H	 1.1201651167	 1.8440320553	 0.3000572159	 0.112234
H	-0.2935591767	 2.0046489167	-0.7588040417	 0.127272
H	-0.5167242617	 1.8784300935	 1.0008241767	 0.123127
H	 0.3938140561	-0.4539875925	 0.9440580224	 0.091537
H	-1.6892119017	-0.2380404065	-0.9074139843	 0.292531
H	 2.612098	-1.5840216717	-0.5950126058	 0.152904
H	 1.0060985785	-0.9428185638	-4.3040078568	 0.155736
