23
gdb 109506	1.82684	1.37695	1.00496	0.8444	93.28	-0.235	0.0513	0.2862	1359.1853	0.202494	-351.126621	-351.115734	-351.114789	-351.162042	40.671	
C	 0.2585367155	 1.5095854604	 0.1642677631	-0.375631
C	-0.1957318584	 0.0703353211	-0.1077522088	-0.211582
C	 0.5640288953	-0.5614427279	-1.2557382569	-0.033072
C	 1.9151158699	-1.2544225587	-1.0398055566	-0.270296
C	 2.4631709877	-1.4043751733	 0.2747013583	 0.342143
C	 2.9362172618	-1.5257732847	 1.375634287	-0.466562
C	 0.6793161781	-2.0458541199	-1.4907549013	 0.281749
C	 0.0417181807	-3.0321901952	-0.5314064304	-0.454367
C	 0.6851918605	-2.5184262631	-2.9334463183	-0.44799
H	 1.3156752646	 1.5349392586	 0.4459643702	 0.129515
H	 0.1317820683	 2.1406983288	-0.7225461625	 0.109482
H	-0.3193319789	 1.9583659092	 0.9781430926	 0.109021
H	-0.0673401865	-0.5227759574	 0.8020591199	 0.110391
H	-1.2687170114	 0.0585581377	-0.3400871625	 0.094315
H	 0.5326689848	 0.0356973717	-2.1659734846	 0.07983
H	 2.6616482735	-1.0820503824	-1.8108160537	 0.103501
H	 3.3582048694	-1.6378721671	 2.3431920555	 0.191286
H	 0.1494596016	-2.7313042711	 0.5115064005	 0.132037
H	-1.0266711618	-3.1455053837	-0.7486030512	 0.11261
H	 0.5076750741	-4.0184306273	-0.6366703246	 0.116734
H	 1.2215323632	-3.4689996832	-3.0350524169	 0.118021
H	-0.3381428481	-2.6744629123	-3.2952908601	 0.116036
H	 1.1641379763	-1.7898123104	-3.5951073287	 0.112832
