20
gdb 102706	3.12097	0.7784	0.64654	4.7248	74.78	-0.2545	0.008	0.2625	1696.6413	0.16907	-477.402153	-477.39147	-477.390526	-477.439217	36.879	
O	 0.1258273807	 1.366679843	-0.0977013832	-0.413354
C	 0.0328996849	-0.0458941054	-0.0832904708	-0.070642
C	-1.4179067475	-0.5553037633	-0.0662213704	-0.065825
C	-2.1974333581	-0.0661248353	-1.302379039	-0.050662
O	-3.5980529103	-0.110249625	-1.1434657335	-0.429971
C	-1.4152384952	-2.0764882866	 0.0557765379	-0.091927
O	-2.7725393159	-2.5414669726	 0.0497059058	-0.198354
C	-2.9671624581	-3.8591570536	 0.2680981823	 0.133082
N	-4.1250986561	-4.3449474563	 0.1627703317	-0.435905
H	-0.2811555967	 1.7010078126	 0.7084103092	 0.286221
H	 0.5368657673	-0.3805809168	-0.9980565392	 0.116001
H	 0.5903476246	-0.4734720867	 0.7660745168	 0.088494
H	-1.9227436564	-0.1435555937	 0.8195220808	 0.087252
H	-1.9354105615	 0.9801487584	-1.4809303989	 0.121417
H	-1.8637847113	-0.6409013142	-2.1854782852	 0.076775
H	-3.8306388624	-1.0144921895	-0.9011602367	 0.296518
H	-0.8772788321	-2.5244696598	-0.7920542356	 0.113984
H	-0.9210252431	-2.3974458511	 0.9828223578	 0.109899
H	-2.0476039056	-4.3959632105	 0.5381841253	 0.092001
H	-4.1107868773	-5.3401769736	 0.3747587649	 0.234996
