23
gdb 122437	4.42141	0.58151	0.55853	2.0195	83.44	-0.2465	0.0775	0.324	2031.8748	0.202901	-425.409165	-425.398126	-425.397182	-425.445887	40.13	
C	 0.0642551678	 1.5447721809	-0.2583501343	-0.447286
C	 0.0204930717	 0.0540894337	-0.0084329955	 0.381991
O	-1.1387176665	-0.5642989784	-0.5167066913	-0.466974
C	 1.2885301991	-0.7708066188	-0.0120359049	-0.351367
C	 0.4962150184	-0.5698082649	 1.2711787199	-0.016492
C	 1.0617619381	 0.2102002576	 2.439570767	-0.230622
C	 1.9293489717	-0.6617411496	 3.355997728	-0.15342
C	 2.5031915302	 0.1080514145	 4.5375341119	-0.076235
O	 3.2820242523	-0.7915556704	 5.3125583833	-0.422029
H	 0.960905341	 2.0060246576	 0.1627626784	 0.117416
H	 0.0664626868	 1.7509539467	-1.3361788216	 0.105419
H	-0.8147544501	 2.0334591861	 0.1744093059	 0.124754
H	-1.1009267625	-0.5100857767	-1.4784846918	 0.276786
H	 1.2512613937	-1.7456445657	-0.4853988116	 0.109278
H	 2.2377805138	-0.2513672842	-0.1086197692	 0.103075
H	-0.1033456942	-1.4295678214	 1.5600470509	 0.095131
H	 1.6590596153	 1.0547951343	 2.0739213343	 0.091087
H	 0.2388839194	 0.647587527	 3.0219800893	 0.098439
H	 1.3412165042	-1.5032033098	 3.7419983611	 0.10534
H	 2.7573025735	-1.0969052268	 2.7840803506	 0.108466
H	 3.1142837092	 0.9500928879	 4.1712192211	 0.080653
H	 1.6826015331	 0.5402945543	 5.1341757682	 0.082425
H	 3.6363666439	-0.3103238037	 6.0657428704	 0.284167
