17
gdb 80051	2.75706	1.95008	1.38445	1.3478	71.3	-0.2379	-0.0089	0.2289	937.7785	0.136608	-417.961719	-417.954271	-417.953327	-417.993133	29.516	
C	-0.0440848803	 1.5343320807	 0.0755340419	-0.503557
C	-0.06039532	 0.0404092066	 0.0884876392	 0.341179
C	 0.1333309976	-0.9719149398	 1.1613166145	-0.092233
C	-0.6198349618	-2.0343924032	 0.3045001075	-0.089304
N	 0.4050058498	-2.7217459828	-0.4987470018	-0.19406
C	 1.3600231982	-1.8843232046	-0.5558273007	 0.031629
N	 1.2541377487	-0.6921375308	 0.2412914078	-0.206282
C	-1.1309847193	-0.8367262875	-0.5804000913	 0.072189
O	-2.3829837808	-0.3275131951	-0.1792466574	-0.436757
H	 0.6811937446	 1.9184148227	 0.7968595466	 0.133114
H	 0.2288601648	 1.9117269863	-0.9163378721	 0.125459
H	-1.0381225124	 1.9170779386	 0.3234749045	 0.144003
H	 0.2729249442	-0.8838051633	 2.2330223305	 0.101665
H	-1.3678447323	-2.6961454068	 0.7361877633	 0.078522
H	 2.2573699998	-2.0235849266	-1.1497975833	 0.13005
H	-1.0783738912	-0.9989685027	-1.6657259248	 0.073888
H	-3.0613690496	-0.9451167817	-0.4711641744	 0.290495
