21
gdb 105085	2.7652	1.2128	1.08789	2.6472	77.83	-0.2316	0.0817	0.3133	1238.4243	0.181074	-424.190706	-424.181322	-424.180377	-424.224885	35.905	
C	 0.0547826763	 1.682389328	 0.3114555894	-0.403248
C	 0.0416509404	 0.1671239348	 0.5205387207	-0.239877
C	-1.2228506735	-0.5518746358	 0.0749602492	 0.381791
C	-2.5147786497	 0.1383196398	-0.0726932059	-0.224734
O	-1.7185612396	-0.1673817787	-1.2279337589	-0.290689
C	-1.192478486	-2.0381147032	 0.3100824325	-0.134006
C	-2.0850251019	-2.9702245875	-0.4929210124	-0.360434
C	-0.6067491711	-2.9312245612	-0.7633017093	 0.144848
O	-0.0870619437	-2.4013822402	-1.9438610495	-0.43212
H	 1.0509928448	 2.0852654381	 0.5141212288	 0.116404
H	-0.2089943774	 1.9311169185	-0.7201506196	 0.136442
H	-0.6467864293	 2.1936727197	 0.9782823938	 0.114536
H	 0.8700141043	-0.2914355241	-0.0336395525	 0.12693
H	 0.2130492448	-0.0722423487	 1.57776161	 0.101624
H	-3.4334403259	-0.4378635178	 0.0204699396	 0.115991
H	-2.6050687915	 1.1998823106	 0.1429684352	 0.119063
H	-0.9896248183	-2.3097998317	 1.3427965683	 0.087244
H	-2.5165433086	-3.8328242783	 0.0031945729	 0.110837
H	-2.7220414629	-2.5086268954	-1.2409469313	 0.123113
H	-0.0062293993	-3.7774327873	-0.4458483073	 0.104052
H	-0.657902002	-1.6710702498	-2.2142445336	 0.302233
