19
gdb 87595	3.43524	1.29239	1.17729	1.8494	81.8	-0.2346	0.0039	0.2384	1130.5759	0.159482	-385.873734	-385.865889	-385.864944	-385.905832	31.264	
C	-0.0228428354	 1.5390302378	-0.1704177591	-0.42262
C	-0.0117927585	 0.0469553937	 0.0457712128	-0.001253
O	 1.2496128409	-0.6203286473	-0.0582771214	-0.311444
C	 0.5788359712	-0.6229284227	 1.2202591705	 0.420528
C	 1.2383014006	 0.0487454743	 2.3770560241	-0.178878
C	 1.2519723879	-0.7550986713	 3.4470206508	-0.081953
C	 0.5605625706	-2.0502026735	 3.1835100601	-0.092502
C	-0.9198683849	-1.9359034177	 2.8622229618	-0.285721
C	 0.0909014876	-1.9550588622	 1.7437248736	-0.130708
H	 0.8128854357	 2.023243034	 0.3392761075	 0.126724
H	 0.0548163339	 1.7666434951	-1.2389095311	 0.12878
H	-0.9586836357	 1.9734170439	 0.1974301823	 0.121814
H	-0.8290328614	-0.4863971654	-0.4464459252	 0.083204
H	 1.6294509709	 1.0564993188	 2.3318650203	 0.101371
H	 1.6710935692	-0.5010460631	 4.4138965281	 0.102164
H	 0.9342610107	-2.9700499058	 3.618530346	 0.092462
H	-1.5308286894	-2.8246697466	 2.9849640033	 0.112468
H	-1.4188428025	-1.0034297372	 3.1055879577	 0.114575
H	 0.1236552187	-2.8011748846	 1.0686227278	 0.100988
