19
gdb 80570	2.48795	1.4832	1.21884	1.2907	70.72	-0.2319	0.0689	0.3008	1100.2417	0.158342	-460.142541	-460.133895	-460.132951	-460.175406	33.849	
C	 0.2820143851	 1.5545771426	 0.1127853824	-0.407065
C	 0.120506502	 0.0514712733	-0.0059814502	 0.151994
C	 0.7356839903	-0.6015789667	-1.2632482811	-0.327011
C	 1.2063484525	-1.9661577372	-0.7569120976	 0.308191
O	 0.7918408099	-3.1319329025	-1.398514095	-0.46611
C	 2.4832579563	-1.9756684153	 0.0721073039	 0.024085
O	 3.3247955794	-0.870085603	 0.1188541325	-0.429279
C	 1.1289171293	-1.8904510484	 0.745209677	-0.032786
O	 0.7930818734	-0.5778564161	 1.1152844933	-0.289492
H	 1.3371678275	 1.8372544104	 0.0388269643	 0.121078
H	-0.2645931492	 2.0578805977	-0.6906227715	 0.122239
H	-0.1073738004	 1.9120175274	 1.0700491517	 0.129171
H	-0.944941679	-0.2161263923	 0.0540585204	 0.083533
H	-0.0018123073	-0.7353477532	-2.0575991283	 0.110951
H	 1.5691791332	-0.0028446705	-1.6459716275	 0.112847
H	 1.4028558846	-3.3070505622	-2.1228889035	 0.286269
H	 3.0045555734	-2.928850382	 0.1262696793	 0.100386
H	 2.9073325436	-0.2517341538	 0.7361650647	 0.294256
H	 0.7321956851	-2.6843210881	 1.3696414751	 0.106743
