22
gdb 36774	5.79349	0.55221	0.5229	4.2143	87.74	-0.2977	0.0376	0.3353	2086.8993	0.194542	-367.227538	-367.217799	-367.216855	-367.263545	35.096	
N	-0.0016831306	-1.2114349643	-0.1327400806	-0.305678
C	-0.0146721622	-0.0606702885	-0.0271977536	 0.255936
C	-0.005969017	 1.3947852364	 0.1035389231	-0.340962
C	 1.4101381881	 1.9952392409	-0.001887618	-0.17817
C	 1.4019416375	 3.521045755	 0.1404976477	-0.218687
C	 2.7896786487	 4.1376003643	 0.0246787729	 0.056348
C	 3.5164345194	 4.1349635238	-1.3532336053	-0.218595
C	 4.0414072417	 5.56062933	-1.0343885128	-0.210143
C	 2.9293152379	 5.6864668976	 0.0412857512	-0.237586
H	-0.6551677369	 1.8162991841	-0.6730864527	 0.150802
H	-0.4593145589	 1.6591313072	 1.0663316909	 0.150715
H	 2.0452652178	 1.549857269	 0.7723446384	 0.119561
H	 1.8474117073	 1.7095567183	-0.9649989413	 0.124786
H	 0.7485359908	 3.9571487062	-0.6286700639	 0.093063
H	 0.9602523874	 3.7951162633	 1.109211527	 0.097133
H	 3.4482419392	 3.7017843416	 0.7864053213	 0.071291
H	 4.2506692457	 3.3493556626	-1.5474006847	 0.098313
H	 2.7961587547	 4.1479506329	-2.1789183388	 0.096353
H	 5.0379490634	 5.5328016145	-0.5846561861	 0.104009
H	 4.0490583991	 6.2920635617	-1.8455034464	 0.097999
H	 2.031917648	 6.1674886281	-0.3626147522	 0.097226
H	 3.1813812189	 6.1661316454	 0.990360744	 0.096288
