17
gdb 37140	3.27255	1.68028	1.63176	0.6089	69.5	-0.2525	0.0618	0.3143	898.2969	0.13728	-421.756867	-421.750277	-421.749333	-421.787544	27.171	
C	-0.0463991631	 1.5662180552	-0.0028950576	-0.209234
C	 1.458515253	 1.979005394	 0.0134529136	-0.305206
C	 2.1067092419	 0.8340600335	 0.7458082189	 0.272854
O	 1.4497764945	 0.4082041649	 1.9468984436	-0.290856
C	 1.1965546548	-0.3371422428	 0.7486200837	 0.272855
C	-0.0747067912	 0.006031175	 0.0181913425	-0.305206
C	 2.3857378796	-1.2589290001	 0.495633235	-0.059377
O	 3.0173891269	-0.8164043345	-0.7168682613	-0.23465
C	 3.293035286	-0.091403901	 0.4928270469	-0.059377
H	-0.5350744204	 1.9481320956	 0.8959083668	 0.123812
H	-0.5770490395	 1.976520135	-0.8657781499	 0.103712
H	 1.869546227	 2.0130691605	-1.0016418973	 0.121152
H	 1.6133614306	 2.9599158586	 0.4719948337	 0.111632
H	-0.9859223539	-0.3848832675	 0.4800304753	 0.111632
H	-0.0085720029	-0.4037201047	-0.995837402	 0.121152
H	 2.5674100595	-2.2792045593	 0.8091792532	 0.112552
H	 4.3273008272	-0.0145474124	 0.8037387049	 0.112551
