13
gdb 35156	2.53848	1.32615	1.03499	4.6081	75.25	-0.2868	-0.0331	0.2537	1128.7257	0.087669	-378.440577	-378.432089	-378.431145	-378.473883	30.506	
C	-0.0568272403	-1.1860652636	-0.0519281299	-0.398092
C	-0.0328402774	 0.0136440243	 0.0029861859	 0.327998
C	-0.0113459799	 1.4418132194	 0.0640024646	-0.240626
C	 0.4861897777	 2.1632033818	 1.2804860151	-0.298097
C	 1.3597665561	 2.1910662321	 0.0255550365	 0.011789
C	 2.5700368212	 1.409250736	 0.0177096996	 0.265655
N	 3.5391108815	 0.7802434162	 0.0206356121	-0.321134
C	 1.3996977404	 3.4123598196	-0.7394466691	 0.258125
N	 1.3958336981	 4.3959246797	-1.3464940446	-0.320829
H	-0.0697981067	-2.2474382365	-0.1011056833	 0.219427
H	-0.7767282261	 1.9518707351	-0.5126904135	 0.160538
H	 0.0110343643	 3.0976328586	 1.5522794728	 0.164803
H	 0.8634561111	 1.5651715371	 2.1003038038	 0.170443
