22
gdb 119832	4.5968	0.77314	0.7067	1.2889	84.08	-0.238	0.0351	0.2731	1708.1491	0.193795	-404.389315	-404.379363	-404.378419	-404.425515	35.629	
C	 0.1621132166	 1.6644520423	 0.0468450496	-0.385186
C	 0.07742384	 0.1371702243	 0.0929522832	-0.154604
C	 0.5764609187	-0.5123135036	-1.1995381645	-0.293842
C	 0.5176188827	-2.0071924811	-1.1919441637	 0.419603
N	 0.1169738376	-2.7500886708	-0.2420768654	-0.316246
C	 0.2585434362	-4.13535061	-0.706160934	-0.200608
C	 0.7769624824	-4.0262872608	-2.1674837532	 0.104526
C	-0.1765451003	-4.5546249467	-3.2277131455	-0.395761
O	 0.9515886239	-2.5954830603	-2.3432079645	-0.270893
H	 1.1936165106	 2.0035139283	-0.102397523	 0.112508
H	-0.440323048	 2.0740496941	-0.7720936421	 0.112266
H	-0.2008222023	 2.1075249242	 0.9791285178	 0.113936
H	 0.6603135664	-0.2503354359	 0.9348467425	 0.114159
H	-0.9544033255	-0.1799776139	 0.2763571198	 0.112949
H	-0.0008698955	-0.1565769408	-2.0635209329	 0.122073
H	 1.6142648126	-0.2184601193	-1.4075778277	 0.12295
H	 0.9516748224	-4.6787960576	-0.0546165138	 0.111509
H	-0.7069778191	-4.6525762975	-0.6528996841	 0.10832
H	 1.7653970507	-4.4817736023	-2.2875370415	 0.088463
H	-1.1652810067	-4.0978697847	-3.1165251182	 0.12621
H	 0.1947106967	-4.337881515	-4.2331866404	 0.127524
H	-0.28617856	-5.639595163	-3.1271758083	 0.120145
