13
gdb 19903	6.33317	1.46139	1.42849	4.297	59.7	-0.2452	0.0027	0.2478	854.8716	0.09421	-398.504519	-398.498188	-398.497244	-398.535212	23.754	
O	 0.0725882181	 0.0386311535	 0.3289192641	-0.296935
C	 0.0511660861	 1.1965730875	-0.0109287648	 0.138293
N	 1.1138982477	 1.8791056398	-0.5704440004	-0.030703
C	 2.4835205196	 1.7856782779	-0.1230641378	-0.08835
C	 3.405596381	 2.4235086338	-1.231310834	 0.006666
O	 2.5843253368	 2.8688074906	-2.3075593203	-0.207962
C	 2.6696297788	 3.6869411793	-1.1463632762	 0.004462
C	 1.7292167247	 3.0798342486	-0.033887659	-0.114801
H	-0.8559950387	 1.8294058214	 0.0237430218	 0.087742
H	 2.7714343868	 1.0976475243	 0.6597135788	 0.132293
H	 4.4454987415	 2.1985637541	-1.4306687549	 0.123889
H	 2.9757740011	 4.7194158706	-1.2578208109	 0.122661
H	 1.3407497264	 3.5842592685	 0.8414897535	 0.122745
