16
gdb 19844	3.38103	2.58925	1.83603	2.4461	63.37	-0.2523	0.0826	0.3349	745.0142	0.1323	-383.702262	-383.69615	-383.695206	-383.732217	24.674	
C	-0.0076113808	 1.5250968626	-0.0037662498	-0.309483
C	 1.2994264801	 0.7858945779	 0.0250350807	 0.092235
O	 2.0343291929	 0.8596909964	 1.2128410264	-0.248992
C	 2.134538525	-0.3478320545	 1.9465683916	-0.112632
C	 0.7792038416	-0.947046221	 2.2684200416	 0.036592
O	-0.2686829281	-0.0146066516	 2.5407367963	-0.247757
C	-0.3089229182	-0.7377417054	 1.3044526305	 0.034604
C	 0.004143117	 0.0119908699	 0.0422760185	-0.078364
H	-0.2773456541	 2.0336599978	 0.9140263056	 0.142989
H	-0.3169985456	 2.006410464	-0.9243920623	 0.111619
H	 1.9162987179	 0.7595498815	-0.8716954507	 0.088945
H	 2.7336175113	-1.1051486086	 1.4121513249	 0.093162
H	 2.6685860087	-0.0865901638	 2.8656701316	 0.121166
H	 0.7935482523	-1.8354233623	 2.9003128945	 0.09261
H	-1.1157140892	-1.466595004	 1.2409606495	 0.093304
H	-0.2713723607	-0.5185088488	-0.863877389	 0.090002
