19
gdb 38656	3.09335	1.85637	1.56677	1.7054	78.02	-0.2303	0.0194	0.2498	911.6835	0.163565	-385.883025	-385.876749	-385.875805	-385.913305	27.123	
C	 0.0396144298	 1.6177354461	 0.0471041946	-0.229812
C	 1.5692751485	 1.7878747879	 0.0386070223	 0.055944
O	 1.9609860853	 0.8379728251	 1.0785944619	-0.301704
C	 1.55798454	-0.1564797498	 0.0989151161	 0.060143
C	 2.0912244632	 0.7700745268	-1.0174018728	 0.006811
C	 1.527593383	 0.6451188044	-2.4378686067	-0.312625
C	 0.2483241501	-0.1555831797	-2.4879830002	-0.052938
C	-0.444809378	-0.4500101823	-1.3879636362	-0.079907
C	 0.0204063761	 0.0482262455	-0.0434278581	-0.059507
H	-0.3805576843	 1.9949164641	 0.9820925446	 0.10715
H	-0.4688594209	 2.0956633792	-0.7935831012	 0.101041
H	 1.9916762407	 2.7857599986	 0.1621675491	 0.074687
H	 1.9285723462	-1.162980984	 0.2904488746	 0.077137
H	 3.1824041838	 0.781668945	-1.0044586017	 0.084994
H	 1.3727645394	 1.6423694233	-2.8773811611	 0.111727
H	 2.2749834053	 0.1655332279	-3.0831674107	 0.110308
H	-0.0872889025	-0.4928291511	-3.4650134665	 0.088071
H	-1.3567233801	-1.0369807051	-1.4453649706	 0.086728
H	-0.5311675256	-0.4085325018	 0.7790940127	 0.071752
