17
gdb 93077	2.34407	1.72293	1.09448	3.3743	71.39	-0.2599	0.0037	0.2636	1098.2786	0.136781	-455.161319	-455.153183	-455.152239	-455.19426	30.357	
C	-0.5187453169	 1.3081310415	 0.050485504	-0.409479
C	-0.0896851729	-0.1366192536	-0.0748044311	 0.20903
O	 0.7531217189	-0.2324246531	-1.2168057169	-0.226512
C	 1.1190224519	-1.4797224292	-1.6290606604	 0.134365
N	 1.0431170845	-2.6024685992	-1.0658310959	-0.256065
C	 0.553937193	-2.8314978976	 0.2885484808	-0.258048
C	 0.9180574378	-1.8011482327	 1.3410698568	 0.382618
N	 1.5012718445	-2.1478498415	 2.4058321525	-0.491166
O	 0.6002673464	-0.4845970262	 1.1060610011	-0.24748
H	 0.362602269	 1.9403118776	 0.1810871048	 0.147508
H	-1.0509202721	 1.6178809707	-0.8511533111	 0.136425
H	-1.1744486493	 1.4263638274	 0.9156083789	 0.136601
H	-0.9494962422	-0.8015577868	-0.2196900559	 0.09992
H	 1.5497720774	-1.4047768258	-2.6264119622	 0.132373
H	-0.5352507705	-2.9749213865	 0.2682620621	 0.133015
H	 0.9767381615	-3.7717224279	 0.645184738	 0.152853
H	 1.6535383491	-1.3359658772	 3.0085290147	 0.224043
