21
gdb 110265	2.17599	1.49465	1.02531	1.9706	80.04	-0.2401	0.078	0.318	1237.9669	0.181498	-424.157093	-424.147812	-424.146867	-424.190899	35.168	
C	 0.3808756302	 1.5348167752	 0.0789685825	-0.248953
O	-0.1287493695	 0.2522130621	-0.2126131743	-0.25512
C	 0.6486620865	-0.4427197034	-1.1477525764	 0.19501
C	 1.8584980135	-1.3449222192	-0.7140402529	-0.187952
C	 0.8460397566	-2.4082316008	-0.1732237647	 0.060029
C	 0.1485605839	-2.2950628178	 1.174793086	-0.4443
C	 0.220668475	-1.8881400615	-1.5151507073	-0.154685
C	 1.6490841616	-2.0496280303	-2.0990772127	 0.145296
O	 1.911650649	-1.3677532125	-3.2999423029	-0.441402
H	 1.3602880272	 1.4867745845	 0.5781324211	 0.106665
H	 0.4894011222	 2.141454783	-0.8334273229	 0.108257
H	-0.3316593017	 2.0246414172	 0.7468393073	 0.125794
H	 0.859154187	 0.2049535965	-2.0049719459	 0.083665
H	 2.8078818473	-1.0416520418	-0.2673713796	 0.060549
H	 1.2347071791	-3.4306354889	-0.2764786867	 0.058735
H	-0.2863295979	-1.3134736752	 1.3453039972	 0.145852
H	-0.6482714148	-3.0448567471	 1.2437399631	 0.109109
H	 0.8607100724	-2.5100268745	 1.9803897552	 0.105472
H	-0.7136042693	-2.2005592036	-1.9835757971	 0.072974
H	 2.0101129915	-3.0842777428	-2.1398807468	 0.070345
H	 2.8618447201	-1.3855133388	-3.4500304322	 0.284663
