14
gdb 15206	2.59679	1.99629	1.53441	2.8107	68.57	-0.2525	-0.0052	0.2472	870.693	0.105401	-341.525871	-341.517786	-341.516842	-341.558265	28.975	
C	-0.1807713797	 1.4938925745	 0.16348123	-0.32596
N	 0.0371253762	 0.0585414797	-0.0060933794	-0.098534
C	 0.5389171518	-0.4389360935	-1.2896885778	-0.208244
C	 0.8422503057	 0.4354311127	-2.387058566	 0.362485
C	 1.0623845345	 1.1526400705	-3.326179942	-0.444039
C	 1.40746425	-0.4490465332	-0.045118607	-0.173697
C	 2.5407260125	 0.4395506718	 0.0383026529	 0.309708
N	 3.4531676753	 1.1416620518	 0.1478719433	-0.33445
H	 0.545167499	 2.1252274357	-0.3626382901	 0.14399
H	-1.1828898945	 1.7283275246	-0.2042865812	 0.138443
H	-0.1397771337	 1.7200194554	 1.2320074086	 0.140312
H	 0.1115024884	-1.3975534012	-1.5765278236	 0.133221
H	 1.2741473247	 1.787341575	-4.1514716224	 0.213078
H	 1.5576656597	-1.3957090739	 0.4678547147	 0.14369
