17
gdb 75758	2.71607	1.25953	1.13035	2.8038	77.39	-0.2458	0.0206	0.2664	1148.7996	0.133364	-417.961643	-417.952147	-417.951202	-417.995577	35.433	
C	 0.2546883202	 1.3238850476	-0.1014049566	-0.42474
C	-0.0870887307	-0.1642745761	-0.020083017	 0.063812
N	 0.7824755469	-1.0364825681	-0.8583208997	-0.342662
C	 1.5734441723	-1.4518933355	 0.1961107037	 0.331694
N	 2.7134138105	-1.9689544251	 0.3825600539	-0.561349
C	 0.591524433	-0.9003491287	 1.2230798204	 0.027932
O	 1.1441310648	-0.1107775933	 2.2304196748	-0.421456
C	-1.5111981761	-0.4076489541	-0.2047126402	 0.288796
C	-2.6906005049	-0.5959110001	-0.3405594837	-0.423503
H	 1.3199881434	 1.4794751792	 0.0833129672	 0.121739
H	-0.0029466048	 1.7210893046	-1.0877946297	 0.121182
H	-0.30823176	 1.8809205324	 0.6512790985	 0.145967
H	 1.0697516249	-0.8528321428	-1.8103188908	 0.24216
H	 3.2144449262	-2.1443552937	-0.4894187791	 0.215015
H	-0.0849937593	-1.6535517293	 1.6398920086	 0.11355
H	 2.0970289098	-0.2666203719	 2.2114999612	 0.303351
H	-3.7314679164	-0.7693664151	-0.4617525815	 0.198513
