12
gdb 15453	3.37827	2.08131	1.40494	2.8166	61.	-0.251	-0.0267	0.2244	826.6979	0.084028	-377.524453	-377.517576	-377.516631	-377.555771	25.165	
O	-0.0262130037	-0.0236310247	 0.0329731324	-0.340297
C	-0.0270406494	 1.1768571858	 0.0327076106	 0.415232
N	-1.1325897669	 2.0178281209	-0.0257510555	-0.333889
C	-0.7092998254	 3.3408514394	-0.0004744446	 0.073437
N	 0.5504705944	 3.5340418933	 0.0547229141	-0.229147
C	 1.16083186	 2.1849811272	 0.070069986	-0.281603
C	 2.0354083719	 1.9712218583	 1.2116938175	 0.363582
C	 2.7453000286	 1.7798606578	 2.1603634763	-0.453419
H	-2.0847773351	 1.6896519078	-0.0440367163	 0.275296
H	-1.4438497948	 4.1390522935	-0.0334833571	 0.1488
H	 1.7309043064	 2.0537939436	-0.860352232	 0.155891
H	 3.378800174	 1.6113451271	 2.9958286287	 0.206117
