17
gdb 15892	2.33899	2.1234	1.35072	3.9349	65.77	-0.2451	-0.0281	0.2169	953.3097	0.140777	-400.983357	-400.975098	-400.974154	-401.016185	29.936	
C	-0.0168322854	 1.3880155446	-0.0106779477	-0.331227
N	 0.0714716974	-0.0563683096	 0.0842560148	-0.099079
C	-1.1781904955	-0.811071897	 0.3481439509	-0.289842
C	-0.3992724613	-1.6267687361	 1.3902674113	 0.40275
O	-0.6126032601	-2.6026407094	 2.0406512473	-0.283663
C	 0.7805893083	-0.6446779909	 1.2553472759	-0.114471
C	 2.1568246057	-1.2067065883	 0.9111294946	-0.069965
O	 2.1088801674	-1.9462924197	-0.286901627	-0.420382
H	 0.9863249667	 1.8153891278	-0.101556159	 0.131388
H	-0.5819279522	 1.6693149891	-0.9046392293	 0.131345
H	-0.5092274071	 1.8468806165	 0.8660737926	 0.101605
H	-1.9746929296	-0.2133746011	 0.8207957385	 0.120257
H	-1.5951697153	-1.3466166207	-0.510706654	 0.136893
H	 0.832692322	 0.0253320508	 2.1299468781	 0.090168
H	 2.8854394732	-0.3799300829	 0.8515125218	 0.088039
H	 2.4830792421	-1.8793683626	 1.7117084177	 0.126016
H	 1.5609345438	-1.4154535004	-0.8835004864	 0.280169
