12
gdb 2056	5.3113	2.74199	1.90934	2.1195	51.04	-0.2799	-0.0294	0.2506	626.1609	0.091807	-360.559076	-360.55341	-360.552466	-360.588698	20.591	
O	-0.0091618085	-0.0641009989	-0.1861418583	-0.294206
C	-0.0675006717	 1.1021885114	 0.0574995067	 0.429854
C	-1.3082735007	 1.9615094549	 0.0999361757	-0.352634
C	-1.2117976458	 3.0063844401	 1.2193129156	-0.171825
N	 0.0564721135	 3.7256907683	 1.1907816345	-0.233037
C	 1.0512324091	 3.1014091015	 0.7415820074	 0.137591
O	 1.107939257	 1.7948504216	 0.2955891224	-0.214078
H	-1.3788588016	 2.4744216396	-0.8682946805	 0.147975
H	-2.1782436702	 1.309953783	 0.1961297418	 0.143493
H	-2.0272007581	 3.7297023879	 1.134443033	 0.128882
H	-1.3170158523	 2.5313522611	 2.204289396	 0.133122
H	 2.0404383595	 3.5468428997	 0.6858424059	 0.144863
