15
gdb 49036	2.66238	1.40531	1.11698	4.7856	72.04	-0.2487	-0.0599	0.1888	1082.1769	0.112307	-416.775818	-416.767778	-416.766834	-416.808765	29.145	
O	-0.2585337868	 0.3130315187	-0.6517026404	-0.258219
C	 0.0687055783	 1.1179324205	 0.1866121366	 0.068297
C	 1.2919345724	 1.940875069	 0.1014743199	 0.241795
N	 1.7578920414	 2.9071606093	 1.1029397315	-0.370078
C	 2.0886790226	 3.8811511851	 0.0056432078	-0.192949
C	 1.7605337638	 2.8322558076	-1.0618940818	-0.134542
C	 2.4579004654	 1.5247282041	-0.7816303999	-0.223546
C	 3.7990674571	 1.4520766615	-0.2657071192	 0.328351
N	 4.8856154748	 1.3946475142	 0.1247362452	-0.338777
H	-0.5562388625	 1.3109246973	 1.0871353451	 0.086939
H	 0.9971704652	 3.2447809061	 1.6838341987	 0.232966
H	 1.3972494794	 4.7265108265	-0.038207295	 0.123546
H	 3.1185387723	 4.2473528634	 0.0418929916	 0.141346
H	 1.2831715652	 3.0061040341	-2.0171629099	 0.131173
H	 2.1851929315	 0.7340916426	-1.4741565002	 0.163699
