17
gdb 23303	2.921	1.30191	0.95729	2.0944	82.44	-0.2195	-0.0325	0.187	1215.5832	0.136247	-417.954003	-417.945858	-417.944913	-417.986555	31.274	
C	-0.0230654925	 1.4880973621	 0.092326834	-0.499464
C	-0.0170779084	 0.000567426	-0.0195884882	 0.363415
C	 0.0406183505	-0.7437535472	-1.1412591521	-0.284232
C	 0.0346597315	-2.1727997748	-0.8151741602	 0.454611
N	-0.0071080464	-3.2099158032	-1.5632998889	-0.257057
O	-0.0116633276	-2.8615782546	-2.9228072524	-0.389864
C	 0.0410417577	-2.2879440265	 0.6767491083	-0.148609
N	 1.245844454	-1.6718132524	 1.3034336125	-0.335341
C	-0.0219098426	-0.8956709789	 1.1860060147	-0.158259
H	 0.8608297078	 1.8392459568	 0.6400078641	 0.142283
H	-0.0324833771	 1.9675318431	-0.8895345395	 0.131623
H	-0.8981243891	 1.8387292162	 0.6542958618	 0.129967
H	 0.1141118106	-0.3691783575	-2.1523897749	 0.116879
H	-0.0434273454	-3.7229462039	-3.3519641357	 0.307006
H	-0.4364518576	-3.1299250416	 1.1617116952	 0.10337
H	 1.3122440837	-2.0373877149	 2.2536098292	 0.231435
H	-0.556350469	-0.6173436085	 2.0883285021	 0.092238
