17
gdb 97319	4.65827	0.78634	0.67837	1.8998	77.88	-0.2381	-0.0752	0.1628	1638.9134	0.133056	-455.191416	-455.181318	-455.180374	-455.227518	34.233	
C	-0.0112624868	 1.6557995533	-0.288183281	-0.31167
N	-0.1569538818	 0.2432926972	-0.0135134834	-0.164049
C	 0.4993253227	-0.5562753459	-0.73497585	 0.100357
N	 0.4712384126	-1.9420618958	-0.6014548594	-0.355269
C	-0.2297810465	-2.7202176443	 0.286601314	 0.313614
O	-0.9856663997	-2.3595336237	 1.1583104507	-0.315473
C	 0.066536862	-4.2235264458	 0.0427177906	 0.314079
C	-0.6478535474	-5.1762876556	 0.9590698315	-0.471963
O	 0.8284352884	-4.5581020326	-0.8376365027	-0.305988
H	 0.6750649884	 1.882613931	-1.121142392	 0.095306
H	-0.9930711048	 2.0843633818	-0.5192108677	 0.134305
H	 0.3523361962	 2.1654011891	 0.6113333254	 0.134306
H	 1.168150685	-0.2450477996	-1.5514424253	 0.089418
H	 1.0401087161	-2.4870791138	-1.2377359157	 0.271633
H	-1.7292085305	-5.0287792058	 0.8753488378	 0.164856
H	-0.3783434077	-6.2031024872	 0.7126016454	 0.141675
H	-0.3947089062	-4.9483420524	 1.9992943018	 0.164862
