15
gdb 43681	2.45597	1.56496	1.25114	4.2617	73.85	-0.2675	-0.05	0.2175	1028.0631	0.114183	-416.836181	-416.8286	-416.827656	-416.86861	28.306	
N	-0.0967622277	 1.2936112085	 0.3814137647	-0.505855
C	-0.0524719987	 0.0707485417	 0.052396737	 0.382951
O	 1.1557184464	-0.5553733862	-0.1833963234	-0.26268
C	 1.1444852916	-1.7842036273	-0.9114153335	-0.048166
C	 0.1029649779	-2.7740409192	-0.3700346429	-0.284556
C	-1.2127517657	-2.0739641441	-0.1844196925	-0.090116
C	-1.2634282512	-0.7509833916	-0.0170039274	-0.071728
C	 0.9415491167	-1.5279538814	-2.3530046394	 0.276274
N	 0.8008621997	-1.3447921872	-3.4847365584	-0.308511
H	 0.8423990514	 1.696487433	 0.3852513136	 0.230281
H	 2.1536240423	-2.1882126639	-0.7909079751	 0.14684
H	 0.0126312211	-3.6187443438	-1.0600111206	 0.143138
H	 0.4626258663	-3.1805451373	 0.5841444362	 0.140188
H	-2.1183897276	-2.6716732899	-0.1785591828	 0.120691
H	-2.1909658424	-0.2100082912	 0.1208641946	 0.13125
