15
gdb 49883	3.48245	1.22638	0.91731	3.3168	69.32	-0.2469	-0.0522	0.1947	1186.41	0.11204	-453.997251	-453.988937	-453.987993	-454.031519	29.246	
N	 0.1011485818	 1.2907078868	 0.0067647281	-0.406921
C	-0.0091556434	 0.0292550643	 0.0039736062	 0.088278
N	-1.2262912348	-0.6564619871	 0.0117663624	-0.12149
C	-1.2236167628	-2.1153796104	 0.0076182534	-0.290244
C	-2.7032533395	-2.5104791867	 0.0180916829	 0.393215
O	-3.1008912158	-3.6433813992	 0.0180347699	-0.290242
C	-3.5226345917	-1.2365272573	 0.0279803108	-0.466381
C	-2.5148168827	-0.0889193583	 0.0234866464	 0.426204
O	-2.7755113737	 1.0825606816	 0.0288902517	-0.317837
H	 1.0879543854	 1.5459156196	-0.0004532464	 0.233349
H	 0.8293687555	-0.6793272328	-0.0048273597	 0.097302
H	-0.7371820157	-2.5307829008	-0.8836374264	 0.152964
H	-0.7233380114	-2.5357927861	 0.8888065317	 0.152966
H	-4.1800071113	-1.1769637861	-0.8452196144	 0.174421
H	-4.1666337801	-1.1819335276	 0.9114020535	 0.174415
