17
gdb 83680	2.82446	1.49113	1.30232	5.3367	72.13	-0.2498	0.025	0.2748	1016.6912	0.137837	-417.973732	-417.966026	-417.965082	-418.006086	29.716	
O	 0.2425758491	 1.3238896944	 0.2470147446	-0.414333
C	 0.0476652994	-0.0440544008	 0.0679646996	 0.113069
C	-1.4416564237	-0.5595499919	 0.005201903	-0.071348
C	-2.4717014064	 0.5374087371	-0.300377856	-0.186758
N	-1.9191015397	 0.6052192809	-1.6802310194	-0.327927
C	-1.2677990298	-0.7190989896	-1.5342742416	-0.010853
C	 0.2730355631	-0.5955675216	-1.4028213154	-0.207409
C	 0.9802438435	 0.2413425694	-2.3523120356	 0.29337
N	 1.5260126988	 0.9239831002	-3.1093434208	-0.33353
H	-0.184516939	 1.7780208274	-0.4932051022	 0.303256
H	 0.663184031	-0.5474813548	 0.8156958269	 0.104569
H	-1.6987606763	-1.3716721374	 0.681962889	 0.082628
H	-3.5003033419	 0.1582307201	-0.2442180405	 0.103155
H	-2.4005808804	 1.4715841132	 0.26552362	 0.117691
H	-2.5793996225	 0.702805369	-2.4409646573	 0.233786
H	-1.6762813574	-1.5404167694	-2.1277641589	 0.079554
H	 0.7370534824	-1.5864309364	-1.3637230855	 0.121082
