17
gdb 71311	3.37923	1.51327	1.20757	4.3458	77.58	-0.2531	0.0081	0.2612	1026.4611	0.136129	-380.791297	-380.783736	-380.782792	-380.823101	29.447	
C	 0.0057387986	 1.4655361986	-0.0680418537	-0.529068
C	 0.0937782492	-0.0310760303	-0.056282129	 0.358518
C	 0.5634957766	-0.9563045158	-1.1886459519	-0.299075
C	 0.0512423336	-1.8844330462	-0.093209857	-0.004726
C	 0.5943177803	-1.0055510045	 1.0666402487	-0.115137
C	-0.8038231841	-1.0425260813	 1.6903263456	-0.128409
C	-1.2679270105	 0.0387278512	 2.5485149487	 0.296217
N	-1.6256068589	 0.8829013143	 3.2534004444	-0.33599
N	-1.1588225907	-0.9534684648	 0.199195536	-0.188562
H	 1.0030045336	 1.8957803292	-0.210182564	 0.127895
H	-0.6280605861	 1.7949150367	-0.8974579161	 0.137341
H	-0.409190464	 1.8620070757	 0.86127777	 0.159765
H	-0.0261006373	-0.9237490494	-2.1088766637	 0.115792
H	 1.6367838115	-0.9770308555	-1.3934378727	 0.106058
H	-0.0873133168	-2.9662546708	-0.0888001519	 0.093048
H	 1.5717327474	-1.0410566086	 1.5564368167	 0.084717
H	-1.1140533925	-1.9993946584	 2.1234541399	 0.121618
