19
gdb 113747	3.60762	0.85606	0.74641	0.8017	78.6	-0.2605	0.0297	0.2902	1511.198	0.156359	-422.958592	-422.948343	-422.947399	-422.994366	37.026	
O	-0.1319337423	 1.3953033641	-0.6172308923	-0.426967
C	 0.0116148155	 0.1374630626	 0.0316707101	-0.09194
C	-1.3493376175	-0.5078538418	 0.0780351468	-0.001161
C	-1.8691333412	-1.3303067374	-1.0731482466	-0.287906
C	-1.5355019339	-1.9979793886	 0.2395927642	-0.031859
C	-0.3452990285	-2.9395449629	 0.3514877308	-0.083138
O	 0.3906437494	-2.7478036779	 1.5612115233	-0.420555
C	-0.7726579687	-4.3356634306	 0.202105325	 0.300661
C	-1.1470268277	-5.4753344384	 0.1225793353	-0.432766
H	 0.7124457336	 1.8528809544	-0.5650029476	 0.284478
H	 0.7253398786	-0.5034923476	-0.5078073663	 0.080975
H	 0.3979597425	 0.2574862561	 1.0547864643	 0.098946
H	-2.0833528596	 0.1061028682	 0.5928070076	 0.092009
H	-2.9099250813	-1.2377606719	-1.3610277008	 0.115795
H	-1.1928208078	-1.5036067118	-1.9049720223	 0.116545
H	-2.3783167793	-2.305009622	 0.8534510003	 0.088429
H	 0.3743229381	-2.7084341315	-0.4412756452	 0.116329
H	-0.1619526942	-3.0573664153	 2.2876696147	 0.283454
H	-1.4642823456	-6.4853671778	 0.0374993287	 0.19867
