18
gdb 42943	2.42032	2.08374	1.44952	3.4662	74.99	-0.2309	-0.0174	0.2135	935.1734	0.151176	-401.934055	-401.927388	-401.926444	-401.964908	27.733	
O	-0.0340196396	-0.0117198127	-0.0842157916	-0.337018
C	-0.0120477495	 1.1939415637	 0.0042630285	 0.443284
C	-1.2757982961	 2.0244349117	-0.0263907257	-0.144665
N	-1.5697005922	 2.868237353	 1.1671756175	-0.33237
C	-1.0796165953	 3.5019221305	-0.0607843384	-0.034482
C	 0.3778145379	 3.9578617278	-0.0574481877	-0.029232
C	 1.1804653202	 3.1929986171	 1.0295472213	-0.238984
C	 1.2689208054	 2.012980591	 0.0143792464	-0.121183
C	 1.1509255986	 3.1058995819	-1.1074222781	-0.234694
H	-2.1142676026	 1.5545036742	-0.5308783495	 0.103979
H	-2.5791221382	 2.9713672152	 1.2389431672	 0.23973
H	-1.7738405847	 4.0936061877	-0.6519288779	 0.091841
H	 0.4635484666	 5.0458070682	-0.0974348464	 0.067693
H	 2.1666345825	 3.6418554369	 1.170724966	 0.10054
H	 0.7024956143	 3.018473435	 1.9918946903	 0.133628
H	 2.134013483	 1.3498361559	 0.0243084677	 0.080529
H	 0.6391679463	 2.8422570517	-2.0374174108	 0.102588
H	 2.1339620236	 3.5241146411	-1.3372960988	 0.108815
