18
gdb 110595	3.19691	1.28436	1.06784	1.1461	71.83	-0.2305	0.0737	0.3042	1142.2659	0.14747	-438.975942	-438.967856	-438.966911	-439.008628	31.378	
O	-0.0650440967	 1.4812793414	-0.2908183499	-0.424036
C	 0.054423893	 0.1281597526	 0.1315009799	-0.110884
C	-1.3303156175	-0.4844546984	 0.0975151819	-0.053357
C	-1.9644151807	-0.8290761764	-1.2757764481	-0.064778
C	-1.1626551016	-2.1663858731	-1.4218532733	-0.106569
N	-2.361241043	-3.0514386207	-1.6102977109	-0.371057
C	-2.828728523	-1.9812861875	-0.6672822933	-0.102703
C	-1.4684258356	-2.0106840103	 0.1152340508	 0.413418
O	-1.0914753105	-2.83250718	 1.1480752431	-0.476849
H	 0.7977724896	 1.8980692516	-0.2100437035	 0.286436
H	 0.7349273948	-0.435410444	-0.5270630378	 0.083858
H	 0.4606927184	 0.0624230333	 1.1527867715	 0.096517
H	-1.9995247897	 0.0467839214	 0.78347138	 0.077977
H	-2.2552646287	-0.156413341	-2.0795777481	 0.084836
H	-0.209720532	-2.3450065144	-1.9204072872	 0.08243
H	-2.7655239117	-2.9067643094	-2.5395840248	 0.207457
H	-3.8406119937	-1.9279183117	-0.2632640978	 0.081438
H	-1.3074857015	-3.7372417736	 0.8873490573	 0.295867
