14
gdb 21302	3.33322	2.00001	1.26189	2.8182	60.35	-0.21	0.0097	0.2198	910.981	0.107651	-415.834928	-415.827312	-415.826368	-415.866907	27.311	
C	 0.0145378472	 1.3459140591	 0.006294014	-0.243176
O	-0.0083519551	-0.0835834259	 0.0352817523	-0.272897
C	-1.2244955528	-0.6432555945	 0.0317192345	 0.45446
N	-2.3501323151	 0.0269029561	 0.0022743629	-0.249058
O	-3.3460937239	-0.943445025	-0.0014071586	-0.194169
C	-2.7681731228	-2.169651026	 0.0299959955	 0.018791
C	-1.414990294	-2.0612683268	 0.0506391658	 0.034987
N	-0.3953579748	-3.0118022235	 0.1506340471	-0.615998
H	 1.0673955253	 1.6289110377	 0.0125791585	 0.132598
H	-0.4774171595	 1.721404456	-0.896262432	 0.143321
H	-0.4965653689	 1.7564002773	 0.8823924895	 0.145394
H	-3.4442775309	-3.0094262903	 0.0324101436	 0.139017
H	-0.6028148587	-3.8807806952	-0.3228779332	 0.250084
H	 0.489207594	-2.644085309	-0.1754096599	 0.256647
