17
gdb 27167	2.91708	1.45087	1.0263	1.8351	75.52	-0.1946	0.0192	0.2137	1137.0575	0.137985	-417.996807	-417.988655	-417.987711	-418.030418	30.554	
N	-0.4054895541	 0.9298589139	 1.1179304245	-0.619209
C	-0.1257012935	-0.1574352169	 0.2742482979	 0.124987
C	-0.9850082264	-0.7727813153	-0.5949726368	 0.298892
O	-0.3482795839	-1.8394620911	-1.1910318261	-0.185958
C	 0.9025409335	-1.8910834955	-0.6841125062	-0.017397
C	 1.1036299412	-0.8971181153	 0.2199059375	-0.235491
C	-2.3770010771	-0.4849457085	-0.9749210127	-0.141875
C	-3.4861519044	-1.3500828632	-0.4829021377	-0.223265
N	-3.3103087671	 0.0002296433	 0.0685731605	-0.327505
H	 0.4265599688	 1.4385828346	 1.3850132022	 0.245747
H	-1.0781989051	 1.5730671405	 0.7201029416	 0.257399
H	 1.5312500975	-2.6825562449	-1.0583602301	 0.131983
H	 2.0054988778	-0.7049730989	 0.780856514	 0.104576
H	-2.5300367644	 0.0097718187	-1.9340278965	 0.102008
H	-4.3713278834	-1.4818807414	-1.0983775867	 0.118411
H	-3.2205104315	-2.203693844	 0.1332362471	 0.119909
H	-2.853676038	-0.0714578858	 0.9756965675	 0.246785
