19
gdb 43917	4.2342	1.08867	1.00978	3.7817	82.93	-0.2334	-0.043	0.1904	1222.2863	0.16033	-385.918435	-385.910572	-385.909628	-385.951295	30.608	
O	 0.4351836919	-0.007208227	-0.0046064167	-0.328869
C	 0.2192753371	 1.1822386255	 0.0062472941	 0.375023
C	-1.1647949874	 1.8535667198	 0.030808426	-0.442935
C	-0.9059978365	 3.3682027607	 0.036813393	 0.307248
C	-1.5934611165	 4.2894509924	-1.0305537787	-0.264392
C	-1.8107157729	 5.3660573058	 0.0629152185	-0.212818
C	-1.5618513838	 4.2754641226	 1.1355885634	-0.264393
C	 0.5974949127	 3.4634248733	 0.0154829071	-0.076581
C	 1.2169594306	 2.2773992344	-0.0012337699	-0.210228
H	-1.7399924177	 1.5275948633	-0.8417307925	 0.129746
H	-1.7143095467	 1.516243813	 0.9155018034	 0.129747
H	-1.0029210079	 4.5593695082	-1.9098991856	 0.10274
H	-2.5378915142	 3.8517817374	-1.3661623258	 0.107375
H	-1.0241624336	 6.1255356542	 0.0563411961	 0.105817
H	-2.7761435487	 5.8755280711	 0.0802930038	 0.103519
H	-2.4961704435	 3.8333208891	 1.4929309481	 0.107375
H	-0.9458550999	 4.5341180553	 2.0007410345	 0.102739
H	 1.0972215225	 4.4280561411	 0.0144268468	 0.114139
H	 2.2839860944	 2.0956229497	-0.0179893156	 0.114747
