17
gdb 28776	3.21084	1.69619	1.12536	3.3885	81.61	-0.2063	-0.0115	0.1948	1055.5865	0.138463	-380.924537	-380.917199	-380.916255	-380.956215	28.434	
C	-0.0191177479	 1.5178173719	 0.0643975857	-0.502179
C	-0.0101708097	 0.0299520096	-0.0113875552	 0.241824
C	-0.0301636393	-0.8454048794	-1.0752147332	-0.172037
N	-0.0103465714	-2.1696059967	-0.6671175316	-0.366287
C	 0.0220466457	-2.0991474237	 0.6376530689	 0.37549
C	 0.0588140038	-3.0167589589	 1.8271014054	-0.41073
C	 0.0804663848	-2.0190441035	 2.9748530525	-0.131328
C	 0.0590735869	-0.767625309	 2.4962582147	-0.0306
N	 0.023823261	-0.8010391649	 1.0910911616	-0.047867
H	 0.8763433042	 1.9144440407	 0.558929447	 0.129253
H	-0.0509411559	 1.9352889157	-0.9447403401	 0.141326
H	-0.890886501	 1.9011556112	 0.6091533005	 0.129182
H	-0.0584336393	-0.5860795258	-2.1235259467	 0.102745
H	-0.8144235916	-3.679074599	 1.8717113974	 0.145813
H	 0.9428011595	-3.6661871489	 1.8273202542	 0.14581
H	 0.1088325475	-2.2919584311	 4.0188637728	 0.114279
H	 0.0653479928	 0.1754236418	 3.0223783059	 0.135307
