18
gdb 65743	2.70915	1.16213	1.02637	4.9337	72.86	-0.2455	-0.023	0.2224	1217.8285	0.145645	-439.118741	-439.109259	-439.108315	-439.15365	33.568	
C	 0.0579751262	 1.6123258807	-0.1042287325	-0.450347
C	 0.0017142487	 0.0861620828	-0.0647156756	 0.134561
C	-1.4240135548	-0.4451615014	 0.1488841445	-0.33443
C	-2.0278841289	-0.0023916982	 1.4718651586	 0.149422
O	-3.1247977014	 0.4844631415	 1.5778764182	-0.248078
C	 0.8063873254	-0.6367309427	-1.1993014527	-0.211847
N	 1.700210959	-1.142820587	-0.1558764074	-0.326951
C	 1.0495450952	-0.5551065031	 0.8961260794	 0.412898
O	 1.2321408622	-0.5576498727	 2.085940719	-0.369566
H	 1.0769986499	 1.966779771	-0.2864221846	 0.126162
H	-0.5896420318	 2.0057373004	-0.8951928021	 0.127095
H	-0.2773290571	 2.0376824831	 0.8466240258	 0.146046
H	-2.0921504257	-0.1278360113	-0.6586317115	 0.120435
H	-1.4029041099	-1.5447091965	 0.1593614679	 0.123884
H	-1.3774254277	-0.1717608723	 2.35545275	 0.115588
H	 0.2559097565	-1.4161758025	-1.7357827524	 0.114816
H	 1.2883302813	 0.0343787625	-1.9172603155	 0.115767
H	 2.5150711529	-1.7371959143	-0.1914602891	 0.254545
