21
gdb 32788	3.02855	0.9752	0.78325	1.0626	86.1	-0.1909	0.0549	0.2458	1515.1976	0.183486	-383.311944	-383.302004	-383.30106	-383.347967	36.165	
C	-0.1513427714	 1.5964834476	-0.0031894103	-0.377467
C	-0.1632324088	 0.0669049786	 0.045981861	-0.145848
C	 0.8098079226	-0.5112701003	 1.0916385727	-0.316389
C	 0.8017831061	-2.0099222089	 1.1642292416	 0.262776
C	 1.7749763199	-2.85692514	 0.6649028413	 0.142208
N	 3.0047238203	-2.6476351793	-0.0076335802	-0.618168
N	 1.380040011	-4.1494901176	 0.9209104522	-0.239761
C	 0.1767747263	-4.1519665114	 1.5736843574	-0.088939
C	-0.2084196219	-2.8415500609	 1.7361311694	-0.246957
H	 0.8448020944	 1.9784379418	-0.2550759115	 0.108543
H	-0.8524504421	 1.9792065797	-0.7516800908	 0.109
H	-0.4312229944	 2.0261453391	 0.9654302393	 0.112298
H	-1.1763061702	-0.2909369457	 0.266727305	 0.099758
H	 0.0898376232	-0.3413769919	-0.9407502382	 0.089285
H	 1.8258667171	-0.1637942849	 0.8606304537	 0.074962
H	 0.5613474603	-0.086490722	 2.0738076474	 0.097165
H	 3.696020963	-2.2078014155	 0.5922024989	 0.241708
H	 2.8909560259	-2.0507840832	-0.8194635371	 0.242716
H	 1.9191949328	-4.9514154433	 0.6435787426	 0.256885
H	-0.2985518337	-5.0735548507	 1.8683670746	 0.112367
H	-1.1138192602	-2.5063588411	 2.2207873012	 0.083857
