15
gdb 20266	4.16988	2.81129	2.49919	1.1729	61.25	-0.2253	0.077	0.3023	621.9286	0.122851	-362.611505	-362.606749	-362.605805	-362.640055	20.8	
C	-0.0871462969	 1.4752310921	 0.0108538806	-0.181506
C	 1.3831299381	 1.8163975037	-0.0010452568	-0.077605
C	 2.119168741	 0.8344060773	 0.958811301	 0.059931
O	 3.1825901003	 0.6683055921	-0.0251616194	-0.296881
C	 2.1006527913	 0.8462482316	-0.9866248397	 0.059928
C	 1.1801953226	-0.3793544447	-0.7573214167	-0.056961
C	 1.194337709	-0.3884048885	 0.7321800216	-0.056968
N	-0.0323005857	-0.004376044	 0.0013192303	-0.126778
H	-0.61207766	 1.8194620079	 0.9082266262	 0.11109
H	-0.6289933992	 1.8302973226	-0.8721272467	 0.11109
H	 1.7236401215	 2.848299905	 0.00199864	 0.089381
H	 2.469280516	 1.0715881103	 1.9617193721	 0.083292
H	 2.4316395102	 1.0956658124	-1.9930520852	 0.083293
H	 1.1440853063	-1.2464494765	-1.40300338	 0.099348
H	 1.1703965454	-1.2632800813	 1.3678556724	 0.099346
