10
gdb 23824	4.16138	2.03375	1.36611	1.2035	52.97	-0.2675	-0.1032	0.1642	777.4902	0.061837	-450.902794	-450.896949	-450.896005	-450.933129	21.238	
F	 0.0214970105	 0.1116333033	 0.0031781893	-0.030156
C	-0.0668792275	 1.4168090915	 0.0113896575	 0.388359
N	-1.2273202235	 1.9504774172	 0.0301791543	-0.345846
C	-1.2543467068	 3.3423203885	 0.0379787047	 0.456327
N	-2.2568594615	 4.1150785762	 0.0559004452	-0.546249
N	 0.0321781533	 3.9294822104	 0.0234452613	-0.207913
N	 1.182844809	 3.2930174886	 0.0042324973	 0.001109
N	 1.1848635089	 2.0131703092	-0.0026341507	-0.260109
H	-3.1150121938	 3.5666817815	 0.0647735536	 0.242037
H	 0.0981884713	 4.9393036036	 0.0279406473	 0.302439
