15
gdb 61690	2.3688	1.35368	1.12459	4.5644	71.6	-0.2735	-0.0194	0.2541	1120.2045	0.111555	-412.998012	-412.988624	-412.98768	-413.032092	33.224	
C	-0.0992336368	 1.5971213227	-0.0849222371	-0.40123
C	 0.0248732404	 0.0538456888	-0.0112402156	-0.041731
N	 0.7329242972	-0.3886394911	 1.1936672702	-0.290816
C	 2.0767564481	-0.137549549	 1.3908749345	 0.086373
N	 2.7392914949	 0.6656130066	 0.6641940009	-0.4411
C	-1.3327278466	-0.5283114177	 0.0621795902	 0.288657
N	-2.3957290117	-0.96949683	 0.1489925544	-0.311586
C	 0.66668967	-0.4609795529	-1.2512048419	 0.329657
N	 1.1395210264	-0.871996337	-2.220783174	-0.324332
H	 0.8996329771	 2.0233232484	-0.1531375882	 0.186988
H	-0.6895404282	 1.8765758275	-0.9597493399	 0.151566
H	-0.597696861	 1.9503444613	 0.8197653008	 0.145034
H	 0.3822144861	-1.2415700897	 1.601566082	 0.27024
H	 2.4619792055	-0.6966524113	 2.2514488411	 0.114784
H	 3.7018921086	 0.7390315533	 0.9820045825	 0.237497
