17
gdb 19611	3.81993	1.9792	1.66083	1.201	66.69	-0.2315	0.0683	0.2998	826.862	0.142636	-363.787203	-363.780227	-363.779283	-363.817966	27.602	
C	 0.0096887552	 1.5874496787	-0.0001883926	-0.420735
C	 0.0806792599	 0.0740962487	-0.0954470919	 0.084985
C	 0.7173547828	-0.6589176643	-1.2922591815	-0.138264
C	 1.2319160946	-1.690900642	-0.2087942717	-0.081635
C	 2.3363612109	-0.7255318205	 0.0521058035	-0.087581
C	 2.1710097922	-0.1098594997	-1.3417608386	 0.146936
O	 2.9936321279	-0.7137248568	-2.3158581685	-0.445661
N	 1.0521276923	-0.6366698155	 0.822494756	-0.155908
H	 0.9796464156	 2.0668518208	-0.1531859768	 0.126075
H	-0.6881928986	 1.9840934598	-0.7457810986	 0.119909
H	-0.3526189005	 1.8804787599	 0.9903832276	 0.129579
H	-0.902158999	-0.3538357696	 0.1306601007	 0.0833
H	 0.1884378897	-0.8608076627	-2.2225409893	 0.074966
H	 1.0984986104	-2.7479749513	-0.0210283786	 0.100726
H	 3.2431128877	-0.8496486229	 0.630595462	 0.100518
H	 2.3092798535	 0.9655070462	-1.4753856125	 0.083369
H	 2.9675098456	-1.667817659	-2.1726666092	 0.279422
