17
gdb 20150	4.16923	2.34784	2.03165	1.8429	68.94	-0.222	0.0773	0.2993	733.1402	0.144454	-326.670078	-326.664116	-326.663172	-326.699761	24.8	
C	 0.0526507653	 1.5606344414	 0.0111014827	-0.398472
C	 0.0200505907	 0.0305982826	 0.0027841079	-0.002038
C	 0.8177824116	-0.6200325361	-1.1139561645	-0.078547
C	 2.2720392651	-0.8211522387	-0.6957323818	-0.112878
C	 1.3019975398	-1.9696981228	-0.6646891564	-0.030524
N	 1.2479360461	-1.9791246305	 0.8520314313	-0.169261
C	 2.1938593352	-0.8147034633	 0.8390430509	-0.044771
C	 0.7597211741	-0.6010704193	 1.1657067933	-0.055609
H	 1.0842104142	 1.9269946432	 0.0135926579	 0.120795
H	-0.4498146778	 1.9691296049	-0.8715312387	 0.11427
H	-0.4524814066	 1.9626751578	 0.8954549807	 0.114755
H	-1.0198953261	-0.319609991	-0.0191441058	 0.080904
H	 0.590500057	-0.4542311178	-2.159972879	 0.088691
H	 3.1339382564	-0.6346312755	-1.3195764113	 0.091885
H	 1.2433146891	-2.8983679799	-1.2156968358	 0.096339
H	 3.0226252061	-0.7460278169	 1.5336463964	 0.092663
H	 0.4334262899	-0.4598466582	 2.1905413123	 0.091796
