12
gdb 25114	2.99041	1.61794	1.25107	3.0991	64.4	-0.2687	-0.0933	0.1754	946.4545	0.078093	-468.820119	-468.813083	-468.812139	-468.85217	25.546	
N	-0.163079774	 1.3683222859	 0.1620423171	-0.462108
C	-0.025430679	 0.1364425267	-0.024351092	 0.420152
O	 1.2708418865	-0.4392478003	-0.1116490208	-0.211908
C	 1.5857664796	-1.364373074	-1.0349537864	 0.148618
N	 0.9051057444	-1.8596688732	-1.9839465589	-0.288732
C	-0.4683109237	-1.6955170102	-2.1694243859	 0.358063
O	-1.0016458991	-1.6906742432	-3.2494601982	-0.293756
C	-1.2945384692	-1.6044739693	-0.9065448237	-0.067975
N	-1.0901318471	-0.7598282635	 0.021067595	-0.175552
H	 0.7324457713	 1.8518565805	 0.1092032859	 0.248415
H	 2.6241483469	-1.6607822651	-0.8994867013	 0.163149
H	-2.1615103165	-2.2622054144	-0.8326988508	 0.161634
