16
gdb 817	5.88512	1.90585	1.51808	0.9192	63.6	-0.2369	0.0136	0.2505	805.7743	0.137803	-325.758431	-325.751655	-325.750711	-325.789148	25.597	
O	-0.152877709	 1.3269284641	 0.2066800016	-0.39879
N	 0.0104523736	-0.0732677654	 0.1518219129	-0.22919
C	-1.1016254782	-0.6527812741	-0.0598459244	 0.41355
C	-2.4702037752	-0.0184510792	-0.204154649	-0.285064
C	-3.4069454581	-1.204606535	-0.515822259	-0.213658
C	-2.7038652116	-2.4208321951	 0.1205348435	-0.205679
C	-1.2098280182	-2.1601804825	-0.1550872298	-0.280465
H	 0.7460684383	 1.6269181198	 0.3765834727	 0.303763
H	-2.7342265639	 0.4730431956	 0.7407479311	 0.126838
H	-2.4726214701	 0.7670949235	-0.9649589781	 0.12607
H	-4.4231206543	-1.0541963105	-0.142664579	 0.099625
H	-3.4780820563	-1.3473921115	-1.6005714772	 0.103413
H	-2.8845963509	-2.4315192083	 1.2020673844	 0.10497
H	-3.0515224538	-3.3765266987	-0.2799271396	 0.098955
H	-0.9568543645	-2.4820429002	-1.1745811396	 0.116837
H	-0.5255377578	-2.6720866024	 0.5246518495	 0.118826
