20
gdb 83796	2.6247	1.71263	1.42724	1.8563	77.8	-0.215	0.0753	0.2904	1006.398	0.172862	-403.106607	-403.09887	-403.097926	-403.138487	30.903	
C	-0.4728225798	 1.4309995891	-0.1341805594	-0.324167
N	-0.0257153283	 0.0522314512	 0.0136548383	-0.106611
C	 1.3291974529	-0.3849116351	-0.3173368476	-0.041558
C	 2.4767017073	 0.5661463295	-0.6542247526	-0.240021
C	 3.5310444308	 0.6435636717	 0.4690282156	-0.240294
C	 2.9095260522	 0.9515856499	 1.8130311984	 0.057699
O	 1.8010863195	 1.857444728	 1.7987671421	-0.254164
C	 1.5408174635	 0.4799738587	 2.1016769024	 0.023605
C	 0.8333263144	-0.3956750924	 1.0991921106	-0.035393
H	 0.2731831126	 2.1964915797	 0.0973904693	 0.1392
H	-0.8220637561	 1.5656638156	-1.1635430048	 0.11507
H	-1.3299156879	 1.5836785078	 0.5296583345	 0.1199
H	 1.3487987783	-1.3290213981	-0.8593424413	 0.086198
H	 2.9612736885	 0.2312651604	-1.5757602737	 0.100853
H	 2.0971755769	 1.5722289369	-0.8512871672	 0.119503
H	 4.0736758117	-0.3076165071	 0.555571523	 0.106239
H	 4.2777794855	 1.407862864	 0.2240023121	 0.10792
H	 3.5969392405	 1.0995781971	 2.6458959336	 0.090114
H	 1.2563459075	 0.3120769017	 3.1400829043	 0.093079
H	 0.5158913699	-1.3376140585	 1.5479507025	 0.082829
