16
gdb 16725	3.83222	1.73827	1.70721	1.5157	68.78	-0.2364	0.0368	0.2731	840.5238	0.130833	-346.551754	-346.544801	-346.543857	-346.58274	27.278	
C	 0.6077247324	-0.8881343352	 0.5687867381	-0.499434
C	 0.2528539171	 0.2225102924	 0.275610854	 0.377957
C	-0.2107113591	 1.5621034273	-0.097577986	-0.091211
C	-0.9325229029	 2.3057541655	 1.0708631127	-0.253061
C	 0.1140899367	 3.2827406813	 1.576789857	-0.066857
C	 1.4935167226	 2.7314783054	 1.9020273733	-0.328235
C	 1.1931724575	 3.2894115072	 0.536219484	 0.120438
O	 0.8770698955	 2.4023152133	-0.508460797	-0.249375
H	 0.9287799686	-1.8680739676	 0.8233788539	 0.201363
H	-0.8709799578	 1.4630325369	-0.9663959694	 0.116593
H	-1.7941950334	 2.8569512637	 0.6824211303	 0.110404
H	-1.2903423421	 1.6000474216	 1.8238014596	 0.12103
H	-0.2218449773	 4.19233632	 2.0601398558	 0.091519
H	 2.1188157204	 3.3330682328	 2.5535591183	 0.112127
H	 1.6234620608	 1.6606639608	 2.0104030344	 0.135034
H	 1.684838801	 4.1813122945	 0.1667330911	 0.101707
