16
gdb 129834	3.97996	0.96537	0.81251	3.3665	77.18	-0.2081	0.0333	0.2414	1369.3537	0.124787	-396.913869	-396.905033	-396.904089	-396.94809	32.568	
N	-0.0635258764	 1.3286972477	-0.3224955997	-0.606593
C	-0.0499985213	-0.0491858472	-0.0960581958	 0.401795
C	-0.8957571628	-1.0660683267	-0.4964031645	-0.363215
C	-0.3815365881	-2.2254803234	 0.1326087247	 0.365108
C	-0.9196534704	-3.6324095258	 0.0803724965	-0.451705
C	-1.2899874583	-4.0739762151	-1.2617079485	 0.31099
C	-1.6091239779	-4.4319987913	-2.3635954476	-0.467144
N	 0.696554964	-1.9639498045	 0.8594457829	-0.300776
N	 0.8765054457	-0.6235347808	 0.7116072285	-0.247691
H	 0.8342043858	 1.6978421528	-0.6138820743	 0.250476
H	-0.7637129014	 1.5868023476	-1.0047143829	 0.257507
H	-1.7366522434	-0.9919199976	-1.1661363986	 0.100774
H	-0.1601650043	-4.2991336342	 0.5030633265	 0.150028
H	-1.7993620379	-3.7155439853	 0.7340633915	 0.140464
H	-1.8815748874	-4.754973275	-3.3373939512	 0.192799
H	 1.6142432841	-0.1670175514	 1.2196202424	 0.267184
