13
gdb 133456	4.97373	1.04089	0.86535	2.9753	63.19	-0.2639	-0.0956	0.1684	1203.9688	0.088648	-494.031011	-494.023506	-494.022562	-494.063906	26.852	
O	 0.3476240529	 0.8982065708	-0.8012214925	-0.421733
C	-0.0179790034	 0.1226140569	 0.3047398932	-0.103031
C	-1.4221296394	-0.4236211958	 0.2138494535	 0.370563
N	-1.8727401978	-1.1841320156	 1.2311028227	-0.252099
C	-3.1024331709	-1.6333478521	 1.0991541281	-0.113746
C	-3.835941972	-1.3025528066	-0.0503242588	 0.339104
F	-5.0702829768	-1.7499502071	-0.1887596599	-0.046031
N	-3.3585348285	-0.5602112648	-1.0150108938	-0.219115
N	-2.1096327507	-0.1070147104	-0.8755378054	-0.260834
H	-0.4132464522	 0.9071153093	-1.3995974514	 0.300972
H	 0.6656750797	-0.7320710909	 0.4288154408	 0.125574
H	 0.0539114959	 0.7072229373	 1.2354258812	 0.125694
H	-3.5305902169	-2.253323361	 1.8824211121	 0.154682
