20
gdb 90806	3.1165	1.75065	1.41473	1.2549	80.52	-0.2103	0.071	0.2813	985.1969	0.173375	-365.942844	-365.935703	-365.934759	-365.974543	29.576	
C	-0.5095544765	 1.464987991	 0.0865350856	-0.397037
C	 0.0284058154	 0.0343564793	-0.0304051206	-0.005408
C	 0.7933659551	-0.1805578067	-1.3597204462	-0.165762
N	 2.0933292245	-0.8405633345	-1.2537128691	-0.096727
C	 3.056218654	-0.4744712563	-0.2412968204	-0.065436
C	 2.4198721382	-0.1655454415	 1.153921014	-0.100073
C	 1.7900298423	-1.549318962	 1.1584918969	-0.116847
C	 0.9182061494	-0.3252280906	 1.1437620381	-0.038082
C	 2.4205660651	-1.8284515882	-0.244994596	-0.065829
H	 0.3134497048	 2.1884039294	 0.1057264248	 0.117851
H	-1.1554638561	 1.7143922982	-0.7625007417	 0.111511
H	-1.0956926649	 1.5982918206	 1.002725816	 0.107979
H	-0.828551361	-0.6512654083	-0.0027454988	 0.071875
H	 0.1891461952	-0.7647946613	-2.0614232482	 0.104745
H	 0.9848461067	 0.7855286269	-1.84155623	 0.101907
H	 4.0492437831	-0.1568701772	-0.5399367412	 0.089689
H	 2.9558283761	 0.32765374	 1.9540265814	 0.084693
H	 1.7784208309	-2.2791578335	 1.957389879	 0.084792
H	 0.4707463816	-0.1155039364	 2.1138887954	 0.084295
H	 2.8088428562	-2.791564169	-0.5566679791	 0.091863
