20
gdb 74532	3.71649	1.31769	1.22699	2.1444	84.74	-0.2016	0.0117	0.2132	1116.3641	0.172368	-365.97326	-365.965485	-365.964541	-366.005033	31.583	
C	-0.2279256832	 1.5510711183	 0.053348487	-0.485462
C	 0.0059975417	 0.0741059648	-0.0110644442	 0.315313
C	 0.0737323933	-0.6891125494	-1.11858548	-0.290249
C	 0.1706629583	-2.1252552636	-0.7628940493	 0.228955
C	 1.2788410888	-3.1910179884	-0.8676451811	-0.268301
C	 1.3042276117	-3.2459882336	 0.7059424034	-0.261996
C	 0.1850671512	-2.186014176	 0.7309625646	 0.238154
C	 0.1395021502	-0.7668670934	 1.2676592643	-0.412923
N	-0.955413001	-2.7460968247	-0.0134089718	-0.393914
H	 0.5590178274	 2.0524016816	 0.6314650819	 0.12517
H	-0.2561154982	 1.9978717245	-0.944093871	 0.126232
H	-1.1762070221	 1.7852842082	 0.5545476675	 0.12669
H	 0.0188866492	-0.3041890633	-2.1316583545	 0.090735
H	 0.998277409	-4.1101134691	-1.3869440916	 0.105887
H	 2.2084798473	-2.8030658325	-1.2886737657	 0.103149
H	 1.0563502318	-4.2033790121	 1.1706449105	 0.105409
H	 2.2455603695	-2.8747868431	 1.1183189904	 0.099829
H	 1.062005291	-0.5126486238	 1.8071305502	 0.112791
H	-0.6833396492	-0.5769774505	 1.9700069987	 0.109734
H	-1.7174792165	-2.0708232439	 0.0029205307	 0.224796
