19
gdb 32928	4.1483	0.91029	0.768	1.2231	81.23	-0.1906	0.0338	0.2245	1522.8624	0.157864	-423.060798	-423.051347	-423.050403	-423.096549	33.62	
C	-0.0487827767	 1.4203752678	 0.0346637546	-0.386081
C	-0.2245669361	-0.0628260245	-0.2269985843	-0.059477
O	 0.968369057	-0.532320398	-0.8811304749	-0.278238
C	 0.9789711164	-1.8166118144	-1.2518735306	 0.412564
C	 1.4341642314	-2.4169398673	-2.3807432533	-0.297197
C	 1.2709976144	-3.8279166016	-2.1553670886	-0.254552
C	 0.7217914238	-3.979602361	-0.9234663186	 0.353384
C	 0.2880462283	-5.1518932003	-0.1216253004	-0.487695
O	 0.5425395627	-2.7394918556	-0.3498660329	-0.222975
H	 0.8212081879	 1.5974737384	 0.6730699137	 0.132739
H	 0.0948373006	 1.9652787052	-0.9023728362	 0.130734
H	-0.9349397839	 1.8190732549	 0.5372106366	 0.120256
H	-0.3710548689	-0.617103949	 0.7061684674	 0.121099
H	-1.0881170028	-0.2564440782	-0.8771537977	 0.105843
H	 1.8307716257	-1.9192517934	-3.2497874749	 0.10741
H	 1.5245046148	-4.62634279	-2.8358546721	 0.103058
H	 0.4865656723	-6.0698158361	-0.6799112674	 0.133739
H	 0.8211871399	-5.2128611439	 0.8346092515	 0.133728
H	-0.7844409068	-5.1172497529	 0.105147138	 0.131663
