19
gdb 88026	2.32061	1.35824	1.08897	2.0439	81.56	-0.2505	0.0188	0.2693	1204.3866	0.157099	-385.818629	-385.809488	-385.808543	-385.85266	34.14	
C	-0.0858790724	 1.5009746419	-0.0823826056	-0.409738
C	 0.0963977878	-0.0001628549	-0.0565810154	-0.055364
C	 1.4759478563	-0.6148227906	-0.1649290798	-0.355836
C	 0.7175749548	-0.6776129258	 1.124770565	 0.279202
C	 1.0552010841	-0.1097739612	 2.4970301558	-0.141727
O	 0.5039213121	-1.2809009586	 3.1439037231	-0.286406
C	 0.2163203709	-1.9245073344	 1.8742673429	-0.122243
C	-1.1776852814	-2.3014776898	 1.7063489927	 0.339032
C	-2.3262053476	-2.6145338498	 1.5371490445	-0.449694
H	 0.7486465041	 2.0131843097	 0.4086315843	 0.114673
H	-0.1394322381	 1.8718610585	-1.1114056688	 0.121848
H	-1.0072387594	 1.7995146322	 0.429437889	 0.125089
H	-0.7055743527	-0.5634653726	-0.528454802	 0.098151
H	 1.5956569577	-1.5317120164	-0.7340084216	 0.116033
H	 2.3297546872	 0.0555850901	-0.2149118235	 0.112426
H	 2.1243094392	 0.0091847092	 2.7160602158	 0.102248
H	 0.5233803391	 0.8038530572	 2.7907140742	 0.10902
H	 0.8573622399	-2.8074655426	 1.7392342251	 0.102037
H	-3.3417950117	-2.8946773421	 1.4017685143	 0.20125
