23
gdb 101897	5.74781	0.48437	0.4665	3.4079	84.41	-0.2468	-0.0184	0.2284	2353.0991	0.20237	-425.444486	-425.433093	-425.432149	-425.482517	39.652	
C	 0.0712728996	 1.5861883122	 0.0392479155	-0.381069
C	 0.0188213503	 0.0569567414	 0.0113426819	-0.189438
C	-1.4092111176	-0.5008416531	 0.0543466276	 0.133233
O	-2.1993418813	-0.0017813069	-1.02622071	-0.427846
C	-1.4356173676	-2.034553808	 0.0996898155	-0.200713
C	-2.8508124339	-2.6086640932	 0.2201432111	-0.191559
C	-2.8800189072	-4.1459300403	 0.1867145951	-0.276017
C	-4.2924449035	-4.6825198896	 0.2118471383	 0.16023
O	-4.7210611407	-5.472584549	 1.0127813421	-0.238182
H	 1.0994645359	 1.9494876099	-0.0481408606	 0.110275
H	-0.5156675169	 2.0075537846	-0.780963343	 0.126858
H	-0.3428518461	 1.975763828	 0.9756949609	 0.115836
H	 0.5132868823	-0.3194721746	-0.8968786404	 0.084468
H	 0.5843090151	-0.3560633448	 0.8559610971	 0.098104
H	-1.9118148606	-0.1130591107	 0.9510618674	 0.087008
H	-1.769960198	-0.2708998249	-1.846730399	 0.275788
H	-0.9550588649	-2.4234861306	-0.8111918774	 0.083919
H	-0.8191126297	-2.3789295536	 0.93986272	 0.100197
H	-3.30608794	-2.2584107272	 1.1554358081	 0.109633
H	-3.4660365497	-2.2033470938	-0.5909493492	 0.116427
H	-2.4141324732	-4.4934445973	-0.7478639815	 0.114355
H	-2.3254861906	-4.5839018596	 1.0222711479	 0.119091
H	-4.9474706218	-4.2747545489	-0.5950568875	 0.069403
