20
gdb 116608	3.2053	1.00621	0.8539	2.1867	84.58	-0.2413	0.0286	0.2699	1441.9503	0.170353	-403.133084	-403.123859	-403.122915	-403.168192	33.588	
C	-0.7041433318	 0.0008564636	 0.5941023195	-0.358731
C	 0.4501970033	 0.592729836	-0.2160288037	-0.149131
N	 0.9189043679	-0.3693805903	-1.2094728163	-0.352002
C	 2.1339973786	-0.654019069	-1.2763235149	 0.432037
O	 3.2258147758	-0.1929867552	-0.5411941055	-0.284395
C	 4.1447805647	-1.0482475413	-1.291674129	-0.146628
C	 2.9663470288	-1.5628237784	-2.1118516409	 0.170584
C	 2.6172559323	-2.9444436903	-2.586888108	-0.314413
C	 2.828203313	-1.8358670287	-3.5826341729	-0.31427
H	-1.5110737003	-0.3238389735	-0.069146401	 0.122212
H	-0.3700345648	-0.8685575782	 1.1689394536	 0.115885
H	-1.103753041	 0.7412319036	 1.2945609602	 0.106709
H	 0.0924076237	 1.479668832	-0.7551520436	 0.104947
H	 1.2528082101	 0.9253822263	 0.4551871865	 0.109097
H	 4.8889758227	-0.4490800305	-1.8242057017	 0.119444
H	 4.6350179796	-1.7699743599	-0.631894541	 0.119296
H	 3.3802184932	-3.7114098688	-2.5033440909	 0.120317
H	 1.6039537868	-3.2813093381	-2.3983240429	 0.139267
H	 1.9593264068	-1.4142986177	-4.0757018353	 0.139424
H	 3.7351211205	-1.8465503817	-4.1782134223	 0.120352
