20
gdb 75163	3.99703	1.00916	0.8571	1.5896	80.6	-0.2374	0.0338	0.2712	1391.6339	0.1715	-403.165226	-403.156409	-403.155465	-403.199717	32.48	
C	-0.2662596416	 1.4090227419	 0.0492601511	-0.471493
C	-0.023726951	-0.0578628512	-0.060828747	 0.401318
N	-0.1698534625	-0.7694426817	-1.1034402295	-0.306644
C	 0.1823998721	-2.1421105091	-0.7214805258	-0.20883
C	 0.5625424598	-2.0682940475	 0.7856483094	 0.080998
O	 0.3945077473	-0.655439187	 1.0900696722	-0.264888
C	-0.2913736106	-2.9004934502	 1.7008473507	 0.018718
C	 0.1485438701	-4.3038253124	 2.0459712778	-0.271669
C	 0.17495358	-3.2235836213	 3.0959837184	-0.269726
H	 0.6504055591	 1.9222682813	 0.3565885898	 0.142811
H	-0.6002403969	 1.7988063919	-0.9115980868	 0.150201
H	-1.0230780102	 1.6118868458	 0.8135027317	 0.142701
H	-0.6683697321	-2.8121644127	-0.8926096884	 0.111002
H	 1.0082619605	-2.5055768869	-1.341863674	 0.111637
H	 1.6198131312	-2.3041718965	 0.9545946636	 0.080052
H	-1.3588639954	-2.7458025102	 1.5656254321	 0.088913
H	-0.6103921053	-5.0748612006	 2.1117080354	 0.116675
H	 1.0978805003	-4.6508971575	 1.6507656407	 0.114066
H	 1.1407239557	-2.8388387404	 3.4062081106	 0.117898
H	-0.5655071705	-3.2537985157	 3.8870902879	 0.116263
