20
gdb 64451	2.19452	1.73876	1.26468	3.2138	75.56	-0.2342	0.0297	0.2639	1084.3427	0.171235	-440.33172	-440.322693	-440.321749	-440.365087	34.502	
C	 0.0958552224	 1.478870226	-0.0682350332	-0.405359
C	-0.0421014602	-0.0441266341	-0.0027571054	 0.242124
C	-1.521505331	-0.4577475369	 0.066286755	-0.410624
O	 0.5631152569	-0.5344981362	-1.2097565946	-0.291046
C	 0.9789789948	-1.8807100594	-1.1550891682	-0.087554
C	 2.0977216117	-2.0326633523	-0.134476605	-0.158303
N	 1.6367623636	-1.4816449739	 1.1288467356	-0.333877
C	 0.6655902726	-0.5375068118	 1.2778888713	 0.393942
O	 0.3454393424	-0.1034939348	 2.3710913632	-0.396244
H	 1.1478349064	 1.7613868507	-0.1637605217	 0.118608
H	-0.4430203702	 1.8584612232	-0.940663127	 0.117485
H	-0.3098326731	 1.9279746273	 0.8393269045	 0.142012
H	-2.0569349922	-0.0444685192	-0.7927136062	 0.118996
H	-1.6388930587	-1.5456689403	 0.0563622314	 0.114438
H	-1.9669011753	-0.0814617152	 0.9894152964	 0.144472
H	 0.1464305068	-2.5535298398	-0.898776877	 0.099362
H	 1.3326718976	-2.1431869183	-2.1558728644	 0.114801
H	 2.3519010471	-3.0906187099	-0.0010578921	 0.112004
H	 2.9971517858	-1.5116681894	-0.4914014942	 0.116423
H	 2.1071749827	-1.7333307856	 1.9864031116	 0.24834
