19
gdb 6719	4.41271	0.89772	0.7997	3.6886	69.1	-0.2487	0.0322	0.2808	1426.7324	0.163952	-402.228349	-402.218602	-402.217658	-402.263866	34.002	
C	-0.0682905663	 1.2893700567	-0.5064352146	-0.40622
C	 0.0005895114	-0.1044856594	 0.1150716177	 0.13828
O	 0.4867285513	-0.0506290824	 1.4585413761	-0.432461
C	-1.3394264508	-0.8453441947	 0.0395947115	-0.188172
C	-1.2409908933	-2.2765897536	 0.5825718467	-0.165007
N	-2.5153895243	-2.9830829879	 0.5869383488	-0.268128
C	-3.0453201367	-3.5311372978	-0.5353329678	 0.150256
O	-2.526946495	-3.4990880646	-1.6328889323	-0.328166
H	 0.8977990492	 1.793506997	-0.4171224743	 0.124886
H	-0.3387486181	 1.237247743	-1.565659304	 0.123768
H	-0.8244021555	 1.9037797235	-0.0007180651	 0.105092
H	 0.7575669465	-0.6937077774	-0.418359821	 0.095398
H	-0.0790057607	 0.5595919582	 1.9451315633	 0.274849
H	-2.0944908621	-0.2844591201	 0.609651007	 0.076888
H	-1.6851885502	-0.8854151211	-0.9984930069	 0.127345
H	-0.5440002923	-2.851385525	-0.0357138523	 0.134216
H	-0.8490181384	-2.2607419084	 1.6017773969	 0.118361
H	-3.0439302897	-3.0405920213	 1.441906834	 0.247211
H	-4.017108895	-4.0274696248	-0.3377349435	 0.071601
