20
gdb 109222	3.39344	1.1264	0.95862	1.3897	80.83	-0.2293	0.0296	0.2588	1312.6229	0.170913	-403.163173	-403.154321	-403.153377	-403.197551	32.963	
C	 0.4794677623	 0.7618708222	 0.6563960511	-0.379305
C	-0.3382000492	 0.3005000074	-0.5608993314	-0.276466
C	 0.5156641434	-0.2639807232	-1.6498363809	 0.40111
N	 0.6310246047	 0.1866371943	-2.8331640284	-0.313752
C	 1.5812587342	-0.6930197295	-3.526131083	-0.260743
C	 1.9806923896	-1.7293052565	-2.4696310042	 0.413568
C	 2.2092125939	-3.1854693089	-2.7107166802	-0.327988
C	 3.3514223944	-2.2852836836	-2.2607039413	-0.327455
O	 1.2367268999	-1.3710542728	-1.3011666626	-0.279675
H	 1.0543607742	-0.0670197132	 1.0767562245	 0.133983
H	 1.1797719114	 1.5551518543	 0.3780376065	 0.127506
H	-0.1826853948	 1.1513944863	 1.4345232805	 0.118063
H	-1.0528636933	-0.4708597924	-0.2490489782	 0.120862
H	-0.9064550749	 1.1286569236	-0.9891462642	 0.131214
H	 1.1032894875	-1.1491071013	-4.4015552407	 0.114585
H	 2.4379142483	-0.1122029181	-3.8885184571	 0.114491
H	 1.8085154378	-3.8806618604	-1.9814484856	 0.126846
H	 2.1952829176	-3.5402232266	-3.7365330882	 0.118427
H	 4.1225875702	-2.0203894609	-2.9773302762	 0.11832
H	 3.6957629528	-2.3937869006	-1.2382514604	 0.126407
