18
gdb 75235	3.02468	1.45052	1.0683	4.4082	80.18	-0.2309	-0.043	0.188	1142.0729	0.147883	-401.964977	-401.95655	-401.955606	-401.99824	31.462	
C	 0.0391416874	 1.4997132218	 0.0646918792	-0.490144
C	 0.0204979896	 0.0095951927	-0.0247315986	 0.219374
C	-0.0431705563	-0.779292645	-1.1082135223	-0.174336
C	-0.0369766387	-2.2557947707	-0.7934413318	-0.376176
C	 0.0281099549	-2.2813677355	 0.7286215438	 0.207082
C	-0.6211359811	-3.3145257756	 1.5820895066	-0.27039
N	 0.83949026	-3.2511588455	 1.4936139179	-0.331318
C	 0.0724744974	-0.8408114501	 1.1940610486	 0.303873
O	 0.1116571218	-0.4620056245	 2.3427468729	-0.333151
H	 0.9524591944	 1.8426753885	 0.5629507769	 0.145665
H	-0.0203494191	 1.9682846777	-0.920804738	 0.119905
H	-0.7956190403	 1.8574513093	 0.6771330174	 0.144244
H	-0.0970432969	-0.4197355282	-2.1310864215	 0.10788
H	-0.9296628223	-2.7548531926	-1.1912544535	 0.123048
H	 0.8285065383	-2.7520812149	-1.2538592865	 0.120815
H	-1.0259330742	-3.0034541182	 2.5411422559	 0.139519
H	-1.1508491079	-4.1230460348	 1.0841975613	 0.112498
H	 1.1744214929	-3.9700991645	 0.8546762618	 0.231612
