13
gdb 25164	3.09993	1.55993	1.03773	6.2008	78.8	-0.2292	-0.0943	0.1349	1046.2757	0.092266	-411.831124	-411.824056	-411.823112	-411.862899	26.502	
N	-0.1130563359	 1.2892400221	-0.3345128427	-0.557884
C	 0.0226622803	 0.0565411317	-0.0373175866	 0.331685
N	-1.1169191252	-0.6741981382	 0.3279445713	-0.316206
C	-1.0989341934	-1.9839067919	 0.6632401238	 0.031259
C	 0.0794106561	-2.6713695665	 0.6580762452	-0.0825
N	 1.2487290653	-2.0581717979	 0.3185543492	-0.288102
C	 1.2316185848	-0.79668668	-0.0044443769	 0.134912
C	 2.4683783327	-0.160980712	-0.3601995134	 0.266868
N	 3.4378809265	 0.3991511076	-0.6550378304	-0.326873
H	 0.7804684333	 1.7105096133	-0.5817604716	 0.242151
H	-1.9784345966	-0.1448428874	 0.3248169181	 0.280277
H	-2.0489686775	-2.4324865056	 0.9262832657	 0.153412
H	 0.1254930897	-3.7189927751	 0.9213698482	 0.131
