20
gdb 115022	2.07944	1.46889	0.97191	4.008	83.75	-0.264	-0.0012	0.2628	1265.9353	0.171766	-366.046796	-366.037822	-366.036878	-366.080882	33.344	
C	-0.0187789154	 1.6124158774	-0.0031690689	-0.392644
C	-0.0095094306	 0.0804975109	 0.0164499569	-0.199242
C	 0.7503078163	-0.5307825801	-1.1628237497	 0.023445
C	 2.2657215511	-0.2050214963	-1.2287097065	-0.264321
C	 2.8592321004	-1.4219435245	-1.8918763989	-0.056486
C	 2.0126866089	-2.447106082	-1.9271683413	-0.072113
C	 0.6827343707	-2.096321484	-1.2750250086	-0.222777
C	 0.5415197824	-2.7841549188	 0.0154236918	 0.27909
N	 0.4373444939	-3.3336229887	 1.0276280303	-0.338791
H	 0.9942943616	 2.0226381218	 0.0619486248	 0.120579
H	-0.4736147112	 1.9961619403	-0.923484325	 0.114252
H	-0.5902187612	 2.0097338129	 0.840749378	 0.119593
H	 0.4299200459	-0.2766920807	 0.9553474503	 0.12165
H	-1.042786142	-0.2884391231	 0.0074672758	 0.103498
H	 0.3007458619	-0.1623815934	-2.0930720975	 0.087995
H	 2.463567872	 0.7199878154	-1.7801404296	 0.112609
H	 2.6937173325	-0.0654537214	-0.2251861061	 0.119586
H	 3.8762734611	-1.447988092	-2.2670381853	 0.105889
H	 2.216540678	-3.4389689508	-2.3110811359	 0.114063
H	-0.1744952463	-2.4000935028	-1.8875237548	 0.124124
