22
gdb 119458	4.82164	0.77213	0.74199	0.6786	83.07	-0.2214	0.0766	0.298	1613.4486	0.193623	-404.303952	-404.294227	-404.293283	-404.338834	36.274	
C	-0.0788981224	 1.599221426	 0.1789520616	-0.403797
C	 0.0044548063	 0.0831716306	 0.0763519409	 0.042867
C	 0.9674246152	-0.5513941018	-0.9967733208	-0.294374
C	 1.6871326304	-1.3017803341	 0.138256394	 0.367675
C	 2.3159274609	-2.6604538067	 0.0738934021	-0.321591
C	 3.6310980243	-2.6704148623	-0.7036867782	-0.065741
O	 4.1119570688	-4.0057327317	-0.7144621288	-0.419985
N	 2.2139492918	-0.2307279137	 1.0288429361	-0.374283
C	 0.7992655382	-0.6724470917	 1.1538522311	-0.1377
H	 0.9167583662	 2.0228556398	 0.3346781011	 0.136504
H	-0.5007114044	 2.0332834947	-0.7342486812	 0.107852
H	-0.7161187146	 1.9044901978	 1.0167756282	 0.106854
H	-0.9947055261	-0.3523747237	-0.0244697854	 0.070385
H	 0.4454062749	-1.2132341952	-1.6924019687	 0.097624
H	 1.5914117371	 0.1503083674	-1.5567134013	 0.09942
H	 2.5047705553	-3.0367642235	 1.087368488	 0.101079
H	 1.6289105325	-3.3705149318	-0.4026929867	 0.110124
H	 3.4591707017	-2.2978117135	-1.7261185278	 0.092008
H	 4.3493896742	-1.9866247434	-0.2250991104	 0.093896
H	 4.9379561587	-4.0243081432	-1.2062268763	 0.286263
H	 2.7292506098	-0.6949419608	 1.777727868	 0.220971
H	 0.4333290213	-1.0653723692	 2.0962977044	 0.083949
