21
gdb 108033	3.41805	1.31529	1.2276	0.5225	86.51	-0.2142	0.02	0.2342	1134.5583	0.18412	-349.934059	-349.926253	-349.925309	-349.966255	31.755	
C	 0.0615266194	 1.4927215173	-0.1983293192	-0.371517
C	-0.0184868246	-0.0026256835	 0.1383973445	-0.300181
C	-1.4257539474	-0.5347655481	 0.124398863	 0.367526
C	-2.4975101569	-0.2279937274	 1.1692194916	-0.281946
C	-3.2520001494	-1.5468044262	 0.7321063105	-0.099055
C	-4.2203497597	-1.1591513701	-0.3652266235	-0.093309
C	-3.5227242883	-0.800329343	-1.4481505027	-0.082513
C	-2.0712178684	-1.0366638414	-1.2036999432	-0.121834
C	-1.936388522	-1.9514235052	-0.0133444867	-0.142789
H	 1.0957662175	 1.8494022439	-0.1712810998	 0.109155
H	-0.3404714842	 1.6910975494	-1.1971625819	 0.117874
H	-0.5160873912	 2.0896887651	 0.51523426	 0.119035
H	 0.5909768284	-0.5728681842	-0.574657881	 0.093965
H	 0.4272413453	-0.178139995	 1.1272146422	 0.094399
H	-2.0758412871	-0.3389540454	 2.1726490895	 0.097505
H	-3.0601100797	 0.7099692291	 1.1076223132	 0.087111
H	-3.6343902815	-2.1760081012	 1.5343306801	 0.065549
H	-5.2853317534	-1.0350396519	-0.2111956198	 0.09172
H	-3.9160556857	-0.3625620709	-2.3573704505	 0.091934
H	-1.3718642909	-1.1319919358	-2.0272491888	 0.076779
H	-1.4160712403	-2.9027052156	 0.0011964325	 0.080592
