20
gdb 133661	3.18321	0.72007	0.67399	2.2538	68.44	-0.3258	0.0757	0.4015	1702.015	0.165726	-534.68044	-534.670309	-534.669365	-534.716605	36.468	
C	-0.013335597	 1.5581033184	-0.0093270674	-0.391029
C	 0.0371346395	 0.0251796355	 0.0431395364	 0.032765
C	 0.8724327731	-0.4467541618	 1.2419466242	-0.384106
C	-1.390727473	-0.5491857375	 0.0549264791	-0.178067
C	-1.456602516	-2.0762597443	-0.059300097	-0.344318
C	-2.8760322914	-2.593921818	-0.1493122598	 0.285618
F	-3.5152027187	-2.1195039185	-1.2329794582	-0.086043
F	-2.9034070155	-3.9347135276	-0.227619632	-0.081594
F	-3.6048632017	-2.2427364406	 0.92467343	-0.087025
H	 0.9933677849	 1.9851803151	-0.0603391709	 0.112286
H	-0.5733151282	 1.9103836735	-0.881772304	 0.113003
H	-0.5007931593	 1.9637801458	 0.8852409316	 0.114907
H	 0.5310578416	-0.3272745121	-0.874300328	 0.073661
H	 0.401057363	-0.1498815632	 2.1866937407	 0.115098
H	 0.999866849	-1.5334220431	 1.2592319039	 0.113797
H	 1.8722613119	-0.0017033205	 1.2171864429	 0.114816
H	-1.9021836636	-0.2363213304	 0.9737563665	 0.109646
H	-1.9561672424	-0.1151851734	-0.7775098708	 0.109845
H	-0.9308016754	-2.4251290703	-0.9546504512	 0.126407
H	-0.9953332907	-2.5659903768	 0.8028688939	 0.130335
