16
gdb 127241	3.98706	1.01218	0.81543	3.8898	76.6	-0.2491	0.0006	0.2497	1357.1682	0.123753	-396.898333	-396.889579	-396.888635	-396.933015	30.971	
C	 0.4508400062	 1.3352082711	-0.044179718	-0.332506
N	 0.0554087018	-0.0582052348	-0.073457659	 0.072664
C	 0.7142927395	-1.126768998	-0.5829256707	-0.171433
C	-0.1188376004	-2.1913415624	-0.3347905485	 0.30576
C	 0.0423442341	-3.6513936432	-0.6561507004	-0.463055
C	 1.2922508397	-3.9611695651	-1.3414270921	 0.309701
C	 2.3234871574	-4.209866506	-1.9057580074	-0.451575
N	-1.2280043428	-1.7255864113	 0.3043867233	-0.256635
N	-1.1214877968	-0.4368398525	 0.4616935814	-0.148231
H	 1.3775423348	 1.4622399776	 0.5221981304	 0.148694
H	 0.5929114811	 1.7175119934	-1.0586828365	 0.148607
H	-0.3524146622	 1.8870236926	 0.4437399768	 0.171578
H	 1.6766023518	-1.0531397772	-1.0592301737	 0.154335
H	-0.0241975461	-4.2332569676	 0.2722336919	 0.156683
H	-0.8065749313	-3.9803989801	-1.2693073639	 0.156688
H	 3.2310236631	-4.4443031364	-2.4046935436	 0.198727
