17
gdb 37305	2.86181	2.22191	1.85199	1.794	73.68	-0.2205	0.0159	0.2364	813.4185	0.138983	-384.651616	-384.645751	-384.644807	-384.68145	25.614	
O	-0.0142647071	 1.4462091981	-0.0585085307	-0.23808
C	 1.2616011094	 0.8113453525	 0.0038213578	 0.040581
C	 0.0260543576	 0.0125602468	 0.0010963112	 0.020575
C	-0.0775749492	-0.7133454993	-1.3796451001	-0.146379
C	-0.8628919985	 0.1911234368	-2.3162402522	-0.063071
C	-0.0334753068	 1.0283697428	-2.9412408339	-0.068375
C	 1.3951110183	 0.6544110336	-2.7021575685	-0.08737
C	 2.0100336705	 0.5399244815	-1.2830424369	-0.078429
C	 1.3702437113	-0.6488623391	-1.9546943882	-0.085127
H	 1.8413526948	 1.0315363435	 0.8983726033	 0.091759
H	-0.4319866155	-0.4218119052	 0.8864767016	 0.094767
H	-0.4747720175	-1.7230294129	-1.2580960391	 0.070928
H	-1.9422611641	 0.2778243123	-2.2791681967	 0.0967
H	-0.3250715609	 1.8714993273	-3.555618832	 0.095346
H	 2.1225634351	 0.8298198965	-3.488590418	 0.086374
H	 3.0904517985	 0.6281113252	-1.2420915379	 0.085031
H	 1.9055594042	-1.5381344005	-2.2662558995	 0.08477
