19
gdb 65520	3.21704	1.34728	1.17417	1.4367	74.65	-0.254	0.0671	0.3211	1104.1271	0.158582	-422.966305	-422.958099	-422.957155	-422.998946	32.148	
O	-0.2588179897	 1.4735459717	-0.1499304796	-0.473877
C	-0.0357020753	 0.0787044559	-0.0077721027	 0.363813
C	 0.2958200569	-0.4707425028	 1.4263803746	-0.317964
C	-1.0153968582	-1.2614806939	 1.3937576364	-0.026302
C	-2.1759024165	-0.3322565646	 1.1966493359	-0.292752
C	-1.3427432765	-0.7124167067	 0.0030811348	-0.067106
C	 0.9244222726	-0.3607493765	-1.0973959214	 0.015283
C	 2.3836144033	-0.3513040687	-0.9222164085	-0.198499
O	 1.6479795792	-1.5773717547	-0.9354077882	-0.226168
H	 0.5943981811	 1.9183691519	-0.0909342883	 0.275912
H	 1.178336285	-1.112458664	 1.4241912287	 0.120356
H	 0.3823618696	 0.2901314796	 2.2084737576	 0.089347
H	-1.13695333	-2.2749519159	 1.7533664362	 0.08797
H	-3.1574981134	-0.7941654272	 1.2273144107	 0.110085
H	-2.1425848347	 0.6839881662	 1.5777912687	 0.119327
H	-1.760547868	-1.2191444114	-0.8587346343	 0.084404
H	 0.5349464639	-0.1988851227	-2.1043444039	 0.100718
H	 3.0306373858	-0.1850005406	-1.7817471196	 0.121579
H	 2.8119853251	-0.0805424554	 0.042294763	 0.113873
