17
gdb 39069	2.6626	1.93198	1.29676	1.7417	72.67	-0.2526	0.0055	0.2581	970.598	0.137336	-421.792927	-421.785991	-421.785047	-421.824224	27.66	
C	-0.1009126247	 1.5050108477	-0.2381647281	-0.172693
O	 1.150977509	 1.7030922382	 0.4659868862	-0.303113
C	 1.4128668636	 0.262760987	 0.514351355	 0.026154
C	 1.7759903319	-0.3156218239	 1.8417158075	-0.08811
C	 1.0199199142	-1.2486842829	 2.4217198962	-0.050562
C	-0.3031903738	-1.7589902126	 1.890559297	-0.293102
C	-0.9048254353	-0.8817525165	 0.8067583151	-0.052511
O	-0.5032512905	-1.1205987257	-0.5676103152	-0.289872
C	-0.0186850858	 0.0214752491	 0.0852955779	 0.353568
H	-0.9228618547	 2.0804828476	 0.2005614617	 0.11402
H	-0.0143175011	 1.738923018	-1.3078848279	 0.110771
H	 2.1581604339	-0.0023478931	-0.2505378666	 0.090013
H	 2.7113618745	 0.0010320524	 2.2944852658	 0.100665
H	 1.3541384443	-1.7011460007	 3.3524892522	 0.097738
H	-0.1897376388	-2.783923267	 1.5112951049	 0.135626
H	-1.0123059842	-1.8303929329	 2.7242467847	 0.117092
H	-1.9595500224	-0.6312733548	 0.9030845935	 0.104318
