19
gdb 26673	2.24578	1.56006	0.93591	3.0502	81.67	-0.1687	0.0465	0.2152	1258.3621	0.158608	-419.246993	-419.236735	-419.235791	-419.281894	36.964	
C	-0.0468889035	 1.4813458636	 0.0688154549	-0.507839
C	-0.0004982266	-0.0059352987	-0.0286813721	 0.265262
C	 0.0120555885	-0.8356801167	-1.1351846331	-0.001873
N	-0.0148912488	-0.5553168484	-2.5356270098	-0.634384
C	 0.0611809571	-2.1792272763	-0.6621845976	 0.26255
O	 0.0857977347	-3.2720740439	-1.472748783	-0.462253
C	 0.0782276227	-2.1656970151	 0.7110424534	 0.19841
C	 0.1262366018	-3.2764405604	 1.7027459128	-0.511938
N	 0.0395677776	-0.8234197725	 1.0727294692	-0.375053
H	 0.8305102097	 1.8968221016	 0.5813049001	 0.125365
H	-0.0733776138	 1.9127394508	-0.9356727006	 0.120806
H	-0.9358520047	 1.84025178	 0.6036219136	 0.125387
H	 0.7822101072	-0.0057744152	-2.8390802236	 0.2381
H	-0.8526799404	-0.0574935708	-2.8179832558	 0.238101
H	 0.0626333142	-2.9100811099	-2.3712583115	 0.288893
H	 1.0171357979	-3.2324948393	 2.3438067512	 0.116556
H	-0.7503983036	-3.2904926853	 2.3644948701	 0.116619
H	 0.1512858415	-4.2299226542	 1.1700149027	 0.148828
H	 0.0421524884	-0.4977024493	 2.0232886392	 0.248462
