17
gdb 33926	3.34761	1.36977	1.15424	4.5918	78.64	-0.2281	-0.003	0.2251	1075.6433	0.138156	-380.867338	-380.859684	-380.85874	-380.899409	29.794	
N	-0.0087967311	-1.0880777585	 0.0552380072	-0.34478
C	-0.0056369954	 0.0676732918	 0.0112879428	 0.256227
C	-0.0122654268	 1.5105132856	-0.0776478169	 0.181381
C	 0.610529631	 2.1075312565	-1.337106246	-0.327067
C	 1.3344415345	 2.2073783252	-0.0039957729	-0.103358
C	 1.3534473884	 3.4974880573	 0.725393641	-0.051097
C	 0.2329029592	 4.1136396221	 1.0958030069	-0.064396
C	-1.1302293191	 3.5510920985	 0.8087097029	-0.227294
N	-1.1139452216	 2.0929581373	 0.6468519763	-0.369931
H	 1.0000215848	 1.4279750815	-2.0865142385	 0.136745
H	 0.1606114316	 3.0155332871	-1.7221978322	 0.130074
H	 2.2018500323	 1.5690546353	 0.1198834991	 0.118112
H	 2.3247980312	 3.9322961128	 0.9400521593	 0.101608
H	 0.2677085207	 5.0724917113	 1.6025667313	 0.102435
H	-1.8082026551	 3.781721679	 1.6393621017	 0.122262
H	-1.5487926231	 4.0710472824	-0.0737341173	 0.103654
H	-1.9920321517	 1.7750495549	 0.2536366553	 0.235423
