17
gdb 71525	2.52504	1.5741	1.43642	3.2794	78.01	-0.2463	0.0128	0.2591	999.7473	0.136576	-380.801046	-380.793371	-380.792427	-380.83305	29.796	
C	 0.0000483142	 1.4674103622	-0.0641759963	-0.526053
C	 0.0218876861	-0.0292717575	-0.0401735082	 0.315531
N	 0.6463177467	-0.8704081818	-1.1108281941	-0.36832
C	 0.084380332	-1.8604949721	-0.1500167679	-0.053077
C	 0.5150399994	-1.0094721077	 1.0808688466	-0.092756
C	-0.8737052239	-1.102101594	 1.7429990731	-0.321035
C	-1.1977829371	-1.0238110079	 0.2365377564	 0.190152
C	-2.4647412362	-1.0230871782	-0.4369490205	 0.141921
N	-3.4724154254	-1.0070861342	-1.0069093432	-0.349219
H	 1.0192101324	 1.8550412875	-0.1559918506	 0.143309
H	-0.5863351595	 1.8367295731	-0.9119229055	 0.139756
H	-0.4428023443	 1.8659115526	 0.853975139	 0.133651
H	 0.0894417245	-0.8393875577	-1.9699019952	 0.21795
H	 0.1423602848	-2.940599253	-0.2833763961	 0.100718
H	 1.5051955314	-1.0054388935	 1.531921922	 0.096704
H	-1.1198785134	-2.0448392088	 2.2376096587	 0.11568
H	-1.1919333717	-0.2519773991	 2.3514364317	 0.115089
