16
gdb 659	4.66273	4.48592	2.58971	1.3202	56.25	-0.2429	0.0894	0.3324	545.362	0.146029	-271.646263	-271.640803	-271.639858	-271.67485	21.275	
C	-0.0214032866	 1.5294560824	 0.0509899761	-0.192536
C	 1.4172910786	 2.0626773008	-0.012162892	-0.191972
C	 2.1520338933	 1.4549470603	-1.209465142	-0.059681
O	 2.1316075215	 0.0370589294	-1.179218411	-0.244095
C	 0.8114698477	-0.4808294955	-1.2072147523	-0.059682
C	-0.0145101287	-0.004955682	-0.0097159623	-0.191968
H	-0.5282848442	 1.8815421814	 0.9555550158	 0.09398
H	-0.5912758184	 1.9230648507	-0.802476371	 0.093694
H	 1.4303661978	 3.1562186842	-0.0869110176	 0.091174
H	 1.9543261888	 1.7916268535	 0.9053646992	 0.102179
H	 1.6956587264	 1.8165913015	-2.1486489651	 0.079909
H	 3.2073625837	 1.7433938676	-1.2186350229	 0.102867
H	 0.3113706754	-0.1822603901	-2.1463064299	 0.07991
H	 0.9126535437	-1.5701889601	-1.2148362393	 0.102867
H	 0.4292081936	-0.4108617514	 0.9079401014	 0.10218
H	-1.0336376826	-0.4019969027	-0.0826495373	 0.091173
