14
gdb 53864	4.08801	0.84387	0.70258	5.438	65.4	-0.2637	-0.0481	0.2156	1479.4312	0.099871	-470.036691	-470.027516	-470.026571	-470.071899	31.603	
N	 0.0009965957	 1.2612944077	 0.0033950016	-0.523671
C	 0.0295889415	-0.0910054694	-0.000892806	 0.357383
O	 1.0247125892	-0.780668757	-0.012687323	-0.337197
C	-1.3796167644	-0.6981882509	 0.0106629958	 0.35381
N	-2.4023852487	 0.0500574928	 0.0255692124	-0.538498
O	-1.2987033179	-2.0462195481	 0.0025565197	-0.204826
C	-2.5257505034	-2.7571578868	 0.0121886891	-0.237308
C	-2.2343246729	-4.1900670169	 0.0017428413	 0.285817
N	-2.057740389	-5.3302985747	-0.0059782436	-0.276175
H	 0.870758862	 1.7656622304	-0.0001850039	 0.270347
H	-0.8831636318	 1.7423009626	 0.0166245755	 0.282265
H	-3.2973399303	-0.4348831208	 0.0324676885	 0.236209
H	-3.1120031769	-2.5159772452	 0.9093692969	 0.165924
H	-3.1312251631	-2.5069324036	-0.8696193544	 0.165919
