19
gdb 37333	3.30214	1.82355	1.75173	1.5238	75.95	-0.25	0.0917	0.3417	877.1514	0.163474	-385.857877	-385.851891	-385.850946	-385.887724	26.946	
C	-0.0190981766	 1.5276241118	 0.1316162584	-0.299032
C	 1.3018432831	 0.8133336222	-0.0166789498	-0.034496
C	 0.0026984106	 0.0252412154	-0.0078673913	-0.034494
C	 0.0293898247	-0.6386959997	-1.4074476581	 0.041356
O	 1.438302138	-0.894070771	-1.5859816845	-0.262925
C	 1.864453026	 0.4744818149	-1.4198914147	 0.041355
C	 1.054991829	 1.1954380238	-2.5024170227	-0.049265
C	 0.6552863384	 0.3730691795	-3.700160835	-0.314038
C	-0.2467808777	 0.4057755911	-2.4935764043	-0.049267
H	-0.2458897116	 1.9125458695	 1.1217226898	 0.106495
H	-0.3986088773	 2.1442388695	-0.6723327739	 0.116035
H	 1.9844563067	 0.7785950869	 0.8242813773	 0.087725
H	-0.2734868714	-0.5911285319	 0.8395942324	 0.087724
H	-0.5191109814	-1.5783054028	-1.476557528	 0.074326
H	 2.9504415125	 0.5263753045	-1.5000833115	 0.074326
H	 1.0766257696	 2.2769501731	-2.5552950133	 0.091357
H	 0.3101693587	 0.9323335986	-4.5632208606	 0.105388
H	 1.2038040667	-0.5336869702	-3.9245160133	 0.126072
H	-1.216426868	 0.8859744848	-2.5397139766	 0.091357
