18
gdb 80839	2.54916	1.72449	1.31996	1.1478	71.98	-0.2281	-0.023	0.2051	1009.9911	0.148097	-439.069556	-439.061655	-439.060711	-439.101551	31.257	
C	-0.1267239046	 1.5368656344	-0.009185249	-0.428961
C	 0.02657357	 0.0297357503	 0.065611656	-0.002625
N	 1.0644066348	-0.5722223334	-0.8771119755	-0.134207
C	 2.0980160596	-0.2905110062	 0.1962258101	-0.262692
C	 0.9364004851	-0.5720564305	 1.2023389327	 0.314154
O	 0.9053884428	-0.2345248413	 2.5316169425	-0.486007
C	 0.7246279268	-2.039405059	 0.8897940632	 0.365867
O	 0.5251045818	-2.9084555939	 1.6992970238	-0.352178
C	 0.8270450101	-2.0295327232	-0.6425596886	-0.293722
H	 0.810531948	 2.0766911403	 0.140483129	 0.127861
H	-0.5293292281	 1.8195849373	-0.9865845796	 0.131128
H	-0.8283251782	 1.8685519642	 0.7621025435	 0.133607
H	-0.9579037159	-0.437998933	-0.0530551927	 0.081013
H	 2.9667108747	-0.9546172764	 0.1886701623	 0.113163
H	 2.4240887519	 0.7476392935	 0.1698859112	 0.127638
H	 0.7291778079	-1.056616442	 3.0183881624	 0.290686
H	-0.0922044334	-2.3672761096	-1.129171903	 0.137838
H	 1.6605967465	-2.6323558615	-1.0137552184	 0.137438
