23
gdb 106318	2.79232	1.15968	1.01625	1.6118	86.22	-0.2362	0.0698	0.306	1329.0176	0.20471	-388.268218	-388.258313	-388.257369	-388.302586	37.739	
C	 0.0805413263	 1.4910737705	-0.1853281313	-0.372583
C	-0.0141509428	-0.0118927613	 0.1146357845	-0.294184
C	-1.4277458008	-0.5288192739	 0.0805571723	 0.307377
C	-2.5047236516	-0.2024874143	 1.1316343378	-0.308718
C	-2.9693989013	-1.696460978	 1.1176299686	 0.051596
C	-4.4446126107	-2.0378173986	 0.9380163159	-0.413526
C	-1.973256614	-1.9833099769	-0.017317335	-0.181626
C	-2.0953551202	-1.0337878232	-1.1643777751	 0.056608
O	-3.3518998205	-0.5972285339	-1.6133481126	-0.417703
H	 1.1157548188	 1.84214182	-0.1317009746	 0.112393
H	-0.2984545134	 1.7175380067	-1.1880072579	 0.108415
H	-0.5069707282	 2.0748322295	 0.5313316231	 0.120073
H	 0.5939078222	-0.5701734525	-0.6085637437	 0.094647
H	 0.4256253604	-0.2126879037	 1.101078041	 0.095402
H	-2.0894642915	 0.1093886286	 2.0932584063	 0.094148
H	-3.2551779751	 0.5294933991	 0.8181788379	 0.088738
H	-2.5969056362	-2.178534622	 2.0280190122	 0.070301
H	-4.8524393558	-1.5556474765	 0.0481962858	 0.141008
H	-4.5822067124	-3.1202198084	 0.832928858	 0.106096
H	-5.025881327	-1.7157014168	 1.810039521	 0.101952
H	-1.4239604266	-2.9129621033	-0.1297644479	 0.076677
H	-1.395045036	-1.2526584716	-1.9735865338	 0.079607
H	-3.2548044435	 0.3075684605	-1.9288913623	 0.283301
