15
gdb 84491	3.08208	1.47546	1.10503	3.3069	68.37	-0.2455	-0.0459	0.1996	1056.3745	0.111367	-457.752346	-457.744356	-457.743412	-457.785305	29.565	
O	 0.212894529	 1.3662295734	-0.2843347783	-0.4135
C	 0.0552016676	-0.0080017567	-0.0112153403	-0.005376
C	 0.6748517944	-0.5036414144	 1.2758166157	-0.143225
C	-0.1468003967	-1.2886195318	 1.9816973517	-0.154925
C	-1.4642549242	-1.4256546133	 1.3209697958	 0.312207
C	-2.3382882929	-2.6163535263	 1.30862064	-0.232283
O	-2.6650484347	-1.4833145499	 2.098373214	-0.262589
C	-1.419176383	-0.4702746229	 0.1383256589	 0.269904
O	-2.3565749277	-0.0936780869	-0.5091437713	-0.291553
H	-0.3130428797	 1.8637199691	 0.3518785266	 0.289324
H	 0.4887709685	-0.5249703993	-0.8783765081	 0.127925
H	 1.6896425713	-0.2408163419	 1.550341607	 0.12075
H	 0.0790109967	-1.7701057106	 2.925664298	 0.1231
H	-2.9769477576	-2.7820663543	 0.442055034	 0.13703
H	-2.0272551112	-3.5054252142	 1.8561791364	 0.123211
