17
gdb 76453	2.29442	1.3394	1.21761	2.3694	77.74	-0.2409	-0.0418	0.1992	1128.6886	0.132362	-421.791296	-421.781931	-421.780987	-421.82486	34.997	
C	 0.0644399691	 1.5469627176	 0.0522957281	-0.432767
C	 0.1281666449	 0.0376662269	 0.0410004003	-0.088757
C	 1.3592141895	-0.7243192896	-0.2405251009	 0.108639
O	 2.583267015	-0.1467404258	-0.4382209426	-0.409819
C	 0.7381575196	-0.7876801307	 1.231371753	-0.077311
C	 1.542938117	-0.1048719951	 2.2581586529	 0.107139
O	 2.2953707599	 0.8321272532	 2.042026906	-0.318758
C	 0.0448397252	-1.9708014169	 1.6399763191	 0.224182
C	-0.5389322106	-2.9679092121	 1.9770620231	-0.398643
H	 0.968777437	 2.0004863344	 0.4571226307	 0.15091
H	-0.0710982728	 1.9078911591	-0.9726684756	 0.133061
H	-0.7851688	 1.8932844391	 0.6479090255	 0.12955
H	-0.7816797806	-0.4468888719	-0.3023546374	 0.117507
H	 1.2711885247	-1.6648813472	-0.7746707172	 0.13377
H	 2.7324872874	 0.4995301765	 0.2775535303	 0.315611
H	 1.4528009596	-0.5274243122	 3.2768486103	 0.109246
H	-1.0515761449	-3.8483814254	 2.2761716145	 0.196442
