15
gdb 66680	3.95262	1.24575	1.16691	2.3688	71.1	-0.2344	-0.0207	0.2138	1051.2091	0.110715	-420.519263	-420.511936	-420.510991	-420.551082	28.522	
O	 0.2474083473	 1.3454247457	 0.2216198549	-0.446805
C	 0.1359268209	-0.0046366714	 0.0651924816	 0.401056
C	 0.9153962101	-1.0780838927	 0.786765174	-0.140177
C	-0.3254921028	-2.0163439403	 0.7238483285	-0.136928
C	-1.1178809157	-0.9591937983	 0.0180721132	-0.247034
C	-0.2633995593	-1.9466900328	-0.820031062	 0.320867
C	-0.7421582409	-2.9091663268	-1.7983885545	 0.011651
O	-0.2044716052	-3.1508033469	-2.8557311602	-0.276829
C	 0.9534791864	-1.0001496215	-0.7488202145	-0.274465
H	 0.0965919209	 1.7704931387	-0.6311595099	 0.295789
H	 1.7254574524	-0.9870709545	 1.495601295	 0.107115
H	-0.6565675264	-2.8438288148	 1.3378673476	 0.105609
H	-2.1876408893	-0.8061316832	-0.0425436553	 0.107915
H	-1.6809716884	-3.4278808092	-1.4898331526	 0.061457
H	 1.7970426	-0.8554585822	-1.4083382758	 0.11078
