18
gdb 86792	3.12752	1.00497	0.87104	4.6815	72.63	-0.2704	0.026	0.2964	1347.9698	0.146013	-439.081304	-439.071788	-439.070844	-439.117	33.728	
C	 0.2565315268	 1.5062221086	-0.1441239628	-0.414636
C	 0.0267873193	 0.0287749562	 0.0980495347	 0.115906
O	 0.8122482337	-0.8134085723	-0.7848126512	-0.304848
C	 1.3162581938	-1.599269584	 0.3100529891	 0.103827
C	 2.8432155479	-1.6969997356	 0.3288093407	-0.350963
C	 3.3626735841	-2.4851802961	-0.7857423684	 0.264434
N	 3.7701264067	-3.1177601396	-1.6623518923	-0.300919
C	 0.6551980884	-0.6502972932	 1.3492628032	 0.041104
O	 1.4964489413	 0.1115754333	 2.1756224435	-0.419186
H	 1.314365935	 1.7790873896	-0.0582901213	 0.107393
H	-0.0598172957	 1.764871906	-1.1586866803	 0.144703
H	-0.3212172492	 2.1090772731	 0.5632213594	 0.134277
H	-1.0416269207	-0.204085668	-0.0037813193	 0.086949
H	 0.8849789292	-2.6087666758	 0.3044915199	 0.096434
H	 3.2862435893	-0.6971736763	 0.2912198538	 0.13727
H	 3.1608509799	-2.1557355149	 1.2720560398	 0.163462
H	-0.0552474167	-1.1407120843	 2.016945285	 0.105023
H	 1.9654965869	 0.7604467234	 1.6410716964	 0.289769
