17
gdb 99362	5.33313	0.63191	0.5961	3.9521	70.05	-0.2573	-0.0458	0.2115	1783.5761	0.134032	-455.150755	-455.140803	-455.139859	-455.187366	33.903	
O	-0.1014647353	 1.2158403248	 0.5751222221	-0.415533
C	-0.0457216185	-0.0778753195	 0.0565520848	-0.125413
C	-1.4357115222	-0.6607209482	-0.1482059301	 0.340287
O	-2.4098757136	-0.0195624603	 0.1876644879	-0.317965
C	-1.5672238182	-2.0380697999	-0.7986100737	-0.276546
N	-2.9032160594	-2.6005837347	-0.8093712796	-0.275291
C	-3.3711328548	-3.0166570651	 0.5140397447	-0.273143
C	-4.6982816502	-3.6313872168	 0.4219369915	 0.263638
N	-5.7521261991	-4.0992984844	 0.3594142097	-0.294571
H	-1.0438022408	 1.3957062641	 0.7194785305	 0.297319
H	 0.4897446914	-0.0986364077	-0.9069416692	 0.121231
H	 0.5079487115	-0.7590260477	 0.7265151448	 0.118646
H	-1.2108492343	-1.9411909168	-1.8337832579	 0.147645
H	-0.8732968229	-2.7370488989	-0.3138424371	 0.135466
H	-3.5512412157	-1.9139253912	-1.1833015295	 0.245127
H	-2.6752951121	-3.7670999944	 0.9096152207	 0.154197
H	-3.4242732858	-2.2002405434	 1.2508283203	 0.154904
