20
gdb 88540	3.3441	1.24473	1.11991	3.2728	79.15	-0.221	0.0718	0.2928	1157.8191	0.171899	-403.043649	-403.035587	-403.034643	-403.076867	31.711	
O	-0.0222162952	 1.4661357167	 0.4772509847	-0.417807
C	-0.0012979238	 0.096808183	 0.1903664618	 0.103951
C	-0.5662677774	-0.8855747764	 1.1828875508	-0.343024
C	-1.3210053861	-0.5618025125	-0.0968737765	-0.205912
C	-2.6070550634	 0.2002239837	-0.0479445045	 0.356391
C	-3.2428437264	 1.1162419021	-1.1254334212	-0.207856
N	-4.3052538557	 1.1583813032	-0.0142732844	-0.152295
C	-4.0480741595	-0.3533356552	 0.0966781752	-0.211182
C	-3.1012792935	 1.2897351431	 0.9344909614	-0.203337
H	 0.6370342238	 1.6370007803	 1.1578663175	 0.28896
H	 0.8521983278	-0.2261488034	-0.4060433823	 0.087876
H	-0.0993510697	-1.8583639067	 1.2915354585	 0.112556
H	-0.9704716015	-0.4666154906	 2.0989139527	 0.116657
H	-1.2974276386	-1.3250285537	-0.8712133982	 0.087718
H	-2.7688498167	 2.0823205782	-1.3173425114	 0.106148
H	-3.5998920628	 0.6536816609	-2.0507402805	 0.092237
H	-4.4658072233	-0.9295715185	-0.7347117077	 0.093557
H	-4.3431672619	-0.777107913	 1.0613582202	 0.094812
H	-3.3286454578	 0.9908931651	 1.9626287456	 0.090213
H	-2.6134282481	 2.2647856239	 0.8980362781	 0.110338
