10
gdb 1379	9.34497	1.40531	1.22327	1.2731	46.63	-0.285	-0.1049	0.1802	858.8845	0.064513	-396.475511	-396.468528	-396.467584	-396.507758	22.248	
N	-0.020467842	 1.4389161041	-0.0785727088	-0.477791
C	-0.0128212578	 0.1787016783	-0.0500572615	 0.334523
O	-1.131025556	-0.6058216027	-0.0825053312	-0.216488
C	-2.3794311549	-0.0212966989	 0.0454207196	 0.17406
O	-3.3601193824	-0.6849905496	-0.044520954	-0.237881
C	 1.2326517088	-0.6843968285	 0.010973229	 0.106914
O	 2.3278079158	-0.1904037151	 0.0365063416	-0.224537
H	 0.9476037801	 1.7681582377	-0.0408490532	 0.261695
H	-2.3199208321	 1.0566572675	 0.2361834742	 0.153525
H	 1.0542383105	-1.7760984427	 0.0292920142	 0.12598
