22
gdb 57782	3.24409	0.73973	0.67541	1.483	93.83	-0.2186	0.0415	0.2601	1790.744	0.192008	-367.162431	-367.15172	-367.150776	-367.199833	38.394	
C	 1.354259983	 0.7043888964	-0.6939616682	-0.37329
C	 0.084268914	 0.4402818159	 0.1399139186	-0.125933
C	-0.9816536512	-0.3094222194	-0.6841301784	-0.372894
C	 0.4038858624	-0.2770911025	 1.3747600719	 0.090649
C	 0.6638810833	-0.8869748235	 2.3829780451	 0.062095
C	 0.985580378	-1.5558506506	 3.6149326715	-0.174365
C	 0.8455563404	-3.046654705	 3.73004405	-0.239029
N	 2.1629776705	-2.4379190857	 3.7472950346	-0.079013
C	 3.0011772978	-2.6435570256	 2.573660831	-0.307361
H	 1.8097117974	-0.2390581917	-1.010796305	 0.122442
H	 1.1061080585	 1.2829055817	-1.5895984397	 0.112056
H	 2.0961346647	 1.2611466122	-0.1157595911	 0.124322
H	-0.3368818223	 1.4153667222	 0.4231863972	 0.105919
H	-0.6062521364	-1.2878031311	-1.0001061218	 0.121661
H	-1.8909041897	-0.4689078552	-0.0987901662	 0.123782
H	-1.2418508444	 0.2637295951	-1.5799164285	 0.111718
H	 0.8053860162	-0.9632393302	 4.5095525121	 0.110171
H	 0.506176268	-3.4877628408	 4.6638328555	 0.116854
H	 0.5331681266	-3.5719062845	 2.8287837492	 0.113584
H	 2.4420938065	-2.6773703111	 1.6269500218	 0.1102
H	 3.7342345867	-1.8337884877	 2.5090449087	 0.125244
H	 3.5412729299	-3.5874326789	 2.6969530018	 0.121188
