16
gdb 61362	3.73473	0.84679	0.76079	3.268	75.07	-0.2602	-0.0396	0.2206	1470.411	0.120197	-437.861771	-437.851999	-437.851054	-437.897335	34.055	
C	-0.0591946013	 1.4396973338	-0.1159080011	-0.409585
C	 0.0441873976	-0.0772329685	-0.0451336711	 0.036951
O	 0.781038976	-0.5195300687	 1.1104166928	-0.254281
C	 2.1217925504	-0.6113096393	 0.9914652457	 0.264159
N	 2.7337139378	-0.3154978401	-0.0833185631	-0.533761
C	 2.7275542288	-1.0766134216	 2.208368612	 0.273766
C	 3.2806786943	-1.4617716475	 3.2035598642	-0.399789
C	-1.3072286192	-0.7713451661	 0.050265329	 0.150182
O	-2.3048044377	-0.3658794665	-0.4840528202	-0.243855
H	 0.9189622199	 1.8766428024	-0.3222441773	 0.142555
H	-0.7542463866	 1.7089385162	-0.9144892629	 0.146231
H	-0.444221325	 1.8397479607	 0.8261174075	 0.130775
H	 0.5495415998	-0.4603789499	-0.9419106183	 0.145235
H	 3.7345758551	-0.4632832116	 0.0178823994	 0.241174
H	 3.7664598949	-1.8024812231	 4.0852748139	 0.214711
H	-1.2885261647	-1.7109671204	 0.6444057694	 0.095532
