13
gdb 130024	5.43414	1.07512	0.89755	5.5554	74.27	-0.2406	-0.0818	0.1587	1188.0763	0.089773	-448.952305	-448.94456	-448.943615	-448.984979	27.596	
N	-0.0301972535	 1.3253055378	 0.0084638229	-0.536547
C	-0.0260026394	-0.0186210234	 0.0004874119	 0.502425
N	-1.2108019165	-0.6567537763	 0.0041226031	-0.306392
C	-1.110264361	-1.9743934064	-0.0035250128	-0.039951
C	 0.1266214458	-2.6254238986	-0.0143594456	 0.204733
C	 0.2058864112	-4.1045260811	-0.0229376497	 0.105393
O	 1.2191640323	-4.755863346	-0.0325300426	-0.249173
N	 1.2670191111	-1.9086183033	-0.0171305369	-0.205498
N	 1.2053793641	-0.6058130287	-0.0097118324	-0.241941
H	 0.8457496047	 1.817929854	 0.0063040363	 0.282938
H	-0.903119417	 1.8218362818	 0.0165703083	 0.279361
H	-2.0397462204	-2.5422866072	-0.0012297397	 0.133809
H	-0.7970764614	-4.5919114226	-0.0197925027	 0.070842
