18
gdb 71708	2.31537	2.09773	1.78567	2.3697	73.79	-0.2259	0.0656	0.2915	891.4874	0.147471	-401.86853	-401.861	-401.860056	-401.899962	30.314	
C	-0.1123148884	 1.5240325952	 0.0445454006	-0.528016
C	-0.014630624	 0.035354882	 0.0148459928	 0.350935
C	 0.7248474974	-0.8733439829	-1.0327939969	-0.131564
C	 1.8382398335	-1.1825428551	-0.0009419166	-0.318923
C	 0.7282608324	-0.8802894704	 1.043410287	 0.356263
O	 0.9739666376	-0.4440907471	 2.3365252753	-0.483138
C	-0.4436313663	-1.8481013281	 0.7474792875	-0.136753
C	-0.443920106	-1.8344131513	-0.7390640976	-0.034288
N	-1.2834527077	-0.8414628248	 0.01472174	-0.205874
H	 0.8822162886	 1.9818622853	 0.0153278761	 0.124111
H	-0.6869888024	 1.8901806485	-0.8127879969	 0.127573
H	-0.6134841177	 1.8554691665	 0.9597018852	 0.139442
H	 0.9333992662	-0.5785311089	-2.0586435954	 0.076509
H	 2.299052922	-2.1751414836	-0.0124698971	 0.090041
H	 2.6083961423	-0.4048827821	 0.013141853	 0.105543
H	 1.2746168486	-1.1913085149	 2.8656786434	 0.282946
H	-0.8813956032	-2.6144074455	 1.3770852961	 0.091333
H	-0.8883739928	-2.5948994326	-1.3701826267	 0.093861
