18
gdb 18088	4.91219	1.10495	1.06723	1.952	67.65	-0.2339	0.074	0.3079	1152.0041	0.153603	-384.881737	-384.873713	-384.872769	-384.914916	29.263	
O	-0.0760736368	 1.3979066234	-0.0298805063	-0.421056
C	-0.0829286096	-0.010526658	-0.2069791849	-0.065609
C	-1.4373503368	-0.5323943205	 0.2618401961	-0.210705
C	-1.5301600402	-2.0388880045	 0.1629434507	-0.036502
C	-2.8221561353	-2.8411152434	 0.155163459	-0.165544
C	-3.8644396443	-2.1550681415	-0.7212489309	-0.092203
O	-2.9218413631	-2.0337817934	-1.8214426556	-0.283065
C	-1.9463136299	-2.7719730744	-1.0780115999	 0.088314
H	 0.7548485161	 1.739906792	-0.3718642535	 0.284712
H	 0.0687585967	-0.2841183173	-1.2628553694	 0.094252
H	 0.7242873018	-0.4879240723	 0.3741252994	 0.077713
H	-1.5985392574	-0.2081492753	 1.2967888046	 0.104242
H	-2.2122282565	-0.0627880143	-0.3499215198	 0.123246
H	-0.7509846474	-2.5764273383	 0.7034855241	 0.086605
H	-3.0141772756	-3.6555836801	 0.8405500544	 0.097106
H	-4.6915482224	-2.816263246	-1.0029548979	 0.109872
H	-4.2606501181	-1.1854578774	-0.3983102245	 0.108698
H	-1.3623711612	-3.5126434088	-1.6132480058	 0.099924
