20
gdb 90597	2.36445	1.49019	1.20966	3.7279	79.21	-0.2339	0.0003	0.2342	1143.4763	0.171009	-403.146724	-403.137958	-403.137014	-403.180243	32.895	
C	-0.0421292574	 1.5789202944	-0.1314728612	-0.412601
C	 0.0035847609	 0.061284254	-0.0070335471	-0.004879
C	 1.0569122373	-0.6782847532	-0.8976068817	-0.20729
N	 1.7629436372	-1.16549184	 0.3314772727	-0.134005
C	 0.719387207	-0.5689515554	 1.2366585704	-0.003548
C	 1.8246289417	 0.1875474533	 2.0200426671	-0.136747
C	 2.1215232883	-0.3000472863	 3.4360653897	-0.417385
C	 2.754893705	-0.3111136534	 0.8824264755	 0.371731
O	 3.852510736	-0.0359937072	 0.4906788325	-0.327685
H	 0.9557444838	 2.0254244469	-0.0713400138	 0.130016
H	-0.4715026915	 1.8704869237	-1.0957668397	 0.123286
H	-0.6591136369	 2.0234113085	 0.6569702057	 0.121593
H	-1.0039752467	-0.3454688974	-0.130219198	 0.081911
H	 0.6598833738	-1.5031182281	-1.4939811087	 0.11682
H	 1.6896938188	-0.0494638722	-1.5309148193	 0.126683
H	 0.1204901658	-1.2744428096	 1.8181083464	 0.078835
H	 1.7423425238	 1.2781159276	 2.0023976096	 0.104842
H	 2.1853355865	-1.392077876	 3.4733713003	 0.13011
H	 3.0745166041	 0.1058936758	 3.7877100042	 0.136879
H	 1.3386865824	 0.0188673846	 4.1318196154	 0.121434
