17
gdb 43459	2.8726	1.41243	1.043	2.2042	73.16	-0.2404	-0.0425	0.1979	1128.3464	0.134964	-421.869028	-421.860957	-421.860013	-421.902562	30.477	
O	-0.016653954	 0.3289935099	-0.9455689634	-0.296219
C	-0.0203490626	 1.2964741012	-0.2317579962	 0.384843
C	-1.2572850009	 2.028797655	 0.2811458525	-0.442186
C	-0.7525740913	 3.372596085	 0.8006762463	 0.344282
O	-1.4392637136	 4.3038183068	 1.1460772287	-0.333621
C	 0.7498591752	 3.3562735486	 0.8028599815	 0.22382
C	 1.4390229638	 4.6709205965	 0.4566441148	-0.286787
C	 1.4580165875	 4.1808299723	 1.8635494248	-0.29431
C	 1.2337071636	 2.0029996718	 0.3071034889	-0.433287
H	-2.0403674469	 2.1272519372	-0.4743781964	 0.161449
H	-1.6913590249	 1.4608777729	 1.115214995	 0.165059
H	 2.3463045323	 4.6003425805	-0.1335530305	 0.123828
H	 0.7857359234	 5.503078397	 0.2193034278	 0.142212
H	 0.8174547893	 4.6821221644	 2.5808841779	 0.140921
H	 2.3809700039	 3.7727348514	 2.2612901183	 0.122518
H	 1.6438733564	 1.3842633323	 1.1162293548	 0.138839
H	 1.9950179786	 2.0477086472	-0.4765576749	 0.138641
