19
gdb 63310	2.56935	1.5288	1.26278	4.3305	75.77	-0.2309	0.0237	0.2546	1077.4439	0.159912	-419.232284	-419.22384	-419.222896	-419.264847	33.203	
C	-0.0562472306	 1.5842914243	 0.0619251725	-0.414312
C	-0.0094364616	 0.0520355153	 0.0244321994	 0.268102
C	-1.4228406178	-0.5495106078	-0.0261836692	-0.413518
N	 0.7936201569	-0.4263045842	-1.1069577591	-0.343048
C	 1.8021257484	-1.3109588257	-0.8273754571	 0.454054
O	 2.493206664	-1.8992919978	-1.6296742084	-0.391222
C	 1.8545071268	-1.4012037689	 0.6821136581	-0.174581
N	 2.160705646	-0.0736755227	 1.2845983401	-0.335369
C	 0.7700099482	-0.5408963469	 1.2085861649	-0.067493
H	 0.9549714375	 1.9863417406	 0.1451273073	 0.147231
H	-0.5244603616	 1.9811111133	-0.8454895692	 0.109707
H	-0.6457909461	 1.9299480813	 0.9171569426	 0.114467
H	-1.9473509892	-0.2278999227	-0.9316439163	 0.117269
H	-1.3794528705	-1.6426387897	-0.0289040512	 0.12404
H	-2.0147191767	-0.2256465698	 0.8366839578	 0.116413
H	 0.6192727928	-0.136246186	-2.0564779598	 0.246174
H	 2.212708591	-2.3090790067	 1.1502108581	 0.111132
H	 2.5103865923	-0.2250319746	 2.2288918554	 0.238066
H	 0.2269171403	-0.7751249212	 2.1178385543	 0.092887
