14
gdb 131946	2.75975	1.6136	1.02463	4.8359	68.31	-0.2716	-0.0718	0.1997	1068.5462	0.102009	-469.95401	-469.946296	-469.945352	-469.986845	27.515	
C	-0.0263669077	 1.5347031223	 0.1079589674	-0.487053
C	-0.0177666668	 0.0541733033	-0.0479222055	 0.326155
C	 0.0329127378	-0.7792977589	-1.1613609989	 0.190585
C	 0.0127970879	-2.1056667151	-0.6772235694	-0.046855
N	-0.0461909087	-2.1178282143	 0.6427368405	-0.213472
N	-0.0631987374	-0.8047817423	 0.9897570441	-0.248038
N	 0.0934078996	-0.368944556	-2.5258390511	 0.342802
O	 0.1323135799	-1.2495856889	-3.3792485775	-0.36682
O	 0.1027453627	 0.8404523744	-2.7595728948	-0.39714
H	 0.8700222625	 1.9732611098	-0.3376107238	 0.169853
H	-0.8804398295	 1.9713331801	-0.4157644188	 0.169842
H	-0.0737739199	 1.8150150309	 1.1639245056	 0.122954
H	 0.0393983877	-3.019036695	-1.2490359432	 0.153628
H	-0.1073135481	-0.5636863504	 1.9671458756	 0.283558
