18
gdb 40030	3.54913	1.61639	1.51644	0.592	74.48	-0.223	0.0783	0.3013	936.1741	0.149408	-401.880478	-401.873835	-401.872891	-401.911257	27.844	
C	 0.045296693	 1.5308256303	-0.0054672563	-0.324414
C	 1.3270162526	 0.7160009072	 0.0413232959	-0.354295
C	 0.0011318414	 0.0271601679	-0.0129071997	 0.464696
O	-0.4357705268	-0.6461552017	 1.1608824044	-0.301073
C	-1.4604542953	-1.5272028627	 0.726037213	 0.04606
C	-2.5786353396	-0.7638638248	-0.0249782264	-0.174419
N	-1.9350317612	-1.0497445002	-1.3559540068	-0.166804
C	-1.0383019503	-2.0511581744	-0.6699043786	-0.059363
C	-0.467084522	-0.7953668466	-1.1816977243	-0.130694
H	-0.2627377617	 2.023062998	 0.9099416257	 0.124187
H	-0.2023007751	 2.0609221688	-0.9191954335	 0.119284
H	 1.9646642715	 0.6909887341	-0.8359791309	 0.11691
H	 1.8524914785	 0.6683582664	 0.9884650085	 0.128081
H	-1.7133362735	-2.2059346208	 1.5387112146	 0.088715
H	-3.5437725057	-1.2757042732	 0.0036529754	 0.11053
H	-2.7082083575	 0.2938192581	 0.2223343066	 0.111685
H	-0.8655882887	-3.0584745481	-1.0271243379	 0.097559
H	 0.0710490404	-0.7514069683	-2.1210017997	 0.103355
