18
gdb 38787	2.94259	1.96954	1.64165	0.982	72.94	-0.2246	0.0674	0.292	879.1485	0.150872	-401.871731	-401.865394	-401.864449	-401.90205	27.093	
C	 0.0175832678	 1.553401013	-0.1323550505	-0.348889
C	 1.3169116108	 0.7884635318	-0.0434215232	 0.1136
O	 2.1584130972	 0.835281022	 1.0746086628	-0.26788
C	 1.6738674492	 0.2952371597	 2.2947788805	 0.083685
C	 0.4143768775	 0.9312997394	 2.9412098836	-0.191579
N	-0.4132723657	-0.2960052535	 2.6988534527	-0.162014
C	-0.2639008745	-0.7417081149	 1.2880266274	-0.033395
C	 0.0127856364	 0.0408323197	 0.0291287274	-0.067407
C	 0.8499904253	-0.9986837153	 2.2239958696	-0.081281
H	-0.2982509361	 2.1852464166	 0.6841711472	 0.127564
H	-0.2595525939	 1.9312153909	-1.111020694	 0.114267
H	 1.91840122	 0.707497112	-0.9423943579	 0.1024
H	 2.5438309187	 0.261033728	 2.9506306046	 0.094858
H	 0.5404314798	 1.0349595182	 4.02242868	 0.11441
H	 0.0227006749	 1.8688315309	 2.5478516733	 0.110539
H	-0.9366021584	-1.5786865833	 1.1259674379	 0.102005
H	-0.274079813	-0.5203175876	-0.854833937	 0.09429
H	 1.153785384	-1.9765017477	 2.5802544054	 0.094828
