20
gdb 117560	2.72862	0.94643	0.77351	3.994	79.57	-0.2808	0.0306	0.3114	1534.8295	0.169542	-403.14588	-403.135952	-403.135008	-403.181637	35.011	
C	-0.0590967002	 1.5964298247	-0.1945062881	-0.383285
C	-0.0481145781	 0.0698145915	-0.0786630061	-0.188554
C	 0.7135094549	-0.5984346276	-1.2264730874	-0.167462
C	 0.763783348	-2.1433089311	-1.1388985897	-0.195294
C	-0.5833468254	-2.7218415831	-1.170116888	 0.303065
N	-1.64556567	-3.1769316791	-1.1849645451	-0.344111
C	 1.6486137368	-2.7147298427	-2.2426347084	 0.080736
C	 1.3582565104	-3.9449353523	-2.9863998298	-0.190323
O	 1.1410271398	-2.6525369865	-3.5679294786	-0.226653
H	 0.9578640624	 2.0042153768	-0.1872565874	 0.114944
H	-0.5386002702	 1.9184469737	-1.1251064521	 0.122623
H	-0.6063891414	 2.050691285	 0.6366016955	 0.119245
H	 0.4052156724	-0.2240765267	 0.8775542978	 0.096734
H	-1.0778805196	-0.3057427352	-0.0583481207	 0.126754
H	 0.2703877977	-0.325141157	-2.1903379021	 0.132534
H	 1.7501579372	-0.2389520363	-1.2426506121	 0.102688
H	 1.2126435784	-2.4263648275	-0.1762193692	 0.127492
H	 2.6908701205	-2.4053613582	-2.1434546434	 0.102829
H	 2.1817141531	-4.5142648721	-3.4140135548	 0.121369
H	 0.4549326131	-4.5084299564	-2.7650474602	 0.14467
