17
gdb 112365	2.39383	1.36634	0.90968	2.5667	70.07	-0.2615	-0.0079	0.2536	1252.1958	0.136965	-455.243925	-455.235265	-455.23432	-455.277731	31.632	
C	-0.0831794904	 1.5793913595	 0.0611272621	-0.400344
C	-0.0676513326	 0.0504868356	 0.0063515113	-0.165758
C	 0.7269923689	-0.5022756962	-1.1821181353	-0.11719
N	 2.1629841826	-0.2780213688	-1.1167790189	-0.348187
C	 2.9004696812	-1.4252647672	-1.2766831391	 0.460922
O	 4.0967023234	-1.5447282592	-1.3647123496	-0.387149
N	 1.9572389854	-2.4721624931	-1.3089975569	-0.392041
C	 0.6517375239	-2.0380854025	-1.2518874491	 0.441642
O	-0.3463360697	-2.7139258582	-1.2450860362	-0.360717
H	 0.9263181242	 1.9878006918	 0.1805616043	 0.117305
H	-0.5145468518	 2.0061521186	-0.8513389281	 0.120283
H	-0.6792600025	 1.9320710583	 0.9073719946	 0.12805
H	 0.3578769303	-0.3571563187	 0.9304950684	 0.110362
H	-1.0860081168	-0.3428383742	-0.0789053188	 0.130984
H	 0.3032104022	-0.1051779385	-2.1166838905	 0.117821
H	 2.6022106151	 0.6108142962	-1.2859170259	 0.265649
H	 2.2335493364	-3.4400136434	-1.3580036623	 0.278369
