16
gdb 31832	5.04895	1.02924	0.86166	2.2138	78.53	-0.1975	-0.0366	0.1609	1293.4464	0.126137	-434.123151	-434.115098	-434.114154	-434.155831	30.203	
C	 0.0696975012	 1.4371067673	-0.1045349506	-0.325129
N	-0.0764426009	 0.0121322432	 0.0928537903	-0.350661
C	 0.5836333726	-0.6644094653	 1.0950319718	 0.380628
C	 1.162554382	-0.0311122122	 2.2061900577	-0.098743
N	 1.7543372771	-0.7289776378	 3.1778961489	-0.327401
C	 1.7824888678	-2.0462525758	 3.0551760735	 0.387263
O	 2.3743543836	-2.781531866	 4.0265244476	-0.426235
C	 1.2222637839	-2.6883601916	 1.9449914334	-0.083331
N	 0.6327764388	-2.0026773813	 0.9770437902	-0.312697
H	 1.1176705084	 1.7560488906	-0.2177233909	 0.1194
H	-0.4766854097	 1.7254128297	-1.0046195718	 0.131925
H	-0.3629706245	 1.9945435644	 0.7345046698	 0.13493
H	-0.2265306858	-0.5552049876	-0.7268309291	 0.245341
H	 1.1497877632	 1.0477602059	 2.3190752501	 0.106985
H	 2.6922214472	-2.1499844071	 4.6855890736	 0.296595
H	 1.2642139051	-3.7697724863	 1.8523408353	 0.121131
