17
gdb 28122	4.95714	1.21774	0.98759	1.4045	85.32	-0.1642	0.0083	0.1725	1165.4324	0.138845	-380.908807	-380.901146	-380.900202	-380.940766	30.114	
N	 0.1596229067	 1.3974835794	-0.0810573343	-0.610599
C	-0.013025543	-0.0038072602	-0.0414458528	 0.285645
C	-1.1317956861	-0.8195489831	-0.1256227275	-0.412792
C	-0.6596618322	-2.1558563501	-0.0859809873	 0.306631
C	 0.7157800223	-2.1141821189	 0.0279891873	 0.297409
N	 1.1120509895	-0.80364885	 0.0534657294	-0.40613
C	 1.2770324005	-3.4487644103	 0.097916479	-0.200803
C	 0.2524952188	-4.3269044714	 0.0205248232	-0.089596
C	-1.0803547671	-3.5993018225	-0.1043779558	-0.416143
H	-0.5944759838	 1.8360210943	-0.5958497341	 0.245057
H	 0.1733665591	 1.8122224869	 0.8472710098	 0.241535
H	-2.1503124823	-0.4657589505	-0.1900737534	 0.081133
H	 2.0486330935	-0.4383484438	 0.0399426227	 0.25545
H	 2.3268041955	-3.6965209524	 0.1911286923	 0.089838
H	 0.336516074	-5.4051606262	 0.0392733439	 0.090453
H	-1.7560291673	-3.8677912546	 0.7191544666	 0.120935
H	-1.6007166981	-3.8849951467	-1.028794289	 0.121978
