14
gdb 98730	3.00612	1.07242	0.90074	4.9285	64.12	-0.2884	-0.0679	0.2206	1255.7365	0.098151	-473.806257	-473.797451	-473.796507	-473.840852	30.402	
O	 0.1651711821	 1.5176171288	 0.2813913675	-0.413648
C	 0.0839288803	 0.1414450096	 0.4684090124	-0.133273
C	-1.0929383765	-0.4546929666	-0.2808942939	 0.351464
O	-1.8542223954	 0.249955813	-0.9008544345	-0.307195
C	-1.2554271017	-1.9519156097	-0.2166991242	-0.047275
O	-2.557762686	-2.4657159658	-0.4589475418	-0.198171
C	-1.5757067747	-2.7338276722	-1.443182926	-0.100566
C	-1.7275463586	-2.1108953273	-2.7409311419	 0.32837
N	-1.8146913404	-1.6853072764	-3.8111587715	-0.31305
H	-0.5981305291	 1.7551243209	-0.2685168257	 0.302399
H	 1.0040100965	-0.3670434868	 0.130723489	 0.125844
H	-0.0315737219	-0.1192545146	 1.5360670708	 0.125007
H	-0.6904234283	-2.468705536	 0.5593700929	 0.125811
H	-1.2279193564	-3.7650116669	-1.486535653	 0.154283
