17
gdb 51832	2.86099	1.23588	0.98713	3.8177	71.58	-0.2432	0.0055	0.2487	1209.7705	0.13751	-455.183513	-455.175052	-455.174108	-455.21747	30.384	
N	-0.6336421864	 1.2397540792	-0.3471675886	-0.441771
C	-0.3269094492	 0.0186683968	-0.272021176	 0.120876
O	-1.2564258283	-0.8674987508	 0.1652914398	-0.210495
C	-0.8596770975	-2.2424274283	 0.2005847534	-0.001473
C	-1.9941853058	-3.0561615508	 0.8172016371	-0.243522
C	-2.8582535121	-3.4869092047	-0.3896968473	-0.166009
N	-1.8887137089	-3.500155835	-1.4752047793	-0.302124
C	-0.7580523758	-2.7746229096	-1.2480823449	 0.40896
O	 0.1370275201	-2.5441610321	-2.0331080804	-0.381789
H	 0.1677340141	 1.7746292983	-0.6761257377	 0.230669
H	 0.6319395455	-0.4417692706	-0.5302598925	 0.117909
H	 0.0963566999	-2.3469184485	 0.7223494514	 0.104675
H	-1.5783347	-3.9405148656	 1.3073973708	 0.122081
H	-2.5514086033	-2.4773697181	 1.5545625904	 0.134635
H	-3.3054531588	-4.474735063	-0.2462175011	 0.119272
H	-3.6664580282	-2.7703637771	-0.582226621	 0.130029
H	-2.1095439256	-3.81046982	-2.4088328842	 0.258077
