18
gdb 86753	3.0939	1.0997	0.88246	4.9102	79.05	-0.2625	-0.0036	0.2589	1310.2738	0.147334	-401.979037	-401.969926	-401.968982	-402.013214	33.224	
C	-0.1799126583	 1.5862963227	 0.0977212693	-0.503835
C	-0.1017907815	 0.0924712801	 0.0888148353	 0.312599
C	-0.2423094197	-0.7187151732	-0.9585734476	-0.170903
C	-0.034485434	-2.1784574645	-0.594318395	-0.174838
C	-0.0566962803	-2.1497044212	 0.9630105865	-0.235575
C	 0.2495650648	-0.6924462799	 1.3441379999	 0.015791
O	 1.6426476931	-0.5972915119	 1.6553263407	-0.436487
C	-1.0412697646	-3.0726086518	-1.1683281065	 0.259222
N	-1.8389825113	-3.774560963	-1.6235888521	-0.32921
H	 0.7674979642	 2.0321232181	 0.4279783522	 0.123549
H	-0.405673682	 1.9868013408	-0.8935069517	 0.136286
H	-0.9523044465	 1.9366828377	 0.7937298144	 0.134578
H	-0.4430924615	-0.4103744207	-1.9782486784	 0.114349
H	 0.942896448	-2.5191607507	-0.9624509483	 0.139198
H	-1.0533566387	-2.4244562868	 1.3147882506	 0.129273
H	 0.6665906843	-2.8334464509	 1.4095393761	 0.130323
H	-0.3438683291	-0.3713474045	 2.2132117788	 0.070945
H	 1.8358583431	 0.3118557597	 1.9054829657	 0.284737
