23
gdb 59254	2.48633	1.26742	1.05096	1.4588	85.93	-0.2272	0.0797	0.3069	1298.1941	0.203948	-388.262223	-388.252307	-388.251362	-388.296875	37.426	
C	 0.2533882488	 1.309441678	 0.3540015938	-0.385071
C	-0.1848254694	-0.1165849659	-0.0076714601	 0.008475
C	-1.7004576196	-0.1937676826	-0.2455267437	-0.389958
C	 0.5653093157	-0.6293854584	-1.224829672	-0.05108
C	 2.0299693421	-1.047820158	-1.2473146084	-0.22061
C	 2.3535489587	-1.869097387	-0.0071284925	-0.09935
O	 1.2068602244	-2.7323709127	-0.2250271859	-0.319456
C	 0.9222052979	-2.0664419094	-1.4707144517	 0.437492
C	 0.5069761442	-2.9282088238	-2.6182729852	-0.489134
H	 1.3309250991	 1.3588402211	 0.5405948885	 0.111858
H	 0.0250359344	 2.009746216	-0.4586950772	 0.107601
H	-0.2629561797	 1.6654029984	 1.2518951445	 0.10814
H	 0.0505388725	-0.7786135413	 0.833155525	 0.089873
H	-1.9988730733	 0.4377237489	-1.0914011282	 0.106381
H	-2.0140015294	-1.2188869594	-0.4657880877	 0.116955
H	-2.2561002964	 0.1477218473	 0.6341019758	 0.108243
H	 0.2995134157	-0.1171654974	-2.1505381876	 0.078816
H	 2.7544258601	-0.6333609272	-1.9363514073	 0.092163
H	 3.2842661707	-2.441167744	-0.0961032167	 0.10632
H	 2.3232014668	-1.3721361405	 0.9699069008	 0.102478
H	-0.4578591491	-3.405556798	-2.4113596368	 0.131476
H	 0.3982625739	-2.3296757889	-3.5273510718	 0.122349
H	 1.2415262618	-3.7184872054	-2.8031397257	 0.126038
