16
gdb 49978	3.95157	1.12322	1.01365	1.4984	71.93	-0.2526	-0.0439	0.2087	1164.3009	0.123652	-437.788057	-437.780597	-437.779653	-437.820412	28.265	
O	-0.6075136113	 0.6088363915	 0.7714829635	-0.248999
C	 0.198827211	 0.9107297587	-0.0708416099	 0.157103
C	 1.2088721629	 1.9935024535	 0.1010607187	-0.21592
O	 2.3850094915	 1.8721104079	-0.7516378505	-0.302474
C	 1.494402864	 2.9087990535	-1.0179186367	 0.534963
C	 0.8888765644	 3.3065110332	-2.376013199	-0.147115
C	 0.3463516105	 4.5786014419	-1.673108204	-0.192582
C	 1.8112444469	 4.4031693344	-1.1941995695	-0.142349
N	 2.1545607647	 4.1146075379	-2.6539368404	-0.319849
H	 0.2499059566	 0.407804222	-1.0617580672	 0.09011
H	 1.4009969632	 2.3138419307	 1.1231605955	 0.125862
H	 0.4160002385	 2.6893815779	-3.1388123129	 0.100122
H	 0.1955778467	 5.425410264	-2.3414596234	 0.121935
H	-0.4484484533	 4.4533140354	-0.9366634669	 0.111051
H	 2.4155992064	 5.0620953414	-0.5721425502	 0.099933
H	 2.9594376375	 3.4817386562	-2.6946919572	 0.22821
