11
gdb 1404	7.32477	1.45405	1.2636	1.4164	51.65	-0.3262	-0.0167	0.3095	852.7824	0.077649	-339.450173	-339.442938	-339.441994	-339.481796	24.36	
O	-0.0853832987	 1.4413314874	 0.0158315262	-0.391609
C	 0.0172455018	 0.0404847874	 0.0105330526	-0.007129
C	 0.6902784922	-0.5168579137	-1.2721908992	-0.362037
C	-0.0237715841	-0.1035594568	-2.4763387874	 0.270774
N	-0.5916677693	 0.2135564741	-3.4303719661	-0.285257
C	 0.7418050143	-0.4655684185	 1.1947532083	 0.25659
N	 1.3396989494	-0.8410602028	 2.1090319282	-0.298127
H	 0.7978499332	 1.8250079913	 0.0749876489	 0.303717
H	-1.0120438566	-0.3295865122	 0.0547539653	 0.167631
H	 1.727046475	-0.165719427	-1.3236482148	 0.166588
H	 0.7247749727	-1.6105688992	-1.224278422	 0.178858
