16
gdb 15529	2.98146	1.96687	1.28662	4.7109	71.09	-0.2355	0.0047	0.2402	941.6864	0.131354	-342.801253	-342.793435	-342.792491	-342.833604	28.348	
C	-0.1258796583	 1.5167489688	 0.0218433141	-0.499301
C	-0.0133716758	 0.0285508214	-0.0168896168	 0.348168
C	 0.0744461486	-0.784896922	-1.0656798158	-0.177626
C	 0.1568364798	-2.2280468453	-0.6619154437	-0.203527
N	 0.3004667631	-2.1604847962	 0.8014430694	-0.302212
C	-0.0164034706	-0.8066218221	 1.2601834973	-0.217715
C	 0.969890095	-0.3219388338	 2.2514936207	 0.298047
N	 1.7212731405	 0.0806632378	 3.0317678505	-0.335356
H	 0.691987125	 1.9590875594	 0.6022086441	 0.156005
H	-0.1039090839	 1.9400204609	-0.985045493	 0.131306
H	-1.0598523344	 1.8318873013	 0.5044169814	 0.131588
H	 0.0788861882	-0.4678181769	-2.1017130734	 0.105356
H	-0.7432959949	-2.7808949532	-0.9794498625	 0.102234
H	 1.0157864359	-2.7409810624	-1.1179143151	 0.118754
H	-0.2288423664	-2.8675574137	 1.2903821972	 0.231572
H	-1.003167292	-0.727730834	 1.7513892259	 0.112706
