18
gdb 44384	3.69878	1.54721	1.41345	2.885	75.82	-0.2601	0.0267	0.2868	960.2444	0.151401	-401.935127	-401.928746	-401.927802	-401.96574	26.865	
N	-0.0217055075	 1.250479799	-0.4223294945	-0.558653
C	-0.0227739609	 0.0469235591	-0.0702335923	 0.419284
O	 1.034749062	-0.7931852278	 0.2461960868	-0.279926
C	 0.1284518944	-1.9309969799	 0.4378341361	 0.121702
C	-0.1670824164	-2.3328658979	 1.8865427058	-0.053868
C	-1.6971704569	-2.6453137671	 1.7558237634	-0.227045
C	-1.7865198691	-1.1003811555	 1.5181920323	-0.036071
C	-0.6150835312	-0.992326029	 2.534179051	-0.238022
C	-1.0862966392	-1.0116925553	 0.1427480088	-0.144678
H	 0.928920511	 1.623504791	-0.4610925613	 0.226223
H	 0.3874213665	-2.7459510589	-0.2386518956	 0.092928
H	 0.5264583701	-3.014156075	 2.3779047233	 0.071343
H	-2.0244052378	-3.3105359782	 0.950364075	 0.096528
H	-2.1405706681	-2.9570300469	 2.7035482475	 0.107418
H	-2.7123775447	-0.5418236015	 1.6439652573	 0.079021
H	-0.9565611972	-1.1377302746	 3.5605684351	 0.10174
H	 0.057038947	-0.1349177687	 2.4799555286	 0.119816
H	-1.7356741421	-1.2197094627	-0.7070061272	 0.10226
