18
gdb 111189	2.71252	1.19913	0.95675	5.0302	77.35	-0.2751	0.0253	0.3004	1244.0696	0.148538	-401.900235	-401.891981	-401.891037	-401.933611	31.008	
O	 0.3556806407	 0.5513202991	 1.0014580354	-0.417512
C	-0.0739691987	 0.3785840007	-0.342466644	-0.145967
C	-1.4098654011	-0.3349017102	-0.2811736944	 0.059843
C	-2.0132582884	-1.0634636631	-1.5250857017	-0.076786
C	-0.9875324174	-2.214411181	-1.3024934963	-0.251326
C	-1.509428353	-1.8443683366	 0.1159934252	-0.045332
C	-2.9402046445	-1.8428542552	-0.5281383841	-0.136763
C	-4.0298475052	-1.1425763689	 0.1334719977	 0.265969
N	-4.9170917041	-0.6099001928	 0.6498280086	-0.339067
H	 1.1534258822	 1.0883032514	 0.9975243403	 0.29029
H	-0.2187258079	 1.3488835509	-0.8443785367	 0.093017
H	 0.6729699722	-0.1771254771	-0.9264036786	 0.088384
H	-2.1173497875	 0.3043107153	 0.2544919353	 0.105931
H	-2.3313847204	-0.6216885708	-2.4698782417	 0.089351
H	-1.2717107637	-3.1984251894	-1.6842597912	 0.100039
H	 0.0576407834	-2.0030331397	-1.5208531582	 0.107579
H	-1.2418230068	-2.2976504076	 1.0692244172	 0.09835
H	-3.2879521099	-2.8151696748	-0.8861261927	 0.114
