17
gdb 62394	2.57226	1.82734	1.36539	3.7719	71.95	-0.2552	0.0196	0.2747	963.027	0.138064	-417.985579	-417.978038	-417.977093	-418.017238	29.871	
N	 0.0102744299	 1.4544469922	 0.0404389393	-0.560049
C	 0.0296542269	 0.0005201251	 0.0194783129	 0.151819
C	 0.9387703601	-0.5647803489	 1.0235991085	 0.229628
N	 1.6623484212	-0.9423942229	 1.8435886324	-0.349659
C	-1.4116453105	-0.6370769664	-0.099631709	-0.099379
C	-1.3714414183	-0.2139248248	-1.6020722435	-0.248378
C	 0.1073949839	-0.6210110534	-1.4248777228	 0.087935
O	 0.0561437115	-2.0227844345	-1.1718671443	-0.269787
C	-1.0472215689	-2.1183036508	-0.2304581786	-0.100685
H	-0.3056941658	 1.7863922298	 0.9473046944	 0.244748
H	 0.9507351713	 1.8170563783	-0.0877342538	 0.24598
H	-2.2105598458	-0.3566293611	 0.5854574142	 0.087218
H	-1.9510917622	-0.8143473362	-2.3049454284	 0.10745
H	-1.5196414631	 0.8514080418	-1.7491876176	 0.136009
H	 0.9118837328	-0.388505255	-2.120428586	 0.09502
H	-0.6982774074	-2.5800907909	 0.697852085	 0.131266
H	-1.8575164457	-2.7196763321	-0.6558820125	 0.110863
