12
gdb 4701	6.57104	1.36384	1.12942	3.2449	68.73	-0.2017	-0.0082	0.1935	962.9051	0.084153	-377.522164	-377.515114	-377.51417	-377.553187	26.375	
O	 0.082247294	 1.3315525469	 0.2502218057	-0.433621
C	 0.0675270419	 0.002453415	 0.0128985477	 0.372087
C	 0.0601703221	-0.7851485658	-1.1156837213	-0.238645
N	 0.0445424624	-2.1091026299	-0.7582212853	-0.290759
C	 0.0422948698	-2.1363941428	 0.5608524784	 0.187252
N	 0.0561025538	-0.8507095393	 1.0752030373	-0.349215
C	 0.0280581541	-3.2709887	 1.3988420287	 0.272247
C	 0.0161026459	-4.2180511873	 2.1430161419	-0.41367
H	 0.0901127113	 1.7953185279	-0.5931141548	 0.314968
H	 0.0652837047	-0.472018397	-2.1485907451	 0.105272
H	 0.0577410074	-0.5851218376	 2.046361511	 0.278925
H	 0.0054455027	-5.0639720302	 2.784795756	 0.19516
