21
gdb 92891	2.28622	1.60749	1.02136	2.4732	84.14	-0.2344	-0.01	0.2244	1220.9427	0.182305	-387.136702	-387.127497	-387.126553	-387.170628	34.796	
C	-0.047298868	 1.5647308938	-0.0125166916	-0.399407
C	 0.1006384454	 0.045470473	 0.0044203066	-0.087084
C	 0.7864812286	-0.5079024631	-1.2673327804	-0.256982
C	 1.1029626206	-1.9739166672	-1.1541927283	-0.085297
C	 1.1556540088	-2.6251895308	 0.005806173	-0.03813
C	 0.9592299196	-1.9779696264	 1.3601127702	-0.141606
C	 2.0376569732	-2.396348354	 2.3685670745	-0.392214
C	 0.8577650141	-0.4547546305	 1.2310983591	 0.381401
O	 1.3460542501	 0.2939221982	 2.0463008893	-0.319189
H	 0.9330404726	 2.0494007901	-0.0231350762	 0.128579
H	-0.6033581055	 1.8872282465	-0.898399999	 0.106135
H	-0.5747457419	 1.9196409478	 0.876236052	 0.124992
H	-0.8928746848	-0.4254314126	 0.0500958596	 0.094171
H	 0.1380308264	-0.3254588679	-2.133180887	 0.109998
H	 1.7066305821	 0.0621233326	-1.466011494	 0.119453
H	 1.2940257357	-2.5107774125	-2.0802057527	 0.091183
H	 1.381634157	-3.6893974014	 0.0205915658	 0.090263
H	-0.0172914224	-2.3064345268	 1.7566970434	 0.10698
H	 3.0320484382	-2.1089336557	 2.0145589477	 0.12489
H	 1.872438688	-1.9084472913	 3.3308214829	 0.134388
H	 2.0258862722	-3.4808361916	 2.5136119252	 0.107475
