18
gdb 56211	4.75407	0.73389	0.67927	3.2348	68.76	-0.2492	0.0529	0.302	1622.9478	0.14727	-476.239841	-476.230404	-476.22946	-476.276457	32.555	
N	-0.142619516	 1.236078256	-0.312716106	-0.562994
C	 0.0645233832	-0.0903658614	-0.0602304703	 0.497559
O	 1.1404769307	-0.6141761642	 0.1047377705	-0.394295
O	-1.1232785983	-0.7493257742	-0.0538678338	-0.266636
C	-1.0278800869	-2.1687542183	 0.1396711894	-0.071637
C	-2.4372208884	-2.7182211063	 0.1303818498	-0.054325
C	-3.1468259929	-2.7593671352	-1.24087265	-0.071799
O	-3.1402273903	-4.2025735824	-1.2527299599	-0.26986
C	-2.5420008292	-4.2583171308	 0.0569204314	-0.090549
H	 0.6349944476	 1.8487852505	-0.1384371291	 0.269861
H	-1.071511855	 1.6104607749	-0.2222405956	 0.264377
H	-0.423987101	-2.6061557403	-0.6633792549	 0.12529
H	-0.5182359234	-2.3765261143	 1.0867155807	 0.122182
H	-3.0233604684	-2.2578296481	 0.9286097081	 0.086694
H	-4.1659659511	-2.3540981576	-1.2579286067	 0.101062
H	-2.580800757	-2.3349921149	-2.0792751928	 0.107323
H	-1.5880611894	-4.802216747	 0.0526693322	 0.1049
H	-3.2083233444	-4.7196094264	 0.796235817	 0.102847
