17
gdb 37510	3.35001	2.19535	1.91066	2.205	68.36	-0.2605	0.0895	0.3499	779.9427	0.141026	-421.81372	-421.808582	-421.807638	-421.842951	23.3	
C	-0.0519229369	 1.5680102761	-0.0262911251	-0.274507
C	 1.4833079695	 1.430652694	-0.0041603294	-0.037063
C	 1.3361759566	 0.0803243532	 0.7878118389	-0.076758
C	-0.0253429125	 0.0269990106	 0.0031612286	-0.037062
C	 0.6900166867	-0.4254033513	-1.2796160025	 0.040383
O	 1.3823670952	-1.6018308717	-0.8581135372	-0.243392
C	 2.2730053487	-0.9305949673	 0.0200360675	 0.140529
O	 3.0020547688	-0.0948761922	-0.8659696704	-0.243393
C	 1.8763562993	 0.6783631685	-1.2853709835	 0.040384
H	-0.4453188129	 1.9956555656	 0.898758884	 0.106584
H	-0.5174303645	 2.0638627974	-0.8844072798	 0.09393
H	 2.152012428	 2.2304636322	 0.3095268371	 0.075168
H	 1.3317684718	 0.0907302999	 1.8742293832	 0.077296
H	-0.8695798022	-0.5808378783	 0.3241931403	 0.075168
H	 0.12605297	-0.6024249805	-2.1921769061	 0.084425
H	 2.9189860224	-1.6221142356	 0.5542015819	 0.093882
H	 2.0887785719	 1.2236899494	-2.2016978476	 0.084424
