17
gdb 63862	2.33131	1.59994	1.2802	5.1934	73.66	-0.2537	-0.0021	0.2516	1047.5983	0.134823	-417.975088	-417.966442	-417.965498	-418.007935	32.915	
C	-0.0532057839	 1.5376943837	 0.0781368167	-0.437927
C	-0.0107155925	 0.0222182829	-0.0365091526	 0.214094
N	-1.3448012844	-0.5012022451	-0.259680459	-0.550046
C	 1.1503105657	-0.5814940863	-0.9453639773	-0.305164
C	 1.7200288289	-1.2727873024	 0.2945268037	-0.056856
O	 2.0126174849	-0.2570490474	 1.2551195655	-0.275336
C	 0.6594503261	-0.7126224273	 1.16446522	 0.31829
C	 0.0255429795	-1.23803406	 2.3341689581	 0.215646
N	-0.5141287646	-1.6654658408	 3.2632008443	-0.340246
H	 0.9239385677	 1.9261967929	 0.3712526077	 0.140466
H	-0.3222474903	 1.9838315486	-0.8863265345	 0.115217
H	-0.8004000998	 1.8428829786	 0.8158371666	 0.139865
H	-1.7569369965	-0.0772076296	-1.0851475117	 0.234281
H	-1.3331942626	-1.5056637669	-0.4123364766	 0.231474
H	 0.7505533512	-1.2795988489	-1.6847375317	 0.108995
H	 1.8332310075	 0.1210979245	-1.4289881561	 0.117855
H	 2.2585367932	-2.2087403764	 0.387707677	 0.129391
