20
gdb 99059	4.08213	0.74388	0.70157	3.4017	83.33	-0.2462	0.028	0.2742	1671.6481	0.168081	-403.155611	-403.144661	-403.143717	-403.192776	38.366	
C	-0.2054031794	 1.4567746835	 0.0303821729	-0.335223
N	-0.1645026714	 0.0211547927	 0.2310400972	-0.317883
C	 0.7800085871	-0.5898103151	 1.0017456029	 0.424945
O	 1.6412060974	 0.0235447246	 1.6104128877	-0.37756
C	 0.6973314474	-2.1164491951	 1.0192235032	-0.324261
C	 1.2876711708	-2.7120214384	 2.3150426894	-0.146007
C	 0.4313786395	-2.3680017305	 3.5498248044	-0.395413
C	 1.4617438753	-4.1564651046	 2.1771572215	 0.303378
C	 1.5814509939	-5.3472031915	 2.059465985	-0.451181
H	 0.5892389283	 1.8907522584	 0.6380557974	 0.172811
H	-0.0366361694	 1.7209699513	-1.0198208125	 0.126484
H	-1.1676589619	 1.8742529426	 0.3462384691	 0.126088
H	-0.8423122432	-0.5530748186	-0.2418170067	 0.245845
H	-0.335242527	-2.4574581854	 0.8805608484	 0.106202
H	 1.2682976826	-2.4863342559	 0.1593634379	 0.138836
H	 2.2705971815	-2.245227784	 2.4485352112	 0.133996
H	-0.5797309913	-2.7754254952	 3.447891101	 0.11545
H	 0.8749966625	-2.7908392255	 4.4545301102	 0.126817
H	 0.3701330424	-1.2836286004	 3.6691795059	 0.136269
H	 1.7050525749	-6.3972866431	 1.9634751839	 0.190406
