20
gdb 19395	2.91687	2.13586	1.58834	0.2964	78.7	-0.2407	0.0938	0.3345	906.3024	0.177427	-311.827687	-311.820102	-311.819158	-311.859015	30.431	
C	-0.1305717279	 1.5692379238	-0.0450472674	-0.407266
C	 0.0491843958	 0.056888524	 0.0048823107	-0.061876
C	 1.0919127758	-0.6043139017	-0.9178354772	-0.053533
C	 2.500013348	-0.2484727296	-0.5221930853	-0.284476
C	 1.7611375768	-1.2829989981	 0.281303278	-0.13458
C	 0.7776865235	-0.5983957864	 1.2095413857	 0.390079
C	 1.0532228821	-0.0172903721	 2.5671254715	-0.325004
C	 0.1226331549	-1.2024313188	 2.4119004463	-0.344453
H	 0.8227283604	 2.0942172106	 0.0694465333	 0.115623
H	-0.5707126404	 1.8770824993	-0.999937836	 0.112469
H	-0.7982375196	 1.9156499403	 0.7522936156	 0.110191
H	-0.9225561403	-0.4308264985	-0.1337038468	 0.07286
H	 0.8714594528	-1.0264050658	-1.8910596526	 0.081021
H	 3.2697637886	-0.6327103196	-1.1844574702	 0.106576
H	 2.7356656382	 0.7173209039	-0.0824454054	 0.106787
H	 2.1083295361	-2.3052410924	 0.3779338486	 0.082431
H	 2.0297110836	-0.1852715904	 3.0105519288	 0.108994
H	 0.6116435119	 0.943265387	 2.8138427876	 0.108327
H	-0.9417905809	-1.0400713326	 2.5543238761	 0.107087
H	 0.4713213705	-2.1728291728	 2.7520675485	 0.108742
