20
gdb 111392	2.15442	1.54015	1.09667	3.2788	78.68	-0.239	-0.0312	0.2078	1181.5555	0.169974	-403.107092	-403.098113	-403.097169	-403.141186	33.174	
C	 0.1174131717	 1.5238195256	 0.0544795384	-0.388551
C	 0.0704087339	-0.0052432744	-0.0395540604	-0.203131
C	-1.338283585	-0.5860755572	 0.0657094666	-0.009933
C	-1.5260034395	-2.0970013495	-0.0695008838	-0.05121
C	-0.9843213104	-2.8397205165	 1.0830906077	-0.236749
N	-2.3149773575	-2.215105632	 1.2273851171	-0.132809
C	-2.0889867734	-0.7527296774	 1.4507132897	-0.083526
C	-1.4090069946	-0.3115394584	 2.7212091311	 0.155174
O	-0.8941293175	-1.032791867	 3.537669154	-0.246597
H	 1.1411097645	 1.8934391731	-0.0558678655	 0.12137
H	-0.4910497651	 1.9871752861	-0.730094385	 0.117999
H	-0.2589150574	 1.8830972908	 1.0182788917	 0.117836
H	 0.4890340853	-0.3214168477	-1.0042422673	 0.10485
H	 0.7180678565	-0.4446736215	 0.7278633824	 0.109252
H	-1.9974121614	-0.0559645186	-0.6280975586	 0.087062
H	-1.8610119452	-2.5928843071	-0.9750122337	 0.096713
H	-1.050562871	-3.9225013384	 1.0418615955	 0.12457
H	-0.151306671	-2.4623075191	 1.6632954474	 0.136359
H	-3.0552051269	-0.2356860169	 1.4207961294	 0.103877
H	-1.4233282759	 0.7950017959	 2.8648226833	 0.077443
