16
gdb 61159	3.21337	1.00139	0.87303	4.8299	72.43	-0.2588	-0.085	0.1738	1311.6187	0.12296	-434.073312	-434.063785	-434.062841	-434.108649	32.566	
C	-0.3379441228	 1.3614569659	 0.0625306401	-0.360326
N	 0.1425123941	-0.0158808433	-0.0156317496	-0.088968
C	 0.0433694263	-0.7636973338	 1.2292829919	-0.301946
C	-1.3456674204	-0.9829462162	 1.6743143845	 0.280334
N	-2.4382401112	-1.1047719456	 2.0292987511	-0.306092
C	 0.0254659053	-0.7572313583	-1.1825626458	 0.273133
N	-0.1896360962	-2.014925784	-1.1610492241	-0.49877
C	 0.3339385965	-0.0415677754	-2.4886416491	 0.100641
O	 0.1390896961	-0.5695135719	-3.5518042	-0.229053
H	-0.2248533461	 1.869501392	-0.8944379952	 0.142366
H	-1.3977465871	 1.4046160004	 0.3480815403	 0.156145
H	 0.2455195061	 1.9100522663	 0.8084965662	 0.140224
H	 0.5229069078	-1.7341760284	 1.0899836533	 0.189633
H	 0.5708538	-0.2110763148	 2.0146576269	 0.151519
H	-0.1461886036	-2.3725142432	-2.1171755211	 0.245554
H	 0.803775985	 0.9590014503	-2.4215845494	 0.105606
