17
gdb 65335	3.85501	1.03292	0.94434	5.3318	74.16	-0.2593	0.0279	0.2873	1247.0016	0.135664	-417.97662	-417.967869	-417.966925	-418.010163	32.39	
N	-0.2713444532	 1.6746787841	-0.153436438	-0.550437
C	 0.0436999149	 0.2769430535	-0.0488167749	 0.271886
C	-0.2069984946	-0.3628925241	 1.2833791936	-0.314724
C	-1.1477627413	-0.6638245695	 0.1252719374	-0.205976
C	-2.4851778997	-0.1456111158	 0.1064647847	 0.298349
N	-3.5734604672	 0.2447207321	 0.066838262	-0.341885
C	 1.1722822265	-0.2372561094	-0.9027738032	-0.008858
C	 2.5281258631	-0.4352410533	-0.3705703747	-0.178124
O	 1.6617071233	-1.5470474989	-0.6228108448	-0.228109
H	 0.5330399585	 2.2449052533	 0.0883939409	 0.236968
H	-0.5571918098	 1.9229130144	-1.095747984	 0.242498
H	 0.4330241004	-1.1816432954	 1.5884704659	 0.142228
H	-0.582204948	 0.2832709185	 2.0663843655	 0.143648
H	-1.0403122211	-1.6458155822	-0.3230183172	 0.146993
H	 1.0685357612	-0.0146609793	-1.9671741924	 0.099088
H	 3.3877302882	-0.3577595929	-1.0334720012	 0.125579
H	 2.7234422088	-0.2301908451	 0.6806910103	 0.120877
