19
gdb 67465	2.56197	1.71276	1.61986	1.6601	73.94	-0.2337	0.0852	0.319	964.1359	0.161274	-422.991223	-422.983828	-422.982883	-423.022727	29.663	
C	-0.02501159	 1.525629004	 0.0210923928	-0.515878
C	 0.0070051765	 0.0263852824	-0.0046877328	 0.290047
C	 0.4704838092	-1.0020058471	-1.0834543002	-0.164724
C	 1.3147549982	-1.7343225212	-0.0425559836	-0.278086
C	 0.637170655	-0.8752612584	 1.0759414223	 0.037378
O	-0.333058752	-1.51365384	 1.8971650367	-0.260393
C	-1.1764986448	-2.3692643796	 1.173004478	 0.022093
O	-1.7738069836	-1.7780886739	 0.0372492863	-0.271488
C	-0.9783476537	-0.862401355	-0.6717006234	 0.080562
H	 0.9776730151	 1.9498161699	 0.1509696491	 0.117021
H	-0.4390711655	 1.929203891	-0.9089139388	 0.119943
H	-0.64875377	 1.8886883762	 0.8466416722	 0.131434
H	 0.7719595163	-0.8136850902	-2.1083364626	 0.084669
H	 1.249932685	-2.8235585741	 0.0179486426	 0.105079
H	 2.3700262647	-1.459585782	-0.1223187067	 0.106657
H	 1.3309517162	-0.3836047991	 1.7586268005	 0.087874
H	-0.6323705433	-3.2771959211	 0.8692911578	 0.089073
H	-1.9924704407	-2.6452950736	 1.8456381518	 0.116652
H	-1.6003222625	-0.3902843883	-1.4264115418	 0.102088
