16
gdb 128285	3.65866	1.17786	0.90794	3.7123	69.58	-0.2064	0.0362	0.2426	1257.6463	0.124644	-471.24451	-471.235531	-471.234587	-471.27875	31.127	
C	-0.1047153964	 1.4064336726	 0.1385807864	-0.336395
N	 0.3841362274	 0.0515016703	-0.0895323041	-0.380371
C	 0.8240053388	-0.7145333955	 0.9451872826	 0.524839
N	 0.8373823012	-2.0060527228	 1.0037775419	-0.371451
N	 1.4845048981	-2.2484736009	 2.2210810108	-0.086496
C	 1.7118103039	-3.5908200895	 2.6894364374	-0.325997
C	 1.8134908857	-1.1092262275	 2.8769410826	 0.471706
O	 2.3481839165	-0.9094887388	 3.9325491996	-0.406292
O	 1.369224631	-0.0834692241	 2.0115517645	-0.236131
H	 0.6258177606	 1.9579444558	 0.7318448482	 0.166253
H	-0.209792929	 1.9041065487	-0.8274261875	 0.137724
H	-1.0712015734	 1.436400581	 0.6603067173	 0.129264
H	-0.1117613147	-0.4923903008	-0.7807053343	 0.262683
H	 0.7636531033	-4.1245954839	 2.8089416107	 0.141078
H	 2.3439706613	-4.1427344956	 1.986993708	 0.142402
H	 2.2147434359	-3.5161406988	 3.6547217559	 0.167184
