17
gdb 25622	3.4606	0.9811	0.76885	1.4949	93.03	-0.1693	0.0183	0.1876	1465.6921	0.13669	-380.888936	-380.879592	-380.878648	-380.924045	33.769	
C	-0.0498720183	 1.4637067384	 0.0022266273	-0.509653
C	-0.0040463535	 0.0100229176	-0.0115811612	 0.191584
C	 0.0305291755	-1.1996630012	-0.032586201	-0.114454
C	 0.0968880283	-2.6013392405	-0.0484423571	 0.136546
C	 1.207791939	-3.4430878351	-0.0162830229	 0.144507
N	 2.5440283959	-3.0291468654	-0.0329230728	-0.621674
C	 0.7329381372	-4.7806186665	-0.0428014697	-0.196056
C	-0.6452438177	-4.7282994982	-0.0941609682	-0.093283
N	-1.0254242525	-3.4230760452	-0.1036742286	-0.325537
H	 0.6846692231	 1.8947038591	-0.6882648502	 0.147265
H	-1.0371978129	 1.8253739629	-0.3072165805	 0.147755
H	 0.1516100051	 1.8740693341	 0.9992859968	 0.142807
H	 2.6461554815	-2.0596221714	 0.2406699305	 0.243303
H	 3.1474510291	-3.6116341427	 0.5325382107	 0.24031
H	 1.3356037098	-5.6758793834	-0.0356925434	 0.088963
H	-1.3740988579	-5.5221909982	-0.1264186678	 0.116331
H	-1.9687235917	-3.0806483542	-0.1355846321	 0.261285
