17
gdb 112312	3.02184	1.42741	1.09896	4.0446	70.28	-0.2538	0.0276	0.2814	1111.1616	0.136602	-455.125101	-455.117073	-455.116129	-455.158221	29.626	
C	-0.0109824686	 1.3104601415	-0.2517388199	-0.245931
O	-0.0529179735	-0.1101802014	-0.2173732197	-0.226816
C	-1.2707443138	-0.6302857824	 0.184564052	 0.183936
O	-2.2911922683	-0.397586268	-0.8019581457	-0.263731
C	-2.8005304235	-1.5843688122	-1.2779631737	 0.430165
N	-3.6820914476	-1.6919441051	-2.1683543236	-0.53362
N	-2.2252807762	-2.6987104737	-0.6033410341	-0.131403
C	-0.7853557349	-2.8676450316	-0.9231217601	-0.241423
C	-1.2064182469	-2.1435744237	 0.2963024169	-0.070861
H	 1.0130042824	 1.5889097151	-0.5060323336	 0.137115
H	-0.6974234402	 1.7107194538	-1.0059657413	 0.135708
H	-0.2679478166	 1.737518948	 0.7282817466	 0.114826
H	-1.6093645185	-0.1489345296	 1.1135557308	 0.086132
H	-3.9529561122	-0.7699666158	-2.5086895288	 0.228321
H	-0.4339971898	-3.8909880372	-0.8502822252	 0.134725
H	-0.373799024	-2.284395091	-1.7403407989	 0.148451
H	-1.1199810678	-2.586059207	 1.2820717584	 0.114406
