17
gdb 84941	2.65781	1.66848	1.09219	2.421	71.95	-0.2499	-0.0095	0.2404	1084.6315	0.137664	-455.183681	-455.175485	-455.17454	-455.2169	29.831	
C	 0.2511063725	 1.4522445059	 0.0001792325	-0.329871
N	 0.1154427487	-0.0129372838	 0.0025463366	-0.18628
C	-0.0695317235	-0.6188460424	-1.2570266427	 0.115398
N	-0.2119620677	-1.8150654105	-1.642239265	-0.262057
C	-0.1669045972	-2.9537980966	-0.7538905769	-0.158257
C	 0.5761561502	-2.7295385417	 0.5493814902	-0.107252
O	-0.1522179358	-1.8713094907	 1.4356770118	-0.237345
C	-0.1595289911	-0.5380387697	 1.2758521966	 0.473697
O	-0.3949951904	 0.1855904602	 2.2090956642	-0.364449
H	 0.6556922493	 1.7665632306	-0.962445069	 0.131407
H	-0.7101576174	 1.9440968452	 0.1750596284	 0.147781
H	 0.9343748571	 1.7541654239	 0.7932928854	 0.15686
H	-0.0840303427	 0.1472366129	-2.0330484551	 0.116968
H	-1.190441354	-3.2825336442	-0.5297111161	 0.130559
H	 0.3091903559	-3.7818034993	-1.2949654143	 0.116598
H	 0.6835133913	-3.6666679234	 1.1007569553	 0.130799
H	 1.5751169449	-2.3171747463	 0.3666515382	 0.125447
