20
gdb 62053	4.22147	0.68987	0.61991	4.7858	81.	-0.2355	0.0268	0.2623	1779.3929	0.171337	-399.303218	-399.293361	-399.292417	-399.339049	35.64	
N	-0.1433731496	 1.5437738372	-0.5754510115	-0.505176
C	-0.0203797168	 0.2004892972	-0.0043439472	-0.128304
C	-1.3679168872	-0.4904649717	 0.324708268	-0.139077
N	-2.1136158382	 0.3511249625	 1.2538010823	-0.305296
C	-3.5088508915	 0.0118154165	 1.3810464601	 0.066074
C	-3.9926290683	-1.1935443687	 2.1621519237	-0.275624
C	-4.2069323419	 0.2103417755	 2.6904452893	-0.290868
C	 0.7756013877	-0.6569045509	-0.8915503602	 0.285397
N	 1.3700524914	-1.3544899525	-1.5947793413	-0.317168
H	-0.5108424998	 1.4739610937	-1.5212173531	 0.235685
H	-0.8558749403	 2.0209757469	-0.0258538342	 0.243376
H	 0.5436113528	 0.2943707492	 0.9355223694	 0.126771
H	-1.9499132752	-0.579608337	-0.5996695052	 0.116932
H	-1.1882674275	-1.5139524088	 0.6926440618	 0.104992
H	-1.6697719128	 0.3394051749	 2.1670991741	 0.218651
H	-4.07216683	 0.2621790059	 0.4853964501	 0.099142
H	-4.8493301333	-1.7477906237	 1.794400285	 0.11765
H	-3.246060863	-1.8033604623	 2.6605593232	 0.111072
H	-3.6083450642	 0.524111707	 3.5404412813	 0.113644
H	-5.2082550123	 0.6255500392	 2.6851016842	 0.122129
