21
gdb 39483	2.38485	1.71885	1.21178	0.9089	84.83	-0.2207	0.016	0.2367	1099.1394	0.185107	-387.070008	-387.06212	-387.061175	-387.102046	31.962	
C	-0.1284412937	 1.2518504184	-0.5777639085	-0.315681
C	 1.2541796908	 0.9668446066	-0.0901222464	 0.09504
O	 1.6321305253	 1.5565029122	 1.1078961378	-0.251456
C	 2.2394336229	 0.6904831656	 2.0670771195	-0.069653
C	 1.4060751859	 0.7038834572	 3.351823266	-0.193804
C	-0.1049071976	 0.6125783409	 3.051808708	-0.250197
C	-0.5205268068	-0.6206757908	 2.2882909154	-0.083508
C	-0.3712837785	-0.9068130132	 0.9888549638	-0.049403
C	 0.2430832053	-0.1698072886	-0.1489690541	-0.075034
H	-0.7617124667	 1.8095458802	 0.102199631	 0.131246
H	-0.3012640278	 1.449123159	-1.629979008	 0.113093
H	 2.0543847455	 0.9123692035	-0.8300053662	 0.085662
H	 2.3041881735	-0.3254483904	 1.6644368961	 0.108199
H	 3.2603857826	 1.0425964663	 2.2634812321	 0.096604
H	 1.7323281325	-0.123844439	 3.9937649247	 0.094396
H	 1.5930417298	 1.6316636337	 3.9052823688	 0.100214
H	-0.6524780758	 0.64640504	 3.9993251519	 0.091547
H	-0.3785780796	 1.5143413665	 2.4977565836	 0.120136
H	-1.0022960473	-1.3916568657	 2.886610736	 0.081688
H	-0.7575435291	-1.8759322301	 0.6767385267	 0.08294
H	 0.4239387787	-0.8290925024	-0.9937826981	 0.087971
