23
gdb 57398	2.88935	1.12102	1.00047	1.4211	88.13	-0.2229	0.0369	0.2597	1338.7705	0.204663	-388.315085	-388.30513	-388.304186	-388.349626	38.133	
C	-0.0959920298	 1.5272350416	 0.0933349556	-0.415755
C	 0.0208526542	-0.0072572794	 0.0187849484	 0.235699
C	 0.8145262576	-0.5482492696	 1.2241983598	-0.416329
O	-1.2887840264	-0.5831445868	 0.0209619493	-0.459692
C	 0.6740693181	-0.429550278	-1.2754083186	 0.355444
C	 0.1518110244	-1.2461848653	-2.191919244	-0.182666
C	 1.0538813864	-1.4264253713	-3.3882069038	-0.25149
C	 2.4012438435	-0.8393396577	-2.8983141841	-0.2076
C	 2.0315773477	 0.0911271322	-1.7170617478	-0.312521
H	 0.8850664319	 2.0106061268	 0.0658749734	 0.117758
H	-0.6937276178	 1.8981113188	-0.7433731423	 0.12605
H	-0.586234717	 1.8239911637	 1.0281789648	 0.098873
H	 0.3332840739	-0.2456221444	 2.1624074601	 0.098708
H	 0.8494342598	-1.6399358183	 1.1867921006	 0.1266
H	 1.8388257723	-0.1649034168	 1.2421831983	 0.117253
H	-1.6979982866	-0.3656643532	 0.8647400005	 0.272941
H	-0.8275011263	-1.6997058691	-2.1128539678	 0.102931
H	 1.1428292207	-2.4718835212	-3.7054823312	 0.098264
H	 0.6604037005	-0.8778883678	-4.2568025768	 0.101262
H	 3.0371776619	-1.6517848938	-2.5319309349	 0.102462
H	 2.9573079678	-0.3240787499	-3.685845401	 0.092778
H	 1.9543644096	 1.1396020845	-2.0393305972	 0.102661
H	 2.7872450537	 0.0733665051	-0.9232264314	 0.09637
