17
gdb 79194	2.78565	1.86963	1.57281	3.0642	65.21	-0.2421	0.0599	0.302	889.0377	0.137835	-458.91889	-458.912088	-458.911144	-458.949775	28.318	
O	 0.0758155579	 1.4420462069	-0.0247404801	-0.449266
C	 0.037590009	 0.0171644219	-0.0021461837	 0.061357
C	-1.3699672506	-0.567871457	-0.0611884804	-0.112627
C	-2.1751956512	-0.1599506441	-1.2806647415	 0.080397
O	-1.3009186863	 0.3953665691	-2.2716062974	-0.329429
C	-0.4767106317	-0.8328692111	-2.1869670357	 0.043295
C	-1.5172786969	-1.4963788092	-1.2664499489	-0.155117
C	 0.7292177932	-0.5574796945	-1.2865161678	 0.137047
O	 1.6966788495	 0.3019394505	-1.8170800526	-0.445851
H	-0.4920574037	 1.7022978149	-0.7644925103	 0.295424
H	 0.5681902553	-0.274601406	 0.9064071934	 0.093026
H	-1.9207099934	-0.7874486626	 0.8456945627	 0.098266
H	-3.2105824939	 0.1578550055	-1.2755690834	 0.11398
H	-0.2742202709	-1.237251436	-3.1781442861	 0.094938
H	-1.9002613864	-2.5062313938	-1.2705165302	 0.10714
H	 1.1962669964	-1.5253492711	-1.0518460162	 0.081043
H	 1.5372247038	 1.1588842869	-1.3925252719	 0.286376
