16
gdb 46946	2.64098	2.10585	1.56184	3.2489	67.53	-0.248	-0.0166	0.2314	868.9641	0.126245	-437.859554	-437.852923	-437.851979	-437.890595	26.316	
O	-0.2112406637	 0.4808018306	 1.047773486	-0.309562
C	-0.135709381	 1.3251295314	 0.1934928255	 0.336165
C	-1.315983742	 1.8260804525	-0.6363220642	-0.159681
O	-1.4563134888	 3.247494362	-0.5651798509	-0.26833
C	-0.2564095974	 3.9422398276	-0.3056088966	 0.105547
C	 0.3411212847	 3.886863561	 1.1577566873	-0.283517
C	 1.5470734046	 3.1251038404	 0.5918639121	-0.044137
C	 1.0188683514	 3.2559808144	-0.8128961179	-0.106806
N	 1.0803607746	 1.9599144918	-0.1511132176	-0.097742
H	-1.1646199091	 1.514514703	-1.6812586859	 0.120401
H	-2.2385291466	 1.3794409215	-0.2629770718	 0.139445
H	-0.4083905285	 4.9636910041	-0.656942276	 0.101045
H	 0.5985114802	 4.8861544874	 1.5157047308	 0.114052
H	-0.249287744	 3.3703624854	 1.9186287407	 0.129167
H	 2.5701299996	 3.1366741008	 0.9447047939	 0.116053
H	 1.5344086559	 3.3853071361	-1.7569733654	 0.107901
