19
gdb 113481	4.44337	0.9366	0.91996	1.7291	75.83	-0.2289	0.0647	0.2936	1324.1547	0.160003	-419.119308	-419.111031	-419.110086	-419.15256	31.745	
O	 0.0795789178	 1.2754374562	-0.5886468092	-0.419583
C	 0.0509015015	 0.1526492399	 0.2739683567	-0.060027
C	-1.330877099	-0.4540646825	 0.3421310011	-0.130264
N	-1.7523435964	-1.1136934728	-0.9213779055	-0.400301
C	-1.5668835502	-1.9136653511	 0.2850610827	 0.354329
C	-0.6532513238	-3.1449190028	 0.3215114574	-0.243048
N	-1.7550281435	-3.985714747	 0.9264727669	-0.123433
C	-2.0899321388	-3.3408556049	 2.2075338259	-0.237188
C	-2.6286770906	-2.7415102135	 0.9676389499	-0.129705
H	-0.2600649885	 0.9631878103	-1.4360370142	 0.290844
H	 0.7714344911	-0.6163356234	-0.0453882358	 0.089434
H	 0.3607408277	 0.5106664919	 1.2615643787	 0.108158
H	-2.0778254312	 0.1484605545	 0.8569135359	 0.091162
H	-2.7427018905	-0.955089871	-1.0935118584	 0.23458
H	-0.4037710042	-3.5078470478	-0.6771656317	 0.12849
H	 0.2509354534	-3.099990662	 0.9376170981	 0.107605
H	-2.7653408682	-3.9339576869	 2.8168450005	 0.125142
H	-1.3097655564	-2.8227471096	 2.7620775895	 0.114204
H	-3.6818530702	-2.7671144974	 0.7017152414	 0.099601
