14
gdb 133306	2.32601	1.89796	1.04615	3.4991	71.93	-0.2011	-0.0386	0.1625	1043.1719	0.102456	-474.156276	-474.148639	-474.147695	-474.188196	29.419	
N	 0.0246840814	 1.4026205487	 0.151996548	-0.595921
C	-0.0027627985	 0.0225301861	 0.0526657869	 0.179209
C	-1.1612476535	-0.6900232843	 0.0359408153	 0.19209
F	-2.3286492245	-0.0454528712	 0.0506094871	-0.064408
C	-1.195845621	-2.1340055598	 0.000297588	 0.29114
N	-2.288995931	-2.8047332115	-0.0133324057	-0.568811
N	 0.1029914453	-2.6732017671	-0.0259592317	-0.310666
N	 1.2756244985	-2.022909821	-0.0177836994	-0.191843
C	 1.2266045269	-0.7292599896	 0.0229662131	-0.040206
H	 0.8160512625	 1.8549552729	-0.2808712558	 0.258309
H	-0.8515854146	 1.8551648697	-0.0641149658	 0.26569
H	-2.1117251063	-3.8092084956	-0.0463238882	 0.198387
H	 0.1925660886	-3.6778997125	-0.0538995597	 0.265201
H	 2.1806877761	-0.2126586847	 0.0397426681	 0.12183
