17
gdb 126844	3.07211	1.28128	0.98083	3.428	71.57	-0.2113	0.0087	0.22	1203.4641	0.136642	-451.324514	-451.315357	-451.314413	-451.358855	32.814	
C	-0.0292162973	 1.5905438267	 0.003039636	-0.378849
C	 0.0741617727	 0.0648885895	 0.0312631011	-0.142128
N	 0.683940093	-0.434477848	 1.2533965325	 0.047506
N	 2.0145791188	-0.5264403637	 1.3642533749	-0.17638
N	 2.278719401	-0.9938960837	 2.5672937898	-0.286734
C	 1.1164995681	-1.1740012688	 3.2214655306	 0.31827
O	 1.0376067001	-1.6541075919	 4.4826448412	-0.442154
C	 0.0602205172	-0.8188725963	 2.4069891765	 0.189676
N	-1.3374110951	-0.861998175	 2.5362877023	-0.618122
H	 0.9609378936	 2.0420461415	 0.1041318716	 0.147161
H	-0.4667053084	 1.9176601748	-0.9448819756	 0.1247
H	-0.6628266186	 1.9601498876	 0.8150064626	 0.12005
H	-0.9133078102	-0.3980646207	-0.0400535563	 0.139486
H	 0.6930499557	-0.2953661808	-0.7933860215	 0.13971
H	 1.9413675172	-1.8495889081	 4.7600705542	 0.305494
H	-1.7219976561	 0.0031415095	 2.9048853878	 0.252535
H	-1.6108539718	-1.6085623925	 3.1655252523	 0.25978
