20
gdb 6854	3.25081	1.81282	1.59515	1.0541	76.86	-0.2419	0.0244	0.2663	931.7382	0.177117	-349.022119	-349.014048	-349.013104	-349.053862	31.779	
C	 0.0756333685	 1.4801027427	-0.0474150605	-0.404466
C	-0.0585678222	-0.0473610972	 0.0200042512	 0.322876
C	-1.5468601278	-0.4481210032	 0.0495724111	-0.407115
O	 0.5487356957	-0.5193894272	-1.1904567855	-0.292653
C	 0.9795106488	-1.8686553587	-1.1631341484	-0.081978
C	 2.0777210178	-2.0797899051	-0.120437791	-0.255427
C	 1.6463411803	-1.4666008447	 1.1843491745	-0.092311
C	 0.6627335372	-0.5724169798	 1.241182824	-0.062004
H	 1.1301381254	 1.7655819762	-0.0736857658	 0.12132
H	-0.4084049904	 1.8546716964	-0.9542092702	 0.120039
H	-0.3956285021	 1.9523046129	 0.8199450495	 0.108103
H	-2.0618647994	-0.0303615145	-0.8205524147	 0.118357
H	-1.6641531465	-1.535169583	 0.0368890167	 0.116312
H	-2.0344535	-0.0728341439	 0.9551196697	 0.110829
H	 0.1389304846	-2.5477064311	-0.9510450414	 0.088918
H	 1.3355454322	-2.0884504515	-2.1739252893	 0.101963
H	 2.2737251968	-3.1524465987	 0.0032820785	 0.100631
H	 3.0198266989	-1.630445991	-0.4635544977	 0.113969
H	 2.1546908008	-1.7804983196	 2.0923991864	 0.087551
H	 0.3395280215	-0.1595460789	 2.1938381527	 0.085087
