21
gdb 111636	2.0873	1.66702	1.31977	0.9262	84.02	-0.2152	0.025	0.2402	1117.6688	0.182002	-387.079687	-387.070705	-387.069761	-387.113038	34.243	
C	 0.3326538474	 0.9718153766	-0.311549605	-0.230164
O	-0.3702716012	 0.0393044636	 0.4837737761	-0.225833
C	 0.4437512309	-0.6395042054	 1.3773226859	 0.078918
C	 0.0362929168	-2.0179945987	 1.7899621576	-0.158077
C	-0.9739471034	-2.7442443773	 0.8988988869	-0.271193
C	-0.2450793853	-2.902703507	-0.4172261526	-0.070506
C	 0.9975101158	-2.4205241609	-0.3623742993	-0.125491
C	 1.3220575987	-1.8229973939	 0.9673177575	 0.248695
C	 2.7151957565	-1.9584405042	 1.5364178811	-0.485903
H	 1.0805008529	 0.4758798945	-0.9459578145	 0.108872
H	-0.4012568723	 1.4730721711	-0.9470057224	 0.124911
H	 0.8433137792	 1.7261185651	 0.3064862019	 0.102646
H	 0.8732455747	-0.0006678528	 2.1539523788	 0.074425
H	 0.0796313604	-2.267281465	 2.8445854162	 0.082097
H	-1.2613184813	-3.7138236768	 1.3254611557	 0.101246
H	-1.8972981182	-2.1641910231	 0.7788211606	 0.121967
H	-0.7152097255	-3.3308964991	-1.2954476124	 0.089942
H	 1.710972196	-2.4223193729	-1.1798393796	 0.085358
H	 3.4589945478	-1.480287334	 0.8876048636	 0.114864
H	 2.7893961602	-1.4888528063	 2.5226392232	 0.113792
H	 3.0003981697	-3.0109199234	 1.6477589206	 0.119433
