16
gdb 5907	4.04087	1.26551	1.21124	2.5013	70.87	-0.2668	0.0202	0.287	1038.5102	0.128303	-342.760777	-342.751651	-342.750707	-342.794069	33.227	
C	 0.0562331647	 1.5518606047	 0.0207451794	-0.396053
C	 0.0401430243	 0.0153125952	 0.0314855348	 0.069385
N	 0.7710252579	-0.4587676912	 1.2077194875	-0.499149
C	-1.4166912642	-0.5371436579	 0.0849285944	-0.365289
C	-2.1741531048	-0.0777295969	 1.2400115485	 0.332209
C	-2.8238909312	 0.30100694	 2.1767157537	-0.447624
C	 0.6497129763	-0.484802377	-1.2287930941	 0.254335
N	 1.1529024562	-0.9006095581	-2.1836048044	-0.340313
H	 1.0836551644	 1.922923791	-0.0329073371	 0.128742
H	-0.4910870084	 1.9414267255	-0.8411553337	 0.134653
H	-0.4072366307	 1.9148393833	 0.9397324163	 0.153266
H	 0.8288527863	-1.4732456934	 1.2073914674	 0.241286
H	 1.7249465265	-0.1102057915	 1.1890229031	 0.241826
H	-1.9297749581	-0.248460257	-0.8396019075	 0.14973
H	-1.3718860837	-1.6333173904	 0.0794133955	 0.142032
H	-3.3929805455	 0.6293973138	 3.0109935163	 0.200965
