13
gdb 11691	5.49985	1.47309	1.31231	3.4182	66.5	-0.2462	-0.0087	0.2374	898.3426	0.094787	-361.418361	-361.411512	-361.410568	-361.449237	26.338	
O	 0.052306974	 0.0466953588	 0.000732314	-0.337736
C	 0.0409805385	 1.2416549605	-0.0524261531	 0.442197
N	-1.0164371345	 2.1701263979	-0.0451042271	-0.394429
C	-0.1018372415	 3.323480704	-0.0508956072	 0.194421
C	 0.8717367369	 3.2416995812	 1.0972976748	-0.307325
C	 1.0843205777	 2.3511745834	-0.1204187505	-0.282156
C	-0.3699039191	 4.4914648577	-0.8172856015	 0.232123
C	-0.6064291485	 5.4929716293	-1.439393719	-0.398901
H	-1.8289948588	 2.0978404283	 0.5574715417	 0.247929
H	 1.5726916378	 4.065571696	 1.1889657851	 0.140784
H	 0.5455992597	 2.8064077978	 2.0374034785	 0.129607
H	 1.9658772903	 2.4045970823	-0.7421544188	 0.134786
H	-0.8137353925	 6.3695864826	-2.0017990069	 0.198699
