19
gdb 37473	2.92848	1.73339	1.44659	1.9203	73.6	-0.2418	0.0831	0.3249	962.501	0.162318	-422.990671	-422.983727	-422.982783	-423.021973	28.235	
C	 0.0111403379	 1.469101331	-0.0983203072	-0.281799
C	 1.3158301217	 0.7433988295	 0.0636101106	-0.070329
C	-0.0102979332	-0.0270088613	 0.0410705968	-0.058236
C	 0.3725388281	-0.6772207097	-1.288570177	 0.081797
O	-0.4981492621	-0.3498320468	-2.3630316278	-0.25527
C	 0.1699790304	 0.1292107738	-3.5010342424	 0.013371
O	 0.9556877336	 1.256784961	-3.2278382258	-0.227301
C	 2.1159341845	 0.8955364318	-2.4798753141	-0.118687
C	 1.7599095108	 0.0712245972	-1.2399796434	-0.04971
H	-0.3203694122	 2.010059974	 0.7820285756	 0.108958
H	-0.2550963235	 1.9279481481	-1.0437430511	 0.135277
H	 1.9713475294	 0.9227718151	 0.9074177243	 0.085355
H	-0.5263550299	-0.5281852357	 0.8498345599	 0.086562
H	 0.4795319946	-1.7664628322	-1.2277373657	 0.07593
H	 0.8003442175	-0.6627923612	-3.949250463	 0.07258
H	-0.6046666794	 0.4341341823	-4.2075208635	 0.11665
H	 2.7929284454	 0.3202804729	-3.1325459212	 0.091446
H	 2.6161931338	 1.8307306835	-2.2117547589	 0.11439
H	 2.5570732125	-0.6504332133	-1.0421037761	 0.079017
