13
gdb 18319	4.17766	2.13168	1.51351	4.0355	61.05	-0.2234	-0.0327	0.1907	778.1887	0.097112	-398.577094	-398.570933	-398.569989	-398.6074	23.349	
O	-0.1164266634	-0.0294674619	-0.1813199825	-0.34312
C	-0.0267887697	 1.1565213159	 0.0042114341	 0.386586
N	-1.097234949	 2.0460834635	 0.1555900885	-0.31362
C	-0.66813704	 3.345735564	 0.4574712645	-0.057703
C	 0.6458608307	 3.4621050175	 0.2108899485	 0.004031
C	 1.8491044017	 3.7337401253	 1.0848493219	-0.123926
O	 2.1136644773	 2.2913083212	 1.0722767182	-0.290324
C	 1.2070268909	 2.0951641272	-0.0574781244	-0.006539
H	-2.0540866365	 1.7309001299	 0.1434602294	 0.265731
H	-1.3433785185	 4.0283127496	 0.9566447537	 0.133271
H	 2.6784075658	 4.277929898	 0.6174012051	 0.113906
H	 1.6704850818	 4.1173402777	 2.0938179598	 0.121254
H	 1.770854379	 1.8852187121	-0.9737495867	 0.110455
