17
gdb 106983	2.92785	1.33526	1.04813	1.9605	68.9	-0.2435	-0.0337	0.2097	1159.7261	0.133642	-458.933884	-458.924918	-458.923973	-458.967911	32.421	
C	 0.0831520963	 1.6543096157	 0.0800653083	-0.413648
C	 0.0200193067	 0.1421609486	-0.0871390263	-0.134259
C	 0.7252673021	-0.4995918426	-1.2995555611	-0.064574
O	 2.108190433	-0.166982869	-1.1885189773	-0.278836
C	 1.6398971962	-1.3251122955	-0.4640847857	 0.286296
C	 2.3290955903	-2.6490849789	-0.6111938861	-0.208679
O	 1.6079444706	-3.6610424709	 0.0672032873	-0.413137
C	 0.9493777876	-0.7723433312	 0.7765026334	 0.367246
O	 0.9678943183	-1.0877552526	 1.9326433298	-0.319902
H	 1.0950262171	 2.018099987	-0.1137793594	 0.140473
H	-0.6049624818	 2.1563205735	-0.6074221516	 0.122833
H	-0.1949875398	 1.9351562263	 1.1001662036	 0.13608
H	-1.0043386871	-0.2333645892	 0.0304541329	 0.110205
H	 0.3326183492	-0.7313226972	-2.2823750522	 0.123885
H	 2.3811163944	-2.9356549036	-1.6659205397	 0.129795
H	 3.363184552	-2.5608329542	-0.2438659175	 0.113578
H	 1.5913258748	-3.4269405763	 1.0029543116	 0.302645
