14
gdb 30007	3.46227	1.75592	1.17369	5.256	68.77	-0.2163	0.0007	0.217	969.8771	0.103875	-432.890867	-432.883925	-432.882981	-432.922619	25.478	
C	 0.0055369724	 1.4751302465	 0.0369978717	-0.349122
N	-0.0128725173	 0.0270637968	 0.0504753812	-0.168039
C	-0.0957598388	-0.8329533577	-1.0498570704	-0.020617
N	-0.094204936	-2.1135643906	-0.747727422	-0.34205
C	-0.0060117258	-2.1085951452	 0.6217693669	 0.253808
C	 0.0427378951	-0.8354714668	 1.1003844675	 0.392598
O	 0.1285150662	-0.8229404618	 2.4442343592	-0.224945
C	 0.1265720298	-2.1985759064	 2.7181848554	 0.033657
N	 0.0502670677	-2.9864465947	 1.6975662954	-0.321212
H	 0.9310722284	 1.8583222092	 0.4771693487	 0.153315
H	-0.0568634539	 1.8138485623	-0.998552026	 0.152677
H	-0.8451903589	 1.8819668412	 0.5919380345	 0.153326
H	-0.1538517185	-0.4206871914	-2.0466612043	 0.133987
H	 0.1900662096	-2.4479886412	 3.7645804122	 0.152618
