15
gdb 35647	3.88699	0.99582	0.88806	3.1537	81.75	-0.245	-0.0436	0.2014	1279.084	0.112928	-379.648863	-379.640583	-379.639639	-379.682148	30.402	
C	 0.0814624079	-1.2233874787	 0.0492913292	-0.401066
C	 0.006104599	-0.021417448	 0.0452634258	 0.210508
C	-0.0257334074	 1.3912590924	 0.0492616654	 0.218783
C	-1.0981392087	 2.1814683392	-0.0736361622	-0.191602
C	-0.6919762475	 3.638216801	-0.0484644285	-0.141611
N	 0.7078865175	 3.5817346959	 0.3954526477	-0.317294
C	 1.2330781431	 2.2264511203	 0.1781608372	-0.266382
C	-0.8689518973	 4.2627868498	-1.3812623324	 0.251338
N	-0.9738962355	 4.7686266369	-2.4158117277	-0.321168
H	 0.1311514036	-2.2844002231	 0.0484819486	 0.202816
H	-2.1225392742	 1.8638454709	-0.2058791812	 0.129509
H	-1.2993944559	 4.2215420238	 0.658220707	 0.133686
H	 1.2778327863	 4.3011556323	-0.0290977205	 0.241475
H	 1.8480352085	 1.906502043	 1.0279340129	 0.129111
H	 1.8499853806	 2.1219446443	-0.7287222213	 0.121896
