12
gdb 21328	6.68145	1.30773	1.10107	0.6782	59.72	-0.2756	-0.0298	0.2458	972.4159	0.08476	-377.528708	-377.522036	-377.521092	-377.560612	23.313	
N	-0.4115747705	-0.7252498025	-1.1208462329	-0.297733
C	-0.1862429098	 0.1933538304	-0.4588700966	 0.281649
C	 0.104171694	 1.3563256527	 0.375795501	-0.462316
C	 1.4251224939	 1.9805866503	 0.0405564006	 0.438877
C	 2.4015285517	 1.7036810057	-0.8614374624	-0.317272
C	 3.3655026295	 2.7183701428	-0.6106306851	 0.035094
N	 3.0011386324	 3.5276200293	 0.3514224862	-0.131178
O	 1.7564985998	 3.0572283497	 0.7716868942	-0.212031
H	-0.6995591899	 2.0933492662	 0.2561633228	 0.186439
H	 0.0897105337	 1.0536515316	 1.4301592482	 0.186442
H	 2.4285898456	 0.907175665	-1.5853337223	 0.148812
H	 4.3139510195	 2.8839173486	-1.1017948037	 0.143217
