18
gdb 107305	2.72334	1.41647	1.12108	1.7826	72.34	-0.2422	0.0176	0.2598	1137.7837	0.147245	-439.088696	-439.080157	-439.079213	-439.121918	32.09	
C	-0.1856043072	 1.3452787705	 0.0365461146	-0.478687
C	-0.0750727404	-0.1309312558	-0.116134471	 0.381592
N	 0.1111943242	-0.7817796458	-1.1963896437	-0.296534
C	 0.189958322	-2.1737934647	-0.8264246859	-0.06165
C	 1.3321684986	-2.5575528576	 0.099679388	-0.361159
C	-0.011915204	-2.221594304	 0.6769042163	 0.374905
C	-0.8599051813	-3.1457745019	 1.5015722293	-0.155549
O	-2.2381867255	-2.8406242782	 1.4110404428	-0.414068
O	-0.1901773806	-0.8526947656	 1.0463507449	-0.291638
H	 0.6424561284	 1.7331115184	 0.6386179289	 0.146855
H	-0.1663330035	 1.8134510092	-0.9470886055	 0.156681
H	-1.1145446538	 1.6073685471	 0.5527122425	 0.142357
H	-0.2099392411	-2.894473205	-1.5292852849	 0.108182
H	 1.61218296	-3.6055810205	 0.1174209994	 0.121923
H	 2.1508186679	-1.8568562348	 0.2261365386	 0.122979
H	-0.7333684614	-4.1688217726	 1.1341492298	 0.116088
H	-0.5126345807	-3.1265547168	 2.5475091551	 0.099089
H	-2.3300340316	-1.9107399819	 1.6461283207	 0.288634
