17
gdb 62396	3.16171	1.52018	1.30592	4.0431	72.14	-0.2662	0.0257	0.292	998.3918	0.137792	-417.991594	-417.983896	-417.982951	-418.023477	30.084	
N	 0.0082171252	 1.5296196687	-0.0525401179	-0.570419
C	-0.0070592535	 0.0803073504	-0.0062694645	 0.134918
C	 0.9023421425	-0.5467511576	-0.9749068038	 0.247186
N	 1.6465457283	-0.9372162191	-1.7695817064	-0.341598
C	 0.0529170637	-0.6357822484	 1.3834478069	 0.053673
C	-1.0067488677	 0.100312436	 2.2208007902	-0.222153
C	-2.1518321561	 0.0782146616	 1.1600659567	-0.222129
C	-1.3823805382	-0.6631262414	 0.0535944856	 0.053645
O	-0.7083237387	-1.726784569	 0.7876920791	-0.289679
H	 0.9494551553	 1.8731788268	 0.1202476165	 0.246969
H	-0.2429090486	 1.8504724645	-0.9841031911	 0.246965
H	 0.9950646964	-0.9432389196	 1.8348893294	 0.098972
H	-1.2448060773	-0.4708957103	 3.1197976864	 0.11479
H	-0.7024024349	 1.1099519917	 2.4994818777	 0.117561
H	-3.0179780779	-0.505254619	 1.4771061338	 0.114816
H	-2.4738922489	 1.0757705856	 0.8587392487	 0.117521
H	-1.8976667297	-0.9983505909	-0.8453360071	 0.098962
