23
gdb 90222	2.45968	1.61059	1.4694	0.1021	88.25	-0.2124	0.0794	0.2918	1078.79	0.206516	-351.097635	-351.08932	-351.088376	-351.130196	34.026	
C	-0.731946314	 1.2394981581	-0.0358448648	-0.407614
C	 0.0381656516	-0.0730023724	-0.0671693481	-0.030986
C	 1.3036913333	-0.1454713065	-1.0090796449	-0.327455
C	 2.1601871056	-0.6077720064	 0.198856876	 0.313224
C	 2.9613033248	 0.438547638	 1.0225051623	-0.295959
C	 1.7138337899	 0.6223192419	 1.9664194306	-0.307892
C	 0.9544545672	-0.4546672345	 1.1419218241	 0.29633
C	 1.0657447752	-1.9487819238	 1.5561498049	-0.302104
C	 2.2679327568	-2.1170414971	 0.5523963822	-0.298001
H	-0.070769324	 2.0933695554	 0.1482363562	 0.112468
H	-1.233702445	 1.4177550034	-0.9937051853	 0.112131
H	-1.49742968	 1.2352719347	 0.7483330306	 0.113246
H	-0.6624485842	-0.8884655538	-0.2799800005	 0.066432
H	 1.2321741345	-0.8473612015	-1.8455891565	 0.093503
H	 1.601768773	 0.8286844614	-1.4122638795	 0.092669
H	 3.852812356	 0.0428750468	 1.5185896898	 0.095974
H	 3.2567115432	 1.3344396803	 0.4679538064	 0.095485
H	 1.8845523378	 0.3546881638	 3.0134277335	 0.096291
H	 1.2722115149	 1.6222499276	 1.9487595488	 0.099204
H	 1.3276668422	-2.1095277025	 2.6063382574	 0.095144
H	 0.1859033228	-2.5600220582	 1.3328421947	 0.095039
H	 2.0691959362	-2.793448132	-0.2844066085	 0.096514
H	 3.2146807321	-2.4199368327	 1.0095867808	 0.096358
