18
gdb 78949	2.48025	2.10541	1.54531	0.4817	72.77	-0.2333	0.0661	0.2993	913.9435	0.148567	-401.864044	-401.856845	-401.855901	-401.895223	29.327	
C	-0.0079763691	 1.4942560885	 0.0209399109	-0.521516
C	-0.0351091142	-0.0099593588	 0.0720310026	 0.278847
C	 0.6672376786	-0.8385180521	-1.0315255555	-0.117489
C	 0.3031666016	-2.2360988177	-0.6443869555	-0.064094
C	-0.541140653	-1.9869878525	 0.6220936009	-0.129321
C	 0.1533087795	-0.8286036287	 1.3820741908	 0.107755
O	 1.4273559806	-0.9946029946	 1.9398416896	-0.440473
C	-1.2488582586	-0.9361322923	-0.2938402024	-0.041714
N	-0.5842035916	-1.4630912681	-1.5752257846	-0.171234
H	 0.99219725	 1.8714552252	 0.2641654059	 0.126561
H	-0.274123751	 1.8666780801	-0.9741133342	 0.127199
H	-0.7091343175	 1.9264653044	 0.742622908	 0.119793
H	 1.4921289348	-0.5631035441	-1.6787621826	 0.094114
H	 0.8246958523	-3.1286539281	-0.968518522	 0.098551
H	-1.0309391413	-2.8224156862	 1.116447085	 0.076865
H	-0.4922709695	-0.4372792332	 2.1762047266	 0.089939
H	 1.9967079282	-1.3603820675	 1.2527188163	 0.284511
H	-2.3013245801	-0.6633851043	-0.2849040299	 0.081707
