11
gdb 130023	5.48244	1.38857	1.10823	6.5884	60.1	-0.2574	-0.0492	0.2082	963.2598	0.067638	-484.822034	-484.815706	-484.814762	-484.852613	24.275	
N	 0.0550731332	 1.2831490715	-0.0872596708	-0.582083
C	-0.0719244125	-0.050529115	-0.0354049722	 0.491334
N	-1.1708615632	-0.7485904424	-0.010480246	-0.406149
C	-0.6897186176	-2.0474079989	-0.0074861798	 0.360525
N	-1.1021393619	-3.2814124703	 0.011737209	-0.21871
O	 0.089528034	-4.0168789476	 0.0046243054	-0.17211
N	 1.2381808144	-3.2099576507	-0.0187760762	-0.226797
C	 0.7210933246	-2.031596516	-0.0260529425	 0.405637
O	 1.146196114	-0.7410946093	-0.0445904155	-0.238589
H	 0.9527448976	 1.6966436526	 0.0983615036	 0.290702
H	-0.7730213427	 1.8340509861	 0.0638384049	 0.296239
