14
gdb 28406	3.27712	1.42056	0.99099	2.537	72.03	-0.1904	-0.0304	0.16	1095.1535	0.101454	-473.866269	-473.858725	-473.857781	-473.898069	29.331	
O	 0.0801855012	 1.3229674919	 0.0071180702	-0.408156
C	-0.0530138462	-0.0124632534	 0.0012252745	 0.461085
C	-1.2221459754	-0.6778536205	 0.0044384716	-0.287403
C	-1.1891090526	-2.1131556899	-0.0028498281	-0.181685
C	-0.0034873955	-2.7670824286	-0.0126996994	 0.286777
O	 0.1229286775	-4.1115514334	-0.0200638207	-0.431887
C	 1.2438551529	-2.024640785	-0.0160115386	 0.325266
N	 2.3637669861	-2.6332886971	-0.0251762846	-0.581177
O	 1.148523863	-0.6454773266	-0.0086130342	-0.267693
H	 1.0221518433	 1.5328163312	 0.0028583619	 0.310374
H	-2.1496088804	-0.1246098022	 0.0123440824	 0.119706
H	-2.1135971928	-2.6779046476	-0.0004964739	 0.119802
H	 1.0821586344	-4.2788231472	-0.0263013368	 0.307277
H	 3.1620493646	-2.0033098116	-0.0264674742	 0.227712
