19
gdb 60846	2.44375	1.14719	1.11131	1.7442	72.15	-0.2535	-0.0376	0.2159	1220.4998	0.15594	-460.15065	-460.140822	-460.139878	-460.185481	36.175	
C	 0.850130908	 1.2787011031	-0.8593704767	-0.473614
C	 0.1903334698	 0.054700109	-0.2536262938	 0.271209
C	 1.0929592612	-1.0172577843	 0.3318657549	-0.37185
C	 0.2491275206	-0.1533738141	 1.2359255617	 0.082184
O	 0.8346933289	 0.8615944676	 1.9996151049	-0.428874
C	-1.0807720875	-0.4231291586	-0.9750504594	-0.022713
O	-1.4621664229	-1.7163351202	-0.5900532348	-0.433975
C	-2.2317836828	 0.5339041974	-0.7093994055	 0.147941
O	-3.2750335244	 0.1457236395	-0.2388745146	-0.268119
H	 1.7105069688	 1.580898355	-0.2606311547	 0.139963
H	 1.1909189389	 1.0700381427	-1.8799514355	 0.117269
H	 0.1736405356	 2.1393651385	-0.9018169036	 0.11761
H	 0.8062399224	-2.0541156738	 0.2093990615	 0.135533
H	 2.1577966118	-0.8097831422	 0.3041031949	 0.10926
H	-0.6153264264	-0.6340023745	 1.6932678405	 0.093252
H	 1.3054550633	 0.446402554	 2.7296358077	 0.289378
H	-0.8805346095	-0.3907845155	-2.0626277266	 0.091899
H	-2.3820238755	-1.6346047933	-0.28842504	 0.296233
H	-2.0726667903	 1.5994823297	-0.9600784007	 0.107414
