20
gdb 115320	2.52446	1.41214	1.05103	2.7152	77.31	-0.2276	0.0234	0.251	1213.1246	0.171213	-440.32194	-440.312463	-440.311519	-440.356498	33.783	
C	 0.2492517147	 1.0350263143	 0.4136488662	-0.243842
O	-0.0646447223	-0.2799354972	-0.0161902769	-0.259117
C	-1.454408702	-0.522645512	-0.1658300211	 0.013814
C	-1.6437532066	-1.892673305	-0.8153986516	-0.254422
C	-1.7480628247	-2.8681010057	 0.3747992518	-0.163991
N	-2.241657737	-2.0275090691	 1.4526364038	-0.067075
C	-2.6292697377	-2.5614928387	 2.7366135806	-0.345069
C	-2.0980287	-0.6873311799	 1.2272878284	 0.400054
O	-2.369651737	 0.2038632253	 2.0107939063	-0.403833
H	 1.3389508476	 1.0935080605	 0.4679360474	 0.121467
H	-0.1137514001	 1.782828427	-0.3082750783	 0.103794
H	-0.1835135618	 1.260545997	 1.3941625996	 0.143408
H	-1.9304618248	 0.2992350903	-0.7170633795	 0.081738
H	-2.5759295537	-1.9026741406	-1.3867579395	 0.114619
H	-0.8189460798	-2.1297575006	-1.4887391817	 0.122161
H	-2.4403070159	-3.6951575536	 0.1800670027	 0.108284
H	-0.7732440513	-3.3047322923	 0.6344692988	 0.115496
H	-1.7978623213	-3.0969983985	 3.2138051908	 0.124359
H	-2.9234588322	-1.7217877561	 3.3686682679	 0.164795
H	-3.4719192841	-3.255400085	 2.6349497144	 0.123359
