18
gdb 64674	3.10635	1.03054	0.92401	3.2531	76.19	-0.2548	-0.0341	0.2207	1291.3415	0.145413	-401.978983	-401.969875	-401.968931	-402.013607	33.593	
C	-0.2688300559	 1.7329155292	 0.1229833552	-0.46555
C	 0.0407670763	 0.2411219741	 0.0536469924	 0.315476
C	-1.2324401077	-0.5942791307	-0.2062546984	-0.395079
C	-1.8643109154	-0.2840552966	-1.4880856681	 0.271154
N	-2.3422678043	-0.0251542971	-2.5079668893	-0.309576
C	 1.2155119587	-0.1653830902	-0.903582834	-0.391167
C	 1.8638075072	-0.9064284284	 0.2740288221	 0.413718
O	 2.7795545759	-1.6682402007	 0.3733500575	-0.28213
C	 0.8398988979	-0.3410123372	 1.2715895712	-0.404213
H	 0.6424904545	 2.3083653451	 0.3131065474	 0.121294
H	-0.7044465151	 2.0915210017	-0.8149497586	 0.148457
H	-0.9773321127	 1.9527958626	 0.929597432	 0.122528
H	-0.994337639	-1.6646388531	-0.1928141487	 0.153456
H	-1.9616998271	-0.4232123207	 0.5944694035	 0.15373
H	 0.9692215722	-0.7697320902	-1.7810894715	 0.143879
H	 1.819801372	 0.6854206506	-1.2351413783	 0.138213
H	 1.2761642618	 0.4322635202	 1.912475129	 0.13594
H	 0.3358592408	-1.0724959386	 1.9102079366	 0.12987
