17
gdb 50979	2.96873	0.79927	0.6682	2.2095	71.04	-0.2623	-0.0525	0.2098	1598.9032	0.130581	-458.98083	-458.970469	-458.969525	-459.019124	33.634	
O	-0.0681270234	-0.1288660002	 0.133994509	-0.227623
C	-0.0397768299	 1.070386165	 0.0553219421	 0.159823
C	 1.2321736855	 1.8926745501	-0.0475376973	-0.301098
C	 1.2013049763	 2.9066066083	-1.2127689843	-0.103416
C	 2.4238060213	 3.8520796947	-1.141898812	-0.303222
C	 2.3299561487	 5.0237032201	-2.101279206	 0.156014
O	 2.5500686345	 6.1640029535	-1.7882099524	-0.231317
C	 1.2019288428	 2.1580279977	-2.5397315947	 0.167327
O	 0.3539045809	 2.2536890237	-3.3859064434	-0.237666
H	-0.9773255944	 1.6725232361	 0.06462662	 0.087387
H	 1.3367900486	 2.4514177299	 0.8927448984	 0.136981
H	 2.0850486816	 1.2107480674	-0.1274757798	 0.131794
H	 0.2751666483	 3.4910427406	-1.1697298018	 0.114392
H	 2.5557854128	 4.24731286	-0.1308858639	 0.133946
H	 3.3332132089	 3.2852068643	-1.3941767767	 0.132598
H	 2.041566835	 4.7595336634	-3.1434868733	 0.097002
H	 2.0842015827	 1.4876463853	-2.6752758939	 0.087077
