16
gdb 49669	2.80301	1.3421	1.31098	3.246	69.7	-0.2508	-0.0305	0.2203	1036.2436	0.125453	-437.883332	-437.875835	-437.874891	-437.915788	27.889	
O	-0.2217186693	 0.1533150681	 0.466361331	-0.268377
C	-0.0893916809	 1.2581281275	-0.0030613639	 0.157749
C	 1.2161152649	 1.9612393086	-0.058776478	-0.159423
C	 1.57478015	 2.9058436726	-1.2181418922	-0.123746
C	 0.5729900222	 3.2485499454	-2.3132752511	-0.186442
N	-0.536947607	 4.1056622727	-1.9176666589	-0.25439
C	-0.6326282222	 4.5028890922	-0.7253914509	 0.120792
O	 0.1595047624	 4.2322568764	 0.3504755955	-0.215559
C	 1.3193029744	 3.4716635329	 0.1301488536	 0.081508
H	-0.9571515724	 1.8047728179	-0.4262382948	 0.094457
H	 2.0297306164	 1.3793802147	 0.3610644894	 0.1159
H	 2.6093210963	 2.847674379	-1.539439437	 0.113894
H	 1.1091678887	 3.7686427289	-3.1154857578	 0.130721
H	 0.1560880703	 2.3450732324	-2.7747129055	 0.129188
H	-1.4468453804	 5.1523183123	-0.4129048715	 0.13607
H	 2.1285408966	 3.8412617884	 0.748623372	 0.127656
