19
gdb 68874	2.41007	1.89955	1.53153	3.2134	74.	-0.2354	0.0753	0.3108	970.4053	0.158415	-422.977109	-422.969181	-422.968237	-423.008971	31.584	
C	 0.0075707635	 1.4829038201	-0.0363389377	-0.500893
C	-0.0465326719	-0.0074430481	 0.0953551146	 0.348727
O	 1.1295262466	-0.7706630299	-0.2120469468	-0.316415
C	 0.5652351899	-0.8827030921	 1.1029282349	 0.348742
C	 1.4163504465	-0.5326210874	 2.2837976989	-0.500893
C	-0.5459973779	-1.9817535989	 1.1700454932	-0.016473
C	-1.8255985966	-1.1046396768	 1.2920268953	-0.241289
C	-1.3562789602	-0.8224572432	-0.1645723542	-0.016463
O	-0.8781827335	-2.1898913457	-0.2258506977	-0.259111
H	 0.9184036791	 1.8855631023	 0.4143801368	 0.132044
H	-0.004380426	 1.7783572824	-1.0914364546	 0.13432
H	-0.8569008648	 1.9484878402	 0.4498336759	 0.123081
H	 1.952824977	 0.4053841735	 2.1187453736	 0.132035
H	 0.8054128034	-0.4301354842	 3.1875079511	 0.123079
H	 2.159060899	-1.3162536907	 2.4707939449	 0.134329
H	-0.368711909	-2.8953909211	 1.7373367399	 0.082885
H	-2.7415966278	-1.6959662449	 1.3344903967	 0.112653
H	-1.8403562369	-0.282914928	 2.0147638172	 0.096753
H	-2.0188741503	-0.5344390374	-0.9806586219	 0.082887
