18
gdb 12971	2.37333	2.24659	1.76596	1.8105	67.39	-0.2299	0.0686	0.2985	873.663	0.152405	-384.899279	-384.891155	-384.890211	-384.931135	31.028	
C	-0.0939137378	 1.565100669	 0.0098872833	-0.425105
C	 0.1718697171	 0.073261152	 0.0390016991	 0.107682
O	 1.3294179429	-0.3603907322	-0.753544413	-0.329961
C	 1.777887222	-1.1860179811	 0.3330026192	-0.020385
C	 2.2023809391	-0.2915634348	 1.4430217756	 0.073029
O	 2.7884521402	 0.9486212205	 1.1936234838	-0.434672
C	 0.7206337052	-0.6226330031	 1.2875444368	 0.194844
C	-0.1196210625	-1.2547050108	 2.3577422092	-0.502738
H	 0.7332812075	 2.1292700211	 0.4428293152	 0.139446
H	-0.2628941984	 1.8998663081	-1.0189485821	 0.125449
H	-1.0003485482	 1.7858939343	 0.5844677638	 0.120801
H	-0.7049167695	-0.4731895625	-0.3362002034	 0.082741
H	 2.128975272	-2.1848810856	 0.0955419064	 0.101054
H	 2.654908105	-0.7870712423	 2.2987985584	 0.10379
H	 2.7497432409	 1.064015233	 0.2340134607	 0.293045
H	-0.5931764206	-0.494259648	 2.9902283201	 0.127723
H	-0.9145779166	-1.8768010929	 1.9299506655	 0.119653
H	 0.4841125216	-1.8918678248	 3.0118506914	 0.123604
