20
gdb 79531	3.00137	1.7457	1.66238	1.6686	76.7	-0.2178	0.0809	0.2988	931.1975	0.174602	-403.13769	-403.130951	-403.130007	-403.16836	28.637	
C	-0.2031799488	 1.4680527726	 0.0356411807	-0.335337
N	 0.0465214979	 0.0357168646	 0.0341914622	-0.04908
C	 0.8919054065	-0.4668661674	-1.0282270093	-0.044275
C	 2.4081948621	-0.342761121	-0.605360246	 0.087761
C	 2.286317857	-0.0341450755	 0.897742327	-0.240969
C	 0.8279942763	-0.5191009877	 1.1619369061	-0.02334
C	 0.7605111444	-2.022301574	 0.8000699055	-0.219505
C	 1.1679582714	-1.9591819098	-0.6869484176	 0.083538
O	 2.5976458098	-1.7648855195	-0.7988501626	-0.303728
H	 0.7014824869	 2.100263103	 0.031214358	 0.098796
H	-0.7931797053	 1.729516871	-0.8488573194	 0.121996
H	-0.7933278162	 1.7318258359	 0.9189910954	 0.120695
H	 0.5971540843	-0.1906873456	-2.0384175373	 0.075884
H	 3.130297668	 0.2523205307	-1.1670160316	 0.072792
H	 3.0400405906	-0.5763230155	 1.4731680177	 0.109518
H	 2.3949047314	 1.0349590625	 1.1048409278	 0.097383
H	 0.4111994113	-0.2501420028	 2.1337245717	 0.065344
H	 1.4475369437	-2.6524577045	 1.3692619226	 0.103319
H	-0.2621922523	-2.389750152	 0.9192987297	 0.102288
H	 0.8064939511	-2.771633005	-1.3193599106	 0.07692
