21
gdb 111459	2.41843	1.54963	1.05812	1.032	85.22	-0.2188	0.0197	0.2385	1202.8192	0.182118	-387.078996	-387.069885	-387.068941	-387.11315	34.198	
C	-0.0148106883	 1.4499989093	-0.1670543952	-0.23538
O	 0.0095226616	 0.0681042441	 0.1044501012	-0.248534
C	-1.267266776	-0.5723092342	 0.0801304699	 0.02226
C	-1.2008128516	-1.9260171599	-0.6194561345	-0.06091
C	-0.2749184442	-2.9690484459	-0.0440580825	-0.27201
C	-1.7422605448	-2.9623392567	 0.3395935181	-0.077323
C	-2.0550978023	-2.2094588052	 1.5906355508	-0.190128
C	-1.7724485206	-0.9078597523	 1.4855280417	 0.310304
C	-1.8469160136	 0.1359660898	 2.5529381414	-0.497115
H	 1.0221831872	 1.79678597	-0.1585391356	 0.124512
H	-0.448616916	 1.6666764905	-1.1559523786	 0.103315
H	-0.5783420025	 2.0216417717	 0.5855916702	 0.102401
H	-1.9803258426	 0.0892932276	-0.4382362378	 0.062993
H	-1.4209901257	-1.9691675313	-1.6789572486	 0.081099
H	 0.0659045719	-3.7405084818	-0.727081016	 0.105645
H	 0.4491092882	-2.6659408579	 0.7037253722	 0.122193
H	-2.3821752064	-3.772564418	 0.0090805771	 0.084172
H	-2.4163203737	-2.6934669835	 2.492526223	 0.087955
H	-2.2013500418	-0.2819772305	 3.49919398	 0.120186
H	-0.8612229485	 0.5839532512	 2.7266228348	 0.136656
H	-2.5214016602	 0.9547672027	 2.2691188383	 0.11771
