19
gdb 82341	2.26526	1.6963	1.32857	5.443	78.37	-0.2478	0.0437	0.2915	1047.1257	0.161438	-382.07813	-382.070001	-382.069056	-382.110693	31.438	
C	 0.070402028	 1.587465945	-0.0969247829	-0.411774
C	 0.1001658537	 0.0616976074	-0.0149557052	 0.014195
C	 0.7032869696	-0.6314423597	-1.226677327	-0.033108
N	 2.1790229115	-0.5923027696	-1.2317415679	-0.325876
C	 1.4780805562	-1.8161996527	-0.7935408392	-0.028426
C	 1.4028395325	-1.9376625682	 0.7159113708	-0.229763
C	 0.9118639293	-0.5333538949	 1.1924918577	-0.188444
C	 2.0215282669	 0.3153499933	 1.6277455387	 0.312994
N	 2.874007793	 0.9823242585	 2.033913127	-0.355088
H	 1.0757239119	 1.9858451443	-0.2546855574	 0.15586
H	-0.5639956364	 1.9111681917	-0.9284121209	 0.110176
H	-0.3303905709	 2.0297872588	 0.8203311952	 0.121466
H	-0.9272927595	-0.310661814	 0.09132487	 0.082946
H	 0.168203705	-0.6073567454	-2.1710485018	 0.087463
H	 2.5266356517	-0.7137197629	-2.1788661446	 0.235796
H	 1.5458018673	-2.7124332642	-1.4015216584	 0.090051
H	 0.6595981114	-2.6955551723	 0.9859046004	 0.108143
H	 2.35310089	-2.2163696839	 1.1777436389	 0.13009
H	 0.2537208085	-0.6360653113	 2.0608380166	 0.1233
