20
gdb 6228	2.13071	2.08087	1.59647	2.0718	71.5	-0.2293	0.0656	0.295	961.2033	0.173201	-386.126735	-386.116773	-386.115829	-386.160164	37.142	
C	-0.0346785071	 1.5220594885	-0.0395312334	-0.450808
C	 0.0141097705	 0.0056640418	 0.0304262111	 0.248219
C	-1.2274081889	-0.6654709904	-0.5319233569	-0.442807
C	 1.3433757625	-0.6895577007	-0.1967218871	-0.030404
O	 2.4467149349	 0.1161277224	-0.5062629373	-0.415866
C	 0.7263531071	-0.6690456216	 1.1928713769	 0.296447
C	 1.3743004977	 0.1194679997	 2.3086659675	-0.455962
O	 0.1108187096	-1.8583965899	 1.6308634744	-0.455586
H	 0.9250019326	 1.9831492298	 0.1944972178	 0.130798
H	-0.3083802825	 1.8379761445	-1.0523646581	 0.115828
H	-0.7920484131	 1.9191409377	 0.6457622933	 0.111474
H	-1.3537186624	-0.4007469374	-1.5879873061	 0.108802
H	-1.1769123159	-1.7512259284	-0.445414662	 0.128126
H	-2.123611274	-0.3329063797	 0.0044327411	 0.113967
H	 1.3047501975	-1.6446010467	-0.7237714648	 0.080254
H	 3.231464222	-0.2872482657	-0.1207731158	 0.28662
H	 1.9339497674	 0.9765860301	 1.9316840796	 0.130801
H	 0.6244300288	 0.4731351536	 3.0231515401	 0.12713
H	 2.0785334647	-0.5188656421	 2.8591159663	 0.097284
H	 0.8016238486	-2.4429528155	 1.9626573733	 0.275684
