17
gdb 24435	3.46168	1.62821	1.15194	3.2681	74.44	-0.1739	0.0419	0.2158	1024.2295	0.141637	-414.21597	-414.209009	-414.208065	-414.247131	28.121	
C	-0.0354290564	 1.4197063137	 0.1180922393	-0.178212
C	 1.4156583445	 1.961841692	 0.0288990722	-0.166606
N	 2.3171012026	 1.3999332792	 1.0377478814	-0.392243
C	 1.9922233589	 0.0714245434	 1.3455191695	 0.284841
C	 0.9311003261	-0.5951122233	 0.7877791872	 0.255582
N	 0.9800460026	-1.8673701311	 1.330528402	-0.333844
C	 2.0567620575	-1.8921972076	 2.1710465664	-0.00774
N	 2.688193081	-0.7374783175	 2.207831572	-0.332559
N	-0.1052400367	-0.0481278268	 0.0103935803	-0.399178
H	-0.4726529142	 1.7072931616	 1.0814233307	 0.114198
H	-0.6486967972	 1.8587108367	-0.6738306504	 0.102986
H	 1.8101943277	 1.718167272	-0.9675660735	 0.104461
H	 1.4166330917	 3.0520517497	 0.1176336466	 0.104398
H	 2.4147359424	 1.9775424458	 1.863507945	 0.23294
H	 0.3351564771	-2.6167448369	 1.1464247302	 0.260902
H	 2.3424859013	-2.7824611861	 2.7102810129	 0.123327
H	-0.0486512789	-0.330892095	-0.9647127618	 0.226747
