16
gdb 79227	2.733	1.63174	1.297	2.4807	75.13	-0.2367	0.0248	0.2615	993.4805	0.123865	-400.641997	-400.634442	-400.633498	-400.673713	30.05	
O	-0.1212168244	 1.4699168862	-0.1003435984	-0.431736
C	-0.0217047278	 0.073516817	-0.0861221065	 0.101258
C	-1.3231562893	-0.7022263777	-0.0874066187	-0.081978
C	-0.7439937756	-1.7641966004	-0.9482114198	-0.10805
N	-1.8130384469	-0.8946491299	-1.4934658973	-0.151078
C	-0.8065053837	-0.1887140688	-2.3504991157	-0.181203
C	 0.3226357848	-0.6892490973	-1.4216415535	 0.163255
C	 1.678600581	-0.8754894845	-1.8369489818	 0.001848
C	 2.8225457507	-1.0216180992	-2.1823339608	-0.330697
H	 0.7656016938	 1.8407179228	-0.0404464474	 0.291943
H	 0.6318742516	-0.2891793853	 0.7174135469	 0.088184
H	-2.0610097103	-0.7782790417	 0.6993451985	 0.108168
H	-0.7601067144	-2.8443180537	-0.9104002895	 0.109646
H	-0.7878040872	-0.6657333388	-3.3319570159	 0.117887
H	-0.9368329282	 0.8931987018	-2.4367222061	 0.119097
H	 3.8290744857	-1.1556190006	-2.4931048742	 0.183457
