17
gdb 100565	2.32955	1.2676	0.91433	2.8027	65.49	-0.2612	-0.0522	0.209	1254.4217	0.133769	-496.075974	-496.06679	-496.065846	-496.110579	32.997	
O	 0.9315023095	 0.3544858251	-0.1579535592	-0.418269
C	 0.1662878943	-0.7912027609	 0.1216888704	-0.076749
C	-1.3376727046	-0.4320026261	 0.0918675576	 0.021734
O	-1.596299389	 0.2880898702	-1.0919659449	-0.447802
C	-2.2610774298	-1.6449631456	 0.1471633807	 0.317462
O	-2.9581827573	-1.9115044589	-0.8112962965	-0.330865
C	-2.3552045642	-2.4775790502	 1.390834487	-0.008009
C	-1.2259112601	-3.2955651576	 1.8793646146	-0.17334
O	-1.5916521103	-2.084386978	 2.5290517858	-0.211513
H	 0.5147531019	 0.7596668274	-0.9302086678	 0.295079
H	 0.3577908536	-1.5940405857	-0.6111356543	 0.083798
H	 0.4522122685	-1.1417221568	 1.116377076	 0.123528
H	-1.5505207285	 0.203837053	 0.9629383432	 0.117422
H	-2.1859672522	-0.2772216054	-1.6180726282	 0.297759
H	-3.3640689552	-2.8346945542	 1.5931287411	 0.132319
H	-1.4517899651	-4.2104543293	 2.423511061	 0.140109
H	-0.2741390115	-3.284088057	 1.3536059537	 0.137336
