18
gdb 12644	2.80584	2.09145	1.41539	2.0911	69.38	-0.2436	0.0179	0.2614	921.5089	0.153964	-384.955623	-384.947634	-384.94669	-384.987583	30.752	
C	-0.0175808511	 1.4859330878	 0.0397380136	-0.495162
C	 0.0111177241	-0.0058543905	-0.0180467782	 0.293511
C	 0.0031022013	-0.8031965642	-1.0904954585	-0.19411
C	 0.0036650605	-2.2713381856	-0.7161280451	-0.285694
C	 0.4636627956	-2.2346429472	 0.7536473495	 0.081795
O	 1.8879921537	-2.321659749	 0.8648273408	-0.444119
C	 0.003781371	-0.83833087	 1.2611013111	 0.044088
O	 0.8186056592	-0.3412010454	 2.2999884596	-0.438777
H	 0.790959461	 1.856521768	 0.6786092626	 0.139827
H	 0.0745545417	 1.9360336215	-0.9522615439	 0.117854
H	-0.9526911564	 1.8416623006	 0.4918241613	 0.128924
H	-0.0436616829	-0.4609672201	-2.1194052225	 0.089084
H	-1.0003740636	-2.7095433476	-0.8026826314	 0.113565
H	 0.6694637461	-2.8933604233	-1.3251726311	 0.107866
H	 0.0782603224	-3.0560422202	 1.360936736	 0.089445
H	 2.2587634583	-1.7634956431	 0.1696297222	 0.286058
H	-1.0221203225	-0.8944498414	 1.6557516573	 0.083677
H	 1.6589097015	-0.8138873803	 2.2031722167	 0.282169
