19
gdb 90752	2.72075	1.49457	1.25033	3.3437	74.35	-0.2281	-0.011	0.217	1060.0506	0.160198	-423.045393	-423.037332	-423.036388	-423.078542	31.224	
O	 0.2806964741	 1.1892089942	-0.5731357356	-0.426195
C	 0.0975449004	-0.1163729837	-0.0631395839	 0.116095
C	 0.2293435328	-0.2794440419	 1.4796875303	-0.270965
C	-1.2951686134	-0.6232813972	 1.5670279346	-0.123179
C	-1.4089392679	-0.5057590677	 0.0175038172	-0.043041
C	-2.4335023649	 0.6119214926	-0.2781387112	-0.225484
C	-2.4787756167	 1.4769940887	 0.992030931	-0.317523
C	-2.1306985217	 0.5212228218	 2.1372138515	 0.397847
O	-2.4569072529	 0.6423780517	 3.2907497633	-0.323358
H	 1.2152998967	 1.41039176	-0.509156216	 0.287027
H	 0.7008545697	-0.8393390268	-0.6282480084	 0.068611
H	 0.8824933594	-1.0953604841	 1.7969062592	 0.108709
H	 0.5289608756	 0.633009847	 2.0032634719	 0.109679
H	-1.5360054852	-1.5670787647	 2.0563659335	 0.089461
H	-1.6390363622	-1.4243606376	-0.5244728961	 0.072456
H	-2.1650325825	 1.1826257981	-1.168822645	 0.120837
H	-3.413628193	 0.1555452364	-0.454962008	 0.100342
H	-1.6927167533	 2.2415641658	 0.9540601784	 0.139157
H	-3.4283708649	 1.9817314975	 1.1793001133	 0.119524
