16
gdb 69392	3.32309	1.34877	1.05412	3.7238	74.31	-0.23	-0.0109	0.2191	1112.2949	0.124122	-434.02682	-434.018508	-434.017563	-434.059799	31.01	
O	 0.1892686879	 1.3351064203	-0.3373141421	-0.442551
C	 0.0440213613	 0.0158071648	-0.0102032808	 0.34215
C	-0.3215455346	-0.9954368505	-1.0694946991	-0.327323
C	-1.1923587623	-0.8916663731	 0.1590583786	-0.126107
N	-0.5257272611	-1.5180021499	 1.3013485523	-0.075675
C	-0.6401024186	-2.7840925635	 1.8201662181	 0.057465
N	 0.2002180968	-3.2324518559	 2.6683743685	-0.452615
C	 0.6199506254	-0.6724271521	 1.2063006848	 0.295862
N	 1.6645063179	-0.505118403	 1.8841526656	-0.55121
H	 0.2708297645	 1.8392869368	 0.4811044854	 0.302972
H	-0.7342822257	-0.5291432237	-1.9601805921	 0.136794
H	 0.2834897367	-1.8797686021	-1.2487208027	 0.130207
H	-2.2458256696	-0.6488869613	 0.181353175	 0.126749
H	-1.5291130372	-3.3104120671	 1.4506878548	 0.09932
H	-0.0519229172	-4.1748574963	 2.9565818757	 0.228734
H	 1.6992564858	-1.1804627035	 2.6506057479	 0.255229
