12
gdb 214	5.71227	5.71175	2.85601	0.	57.28	-0.2475	0.0029	0.2503	456.6788	0.100175	-232.164586	-232.160188	-232.159244	-232.192047	17.214	
C	-0.0263621144	 1.3835086344	 0.0103870267	-0.094019
C	 1.1708019283	 2.0965810056	 0.0023045827	-0.093863
C	 2.3868915311	 1.4163752988	-0.0131380362	-0.093839
C	 2.4057296503	 0.0230978461	-0.0205116117	-0.09402
C	 1.2085609122	-0.6899726756	-0.0124063764	-0.093863
C	-0.0075247651	-0.0097718365	 0.0030452239	-0.093841
H	-0.9733414726	 1.9132329519	 0.0224498095	 0.093897
H	 1.1560436477	 3.1816075197	 0.0080224004	 0.093909
H	 3.3191394577	 1.9717268815	-0.0194567412	 0.093916
H	 3.3527113702	-0.5066219591	-0.0325112361	 0.093898
H	 1.223326423	-1.7750001478	-0.0181456652	 0.093909
H	-0.9397757183	-0.565118069	 0.0093265237	 0.093916
