18
gdb 128845	5.80743	0.68048	0.65815	0.9841	74.49	-0.2557	-0.0044	0.2514	1704.8493	0.148974	-435.260884	-435.251922	-435.250978	-435.296679	30.833	
C	-0.1702935115	 1.3634556276	 0.0277283003	-0.229432
O	 0.057495929	-0.0234972237	-0.0401893604	-0.228696
C	 0.6152541201	-0.5462029357	 1.1432196424	-0.044217
C	 0.8347258477	-2.0475112576	 0.9417622582	-0.320611
C	 1.407544488	-2.7047627254	 2.1569735843	 0.293099
N	 2.7120266492	-2.646174227	 2.4499431471	-0.264784
N	 2.8010167156	-3.3128771452	 3.5929282141	-0.06915
N	 1.6756681912	-3.8112659018	 4.0825485007	-0.193907
C	 0.769654122	-3.4317101186	 3.180702596	-0.128463
H	 0.7633539363	 1.9237243398	 0.1949950786	 0.105169
H	-0.6006060429	 1.672171121	-0.928077185	 0.127302
H	-0.8737911946	 1.6239873682	 0.834749149	 0.103292
H	 1.574944133	-0.0562959169	 1.3762611328	 0.101308
H	-0.0562161475	-0.370308422	 2.0014950309	 0.086458
H	-0.1232883642	-2.5100951296	 0.6851130787	 0.117137
H	 1.5049555828	-2.1888487514	 0.0888405326	 0.129928
H	 3.6844074578	-3.4483685615	 4.0572775937	 0.292633
H	-0.270599442	-3.6923423901	 3.296262986	 0.122933
