21
gdb 95494	2.04652	1.51957	0.91348	1.5357	88.84	-0.2139	-0.024	0.1899	1310.8505	0.1833	-387.107329	-387.098288	-387.097343	-387.141268	34.856	
C	 0.0227163362	 1.5900006896	-0.0582960631	-0.480114
C	-0.0204636581	 0.0776018602	 0.0018917615	 0.296038
C	-1.2086282289	-0.5479023187	 0.0129093251	-0.204333
C	-1.5134873371	-2.0231161975	 0.0653434625	 0.075818
O	-2.847842926	-2.254633957	-0.3940514727	-0.429467
C	-0.5235490617	-2.9078055799	-0.707557644	-0.229874
C	 0.852943202	-3.0718451211	-0.0608136754	-0.268627
C	 1.6848117782	-1.8323053535	 0.0986205158	-0.070981
C	 1.3082674257	-0.5460923456	 0.0964161838	-0.103359
H	 0.5895228676	 1.9319781279	-0.9332414157	 0.124416
H	-0.9786619012	 2.0230527204	-0.1101965899	 0.11951
H	 0.5285365811	 2.0043966478	 0.8228451687	 0.125361
H	-2.1086765287	 0.0634547631	-0.0102770441	 0.083599
H	-1.5367969179	-2.3565628293	 1.1126005212	 0.098571
H	-2.8967402362	-1.93201394	-1.3010925981	 0.274231
H	-0.9882585248	-3.8941234296	-0.8061123232	 0.104812
H	-0.4060210716	-2.503016962	-1.72102051	 0.094334
H	 0.7490078313	-3.5573746667	 0.9218677865	 0.115746
H	 1.4283788728	-3.7882482294	-0.6621579355	 0.108687
H	 2.7480512474	-2.0242039156	 0.2332594653	 0.088385
H	 2.11266986	 0.1794203368	 0.2088912514	 0.077246
