16
gdb 19648	5.07532	1.79404	1.71913	1.1114	67.46	-0.2162	0.0833	0.2996	811.2209	0.129543	-346.472916	-346.466216	-346.465272	-346.503709	26.167	
C	 0.1329193214	 1.3293557547	-0.1334710101	-0.256869
O	-0.1597905503	-0.0287826193	 0.1683186611	-0.27503
C	 0.5734120115	-0.5276266112	 1.1999441262	 0.443918
C	 0.5477783541	-0.257087872	 2.7521244593	-0.189633
C	 2.0143516207	-0.6592687807	 2.8272041018	-0.077594
C	 0.9282197995	-1.7134723456	 2.9827571278	-0.078118
C	 0.9461547843	-1.9676411864	 1.4467154986	-0.1764
C	 2.05150035	-0.9077188414	 1.2911399211	-0.188299
H	 1.1889030422	 1.4557495611	-0.4056853808	 0.115195
H	-0.4991175128	 1.6098589697	-0.9784035111	 0.128468
H	-0.092255521	 1.985776063	 0.7177946568	 0.116562
H	-0.0187800514	 0.4107637791	 3.3873247604	 0.088251
H	 2.7727557002	-0.3336475458	 3.5271534424	 0.084844
H	 0.6936931308	-2.3554161577	 3.8218403049	 0.085703
H	 0.7529894643	-2.8414031621	 0.8398002392	 0.091792
H	 2.8411416065	-0.8601857054	 0.5537721526	 0.087211
