18
gdb 76126	3.13187	1.30963	1.1046	5.3153	76.3	-0.2683	0.0247	0.293	1140.84	0.146108	-401.937277	-401.928381	-401.927437	-401.970685	32.94	
C	-0.1498391534	 1.5588152421	 0.1031869067	-0.415792
C	-0.0101198153	 0.0497744819	-0.0113581906	-0.068876
C	 1.1277847556	-0.5495007714	-0.9501319425	-0.206545
C	 1.985181828	 0.3744444324	-1.6746038324	 0.297098
N	 2.6574781325	 1.1140726983	-2.2556314172	-0.334734
C	 1.7250319126	-1.2253029094	 0.3017151592	-0.055911
O	 1.9999046157	-0.1989663535	 1.2513613312	-0.270608
C	 0.6546225769	-0.699981624	 1.1662376263	 0.417787
C	 0.0108495455	-1.2234669282	 2.4074645375	-0.505803
H	 0.7934329336	 2.0085840073	 0.4216694315	 0.151396
H	-0.4328527701	 2.0023186725	-0.8560194227	 0.131832
H	-0.9230750022	 1.8175736077	 0.834218014	 0.117451
H	-0.9629821546	-0.416140941	-0.2803180172	 0.088405
H	 0.7117936046	-1.2805897786	-1.6482340683	 0.126684
H	 2.3186037789	-2.1311974759	 0.3452967631	 0.117471
H	-0.3143942773	-0.3997057399	 3.052335431	 0.13969
H	-0.868767022	-1.8275052143	 2.1632069611	 0.128835
H	 0.7154956411	-1.838827786	 2.9725559893	 0.141619
