18
gdb 56772	2.64708	1.3146	1.10505	2.5271	75.71	-0.2641	0.0239	0.2879	1155.4042	0.149049	-398.090904	-398.082271	-398.081327	-398.124526	32.119	
N	-0.1899653638	 1.425816415	 0.1029318377	-0.503486
C	 0.0707616452	-0.0101610849	-0.0459034606	-0.239763
C	 0.781458056	-0.3425437667	-1.3042165509	 0.254991
N	 1.3471932624	-0.5528230635	-2.2907240003	-0.330947
C	 0.8403043256	-0.5302469465	 1.1446349069	 0.399354
C	 2.2895202163	-0.1665939928	 1.5224946605	-0.315214
C	 2.4674149759	-1.6158177241	 2.0884494142	-0.234181
C	 1.0168537457	-1.921031346	 1.6875146271	-0.092812
N	 0.0833710017	-0.9795291089	 2.2996364996	-0.359441
H	 0.6828456102	 1.9416403994	 0.0297657211	 0.242207
H	-0.7777175393	 1.7514292764	-0.6590123208	 0.245425
H	-0.8940165642	-0.5275125612	-0.0560815654	 0.143336
H	 2.9293203128	 0.0128127207	 0.6550938091	 0.127326
H	 2.3972711571	 0.6675136181	 2.223087265	 0.104142
H	 3.203401192	-2.1911824161	 1.5232522994	 0.120819
H	 2.6888924913	-1.7122511448	 3.1561690377	 0.10393
H	 0.6232196345	-2.8671903924	 1.3337375664	 0.105073
H	 0.4205913707	-0.5884426416	 3.1776767232	 0.22924
