14
gdb 1222	7.28478	1.46278	1.28107	4.8085	56.94	-0.2503	-0.0292	0.221	914.0963	0.110889	-361.723581	-361.715618	-361.714674	-361.756517	26.582	
C	 0.0182864724	 1.229628721	 0.1656551567	-0.481885
C	-0.2897327803	-0.2506489376	 0.0642146137	 0.370977
O	 0.4748604451	-1.1129851721	 0.4190938547	-0.273032
C	-1.6688655669	-0.5969715767	-0.510084846	-0.19305
O	-1.7919706114	-1.9382799157	-0.9128975119	-0.16543
C	-1.8456342756	-2.8707773457	 0.068467987	 0.149635
N	-1.9126528481	-4.0898818501	-0.2409399907	-0.443741
H	 0.8976363955	 1.3831797301	 0.7917729044	 0.154327
H	 0.217786664	 1.6285900426	-0.8360783084	 0.154555
H	-0.8337815226	 1.7877377367	 0.5686184375	 0.13872
H	-2.4256107777	-0.321704739	 0.2432908944	 0.127457
H	-1.8687604999	 0.0138824497	-1.395772665	 0.142543
H	-1.846699569	-2.4459779725	 1.0794585164	 0.088645
H	-1.9653963255	-4.6590921207	 0.6009901571	 0.230279
