13
gdb 5487	3.43045	2.07346	1.29877	4.1482	62.09	-0.2253	-0.0463	0.179	861.083	0.09744	-394.82646	-394.819496	-394.818552	-394.857688	25.149	
N	 0.1214682804	 1.4142814325	 0.1174741791	-0.608125
C	-0.0239854027	 0.0227396252	 0.024602501	 0.269034
C	-1.0895982621	-0.8263539808	 0.0532061669	-0.137444
N	-0.6698304964	-2.1511625386	 0.0090967025	-0.263221
C	 0.6266110797	-2.1114174112	-0.0572542656	 0.029468
N	 1.1046998079	-0.8072411304	-0.0383891577	-0.090356
C	 2.4439838593	-0.4162442496	 0.0110677888	 0.174307
O	 3.3636586883	-1.187694791	-0.0586403951	-0.284201
H	 0.3408819233	 1.8534134993	-0.7717621726	 0.256198
H	-0.7198235074	 1.8418619704	 0.4836907337	 0.25986
H	-2.1370593142	-0.5703538155	 0.1038090116	 0.112688
H	 1.3058473027	-2.9462533555	-0.1212471628	 0.162269
H	 2.5475167512	 0.6740344853	 0.1305247	 0.119523
