13
gdb 4360	4.05907	1.99375	1.34812	2.0282	61.26	-0.2722	-0.0436	0.2286	852.0217	0.097567	-394.858142	-394.851372	-394.850428	-394.890202	24.083	
C	 0.0039291012	 1.4649055616	 0.0623719595	-0.459865
C	 0.0313459285	-0.0334103657	 0.0260251268	 0.359803
N	 0.0613423798	-0.6240237872	-1.1783966374	-0.288804
C	 0.0846928917	-1.9541809803	-1.1406413382	 0.075333
N	 0.0810513105	-2.7228285905	-0.0536656455	-0.283362
C	 0.0502671427	-2.0238988006	 1.0777099112	 0.458928
O	 0.044769414	-2.7290630516	 2.2077722042	-0.377316
N	 0.0244974971	-0.6915024524	 1.1875211711	-0.368713
H	 0.8845515572	 1.8642082513	-0.4502563129	 0.15164
H	-0.8715340121	 1.8329379388	-0.4814807907	 0.151626
H	-0.0206141086	 1.8260199408	 1.0903409619	 0.138528
H	 0.1093901328	-2.4718692522	-2.0973800008	 0.132337
H	 0.0215536153	-2.0865182819	 2.9314066307	 0.309864
