22
gdb 106321	2.90228	1.18294	1.03655	2.169	83.05	-0.2257	0.0692	0.2949	1279.5107	0.192733	-404.303202	-404.293383	-404.292439	-404.337601	36.963	
C	-0.1272909296	 1.3293306756	 0.283072607	-0.379338
C	-0.1734506864	-0.1920267368	 0.4814123317	-0.274229
C	-1.5604924723	-0.7531905769	 0.3309770224	 0.348901
C	-2.697793993	-0.6061490619	 1.3677486656	-0.357501
C	-3.1020055859	-2.0893003733	 1.0644615219	 0.119953
O	-4.4118055457	-2.3945865191	 0.6319659343	-0.430222
C	-2.0282069366	-2.1571142649	-0.0248904933	-0.138981
N	-2.0694726301	-1.0728821582	-0.981636507	-0.117677
C	-3.2982724238	-0.5304743594	-1.5513787126	-0.31775
H	 0.8894237573	 1.7129069438	 0.41205416	 0.111434
H	-0.4651232104	 1.5993889397	-0.7224086562	 0.125447
H	-0.7719405208	 1.8448296146	 1.0033798052	 0.114533
H	 0.4771617576	-0.6808325991	-0.2513925905	 0.107572
H	 0.2122487583	-0.4457974849	 1.4775771265	 0.090787
H	-2.3381289301	-0.4680378887	 2.390564139	 0.098942
H	-3.453559987	 0.1536998836	 1.1519826152	 0.099514
H	-2.8113194081	-2.7327901332	 1.9067673854	 0.074911
H	-4.9992095465	-2.3443084524	 1.3929681857	 0.283433
H	-1.4565794901	-3.0450230291	-0.2775398094	 0.084903
H	-4.1424566991	-0.4583450888	-0.8582760036	 0.121066
H	-3.0806373472	 0.4626690121	-1.9581793804	 0.111354
H	-3.6040274603	-1.1759404128	-2.3803914668	 0.122949
