15
gdb 45164	3.11422	1.81	1.57345	2.2174	63.47	-0.2454	-0.0206	0.2248	859.6087	0.114516	-457.774099	-457.767935	-457.766991	-457.804711	25.14	
O	 0.0130338095	 0.0378419576	 0.4349072684	-0.327927
C	-0.0070279527	 1.191556935	 0.0769611907	 0.431217
C	-1.3036995689	 1.969435401	-0.1693799006	-0.340695
C	-0.9612323113	 3.3922984253	-0.6098996858	 0.1475
O	-0.1489337787	 3.3311028911	-1.7802876754	-0.255007
C	 1.1368068729	 3.0721126543	-1.2782738248	 0.039978
C	 1.1317652076	 3.5112045222	 0.135933478	 0.039958
O	-0.1566941738	 4.0063670133	 0.3946096562	-0.255011
C	 1.2161656042	 2.0019937634	-0.1704501423	-0.252746
H	-1.8880069982	 1.4563050175	-0.9396427006	 0.142364
H	-1.894242478	 1.9815648043	 0.7521017116	 0.142345
H	-1.8268809606	 4.0248366333	-0.8093898597	 0.110062
H	 1.9272726123	 3.2021075748	-2.0040136761	 0.13199
H	 1.9177546828	 4.0309588435	 0.6655643084	 0.13198
H	 2.1680990331	 1.5086161834	-0.013898418	 0.113991
