17
gdb 67150	2.47318	1.71858	1.5702	3.7133	71.95	-0.2295	-0.0297	0.1997	951.9443	0.135898	-421.792854	-421.785459	-421.784515	-421.824552	28.877	
C	-0.0405939715	 1.5639473768	 0.0464781879	-0.536846
C	-0.0000418896	 0.0653737033	 0.0103521668	 0.321499
C	 0.5831168574	-0.8768130674	-1.0889439699	 0.053562
C	 1.518232207	-1.5298442659	-0.0516798043	-0.245252
C	 0.6772898778	-0.8887741761	 1.0949517296	-0.239877
C	-0.6938130106	-1.5627100793	 1.2499917699	 0.437734
O	-1.2080743493	-2.1874679629	 2.1317429685	-0.311267
C	-1.2231592277	-0.9132797087	-0.0509743986	-0.079015
O	-0.6691188793	-1.5933342447	-1.2013993158	-0.299467
H	 0.9691737005	 1.9887041628	 0.0521650666	 0.128097
H	-0.5690154801	 1.9656063732	-0.8247975231	 0.133415
H	-0.5545404969	 1.9220995653	 0.945438486	 0.131841
H	 0.9723224669	-0.5882115448	-2.0676159891	 0.085038
H	 1.6134151129	-2.6178937277	-0.0810042072	 0.120969
H	 2.5141039971	-1.075699092	-0.0844753255	 0.112811
H	 1.185300955	-0.5655793563	 2.0035610959	 0.093365
H	-2.2814959595	-0.6669905658	-0.1623807777	 0.093392
