25
gdb 106552	1.89829	1.47879	1.12561	0.2381	93.5	-0.2759	0.0875	0.3634	1301.9389	0.22826	-352.319972	-352.309893	-352.308949	-352.354649	38.591	
C	-0.6267575005	 1.5557159188	-0.5069866066	-0.379528
C	-0.4601970474	 0.0362355013	-0.3859823193	-0.317921
C	-1.7568874862	-0.6946437718	-0.1293895007	 0.345618
C	-3.0547134012	-0.6736791638	-1.0012928348	-0.277684
C	-3.3724802073	-1.6201098969	 0.1900506769	-0.080975
C	-1.9545323898	-2.2479732462	 0.0060511592	 0.005659
C	-1.6348942249	-3.2038475391	-1.1363430464	-0.444842
C	-2.7210664466	-0.5335261027	 1.1051463952	 0.028159
C	-2.2818780166	-0.8130369183	 2.5363090032	-0.451265
H	 0.3344057705	 2.0452396819	-0.6913959754	 0.110018
H	-1.2980609368	 1.8152577605	-1.3322509708	 0.118391
H	-1.0486752877	 1.9830852329	 0.4087664549	 0.117312
H	-0.0038487066	-0.3573209435	-1.3042366954	 0.096937
H	 0.2444820544	-0.193783411	 0.4247754739	 0.095326
H	-3.6065446814	 0.270729722	-1.0261130755	 0.08408
H	-3.0004597282	-1.112215523	-1.998233309	 0.086382
H	-4.3093428328	-2.1513528385	 0.3715430342	 0.059085
H	-1.5316875218	-2.6625499448	 0.9250839715	 0.055362
H	-2.0254468735	-2.8857792162	-2.1059717772	 0.115523
H	-0.5504585083	-3.3243285242	-1.242130693	 0.113909
H	-2.049343545	-4.1965205119	-0.9263109189	 0.114144
H	-3.2734741398	 0.4137075588	 1.0822165467	 0.056732
H	-1.7336276438	-1.7498726958	 2.6609149799	 0.118815
H	-1.6380591736	-0.0050054584	 2.9024053599	 0.115093
H	-3.1545526153	-0.8544133901	 3.1979497475	 0.115668
