19
gdb 94352	2.78533	1.09644	1.02359	2.9246	77.25	-0.2573	-0.04	0.2173	1270.7034	0.156875	-423.00863	-422.999557	-422.998613	-423.04304	33.203	
C	-0.070078005	 1.6159833563	 0.5071434023	-0.391182
C	 0.0111715438	 0.1447682352	 0.1068011565	-0.094254
C	 1.1628878028	-0.2145890067	-0.8881436146	-0.228771
C	 1.9745440243	-0.8684272028	 0.2720268409	-0.318205
C	 0.7237329082	-0.7456120833	 1.1436298618	 0.449877
O	 0.7325693222	-0.5147605541	 2.5318094271	-0.274294
C	 0.1700165761	-1.7583210183	 2.0724078108	-0.158138
C	-1.3051084404	-1.8868856356	 2.2420010044	 0.151041
O	-1.8831397771	-2.9422757229	 2.3052875674	-0.250445
H	 0.9105866133	 2.0030740787	 0.8039265648	 0.121374
H	-0.4333381543	 2.2216877472	-0.3290547635	 0.11873
H	-0.7485314466	 1.7571963199	 1.3536733671	 0.128457
H	-0.9753620405	-0.2130958593	-0.2016199305	 0.083525
H	 0.8585466964	-0.9331106288	-1.6515913419	 0.111883
H	 1.6376546028	 0.637604407	-1.3785684076	 0.107571
H	 2.362831464	-1.8752438685	 0.1046332531	 0.115549
H	 2.7864618757	-0.2373345964	 0.6436290909	 0.124181
H	 0.7510133086	-2.6542504861	 2.2859679278	 0.115376
H	-1.8355972943	-0.9108913114	 2.3032995231	 0.087725
