18
gdb 26947	2.97541	1.39856	1.03391	2.8573	80.65	-0.204	0.0337	0.2377	1171.1229	0.149306	-398.143315	-398.135033	-398.134089	-398.176723	30.88	
C	-0.237076712	 1.5197559397	 0.0917472691	-0.512331
C	-0.0298881658	 0.0480573661	 0.012643199	 0.223527
C	 0.2096572917	-0.7799643956	-1.0564613471	 0.257983
N	 0.3371816925	-2.092121991	-0.6506088068	-0.313923
C	 0.1776414973	-2.0678429025	 0.650674376	 0.001185
N	-0.0466587298	-0.8023935438	 1.104680402	-0.302559
N	 0.3126063779	-0.348894429	-2.3964538508	-0.195176
C	 1.2649469906	-1.0728275293	-3.2526441226	-0.221369
C	-0.1946747101	-1.2675842457	-3.4274080627	-0.22138
H	 0.5204353162	 2.0152006117	 0.7118023159	 0.123617
H	-0.1700614347	 1.9291846468	-0.918222137	 0.159888
H	-1.2206565374	 1.7814324699	 0.5014587632	 0.123643
H	 0.21277582	-2.9207883632	 1.3123435944	 0.126762
H	-0.1979205177	-0.5304829012	 2.0615354711	 0.261752
H	 1.8247240348	-0.4494274527	-3.9443254313	 0.109935
H	 1.8172148226	-1.8868130925	-2.7925732826	 0.134278
H	-0.6088334568	-2.2105226211	-3.0830435367	 0.134227
H	-0.7203285094	-0.7890228565	-4.2490323532	 0.109942
