10
gdb 23809	3.3702	2.27825	1.35934	2.0794	51.3	-0.2523	-0.0547	0.1976	769.4189	0.060188	-462.710604	-462.704867	-462.703923	-462.740681	21.093	
F	 0.0090477239	 0.0117920116	 0.003852747	-0.040623
C	-0.001055211	 1.3345646845	 0.0105048063	 0.154854
C	-1.1924326	 2.0527016171	 0.0296115434	-0.078495
N	-1.2422419907	 3.3835839078	 0.0368260203	-0.183906
N	-0.1128816908	 4.0847706401	 0.0255336979	-0.183906
C	 1.0576483258	 3.4497112126	 0.0071158376	-0.078495
C	 1.1726561511	 2.0632879388	-0.0012298921	 0.154854
F	 2.3535342667	 1.467415784	-0.0195925373	-0.040623
H	-2.1416418938	 1.5260405307	 0.0394125221	 0.148171
H	 1.9506940988	 4.0668508527	-0.0015053651	 0.148171
