16
gdb 129575	4.0856	1.00326	0.85721	2.3649	65.8	-0.2594	-0.0329	0.2265	1291.4496	0.125846	-471.191411	-471.183148	-471.182203	-471.225095	29.848	
N	-0.3555522068	 1.4711907363	 0.0060261743	-0.518323
C	-0.0476002996	 0.0411514965	-0.0410910639	-0.132481
C	-1.363112231	-0.7318048372	 0.2018368023	-0.041554
O	-1.9523291809	-0.3130223341	 1.4060488457	-0.421003
C	 0.6243579311	-0.4247210954	-1.3015694385	 0.370225
N	 0.8003817696	 0.3511564897	-2.3389373557	-0.1905
O	 1.424834211	-0.4849292351	-3.2752082659	-0.151748
C	 1.5503417165	-1.6706725426	-2.6800098698	 0.10837
N	 1.086521919	-1.7175335162	-1.4735999296	-0.306767
H	 0.4926069116	 2.0166149437	 0.1181380588	 0.245402
H	-0.7625256229	 1.7636592252	-0.8790414953	 0.248521
H	 0.6148166992	-0.191302964	 0.8006981391	 0.119534
H	-2.0302046874	-0.569578085	-0.663815991	 0.082783
H	-1.1610988204	-1.8040307708	 0.2712345314	 0.12859
H	-1.854534995	 0.650991343	 1.4059755767	 0.287805
H	 2.019209686	-2.4598721541	-3.2498643887	 0.171144
