15
gdb 2144	3.58218	3.1627	1.81283	3.437	62.95	-0.2352	-0.043	0.1922	701.5123	0.12585	-308.561649	-308.555087	-308.554143	-308.592257	24.278	
C	-0.1209518857	 1.5545131577	 0.0287510144	-0.397268
C	 0.0646434056	 0.0366203294	-0.0266301045	-0.083993
C	 0.8652576471	-0.5043519048	-1.2317783566	-0.284202
C	 1.9170663949	-1.3936419855	-0.6166162006	-0.045203
C	 1.8948688203	-1.3888366641	 0.7211909419	-0.174403
C	 0.8229412128	-0.4920328769	 1.2097865748	 0.380259
O	 0.5721948231	-0.2042639723	 2.3579236675	-0.342237
H	 0.8424860716	 2.0705929289	-0.047246971	 0.117905
H	-0.7594954232	 1.9086389434	-0.7860759117	 0.112906
H	-0.5778058281	 1.8360073524	 0.9811241218	 0.14142
H	-0.924476023	-0.4378866529	 0.0006324968	 0.106457
H	 0.2447678375	-1.0563390847	-1.9476579334	 0.118146
H	 1.3373027598	 0.3049556204	-1.8047462905	 0.120698
H	 2.6148954732	-1.9578322854	-1.2270719984	 0.114563
H	 2.5555364339	-1.9259445054	 1.3895335794	 0.114951
