22
gdb 63469	2.63424	1.32732	1.05566	2.9984	82.29	-0.2302	0.0698	0.3	1234.9135	0.192241	-404.30592	-404.295879	-404.294935	-404.340396	38.258	
C	-0.0037010631	 1.3276798342	-0.4614488164	-0.44829
C	 0.1441053106	-0.0833365581	 0.0651049477	 0.372554
O	-0.8261974685	-0.9603168317	-0.4536850951	-0.45733
C	 1.5091159375	-0.6740382633	 0.3527281425	-0.416507
C	 0.5379488208	-0.3903023832	 1.4928833321	 0.249525
C	 0.8710608525	 0.7505528716	 2.4444380265	-0.457095
C	-0.1519012361	-1.5204774168	 2.2093910501	-0.013525
C	-0.0212222575	-2.9486629689	 1.8632426378	-0.237395
N	 0.6252910162	-2.4296577842	 3.08488929	-0.336421
H	 0.7570972241	 2.0034037919	-0.0658964524	 0.119234
H	 0.0948719756	 1.3310435503	-1.554502094	 0.107294
H	-0.9914669343	 1.730011654	-0.2145696348	 0.127828
H	-0.6734442151	-1.0371970799	-1.4021432908	 0.279248
H	 1.6731619793	-1.6998821798	 0.0418353882	 0.111952
H	 2.3825439853	-0.0343518441	 0.2702248452	 0.105525
H	 1.4384682652	 1.5490865232	 1.9610750201	 0.112062
H	-0.0402986751	 1.1912364514	 2.8643409343	 0.121094
H	 1.471183927	 0.3784196817	 3.2815679335	 0.126048
H	-1.0897167478	-1.213935452	 2.6710588714	 0.089309
H	-0.8599382803	-3.6170185122	 2.0368204441	 0.114424
H	 0.6033462269	-3.2296671442	 1.0220607064	 0.105355
H	 1.6156956866	-2.2901904499	 2.8895146037	 0.225112
