19
gdb 81076	2.71707	1.46432	1.20408	2.6693	75.36	-0.2556	0.0667	0.3223	1088.4093	0.159405	-422.946393	-422.938396	-422.937451	-422.979077	31.242	
O	 0.0942148107	 1.5158415975	-0.0384913845	-0.44931
C	-0.0276543793	 0.1194703748	-0.0330935801	 0.143151
C	 0.0357447046	-0.7104211686	 1.2844820112	-0.102926
C	-1.409547854	-0.2173906829	 1.6016534481	-0.301549
C	-1.4265444703	-0.5780791118	 0.0797699279	 0.331743
C	-0.6263200148	-1.8585706579	 0.4721087492	-0.26261
C	-2.5677320474	-0.4680948094	-0.8686020245	-0.099918
C	-2.7155898131	 0.7009877059	-1.7502679497	-0.187172
O	-2.2354605211	-0.5447200694	-2.2595480443	-0.235499
H	-0.3532245116	 1.8790470911	 0.7326730328	 0.283082
H	 0.5988504397	-0.2384807968	-0.8528348389	 0.095392
H	 0.8719167617	-0.7928576265	 1.9789738526	 0.077472
H	-2.0064400464	-0.8564996748	 2.2577820332	 0.099268
H	-1.5540119291	 0.8319522394	 1.87952545	 0.078551
H	-0.0277337467	-2.3222733763	-0.3161184643	 0.104179
H	-1.1724153848	-2.6021452444	 1.056470597	 0.096822
H	-3.4686772428	-1.0223643981	-0.5975706144	 0.086525
H	-3.7076656979	 0.9931103835	-2.0922105628	 0.111271
H	-1.9757233374	 1.4967394547	-1.6951982584	 0.131528
