22
gdb 101130	3.22807	1.06165	0.98466	1.1931	82.87	-0.2433	0.0844	0.3277	1342.4619	0.193302	-404.298768	-404.289101	-404.288157	-404.333859	35.697	
C	-1.7943230762	 1.3924543527	-0.8016903599	-0.229501
O	-1.7308011737	 0.3940407336	 0.1885301263	-0.256
C	-0.9528622295	-0.7479849167	-0.1637726097	 0.019719
C	 0.5484714153	-0.4727028067	-0.028037827	-0.410326
C	-1.4268481551	-1.8620201518	 0.7271798822	 0.384656
C	-1.2773770985	-1.9421394233	 2.2586573125	-0.296134
C	-1.1300069681	-3.4963401263	 2.1325994358	-0.236392
C	-1.3031286136	-3.3581884296	 0.6134445623	-0.102032
N	-2.5518918267	-2.6775169979	 0.2827951862	-0.36464
H	-2.4883426453	 2.1571862186	-0.4429653602	 0.124659
H	-0.8214471948	 1.8711519527	-0.9897349362	 0.101835
H	-2.1713740548	 0.9937601879	-1.756533116	 0.10627
H	-1.1812076698	-1.0409487705	-1.2003566544	 0.074148
H	 0.7923498989	-0.1581694575	 0.9909550419	 0.123243
H	 1.1245738946	-1.3725884415	-0.2646023428	 0.117163
H	 0.8691246067	 0.3179729005	-0.7119203549	 0.116661
H	-0.3682923385	-1.4719363992	 2.6391139432	 0.108949
H	-2.130142358	-1.5586464955	 2.8269877846	 0.101991
H	-0.1361645879	-3.8421760229	 2.4273275355	 0.106229
H	-1.8784991581	-4.1166589742	 2.6374064123	 0.097237
H	-0.8427769057	-3.972777559	-0.152894888	 0.090707
H	-3.2661829112	-2.7948757136	 0.9998959164	 0.221556
