13
gdb 25285	7.95148	0.67472	0.62195	4.5672	91.04	-0.2371	-0.0782	0.1588	1655.2722	0.08911	-419.434742	-419.426987	-419.426042	-419.468196	27.004	
O	-0.1426401456	 0.0226272219	-0.0002939118	-0.238136
C	-0.0116778701	 1.2279350908	 0.0080644949	-0.009938
C	 1.2475529418	 1.911060792	-0.0010966912	 0.213326
C	 2.2988163639	 2.5168531243	-0.0082198221	-0.065641
C	 3.5242313249	 3.1819980807	-0.0164609864	 0.204143
C	 4.8216882918	 2.7295934722	-0.0351024847	-0.281319
C	 5.6545808444	 3.8802636517	-0.0347398758	-0.155354
C	 4.8104367549	 4.9522229783	-0.0161046765	-0.017015
O	 3.5220832638	 4.5573384473	-0.0047664392	-0.162366
H	-0.8878306582	 1.9080124979	 0.0238849395	 0.099975
H	 5.1226093792	 1.6942479753	-0.0473358794	 0.135444
H	 6.7322994976	 3.9109701151	-0.0467225044	 0.128868
H	 4.9724089318	 6.0180588424	-0.0089082528	 0.148013
