21
gdb 91769	2.3426	1.75835	1.57023	1.9208	76.36	-0.2357	0.0677	0.3034	987.5174	0.186404	-424.24205	-424.234592	-424.233648	-424.273439	31.152	
O	 0.0838769156	 1.3997998189	-0.2062392163	-0.435837
C	 0.038790119	-0.0094219415	-0.0326924685	 0.128296
C	 0.695939888	-0.5304298233	 1.2860231689	-0.282904
C	-0.4176589359	-1.3288730497	 2.0037113397	 0.128838
C	-1.2840815195	-1.8094450914	 0.8268730173	-0.227663
C	-1.4311393508	-0.4869040968	 0.0528924536	-0.03104
C	-2.3045144109	 0.4588366021	 0.9013211826	-0.21556
C	-1.69740378	 0.669216205	 2.2961051036	-0.071326
O	-1.2022783327	-0.5306992563	 2.8854026343	-0.273333
H	 1.0063140552	 1.6623977571	-0.2782530667	 0.283602
H	 0.5157238939	-0.4995148549	-0.8944484905	 0.065713
H	 1.542404222	-1.189256116	 1.0693825335	 0.095403
H	 1.0664045591	 0.2928779589	 1.9030855546	 0.109115
H	-0.0260294649	-2.1365270365	 2.6265661607	 0.07097
H	-0.754288839	-2.5675780025	 0.2375181257	 0.087574
H	-2.2365799757	-2.2295188838	 1.1594051909	 0.09977
H	-1.8684496361	-0.6075770022	-0.9418183781	 0.063076
H	-2.4109092743	 1.43163728	 0.4130826979	 0.111465
H	-3.303897476	 0.0163140052	 0.9858999528	 0.092848
H	-0.8935342728	 1.414174694	 2.2228688274	 0.100877
H	-2.443807584	 1.0551142336	 2.9965302266	 0.100116
