19
gdb 39266	2.46404	2.24413	1.55266	1.6508	73.61	-0.2402	0.0802	0.3204	912.2535	0.162425	-423.013132	-423.00641	-423.005466	-423.043853	28.399	
C	-0.037897261	 1.4509619956	-0.0513948128	-0.410845
C	 1.3520998271	 0.8236514225	-0.0211432417	-0.093355
C	 2.1506503329	 0.3950219449	-1.2367195333	-0.087642
O	 2.2199198246	-1.0441920677	-1.2835935635	-0.292147
C	 0.9639722878	-1.6763367126	-1.0379888904	 0.205651
C	 0.8350905065	-2.1971631116	 0.4280498916	-0.244105
C	-0.0047720894	-1.0833480498	 1.1344366629	-0.3061
C	 0.0990426535	-0.0205245995	 0.0671819236	 0.427939
O	-0.0787396277	-0.7305622384	-1.1552802499	-0.273724
H	-0.3270238988	 2.0227059803	 0.8234436377	 0.122567
H	-0.4313173219	 1.8266919043	-0.9902807233	 0.129208
H	 1.9120330204	 0.9623232403	 0.8985827435	 0.091506
H	 1.7075387801	 0.7826467955	-2.1611770841	 0.104341
H	 3.189887031	 0.7271165503	-1.1893746624	 0.108241
H	 0.8310819809	-2.4495715228	-1.7988395008	 0.08471
H	 0.3288248721	-3.165160183	 0.4513653202	 0.105334
H	 1.8272960666	-2.3163266393	 0.8665257927	 0.115313
H	-1.0384953114	-1.405737163	 1.2915734605	 0.107867
H	 0.4134219666	-0.7712620961	 2.0933971596	 0.105241
