20
gdb 92056	2.64348	1.52988	1.13506	1.448	78.36	-0.2301	-0.0176	0.2125	1128.1419	0.171719	-403.150558	-403.142067	-403.141123	-403.184326	32.247	
C	-0.2546490195	 1.5151111455	 0.0392883081	-0.398145
C	 0.0592190172	 0.021660261	 0.0328535876	-0.087213
C	 0.7763611712	-0.4114261452	-1.2682663928	-0.165836
N	 1.1741235188	-1.8263956245	-1.3153254939	-0.096551
C	 2.5293958833	-2.1579023821	-0.8797853118	-0.243707
C	 1.3613571134	-2.5679919023	-0.0589455728	-0.010624
C	 1.1092974727	-1.918951286	 1.2975819686	-0.330698
C	 0.9125289459	-0.4122228853	 1.2148356263	 0.376814
O	 1.3864286253	 0.3567350233	 2.0184756154	-0.314787
H	 0.6662635934	 2.1047252082	 0.030731818	 0.131664
H	-0.8517634107	 1.7890678156	-0.8359531484	 0.110927
H	-0.8102698881	 1.7946473089	 0.9377951933	 0.126964
H	-0.8724745046	-0.5606239255	 0.0885516415	 0.095361
H	 0.1024797653	-0.2216258977	-2.1114979962	 0.113758
H	 1.6550915287	 0.2295925044	-1.4178682339	 0.109454
H	 3.065187534	-2.8776402076	-1.4935875191	 0.115647
H	 3.1486122913	-1.3503321963	-0.4876829671	 0.114613
H	 1.0338800821	-3.6037524775	-0.1243947653	 0.095938
H	 0.1764944058	-2.3246181061	 1.7138200598	 0.127979
H	 1.9056286245	-2.1433752007	 2.0128727425	 0.128439
