21
gdb 119709	3.12024	0.9809	0.89604	1.7164	78.91	-0.232	0.0631	0.2951	1423.8098	0.181497	-424.185232	-424.17587	-424.174926	-424.219739	35.052	
C	 0.0698903879	 1.4806149801	 0.0108883268	-0.384378
C	-0.0510405274	-0.0342744354	 0.190122796	-0.162377
C	-1.4567824767	-0.5617807619	-0.1406602661	-0.30527
C	-1.5620431858	-2.0459947469	 0.0085912867	 0.412499
O	-0.7495619284	-2.8618036112	-0.8674153878	-0.343395
C	-1.8498897966	-3.8055759797	-1.0372962894	-0.104043
C	-2.6978699288	-3.0721955245	-0.012094682	-0.250501
C	-1.8437594499	-2.8576989272	 1.230160607	 0.086055
O	-0.940910445	-3.8037040587	 1.7083139826	-0.440012
H	 1.0799051525	 1.8289332568	 0.2474365915	 0.1142
H	-0.1512353183	 1.7767829911	-1.0205938445	 0.115694
H	-0.6284979656	 2.0151800764	 0.6647090152	 0.113002
H	 0.6754587726	-0.5452237353	-0.4520524473	 0.116948
H	 0.2010737929	-0.3093298878	 1.2217890608	 0.103187
H	-2.1986933229	-0.0933508751	 0.5185442317	 0.101749
H	-1.7236065364	-0.2811983155	-1.1682115247	 0.103418
H	-2.236125958	-3.753424747	-2.0600702771	 0.114103
H	-1.5520743769	-4.832856469	-0.7995791394	 0.112226
H	-3.772495122	-2.9460844453	-0.0369620545	 0.097996
H	-2.3567441466	-2.3384380876	 2.0352645151	 0.104212
H	-0.2215744306	-3.8289187364	 1.0621241993	 0.294685
