20
gdb 52390	6.28407	0.57777	0.55441	3.3096	79.07	-0.2533	0.0263	0.2797	1982.5064	0.170132	-440.260024	-440.250216	-440.249272	-440.29734	33.323	
N	-0.0826869704	 1.2329556399	-0.117083881	-0.440349
C	-0.1109831513	-0.0236126626	-0.23675983	 0.12669
O	-1.1505475074	-0.725404515	 0.249617972	-0.1828
C	-1.0447827567	-2.1494904413	 0.2030410653	-0.076077
C	-2.4482938003	-2.7336437561	 0.2819069404	-0.218069
C	-2.4241530741	-4.251341743	 0.242684972	 0.157466
C	-3.753099496	-4.9961018069	-0.0133502881	-0.300951
C	-3.0265498761	-5.5734553508	-1.2447950082	-0.05841
O	-1.8604516931	-4.760089063	-0.9934541883	-0.296372
H	 0.756083315	 1.6024212702	-0.5598296872	 0.227397
H	 0.6479122505	-0.6490108139	-0.7285607759	 0.083866
H	-0.5603713715	-2.4695169886	-0.7274869254	 0.128053
H	-0.4312618566	-2.4979929766	 1.0456714544	 0.107334
H	-2.9325423284	-2.4008441817	 1.2079767697	 0.11517
H	-3.0414916894	-2.3521726883	-0.556565846	 0.112398
H	-1.8623937389	-4.643101153	 1.104136969	 0.074317
H	-4.0569418126	-5.7140940838	 0.7492159032	 0.113663
H	-4.593831693	-4.3391659782	-0.2454818683	 0.114835
H	-2.7947682201	-6.6444621946	-1.1882403462	 0.103852
H	-3.4722551195	-5.3596501028	-2.2228741214	 0.107987
