17
gdb 68124	3.61179	1.27009	1.11781	2.7672	73.48	-0.2432	-0.0277	0.2155	1091.4623	0.134694	-421.796033	-421.788076	-421.787131	-421.828513	31.015	
O	-0.15485442	 1.4012936753	-0.0171166944	-0.482874
C	-0.0366681321	 0.0178466516	-0.0114205965	 0.36787
C	 0.1148689719	-0.8464846946	 1.294400811	-0.309983
C	-0.3829677272	-1.9579605768	 0.3153440317	 0.205076
C	-1.3059043408	-0.8323939743	-0.3161818737	-0.28079
C	-0.9784170237	-3.2427692844	 0.7814150987	 0.040933
O	-1.2364727541	-3.5018181444	 1.9304288992	-0.249229
C	 0.752417053	-1.9737741186	-0.7285723404	-0.133155
C	 0.9903654967	-0.6777852155	-0.9310897359	-0.176973
H	 0.6851208192	 1.7831646828	 0.2593180206	 0.282981
H	 1.1153394517	-0.9706924148	 1.7135065073	 0.097277
H	-0.6175476655	-0.5977360004	 2.0658159919	 0.116617
H	-2.1576175524	-0.5750971755	 0.319277397	 0.117243
H	-1.5970861666	-0.9519689951	-1.3607481189	 0.107515
H	-1.1960036483	-3.9737887811	-0.0327448298	 0.072597
H	 1.2174900545	-2.8531100751	-1.1516983721	 0.115451
H	 1.7042438138	-0.1821084391	-1.5744408557	 0.109447
