16
gdb 14210	2.82101	2.42826	1.85064	0.979	64.11	-0.2233	0.0667	0.29	787.9022	0.129828	-383.666396	-383.659343	-383.658399	-383.697179	27.66	
C	-0.1450905644	 1.4502661413	-0.0085467073	-0.508546
C	 0.00263683	-0.0398687283	-0.0633993598	 0.246132
C	 0.9559637775	-0.8877682565	-0.907695193	-0.275881
C	 0.1401786462	-2.1054308237	-0.4074627624	-0.012726
O	 0.4414775981	-2.1653977777	 1.0120149956	-0.286246
C	-0.309212204	-0.9653704459	 1.1616502261	-0.051172
C	-1.0750621526	-1.1035331954	-0.1147014297	 0.272822
O	-2.3803536104	-0.995136487	-0.5057596636	-0.447256
H	 0.756208924	 1.9236467997	 0.3968452934	 0.123496
H	-0.3261973131	 1.8701396833	-1.0042012043	 0.125263
H	-0.989539603	 1.7396753922	 0.6262230743	 0.123185
H	 0.806882338	-0.7065384088	-1.9759240261	 0.103972
H	 2.0227940692	-0.8959193862	-0.6616119553	 0.098331
H	 0.1460489216	-3.07666487	-0.8980342258	 0.085831
H	-0.5489884588	-0.6004317916	 2.1520100839	 0.10764
H	-2.8981385984	-1.6641737155	-0.042088006	 0.295155
