18
gdb 71481	3.78185	1.24552	1.09278	3.6558	77.84	-0.2467	-0.0267	0.22	1138.2373	0.146959	-401.898457	-401.890515	-401.889571	-401.930779	30.629	
C	 0.1633595739	 1.5107556865	-0.1245510916	-0.510022
C	 0.0253189302	 0.020815615	 0.0253822138	 0.286748
C	-1.2833934556	-0.667464748	 0.4777585984	-0.183621
N	-0.4868137297	-1.8007997426	 1.0563600252	-0.180466
C	 0.6967089062	-0.9295265754	 1.1037766718	-0.139856
C	 0.634480443	-1.9958851937	 0.0475549118	 0.264768
C	 0.5213647019	-0.9674998334	-1.0698755454	-0.340864
C	 1.3109728723	-3.301313054	 0.0457219348	 0.054585
O	 1.9335182537	-3.730064228	-0.8970059394	-0.266243
H	 1.2006018781	 1.7982967607	-0.3256454419	 0.126495
H	-0.4474292348	 1.8710432499	-0.9606558644	 0.128407
H	-0.1640946002	 2.0364426377	 0.7788793111	 0.123033
H	-1.7824710159	-0.1508344288	 1.3018505607	 0.114089
H	-2.0141844043	-0.9508594937	-0.2882205717	 0.104518
H	 1.3455482908	-0.8062297764	 1.9621392496	 0.108253
H	-0.150694215	-1.1725842177	-1.9093440285	 0.104553
H	 1.5139724557	-0.7068262873	-1.4439572481	 0.12128
H	 1.2112895694	-3.8669159909	 0.9969863339	 0.084343
