17
gdb 105979	4.28701	1.1119	1.10841	1.7541	71.61	-0.2226	0.0635	0.286	1136.2137	0.134134	-421.698668	-421.690618	-421.689673	-421.731231	31.317	
O	 0.1563225396	 1.3373079779	 0.3938833114	-0.411248
C	-0.0044072589	 0.0218424441	-0.1249846008	-0.211395
C	-1.4098134559	-0.4762805047	-0.0802061432	 0.352498
C	-2.2759998282	-0.9000283245	 1.0989790025	-0.128975
C	-3.557579023	-0.4902027759	 0.3177372263	-0.136365
C	-2.6903716366	-0.0525483759	-0.8745309322	-0.283236
C	-3.219131242	-1.4788351137	-0.7704545963	 0.397514
O	-4.0991530812	-2.1732391275	-1.5533378922	-0.449936
C	-1.925646412	-1.9099719417	 0.0129188703	-0.261609
H	-0.4344082541	 1.9177916696	-0.0966408855	 0.282613
H	 0.3827063734	-0.0433350846	-1.1558040252	 0.087667
H	 0.6288706742	-0.6217453098	 0.4965031871	 0.111682
H	-2.0405564667	-0.918890562	 2.1551079498	 0.09135
H	-4.5215503862	-0.1130405808	 0.629436626	 0.095187
H	-2.8882734166	 0.7158447661	-1.6112185607	 0.085735
H	-3.6961593934	-2.3138758669	-2.4184131625	 0.288861
H	-1.3652475323	-2.8335772497	 0.0841354352	 0.089656
