18
gdb 50378	3.19815	1.33459	1.13522	4.1248	71.87	-0.2369	-0.0261	0.2108	1101.0521	0.148857	-439.072134	-439.064359	-439.063415	-439.105016	29.348	
O	-0.7841513667	 0.823965155	 0.4168968515	-0.250601
C	 0.2361222424	 0.7464266772	-0.2173328264	 0.172668
C	 1.3949677962	 1.7074479657	-0.0725178382	-0.10188
N	 2.6913705906	 1.2130861357	-0.5801957889	-0.339333
C	 2.953263162	 2.4668844153	-1.3322338823	-0.017272
C	 3.0714111085	 2.269473559	-2.8423601101	-0.221365
C	 1.6208936629	 1.9475268614	-3.2304577092	-0.08425
O	 0.8005631795	 2.7136680728	-2.3383543319	-0.257688
C	 1.47262163	 2.8857572985	-1.1150254475	 0.096629
H	 0.4020926027	-0.0480365812	-0.9791153284	 0.078924
H	 1.4001508894	 2.102892602	 0.9512842676	 0.08757
H	 3.3757252292	 0.9699147684	 0.1254589104	 0.225317
H	 3.717363665	 3.1214958285	-0.9030150585	 0.073368
H	 3.4036227352	 3.1987323273	-3.3171998478	 0.106672
H	 3.7657742009	 1.4683223931	-3.1060334417	 0.111426
H	 1.3568864162	 2.2407667067	-4.2492587776	 0.11398
H	 1.4184935081	 0.8752165892	-3.1085830238	 0.108394
H	 1.2233400779	 3.8692362456	-0.7161195273	 0.09744
