16
gdb 51250	4.88102	0.93525	0.79244	3.8304	78.8	-0.2324	-0.0498	0.1826	1351.0367	0.125251	-437.958893	-437.950802	-437.949858	-437.99228	29.459	
O	 1.9791561964	 4.1320999595	 0.0675420249	-0.285124
C	 1.0805892977	 3.3279074458	 0.0588028025	 0.152741
N	 1.2169134179	 1.9574574925	-0.0384810488	-0.391228
C	 2.3841369461	 1.2201987811	-0.1446594205	 0.449967
C	 2.4261564341	-0.1258604078	-0.2358952576	-0.352264
C	 3.8142427569	-0.5897701498	-0.335074981	 0.407744
O	 4.201980309	-1.7334177749	-0.4291442416	-0.34994
C	 4.7110732123	 0.6601041095	-0.2954390708	-0.343924
C	 3.7542166511	 1.8605327956	-0.1693558253	-0.303993
H	 0.0122512401	 3.6080734641	 0.1295789065	 0.09803
H	 0.3548502419	 1.430065227	-0.0310683597	 0.263161
H	 1.5788992911	-0.8001294779	-0.2389180292	 0.101259
H	 5.4042893915	 0.5810797258	 0.5466624404	 0.134727
H	 5.3195580351	 0.6972921822	-1.2033311836	 0.134666
H	 3.8324970536	 2.5676354858	-0.999509443	 0.142092
H	 3.9173020653	 2.4530586816	 0.7348497169	 0.142086
