19
gdb 7139	5.67698	0.7973	0.76127	2.2726	69.89	-0.2431	0.0345	0.2777	1535.5589	0.16387	-402.232298	-402.222192	-402.221248	-402.269576	34.169	
C	-0.1015034643	 1.21377683	-0.6103609757	-0.371913
C	-0.0996048379	 0.1790907811	 0.5168565023	-0.143667
N	-1.3465383988	-0.564014812	 0.6041321978	-0.318308
C	-1.4448636179	-1.8928361045	 0.3075059291	 0.416232
O	-0.4924817688	-2.5648946457	-0.0537938129	-0.381229
C	-2.8378930317	-2.4858375768	 0.4904339885	-0.305787
C	-3.0667985965	-3.6818760991	-0.4245600461	-0.06521
O	-4.3481896691	-4.2107719932	-0.1137654797	-0.426215
H	 0.8496456088	 1.7550959452	-0.6332094056	 0.12008
H	-0.2456279425	 0.7288590073	-1.5801106782	 0.13205
H	-0.9013087619	 1.9506191362	-0.4757758741	 0.109935
H	 0.6814383068	-0.5663583275	 0.3543482436	 0.150958
H	 0.0993890558	 0.6683207498	 1.4787187703	 0.104698
H	-2.1832897921	-0.0681569478	 0.8653132667	 0.241329
H	-2.9392545948	-2.8188501446	 1.5310765966	 0.136985
H	-3.6171835759	-1.7336793691	 0.324152661	 0.106025
H	-3.0084346649	-3.362476943	-1.4766713616	 0.091504
H	-2.2651884161	-4.412608032	-0.2613962857	 0.115857
H	-4.4783873081	-5.0022088443	-0.6438077964	 0.286676
