15
gdb 49053	2.37333	1.70607	1.23668	4.8306	67.41	-0.2367	-0.0486	0.1881	1005.5464	0.112895	-453.934278	-453.926535	-453.925591	-453.966764	28.575	
O	-0.8547601384	 1.1423488577	 0.5718688866	-0.258057
C	 0.125939048	 0.9370651121	-0.1016714956	 0.074586
C	 1.3181681057	 1.8319898845	-0.0833545468	 0.088427
N	 1.2803003109	 3.0244622062	 0.7815568189	-0.353504
C	 1.5160725351	 3.9266383528	-0.3771606393	-0.181471
C	 1.7794976578	 2.7101474501	-1.3049462629	-0.047975
N	 3.0796573983	 2.0562776182	-1.208557255	-0.331229
C	 2.7774195276	 1.2448413662	-0.1325705107	 0.411312
O	 3.4149207231	 0.4602391937	 0.5065146208	-0.33856
H	 0.1963322681	 0.0631932859	-0.7825352779	 0.098388
H	 0.3689972335	 3.125196751	 1.2175061853	 0.24318
H	 0.6286886287	 4.4851198804	-0.6964500552	 0.116225
H	 2.3495963177	 4.6231295218	-0.2414217265	 0.113753
H	 1.3239593668	 2.6925216878	-2.2950706208	 0.108309
H	 3.9819640171	 2.3358546717	-1.568434741	 0.256616
