17
gdb 36475	2.8692	1.07018	0.8584	3.9826	76.72	-0.3173	0.0062	0.3235	1315.1593	0.136752	-380.893713	-380.885038	-380.884094	-380.927992	31.028	
N	 0.11566348	-1.1863295567	-0.1321846956	-0.301267
C	 0.0346263064	-0.0387835103	-0.0240175963	 0.262915
C	-0.0314266245	 1.4151966512	 0.1094701419	-0.376206
C	 1.360791454	 2.0482344037	 0.0252211092	 0.026965
C	 2.1397040581	 2.0013839243	-1.3149845774	-0.224048
C	 2.6157561787	 3.4543485068	-1.058205654	-0.226185
C	 1.4787493381	 3.6171521241	 0.0084771941	-0.198363
C	 0.2963541785	 4.2958590375	-0.4991201801	 0.282427
N	-0.6525246206	 4.8141597701	-0.9105728742	-0.329181
H	-0.6810590004	 1.8161111401	-0.6764996165	 0.173228
H	-0.5081191884	 1.6598371247	 1.0661140931	 0.160032
H	 1.982489251	 1.6702479117	 0.8410404637	 0.110846
H	 2.9006096292	 1.2274824936	-1.4209033577	 0.126194
H	 1.4606718317	 1.9454143731	-2.1706693216	 0.127274
H	 3.5957657342	 3.4986461193	-0.5789277852	 0.123623
H	 2.5960822596	 4.1501804918	-1.8968545806	 0.13308
H	 1.7677787642	 4.0769599549	 0.9564691573	 0.128664
