16
gdb 27417	2.39296	1.75085	1.10471	3.0042	83.22	-0.2361	-0.084	0.152	1087.2148	0.125169	-396.9428	-396.934895	-396.933951	-396.975355	29.585	
C	-0.347654404	 1.4475963491	 0.1008612437	-0.470583
C	-0.0150476438	-0.0134082571	-0.0760873533	 0.270061
N	-0.2697245359	-0.572061386	-1.2012837969	-0.294307
C	 0.0386745596	-1.911306766	-1.508151559	 0.280421
N	 0.5678440566	-2.2576255461	-2.6151652091	-0.494564
C	-0.4209716289	-2.9345054997	-0.5548613457	-0.084434
C	-0.2500478938	-2.856972008	 0.7783989502	 0.001575
N	 0.4360156047	-1.88803217	 1.4910110954	-0.212692
C	 0.5809674035	-0.6733151779	 1.1062679804	-0.019398
H	 0.5564012566	 2.0187107809	 0.3443437093	 0.142028
H	-0.7870559859	 1.8424794159	-0.8149774833	 0.150908
H	-1.0466134181	 1.5918381923	 0.9326443589	 0.14458
H	 0.7673423495	-1.4233147276	-3.1736433804	 0.2194
H	-0.8561048547	-3.8316354849	-0.984343253	 0.128516
H	-0.5789819412	-3.6850779095	 1.4009031674	 0.121027
H	 1.1408082759	-0.0178171955	 1.7785948151	 0.117463
