15
gdb 1657	4.84899	1.73711	1.36438	1.731	53.94	-0.2754	-0.0401	0.2353	864.0085	0.122466	-382.804482	-382.796345	-382.795401	-382.83716	28.54	
C	-0.1972736276	 1.5318706875	 0.0902465845	-0.40548
C	 0.0495980235	 0.0238983592	-0.0536360709	 0.061905
O	 0.8318733319	-0.2312405758	-1.1896047424	-0.435271
C	 0.7085218943	-0.5798150552	 1.1813652704	 0.332585
O	 1.7421800844	-1.2119138339	 1.0701219553	-0.342978
C	 0.0755135855	-0.423775474	 2.5525348715	-0.130115
O	 0.7588902319	-1.1622901472	 3.5210262224	-0.418289
H	 0.7410109029	 2.0583524218	 0.2880239849	 0.13251
H	-0.6092501648	 1.9098093788	-0.8482633321	 0.143179
H	-0.908459269	 1.7515209725	 0.89198542	 0.121443
H	-0.9305897307	-0.4785610828	-0.1491930599	 0.09796
H	 1.5635734549	-0.7919539754	-0.8894801681	 0.29579
H	 0.064338694	 0.650861153	 2.8013872031	 0.125725
H	-0.9794766103	-0.7345697597	 2.4906508726	 0.123645
H	 1.5329516489	-1.5313777089	 3.0687515887	 0.297389
