23
gdb 58945	2.49514	1.29548	1.07905	1.2799	85.4	-0.2389	0.0755	0.3145	1263.1216	0.204763	-388.266795	-388.256979	-388.256035	-388.301149	37.615	
C	 0.0434931323	 1.4985675805	-0.1289970397	-0.387081
C	 0.0237529994	-0.0247087302	 0.0819889775	-0.082305
C	 0.8141121247	-0.4225949502	 1.3378218687	-0.390952
C	-1.3987568051	-0.5398129463	 0.1065880961	 0.356482
C	-2.4319043416	-0.2591124709	 1.2156501227	-0.2851
C	-2.9708042263	-1.7167120383	 1.0805296931	-0.218107
C	-1.9603122636	-1.9826305814	-0.0393337474	-0.19237
C	-2.1193845125	-0.9606294143	-1.1312541433	 0.04659
O	-3.3513467498	-0.3810637562	-1.4647187288	-0.427455
H	 1.0703788451	 1.8736808469	-0.1923605625	 0.106201
H	-0.4803692647	 1.7780634859	-1.0481659371	 0.120831
H	-0.4471957757	 2.0143495755	 0.7043436959	 0.116507
H	 0.5205048439	-0.4907747432	-0.7808727924	 0.067263
H	 0.4011617438	 0.0486956785	 2.2364128706	 0.114607
H	 0.7979143456	-1.5065958179	 1.4894051439	 0.111156
H	 1.8593139082	-0.106953527	 1.2544620935	 0.108316
H	-1.9724668982	-0.0778037541	 2.1892887288	 0.098176
H	-3.1418269709	 0.5424076957	 1.0001743742	 0.108949
H	-2.7782738215	-2.3155025621	 1.9730911374	 0.098868
H	-4.0254248319	-1.8204969518	 0.807935973	 0.089909
H	-1.4342549826	-2.916489893	-0.2094547911	 0.076552
H	-1.4597613051	-1.1221926901	-1.9860439729	 0.077951
H	-3.8997729936	-1.0614694459	-1.8692005104	 0.285011
