13
gdb 9155	7.93965	0.77366	0.7111	3.8055	74.91	-0.2896	-0.1035	0.186	1486.0712	0.09339	-361.465748	-361.457183	-361.456239	-361.499873	28.516	
C	-0.0598836339	 1.5193027422	 0.0974334681	-0.390546
C	 0.0335415174	 0.0030996854	-0.0519308579	-0.285375
C	 0.7555140384	-0.4286675541	-1.3114940369	 0.195501
O	 1.2191521773	 0.3320603719	-2.1300449045	-0.265029
C	 0.8721197028	-1.8738893507	-1.5020751767	 0.006251
C	 0.9748565136	-3.0676810271	-1.6705165072	 0.160365
C	 1.088179114	-4.415150266	-1.8561318414	 0.211234
N	 1.1817727949	-5.5627029314	-2.0092600637	-0.318118
H	 0.9344056595	 1.97137478	 0.1295934548	 0.139952
H	-0.595018371	 1.9633171592	-0.7454727761	 0.139969
H	-0.5883597471	 1.7764881832	 1.0187695045	 0.120987
H	 0.5526589015	-0.4588903278	 0.7993768375	 0.142405
H	-0.9596935175	-0.4669627749	-0.0647047505	 0.142405
