19
gdb 108378	2.28763	1.62173	1.17909	0.6909	71.98	-0.2185	0.0643	0.2828	1115.2723	0.156006	-460.090998	-460.081518	-460.080573	-460.125101	35.074	
C	-0.7111412583	 0.4716811211	 0.4740175788	-0.25082
O	-0.4582208714	 0.5828380556	-0.9178451602	-0.266356
C	 0.4410132085	-0.3170575488	-1.4184791255	 0.306436
C	 0.1955095387	-1.8158381454	-1.5918570552	-0.16046
O	 1.5989709784	-2.1075799888	-1.3429459982	-0.282741
C	 1.8746509283	-0.7309207239	-1.0774276814	-0.076284
C	 1.5925491739	 0.1297846938	-2.2971324354	 0.309311
C	 1.8368307913	-0.3311796922	-3.7134685222	-0.47215
O	 1.8468302226	 1.4889022533	-2.0553088572	-0.457219
H	-1.1623859116	-0.4946594322	 0.7368982342	 0.111287
H	 0.2119180456	 0.5996117503	 1.0538059689	 0.116273
H	-1.4125808097	 1.2688747024	 0.7282721271	 0.132553
H	-0.4307337516	-2.2476828368	-0.8027946575	 0.113133
H	-0.1450193933	-2.173826366	-2.5695228558	 0.110022
H	 2.581707301	-0.4760663516	-0.295884864	 0.106968
H	 1.7329894517	-1.4147133843	-3.7992486542	 0.139584
H	 1.14604794	 0.1554335374	-4.4087015933	 0.128556
H	 2.8596638678	-0.0772901501	-4.0184524175	 0.107647
H	 2.785663928	 1.6374117263	-2.2162555813	 0.284262
