21
gdb 69662	3.43092	1.37968	1.1608	0.6029	89.92	-0.2168	0.0236	0.2404	1143.9369	0.183822	-349.92085	-349.912993	-349.912049	-349.952706	32.112	
C	 0.1369100984	 1.6061432211	 0.305006238	-0.495599
C	 0.0560365104	 0.1323208405	 0.0279242274	 0.317728
C	-0.9386276795	-0.7666324268	 0.6988774891	-0.317579
C	 0.5422139157	-1.0680477619	 0.8895814798	-0.237286
C	 0.9663545544	-1.7640139994	-0.3700635166	 0.337048
C	 1.054762079	-2.8853015085	-1.07809058	-0.247701
C	 0.8264876809	-2.5412636961	-2.5540816447	-0.232738
C	 0.1013684942	-1.150257215	-2.5024895159	-0.262997
C	 0.6973772279	-0.5496155323	-1.2191337392	-0.074462
H	 1.144221946	 1.9934309716	 0.1136720105	 0.116133
H	-0.5595618413	 2.1664938655	-0.3310897576	 0.12026
H	-0.1170783177	 1.8308446123	 1.3464140436	 0.115912
H	-1.4308594522	-0.3318279562	 1.5648019978	 0.107916
H	-1.5575104245	-1.4608351328	 0.1372042421	 0.110826
H	 0.999925991	-1.0818750816	 1.8712166061	 0.0912
H	 1.1967987838	-3.8988961129	-0.7218954432	 0.089129
H	 1.7710166744	-2.4709925228	-3.1138681123	 0.100802
H	 0.2247469632	-3.3026199464	-3.0628643905	 0.099334
H	 0.2602020841	-0.5542728464	-3.4059066137	 0.088695
H	-0.9765086585	-1.3128250672	-2.3884121854	 0.09943
H	 1.6353667904	-0.0166779447	-1.4351019254	 0.073949
