17
gdb 38477	3.57175	1.70539	1.55022	1.5204	71.18	-0.2359	0.0686	0.3046	887.353	0.137305	-421.712017	-421.705832	-421.704887	-421.74216	26.555	
C	-0.036047183	 1.6116564411	 0.1868375873	-0.259621
C	 1.4464133484	 1.2394888061	 0.0863562139	-0.020874
O	 1.154247109	 0.0164902256	 0.9145317849	-0.371789
C	 0.0914852184	 0.0936261647	-0.1278183034	 0.41979
C	-0.9488311912	-0.8420617958	-0.7105911262	-0.402673
C	-0.8466048337	-0.4296367181	-2.1978573459	 0.061408
O	-0.9284350014	 0.9795546326	-2.4378537256	-0.244056
C	 0.375217325	 0.3909833942	-2.4704098908	-0.03664
C	 1.1682824989	 0.3512776137	-1.1782311141	-0.015339
H	-0.3738931335	 1.8326614064	 1.2001824443	 0.101242
H	-0.4710264872	 2.2557686642	-0.5736737591	 0.128205
H	 2.3413699253	 1.7950459053	 0.3670623365	 0.094552
H	-0.6631546495	-1.8943872202	-0.6048361781	 0.126828
H	-1.9569175548	-0.7077564112	-0.309410349	 0.124038
H	-1.316267142	-1.0496848748	-2.9575883611	 0.102498
H	 0.8567729199	 0.3985333206	-3.4449795014	 0.101023
H	 1.8955180416	-0.4642961145	-1.2445907822	 0.091409
