17
gdb 49082	2.87689	1.78054	1.26898	3.9509	73.02	-0.2256	-0.0262	0.1994	977.2773	0.138231	-417.938604	-417.931686	-417.930742	-417.969898	27.655	
O	 0.0300307524	-0.0414251808	 0.1938099735	-0.267744
C	 0.073784525	 1.1205948182	-0.1360434557	 0.061913
C	 1.3361597111	 1.9135842069	-0.1404567964	 0.309194
N	 2.5656862976	 1.1850497265	 0.0315048354	-0.372244
C	 3.5697418628	 2.2657585946	 0.178542284	-0.196259
C	 2.6935465429	 3.4792625944	-0.1137347136	-0.05601
C	 1.5982781128	 3.0654593135	-1.159288966	-0.073398
N	 0.5396364955	 3.902762117	-0.4934953062	-0.338665
C	 1.3362196722	 3.3078916571	 0.635460043	-0.092912
H	-0.8305348694	 1.6919204432	-0.4196983367	 0.108255
H	 2.5212651543	 0.541834817	 0.8120509253	 0.233688
H	 4.0074598678	 2.3086505564	 1.1837419834	 0.104055
H	 4.3887604943	 2.1498881619	-0.5406875592	 0.112317
H	 3.1450813774	 4.4710093008	-0.1790843635	 0.074559
H	 1.6863560619	 2.9718151712	-2.2426455931	 0.092081
H	 0.7840813131	 4.8916878815	-0.5925715003	 0.21304
H	 1.1003439083	 3.4935300005	 1.6849599161	 0.088128
