23
gdb 121267	3.84778	0.90961	0.81232	0.8192	85.95	-0.2493	0.089	0.3383	1509.1791	0.207091	-388.283794	-388.274749	-388.273805	-388.31794	34.427	
C	 0.0023831151	 1.3849703127	-0.0225605944	-0.223544
O	 0.0486728779	-0.0199206011	-0.0210000161	-0.23472
C	 0.6515784313	-0.550525335	 1.1420708236	-0.064103
C	 0.6618900565	-2.0691271756	 1.0394437479	 0.006514
C	 1.476669457	-2.611400895	-0.1604884268	-0.226433
C	 1.9144039937	-4.0349965809	 0.25316955	-0.221422
C	 2.0293647464	-3.9816013471	 1.7710930078	-0.029438
C	 2.7693587629	-2.8138248318	 2.3745447524	-0.290042
C	 1.2615216327	-2.7707251187	 2.2543137733	-0.045177
H	 1.0100715606	 1.829180238	 0.0208982544	 0.100729
H	-0.4805032631	 1.6983914132	-0.9517233093	 0.124083
H	-0.5780734759	 1.7769595584	 0.8284144522	 0.10061
H	 1.6828318495	-0.1701014553	 1.247588904	 0.080923
H	 0.0961140349	-0.2277006075	 2.0402146247	 0.079023
H	-0.380983131	-2.3987365622	 0.9392851573	 0.07702
H	 0.9024753107	-2.5955257263	-1.088481536	 0.107512
H	 2.3531439722	-1.9755769502	-0.3281588013	 0.098702
H	 1.1437673811	-4.7658301225	-0.0213640955	 0.097334
H	 2.8408366454	-4.3453284026	-0.2428384103	 0.093648
H	 2.0053864712	-4.9128594436	 2.3266125336	 0.077781
H	 3.1785478732	-2.948221254	 3.3698983198	 0.106397
H	 3.3775123065	-2.1823747777	 1.7347570522	 0.107521
H	 0.6769764813	-2.8063250454	 3.1676371568	 0.077082
