22
gdb 14996	3.99234	1.38046	1.10692	1.1829	78.6	-0.2419	0.0892	0.331	1153.6552	0.201949	-350.229994	-350.221684	-350.22074	-350.26256	32.024	
C	-0.0528124975	 1.5652107369	 0.0049714484	-0.385495
C	 0.0140554461	 0.0361288186	-0.0115440404	-0.186076
C	 0.7196669605	-0.526611811	-1.2423132873	 0.156543
C	 0.8677506709	-2.0531437106	-1.2085619605	-0.198516
C	 1.4824154995	-2.571682055	-2.5163403511	-0.211676
C	 0.7017066532	-2.0271321628	-3.7206210616	-0.192169
C	 0.5658149687	-0.5073917179	-3.6093507513	-0.06204
O	-0.0323579921	-0.1219862252	-2.3843617205	-0.26086
H	 0.9512743793	 2.0041962441	 0.0220866871	 0.107462
H	-0.5651127646	 1.9356530942	-0.886129012	 0.133978
H	-0.5891930024	 1.9271730027	 0.8874220843	 0.106576
H	 0.5380665221	-0.3298082744	 0.8800567374	 0.090925
H	-0.9989544299	-0.3835660227	 0.0229379123	 0.101015
H	 1.7305099426	-0.0799603964	-1.3119934289	 0.052962
H	 1.4824101086	-2.3440958859	-0.3487709459	 0.089892
H	-0.1263266338	-2.4957988445	-1.0627852762	 0.097328
H	 2.5275619332	-2.2386941982	-2.5825600004	 0.09335
H	 1.5019602646	-3.6666984873	-2.5271562726	 0.093378
H	 1.1963774629	-2.2877005067	-4.6635154441	 0.090701
H	-0.3018949731	-2.4696523014	-3.7446913518	 0.101335
H	 1.5601609352	-0.036268777	-3.7079559136	 0.080193
H	-0.0734897938	-0.1043455695	-4.4009134211	 0.101194
