25
gdb 87986	2.42601	1.24546	1.18695	0.0787	92.81	-0.2509	0.0829	0.3339	1280.3618	0.227296	-352.347195	-352.336977	-352.336033	-352.381776	39.631	
C	-0.0565401224	 1.3385729755	-0.3205660432	-0.408381
C	 0.2776175817	-0.1215604689	-0.1073473968	-0.057107
C	 1.7046951154	-0.5642715292	 0.1292313817	-0.36144
C	 0.6952999952	-0.631166776	 1.2430907013	 0.350599
C	 0.7839669965	 0.1486440822	 2.5617241667	-0.307339
C	 0.6102456915	-1.1957474145	 3.3230342721	-0.258567
C	 0.2205316558	-1.9107403899	 1.9858713556	 0.265426
C	-1.2908326783	-2.1271964358	 1.8646083725	-0.432802
C	 0.9808898976	-3.1989449871	 1.6859638819	-0.449813
H	 0.5747904829	 1.982462847	 0.3002944681	 0.115068
H	 0.0964707029	 1.6333550408	-1.3648299149	 0.11458
H	-1.1003938579	 1.5532684069	-0.0639485589	 0.113515
H	-0.3255080498	-0.8089569029	-0.6980119934	 0.075781
H	 2.0411927354	-1.4890205929	-0.3292115783	 0.105175
H	 2.4709491486	 0.2043997031	 0.1905972449	 0.101529
H	 1.7143856939	 0.6918162123	 2.74798698	 0.095322
H	-0.0504302115	 0.8406271611	 2.7155554053	 0.098571
H	 1.5522253263	-1.5699272556	 3.7331607056	 0.095312
H	-0.1440720729	-1.216389868	 4.1142156471	 0.09087
H	-1.8459330054	-1.2098735045	 2.0870159615	 0.109966
H	-1.5669972845	-2.444481576	 0.8526093054	 0.108697
H	-1.6307272916	-2.9028112281	 2.5609668062	 0.106986
H	 0.6959554423	-3.990402498	 2.3891434103	 0.108868
H	 0.7657968877	-3.5665919468	 0.6751820868	 0.107581
H	 2.0624218806	-3.0513089046	 1.7657768424	 0.111602
