19
gdb 86623	2.43839	1.4671	1.34462	1.399	70.76	-0.2558	0.0677	0.3235	1069.288	0.158624	-460.122002	-460.113374	-460.11243	-460.155352	32.59	
C	 0.6666025967	 1.2841642727	-0.4332493059	-0.41212
C	 0.1161563536	-0.0489898405	 0.0275626147	 0.113536
O	 0.6599728907	-1.1716887032	-0.723239531	-0.312406
C	 1.215866778	-1.7890004896	 0.4503820681	 0.056405
C	 2.7166893779	-1.9315366296	 0.4006554272	 0.048436
C	 3.4610768857	-1.7022944705	-0.8429987818	-0.169817
O	 3.4623824823	-0.7174855797	 0.1994641771	-0.25577
C	 0.6572580986	-0.6486520204	 1.3597002083	 0.056866
O	 1.5521509353	 0.0938863546	 2.1323308493	-0.430129
H	 1.7591769589	 1.2854537659	-0.4074549214	 0.128514
H	 0.3486077264	 1.4836519701	-1.4611771898	 0.12332
H	 0.2945527199	 2.0909344429	 0.2060809979	 0.12541
H	-0.9797844657	-0.0547240095	-0.0345832031	 0.076873
H	 0.7746357075	-2.7790022395	 0.6327359205	 0.077127
H	 3.1449619109	-2.5892490777	 1.1569532096	 0.106164
H	 4.4149945811	-2.2014623082	-0.9999361652	 0.120497
H	 2.9013223273	-1.4249478289	-1.7313287884	 0.141749
H	-0.1331218192	-0.9779789476	 2.0373944982	 0.096435
H	 2.3262898142	 0.2897307688	 1.5892668857	 0.308909
