21
gdb 92332	2.04832	1.89946	1.2495	0.4693	76.87	-0.2464	0.0532	0.2996	1083.4544	0.183447	-424.217985	-424.209453	-424.208509	-424.251213	33.309	
C	-0.0869660888	 1.5735442501	-0.2261998093	-0.418959
C	 0.0789293603	 0.063597288	-0.047692197	 0.016162
C	 0.8749172446	-0.656909038	-1.1478414643	-0.105874
O	 1.1955830947	-1.935487346	-0.617397648	-0.259001
C	 1.4048561741	-1.8019217656	 0.7829899127	 0.106643
C	 2.8173577001	-1.303742553	 1.1919044084	-0.288685
C	 2.2177778965	 0.0611897755	 1.6297114547	 0.120694
O	 2.7618216083	 1.2258289657	 1.0453996243	-0.423971
C	 0.7788081456	-0.4423109186	 1.2266078365	-0.094258
H	 0.8699847896	 2.0954968362	-0.1896673804	 0.132006
H	-0.5759581524	 1.7973070825	-1.1808675007	 0.109453
H	-0.7154305967	 1.9887636008	 0.5680640327	 0.117464
H	-0.9197734519	-0.3931526761	-0.0424246834	 0.085023
H	 0.3095524947	-0.8092387722	-2.071766771	 0.111058
H	 1.7875329967	-0.0906496429	-1.4113921349	 0.064814
H	 1.0640102285	-2.7238687934	 1.25821784	 0.077901
H	 3.3067444317	-1.8738706906	 1.9852274738	 0.106159
H	 3.5055454894	-1.2365214961	 0.3428590525	 0.102225
H	 2.2820626922	 0.2304451458	 2.7077442429	 0.091702
H	 2.9822593828	 1.0311738792	 0.1286430686	 0.281494
H	 0.0956027101	-0.4753404713	 2.0778258318	 0.067948
