25
gdb 100058	2.82959	1.07997	0.97511	1.4649	88.4	-0.2403	0.0765	0.3167	1394.2985	0.227257	-389.483774	-389.473076	-389.472132	-389.519448	39.835	
C	 0.0104181162	 1.4957669369	 0.2437710231	-0.40743
C	 0.0522328494	-0.0082132043	-0.0480398893	-0.181077
C	 0.7480481252	-0.4476358236	-1.3646399592	 0.236172
C	-0.0172419685	 0.0701157379	-2.5955220164	-0.42136
C	 2.206646451	 0.0400156184	-1.396899014	-0.428005
C	 0.6859739771	-1.9853937334	-1.3869111605	 0.167259
C	 1.4328660186	-2.8036759363	-2.4677889473	-0.314366
C	 2.113976166	-3.492095419	-1.2700898097	-0.062587
O	 1.4685297407	-2.6058610907	-0.3334192992	-0.300844
H	 1.011174145	 1.9190947945	 0.3710708339	 0.118336
H	-0.4914492594	 2.0577975516	-0.5505807494	 0.113223
H	-0.5403285783	 1.6829740897	 1.1711557815	 0.11278
H	 0.5514096855	-0.5218346894	 0.7815063963	 0.116689
H	-0.9772721585	-0.3907133278	-0.0668161006	 0.085882
H	-0.0148915599	 1.1631747636	-2.6334311879	 0.117058
H	 0.4382693707	-0.2884577575	-3.5250694432	 0.11068
H	-1.0620144532	-0.2613103377	-2.5845964623	 0.108761
H	 2.7674958616	-0.3702022852	-0.5529263395	 0.127568
H	 2.7127660312	-0.2597389892	-2.3203636102	 0.104282
H	 2.2578849001	 1.1310956101	-1.349091831	 0.111936
H	-0.36873083	-2.2877864802	-1.295495037	 0.064334
H	 0.8072904785	-3.4383523762	-3.0968766506	 0.10745
H	 2.1058029247	-2.2263700546	-3.1030183542	 0.110802
H	 1.8212601337	-4.5375504233	-1.1081194952	 0.099578
H	 3.2063962824	-3.4180116743	-1.216550088	 0.102877
