17
gdb 68822	2.83706	1.32969	1.1199	0.6188	68.87	-0.2267	-0.0275	0.1992	1107.4776	0.13295	-458.92719	-458.918145	-458.917201	-458.961073	33.233	
O	-0.0145650614	 1.420547459	-0.0007333431	-0.460042
C	-0.0438461443	 0.0418920514	-0.0404834099	 0.37383
C	-0.3438935384	-0.8765919651	 1.1106266764	-0.419854
C	-1.156834904	-1.0029717293	-0.1721440849	 0.322358
O	-2.5260978142	-0.8424788136	-0.1933868894	-0.465493
C	-0.3564131542	-1.7411223989	-1.2427222692	-0.161464
C	 0.8001430713	-0.6782745164	-1.0878691994	-0.306018
C	-0.0357082484	-3.195782956	-1.0232003002	 0.139575
O	-0.5679066344	-3.8873875027	-0.1897410246	-0.250482
H	-0.54628346	 1.7229024277	 0.7425005542	 0.290641
H	 0.3439982278	-1.6460983054	 1.4558923834	 0.114263
H	-0.9247029074	-0.4082690899	 1.9024162866	 0.107949
H	-2.9208243118	-1.6096053557	 0.2386727417	 0.293738
H	-0.8155809286	-1.6414202896	-2.2339053412	 0.111716
H	 0.9379435276	-0.0827639683	-1.9915115152	 0.124414
H	 1.770229062	-1.0528220375	-0.7461143307	 0.106958
H	 0.7449032083	-3.6165529197	-1.6995243845	 0.07791
