20
gdb 14034	4.35345	1.61411	1.49503	0.1074	79.05	-0.234	0.03	0.2639	938.9698	0.178985	-311.872566	-311.865395	-311.864451	-311.903926	28.682	
C	 0.1626428737	 1.3585554649	-0.5822653861	-0.208338
C	 1.4226865082	 1.6153659032	 0.2852049156	-0.255676
C	 1.316127621	 0.151487508	 0.823616468	 0.381237
C	-0.1533541112	 0.1318922328	 0.3144433033	-0.278241
C	 2.2864100625	-0.8156879451	 0.0912058972	-0.312945
C	 3.3742517343	-1.0555114671	 1.110487607	-0.061687
C	 3.0084949468	-0.6528586145	 2.3264809631	-0.058308
C	 1.6156706283	-0.0700295795	 2.323432906	-0.341547
H	-0.5845730361	 2.1538522509	-0.6323927751	 0.093734
H	 0.4187466272	 1.0629506018	-1.6034701119	 0.101269
H	 2.3490787714	 1.8953890929	-0.2239821733	 0.094292
H	 1.2264181996	 2.3473080441	 1.0751885324	 0.092496
H	-0.8582430571	 0.3846247974	 1.113225255	 0.094654
H	-0.4997765377	-0.7834943182	-0.1744228647	 0.08967
H	 1.7882321487	-1.7626721925	-0.1673168625	 0.099876
H	 2.6595835858	-0.4000565148	-0.8526618148	 0.098039
H	 4.3133919396	-1.5388503174	 0.8638786384	 0.08716
H	 3.6028063293	-0.755605201	 3.227935533	 0.087596
H	 1.5297660049	 0.8590308063	 2.9001867582	 0.095916
H	 0.8994481809	-0.7756165722	 2.7727753211	 0.100805
