19
gdb 41833	2.35956	2.17225	1.90896	1.546	77.84	-0.2276	0.0091	0.2368	868.883	0.164065	-385.895429	-385.889099	-385.888155	-385.925605	27.46	
C	 0.0299557577	 1.5148683729	 0.1347691685	-0.082427
O	 1.3139734649	 2.1068384011	-0.0271463554	-0.269481
C	 2.1189870303	 1.476834921	-1.032576672	 0.040626
C	 2.5286884739	 0.0907569013	-0.5075499599	-0.222996
C	 1.2772134676	-0.7397096486	-0.3288716348	-0.061718
C	 0.0052285522	-0.0023971383	-0.0246401135	-0.072717
C	 0.2249752724	-0.595234273	-1.4218129351	-0.084865
C	 0.521492096	 0.3486136572	-2.5235985432	-0.042308
C	 1.4007377986	 1.3425122199	-2.3599444039	-0.113868
H	-0.2944214429	 1.7867208395	 1.1444215496	 0.105101
H	-0.6804818293	 1.9670022311	-0.5748419269	 0.093804
H	 2.9941568959	 2.1241497837	-1.1284988681	 0.078557
H	 3.2202410753	-0.3921245062	-1.2083184489	 0.097176
H	 3.0457849988	 0.2200429445	 0.4488526641	 0.104022
H	 1.40257312	-1.7290290197	 0.0992066213	 0.084394
H	-0.7321919777	-0.5072514548	 0.5917719726	 0.087156
H	-0.3626858282	-1.4712667159	-1.6721442965	 0.080089
H	-0.0166643796	 0.2242833895	-3.4590979417	 0.09058
H	 1.6003826943	 2.0620097248	-3.1464382259	 0.088876
