20
gdb 89085	4.04527	0.64594	0.59905	3.6692	81.04	-0.2481	0.0212	0.2693	1844.7966	0.170948	-399.30234	-399.292392	-399.291448	-399.338606	35.106	
C	-0.6002140807	 1.0812812637	 1.0447053929	-0.399895
C	 0.0013554813	-0.1439940093	 0.3980051216	 0.014279
N	 1.1036554169	 0.0681436799	-0.5546792982	-0.343451
C	 1.3661311196	-0.6778081457	 0.6843349172	-0.044522
C	 2.3323101017	-0.0480885914	 1.659674532	-0.136152
N	 2.14322325	-0.6203177076	 2.9917241442	-0.304064
C	 3.0596485864	-0.0623506435	 3.9768846121	-0.257504
C	 2.8158370852	-0.6279254971	 5.3069916416	 0.256519
N	 2.6094540807	-1.054928856	 6.3600521821	-0.29779
H	 0.1633438786	 1.824217525	 1.2852675273	 0.127549
H	-1.3173224101	 1.5558269939	 0.3666173089	 0.126824
H	-1.1362068613	 0.8170606534	 1.9633874858	 0.115326
H	-0.7320309918	-0.9037707489	 0.1288542189	 0.086465
H	 1.0303771452	-0.5652921378	-1.3453624497	 0.23394
H	 1.4750031474	-1.7589352546	 0.6137185654	 0.092876
H	 3.3592778496	-0.2704068059	 1.3395306363	 0.111265
H	 2.2311094795	 1.0494686667	 1.6329868387	 0.096393
H	 1.1858766241	-0.4719806317	 3.29527856	 0.233145
H	 4.087559831	-0.3078242047	 3.6810076177	 0.15721
H	 3.0177910465	 1.0395503417	 4.0644536851	 0.131587
