17
gdb 32343	4.78859	1.00618	0.83712	5.2852	81.83	-0.186	-0.0322	0.1538	1333.7075	0.138392	-418.068279	-418.060211	-418.059266	-418.100883	30.909	
C	-0.0116876631	 1.4518003912	 0.1029317273	-0.324811
N	-0.1337809812	 0.0143515012	-0.0315861134	-0.372793
C	 0.5596858142	-0.6292886181	-1.0663176881	 0.258421
C	 1.1645233902	 0.0202645564	-2.1049986441	-0.055178
N	 1.7603431209	-0.6935091045	-3.1167507445	-0.367144
C	 1.8546095644	-2.0852684305	-3.2060276074	 0.417563
O	 2.4214955853	-2.618952232	-4.1495786635	-0.412322
C	 1.2161233393	-2.7526431185	-2.0826131217	-0.237184
C	 0.6039061584	-2.0617298567	-1.0872351216	-0.109609
H	 1.0320450874	 1.8040619701	 0.1662177775	 0.110135
H	-0.4809880034	 1.9489115634	-0.7540636415	 0.133535
H	-0.5418845264	 1.7725078996	 1.0021233995	 0.128134
H	-0.0424161278	-0.4714938083	 0.8494475146	 0.235864
H	 1.2035548698	 1.0959705996	-2.2010247177	 0.120948
H	 2.1938312553	-0.2001608616	-3.8840041034	 0.257184
H	 1.2489245764	-3.8351100619	-2.0885811927	 0.115891
H	 0.1221717704	-2.5987301295	-0.2732361693	 0.101367
