23
gdb 60053	2.29407	1.18357	0.95953	2.7722	82.31	-0.2509	0.0803	0.3313	1378.0373	0.203151	-425.425692	-425.415245	-425.414301	-425.460892	39.439	
C	 0.1864058185	 1.5826568569	-0.0892367195	-0.382411
C	 0.5326722774	 0.1023895842	 0.0140681034	 0.148408
O	 1.9470556022	-0.0029422823	-0.0355935187	-0.442867
C	-0.0223729173	-0.5241493945	 1.3098067403	-0.307416
C	 0.1622102367	-2.0407876918	 1.3975592691	 0.382539
C	-1.0839315315	-2.8595063782	 1.1382530556	-0.458819
O	 1.3424746803	-2.5879125004	 0.7424449743	-0.307584
C	 1.26056515	-2.6462661448	 2.1783861271	 0.034574
C	 2.2917692054	-1.8635846213	 2.9492503903	-0.438863
H	 0.5905705197	 2.1292614009	 0.769254949	 0.117698
H	 0.6260266383	 2.0050730962	-0.9966212579	 0.123896
H	-0.8968889176	 1.7337571816	-0.1217902341	 0.106185
H	 0.0848234087	-0.4246454558	-0.8463007032	 0.063766
H	 2.1400024669	-0.9489686042	 0.0365930737	 0.29181
H	 0.4560692748	-0.0198952551	 2.1555659604	 0.10881
H	-1.0946471084	-0.3094694246	 1.3792342321	 0.098039
H	-1.5136095393	-2.6068519378	 0.1624836984	 0.128063
H	-0.8562895348	-3.9282271515	 1.1449445521	 0.126995
H	-1.8439707733	-2.655563284	 1.9002672338	 0.123077
H	 1.0877911281	-3.6593938631	 2.5477439958	 0.086758
H	 2.4906692882	-0.9014280741	 2.4728589424	 0.146315
H	 1.9558573499	-1.6928557063	 3.9780963424	 0.122138
H	 3.2320541971	-2.42284144	 2.9939828231	 0.128891
