23
gdb 93498	2.56575	1.30937	1.04017	3.0388	85.07	-0.2321	-0.0095	0.2226	1258.3928	0.206258	-388.340895	-388.331536	-388.330591	-388.374723	36.205	
C	-0.0299268114	 1.5786305775	-0.0466102567	-0.417666
C	 0.0430760545	 0.0478528917	-0.0093975467	 0.046622
C	 0.6301240117	-0.5206741669	-1.3128425848	-0.208316
C	 0.6380694142	-2.0615642122	-1.3258411515	-0.304575
C	 1.2655135801	-2.6380120232	-0.0638783877	 0.39729
O	 2.1142802805	-3.4992634553	-0.0907465946	-0.31241
C	 0.7323087617	-2.0453882092	 1.2339341852	-0.313757
C	 0.7903371505	-0.4984383699	 1.2342666531	 0.010371
C	 2.2419927982	-0.0110263747	 1.3682564984	-0.399843
H	 0.9534069271	 2.0292258029	-0.2163249374	 0.119765
H	-0.6861507478	 1.9156026376	-0.8557605702	 0.113042
H	-0.4248318505	 1.9814833091	 0.892314162	 0.111767
H	-0.9897642962	-0.3251835337	 0.0689271875	 0.06696
H	 0.0562579455	-0.1508927384	-2.1700620062	 0.098805
H	 1.6533312592	-0.1496337794	-1.4502847753	 0.107889
H	-0.4000372693	-2.4221617913	-1.367560169	 0.113523
H	 1.1634831674	-2.464507241	-2.1949878245	 0.11564
H	-0.3154638529	-2.3621285703	 1.333983729	 0.108533
H	 1.2932849526	-2.4729999191	 2.0689901098	 0.111713
H	 0.2452678022	-0.1497010154	 2.121041174	 0.071863
H	 2.8708957457	-0.3485186019	 0.5376592846	 0.125634
H	 2.3004458345	 1.0798805904	 1.4124099709	 0.117085
H	 2.6882137224	-0.4039326271	 2.28740821	 0.120065
