21
gdb 32845	5.21742	0.76175	0.70124	1.3936	88.53	-0.1801	0.0571	0.2373	1697.1961	0.183073	-383.307432	-383.29752	-383.296576	-383.343212	36.062	
C	-0.2835128566	 1.656740334	-0.0563961713	-0.390848
C	-0.3949258027	 0.1912727511	-0.4624316426	-0.117097
N	-1.1085992926	-0.5807733118	 0.5698704694	-0.400819
C	-1.3075507139	-1.945451007	 0.2865599714	 0.323743
C	-0.6229279607	-3.0883213774	 0.639628241	-0.324196
C	-1.3204401621	-4.2079825764	 0.0869110521	 0.297359
C	-0.9419357337	-5.6531708513	 0.2101854389	-0.499832
C	-2.4024071773	-3.7021371157	-0.5950877735	-0.184094
N	-2.3878384334	-2.3309211825	-0.4696073452	-0.272412
H	 0.2236690415	 2.2367676353	-0.8329866599	 0.117479
H	-1.2740660617	 2.0883703937	 0.114049104	 0.124751
H	 0.2944877879	 1.7663248559	 0.8688348462	 0.113142
H	-0.9639428659	 0.1026889527	-1.3944567212	 0.104591
H	 0.6055756779	-0.2246289331	-0.6670878225	 0.0914
H	-0.6288698258	-0.4840812157	 1.4575615528	 0.226326
H	 0.2872498314	-3.1207738889	 1.2209799981	 0.075631
H	-0.9186850178	-5.9802251566	 1.2567812215	 0.119628
H	-1.6545856452	-6.2935243215	-0.3185344317	 0.114431
H	 0.0524439877	-5.853158835	-0.2071055798	 0.119275
H	-3.172639094	-4.203386086	-1.1596678828	 0.10658
H	-3.1046731031	-1.6978631738	-0.7783281847	 0.254961
