27
gdb 100673	2.61262	0.9913	0.89485	1.0442	92.51	-0.2475	0.077	0.3245	1529.0933	0.248365	-390.694954	-390.682763	-390.681819	-390.732051	44.793	
C	-0.141871311	 1.5857358543	-0.0478284879	-0.402387
C	 0.0972906295	 0.0710666997	-0.0067039118	-0.198027
C	 0.8105245364	-0.4744727833	 1.2575002694	 0.266506
C	 2.2663966991	 0.0263677939	 1.3258744408	-0.419598
C	 0.0601013365	-0.0300270762	 2.5294284595	-0.421169
C	 0.7763691691	-2.0318904173	 1.2164338673	 0.138517
C	 1.3863162201	-2.676854547	-0.033255263	-0.420044
O	 1.4469150961	-2.4988649176	 2.3867705162	-0.25246
C	 1.0516997071	-3.7716629497	 2.8354136231	-0.236527
H	 0.7920883469	 2.1491545595	 0.0411692598	 0.117796
H	-0.6028959248	 1.8679016897	-0.9997782076	 0.110204
H	-0.8109353676	 1.9190823831	 0.7504077962	 0.118989
H	-0.8713835488	-0.4380387226	-0.1096303654	 0.08625
H	 0.6820882999	-0.2057766009	-0.8911007699	 0.094859
H	 2.2998693921	 1.1087872261	 1.4813034421	 0.10711
H	 2.7947664333	-0.4497816835	 2.1549580868	 0.130816
H	 2.8156539369	-0.1898663496	 0.403668992	 0.104415
H	-1.002115452	-0.2979072112	 2.4752155638	 0.098097
H	 0.4870022394	-0.515025322	 3.4093375712	 0.126302
H	 0.1240930273	 1.0520156005	 2.6735596292	 0.107472
H	-0.2842695148	-2.3322334444	 1.278613024	 0.055422
H	 1.3541082894	-3.767264898	 0.0482062216	 0.113164
H	 0.834407204	-2.4055487794	-0.9365094879	 0.118633
H	 2.4317964216	-2.3828869669	-0.159691952	 0.124436
H	 1.3055399884	-4.5733276741	 2.1259743961	 0.104537
H	 1.5833965909	-3.9627285024	 3.7714842495	 0.124376
H	-0.031749125	-3.8171858708	 3.0293371369	 0.102309
