17
gdb 85228	2.76367	1.52197	1.10489	1.6791	67.9	-0.2476	-0.0334	0.2143	1089.0444	0.134577	-458.976017	-458.967546	-458.966601	-459.009198	31.782	
C	-0.3070588619	 1.4795884861	 0.1111558934	-0.494619
C	 0.1102314221	 0.0510624052	-0.0567004286	 0.288701
O	-0.7280414112	-0.977705789	 0.5322929539	-0.300297
C	 0.6245709635	-0.8562841402	 0.9869712565	-0.067827
C	 1.4919598158	-1.9576177998	 0.3907319532	 0.126331
O	 1.2204735611	-3.2233248429	 0.956106749	-0.435678
C	 1.231601799	-1.8569150968	-1.1356970111	-0.375915
C	 0.6778991234	-0.4500685568	-1.3708953306	 0.370481
O	 0.7339833398	 0.1938407912	-2.3866024201	-0.310296
H	 0.5402012036	 2.1469982186	-0.0712201834	 0.139227
H	-1.0881332032	 1.7323787183	-0.6114668514	 0.147789
H	-0.6888767347	 1.6526194385	 1.119703641	 0.132805
H	 0.7483021075	-0.5423403426	 2.0204080359	 0.10928
H	 2.5457130405	-1.7564618151	 0.610664399	 0.103473
H	 0.2675692886	-3.3612020279	 0.8886429061	 0.290342
H	 2.1194409688	-2.0283057036	-1.746207337	 0.136445
H	 0.4780360173	-2.5926307632	-1.4359228857	 0.139759
