19
gdb 120361	3.15601	1.03918	0.82963	3.1319	78.82	-0.2379	-0.0238	0.2141	1419.7672	0.157565	-423.043195	-423.033978	-423.033034	-423.078571	32.98	
C	 0.0442504313	 1.5377353072	 0.0723056903	-0.385258
C	-0.0650422526	 0.0256965345	-0.0206497378	-0.036512
O	 0.6825111404	-0.4034611751	-1.1459158521	-0.246801
C	 0.7294497589	-1.8012319657	-1.3179010925	-0.015973
C	-0.4145509189	-2.4035160145	-2.0966198755	-0.090266
C	-0.0007302887	-3.113805779	-3.1475907693	-0.075008
C	 1.4967004608	-3.1255118344	-3.2982360435	-0.371023
C	 1.9605717717	-2.1664806831	-2.1931623783	 0.375111
O	 3.0715842221	-1.7468084561	-2.0294124438	-0.288931
H	 1.0905010366	 1.8380246284	 0.1751991436	 0.134401
H	-0.3603661261	 2.0078945691	-0.8283379449	 0.128281
H	-0.5136316638	 1.9068672631	 0.9381387632	 0.114399
H	 0.3294004325	-0.4501610349	 0.8925852133	 0.091099
H	-1.1204274281	-0.2776745888	-0.1141618324	 0.086569
H	 0.8531373316	-2.2937834982	-0.3360583462	 0.090228
H	-1.4497723986	-2.2645083657	-1.808044842	 0.104853
H	-0.6550087114	-3.638707375	-3.8347809562	 0.105858
H	 1.9424060323	-4.1158477519	-3.1332873223	 0.13869
H	 1.8527660402	-2.7899372499	-4.2796078935	 0.140284
