21
gdb 116142	3.14487	1.10986	0.86483	1.5556	83.01	-0.2415	0.0193	0.2608	1396.6011	0.181953	-424.233538	-424.22418	-424.223235	-424.267755	34.622	
C	 0.0404777187	 1.3992525941	 0.0980520087	-0.235889
O	-0.0155973647	-0.0141602928	 0.0135057157	-0.242483
C	 0.6825134789	-0.5421932029	-1.0679818876	 0.189831
O	 2.0642046108	-0.2767722477	-0.894270221	-0.261294
C	 2.8677993904	-1.0109835364	-1.7995557135	-0.085249
C	 2.7732695395	-2.5121191582	-1.5200305766	-0.293617
C	 1.3330002855	-2.9356999212	-1.3404899082	 0.306724
C	 1.0447504447	-4.4096876789	-1.3808471943	-0.474223
C	 0.3881231768	-2.0164574651	-1.1429509374	-0.187991
H	 1.0576093267	 1.7526722948	 0.298379233	 0.129171
H	-0.319706622	 1.8671891623	-0.8310949599	 0.101976
H	-0.6151109981	 1.6921199514	 0.9210057173	 0.124373
H	 0.3511598354	-0.0337321273	-2.0008970406	 0.049364
H	 2.5589487249	-0.805532197	-2.8383519128	 0.089927
H	 3.8899050905	-0.6424635452	-1.6761486086	 0.107353
H	 3.2343316812	-3.0739055445	-2.3434837013	 0.099417
H	 3.3457065453	-2.7662160291	-0.6171026126	 0.11703
H	 1.6241584108	-4.9420168693	-0.6153614359	 0.126845
H	-0.0146713879	-4.6201420357	-1.2133658529	 0.123767
H	 1.3347080185	-4.8432713499	-2.3466508177	 0.122361
H	-0.6559884458	-2.2888214414	-1.0202496238	 0.092607
