19
gdb 113744	2.47135	1.02166	0.79992	1.8311	76.56	-0.2681	0.0263	0.2945	1436.649	0.158863	-419.187117	-419.177102	-419.176158	-419.222869	35.705	
N	-0.3288103524	 1.3741329445	 0.2277638415	-0.497203
C	 0.0347671985	-0.0098130937	-0.0909698867	-0.153295
C	 0.7968751512	-0.1313458378	-1.3582290987	 0.25935
N	 1.3895360022	-0.1869662476	-2.3499515251	-0.330073
C	 0.8210362329	-0.624519689	 1.0559198597	 0.012076
C	 0.1000638166	-1.2354466282	 2.2278277627	-0.298392
C	 0.8998136509	-2.1144875709	 1.300078026	 0.013099
C	 0.2248568299	-3.1316110548	 0.4153003788	-0.108319
O	 0.0285786064	-4.3056861116	 1.1909599942	-0.418927
H	 0.5144388966	 1.9282583428	 0.3523199999	 0.239299
H	-0.8309143279	 1.790053312	-0.5517210951	 0.242863
H	-0.8990511356	-0.565523937	-0.2274143386	 0.126808
H	 1.7320654548	-0.0726281655	 1.2742372917	 0.096606
H	 0.4748997891	-1.0429328991	 3.2262627801	 0.120136
H	-0.9817598395	-1.2980612117	 2.1640227356	 0.12151
H	 1.8551456278	-2.4657135019	 1.6792833833	 0.099833
H	-0.7369716041	-2.744275943	 0.0426815959	 0.080386
H	 0.8554533414	-3.3367770148	-0.4633797256	 0.106318
H	-0.2761177086	-5.003613993	 0.6033495802	 0.287924
