19
gdb 30019	3.06788	1.56377	1.06624	3.7397	82.51	-0.2008	0.0363	0.2371	1135.1456	0.162821	-382.118075	-382.110113	-382.109169	-382.150846	29.806	
C	-0.0191769296	 1.4613205538	 0.0175650191	-0.344806
N	-0.0281587995	 0.0145722455	 0.0414318766	-0.118006
C	-0.0496796335	-0.8241499096	-1.0504458726	-0.033795
N	-0.0599331102	-2.1012533498	-0.724895464	-0.360405
C	-0.0527373389	-2.0883977427	 0.6464286647	 0.264371
C	-0.0367750293	-0.817092213	 1.1361158168	 0.290934
C	 0.0428452419	-0.722885011	 2.6228047325	-0.351816
C	-0.2353593619	-2.2214528678	 3.0096768901	-0.193281
C	 0.0062360044	-3.1108595359	 1.7413637284	-0.337452
H	 0.8722678406	 1.8577131522	 0.5143295404	 0.141928
H	-0.0162713792	 1.7998237156	-1.0205208637	 0.144478
H	-0.9056162412	 1.8695650257	 0.5137863901	 0.141984
H	-0.0664097325	-0.4263285184	-2.0554984378	 0.118525
H	 1.0329895173	-0.3934900007	 2.9681570752	 0.10695
H	-0.6888453703	-0.0485604658	 3.082971229	 0.103366
H	 0.3740879802	-2.5373994617	 3.8598590443	 0.099473
H	-1.2818623096	-2.3127998931	 3.3142989604	 0.110769
H	-0.7461538011	-3.9014019315	 1.6544306035	 0.109554
H	 0.9834760423	-3.6098230719	 1.7783677869	 0.107227
