19
gdb 85012	2.33257	1.51709	0.98048	2.0251	75.58	-0.2394	-0.0397	0.1997	1215.1579	0.157174	-423.088984	-423.079579	-423.078634	-423.123753	34.068	
C	-0.561732121	 1.5176573798	 0.027291036	-0.399965
C	 0.1131056395	 0.1493612147	-0.0147994809	-0.098798
C	 1.0045632925	-0.1376494245	-1.2416156895	-0.341386
C	 2.1891419501	-0.9749782271	-0.7417130368	 0.385678
O	 3.0826875094	-1.3965127627	-1.4284801791	-0.307081
C	 2.077178806	-1.1559628566	 0.7753997488	-0.208363
C	 3.3925641427	-1.1539798606	 1.5448641008	-0.399421
C	 1.0441487402	-0.1072462286	 1.1814912242	 0.372211
O	 0.9900042847	 0.4541687759	 2.2453023098	-0.309996
H	 0.1794935583	 2.3186661965	-0.0614075075	 0.124154
H	-1.2805657253	 1.6270350641	-0.789748318	 0.117156
H	-1.0854967431	 1.6562273139	 0.9759991874	 0.140174
H	-0.6579640971	-0.6335203596	 0.0467999978	 0.108594
H	 0.4932094974	-0.6472690116	-2.0625830605	 0.137853
H	 1.4153889892	 0.7909222799	-1.6584122326	 0.141667
H	 1.5700825678	-2.1283465862	 0.9048449917	 0.135218
H	 3.888792791	-0.1832098382	 1.4592197939	 0.129937
H	 3.2165862059	-1.34752284	 2.6050828151	 0.134526
H	 4.0635756019	-1.915923469	 1.1424793991	 0.137841
