17
gdb 67487	2.43431	1.6693	1.23639	3.8009	77.17	-0.2432	0.0136	0.2568	1044.6578	0.135873	-380.793827	-380.785953	-380.785009	-380.825977	30.461	
C	-0.0682382637	 1.4830524408	 0.0043939338	-0.499626
C	-0.0027745383	-0.0155078311	-0.0271793947	 0.292946
C	-0.9172930163	-0.9033827458	 0.7964754651	-0.224738
C	-1.9111678318	-1.8470498563	 0.3572132935	 0.285795
N	-2.75793346	-2.5726060256	 0.0458358768	-0.358426
C	 0.6024108417	-1.0234534991	 0.9188651132	-0.070482
N	 1.414751044	-1.6928886356	-0.1572293137	-0.133147
C	 0.546216215	-2.239642875	-1.2182166461	-0.270845
C	 0.7402800112	-0.7765913901	-1.1491645103	-0.091068
H	 0.9101619253	 1.9188897185	-0.2253779829	 0.134357
H	-0.7856596227	 1.8617824377	-0.7326191909	 0.13737
H	-0.3760804672	 1.8461788585	 0.98943829	 0.12802
H	-1.2841967822	-0.3523834391	 1.6617762941	 0.141859
H	 1.0696706441	-0.9096357609	 1.889601375	 0.117508
H	 1.1314509646	-2.7535790585	-1.9762444495	 0.132143
H	-0.3914524748	-2.7221134531	-0.9818787922	 0.169181
H	 1.3337195812	-0.232671735	-1.8774455414	 0.109154
