19
gdb 122102	1.92318	1.05194	0.76827	3.8877	73.13	-0.2576	0.0105	0.2681	1515.0796	0.158175	-456.329855	-456.319422	-456.318478	-456.366534	36.245	
N	 0.0004544062	 1.4211207418	-0.0386320921	-0.514842
C	-0.0013965932	-0.0347778941	 0.0396902824	-0.169836
C	 0.8921849261	-0.4603500882	 1.2093206347	 0.001392
O	 0.2927809504	 0.0152349388	 2.3965502466	-0.268258
C	 1.1299826859	-0.0188486357	 3.5530004753	-0.09174
C	 0.2714214962	 0.4388033647	 4.7200097496	-0.058793
O	-0.8153657332	-0.4336707414	 4.9459356138	-0.415971
C	 1.0623789562	-1.9294662671	 1.2456212195	 0.269288
N	 1.1932997731	-3.0770893825	 1.2743155366	-0.318717
H	-0.5394812738	 1.7270107946	-0.8410432574	 0.236442
H	-0.4536456881	 1.7981425072	 0.7870834714	 0.239538
H	-0.9909236428	-0.4975744484	 0.1856174488	 0.108688
H	 0.4210054605	-0.4456884623	-0.8827055458	 0.128391
H	 1.8826271737	-0.0011776203	 1.0732511708	 0.12688
H	 1.4887648589	-1.0424898816	 3.7275727985	 0.126093
H	 1.996596241	 0.6449825432	 3.4139546586	 0.10121
H	 0.8756533265	 0.446242805	 5.632890166	 0.116838
H	-0.0668999272	 1.470652084	 4.5317695884	 0.093515
H	-1.2497244165	-0.5534809976	 4.0938421643	 0.289881
