18
gdb 44632	2.94973	1.63686	1.45976	1.4046	74.46	-0.2185	-0.0282	0.1903	959.7057	0.14879	-401.895916	-401.888826	-401.887881	-401.927761	28.355	
O	 0.2168610957	 0.0149143781	 0.6021868084	-0.298993
C	 0.101131094	 1.1545514069	 0.2555921425	 0.406599
C	-1.1026408392	 2.027035258	-0.1553622908	-0.372588
C	-0.117133553	 3.2079123382	-0.4028661525	-0.003889
C	 1.0863422714	 2.3162728936	 0.0771442003	-0.183787
C	 1.647253825	 2.4772606961	-1.3711304475	 0.034764
C	 1.2673978013	 1.4775564092	-2.4946480373	-0.271898
C	 0.1288466918	 2.4755155492	-2.8635758702	-0.17126
N	 0.5185298369	 3.3960771019	-1.7480113876	-0.130599
H	-1.7359510858	 1.6619144882	-0.9670203055	 0.132195
H	-1.7464758776	 2.2204679968	 0.7103685199	 0.137545
H	-0.3932860242	 4.1518160877	 0.068355591	 0.088408
H	 1.7613032333	 2.5438475818	 0.9023768117	 0.093257
H	 2.6572086475	 2.8956170957	-1.4140359135	 0.085105
H	 2.0323820911	 1.3443980965	-3.2620995095	 0.109388
H	 0.9437959368	 0.4911103018	-2.155200433	 0.12701
H	 0.2579002848	 2.967648081	-3.8320525908	 0.111922
H	-0.8932103899	 2.0896183395	-2.8190142956	 0.106821
