17
gdb 4145	4.79533	1.56024	1.44607	1.1525	71.79	-0.235	0.0233	0.2583	905.4825	0.14419	-363.813558	-363.806932	-363.805988	-363.844152	26.774	
O	-0.1748244733	 1.3026054397	 0.0415377459	-0.398896
N	 0.0011456123	-0.0997082474	 0.0108393112	-0.292514
C	-1.11951321	-0.69296946	 0.0048321069	 0.479373
C	-2.5462554304	-0.1567783034	 0.0244886298	-0.302718
C	-3.2679935487	-1.5240329644	-0.0001962846	-0.028267
C	-2.4482567598	-2.3419559545	 1.0414514254	-0.226929
C	-1.310528734	-2.1844113363	-0.025446424	-0.099657
C	-2.460550738	-2.2971381168	-1.0847993201	-0.226929
H	 0.7350457225	 1.6175770039	 0.0429455176	 0.303436
H	-2.749562998	 0.4345130631	 0.9227856788	 0.121603
H	-2.7598783631	 0.4718703242	-0.8456041061	 0.121598
H	-4.35738993	-1.5123921016	 0.0063519878	 0.067062
H	-2.2859623597	-1.9095810605	 2.0326153351	 0.100104
H	-2.7867657206	-3.3768407262	 1.1270360201	 0.102305
H	-0.4194949064	-2.8078274162	-0.0437410188	 0.07802
H	-2.8002550784	-3.3275877239	-1.2099933964	 0.102303
H	-2.3096271743	-1.8233420796	-2.0586746287	 0.100105
