19
gdb 60867	2.04525	1.27993	1.13967	2.5382	82.12	-0.2383	-0.0208	0.2174	1220.2478	0.155558	-385.855446	-385.845462	-385.844517	-385.890865	36.295	
C	 0.1155093861	 1.4291736942	-0.301939495	-0.420783
C	 0.0043039633	-0.0737935267	 0.0036593599	-0.13572
C	 0.6534606947	-0.3805416194	 1.3433325046	 0.161893
O	 1.6457833509	-1.0485542965	 1.4827212647	-0.254421
C	-1.4514787844	-0.563438523	 0.0041218339	 0.146768
C	-2.0233274408	-1.058317413	-1.3187521002	-0.304727
C	-1.692657161	-2.0480039155	-0.2414175989	-0.301409
C	-2.3498671851	 0.1163283374	 0.9009209004	 0.281425
C	-3.0962388764	 0.6897125312	 1.6511298718	-0.464384
H	 1.163122403	 1.7399855625	-0.3483801207	 0.128334
H	-0.3544839636	 1.6554343174	-1.2636275973	 0.127837
H	-0.3896217922	 2.023396897	 0.4653369663	 0.137896
H	 0.5567356035	-0.6470889043	-0.7479183958	 0.092263
H	 0.1347406537	 0.0736735893	 2.2175796448	 0.088469
H	-3.0668089417	-0.8450736809	-1.5170086678	 0.13225
H	-1.374607364	-1.0005603289	-2.1862039781	 0.123286
H	-0.8117518491	-2.6692177925	-0.3620448456	 0.132697
H	-2.5090744805	-2.5152668697	 0.2954363013	 0.131995
H	-3.7571636564	 1.1909258815	 2.3141192717	 0.196331
