19
gdb 104081	2.33819	1.52823	1.2957	2.925	76.91	-0.2427	-0.0549	0.1878	1088.6471	0.15867	-423.066711	-423.057858	-423.056914	-423.100061	33.691	
C	 0.0809856786	 1.517687055	-0.0659131529	-0.403609
C	-0.0336359803	-0.0005674679	 0.0866793689	-0.209962
C	-1.4752797581	-0.5507871742	-0.0411128635	 0.308457
O	-2.0561503282	-0.1672258234	-1.2738894069	-0.484202
C	-1.4960516855	-2.0828448916	 0.1518684136	-0.319628
C	-2.0263872367	-2.2700943998	 1.5516678039	-0.049838
C	-2.4902550926	-1.137859305	 2.0998347885	-0.169724
C	-2.3584796059	-0.0437618267	 1.1222829913	 0.333733
O	-2.8811864217	 1.0510627279	 1.1302354589	-0.36252
H	 1.1271162665	 1.8290770888	 0.0083575193	 0.110829
H	-0.292612113	 1.8330284754	-1.0442142098	 0.123369
H	-0.4882403563	 2.0495698995	 0.7006334009	 0.136093
H	 0.5601274233	-0.4922195213	-0.6934867466	 0.105614
H	 0.3824012013	-0.321583726	 1.0503075756	 0.096377
H	-2.5162835269	 0.6660403027	-1.0988370506	 0.290094
H	-2.1706953265	-2.5353600916	-0.5840458997	 0.139847
H	-0.5147544994	-2.5509535709	 0.0182717097	 0.114208
H	-2.0387066998	-3.2425486278	 2.0333013181	 0.119936
H	-2.9583093188	-1.0204643731	 3.0684803411	 0.120924
