20
gdb 103046	2.38532	1.45609	1.09161	4.3122	83.5	-0.2766	0.035	0.3116	1183.6239	0.171457	-366.004302	-365.995513	-365.994569	-366.03776	33.382	
C	 0.076126305	 1.4202200755	-0.3565961354	-0.386641
C	-0.0237150553	 0.0009271418	 0.2131837102	-0.272269
C	-1.4206745254	-0.600111443	 0.0705085559	 0.169213
C	-2.4187950668	 0.1099942376	 0.8411578258	 0.246241
N	-3.1976675965	 0.6936632036	 1.4672881421	-0.354933
C	-1.9917984874	-1.1712611149	-1.2228588934	-0.075247
C	-0.905638155	-1.8873400528	-2.0361183899	-0.255541
C	-0.6474523964	-2.835055319	-0.8187583026	-0.254056
C	-1.7321990216	-2.0892211912	-0.032906087	-0.093779
H	 1.0861970524	 1.8193332619	-0.2265194058	 0.117538
H	-0.1577479295	 1.432452829	-1.4261488231	 0.120924
H	-0.6214023506	 2.0971649152	 0.1458105252	 0.14291
H	 0.7040582041	-0.6471648556	-0.2811812032	 0.10955
H	 0.2435720414	 0.00534323	 1.276202465	 0.116238
H	-2.9346440635	-0.8054560538	-1.6098034689	 0.109813
H	-1.3225721062	-2.4231818749	-2.8908204867	 0.116632
H	-0.0701991221	-1.275641261	-2.3877973575	 0.108607
H	-0.9421597935	-3.8637070663	-1.0351633874	 0.11587
H	 0.3571735777	-2.849233911	-0.3873809733	 0.108649
H	-2.4421969709	-2.5405475311	 0.6489903801	 0.110281
