15
gdb 127833	4.49703	1.04951	0.85592	3.6855	71.75	-0.2482	-0.0567	0.1916	1281.71	0.112549	-450.092126	-450.083763	-450.082819	-450.125485	30.05	
C	 0.0525726324	 1.4005289566	 0.0246564485	-0.343558
N	 0.0461782695	-0.0497322013	 0.0234030569	-0.286358
C	-1.0918939114	-0.6342097487	-0.0173987008	 0.284234
N	-2.3346989317	-0.0555739914	-0.0907011882	-0.571403
C	-1.0872344335	-2.1076089303	-0.0260012451	 0.343591
N	-2.1760270126	-2.8313607598	-0.0134158123	-0.182202
O	-1.7643078905	-4.1301983682	-0.0189006475	-0.152109
N	-0.3946301226	-4.2157123843	-0.0350161114	-0.063627
C	 0.0329719119	-2.9868643713	-0.0394121985	-0.103824
H	 1.0837993695	 1.760008862	 0.0309139161	 0.131029
H	-0.447647182	 1.8197117788	-0.8622813147	 0.121179
H	-0.4476381812	 1.8205172908	 0.9131066198	 0.112275
H	-2.4312078487	 0.9114817837	 0.1679955565	 0.262538
H	-3.1364428902	-0.6449941208	 0.0683988515	 0.277689
H	 1.081441421	-2.7401098458	-0.0509791208	 0.170547
