21
gdb 38260	3.06113	1.62972	1.34099	1.1257	82.52	-0.2418	0.0961	0.3379	1026.8115	0.186301	-387.039352	-387.032467	-387.031523	-387.070219	29.505	
C	-0.041963019	 1.6111056928	 0.1863182125	-0.25676
C	 1.4589920639	 1.2423012032	 0.0454044897	-0.087507
C	 1.1682835	 0.0490408841	 1.0224816307	-0.297456
C	-0.0025536031	 0.0594117521	-0.0003223679	 0.35212
C	-1.1677196209	-0.8248127023	-0.3480881802	-0.229598
O	-1.6603097078	-0.4216029909	-1.6281998073	-0.251072
C	-0.6859405673	-0.4450851103	-2.6648484373	-0.054687
C	 0.4466458113	 0.5853423269	-2.4612573416	-0.280366
C	 1.0706346691	 0.2623176168	-1.108093612	 0.036041
H	-0.3614999603	 1.9643339383	 1.1710365813	 0.085538
H	-0.4993521957	 2.2054518526	-0.6039297881	 0.099327
H	 2.3118875867	 1.9218666166	 0.0896106865	 0.068524
H	 1.8535882683	-0.8024491338	 0.9755967293	 0.089273
H	 0.9303506672	 0.3177894937	 2.055438212	 0.089319
H	-0.8564529908	-1.8834767339	-0.3733770266	 0.085525
H	-2.0124210133	-0.7309684395	 0.3415188552	 0.106429
H	-0.2490751038	-1.4560539822	-2.7458703322	 0.082413
H	-1.237525748	-0.2451136988	-3.5880845583	 0.105476
H	 1.1709161407	 0.4987454076	-3.2793037834	 0.091098
H	 0.027284683	 1.5941946641	-2.5073686991	 0.107788
H	 1.7582323096	-0.5874985073	-1.2057372832	 0.058574
