19
gdb 85075	2.86012	1.40168	1.02192	3.078	80.21	-0.2041	0.013	0.2171	1198.8717	0.160394	-419.267118	-419.257974	-419.257029	-419.301825	33.357	
C	 0.0241701159	 1.6043527476	-0.0257063095	-0.377407
C	-0.036567742	 0.0664843028	 0.0329866197	-0.007915
N	 0.4985341484	-0.5381106141	-1.1869728133	-0.378056
C	 1.6424233929	-1.2733424469	-1.3583053594	 0.483055
O	 2.0407958657	-1.6062933569	-2.462000507	-0.421955
N	 2.3000957593	-1.6293935892	-0.1816281791	-0.152829
C	 3.4950405498	-2.452753717	-0.2609878462	-0.352312
C	 1.7909291804	-1.252037082	 1.0564213236	 0.033102
C	 0.7101922301	-0.4871872367	 1.2121633769	-0.150367
H	 1.061265039	 1.9442880805	-0.0977449014	 0.126229
H	-0.5288059189	 1.9832779647	-0.8925996185	 0.110495
H	-0.4238314219	 2.0380246543	 0.8744427298	 0.116584
H	-1.0989043978	-0.2160655816	 0.1135029984	 0.090536
H	 0.0823690186	-0.2751917731	-2.066721627	 0.248411
H	 4.3543896957	-1.9408964122	 0.1869379435	 0.124124
H	 3.3484913874	-3.4096674929	 0.2536034631	 0.124066
H	 3.695387336	-2.6387963167	-1.3146636154	 0.1749
H	 2.3459435191	-1.6404075638	 1.9033382687	 0.112881
H	 0.3638402023	-0.2294244569	 2.2044997627	 0.096458
