21
gdb 86164	2.68692	1.18107	0.88134	0.7221	95.37	-0.2235	-0.0154	0.2081	1376.6058	0.181423	-349.953079	-349.943563	-349.942619	-349.987113	36.4	
C	-0.1197332395	 1.5953339172	-0.0169147314	-0.397661
C	 0.0215711819	 0.0694813925	 0.0224772871	-0.011903
C	 0.8069763884	-0.5282407379	-1.1728299302	-0.230516
C	 1.576757792	-1.7538152071	-0.6226727747	-0.095678
C	 2.9345369497	-1.9932020365	-1.286634638	-0.399758
C	 1.641889655	-1.4442972828	 0.874291611	 0.184995
C	 0.7945994334	-0.4585397293	 1.2063265208	-0.187473
C	 2.4650273836	-2.1798431926	 1.7607091338	 0.219687
C	 3.1830008229	-2.8333997219	 2.4757799832	-0.423157
H	 0.8638579914	 2.0773532438	-0.0276455864	 0.117093
H	-0.6624579678	 1.914846613	-0.9128095598	 0.114671
H	-0.667817834	 1.9675633904	 0.8551225038	 0.11346
H	-0.9932588721	-0.3595892524	 0.0509514545	 0.082845
H	 0.164347869	-0.779537702	-2.0212447334	 0.09554
H	 1.5329047092	 0.215846305	-1.5248947061	 0.098045
H	 0.9710711529	-2.6634102392	-0.7508960838	 0.084609
H	 3.5795555596	-1.1138119087	-1.1825494458	 0.11455
H	 3.4512113766	-2.8442551081	-0.83337513	 0.125649
H	 2.812576696	-2.1986769471	-2.3551942934	 0.111087
H	 0.6398300485	-0.0983784612	 2.2176873109	 0.095129
H	 3.8086998333	-3.3994106852	 3.1201367679	 0.188785
