22
gdb 119680	4.73207	0.93298	0.88007	1.5594	86.	-0.2356	0.0924	0.328	1432.8963	0.195219	-367.166469	-367.157889	-367.156945	-367.200134	33.096	
C	-0.1771925261	 1.5332793549	 0.1497525155	-0.382344
C	-0.1025111933	 0.0053391081	 0.1016920743	-0.165083
C	 0.9287610242	-0.5696381692	 1.0829602894	-0.309149
C	 0.9840714511	-2.0706741189	 1.1039651154	 0.357907
C	 1.0924950933	-3.0291740631	-0.0754406328	-0.292217
C	 0.5108743144	-4.0613116451	 0.9065962026	-0.003284
C	 1.5902011203	-4.2904702115	 1.9807360281	-0.239199
C	 1.2982448329	-2.8476889786	 2.3468125715	-0.087768
N	-0.0929588259	-2.8997329521	 1.7636354787	-0.199903
H	 0.7888648455	 1.9868411021	-0.0998079164	 0.111465
H	-0.9177176681	 1.9183927013	-0.5581019069	 0.111389
H	-0.4577654054	 1.8851395548	 1.1488316551	 0.115289
H	-1.0833951168	-0.4262369945	 0.3325331963	 0.115498
H	 0.1438938057	-0.314295051	-0.9186180452	 0.094765
H	 1.9277686537	-0.1776047829	 0.8435461127	 0.097334
H	 0.6969904082	-0.2176530354	 2.0967519059	 0.102147
H	 0.3712851995	-2.7724825938	-0.8554020153	 0.109239
H	 2.0713421029	-3.2269071447	-0.5269300132	 0.09085
H	-0.1382102885	-4.86654329	 0.56811005	 0.080481
H	 1.2398025985	-4.9694977943	 2.7624669701	 0.110867
H	 2.59722881	-4.5786507727	 1.6597779577	 0.093191
H	 1.4874041938	-2.3485502232	 3.2913401666	 0.088523
