20
gdb 120520	5.30774	0.69188	0.6749	3.8229	81.26	-0.2618	0.0315	0.2934	1712.2518	0.170148	-403.151587	-403.142023	-403.141079	-403.18709	34.198	
C	-0.451436532	 1.1919046134	-0.3003932554	-0.385309
C	 0.1830847823	-0.1753153664	-0.1144720911	-0.047805
O	 0.4307418789	-0.3711058984	 1.2692866205	-0.250229
C	 0.9758531171	-1.6181025582	 1.5777860541	 0.177002
C	 2.5020697647	-1.8462784081	 1.3608379208	-0.265858
C	 2.5545799374	-2.5215712559	 2.7735961791	-0.173242
C	 1.170997242	-1.8572639743	 3.0873387462	-0.268501
C	 2.5147433443	-3.975241864	 2.7309048661	 0.273436
N	 2.4771228692	-5.1305963851	 2.6908367732	-0.327473
H	 0.2161015987	 1.9779899798	 0.0636609327	 0.127402
H	-0.6581998326	 1.3746159596	-1.3589592279	 0.118257
H	-1.391516257	 1.256623765	 0.2545592446	 0.129505
H	-0.4833923121	-0.9689799123	-0.490215169	 0.093337
H	 1.1232915477	-0.2452488966	-0.6846037384	 0.092907
H	 0.3923283144	-2.4270249767	 1.1123436534	 0.08366
H	 2.8307356676	-2.4441777569	 0.5102632228	 0.12316
H	 3.0379415129	-0.8942092756	 1.3779112041	 0.119896
H	 3.3828161575	-2.2127101989	 3.4143517611	 0.126942
H	 1.3159627134	-0.905554031	 3.6030128187	 0.126145
H	 0.4298782457	-2.4560640796	 3.6168324443	 0.126768
