16
gdb 20162	3.73111	2.82311	2.1168	1.0296	69.92	-0.222	-0.0098	0.2122	687.4937	0.132609	-346.537608	-346.532061	-346.531117	-346.566799	23.478	
C	-0.1249711192	 1.3722730885	 0.1132334684	-0.302019
C	 1.4523200197	 1.338118639	-0.002144375	 0.12969
O	 2.1403158001	 0.4034004158	 0.876915929	-0.323276
C	 2.2109072509	-0.6506503515	-0.1534584403	 0.121252
C	 1.3195912417	-1.8703793321	 0.1688901071	-0.265771
C	-0.0513862538	-1.1972005904	 0.2076199677	-0.120937
C	-0.0138578242	-0.0359213935	-0.4549623181	 0.126036
C	 1.3656490961	 0.2338127914	-1.0689492066	-0.134074
H	-0.5923646212	 1.484817673	 1.0936775102	 0.113808
H	-0.4953614984	 2.1428211727	-0.573503453	 0.107359
H	 1.9830135627	 2.2909337787	-0.0856285864	 0.080918
H	 3.2539806086	-0.8754015696	-0.3999423321	 0.068595
H	 1.4533682144	-2.6619129572	-0.5824802099	 0.105559
H	 1.5597333768	-2.3076388082	 1.1441246856	 0.117549
H	-0.7911071514	-1.4522703077	 0.9589018572	 0.095334
H	 1.5036605573	 0.357625911	-2.1409191638	 0.079978
