21
gdb 82556	2.78419	1.6988	1.34449	1.5025	82.18	-0.2329	0.0871	0.32	1043.8826	0.184261	-387.0443	-387.036833	-387.035889	-387.075665	31.262	
C	-0.1339978904	 1.5530134454	-0.0471998612	-0.420352
C	 0.0188789873	 0.0339917917	-0.0494218725	-0.003352
C	 0.964160866	-0.5686088455	-1.1445264916	 0.056792
C	 2.4473947979	-0.4168843229	-0.6581372496	-0.339373
C	 1.8481740087	-1.3772277776	 0.3776034721	 0.433294
C	 2.0058039341	-2.3368295183	 1.5580964156	-0.346414
C	 0.5708306003	-1.8556709299	 2.0027675565	-0.264975
C	 0.8012555754	-0.559461958	 1.1554410846	-0.00227
O	 1.0218238241	-1.9501940123	-0.6929131299	-0.324281
H	 0.8308725823	 2.055637341	 0.0830615298	 0.113053
H	-0.5701230903	 1.9109840895	-0.9864268861	 0.112694
H	-0.7882185424	 1.8812330487	 0.7671682815	 0.119418
H	-0.9613219547	-0.4361733098	-0.1789008353	 0.081075
H	 0.6885209077	-0.4510621605	-2.1937940195	 0.076305
H	 3.1279211343	-0.8822688972	-1.372533215	 0.110366
H	 2.8195956082	 0.5518002619	-0.3139642197	 0.09419
H	 2.155203495	-3.3914150123	 1.3179005481	 0.111721
H	 2.7748208783	-2.0077669916	 2.2618733957	 0.109514
H	-0.2087999197	-2.4950148739	 1.5876755321	 0.121483
H	 0.4048129986	-1.7233296219	 3.0737282292	 0.094565
H	 1.2495150593	 0.2208773136	 1.7786194851	 0.066549
