17
gdb 48024	5.03098	0.65011	0.62898	2.9816	81.47	-0.2655	-0.0626	0.2029	1744.5973	0.135821	-421.805967	-421.796912	-421.795968	-421.842789	30.565	
O	-0.8936815828	 0.8438769253	-0.2938175264	-0.229642
C	 0.0367445939	 0.9705410455	 0.4696569473	 0.020067
C	 1.177425402	 1.8162011705	 0.2347166966	 0.007
C	 2.1505958134	 2.5142355089	 0.0701637424	 0.111906
C	 3.2945057719	 3.3737222126	-0.1589577463	-0.171925
C	 4.093187347	 3.0520965639	-1.461474299	-0.253046
C	 4.4309744838	 4.4559404181	-2.0294620858	-0.077599
O	 4.056344939	 5.4005521646	-1.0333752914	-0.234093
C	 2.9294805413	 4.8674251454	-0.3762360444	-0.093946
H	 0.0698462278	 0.4226726128	 1.4336296557	 0.097801
H	 3.9727839254	 3.3168271584	 0.699039932	 0.118672
H	 4.9857978003	 2.4672664603	-1.2328807542	 0.123287
H	 3.4838159194	 2.4751779712	-2.1594345417	 0.128732
H	 5.4943457069	 4.5977982503	-2.2364192486	 0.11734
H	 3.8700866732	 4.6384482011	-2.9577925057	 0.103434
H	 2.0194371215	 4.9453923604	-0.9918412977	 0.107155
H	 2.7784832662	 5.4156977307	 0.5556683273	 0.124854
