13
gdb 5437	3.5948	1.94952	1.27406	2.2349	68.82	-0.2282	-0.0143	0.2139	892.8313	0.095057	-361.471178	-361.46396	-361.463016	-361.502653	26.246	
C	 0.1274928849	 1.49737235	 0.0787393657	-0.504791
C	-0.0249786096	 0.024540418	 0.0525036444	 0.262046
C	-1.0966366047	-0.8192898758	-0.0337620045	 0.047958
N	-0.6376176671	-2.1440021567	-0.0146668779	-0.305522
C	 0.6406705768	-2.0286524306	 0.0788146505	 0.059463
O	 1.0973251856	-0.7509675472	 0.1252734959	-0.172052
C	-2.4635881915	-0.4722553103	-0.1286848122	 0.24943
C	-3.6230308728	-0.1586377739	-0.2088983967	-0.433522
H	 0.7374839449	 1.8513387342	-0.7597216039	 0.147497
H	-0.8585657628	 1.961147409	 0.0119636968	 0.1561
H	 0.6095516711	 1.8331670841	 1.0035330852	 0.147493
H	 1.3836757435	-2.8092865001	 0.1242631316	 0.153128
H	-4.6485297382	 0.1075350592	-0.279962845	 0.192773
