18
gdb 122726	8.80716	0.43155	0.41566	5.6957	88.73	-0.2769	-0.0498	0.2271	2526.4425	0.145285	-401.926807	-401.916425	-401.91548	-401.963918	34.808	
C	-0.0388985412	 1.4916265442	 0.0601389262	-0.385261
C	 0.0130678224	-0.0363318562	-0.0169945125	-0.186865
C	 0.7291852799	-0.5267252818	-1.2664051291	-0.024771
O	 0.7304416542	-1.9461954855	-1.2556468178	-0.244712
C	 1.3754415478	-2.4933319261	-2.3795824319	-0.217598
C	 1.3426982496	-3.9480832946	-2.3078650058	 0.01851
C	 1.3294060355	-5.1543980605	-2.272688577	 0.125441
C	 1.3128289147	-6.5191157815	-2.2301994885	 0.208313
N	 1.3001686389	-7.6800805132	-2.1965491136	-0.333104
H	 0.9665902668	 1.926114441	 0.0788798635	 0.118997
H	-0.5691754099	 1.918174374	-0.7983484319	 0.118996
H	-0.5576628824	 1.8185940025	 0.9653852535	 0.123686
H	 0.5260663623	-0.4458414329	 0.8602656627	 0.114272
H	-0.9999405689	-0.453746785	-0.011293816	 0.114272
H	 0.2236786275	-0.1556773596	-2.1743744454	 0.091349
H	 1.7651214431	-0.1476616866	-1.2940467202	 0.091349
H	 0.8903467253	-2.1696984634	-3.3175971	 0.133565
H	 2.4270429646	-2.1610390547	-2.439916466	 0.13356
