18
gdb 13171	3.09266	1.65614	1.33501	3.1137	72.13	-0.2356	0.032	0.2676	989.1965	0.154183	-343.976315	-343.968014	-343.96707	-344.00922	30.001	
C	 0.0414397098	 1.5632968725	 0.0357020942	-0.391429
C	 0.0070775931	 0.0304444843	-0.036844021	-0.096503
C	 0.4906380368	-0.4369827246	-1.3652783376	 0.255041
N	 0.9127231316	-0.8375078731	-2.36492238	-0.335905
N	 0.7427188267	-0.5618048546	 1.0626907162	-0.062983
C	 2.2202934452	-0.4546612188	 1.1313067686	-0.173738
C	 2.2515233916	-1.8731389716	 1.7510542456	-0.225974
C	 0.8131997818	-2.0339432521	 1.2024921038	-0.174101
H	 1.0659428547	 1.932545033	-0.0621016889	 0.138521
H	-0.5570730612	 2.0040211197	-0.7651772519	 0.135916
H	-0.3550862269	 1.8812676579	 1.0024366332	 0.134707
H	-1.0342249896	-0.3045435551	 0.052332389	 0.128186
H	 2.6997423763	-0.4268539405	 0.1414310917	 0.112343
H	 2.58948813	 0.3807354499	 1.7336202774	 0.10672
H	 3.0051692262	-2.5612558873	 1.3694740061	 0.115045
H	 2.2882904852	-1.8561293649	 2.8414017088	 0.116126
H	 0.0498257688	-2.4625860387	 1.8596696358	 0.105681
H	 0.7977196	-2.5628540359	 0.237961679	 0.112347
