18
gdb 96842	3.59747	1.12348	0.87018	1.2795	77.68	-0.2358	0.0053	0.241	1323.4808	0.147825	-435.329579	-435.32007	-435.319126	-435.364567	32.959	
C	-0.0481803684	 1.3967141187	 0.0509062828	-0.34162
N	-0.0578140621	-0.057684691	 0.0097504866	-0.31621
C	 0.5039232543	-0.618458754	-0.9757838797	 0.423671
C	 0.5848101744	-2.1263944744	-1.1741158796	-0.270389
N	 1.3104116012	-2.2539291179	-2.4217064636	-0.11856
C	 1.644482768	-3.5111848697	-3.0415554799	-0.33905
C	 1.652310845	-1.0400812204	-2.9593637575	 0.480353
O	 2.2561513419	-0.8183576418	-3.9840508906	-0.414223
N	 1.1550524458	-0.0723890395	-2.0708616081	-0.427979
H	 0.97322775	 1.8067035494	 0.080481095	 0.113012
H	-0.5598126074	 1.8422874903	-0.8162278032	 0.112951
H	-0.5661261295	 1.7379860988	 0.9500154998	 0.130188
H	 1.1105001224	-2.6011653075	-0.3356568251	 0.138118
H	-0.4196392096	-2.5655420728	-1.2293221724	 0.138112
H	 0.7435089797	-4.0880493404	-3.2856592266	 0.125464
H	 2.1877108672	-3.2917686532	-3.9621154905	 0.168718
H	 2.2790612204	-4.1226235798	-2.3876759222	 0.125451
H	 1.2851011967	 0.9074859651	-2.2528974651	 0.271995
