19
gdb 111336	2.42489	1.54273	1.12383	2.0138	76.03	-0.2526	0.0748	0.3274	1139.5021	0.158103	-422.958268	-422.949809	-422.948865	-422.991534	31.9	
C	 0.2622379066	 1.3628107357	 0.160028565	-0.238115
O	-0.2154200155	 0.0654972943	-0.1249840572	-0.244643
C	 0.492002685	-0.571262963	-1.1544194049	 0.032344
C	 1.9077282576	-1.1189565171	-0.8731518421	-0.085696
C	 1.8490469741	-2.1914147642	 0.1763144954	-0.28775
C	 1.4302093471	-2.5367779847	-1.2288806323	-0.156131
C	 0.0316422083	-2.0057486894	-1.455416843	 0.434035
C	-1.2815103747	-2.6245683325	-1.2935607246	-0.26314
O	-0.7494075239	-2.3032528622	-2.5941215943	-0.290963
H	 1.3056794132	 1.3473191433	 0.5074941535	 0.111659
H	 0.2004273975	 2.018994588	-0.7221949395	 0.106366
H	-0.3672236667	 1.7746262395	 0.952220763	 0.128193
H	 0.4739968533	 0.0293751892	-2.076931463	 0.08256
H	 2.8334854377	-0.6364422178	-1.1591383887	 0.090455
H	 2.8081912872	-2.59112447	 0.4885727507	 0.11548
H	 1.1059013594	-2.1328352378	 0.9664462106	 0.124324
H	 1.920786275	-3.2905836409	-1.8305648929	 0.102751
H	-1.3537248703	-3.6882983067	-1.0713178525	 0.11355
H	-2.124889211	-2.0152901436	-0.9749247233	 0.124722
