22
gdb 59541	3.23316	1.02476	0.94522	2.121	82.52	-0.2305	0.0732	0.3037	1365.3259	0.192988	-404.29808	-404.288522	-404.287578	-404.332205	36.384	
C	 0.0578723008	 1.5470614122	-0.0479168586	-0.40526
C	 0.0056000091	 0.0222487866	 0.0520940757	 0.11829
O	 0.7011921384	-0.4422117431	 1.2086801529	-0.434589
C	-1.4212507414	-0.5256047568	 0.0239708822	-0.013756
C	-2.1152940095	-0.4807162526	-1.3759176535	-0.282859
C	-2.1455929531	-2.0215755196	-1.387309315	-0.04011
C	-1.4786236137	-2.0680016785	-0.0297116223	-0.053429
N	-2.8078489981	-2.5946449379	-0.2388276692	-0.082151
C	-4.0007171134	-2.0221406077	 0.3634473155	-0.315849
H	 1.0946257506	 1.8924489413	-0.0130397766	 0.124423
H	-0.3974753067	 1.9055453849	-0.9763835865	 0.120224
H	-0.4846135601	 2.0072053317	 0.7877363682	 0.105101
H	 0.563083486	-0.4137252944	-0.7871244555	 0.086729
H	 0.2680756902	-0.0616618577	 1.9811542175	 0.275265
H	-1.989037903	-0.0708454649	 0.8475621612	 0.054358
H	-3.077649273	 0.0345009316	-1.449270937	 0.098162
H	-1.4509079947	-0.0813883486	-2.1471434568	 0.105696
H	-1.9965917771	-2.6476665772	-2.260922298	 0.089714
H	-0.7075383075	-2.7248475044	 0.3568724437	 0.1017
H	-4.0311323887	-0.9238185871	 0.4019820308	 0.1036
H	-4.875045299	-2.3637044858	-0.1995537616	 0.122148
H	-4.0911226361	-2.3985004821	 1.3873348128	 0.122592
