17
gdb 67579	2.9595	2.01108	1.50654	2.6986	70.04	-0.2458	0.0665	0.3123	884.0606	0.137101	-421.747204	-421.740655	-421.739711	-421.777659	27.677	
O	-0.0567838242	 1.3799053439	 0.0965953093	-0.489637
C	 0.0108263014	-0.0090139084	 0.0421563752	 0.422792
C	 0.930009272	-0.7609419744	 1.0094570807	-0.073234
O	 0.2269573484	-1.593821494	 1.9483886336	-0.253133
C	 0.6301397213	-2.1482725608	 0.6792905339	 0.016964
C	-0.4123548698	-1.9874477572	-0.4227111753	-0.059607
C	-1.3342876806	-0.783361326	-0.0348700465	-0.071755
C	-1.4534517656	-0.41317225	-1.5360455822	-0.263642
C	 0.0309835794	-0.7940279386	-1.3432809931	-0.13517
H	 0.8214049382	 1.7399409579	-0.0654462462	 0.283776
H	 1.8947395446	-0.375828386	 1.3274744538	 0.093333
H	 1.3412389053	-2.9667157616	 0.7176604514	 0.100005
H	-0.8641605148	-2.8665161891	-0.8801297081	 0.075047
H	-2.1091172943	-0.7876142492	 0.7295026414	 0.087838
H	-2.0529329355	-1.0847366993	-2.1561321631	 0.089433
H	-1.663885073	 0.633749486	-1.7580638375	 0.109815
H	 0.8295651572	-0.8036136531	-2.0888989471	 0.067173
