22
gdb 62577	3.31649	1.47131	1.29522	1.3358	86.16	-0.2157	0.0901	0.3057	1090.9302	0.196177	-367.153476	-367.145679	-367.144735	-367.185106	32.715	
C	-0.1272618309	 1.5900982622	 0.0053348477	-0.493328
C	-0.0068521762	 0.0665616058	-0.0805961121	 0.333898
C	-1.1224957858	-0.6196930695	 0.6992318176	-0.440134
C	 0.5060594013	-0.7511515022	-1.2250680668	-0.070291
C	 1.6024179885	-0.315460764	-2.2034933678	-0.06501
C	 2.7781939593	-1.1781401687	-1.6054032955	-0.199597
C	 2.553126444	-0.1977301614	-0.4090591367	 0.006577
C	 2.3085190519	 0.8776035086	-1.5079489829	-0.247937
N	 1.2441222278	-0.7269963476	 0.0815447539	-0.154122
H	-0.2191778786	 2.0699011997	-0.9716716195	 0.131744
H	-1.026878912	 1.8442623102	 0.5731975155	 0.114786
H	 0.7183284313	 2.0404943664	 0.5319176421	 0.133648
H	-2.1010592368	-0.3517003017	 0.2846463583	 0.109615
H	-1.0118341025	-1.7058498135	 0.6721893436	 0.122934
H	-1.1011369123	-0.3042454288	 1.7482406949	 0.117061
H	-0.021635668	-1.671567711	-1.4745067088	 0.080799
H	 1.3600739911	-0.3133225159	-3.2660649263	 0.063406
H	 2.5860938827	-2.2352382533	-1.4090722988	 0.101459
H	 3.7290592786	-1.0373698583	-2.1239280536	 0.093453
H	 3.2775381484	-0.0654078931	 0.3938462005	 0.069499
H	 3.2438325921	 1.1224312265	-2.0160069169	 0.095935
H	 1.7723796562	 1.7941123996	-1.2936268283	 0.095606
