15
gdb 20007	3.88319	1.49897	1.23746	4.6625	62.69	-0.2434	-0.0234	0.2201	965.8992	0.118028	-399.748423	-399.740887	-399.739942	-399.781003	26.83	
O	-0.3534958527	 0.272021873	 0.4287384178	-0.262804
C	 0.2960460892	 0.7537332825	-0.4672085589	 0.164225
C	 1.3690570711	 1.7652591527	-0.2191899073	-0.125816
N	 2.3881249166	 1.9082871232	-1.2803085496	-0.331239
C	 1.5131656361	 3.0356094572	-1.0182938204	-0.044495
C	 0.5711592377	 3.4731293218	-2.1006293702	 0.075398
C	 0.9264975424	 3.3502660701	-3.5225455923	-0.172639
O	-0.0231343423	 2.470254074	-2.9148574875	-0.22506
H	 0.1559464982	 0.4771721882	-1.5279031703	 0.115375
H	 1.6792997967	 1.819902858	 0.8220994507	 0.106894
H	 3.3083434381	 2.0481991728	-0.8740644087	 0.246655
H	 1.9113696447	 3.8754228095	-0.4480974826	 0.098518
H	-0.1095645005	 4.2716768931	-1.8020727192	 0.102668
H	 0.5148526155	 4.0502645372	-4.247234742	 0.119711
H	 1.8755438589	 2.8866404167	-3.7811636795	 0.13261
