20
gdb 22525	2.89044	1.03519	0.98485	0.9902	79.43	-0.2449	0.0019	0.2468	1334.1502	0.167767	-440.231658	-440.221573	-440.220629	-440.266643	36.758	
C	 0.3020511169	 1.4917459628	 0.1866766251	-0.395328
C	-0.0251401422	 0.0198603464	-0.0843131555	-0.201224
C	 0.5680431846	-0.51178872	-1.3941626768	 0.331056
C	 0.0254201831	 0.1636935132	-2.6478297432	-0.430299
O	 2.0383799342	-0.4566372591	-1.3617563627	-0.334742
C	 2.1708798843	-1.8947539688	-1.411213745	-0.166666
C	 0.672775595	-2.0241873609	-1.4666131943	 0.310507
N	-0.2038514342	-2.928260822	-1.5446924661	-0.243162
O	 0.390836372	-4.2034940955	-1.5859976792	-0.389765
H	 1.3825441397	 1.6554127017	 0.1427543339	 0.137836
H	-0.1737852897	 2.1598086999	-0.5374752186	 0.117197
H	-0.0466445708	 1.7837188173	 1.181610015	 0.114053
H	 0.3622036712	-0.5950444991	 0.7356565031	 0.100155
H	-1.1097109945	-0.1410843752	-0.1090316166	 0.107534
H	 0.2544724487	 1.232639731	-2.6364443466	 0.129981
H	 0.4749545179	-0.2722404616	-3.5433309087	 0.122532
H	-1.0599656853	 0.0371734168	-2.7080789561	 0.127831
H	 2.7115870716	-2.2435344402	-2.3001741195	 0.126855
H	 2.650958916	-2.3121989884	-0.5168415928	 0.126384
H	-0.3752237786	-4.7843400685	-1.6473287855	 0.309262
