21
gdb 98896	3.79684	1.01414	0.83115	3.8861	81.2	-0.223	0.0693	0.2923	1427.251	0.184368	-420.460094	-420.450419	-420.449475	-420.495701	34.286	
C	-0.0173282049	 1.4432463881	 0.0806272078	-0.322245
N	 0.1310492637	 0.0013660764	 0.0208562996	-0.367337
C	 0.5816662335	-0.6888273835	 1.131305247	 0.488144
O	 1.036802982	-0.1272466614	 2.1182365802	-0.429473
N	 0.506637738	-2.0589632015	 1.0339721898	-0.128386
C	 0.2050065453	-2.8090927481	-0.1843030647	-0.169156
C	 0.4386615809	-4.2741880596	 0.2222620858	-0.221785
C	 1.5139087459	-4.1698942838	 1.3161217456	-0.215663
C	 1.1156482285	-2.8960869426	 2.0722888889	-0.146808
H	 0.7075728424	 1.8214722481	 0.80132702	 0.166787
H	 0.1834539163	 1.8822680509	-0.9013835509	 0.115442
H	-1.0189514812	 1.7559687567	 0.4065967172	 0.114998
H	-0.4511666679	-0.4892851664	-0.6367732027	 0.236264
H	-0.8286683443	-2.6480862022	-0.5197882358	 0.101454
H	 0.8704680375	-2.510261697	-1.0075748976	 0.109496
H	-0.4826204763	-4.6943251782	 0.6399989223	 0.111106
H	 0.7337201761	-4.8964708003	-0.6257247449	 0.106275
H	 1.5544845968	-5.049471366	 1.9626544937	 0.104369
H	 2.5022377167	-4.0414884843	 0.860911586	 0.109092
H	 1.9534922084	-2.3670717627	 2.5291832047	 0.134714
H	 0.3921119326	-3.1170354229	 2.8692566879	 0.102711
