17
gdb 36647	5.91805	0.74242	0.72562	2.5962	73.92	-0.2437	0.0154	0.2591	1520.9012	0.136145	-417.924735	-417.916626	-417.915681	-417.958553	29.872	
N	-0.1898807605	-1.1522258342	-0.1923861352	-0.293746
C	-0.0974551562	-0.0166984519	-0.0034800828	 0.257004
C	 0.0355439501	 1.4180042654	 0.2658848475	-0.269597
N	 1.2698414503	 1.9440757261	-0.307093749	-0.323088
C	 1.4227708261	 3.3635411459	-0.1522530583	 0.085444
C	 1.968279011	 4.1080834664	 1.1313431344	 0.020335
C	 3.3864188445	 3.5626584709	 0.845184983	-0.237608
C	 2.7655869328	 4.0621819419	-0.4841079462	 0.006871
O	 2.2634334533	 5.2495113093	 0.2412866886	-0.295783
H	-0.8133528055	 1.9369384097	-0.1958701369	 0.162793
H	-0.0624071547	 1.5672431548	 1.3555881784	 0.138461
H	 2.0687560281	 1.4258539662	 0.0385729637	 0.237017
H	 0.5644908085	 3.8850204034	-0.5840296	 0.099831
H	 1.4900021255	 4.3305994323	 2.0857344988	 0.096364
H	 4.1986915619	 4.1809709527	 1.2281023622	 0.119493
H	 3.5864567204	 2.4954171538	 0.9762652701	 0.092598
H	 3.2359455445	 4.2228151973	-1.4542762683	 0.103614
