22
gdb 63068	2.99274	1.39311	1.32768	1.5561	85.22	-0.22	0.0818	0.3018	1109.9097	0.195553	-367.170959	-367.16271	-367.161766	-367.203014	33.762	
C	-0.0796090929	 1.5663433273	 0.0407835208	-0.479431
C	 0.0407154242	 0.0497388112	 0.0359823404	 0.321307
C	-1.2235654989	-0.5985173319	-0.5189082645	-0.444962
C	 1.3190765589	-0.679447098	-0.328094689	-0.088882
C	 2.6801390996	 0.001890334	-0.1292643988	-0.2848
C	 2.9079422929	 0.0358890275	 1.3879194691	-0.008669
C	 2.0944374968	 0.9077761412	 2.276245506	-0.255255
N	 1.7202832461	-0.5013589343	 2.0821742433	-0.110526
C	 0.7373611718	-0.8514593028	 1.0627068327	-0.051781
H	 0.8789321824	 2.0869222053	 0.0479125489	 0.124028
H	-0.6002636266	 1.8837531923	-0.8703125311	 0.11059
H	-0.6700879906	 1.9275978107	 0.8903418281	 0.123376
H	-1.4010274777	-0.2765261979	-1.5519488539	 0.112957
H	-1.155684923	-1.6904302876	-0.5178166494	 0.11499
H	-2.1017479335	-0.3171411567	 0.0739405092	 0.116269
H	 1.2644463506	-1.4665679699	-1.0745845458	 0.078944
H	 3.4601768451	-0.6020971348	-0.6014166643	 0.108723
H	 2.7374584277	 0.9958930926	-0.5868720726	 0.108201
H	 3.8712034099	-0.3158866621	 1.7512625748	 0.087945
H	 2.46225041	 1.1304230972	 3.2753687849	 0.110246
H	 1.4824439744	 1.6882239709	 1.850436042	 0.118395
H	 0.188745153	-1.7479396142	 1.3326130892	 0.088333
