13
gdb 3284	5.69921	2.59864	2.13169	4.1722	53.09	-0.2719	0.0076	0.2795	617.0056	0.103212	-344.46427	-344.458732	-344.457788	-344.493679	20.74	
O	-0.1992426629	 0.1809081756	 0.4007676597	-0.322928
C	-0.0289849792	 1.2983905394	 0.0349276742	 0.453403
O	-0.9782922587	 2.1763988233	-0.4482788175	-0.255897
C	 0.02313744	 3.2199968725	-0.6734867476	 0.117353
C	 0.1432922596	 4.1748314623	 0.5310227517	-0.235546
C	 1.2242064879	 3.2365104513	 1.1545697473	-0.23581
C	 1.119239893	 2.2937203627	-0.0897063094	-0.223719
H	-0.0252921733	 3.5955396189	-1.6940310262	 0.101191
H	 0.5323831944	 5.159206477	 0.2610516817	 0.115888
H	-0.7845687915	 4.301145542	 1.0914081069	 0.127081
H	 2.2053188514	 3.7067303612	 1.2348636768	 0.120929
H	 0.9834456408	 2.7719786981	 2.1122623858	 0.128641
H	 2.0266846484	 1.9663661057	-0.5919596833	 0.109415
