17
gdb 72715	2.79481	2.08929	1.66135	1.6765	72.79	-0.2292	-0.0131	0.2161	859.3218	0.13566	-421.690043	-421.683359	-421.682415	-421.720361	29.18	
O	 0.1193813641	 1.3182640685	-0.0543625062	-0.46997
C	 0.1658084348	-0.0825430763	-0.0661733809	 0.431726
C	 0.2209739245	-0.4691878213	-1.5831387391	-0.301563
C	-1.3862639202	-0.407776409	-1.5183077813	-0.328971
C	-1.1852136002	-0.7819979736	-0.0262227371	 0.308398
O	-1.3374043033	-0.2494305519	 1.3800749177	-0.391801
C	 0.1321841458	-0.6484292581	 1.4264754119	-0.13278
C	 0.0542319081	-2.1454005612	 1.2418329464	-0.051695
C	-0.8418040872	-2.237271182	 0.2540184022	-0.143734
H	-0.4540703239	 1.5529784305	 0.6903403201	 0.283909
H	 0.7188931096	 0.2513839555	-2.2327607684	 0.119517
H	 0.5737550449	-1.4807834924	-1.7808744418	 0.12339
H	-1.7294976856	 0.6119209411	-1.6810679515	 0.137901
H	-1.9533793481	-1.1088920257	-2.1349254213	 0.107021
H	 0.6637846471	-0.1964813208	 2.2646590344	 0.084621
H	 0.6048370898	-2.8997825105	 1.7833057626	 0.116524
H	-1.2278664902	-3.0971249128	-0.2752765677	 0.107506
