21
gdb 92144	2.47358	1.58264	1.3459	1.1359	81.61	-0.2408	0.0816	0.3224	1076.6079	0.183814	-387.075603	-387.06743	-387.066485	-387.107887	32.834	
C	 0.0091438892	 1.5301870432	-0.0428835482	-0.518853
C	-0.0035694241	 0.0334608759	 0.0190555823	 0.352498
C	 0.4680616954	-1.0342062122	-0.9600139466	-0.129566
C	 1.2411983494	-1.7607160392	 0.1388192944	-0.234562
C	 0.4857937351	-0.8832231677	 1.1887219101	-0.095843
C	-0.7696844383	-1.5994233687	 1.7008061631	-0.254558
C	-1.6185933529	-1.8477269043	 0.4212096804	 0.115773
O	-2.9900210044	-1.4937195978	 0.5759706893	-0.445727
C	-1.0061185243	-0.8987289856	-0.5996027113	-0.080018
H	 1.0125554653	 1.9359356697	 0.1325069654	 0.113843
H	-0.3239988108	 1.8836499408	-1.0245133971	 0.119321
H	-0.6613093716	 1.9666110952	 0.7073683913	 0.121428
H	 0.7886637361	-0.914743175	-1.9895088985	 0.076702
H	 1.1349949154	-2.849045283	 0.2257164618	 0.083923
H	 2.3060214688	-1.5155609519	 0.0994853458	 0.097963
H	 1.1016794668	-0.4328086141	 1.9679435836	 0.06438
H	-0.5387101411	-2.5185720962	 2.250719519	 0.086589
H	-1.3470847845	-0.9393580995	 2.3585635676	 0.099411
H	-1.5450079509	-2.8944217168	 0.0895178293	 0.062866
H	-3.3801604014	-2.100835494	 1.2124900079	 0.278495
H	-1.6534281571	-0.5336666886	-1.3893747095	 0.085937
