13
gdb 48457	2.06746	1.54341	1.32433	5.3193	65.45	-0.2733	-0.08	0.1934	1018.8084	0.086983	-452.74073	-452.732273	-452.731329	-452.774558	29.187	
O	-0.7646530288	 1.0784499667	 0.8797108803	-0.215135
C	 0.0895639301	 0.8734097349	 0.0668897042	 0.143225
C	 1.346393797	 1.7350036231	-0.093906015	-0.073354
N	 2.4101007452	 1.1007984522	-0.9048473076	-0.349567
C	 2.5103174584	 2.2171791901	-1.8791202822	-0.27216
C	 1.2400531605	 2.8132457918	-1.2764977397	 0.366018
O	 0.4673419354	 3.6681774614	-1.5381386363	-0.228709
C	 1.7730925696	 2.357556253	 1.1510578114	 0.269956
N	 2.1768532688	 2.844082706	 2.1192230951	-0.317782
H	 0.0509007333	 0.0569050596	-0.683305729	 0.110821
H	 3.2591776836	 0.8891306192	-0.3946795709	 0.253911
H	 3.3683539657	 2.890870089	-1.7506592121	 0.156412
H	 2.446866621	 1.9161200631	-2.9297139481	 0.156363
