17
gdb 80339	2.18806	1.50625	1.31954	2.27	74.25	-0.2323	0.0153	0.2476	1070.078	0.132979	-421.736959	-421.72806	-421.727116	-421.770107	33.717	
C	-0.1315546563	 1.4857246891	-0.1744971136	-0.421805
C	 0.0286570039	-0.0026291026	 0.039263337	-0.099965
C	 1.3215837211	-0.7567593602	-0.1438437747	 0.01859
O	 2.44085494	 0.033617565	 0.2794900743	-0.291189
C	 1.9762028274	-0.0091220937	 1.6649240132	-0.111012
C	 1.9514432837	 1.2660006942	 2.3583725674	 0.309197
C	 1.9348773736	 2.2978025709	 2.9756657246	-0.433581
C	 0.6773646113	-0.7052757283	 1.21884474	 0.274063
O	 0.0795248048	-1.704650414	 1.95359749	-0.450917
H	 0.8029332552	 2.0124415429	 0.024664994	 0.148314
H	-0.4192820653	 1.6870412865	-1.2119476551	 0.116339
H	-0.9055647508	 1.9055021672	 0.4761529953	 0.114272
H	-0.8088692093	-0.6124512992	-0.300533092	 0.09544
H	 1.5069237267	-1.5579918601	-0.8488339256	 0.113942
H	 2.5926847027	-0.7261876513	 2.2220482526	 0.121444
H	 1.9179751479	 3.2156711754	 3.5102713007	 0.202456
H	-0.6943089267	-1.3382422117	 2.3958039419	 0.294411
