16
gdb 14651	9.97035	0.60588	0.57736	3.2402	71.81	-0.2539	-0.0285	0.2253	1848.7244	0.125855	-383.705594	-383.695601	-383.694657	-383.743712	31.501	
C	-0.004101377	 1.4765621636	 0.0955684455	-0.498985
C	-0.0137058973	 0.0221134851	 0.0515445698	 0.143977
C	-0.0259114944	-1.1802928216	 0.0148001273	-0.001871
C	-0.0129322433	-2.6343411528	-0.0276472422	-0.207691
O	-1.3399656474	-3.1327293364	-0.1102377177	-0.245609
C	-1.3928612008	-4.5349242504	-0.1545181404	-0.132867
C	-2.8525064453	-4.947739876	-0.2400178583	 0.139773
O	-3.2176234824	-6.0914593477	-0.2935742743	-0.238154
H	 1.0213954441	 1.86120748	 0.1172508072	 0.1524
H	-0.5002933476	 1.9041268585	-0.7822889222	 0.153045
H	-0.5183061667	 1.8515009354	 0.9870104788	 0.152717
H	 0.5746214478	-2.9838190705	-0.8939904039	 0.118772
H	 0.4843314618	-3.0361918591	 0.8718864978	 0.118783
H	-0.8568037449	-4.9456176756	-1.0276564407	 0.122154
H	-0.9458319563	-4.998044931	 0.7422178503	 0.122125
H	-3.5574917702	-4.0879721415	-0.2484497871	 0.101431
