21
gdb 101618	2.71794	0.82043	0.73454	2.5379	80.75	-0.2576	0.0458	0.3034	1629.9731	0.17946	-424.190803	-424.180022	-424.179078	-424.226984	39.476	
C	 0.907901454	-0.1609724596	 1.2497052123	-0.397396
C	 0.0470374447	 0.112801735	 0.0012901405	-0.133396
C	 0.7355324053	-0.4025361181	-1.2840773249	-0.213932
C	 0.0470182549	 0.0479967914	-2.5704647638	 0.086438
O	 0.0379274474	 1.4782145629	-2.6997467149	-0.43859
C	 0.6686566104	-0.5566412415	-3.8310577747	-0.063396
O	 0.0411810386	-0.0601028512	-4.9922884287	-0.424602
C	-1.2865321114	-0.4688196078	 0.1503547977	 0.340928
C	-2.371926981	-0.9711759633	 0.2757182745	-0.491761
H	 1.0704447271	-1.2351839109	 1.3810298948	 0.126511
H	 1.8838130665	 0.3256539075	 1.1539290052	 0.111632
H	 0.4194492426	 0.2191005992	 2.1504250139	 0.128751
H	-0.069811635	 1.1984586829	-0.1103930986	 0.11695
H	 1.7757517087	-0.0462279928	-1.2890591179	 0.085621
H	 0.7785169878	-1.4979873481	-1.2586706083	 0.111951
H	-1.0129518067	-0.2256954823	-2.5376915658	 0.115637
H	 0.9540312421	 1.7794722997	-2.6548945185	 0.280174
H	 1.7547996949	-0.3419051785	-3.835628803	 0.06732
H	 0.5530064979	-1.6461613732	-3.8295341977	 0.108753
H	-0.1270021207	 0.8739948261	-4.8104248076	 0.284346
H	-3.3370544282	-1.3998776176	 0.3871846354	 0.198061
