14
gdb 132006	2.40112	1.85907	1.05468	4.0802	70.08	-0.2359	-0.036	0.1999	1048.6995	0.100813	-477.998147	-477.990445	-477.989501	-478.030582	28.23	
C	 0.0468478751	 1.5068051566	 0.0387633396	-0.487006
C	-0.0467796	 0.0228962116	 0.0712705474	 0.228417
C	-1.1392198401	-0.7261061657	-0.1453919006	 0.140994
F	-2.2980515923	-0.1381217057	-0.424924915	-0.050547
C	-1.1078096902	-2.1848762986	-0.0860222208	 0.26544
N	-2.1514283751	-2.8855989704	-0.294469361	-0.518476
N	 0.1626735493	-2.7304607658	 0.2177183848	-0.316361
C	 1.1452227704	-1.9506941204	 0.4087176658	 0.118335
O	 1.1497995549	-0.5996760505	 0.3604575283	-0.217701
H	 0.7702342721	 1.830984081	-0.717253809	 0.151023
H	-0.9274334376	 1.9363756067	-0.1936975688	 0.159425
H	 0.3863506488	 1.8929097542	 1.0060688667	 0.151009
H	-1.9060084768	-3.873701387	-0.2040802168	 0.226057
H	 2.1378564917	-2.3233982959	 0.6439375693	 0.149392
