17
gdb 115253	3.41716	1.0122	0.82073	4.9727	76.7	-0.2737	-0.0561	0.2176	1381.3171	0.136396	-418.035098	-418.026384	-418.02544	-418.06939	30.872	
C	-0.0471456313	 1.5369521714	 0.0678759721	-0.384698
C	-0.0198644151	 0.0109822419	-0.0334296158	-0.181634
C	 0.7401871774	-0.4998224548	-1.26271947	 0.006383
C	 0.8098234219	-2.0495411447	-1.3647906632	-0.134922
O	 0.2643205942	-2.3517735829	-2.6756573246	-0.252966
C	-0.1200684421	-1.1539522389	-3.1751147632	 0.327062
N	 0.0801237635	-0.0867271521	-2.5191315667	-0.305867
C	-0.7477088633	-1.2033079791	-4.4674708292	 0.284628
N	-1.2514943079	-1.2445006849	-5.5058469502	-0.311935
H	 0.9662465783	 1.9446528277	 0.1519957562	 0.116292
H	-0.5116118697	 1.975342827	-0.8187411159	 0.147335
H	-0.6105702068	 1.8591197943	 0.9481834321	 0.116954
H	 0.4531363113	-0.4192349952	 0.8588749404	 0.102773
H	-1.0422312916	-0.3859513333	-0.0686452227	 0.107066
H	 1.7458270069	-0.0608882503	-1.261601078	 0.102107
H	 1.8234841399	-2.452746007	-1.3228956837	 0.133371
H	 0.1879748343	-2.5543243592	-0.6189033576	 0.128051
