16
gdb 46228	2.70283	1.37529	1.1125	6.1154	75.48	-0.2559	-0.0421	0.2137	1113.3094	0.12356	-400.758484	-400.750218	-400.749274	-400.791962	30.226	
O	 0.0139712944	 0.0715462122	-0.3209068942	-0.292951
C	-0.0346366274	 1.2365896023	-0.0571713503	 0.359935
C	-1.1366417638	 2.2044048697	 0.4161664552	-0.338794
C	-0.0560014079	 3.3325994414	 0.5055493032	-0.331694
C	 0.9999279013	 2.3409149446	-0.0146966983	 0.224322
C	 2.4491760289	 2.1693686866	 0.3322425672	-0.335034
C	 2.0782133536	 2.596151557	-1.0671023475	-0.232877
C	 2.2431880467	 1.7020167131	-2.1803403337	 0.309209
N	 2.3920382229	 1.0100333287	-3.0948285892	-0.330869
H	-1.917426554	 2.3663774504	-0.3319880487	 0.144285
H	-1.6116048194	 1.9147098243	 1.3568242751	 0.140199
H	-0.2397604088	 4.1900941526	-0.1443812857	 0.121172
H	 0.1322461194	 3.6900873087	 1.5201158124	 0.121828
H	 2.9169736231	 2.9138593674	 0.9669465691	 0.138674
H	 2.7964858539	 1.1505316332	 0.4653248241	 0.16085
H	 2.235725617	 3.6414511778	-1.3153807687	 0.141747
