21
gdb 62211	4.49726	0.55353	0.5157	2.2464	86.59	-0.2479	-0.0219	0.2259	2092.6073	0.178579	-387.073571	-387.062517	-387.061573	-387.111427	38.425	
C	 0.1388354946	 1.5822333389	-0.0359623278	-0.410533
C	 0.0473353931	 0.0467797336	-0.0207413933	-0.067324
C	-1.4058138374	-0.4752348467	 0.0524572538	-0.196968
C	-2.1453893309	-0.0983353743	 1.3409375253	-0.184716
C	-3.5514906921	-0.7303194877	 1.4060202011	-0.356879
C	-4.2787036336	-0.368913732	 2.6165066176	 0.289522
C	-4.8546326489	-0.0531006813	 3.6231511934	-0.432037
C	 0.6876576176	-0.501957689	-1.2815221759	 0.159972
O	 1.5921307363	-1.294891494	-1.3166951434	-0.248257
H	 1.1799388047	 1.9122438872	-0.1037988551	 0.130415
H	-0.4040292921	 2.0007441468	-0.8914969619	 0.120981
H	-0.2866038697	 2.0132852742	 0.8733547774	 0.1326
H	 0.6180417435	-0.3550286643	 0.823921938	 0.0961
H	-1.9683389879	-0.1031116164	-0.8156389031	 0.099862
H	-1.3875626663	-1.5691774327	-0.0390748278	 0.11106
H	-1.5672990461	-0.426021244	 2.2126631097	 0.115247
H	-2.2488723674	 0.9879657547	 1.4253271657	 0.116342
H	-4.1313254409	-0.4219445273	 0.5258362296	 0.130356
H	-3.4649250247	-1.8230013527	 1.3429384048	 0.132582
H	-5.3742721793	 0.2172413389	 4.5086186596	 0.195095
H	 0.2354861574	-0.1069534619	-2.2244010978	 0.066581
