20
gdb 57515	3.23254	0.94826	0.87739	2.6017	77.87	-0.2644	-0.0725	0.1919	1413.5009	0.167078	-440.31058	-440.300221	-440.299277	-440.345727	37.747	
C	-0.1367032831	 1.575274052	 0.124528915	-0.417142
C	 0.0185636286	 0.0521541774	 0.088274033	 0.356665
C	 0.639900851	-0.499443463	 1.3747404004	-0.417145
C	-1.3219411483	-0.624631652	-0.2021644623	-0.396932
O	 0.833073469	-0.3418533137	-1.0715035632	-0.293624
C	 2.1035688195	 0.0371603214	-1.2318568372	 0.308939
N	 2.7944221287	 0.7642876827	-0.4544082729	-0.507768
C	 2.6424113713	-0.5425881813	-2.5286956438	 0.114978
O	 3.7699425365	-0.3420027749	-2.8963202536	-0.237369
H	 0.8169790054	 2.0660736684	 0.318094506	 0.15686
H	-0.5392542991	 1.9401288273	-0.8253508188	 0.115977
H	-0.8403794303	 1.8472116413	 0.9174261896	 0.116349
H	-0.0350097287	-0.3038666937	 2.2138127075	 0.11635
H	 0.7789665448	-1.5820701958	 1.2971725024	 0.115976
H	 1.6022308356	-0.0316328543	 1.5819559678	 0.156861
H	-1.7408858048	-0.2619344466	-1.1448430836	 0.121331
H	-1.1992340485	-1.70889569	-0.2730192796	 0.121333
H	-2.0328357583	-0.4075830942	 0.5997388124	 0.119704
H	 3.7247866329	 0.863191952	-0.8682932961	 0.2435
H	 1.9215875479	-1.1581016928	-3.1023077631	 0.105159
