18
gdb 15931	3.34531	1.88993	1.50427	2.8091	72.29	-0.2438	-0.0243	0.2195	894.3075	0.153998	-347.791486	-347.783992	-347.783048	-347.823941	28.025	
O	-0.2636794563	 0.095502153	-0.1189940117	-0.258482
C	-0.0208232942	 1.2479956618	 0.1474378998	 0.064733
C	 1.3154316948	 1.8981026358	 0.0263922658	 0.283335
C	 1.6442797178	 3.0688858999	 0.990118177	-0.296131
C	 2.0497241488	 3.9774307567	-0.2058104953	-0.218285
C	 1.6230466156	 2.8711150209	-1.2067023248	-0.065415
C	 2.7479811607	 1.9105755769	-1.6589821353	-0.214274
C	 2.5080874316	 1.0114170485	-0.409841062	-0.294346
H	-0.8334818116	 1.9354785611	 0.4850139072	 0.063852
H	 0.7553155054	 3.4351035282	 1.5138999472	 0.105637
H	 2.4137360542	 2.8528285681	 1.736071051	 0.105778
H	 1.469996512	 4.9002773913	-0.2789648347	 0.106436
H	 3.1102315888	 4.2401828192	-0.2576073298	 0.103173
H	 0.8610686487	 3.138957321	-1.9398258759	 0.075675
H	 2.5220155954	 1.399928211	-2.598040775	 0.110122
H	 3.737434698	 2.3684994898	-1.7480689915	 0.099001
H	 3.3282819764	 0.9715962289	 0.311591345	 0.097986
H	 2.1937672739	-0.0068374122	-0.6442636169	 0.131206
