15
gdb 22439	2.5663	1.22366	0.83359	9.3767	78.89	-0.1954	-0.0539	0.1415	1304.5133	0.111276	-450.098345	-450.08865	-450.087706	-450.133156	33.648	
C	-0.0203300867	 1.4472841385	 0.0577071695	-0.354872
N	-0.0349259188	 0.0027642173	-0.0620638572	-0.352273
C	 0.6042344135	-0.6961846259	-1.0117440497	 0.453343
N	 1.2850685487	-0.0428296599	-1.9742975231	-0.544907
H	 1.6504717943	-0.6502023177	-2.698605033	 0.284372
H	 1.0605777804	 0.9091261955	-2.206089864	 0.270249
C	 0.6043295853	-2.1112538192	-1.0021468256	 0.076509
N	 1.2231395567	-2.7090620369	-2.0762439301	-0.100694
O	 1.2545808425	-3.9387128996	-2.1112209515	-0.325628
C	-0.0220927217	-2.804529219	 0.0633453566	 0.226468
N	-0.5609629123	-3.2968623282	 0.9664143693	-0.380247
H	 1.0048557014	 1.8333425317	 0.0398745569	 0.155174
H	-0.5978907913	 1.9332903838	-0.7392788187	 0.144602
H	-0.4714209498	 1.7214687304	 1.0115732424	 0.162069
H	-0.5185590621	-0.5420203108	 0.6364142681	 0.285836
