19
gdb 37169	3.4041	1.72307	1.58014	1.9274	77.74	-0.2419	0.0699	0.3117	916.4051	0.162491	-385.789229	-385.783045	-385.782101	-385.819265	27.448	
C	 0.0296436116	 1.528276138	 0.1220911057	-0.311237
C	 1.3539761234	 0.8299525336	-0.106160479	-0.026668
C	 0.0496546301	 0.0201281907	 0.0471919881	-0.16213
C	 0.0965329087	-0.6086293477	-1.3334331817	 0.279619
C	-0.7168203731	-1.1406998925	-2.5114159453	-0.201488
O	 0.1666323534	-0.3962137654	-3.411584193	-0.316398
C	 0.5662920377	 0.4853916383	-2.3141751645	 0.122982
C	 1.8811517765	 0.3927921887	-1.5222296583	-0.106221
C	 1.5993960291	-1.1285554818	-1.3961138008	-0.238324
H	-0.0945214922	 1.9398850974	 1.1195928062	 0.111475
H	-0.4570812951	 2.1231360988	-0.6402943093	 0.11734
H	 2.0885530462	 0.8534568636	 0.6908388409	 0.093651
H	-0.142803966	-0.5738820745	 0.9332779569	 0.089533
H	-0.693066908	-2.2165985265	-2.7116313765	 0.107741
H	-1.7470127442	-0.7665606698	-2.5781874061	 0.103814
H	 0.089721982	 1.4573066543	-2.4464148501	 0.074745
H	 2.841046167	 0.8123467215	-1.829267762	 0.061795
H	 1.9751676992	-1.6271517508	-0.5000015373	 0.086688
H	 1.8236991738	-1.7025492762	-2.294754144	 0.113083
