17
gdb 41387	2.75668	1.98804	1.34741	4.5459	72.02	-0.2233	0.0084	0.2316	943.7443	0.138725	-417.945772	-417.938908	-417.937964	-417.976959	27.332	
C	-0.0232894718	 1.5971207864	 0.1599770014	-0.169365
N	 1.4135780736	 1.5860245016	-0.22543017	-0.352018
C	 1.3314857605	 0.1628564407	-0.6068234411	 0.191645
C	 2.1615009489	-0.4133435115	-1.789736881	-0.195717
O	 2.9754998761	-1.2082232424	-0.8366590751	-0.276707
C	 2.0761084765	-0.8788318028	 0.1467326116	 0.432159
N	 1.5920256237	-1.4570355774	 1.154966622	-0.314974
C	 0.2843305518	-0.758285341	 1.365577275	-0.169882
C	-0.0743611883	 0.0515416249	 0.0539038812	-0.156659
H	-0.2114010025	 2.0234846384	 1.1509009103	 0.109216
H	-0.676022686	 2.0938615691	-0.5676044508	 0.100041
H	 1.6459899249	 2.2066404909	-0.9921017349	 0.221639
H	 1.6463025136	-1.0773610813	-2.4875419254	 0.134177
H	 2.7836827783	 0.3135713823	-2.3176307762	 0.126408
H	-0.4640908514	-1.525629258	 1.5817158611	 0.115702
H	 0.3317907369	-0.0956965761	 2.2378503663	 0.116852
H	-0.9206962349	-0.3759758537	-0.4831194943	 0.087482
