21
gdb 111525	3.35651	1.17177	1.07067	2.0723	83.4	-0.2238	0.0741	0.298	1239.1337	0.182835	-383.192149	-383.18354	-383.182596	-383.2256	33.384	
C	-0.2934390911	 1.4563886567	 0.2100280353	-0.373259
C	 0.2186983997	 0.0688420186	-0.1682445543	-0.112625
N	 0.7616156953	-0.6006157818	 1.0114692192	-0.078332
C	-0.0473636695	-1.3562505529	 1.9407150431	-0.043316
C	-1.1711312025	-2.1699722647	 1.2585837737	-0.354853
C	-0.0771927031	-2.8482682742	 0.4067410986	 0.354786
C	-0.021488122	-4.2741157219	 0.0271629904	-0.314851
N	-0.0868309709	-3.2186927473	-1.008377016	-0.364684
C	 1.0079528746	-2.0236088083	 1.0810935511	-0.119654
H	 0.5011966104	 2.04691565	 0.6747252862	 0.125327
H	-0.6547533546	 1.9899603388	-0.6744929457	 0.11047
H	-1.1212943717	 1.3871896494	 0.9239821895	 0.114439
H	-0.5782831144	-0.4998048192	-0.6676397407	 0.089031
H	 1.0384944845	 0.1504504568	-0.8901899681	 0.109431
H	-0.0129231454	-1.1020941232	 2.994114146	 0.094645
H	-1.6615832873	-2.8651469308	 1.9446224211	 0.111054
H	-1.9378835302	-1.5940158033	 0.7299208923	 0.102149
H	 0.9212463846	-4.8146984761	 0.0640064073	 0.119383
H	-0.9010701018	-4.8870722953	 0.2094774066	 0.11017
H	-1.0336788849	-3.1565273432	-1.3769319969	 0.228855
H	 2.0047903104	-2.371585418	 1.3316098612	 0.091836
