17
gdb 50355	4.89706	0.98594	0.89341	2.2201	76.26	-0.2497	-0.0366	0.2131	1270.3598	0.135885	-421.79493	-421.787194	-421.78625	-421.827875	28.899	
O	 0.0209697799	-0.1039583858	-0.0214157948	-0.244177
C	 0.0379487033	 1.0970522455	 0.0396576338	 0.157296
C	 1.2888515824	 1.9542455182	 0.0422711647	-0.099966
C	 1.3019216355	 2.9304238263	-1.1953496344	-0.288532
C	 2.0524185774	 4.1524802241	-0.6483231358	 0.108932
O	 1.4684483152	 5.5039718908	-0.6525832284	-0.304674
C	 1.5962645279	 5.5889256501	 0.801894664	-0.155862
C	 1.7942928486	 4.0940563262	 0.8177502995	 0.194926
C	 1.3027173426	 2.9323488318	 1.2287877217	-0.231552
H	-0.9080847716	 1.6875724483	 0.0898760279	 0.075891
H	 2.1470779377	 1.2725688731	 0.0299012424	 0.10358
H	 1.7470223451	 2.4756309277	-2.083212285	 0.115213
H	 0.2732871224	 3.2264384634	-1.4326499115	 0.124754
H	 3.0949517536	 4.20796206	-0.9874687276	 0.088244
H	 2.4656183173	 6.1954959428	 1.085727319	 0.114543
H	 0.6963022074	 5.9806516279	 1.2861171796	 0.126322
H	 0.8682206653	 2.6941663795	 2.1922946547	 0.115064
