18
gdb 80075	2.53108	1.8972	1.56323	1.8243	76.34	-0.2221	-0.0119	0.2103	932.7852	0.149063	-401.900781	-401.893442	-401.892498	-401.932227	29.353	
C	-0.3976298728	 1.4504714598	-0.2206182163	-0.306687
N	-0.010803655	 0.0633908701	 0.0174691939	-0.105047
C	 1.3348925012	-0.4403843003	-0.2839482313	-0.086125
C	 2.4783835726	 0.4431345786	-0.6055152699	-0.074055
C	 3.081873039	 1.2464330608	 0.28188415	-0.081507
C	 2.6685557189	 1.3081396266	 1.6999411385	-0.007143
O	 1.3952683082	 1.9109891117	 2.0214301381	-0.24807
C	 1.5055632326	 0.495635971	 2.12600055	 0.031701
C	 0.798761991	-0.3861492395	 1.1315207064	-0.059256
H	 0.4168721265	 2.1770812686	-0.1734983304	 0.12986
H	-0.8647532791	 1.4934148738	-1.2105060663	 0.111832
H	-1.1477237983	 1.7350868177	 0.5220142572	 0.125743
H	 1.3238093084	-1.3856903329	-0.8244368352	 0.090495
H	 2.851794573	 0.4021216392	-1.6256090564	 0.100485
H	 3.9357656263	 1.8466875884	-0.0180212385	 0.098896
H	 3.4432799621	 1.5481330109	 2.4261140177	 0.095758
H	 1.4863202609	 0.1224694078	 3.1498005891	 0.094103
H	 0.4433886144	-1.3150478221	 1.5758751233	 0.089018
