20
gdb 93156	2.477	1.56897	1.03925	3.4411	81.26	-0.2305	0.0021	0.2326	1176.1064	0.172467	-403.181326	-403.172536	-403.171592	-403.215121	32.85	
C	-0.06899093	 1.5329612407	 0.0140175682	-0.349227
N	 0.0384173566	 0.0802088771	 0.0947927265	-0.095371
C	-1.2410460279	-0.6426678438	 0.0197066919	-0.220832
C	-1.4110632384	-1.7726975065	 1.0057086215	-0.059008
C	-0.6786693934	-2.8786770935	 0.9121084707	-0.044416
C	 0.3935754049	-2.9995841219	-0.1362245813	-0.284943
C	 1.5309753446	-1.9872117813	 0.0843514344	-0.271831
C	 1.2977510243	-0.4688623594	 0.0466144658	 0.389745
O	 2.2968239503	 0.2346800216	 0.008002976	-0.382613
H	 0.931996542	 1.9540006712	 0.0744672413	 0.171987
H	-0.5336731298	 1.8424036022	-0.9314191788	 0.117812
H	-0.6814305866	 1.9140684437	 0.839423113	 0.118554
H	-2.0176815092	 0.1049941084	 0.191987219	 0.114186
H	-1.401711687	-1.0145206907	-1.0042075396	 0.118943
H	-2.1593080018	-1.6560283351	 1.7834609754	 0.097552
H	-0.8075892042	-3.6904291305	 1.6226539116	 0.096635
H	 0.8271619576	-4.0040240295	-0.1324982175	 0.105241
H	-0.0376069237	-2.8570958127	-1.1365072983	 0.113784
H	 1.9909594154	-2.1732271616	 1.0625338433	 0.133364
H	 2.3260896365	-2.1519555783	-0.6492636432	 0.130439
