22
gdb 105484	1.92084	1.48966	1.20408	3.3242	81.61	-0.2384	0.0323	0.2707	1205.3657	0.193524	-404.381678	-404.371535	-404.37059	-404.41706	37.581	
C	-0.1254389889	 1.6586340323	-0.446721742	-0.391226
C	-0.0505651689	 0.183229862	-0.0425031387	-0.233101
C	-1.4213098385	-0.4962578768	 0.1369762637	 0.249973
C	-2.1635823882	-0.7760879585	-1.2016454887	-0.261654
C	-1.7178212034	-2.2609913654	-1.1272940798	-0.21144
C	-1.2971601779	-2.0453753382	 0.3513984831	-0.282416
C	-2.2622050996	 0.2379011856	 1.1791468273	 0.331479
N	-1.7760241069	 0.1700159288	 2.4588920129	-0.522116
O	-3.2726660049	 0.8584717405	 0.90842355	-0.367863
H	 0.8775720323	 2.0686557603	-0.5991571145	 0.109875
H	-0.6854719329	 1.7900632706	-1.3777097936	 0.126052
H	-0.6210052491	 2.258761388	 0.3222898359	 0.134602
H	 0.5093881648	-0.3796329824	-0.8004579285	 0.097194
H	 0.522266315	 0.0886413683	 0.889283708	 0.087041
H	-3.2395248828	-0.6348188906	-1.0911257155	 0.124732
H	-1.8281742407	-0.2037047906	-2.0698348907	 0.095191
H	-2.4879145924	-3.0138948014	-1.3080070292	 0.101268
H	-0.8668855562	-2.4838542422	-1.7758884975	 0.102247
H	-0.3090329801	-2.4126073961	 0.6463933521	 0.091607
H	-2.0360218846	-2.4309320768	 1.0596604916	 0.103465
H	-1.0515704975	-0.4798561246	 2.7112041504	 0.257442
H	-2.3521813387	 0.544993237	 3.1952628536	 0.257648
