19
gdb 23266	2.5629	1.47724	1.05972	2.0018	78.24	-0.2362	0.0141	0.2504	1157.0887	0.159977	-419.15949	-419.151096	-419.150151	-419.192347	32.64	
C	 0.1777353486	 1.6145454498	-0.0338478347	-0.392736
C	 0.091988978	 0.088695729	 0.0426527726	-0.066738
C	 0.6781715313	-0.6469943257	-1.1545409525	-0.044462
N	 2.1507850806	-0.5450375795	-1.2217796356	-0.332729
C	 1.525164917	-1.777287584	-0.6948533421	-0.052134
C	 1.5390313807	-1.8200334394	 0.8206693226	-0.301324
C	 0.8518626126	-0.5263892456	 1.2148523	 0.391531
N	 0.8644118826	 0.043382138	 2.3506655113	-0.22743
O	 1.5951054448	-0.7029722959	 3.2942642576	-0.394137
H	 1.2124711374	 1.9204435647	-0.2086131374	 0.135166
H	-0.4424867648	 1.9988347544	-0.8503438142	 0.100955
H	-0.1617807605	 2.0636657108	 0.9021532127	 0.131689
H	-0.9639457893	-0.208711911	 0.1311116281	 0.089861
H	 0.1112735299	-0.6945835777	-2.0788667144	 0.083614
H	 2.4574650209	-0.702056812	-2.1783874721	 0.231448
H	 1.6116097075	-2.6960603218	-1.2652323706	 0.086596
H	 0.9767134282	-2.6829762989	 1.2003475093	 0.119145
H	 2.5438569016	-1.8752394794	 1.2481819107	 0.13702
H	 1.5579850128	-0.1359762859	 4.0716744589	 0.304668
