21
gdb 65784	3.12401	0.99765	0.9512	3.5905	78.31	-0.2389	-0.015	0.2239	1342.6862	0.181396	-424.252316	-424.242773	-424.241828	-424.287802	35.191	
O	 0.0957732837	 1.3156209532	 0.023365295	-0.4794
C	 0.0595167318	-0.1184190729	 0.0061234076	 0.38736
C	 0.844040038	-0.5114677254	-1.2541401917	-0.318674
C	 2.2895052909	-0.06128011	-1.2173324336	 0.155155
O	 3.2307890172	-0.7909136511	-1.4067780231	-0.251494
C	 0.6487056623	-0.6964344723	 1.3141176448	-0.241502
C	-0.5401109728	-0.7068912353	 2.2849438788	-0.224653
C	-1.6998238932	-1.2119818315	 1.4040866361	-0.202127
C	-1.4140637743	-0.6347492751	-0.0064925404	-0.261604
H	-0.3052050379	 1.6202069578	 0.8437733674	 0.279179
H	 0.8183914814	-1.5930426897	-1.4085887998	 0.11403
H	 0.3642123438	-0.0219549133	-2.1129095739	 0.1257
H	 2.4295157632	 1.0183342004	-1.0004623987	 0.094732
H	 0.9886672819	-1.7245872148	 1.1405037138	 0.10846
H	 1.509723683	-0.1158353353	 1.6566736389	 0.106325
H	-0.3702197551	-1.3263485231	 3.1693030829	 0.103446
H	-0.7468368697	 0.3085574946	 2.6506334508	 0.087981
H	-1.678923223	-2.3067428257	 1.3729040965	 0.105719
H	-2.6825421652	-0.9253435197	 1.7875953905	 0.100104
H	-2.0640128731	 0.2103819516	-0.2501441399	 0.10832
H	-1.5670743131	-1.3866050423	-0.7857764719	 0.102942
