15
gdb 123885	5.25222	1.10103	0.93562	4.4306	68.68	-0.2391	-0.0557	0.1833	1189.4588	0.113709	-450.049776	-450.042428	-450.041484	-450.082513	26.217	
C	-0.1645829376	 1.5364701748	 0.0431594998	-0.238707
C	 1.3735686732	 1.5710023756	-0.1720341135	-0.166198
N	 1.424863362	 0.1640758112	 0.2575169077	-0.145345
C	-0.0411207196	 0.0009845444	 0.2526690337	-0.166636
C	 2.3320930889	-0.7518181562	-0.1422294802	 0.504243
N	 3.5280233575	-0.4996669206	-0.619087909	-0.220816
O	 4.0533155594	-1.7527735633	-0.8247469328	-0.142249
N	 3.1283498287	-2.6995310544	-0.4676494433	 0.050306
N	 2.089887667	-2.1177714073	-0.0549779237	-0.235326
H	-0.4937029367	 2.0736603166	 0.9331149879	 0.125903
H	-0.7677482508	 1.8485017315	-0.808669306	 0.124113
H	 1.6870765287	 1.708347711	-1.2138480245	 0.126186
H	 1.9500758261	 2.249234571	 0.4628321793	 0.129048
H	-0.4437739723	-0.406438205	 1.1835162806	 0.129937
H	-0.4053852546	-0.6021163193	-0.5865124858	 0.12554
