15
gdb 4974	3.26876	2.39955	1.39722	2.0492	72.	-0.2189	-0.0295	0.1894	852.2672	0.121162	-358.907908	-358.900913	-358.899969	-358.938745	26.93	
C	-0.0486778599	 1.5165980452	-0.031442169	-0.501372
C	-0.0145181984	 0.0136226132	-0.0135379458	 0.289181
N	-0.0092298852	-0.6342063752	-1.170452855	-0.287619
C	 0.007248591	-1.9747054	-1.1400992527	-0.049775
C	 0.0226519294	-2.6652835617	 0.0600917988	-0.022126
N	 0.0272557406	-2.0388487002	 1.2406455779	-0.312456
C	 0.004221727	-0.7069849475	 1.2112125728	 0.320378
N	-0.053701986	-0.0543097773	 2.4261841437	-0.56466
H	 0.8546266014	 1.9501156148	 0.4197938064	 0.122723
H	-0.1141362784	 1.8648543633	-1.06291802	 0.146596
H	-0.9071077962	 1.902370048	 0.5317730376	 0.135772
H	 0.0083963272	-2.4928661045	-2.0940299078	 0.104913
H	 0.0365451516	-3.7519980074	 0.084042628	 0.108421
H	 0.1765124847	-0.6433495522	 3.213260572	 0.256139
H	 0.3334848711	 0.8745414015	 2.4723540331	 0.253884
