17
gdb 93440	2.97902	1.3772	0.97193	3.7802	70.03	-0.2596	-0.0108	0.2488	1169.4281	0.138309	-455.243213	-455.23498	-455.234036	-455.276168	30.811	
C	-0.0311816353	 1.5840734846	-0.0220462995	-0.39648
C	 0.0551391212	 0.0584026859	-0.0019100631	-0.116308
C	 0.7477588492	-0.5169311971	-1.2413370823	-0.179754
N	 0.8856182755	-1.959639687	-1.1075352664	-0.347941
C	 1.3646603974	-2.5364102469	 0.0377976648	 0.452642
O	 1.7775410262	-3.6727481826	 0.118836862	-0.385725
N	 1.3252505025	-1.6902777797	 1.1580581828	-0.390056
C	 0.7375628725	-0.4408292216	 1.2715016005	 0.432012
O	 0.7517016676	 0.169233864	 2.3166347805	-0.351357
H	 0.9634179286	 2.03230754	-0.1136608051	 0.126943
H	-0.6404578339	 1.9257561839	-0.8638010864	 0.114473
H	-0.472882526	 1.9466738549	 0.9070271277	 0.150334
H	-0.9599853567	-0.3633401418	 0.033442496	 0.122369
H	 0.149791939	-0.3073675287	-2.1322120294	 0.124144
H	 1.724845983	-0.0272294184	-1.3789781468	 0.115828
H	 1.0546565723	-2.5142816026	-1.9323466252	 0.260122
H	 1.704039377	-2.092054597	 2.0051485901	 0.268753
