18
gdb 98238	2.6812	1.14035	0.91072	5.524	70.11	-0.2349	0.0023	0.2372	1308.2798	0.147616	-472.46122	-472.450966	-472.450022	-472.497058	36.254	
C	-0.2184193029	 1.3863588905	 0.0496008206	-0.332897
N	-0.1050078929	-0.0607812162	-0.0641079116	-0.316018
C	 0.6838247292	-0.6331616343	-1.0296923636	 0.389967
O	 1.424562047	 0.0111566265	-1.7464696146	-0.36649
C	 0.626486849	-2.1649985837	-1.0940922286	-0.158148
N	 0.7916175723	-2.5999708918	-2.4649816097	-0.524376
C	 1.6897858782	-2.8048262808	-0.1463164361	 0.385292
N	 1.7343839196	-2.3096330591	 1.1205027608	-0.518501
O	 2.3678946081	-3.7387115882	-0.5228707621	-0.355754
H	 0.7398005388	 1.8253035325	-0.2286509206	 0.170318
H	-0.9877816072	 1.792606488	-0.6178259832	 0.137974
H	-0.4615190671	 1.6588106039	 1.0794308349	 0.127869
H	-0.8685088696	-0.6159921202	 0.2910744979	 0.253484
H	-0.3470351193	-2.50134914	-0.7023334469	 0.095915
H	 1.3888677475	-1.9154654474	-2.9247332213	 0.244173
H	 1.3202750137	-3.4703595997	-2.4389202233	 0.244004
H	 1.3129789739	-1.4208840264	 1.3373683555	 0.259307
H	 2.4533355318	-2.6636137636	 1.7316061319	 0.263881
