21
gdb 92651	2.47022	1.66477	1.38722	1.8066	77.51	-0.251	0.0763	0.3273	1046.2291	0.184699	-424.218486	-424.21055	-424.209606	-424.250684	31.537	
C	-0.4112411831	 1.4913720478	-0.1224145131	-0.399918
C	-0.0640911535	 0.0065052493	-0.0484018707	 0.002153
C	 1.182387761	-0.4238222762	-0.8848145318	-0.243965
C	 2.0155475586	-0.5037282169	 0.41017669	 0.10086
O	 2.7527444728	 0.7052550421	 0.5679624856	-0.254136
C	 2.828915752	 1.1135190105	 1.9081548766	 0.015709
O	 1.5735436962	 1.4487830514	 2.4316890152	-0.228304
C	 0.7406758822	 0.2978282213	 2.5329025114	-0.121402
C	 0.6927373689	-0.4953382216	 1.2317504975	-0.026959
H	 0.4594103448	 2.1175796046	 0.0805116142	 0.141188
H	-0.7908938321	 1.7388138876	-1.1201255697	 0.107213
H	-1.1910833177	 1.7550172201	 0.6008768584	 0.107608
H	-0.96203991	-0.5815284804	-0.2620862625	 0.065402
H	 1.0600591834	-1.4002782956	-1.3605914838	 0.09686
H	 1.5575357762	 0.2916257089	-1.6201342234	 0.109657
H	 2.6858834382	-1.3638344448	 0.54414367	 0.062744
H	 3.2977739589	 0.322872611	 2.5260626663	 0.072253
H	 3.439403466	 2.0182468244	 1.9293234412	 0.115742
H	 1.1197445612	-0.3497953264	 3.341970697	 0.089722
H	-0.249800419	 0.6566021821	 2.8285671989	 0.112678
H	 0.3878961149	-1.5229664392	 1.4542272228	 0.074894
