15
gdb 75868	3.04647	1.4403	0.98999	0.813	69.49	-0.2582	-0.0891	0.1691	1114.0595	0.112324	-454.002734	-453.994424	-453.993479	-454.036014	29.289	
C	-0.37402921	 1.3415336154	 0.2478259521	-0.343165
N	-0.0987682153	-0.0818474168	 0.1323872212	-0.162966
C	-0.0539118291	-0.7511265627	-1.0951447663	 0.388906
O	-0.2314767006	-0.2544150329	-2.1793500192	-0.361948
C	 0.2619066444	-2.1976261936	-0.707100272	-0.303509
N	 0.3717912414	-2.2210312493	 0.7484629254	-0.273343
C	 0.1586993075	-1.0116397274	 1.1327543937	 0.286121
C	 0.1976327174	-0.6814122978	 2.5833353539	 0.115617
O	 0.0118424459	 0.4182913775	 3.0414881463	-0.261144
H	 0.4608469773	 1.8672004956	 0.7153930011	 0.150586
H	-0.5204615795	 1.7072967277	-0.7703029997	 0.163575
H	-1.2729216597	 1.5217570443	 0.8406729795	 0.150586
H	-0.5265587835	-2.8771365994	-1.0496424985	 0.163309
H	 1.1941364451	-2.5347646313	-1.1740338168	 0.163278
H	 0.4198162587	-1.5714229193	 3.2026974394	 0.124096
