18
gdb 78905	2.99425	1.97654	1.5848	1.7928	73.	-0.2288	0.0589	0.2877	881.0184	0.150536	-401.887054	-401.880626	-401.879681	-401.917455	27.398	
O	 0.1536297426	 1.3842602897	 0.1778768039	-0.440173
C	 0.0665029777	-0.023160719	 0.0099517416	 0.131661
C	-1.3802768113	-0.4436238264	-0.1837698533	-0.068195
C	-1.7460749262	-0.3398053582	-1.6133436424	-0.072098
C	-0.4240048145	-0.6679615609	-2.3325064144	-0.075621
C	 0.7455225955	-0.5485384618	-1.2596599953	-0.096701
C	 0.8111709972	-2.1003713696	-1.183574292	-0.242818
C	-0.5819575753	-2.1168969404	-1.8203886857	 0.040807
N	-1.73987494	-1.6887501202	-0.9262165696	-0.179073
H	-0.360455971	 1.7910954207	-0.5293151484	 0.278895
H	 0.5263287413	-0.4464978034	 0.9083921683	 0.092265
H	-2.1008001083	-0.2084829455	 0.5928711927	 0.101252
H	-2.6509659057	 0.0964657381	-2.0217349226	 0.094662
H	-0.2390664864	-0.3944063216	-3.3681493193	 0.07282
H	 1.6507611216	 0.0046624818	-1.5097234672	 0.07629
H	 1.5552439472	-2.5211089592	-1.8667035198	 0.10454
H	 0.9355849831	-2.5527516333	-0.1945050238	 0.102099
H	-0.9080580275	-2.9525513707	-2.4402087027	 0.079387
