19
gdb 67644	3.3185	1.8061	1.61215	0.7365	77.77	-0.205	0.0737	0.2786	916.4082	0.162001	-381.99853	-381.991768	-381.990824	-382.029226	28.228	
C	-0.1143138441	 1.4975104906	-0.0297875561	-0.518677
C	 0.1022788976	 0.0168193408	-0.0289188239	 0.361154
C	 0.151802473	-0.9102692328	-1.1688126956	-0.085204
C	 1.3430292872	-1.8360271317	-1.0078400164	-0.198839
N	 1.4621016051	-2.044234174	 0.4467696625	-0.135955
C	 0.3171022725	-2.9381879261	 0.8600189969	-0.183929
C	-0.5485594053	-1.7080021241	 1.0665229171	 0.025525
C	 0.7245464221	-0.8484009998	 1.082948466	-0.094725
N	-1.004306961	-1.0116158005	-0.2135197498	-0.218641
H	 0.8324395921	 2.0314362184	-0.1728757067	 0.123925
H	-0.7933643917	 1.7816190462	-0.8388780369	 0.133318
H	-0.5531411026	 1.8394072487	 0.913929291	 0.124877
H	-0.1679608127	-0.5840589447	-2.154323639	 0.094513
H	 1.2405878435	-2.803202934	-1.5095220432	 0.108966
H	 2.2413368602	-1.3483836741	-1.4102237472	 0.103066
H	 0.0092951509	-3.67279004	 0.108622881	 0.10354
H	 0.5555849823	-3.4560951104	 1.7952459673	 0.105835
H	-1.3488566926	-1.6672490196	 1.8070464849	 0.076694
H	 1.2165971237	-0.4164959431	 1.952822008	 0.074557
