16
gdb 46766	2.80844	1.79717	1.2955	1.6491	67.79	-0.2427	-0.0394	0.2033	956.7486	0.126639	-437.928129	-437.921152	-437.920207	-437.960132	26.595	
O	-0.0064470525	 0.1343463082	-0.7729145022	-0.298498
C	-0.0274390421	 1.2089342724	-0.2374395764	 0.396745
C	-1.2513380455	 2.0127645899	 0.1907967296	-0.328856
C	-0.802658395	 3.4771189571	 0.0547821679	-0.229697
C	 0.7054380929	 3.4800232551	 0.4118962071	-0.019564
N	 0.9336723277	 3.6409005025	 1.8628868589	-0.265155
C	 1.4985675535	 2.5762867248	 2.2509829406	 0.116616
O	 1.7702486874	 1.5869101356	 1.3624335591	-0.225953
C	 1.2276214309	 2.0524448154	 0.0997575537	-0.020119
H	-2.1300998044	 1.7373062582	-0.394018667	 0.13174
H	-1.4597759095	 1.7701434192	 1.2414662101	 0.143594
H	-0.9339452286	 3.8149199368	-0.9787815801	 0.111489
H	-1.3513333575	 4.1615993243	 0.7038025517	 0.128564
H	 1.2336424579	 4.276720264	-0.1181519452	 0.096316
H	 1.8116408782	 2.3583346237	 3.2660116462	 0.149545
H	 1.9998721265	 1.9496662427	-0.663358164	 0.113233
