19
gdb 45211	2.88516	1.77491	1.38561	2.99	77.45	-0.2314	-0.0146	0.2168	972.1422	0.16182	-385.899486	-385.892614	-385.89167	-385.93092	28.276	
O	 0.0002967877	-0.0243845239	-0.1199501988	-0.319216
C	-0.0215784263	 1.1757978715	-0.0179555381	 0.389809
C	-1.2871408582	 2.0394010525	 0.1070706321	-0.333932
C	-0.805816706	 3.4391724695	 0.4839978238	-0.027001
C	-0.3627708691	 3.6522519964	 1.9685974985	-0.244006
C	 1.1300782085	 3.6744163413	 1.5476904367	-0.014727
C	 1.7928221081	 2.2786270238	 1.4571266693	-0.238947
C	 1.203836187	 2.0850752706	 0.012027083	-0.126692
C	 0.6965986137	 3.5509229818	 0.0456357705	-0.055509
H	-1.7742729237	 2.0373837939	-0.8773661054	 0.12723
H	-1.994951407	 1.5911139259	 0.8104519633	 0.126583
H	-1.4656528876	 4.2244654424	 0.1132630006	 0.074149
H	-0.7018499573	 4.6115277863	 2.3671050265	 0.104321
H	-0.6512970779	 2.869372903	 2.6784859356	 0.096268
H	 1.7422374301	 4.4866498794	 1.9404090379	 0.067094
H	 2.8830879098	 2.338018978	 1.4256285436	 0.111294
H	 1.5097201118	 1.5355863313	 2.2090975472	 0.10704
H	 1.933066486	 1.7804590141	-0.7390798718	 0.092699
H	 0.9826767402	 4.2411566723	-0.7467156744	 0.063543
