12
gdb 20756	5.77343	1.64247	1.28895	5.7492	59.47	-0.2754	-0.1088	0.1666	875.3584	0.083092	-414.658582	-414.651773	-414.650828	-414.690236	24.199	
C	-0.0243820072	 1.5384923548	 0.0193727544	-0.481152
C	-0.0028507507	 0.0395494508	-0.0160724468	 0.331784
N	-0.0649506552	-0.5388790888	-1.168151169	-0.093998
O	-0.043672701	-1.9164911901	-1.1745481914	-0.241491
C	 0.0403499651	-2.6959235166	-0.0123394787	 0.480245
O	 0.050523633	-3.8805327465	-0.1467152251	-0.310171
N	 0.1061049649	-2.032225554	 1.2178390968	-0.285897
C	 0.0847629438	-0.7483809808	 1.1990461744	-0.007936
H	 0.8829860479	 1.9282276054	 0.4934735808	 0.150368
H	-0.0923729664	 1.9338778769	-0.9947623074	 0.164755
H	-0.8794350347	 1.9003618436	 0.6006966109	 0.150406
H	 0.1358347004	-0.2266685345	 2.1566152913	 0.143086
