14
gdb 13042	4.0838	1.45409	1.12878	3.9497	62.75	-0.2665	0.0039	0.2704	1000.1942	0.106092	-382.527548	-382.519909	-382.518965	-382.560187	27.135	
O	 0.0451330195	 0.0739627121	 0.2694803586	-0.307762
C	 0.0334646777	 1.2287486438	-0.0020549443	 0.457201
O	-1.0214616244	 1.9684999371	-0.4846602446	-0.237284
C	-0.2279455545	 3.1966827984	-0.4947412482	-0.105282
C	 1.0004163174	 2.4229359751	 0.0198338795	-0.182325
C	 1.5790434505	 2.823999312	 1.3858462789	-0.378141
C	 2.6253548831	 1.9203889003	 1.8455569672	 0.308995
C	 3.4970448257	 1.1773723719	 2.2064556624	-0.428654
H	-0.1602891859	 3.6085152372	-1.5032935092	 0.129096
H	-0.6493655618	 3.9339167662	 0.1934162225	 0.12598
H	 1.8009492022	 2.3146238434	-0.7154320917	 0.129373
H	 1.9813245655	 3.8423404937	 1.3079213983	 0.141298
H	 0.7706738166	 2.8683929744	 2.1269096289	 0.14341
H	 4.2568072784	 0.5113927644	 2.5334690117	 0.204095
