14
gdb 73784	2.47424	1.74203	1.02492	3.5923	72.79	-0.2108	-0.0609	0.1499	1070.506	0.102605	-470.072096	-470.064041	-470.063097	-470.104397	30.448	
N	 0.0419819448	 1.3870445355	 0.196600027	-0.615139
C	-0.0391118238	 0.0257100097	 0.0388774322	 0.191711
C	-1.1075903641	-0.801322597	-0.0663626054	 0.079482
N	-2.466984193	-0.532172455	-0.1362086488	-0.618517
C	-0.6011379132	-2.1742604102	-0.150586542	 0.406306
O	-1.2087098025	-3.2031402527	-0.2363010774	-0.344814
O	 0.7962930497	-2.1336104096	-0.1059562237	-0.23884
C	 1.1680841498	-0.8086342067	 0.0073169877	 0.386678
N	 2.3531790003	-0.3761049113	 0.057034284	-0.545932
H	 0.9798963172	 1.7443794621	 0.0686606896	 0.275335
H	-0.6644647275	 1.9303353646	-0.2789843159	 0.260043
H	-2.7939890548	 0.1520830114	 0.5342865298	 0.255367
H	-3.0147631967	-1.3829655727	-0.0837065631	 0.266583
H	 3.0328903636	-1.1348629881	 0.0039816059	 0.241736
