20
gdb 57927	3.2766	0.87715	0.7794	5.659	78.09	-0.2395	-0.0197	0.2199	1556.4725	0.167825	-440.35685	-440.345963	-440.345019	-440.394269	37.599	
C	 0.1979828517	 1.3656394395	-0.3934092639	-0.383418
C	-0.0164079011	-0.0740763391	 0.0814382528	-0.097902
C	 0.6386465314	-0.3227404199	 1.4552926587	-0.38259
C	-1.5172189378	-0.3767610056	 0.1924396375	 0.430145
O	-2.3360424885	 0.4539219597	 0.4922436237	-0.313191
N	-1.8267251719	-1.7242323122	-0.0495035011	-0.385432
C	-3.0769716261	-2.3583338461	 0.0457355478	 0.410523
C	-3.0058024284	-3.8395786963	-0.2997559712	-0.501838
O	-4.0920917281	-1.7974084227	 0.3642433079	-0.291844
H	 1.2651321073	 1.6058590065	-0.4139070173	 0.108835
H	-0.2083558669	 1.518960321	-1.3972548108	 0.121013
H	-0.3089904836	 2.0612980532	 0.2791465239	 0.145873
H	 0.4326492502	-0.7640690145	-0.6459275103	 0.072483
H	 0.4984073022	-1.354300149	 1.7939126962	 0.112086
H	 1.7136250961	-0.1255928651	 1.4058188147	 0.122145
H	 0.2023205146	 0.3413325277	 2.2076217404	 0.142747
H	-1.0524322037	-2.3125795317	-0.3171020026	 0.249633
H	-2.3172899721	-4.3655068827	 0.3705975547	 0.140443
H	-4.0025055695	-4.2673216764	-0.2004159012	 0.158512
H	-2.6495495657	-3.9851422262	-1.3253660799	 0.141777
