18
gdb 126692	3.18459	1.2476	0.98367	2.1465	74.79	-0.21	-0.014	0.196	1219.1108	0.148885	-431.42997	-431.420995	-431.42005	-431.464348	31.729	
C	-0.0040709662	 1.4931446789	-0.0411622629	-0.383223
C	-0.0116042555	-0.0399838939	-0.0400988515	-0.155562
N	 0.6517388564	-0.6473474418	-1.1906000341	-0.144715
C	 2.102640181	-0.6575298989	-1.2407638517	-0.335008
C	-0.0331304942	-0.7550244227	-2.3622665182	 0.523998
N	 0.5257111404	-1.0692295137	-3.5360685505	-0.337288
N	-0.5596903265	-1.0971497029	-4.3176471394	-0.074863
N	-1.6926759613	-0.8140762603	-3.7144434551	-0.104159
N	-1.3879817909	-0.5862216542	-2.4613993302	-0.301634
H	 1.0159441303	 1.8903587542	-0.0540560118	 0.116416
H	-0.5379698002	 1.8797798741	-0.9138322207	 0.138091
H	-0.5011785972	 1.873595846	 0.8568962457	 0.118389
H	 0.4893371538	-0.4199734313	 0.8573431837	 0.101823
H	-1.0408090848	-0.4046869614	-0.0201086087	 0.145041
H	 2.4881745409	-0.8554086243	-0.2370202218	 0.123212
H	 2.4417090268	-1.450746538	-1.9103428383	 0.152482
H	 2.5294253375	 0.2908704772	-1.598713621	 0.120747
H	-0.5122958501	-1.3088536571	-5.3020423035	 0.296254
