17
gdb 43157	3.53105	1.3102	1.21341	2.4725	77.98	-0.2375	-0.0099	0.2276	1056.667	0.13665	-384.660806	-384.653212	-384.652268	-384.692717	29.973	
C	-0.0639340676	-1.2763560653	-0.0916209394	-0.439522
C	-0.0361121347	-0.0748809337	-0.0395354264	 0.331312
C	-0.0034886604	 1.3695636992	 0.0219961943	-0.225946
C	-0.13097608	 2.0858108119	 1.4263406202	-0.145985
C	 1.0226697054	 1.4408837643	 2.2255484345	-0.228058
C	 2.1564049567	 1.461699089	 1.1355839878	-0.228059
C	 1.3908460415	 2.1137653247	-0.036718269	-0.145984
C	 0.6309876663	 3.2219908947	 0.717346892	 0.425461
O	 0.5744467847	 4.4134954672	 0.6813022307	-0.316542
H	-0.0945471893	-2.3366812992	-0.1436397727	 0.197996
H	-0.7032459328	 1.8035427663	-0.6975798835	 0.119252
H	-1.0930910391	 2.2303524339	 1.9122707138	 0.09126
H	 1.2774517878	 2.0245172927	 3.1132408207	 0.113957
H	 0.7730858343	 0.4252800748	 2.5386943954	 0.12282
H	 3.0221426664	 2.056542376	 1.4359158925	 0.113956
H	 2.4984009285	 0.4569563759	 0.8799778425	 0.122823
H	 1.9112467923	 2.2855371577	-0.9760601936	 0.09126
