21
gdb 94007	2.30418	1.36193	1.09474	1.7434	78.18	-0.2512	-0.0284	0.2227	1203.0121	0.181473	-424.244114	-424.234595	-424.233651	-424.278905	34.958	
C	 0.5914510887	 1.6413596313	-0.0304943732	-0.407855
C	 0.1207551221	 0.1873396727	 0.041848925	 0.104651
O	 0.5186575355	-0.5517176186	-1.1102268013	-0.256775
C	 1.8114637481	-1.09684371	-0.8802027865	-0.109951
C	 1.9911937967	-1.2582693344	 0.6501667643	-0.117569
C	 3.2425048358	-0.5725297849	 1.1567690038	 0.149051
O	 3.9833596345	-1.0328377038	 1.9867107773	-0.253407
C	 0.6635571053	-0.6482372198	 1.2235693532	 0.000314
C	 0.7689774998	 0.05484896	 2.5770552038	-0.42314
H	 1.6827773425	 1.727451858	-0.0007390181	 0.115948
H	 0.2461494682	 2.0856981105	-0.9679408205	 0.129359
H	 0.1841996611	 2.2293192844	 0.797575255	 0.119842
H	-0.9752449422	 0.176446754	 0.0438961517	 0.085454
H	 1.8705690296	-2.051607468	-1.4094930879	 0.11809
H	 2.5911823702	-0.4377862537	-1.2959094004	 0.094402
H	 2.0724713274	-2.3050395119	 0.9504004771	 0.100925
H	 3.4528071001	 0.4232902311	 0.6985137885	 0.075301
H	-0.0214272007	-1.495222495	 1.3349659827	 0.09594
H	 1.4246283886	 0.9296917485	 2.5443212816	 0.126067
H	-0.2174917006	 0.391640154	 2.9119550892	 0.118256
H	 1.1660990094	-0.6239131644	 3.3375709348	 0.135099
