21
gdb 22318	3.70219	0.78107	0.74877	1.1261	83.75	-0.2282	0.0156	0.2439	1617.9985	0.17979	-420.339951	-420.329467	-420.328523	-420.376598	37.532	
C	 0.7384639205	 1.0446407905	-0.6757139382	-0.412969
C	-0.1605848131	 0.2743704694	 0.2671057653	 0.033077
C	 0.131764892	-1.139713473	 0.6417374146	-0.250889
N	 0.2189565349	-0.0757792491	 1.6384315893	-0.087964
C	 1.5475317895	 0.2733651795	 2.138258309	-0.238596
C	 1.8497482298	-0.5169198142	 3.3890560905	 0.380608
C	 0.9344555877	-0.39326353	 4.5734290628	-0.477172
N	 2.900043384	-1.2435604435	 3.3344559223	-0.17333
O	 3.1367639554	-1.9205192731	 4.5424807183	-0.397865
H	 1.7682188178	 0.67991235	-0.666459145	 0.124805
H	 0.364285244	 0.9500321756	-1.700584777	 0.123275
H	 0.7521238892	 2.1120691292	-0.4282267324	 0.122723
H	-1.2088905046	 0.563759955	 0.1965670065	 0.089516
H	-0.6670633774	-1.8635622196	 0.7811937384	 0.112538
H	 1.0666832076	-1.5626981983	 0.2751854692	 0.113174
H	 2.3621817465	 0.098334898	 1.423065406	 0.104208
H	 1.5367107081	 1.344555346	 2.3838505651	 0.107424
H	-0.0543119167	-0.0699096494	 4.2442693012	 0.142257
H	 0.859537985	-1.3437018043	 5.1051678678	 0.146095
H	 1.3274509533	 0.3447688605	 5.2836753747	 0.134937
H	 3.9195569365	-2.4393984392	 4.3305079219	 0.304149
