19
gdb 19162	3.80021	1.53315	1.2835	1.0947	71.21	-0.2232	0.0685	0.2917	1001.5534	0.164714	-365.003407	-364.99508	-364.994136	-365.036047	31.624	
O	 0.126198891	 1.2449017976	 0.7852702167	-0.414
C	-0.1202890921	-0.1313929603	 0.5514599341	-0.12772
C	-1.55069153	-0.445076978	 0.1213706495	 0.32494
C	-2.6670588446	 0.3976983961	 0.6906018443	-0.311031
C	-2.2795231439	 0.514088451	-0.7714285577	-0.307625
N	-1.6595399531	-1.8652433311	-0.137917376	-0.11832
C	-2.0740758358	-2.7362059436	 0.9617926711	-0.22463
C	-2.9608091889	-2.5118555934	-0.2123090614	-0.233309
H	 0.233641216	 1.6756525763	-0.0675979639	 0.287875
H	 0.5682732953	-0.5493169381	-0.1963020528	 0.101756
H	 0.0840660553	-0.6401401216	 1.5008164503	 0.110748
H	-3.6212597491	-0.0576129563	 0.9312696181	 0.108089
H	-2.3728679841	 1.2087383038	 1.3464725078	 0.127789
H	-1.780887922	 1.4216857164	-1.09557047	 0.095755
H	-2.9529774423	 0.0903883066	-1.5089048764	 0.11562
H	-1.5179356509	-3.6630328679	 1.0690105787	 0.116253
H	-2.3716647329	-2.2641097496	 1.8962187792	 0.115862
H	-3.8592318547	-1.9210416067	-0.0497525562	 0.114847
H	-3.0558936834	-3.2685543812	-0.9862783753	 0.117102
