18
gdb 68550	2.42476	1.90786	1.52093	1.9073	76.	-0.2297	0.006	0.2357	952.3275	0.147609	-401.87232	-401.864712	-401.863767	-401.903894	30.615	
C	-0.0262039793	 1.5268219186	-0.0138644969	-0.526217
C	-0.0152808457	 0.0239073044	 0.0328894961	 0.177519
N	 0.3777335865	-0.7589110984	-1.2250064567	-0.342975
C	-0.3057400576	-1.9039200661	-0.4896476384	-0.179842
C	 0.6140654424	-2.0241976581	 0.7201566757	-0.064483
C	 0.8076667881	-0.7470783473	 1.0656950883	-0.09479
C	-1.3113969466	-0.8531153841	 0.0591377694	 0.491728
C	-2.5628466393	-0.8586699178	 0.801865033	-0.304342
O	-2.4913453618	-0.4780066263	-0.5996680892	-0.297603
H	 0.9440004105	 1.9059094696	-0.3492212963	 0.135827
H	-0.7976735686	 1.8859905415	-0.7019260931	 0.132237
H	-0.233194735	 1.947612736	 0.9756415639	 0.121799
H	-0.2683061269	-0.4603030357	-1.964172458	 0.217201
H	-0.6003710257	-2.7865758323	-1.0542153526	 0.077852
H	 0.9645179401	-2.9375634358	 1.1772262862	 0.109678
H	 1.3623337445	-0.316051674	 1.8867341097	 0.106444
H	-3.0834184625	-1.7951619968	 0.9946640768	 0.120685
H	-2.800274083	-0.0442538772	 1.4842958721	 0.119282
