23
gdb 89182	2.4363	1.38053	1.1661	1.4664	86.77	-0.2236	0.0868	0.3103	1231.1689	0.203058	-388.271787	-388.261718	-388.260774	-388.305676	38.689	
C	 0.0151030247	 1.4636046064	-0.0090713009	-0.39999
C	 0.0240199785	-0.0466784937	 0.1267813437	 0.116048
O	 0.9922185544	-0.6540031005	-0.7820718174	-0.336846
C	 1.795549043	-1.0960296722	 0.3272065077	 0.422265
C	 3.2746707038	-0.9664460175	 0.1455945285	-0.494047
C	 0.7674338052	-0.6028438109	 1.3341108967	-0.235052
C	 1.0355201154	-2.0986204635	 1.16371209	 0.254779
C	 0.0266626327	-3.0414963345	 0.5363852829	-0.465576
C	 1.7947337345	-2.7028680535	 2.333857951	-0.459815
H	 1.0084472999	 1.8790598931	 0.1849722194	 0.11927
H	-0.2892951755	 1.7504041995	-1.0202332554	 0.12491
H	-0.6925113799	 1.9054491697	 0.7016870824	 0.112647
H	-0.9808961213	-0.4519964728	-0.050043033	 0.073184
H	 3.5557441927	 0.0707130511	-0.062427235	 0.125105
H	 3.819822653	-1.3058446557	 1.0290744318	 0.124106
H	 3.5980124023	-1.5771462395	-0.7057495251	 0.130991
H	 0.8925947722	-0.0947034397	 2.2832223687	 0.085117
H	-0.3627022468	-2.6446663712	-0.4027079525	 0.137042
H	 0.4978932782	-4.006334087	 0.3157536454	 0.109946
H	-0.813540417	-3.2330764165	 1.2139622805	 0.108686
H	 1.0952407721	-3.037041351	 3.1088744466	 0.117384
H	 2.3807793677	-3.5740867663	 2.0194809246	 0.116266
H	 2.4786084003	-1.9863807639	 2.7988183992	 0.113579
