23
gdb 60494	5.90114	0.44356	0.42729	3.2006	84.6	-0.2472	-0.0184	0.2288	2520.0175	0.202383	-425.444318	-425.432954	-425.43201	-425.482472	39.614	
C	 0.0644628117	 1.5846386322	 0.1392740372	-0.403812
C	 0.0306247967	 0.0577344078	 0.0753165955	 0.136049
O	 0.7106924899	-0.5193085586	 1.1899339009	-0.427499
C	-1.3970119384	-0.4912728378	-0.0559874329	-0.196377
C	-1.4472090622	-2.0155010406	-0.1962900624	-0.171445
C	-2.8732380224	-2.5737604973	-0.2332743719	-0.197052
C	-2.9104290779	-4.1041737308	-0.3952201456	-0.271772
C	-4.3182278721	-4.6448781479	-0.3114888324	 0.1596
O	-4.8636861399	-5.300315716	-1.1614441165	-0.237882
H	 1.0931305116	 1.9375560081	 0.2515578626	 0.124998
H	-0.3604372808	 2.0307552631	-0.7656897992	 0.117098
H	-0.5183679532	 1.9503416718	 0.9945311277	 0.105506
H	 0.6141716952	-0.274782272	-0.7930473228	 0.088743
H	 0.2876154313	-0.1872470089	 1.9899424492	 0.274986
H	-1.9744865896	-0.1795851748	 0.8281358384	 0.081661
H	-1.883622776	-0.0177437604	-0.9190158626	 0.095662
H	-0.917153238	-2.3118366766	-1.1116346457	 0.097614
H	-0.8921334233	-2.464245679	 0.6352898182	 0.111145
H	-3.4000588338	-2.2930899231	 0.6892332686	 0.098576
H	-3.4325022072	-2.1113389552	-1.0569378607	 0.108971
H	-2.4694363975	-4.4195414843	-1.3454390261	 0.120944
H	-2.3298485033	-4.5626637792	 0.4189137686	 0.117782
H	-4.8521331606	-4.3772251505	 0.632264922	 0.066504
