19
gdb 126998	5.05613	0.82743	0.72068	3.0785	79.77	-0.2096	0.0464	0.256	1594.7591	0.159213	-419.233989	-419.224515	-419.223571	-419.268927	33.861	
C	-0.0476135966	 1.4533339225	-0.14331617	-0.392958
C	-0.8769783248	 0.2192797866	-0.4418473614	-0.049175
O	-0.4609806616	-0.8173821639	 0.4510584448	-0.268271
C	-1.1028939378	-1.9891226121	 0.3168895037	 0.495291
C	-2.1081598758	-2.4529345173	-0.5080276111	-0.441117
C	-2.2981790531	-3.8012110592	-0.0991230502	 0.359641
C	-3.2690846312	-4.7970420555	-0.6502742193	-0.489334
N	-1.4811747986	-4.1380342324	 0.8916548634	-0.290471
N	-0.7560329063	-3.0115069847	 1.1319825363	-0.294989
H	-0.3398282706	 2.2696870394	-0.809964773	 0.124263
H	-0.1971127977	 1.7788487959	 0.8897882358	 0.133459
H	 1.0163620763	 1.2489698986	-0.2909812384	 0.133455
H	-1.9480711094	 0.4125707726	-0.2956821406	 0.113395
H	-0.7337180872	-0.1177562218	-1.4771470055	 0.113397
H	-2.6267909516	-1.913972368	-1.2825001229	 0.097684
H	-3.0993723183	-4.9748765003	-1.7181431037	 0.123965
H	-3.1634254632	-5.7467008997	-0.1214180219	 0.137969
H	-4.3036137536	-4.452942678	-0.5399118994	 0.124049
H	-0.0527954387	-3.0019324026	 1.8499050135	 0.269745
