19
gdb 126680	3.06704	1.24678	0.9752	4.0185	80.03	-0.1993	0.0184	0.2176	1247.29	0.159232	-419.199968	-419.190815	-419.189871	-419.234561	32.946	
C	-0.0644988318	 1.4798525127	 0.0868807893	-0.383369
C	-0.0168256992	-0.0519674169	 0.0449978343	-0.166746
N	-1.3298505521	-0.6951471226	 0.003454967	-0.163064
C	-2.0595469913	-0.7141496812	-1.2506175654	-0.341153
C	-2.0529603845	-0.8342842005	 1.1482757175	 0.557175
C	-3.3677247692	-1.1631328628	 1.3883893592	-0.393093
C	-3.4341563746	-1.1827429111	 2.800946146	 0.041572
N	-2.300165787	-0.8891490872	 3.3858043298	-0.168701
O	-1.4035027559	-0.6587828598	 2.3114393259	-0.242745
H	 0.9511021401	 1.8879273528	 0.1017506568	 0.121418
H	-0.5783632598	 1.889235458	-0.7887238052	 0.117885
H	-0.5826949219	 1.8252145232	 0.9856903796	 0.14282
H	 0.532835907	-0.3905359719	-0.8397645023	 0.10688
H	 0.5145034703	-0.4324188533	 0.9198935436	 0.143019
H	-1.3460536336	-0.7939766521	-2.0740786228	 0.132165
H	-2.7161464079	-1.5887428888	-1.2867224372	 0.140492
H	-2.6747507798	 0.1840724196	-1.4074192908	 0.125278
H	-4.1529601062	-1.3509872685	 0.6785194609	 0.106415
H	-4.2910055926	-1.4027020397	 3.4239494439	 0.123753
