20
gdb 31822	4.73976	0.96129	0.80904	1.5077	93.97	-0.1853	0.0116	0.1969	1454.6287	0.172206	-366.083376	-366.074244	-366.0733	-366.117862	34.017	
C	 0.0396406257	 1.4523641516	-0.1237389496	-0.321405
N	-0.1462389921	 0.0331245664	 0.0929310464	-0.368495
C	 0.5531186304	-0.6455773516	 1.0849964662	 0.339604
C	 1.205962532	 0.0157226741	 2.1334930125	-0.197631
C	 1.8540638537	-0.7103527112	 3.1313523938	-0.180165
C	 1.8899719153	-2.1029879988	 3.1281824633	 0.290289
C	 2.5893404455	-2.8835107956	 4.2138670342	-0.494352
C	 1.2423642296	-2.7557150835	 2.0708503656	-0.16821
C	 0.5885259058	-2.0517163292	 1.0737154147	-0.189335
H	 1.0922732235	 1.7400952338	-0.2764875807	 0.11393
H	-0.5317942107	 1.7520825846	-1.0052406271	 0.121862
H	-0.343880712	 2.0268815901	 0.7269761273	 0.133515
H	-0.280050782	-0.5027510806	-0.7499647755	 0.233282
H	 1.2118779523	 1.098099753	 2.1776850712	 0.083853
H	 2.3502560728	-0.1679154197	 3.9316393212	 0.082052
H	 1.8830873282	-3.4785880473	 4.805790102	 0.124681
H	 3.325449917	-3.5827592794	 3.8004835315	 0.122615
H	 3.1158672846	-2.2180182778	 4.903901646	 0.117521
H	 1.2513877814	-3.8417274601	 2.0284027781	 0.081716
H	 0.091066829	-2.5877438089	 0.2695963889	 0.074673
