15
gdb 35180	3.91125	1.2079	1.09227	3.1929	71.37	-0.2594	-0.0123	0.247	1093.0757	0.113316	-416.711611	-416.704461	-416.703517	-416.74349	27.308	
N	-0.1272273978	-1.178114925	 0.1250217566	-0.322874
C	-0.0769670583	-0.023912593	 0.0864657842	 0.312463
C	-0.0165038018	 1.4173952202	 0.0019792476	-0.284225
O	 0.6035856525	 2.099004839	 1.123026346	-0.287961
C	 1.2726307132	 2.1164680567	-0.1074263558	 0.560016
C	 2.7414291894	 1.7686496247	-0.3817407434	-0.14474
C	 2.5220083284	 2.3193704405	-1.8159896701	-0.192705
C	 1.8477770263	 3.3309143184	-0.8509934446	-0.150166
N	 3.1032293339	 3.201885663	 0.0082873595	-0.318923
H	-0.9228485061	 1.8902384776	-0.3701828771	 0.148828
H	 3.3224252764	 0.9083308838	-0.0547600864	 0.111219
H	 3.4278898338	 2.6956973134	-2.2893816751	 0.12512
H	 1.8802406997	 1.7480710795	-2.487822641	 0.111421
H	 1.3874655591	 4.2930923875	-1.0710789604	 0.102234
H	 2.8623816713	 3.3591179537	 0.9918313	 0.230293
