23
gdb 106810	2.36371	1.44066	1.07888	1.2005	85.29	-0.2477	0.0793	0.3271	1239.6148	0.206093	-388.301597	-388.292305	-388.291361	-388.335122	36.613	
C	 0.2159628003	 1.4407349699	 0.2849816382	-0.37863
C	-0.1727314944	 0.0196660624	-0.1420809653	-0.267663
C	 0.592067028	-0.4821898437	-1.3472629653	 0.333208
C	 2.0050536313	-1.0226157214	-1.1503579621	-0.409234
C	 0.8828777953	-1.9497989134	-1.5550680487	 0.358618
O	 0.3982253355	-2.8771898019	-0.6277877383	-0.475005
C	 0.7329612352	-2.278463027	-3.0332546294	-0.268878
C	 0.8301958558	-0.9118523836	-3.7451627673	-0.231318
C	 0.2970883863	 0.1176932956	-2.7198643586	-0.267129
H	 1.2814229286	 1.4991261256	 0.532013133	 0.113888
H	 0.0213241539	 2.16699903	-0.5113750631	 0.113838
H	-0.3516059905	 1.7558761438	 1.1663156634	 0.108119
H	-0.0157092924	-0.6766132817	 0.6887295024	 0.105635
H	-1.2481840179	-0.0121769757	-0.3641276187	 0.0912
H	 2.7941809938	-0.77513143	-1.8540516195	 0.101788
H	 2.333447299	-1.1080559577	-0.119321063	 0.105955
H	 1.0657595376	-3.5617391283	-0.5127711279	 0.281023
H	 1.4768901845	-2.9962381131	-3.398725127	 0.086219
H	-0.2559501212	-2.730373516	-3.1758572187	 0.105267
H	 1.8725990023	-0.6903870488	-3.9956812999	 0.103431
H	 0.2725182006	-0.889726847	-4.6849624938	 0.098437
H	-0.7898838075	 0.2333864943	-2.8233022242	 0.096062
H	 0.7394768557	 1.1090480879	-2.8661506963	 0.095168
