22
gdb 40745	3.42931	1.22046	1.1222	0.982	85.28	-0.2217	0.0798	0.3016	1197.6169	0.195963	-367.147098	-367.139005	-367.138061	-367.180125	32.098	
C	-0.2643882574	 1.1931269673	-0.3796965007	-0.220255
C	 1.1308700731	 1.0088485423	 0.1067852359	-0.22594
N	 0.1958133578	-0.1082221836	 0.0866359338	-0.081004
C	-0.2509306961	-0.6526224529	 1.3550672053	 0.069358
C	-0.8209543597	 0.1955265399	 2.5505340182	-0.285741
C	-1.9537421049	-0.8578916969	 2.7271852753	-0.008028
C	-3.3058728018	-0.449558471	 2.0992940813	-0.219662
C	-2.8011148554	-0.9398045014	 0.7076461792	-0.232065
C	-1.5213163029	-1.5297829955	 1.3707165173	-0.039499
H	-0.9322136614	 1.7798243565	 0.2465794729	 0.111053
H	-0.4740407823	 1.2577590043	-1.444157989	 0.114625
H	 1.9613359671	 0.9491409733	-0.5917620117	 0.113611
H	 1.3761496046	 1.455559917	 1.0694184524	 0.10983
H	 0.584105337	-1.2542820848	 1.731509478	 0.081338
H	-0.1387580611	 0.3107690923	 3.3958237205	 0.097514
H	-1.2014945695	 1.187313127	 2.2881893339	 0.096603
H	-1.9652288112	-1.3879951481	 3.6800583906	 0.060669
H	-4.1415407551	-1.0490595795	 2.4711726453	 0.09748
H	-3.5798883201	 0.6066018935	 2.1886185841	 0.089454
H	-3.4406680057	-1.6898560115	 0.2372920056	 0.100925
H	-2.6147181955	-0.1561881101	-0.0291497938	 0.109007
H	-1.3765234495	-2.6035218981	 1.2432397456	 0.060725
