10
gdb 3944	3.80283	3.70434	1.87647	1.4129	44.41	-0.2188	0.0032	0.2219	598.3531	0.068039	-392.627857	-392.621697	-392.620753	-392.657653	21.908	
O	 0.0991640438	 1.382828209	-0.0032110371	-0.423081
C	 0.0744009322	 0.0378116262	 0.0220698847	 0.310255
N	 0.0285115708	-0.7311561329	-1.0560772459	-0.292771
N	 0.0199602019	-1.9661710659	-0.5511304321	-0.10108
N	 0.0571695553	-2.0545986064	 0.7796973244	-0.292772
C	 0.0926835716	-0.7880979766	 1.1676843995	 0.310255
O	 0.1383705365	-0.3865100399	 2.4510245959	-0.423082
H	 0.0761077839	 1.657310476	-0.9280283054	 0.30962
H	-0.0133602861	-2.780551089	-1.1377115951	 0.293037
H	 0.13872023	-1.1773630805	 3.003935541	 0.30962
