17
gdb 97077	3.29488	1.04276	0.98963	4.0226	75.87	-0.2577	0.0057	0.2634	1267.316	0.136445	-418.037863	-418.029061	-418.028117	-418.072628	30.864	
C	 0.527496815	 1.2157776627	 0.2064818002	-0.336172
N	 0.0451194891	-0.1227389831	-0.0929010992	-0.32037
C	 0.3834534094	-0.6937943558	-1.1574377552	 0.452314
C	-0.0750071775	-2.071517949	-1.5933619679	-0.333245
C	 0.93225604	-2.4504528157	-2.7029296659	-0.186491
C	 1.3312748443	-1.0483620139	-3.2302699763	-0.089767
O	 1.2274686979	-0.1706993027	-2.1141340556	-0.2424
C	 2.0847623055	-3.1852256272	-2.180862515	 0.280525
N	 2.9961190103	-3.7692302747	-1.7761746703	-0.313677
H	 1.1159256668	 1.6756852388	-0.5947464537	 0.124791
H	-0.3306911983	 1.8583583539	 0.4313214706	 0.127466
H	 1.139843574	 1.1771851053	 1.1144641006	 0.132764
H	-0.1005328163	-2.7665727613	-0.7556689905	 0.161267
H	-1.0833041461	-2.0082410563	-2.0151696079	 0.140135
H	 0.4750573503	-3.0507025756	-3.4933383352	 0.137402
H	 2.3516663921	-1.0023463271	-3.6137466719	 0.145233
H	 0.6349794933	-0.7345657783	-4.0179937968	 0.120227
