18
gdb 80097	2.3291	1.84673	1.47749	2.6893	71.73	-0.2361	0.0095	0.2456	970.7586	0.148603	-439.07756	-439.069626	-439.068681	-439.109686	31.051	
C	 0.1205095861	 1.5271187072	-0.0773952209	-0.399659
C	 0.0345017797	 0.0120239511	 0.0354178349	 0.096709
O	 0.545839643	-0.526101503	-1.2188316495	-0.266046
C	 0.8547347478	-1.8596900156	-1.2298634544	 0.074219
N	 1.2122523572	-2.574659153	-0.2517229433	-0.220163
C	 1.352526475	-1.9545516758	 1.0230142631	-0.067916
C	 2.2710729459	-0.7343456839	 1.168920359	 0.116696
O	 3.0693656669	-0.2536853146	 0.1389824996	-0.422385
C	 0.7806131511	-0.5551619923	 1.2253876055	-0.142004
H	 1.1640747632	 1.8482350318	-0.1316982465	 0.137857
H	-0.4072492881	 1.8763864154	-0.9688792262	 0.129001
H	-0.3363172623	 1.9903556214	 0.8021390535	 0.123585
H	-1.0171771694	-0.2993415502	 0.0997602525	 0.097738
H	 0.7844744527	-2.2653121763	-2.2362323362	 0.130508
H	 1.3353016449	-2.6575501794	 1.8487583037	 0.099132
H	 2.8105300643	-0.6677997338	 2.1084645716	 0.113736
H	 2.5381338146	-0.1713721161	-0.6612671427	 0.303728
H	 0.3271441073	-0.3105697428	 2.1824945064	 0.095265
