12
gdb 129786	3.67606	1.67782	1.15293	3.3078	63.75	-0.2166	-0.026	0.1906	943.9774	0.080016	-468.790559	-468.784146	-468.783202	-468.821224	24.896	
N	 0.0518448399	 1.3846025796	 0.1823572389	-0.594487
C	-0.0850575854	 0.0338698261	 0.0667054075	 0.373153
C	-1.1442954835	-0.8358937585	 0.0420460578	 0.073574
N	-2.5286846427	-1.0112029466	 0.0489097558	-0.34408
C	-2.6532167339	-2.2899321461	-0.0055932332	 0.043542
O	-1.4808668622	-3.0469491349	-0.0510658053	-0.215358
C	-0.5195919814	-2.0901733369	-0.0200645004	 0.467848
N	 0.7848709512	-2.1077043155	-0.0385938359	-0.296156
O	 1.0543726993	-0.6887080202	 0.0190195387	-0.224354
H	 0.9384398088	 1.7584582388	-0.1222262575	 0.275952
H	-0.7501159223	 1.9284119753	-0.0957705123	 0.279828
H	-3.564135318	-2.8680336909	-0.0212326143	 0.160537
