19
gdb 76634	2.46827	1.45333	1.18446	2.653	70.85	-0.2339	0.0419	0.2757	1108.7153	0.157746	-460.110978	-460.101911	-460.100967	-460.144444	35.299	
O	 0.288358344	 1.2058216248	-0.1936158755	-0.422348
C	 0.0198003431	-0.1508552313	-0.0356326653	 0.086333
C	-0.5197704609	-0.6244119666	 1.2885578254	-0.001162
O	-0.8858916507	 0.4052883385	 2.1837889245	-0.429297
C	-1.398335219	-0.710400322	 0.05894006	-0.188183
C	-2.662797122	 0.1066320829	-0.0079340741	 0.420948
O	-3.5135192231	-0.0752027336	 1.09677561	-0.479897
C	-2.7274229482	 1.450861187	-0.7039118656	-0.335879
C	-3.3976688943	 0.2347451005	-1.3073686027	-0.305774
H	-0.1993693391	 1.664220955	 0.503707828	 0.288826
H	 0.7586499992	-0.7509748467	-0.5563732799	 0.109182
H	-0.1639649087	-1.5352285157	 1.7644272443	 0.096292
H	-0.1247074635	 0.6115092355	 2.7373511741	 0.301841
H	-1.5057988834	-1.7223404907	-0.3250971325	 0.098768
H	-3.0229993143	 0.2345086764	 1.8686060723	 0.28823
H	-3.3712659268	 2.1912888586	-0.2423455357	 0.110419
H	-1.8375526871	 1.8349703749	-1.1852984029	 0.131004
H	-2.9558475074	-0.2051840393	-2.1949067793	 0.110547
H	-4.4781287677	 0.1714501417	-1.250509625	 0.120149
