17
gdb 43359	2.79777	1.75029	1.27211	3.678	73.55	-0.2411	-0.05	0.1912	986.2271	0.138756	-421.865586	-421.858598	-421.857654	-421.897375	27.117	
O	-0.0066930781	-0.0313231901	 0.0096152919	-0.336768
C	-0.0583195316	 1.1760097202	-0.0094386693	 0.382597
C	-1.2689802595	 2.027158176	-0.0510588042	-0.176657
C	-0.9253561095	 3.3190420046	-0.0119091195	-0.052951
C	 0.5655248476	 3.5475661431	 0.0601864509	-0.099331
C	 1.0437086818	 4.1024727453	 1.4286280608	-0.089421
O	 1.2997511678	 2.9639469658	 2.230006836	-0.240532
C	 1.9222058482	 2.0146334369	 1.3749982275	-0.093177
C	 1.1619201921	 2.1166893579	 0.0373622837	-0.153706
H	-2.2693297415	 1.6153962375	-0.0859277325	 0.119119
H	-1.6229438501	 4.150875422	-0.010454991	 0.117706
H	 0.9067198466	 4.1876071575	-0.759351374	 0.09122
H	 1.9604492629	 4.6985642742	 1.2895130595	 0.091929
H	 0.3013266941	 4.7198987053	 1.9414230087	 0.112232
H	 2.9867657182	 2.259860396	 1.2332891934	 0.090788
H	 1.8437456611	 1.0276179309	 1.8360904994	 0.133498
H	 1.8091708897	 1.910454957	-0.8177742214	 0.103455
