22
gdb 6832	2.99509	1.41395	1.25843	1.3399	78.05	-0.2598	0.0766	0.3364	1109.5295	0.199066	-350.197246	-350.187882	-350.186938	-350.230704	35.399	
C	-0.0738969933	 1.5449414589	-0.0810785303	-0.436283
C	-0.0108674899	 0.0145636009	-0.0148036731	 0.313038
C	-1.3881657664	-0.5872016078	-0.2790693369	-0.451056
C	 1.16925297	-0.5438525849	-0.875782172	-0.253744
C	 2.0403342733	-0.6320629515	 0.4046254888	-0.228268
C	 0.7443856908	-0.5364319287	 1.2485270565	 0.035459
C	 0.7595562172	 0.2442973483	 2.5470122935	-0.111745
O	 1.5495198425	-0.4902809941	 3.4753788508	-0.42356
H	 0.9062876664	 2.006360949	 0.0756509957	 0.112233
H	-0.432367507	 1.8644079821	-1.0663609838	 0.109964
H	-0.7613999828	 1.9544095597	 0.6678052169	 0.109472
H	-1.7670978324	-0.2889086118	-1.2640557568	 0.109493
H	-1.3552769672	-1.681464501	-0.2510317427	 0.108762
H	-2.1190946985	-0.2552677568	 0.4682969859	 0.108883
H	 0.9389245502	-1.5324681821	-1.2842651844	 0.093644
H	 1.5275041023	 0.0916704401	-1.6908806092	 0.088722
H	 2.6586070534	-1.5216732608	 0.537041524	 0.100043
H	 2.6771643096	 0.2486104284	 0.5344877824	 0.095877
H	 0.3762772259	-1.5444781629	 1.4720034989	 0.073683
H	 1.1789760696	 1.2493425194	 2.3853151966	 0.080195
H	-0.2704012979	 0.3753610271	 2.9202824783	 0.080852
H	 1.6064684042	 0.0187126183	 4.2892405209	 0.284336
