22
gdb 53952	2.44465	1.31955	1.08225	3.4802	81.57	-0.2344	0.0382	0.2726	1229.7047	0.192664	-404.376718	-404.366347	-404.365403	-404.41214	39.068	
C	-0.5121594803	 1.6219121409	-0.3649451639	-0.399902
C	-0.0281514883	 0.2050485999	 0.0012292844	 0.138473
C	 0.838026176	 0.2815055246	 1.277406718	-0.431035
C	-1.2494997873	-0.7072581899	 0.1410031232	-0.01208
C	-1.3006217264	-1.9632857344	 0.9892425045	-0.295531
C	-2.1072393844	-0.7489164543	 1.377810809	-0.289855
C	 0.9282996544	-0.269981431	-1.1239604724	 0.404003
N	 0.8298170794	-1.5787207311	-1.4896590691	-0.535646
O	 1.7420736062	 0.4814023291	-1.6295471887	-0.385804
H	 0.3412936803	 2.2639682325	-0.5876841201	 0.139763
H	-1.1574772805	 1.6014858587	-1.2494020356	 0.110252
H	-1.0853956497	 2.0513091571	 0.4623129252	 0.105414
H	 0.2708897186	 0.6926530815	 2.1177304493	 0.114978
H	 1.2300736686	-0.6973109132	 1.5700289791	 0.114743
H	 1.6911576153	 0.9381353366	 1.0910249013	 0.142315
H	-1.8135613678	-0.7733176592	-0.7870337839	 0.09293
H	-1.8274894229	-2.8279015942	 0.5981845814	 0.112137
H	-0.4462330662	-2.2106152517	 1.6092589125	 0.120013
H	-1.7834264922	-0.1973135865	 2.25300909	 0.118775
H	-3.1834528912	-0.7806914993	 1.2502556358	 0.11491
H	 0.2104446731	-2.2148291084	-1.0201961117	 0.265196
H	 1.4987221152	-1.9321150877	-2.1538764282	 0.255952
