16
gdb 17338	3.63715	2.20847	1.79529	3.2504	63.14	-0.2582	0.0659	0.3241	781.909	0.130351	-383.710323	-383.703664	-383.70272	-383.74076	26.256	
C	-0.0528144391	 1.5445841071	 0.0462202571	-0.501846
C	 0.1469227937	 0.0577264965	-0.0332731571	 0.406082
O	-0.5550381284	-0.7550457245	 0.913588651	-0.276057
C	 0.8752313057	-0.7784930523	 0.943325122	-0.026822
C	 1.519267345	-1.971199319	 0.2420623437	-0.279429
C	 1.1070571087	-1.8382849185	-1.2226917278	 0.037394
O	-0.2973970987	-1.9210123076	-1.4676002399	-0.232639
C	 0.2910089602	-0.6229534161	-1.3932368405	-0.040338
H	 0.7225560888	 2.0735687258	-0.5187511751	 0.123376
H	-1.0251843278	 1.8279681043	-0.3713235551	 0.135018
H	-0.0167195068	 1.8816643163	 1.0849074398	 0.133455
H	 1.3238233152	-0.3764773485	 1.8503270611	 0.092709
H	 2.6104194337	-1.907321639	 0.3272010938	 0.107484
H	 1.2033421395	-2.9259082111	 0.6742544372	 0.13045
H	 1.7387108847	-2.2515473052	-2.0063354079	 0.097106
H	 0.2611031754	-0.0294422981	-2.3033086022	 0.094057
