19
gdb 120278	3.14995	1.03604	0.90625	0.9004	71.64	-0.254	0.0722	0.3262	1342.7176	0.157808	-460.101958	-460.092912	-460.091967	-460.136523	32.849	
C	 0.6998383364	 1.4281917983	 0.0007970635	-0.225534
O	 0.7700069862	 0.0234495357	 0.0509425448	-0.241553
C	-0.1477877961	-0.5390346778	 0.9670721239	-0.063649
C	 0.0408142877	-2.0415642911	 0.9507895019	-0.096355
C	 1.2819669785	-2.6149567461	 1.6426192159	 0.032466
O	 1.1578504459	-2.3236732032	 3.0466752404	-0.263425
C	 0.476200719	-3.4772342677	 2.5216189145	-0.023936
C	-0.8355294639	-2.9241003317	 1.9399503755	 0.097379
O	-1.6847378014	-2.2741340085	 2.8458159818	-0.430945
H	 0.9273300679	 1.8846747782	 0.9772107802	 0.105201
H	 1.4397267203	 1.7677796872	-0.7282909313	 0.125737
H	-0.2963478072	 1.7770008396	-0.31508534	 0.103681
H	 0.0275985436	-0.1415804213	 1.979094598	 0.088607
H	-1.1844219693	-0.2846214074	 0.6909371295	 0.095699
H	-0.0483720075	-2.4129561456	-0.0744872045	 0.086971
H	 2.284547273	-2.7554173952	 1.2585738008	 0.112307
H	 0.6900337385	-4.4314562824	 2.9890756938	 0.108824
H	-1.4344266735	-3.6649032683	 1.405831297	 0.096112
H	-1.108202898	-1.7889662327	 3.4502774443	 0.292413
