23
gdb 115622	2.46865	1.15572	0.96276	1.7575	86.37	-0.2375	0.0776	0.3151	1380.5611	0.204477	-388.267164	-388.257281	-388.256337	-388.302072	36.78	
C	-0.0162439656	 1.5735509322	-0.3918823296	-0.383773
C	 0.0674199448	 0.0729635466	-0.0968154099	-0.188937
C	-1.2935659881	-0.526872291	 0.216923531	 0.08453
O	-2.2132531036	-0.4213486522	-0.9046389238	-0.301303
C	-2.4146654841	-1.8498121625	-0.9536870685	-0.139839
C	-1.4514589351	-2.0508572646	 0.2089874274	 0.278514
C	-0.4056126479	-3.1126546686	 0.3834217458	-0.357024
C	-1.5571595418	-3.0041610239	 1.3606465519	-0.057509
C	-1.3196866792	-2.5410737867	 2.7811108995	-0.409117
H	 0.9649896886	 1.9821850752	-0.6508015909	 0.109245
H	-0.6964217416	 1.7575875388	-1.2281116163	 0.138236
H	-0.3923091856	 2.1280740214	 0.475186934	 0.111668
H	 0.4963626906	-0.4584431932	-0.9546262607	 0.098736
H	 0.734183207	-0.1099842331	 0.7567914956	 0.091466
H	-1.7237173683	-0.0372251802	 1.1046172694	 0.067474
H	-3.4610781375	-2.1232566058	-0.7601110942	 0.096695
H	-2.1079701914	-2.2754142074	-1.918762595	 0.09872
H	-0.393288844	-3.9388911004	-0.3209555338	 0.110391
H	 0.5786718248	-2.8073513659	 0.7270175654	 0.112446
H	-2.3293363836	-3.7645859682	 1.2587076715	 0.082989
H	-0.5346468084	-1.7785400977	 2.8241253202	 0.116534
H	-2.2259736572	-2.1074218735	 3.2183972132	 0.120193
H	-1.0057797728	-3.3735326894	 3.4200094077	 0.119665
