20
gdb 10608	2.33437	1.7719	1.33471	0.9909	71.42	-0.2418	0.0796	0.3214	1045.7037	0.174331	-386.11246	-386.102907	-386.101963	-386.146413	34.843	
C	-0.7364518791	 1.3832504059	 0.6345710657	-0.378233
C	-0.0411847376	 0.1338806408	 0.0835789518	-0.245902
C	 0.9092399068	-0.491980485	 1.0858805724	 0.419638
C	 0.3627767138	-1.3807951323	 2.1757534548	-0.378987
C	 1.1949054665	-1.9699546455	 1.0533865679	 0.026766
O	 0.5883839367	-2.7369684238	 0.0537623355	-0.421843
O	 1.9661358861	 0.322292695	 1.5246546585	-0.283656
C	 2.9587506012	 0.5754091882	 0.5477503303	-0.25222
H	-0.002528743	 2.1286602519	 0.9538862865	 0.125742
H	-1.3821402491	 1.8397153233	-0.1217159903	 0.106539
H	-1.3552662941	 1.1376867258	 1.5040121308	 0.114538
H	-0.7722382017	-0.6231159719	-0.2123045297	 0.112734
H	 0.5096915944	 0.3867238898	-0.8310714725	 0.096571
H	 0.8158098877	-1.3053975676	 3.1575737899	 0.120029
H	-0.7039337073	-1.5795818225	 2.1628040373	 0.111728
H	 2.2132811777	-2.261978076	 1.3101034625	 0.091996
H	 0.2964748722	-3.5643769437	 0.4506279685	 0.288858
H	 3.3508157669	-0.3565037655	 0.1165344249	 0.109945
H	 2.5887902122	 1.2071200199	-0.271436432	 0.111419
H	 3.7707738497	 1.1033843431	 1.0536569171	 0.124337
