19
gdb 97123	2.39862	1.43055	1.03344	2.3875	77.7	-0.2388	0.0203	0.2591	1204.6431	0.160085	-419.170053	-419.161152	-419.160208	-419.204355	31.878	
C	 0.3560191631	 0.952243946	-0.4413850668	-0.345102
N	 0.7274975449	-0.4306206081	-0.1671176913	-0.332814
C	 0.7114102356	-0.8506426562	 1.0126201401	 0.463976
O	 0.3765609653	-0.2204489475	 2.1971651999	-0.265448
C	 0.5641127906	-1.4606442617	 2.9496969925	-0.095679
C	 0.9967169069	-2.1928446795	 1.6539707316	-0.192774
C	 0.1931579694	-3.3784155457	 1.1692694561	-0.001078
C	-1.1503418211	-3.2099255735	 0.5603185145	-0.245056
N	 0.0032246881	-3.592029167	-0.2718084903	-0.323466
H	 1.2148707943	 1.4736752085	-0.8779056423	 0.132336
H	-0.4416035359	 0.9657929745	-1.1914784498	 0.130244
H	 0.0206966965	 1.5063389236	 0.4425562087	 0.129589
H	 1.324919854	-1.3358560563	 3.7232959287	 0.122404
H	-0.3802229669	-1.7946634929	 3.3862331087	 0.125262
H	 2.0643543941	-2.4341728276	 1.6415730695	 0.114193
H	 0.3913945833	-4.2958226331	 1.7215143879	 0.094213
H	-1.9023413576	-3.9827490283	 0.6924390697	 0.115966
H	-1.546158543	-2.2031393082	 0.4567984835	 0.120417
H	 0.3302042183	-2.7636014969	-0.7705882309	 0.252817
