16
gdb 8541	4.0247	1.92072	1.56253	2.4435	64.3	-0.2502	0.0656	0.3158	825.1152	0.130402	-383.657572	-383.650763	-383.649819	-383.688077	27.366	
O	 0.243769407	 1.4119664753	-0.1913279395	-0.451071
C	 0.1050133331	 0.0216292008	-0.0564641011	 0.149588
C	 0.0726998409	-0.6286890132	 1.3437685708	-0.170175
C	-1.4505043537	-0.3051323505	 1.5451546951	-0.074684
C	-1.8119860881	-1.765505685	 1.8901705693	-0.325266
C	-0.7448042202	-1.8576398609	 0.7815154167	 0.40545
O	-0.2465041068	-2.9686034056	 0.13017578	-0.47286
C	-1.2986036405	-0.6219566976	 0.0107006809	-0.131706
H	-0.355764384	 1.8396226955	 0.4295658479	 0.279989
H	 0.7975909064	-0.4248309708	-0.7738708651	 0.095604
H	 0.8330658504	-0.6559299618	 2.1268864641	 0.068204
H	-1.8653447846	 0.6010213934	 1.9812493208	 0.078236
H	-1.5285378811	-2.1181259005	 2.8879479967	 0.088873
H	-2.8216549823	-2.0988930543	 1.6303239578	 0.098933
H	 0.229772607	-3.5104599509	 0.7686685438	 0.285211
H	-2.1038989036	-0.6382938039	-0.7250871981	 0.075674
