18
gdb 78935	2.65889	2.01693	1.5349	2.3839	73.72	-0.2114	0.068	0.2794	916.2088	0.148165	-401.848235	-401.841086	-401.840141	-401.879308	29.504	
C	-0.0392902825	 1.6205967665	 0.0006349534	-0.419443
C	 0.0330837664	 0.1089316818	-0.0682951021	 0.059675
C	 0.7201491814	-0.6228514811	-1.2441057215	-0.171577
C	 1.1463585985	-1.7140837924	-0.2052365364	-0.002404
C	 2.6543040595	-1.4494675933	-0.4110188533	-0.215083
C	 2.366604073	-0.1717131502	 0.3390704896	-0.069037
N	 1.0234180474	-0.5923702327	 0.848262635	-0.171525
C	 2.2127399593	-0.2020582733	-1.1738795215	 0.379963
O	 2.920220001	 0.6637453203	-1.9740386736	-0.463259
H	 0.9239098958	 2.0800909911	-0.2394769784	 0.133138
H	-0.7797531683	 2.0028075354	-0.7099930802	 0.115443
H	-0.3354994679	 1.9440028751	 1.0040567287	 0.1243
H	-0.9471479125	-0.3369968285	 0.1381108414	 0.076056
H	 0.261910806	-0.8225348587	-2.2138140098	 0.060298
H	 0.642701527	-2.6626598578	-0.0306624002	 0.078465
H	 3.5329452258	-2.0785665165	-0.4419732077	 0.098266
H	 3.0352896735	 0.500495112	 0.8606256779	 0.096797
H	 3.0885594365	 0.2329586323	-2.8192281613	 0.289927
