15
gdb 98117	5.09365	0.77724	0.6799	1.4541	69.12	-0.2465	-0.091	0.1555	1555.7095	0.107197	-457.739353	-457.72924	-457.728296	-457.775877	34.323	
O	-0.044904771	 1.4518543277	 0.0110664007	-0.39833
C	-0.0152671974	 0.0506071862	 0.0026036476	-0.170618
C	-1.4371753106	-0.4757500908	 0.0129717693	 0.292475
O	-2.422643203	 0.2174036805	 0.0265866113	-0.263125
C	-1.5585820816	-2.0177027177	 0.0053698168	 0.277803
O	-0.5679445837	-2.7039287185	-0.0076333446	-0.262991
C	-2.9919452939	-2.5440764439	 0.016069179	-0.483933
C	-3.0922315042	-3.9914194947	 0.010504593	 0.313704
C	-3.1742383964	-5.1889972152	 0.0059221215	-0.411867
H	 0.863026212	 1.7682974296	 0.0046158828	 0.29807
H	 0.4864626421	-0.3731763773	-0.8831888027	 0.131031
H	 0.5030706507	-0.3834444577	 0.8737380971	 0.131064
H	-3.4960628617	-2.1059000202	 0.8878004305	 0.172844
H	-3.5115450031	-2.0983140253	-0.8426634001	 0.172809
H	-3.2487078082	-6.2482296528	 0.0019514775	 0.201063
