20
gdb 117753	2.51265	0.95268	0.84242	2.6484	75.29	-0.2769	0.0294	0.3064	1447.5219	0.168596	-440.292171	-440.281352	-440.280408	-440.328167	38.361	
C	 0.0694566528	 1.6135706003	 0.0241549433	-0.413497
C	 0.0024954506	 0.0713812003	 0.0038450693	 0.045894
C	 0.702619159	-0.4943806559	 1.2764865089	-0.077169
O	 2.054360367	-0.1144073616	 1.3848745995	-0.418505
C	-1.4469365994	-0.4650732432	-0.0411644568	-0.199134
C	-2.2579233135	-0.0586385912	-1.2678167687	-0.097472
O	-3.5232787647	-0.6881034475	-1.1436088269	-0.417389
C	 0.7649034245	-0.4329470118	-1.1510731316	 0.2679
N	 1.4036593459	-0.8439428942	-2.0236514509	-0.35532
H	 1.0927417266	 1.9356011976	 0.2257168892	 0.149624
H	-0.2549436074	 2.0496148223	-0.9228153145	 0.132448
H	-0.5784133988	 1.9929231724	 0.8208514161	 0.123591
H	 0.1936204789	-0.0808672634	 2.1530990301	 0.120144
H	 0.5811896781	-1.5868334059	 1.2967859702	 0.107212
H	 2.5467523182	-0.5550530326	 0.6823171346	 0.299366
H	-1.4337231681	-1.5595780825	 0.0037345203	 0.123205
H	-1.9674961204	-0.1143968996	 0.857423332	 0.115429
H	-2.3637394221	 1.0357167441	-1.3144236964	 0.092336
H	-1.7357970741	-0.3803598553	-2.1818395552	 0.110884
H	-4.0447281431	-0.4726824823	-1.9222522026	 0.290455
