19
gdb 56596	3.01692	0.93818	0.91607	1.8547	76.27	-0.2464	0.0187	0.2651	1364.8808	0.160469	-415.352336	-415.342548	-415.341603	-415.387545	35.482	
N	-0.3348111866	 1.32640202	-0.1748947438	-0.500085
C	 0.0803985316	-0.0427330834	 0.1341773736	-0.139375
C	 0.6369647605	-0.7538918263	-1.0362362517	 0.250793
N	 1.1069334887	-1.2656842856	-1.9612151585	-0.323184
C	 1.1263588781	-0.0548109116	 1.2973748413	-0.004492
N	 2.3347196589	 0.7203554181	 1.03821696	-0.518063
C	 0.4674145204	 0.4202555538	 2.5776524745	 0.029306
C	-0.026601958	-0.5731784179	 3.5659974433	-0.248854
N	 1.1620032009	 0.2450141397	 3.8558376687	-0.31751
H	 0.4225129726	 1.8160254775	-0.6421782921	 0.235762
H	-1.1157490731	 1.3198653788	-0.8230782563	 0.248856
H	-0.8026214989	-0.5953130118	 0.4741649364	 0.134297
H	 1.4353989499	-1.0996291907	 1.4299968802	 0.092749
H	 2.7746605121	 0.4457553317	 0.1648816558	 0.24258
H	 2.1319809099	 1.7140941745	 0.9988505422	 0.236459
H	-0.056494946	 1.3679808453	 2.4825880612	 0.110575
H	-0.8971778942	-0.3501920858	 4.1762675827	 0.121261
H	 0.1054814924	-1.6285968355	 3.3381739574	 0.110146
H	 2.0127947907	-0.2932532007	 3.7071930452	 0.23878
