15
gdb 77228	3.49426	1.09476	0.90668	2.9158	67.26	-0.264	-0.0516	0.2124	1218.0278	0.111614	-453.93062	-453.921924	-453.92098	-453.965116	30.527	
O	-0.0820561027	 1.5447096272	-0.0505495676	-0.407441
C	-0.1366771447	 0.1624436735	 0.0186098295	 0.114379
C	-1.5450474362	-0.533696428	 0.1500916717	-0.097841
N	-1.3911007053	-1.1451827641	-1.1785374827	-0.309826
C	 0.0073869114	-0.6756472936	-1.3109706198	-0.196248
C	 0.2470964393	 0.1291292155	-2.5087527709	 0.312033
N	 0.4228178804	 0.8164250483	-3.4213262803	-0.319604
C	-1.6242915195	-1.5073442139	 1.2977555071	 0.137729
O	-1.518356593	-2.7009435142	 1.1579342941	-0.246652
H	-0.5587174649	 1.8514556638	-0.832331374	 0.30483
H	 0.5790506821	-0.1369672847	 0.7865079921	 0.122767
H	-2.3705170462	 0.1870719758	 0.2268657351	 0.108856
H	-1.4774833164	-2.1569564251	-1.1443921394	 0.246037
H	 0.7739336218	-1.4551232006	-1.2404062433	 0.132126
H	-1.7682767061	-1.0469763899	 2.2991638583	 0.098853
