13
gdb 133323	2.38195	1.86149	1.04542	1.8239	66.33	-0.2154	-0.041	0.1743	1016.5931	0.090786	-494.073383	-494.066054	-494.06511	-494.105036	28.013	
N	 0.0125876156	 1.3977340041	 0.1341597239	-0.585827
C	-0.0458299772	 0.0431549757	 0.0512903927	 0.120008
C	-1.1773239615	-0.7218480208	 0.0273572153	 0.169577
F	-2.3811814753	-0.1280396119	 0.0395928175	-0.082393
C	-1.1094584825	-2.1328883552	-0.0115810069	-0.075413
N	 0.0169180211	-2.791736315	-0.0331888602	-0.219593
N	 1.1298335551	-2.0292998577	-0.021270489	-0.279654
C	 1.241767079	-0.6532090348	 0.0102746638	 0.40091
O	 2.3204342649	-0.0723116188	-0.0028458947	-0.410585
H	 0.924429327	 1.7885024152	-0.0553317801	 0.278959
H	-0.7991090163	 1.9388220762	-0.1098032744	 0.268823
H	-2.0211123912	-2.7191259853	-0.0232301712	 0.138206
H	 1.9986327413	-2.5454363818	-0.0500134367	 0.276983
