20
gdb 56164	3.57218	0.85152	0.81808	1.8601	76.9	-0.2452	0.0324	0.2775	1499.5938	0.168401	-440.307171	-440.296747	-440.295802	-440.344792	36.423	
C	 1.0457617097	-0.100984109	 1.2167043941	-0.482667
C	 0.730473531	-1.4701713582	 0.6343401011	 0.408901
O	 1.2583772955	-2.4869517136	 1.0484110901	-0.375177
N	-0.1948441366	-1.4727038446	-0.3723248328	-0.308996
C	-0.6200019254	-2.6838752232	-1.0486005046	-0.225409
C	-0.2505395332	-2.6656473616	-2.5220203891	 0.408005
C	 1.2236048494	-2.6768358301	-2.8526049919	-0.454623
C	-1.237085808	-3.1423252298	-3.5006001199	-0.227817
O	-1.0451923715	-1.7403401131	-3.2913346478	-0.284463
H	 2.1286342903	 0.044163212	 1.2046841854	 0.152693
H	 0.5658708819	 0.7256115044	 0.6863604846	 0.112564
H	 0.7263581271	-0.0826157744	 2.2625444165	 0.153497
H	-0.5760570363	-0.6004789836	-0.7005745005	 0.253346
H	-0.1304414358	-3.5135574472	-0.5324500956	 0.149645
H	-1.7052223123	-2.8028733439	-0.951615196	 0.104863
H	 1.6909737191	-3.6029625648	-2.5028946348	 0.1324
H	 1.3745045147	-2.5886202923	-3.9309222389	 0.12509
H	 1.732802611	-1.8415479749	-2.362848913	 0.131061
H	-0.895493388	-3.5215464031	-4.4627510204	 0.115097
H	-2.1937717425	-3.5397243189	-3.1627552464	 0.11199
