17
gdb 38433	4.20638	1.31878	1.21002	2.4302	72.11	-0.2372	0.0145	0.2517	1036.1983	0.138071	-417.967454	-417.96044	-417.959496	-417.999172	27.329	
C	 0.1297450765	 1.4533961344	-0.0462332267	-0.250459
C	 1.3471184483	 0.6167251142	-0.0228424755	-0.079283
N	-0.0303348124	 0.0022443265	 0.1377148953	-0.120725
C	 0.1326065474	-0.5943786398	-1.2330631661	-0.220393
C	 1.5854521427	-0.0525079867	-1.3788610067	 0.303744
C	 2.0065201919	 0.8061349759	-2.5960405957	-0.180896
O	 3.2144287949	 0.175860356	-3.0853982249	-0.219661
C	 3.4049474198	-0.8882627764	-2.2733443864	 0.107246
N	 2.5955293895	-1.1177437651	-1.3247303826	-0.300116
H	-0.1007713971	 2.0240814697	 0.8480477321	 0.127139
H	-0.2088105147	 1.9133239974	-0.9737660203	 0.107663
H	 2.0702773465	 0.6298591639	 0.7857910331	 0.105444
H	 0.1126884425	-1.6831645058	-1.1791800871	 0.13184
H	-0.6059820016	-0.2394718601	-1.9617284921	 0.097086
H	 1.2695522482	 0.7989371171	-3.404664724	 0.121739
H	 2.2387043038	 1.8414795494	-2.3308453043	 0.124697
H	 4.2776112937	-1.4852760306	-2.5137059082	 0.144935
