18
gdb 44603	2.79758	1.87656	1.47399	2.5312	73.3	-0.2338	-0.0231	0.2107	929.1358	0.150764	-401.965241	-401.958516	-401.957572	-401.996434	27.431	
O	-0.0308669447	 0.0775491204	 0.3480786027	-0.31258
C	-0.059669595	 1.2472016783	 0.0752996506	 0.415341
C	-1.3157003643	 2.0923124732	-0.1926497658	-0.367254
C	-0.7709359192	 3.416782639	-0.6738775441	-0.034509
C	 0.0934768339	 4.2560658985	 0.2019852817	-0.021078
C	 0.4578867332	 3.7986642271	 1.6130833484	-0.257665
C	 1.5183325487	 2.6994082482	 1.3656052756	-0.207201
C	 1.1561495256	 2.1781929146	-0.0445733368	-0.122495
N	 0.7215953573	 3.3702681506	-0.8134919933	-0.12501
H	-1.9319236905	 1.6018619706	-0.9520078795	 0.138637
H	-1.9186853747	 2.1462282607	 0.7210882017	 0.137639
H	-1.2833588858	 3.9010524327	-1.500044701	 0.096545
H	 0.1550683865	 5.3177592479	-0.0200752035	 0.092507
H	 0.8546025392	 4.6273798675	 2.2033977755	 0.112593
H	-0.4080411902	 3.4062854481	 2.1577709967	 0.112098
H	 2.5184279951	 3.1415391894	 1.331394762	 0.116516
H	 1.5233670675	 1.9062017344	 2.1178185216	 0.121112
H	 1.9848584775	 1.6691425288	-0.5394230525	 0.104804
