13
gdb 133585	3.03566	1.20299	1.08621	2.8786	52.84	-0.2685	-0.0089	0.2596	1070.377	0.084828	-584.240896	-584.232822	-584.231878	-584.274579	28.299	
F	-0.3593023081	-0.0017366364	 0.1175401405	-0.073977
C	-0.0948054656	 1.3104676883	 0.1702315642	 0.288094
F	 1.221568609	 1.4494817133	 0.390849052	-0.073356
F	-0.36213082	 1.8395139156	-1.0290211155	-0.063645
C	-0.895483625	 2.0095590342	 1.2435026819	-0.179929
C	-2.2409869651	 1.4652946452	 1.6361431396	-0.241499
N	-1.1065249244	 1.3743669823	 2.5199451945	-0.060789
C	-0.5422796388	 0.1898624804	 2.988209154	 0.1426
O	-1.1805624012	-0.7462399517	 3.3909116842	-0.278042
H	-0.7109190182	 3.0810072622	 1.2601406893	 0.136288
H	-3.0237097148	 2.1607925096	 1.9227715498	 0.142518
H	-2.5716822473	 0.5448673519	 1.1640305518	 0.158746
H	 0.5607364094	 0.2476881951	 3.0187933536	 0.102992
