17
gdb 33652	2.96917	1.52828	1.50662	1.7187	79.36	-0.2196	0.0175	0.2372	968.2907	0.137444	-380.75238	-380.745306	-380.744362	-380.783591	28.946	
C	 0.14733793	-1.2166170537	-0.0040526521	-0.334646
C	 0.0759004609	-0.0148853503	 0.002332013	 0.02497
C	-0.0441797012	 1.4038769705	 0.0101674942	 0.306129
C	-0.7246518309	 2.3297400658	 1.0826999693	-0.084089
C	 0.6480527334	 3.0009624593	 1.2391610237	-0.160474
N	 1.1932566328	 2.3363078005	 0.0007582641	-0.204371
C	 0.6208163876	 3.0123100458	-1.2190714856	-0.160473
C	-0.7481528172	 2.3395246966	-1.0384391643	-0.084099
N	-1.5288709544	 3.0305034386	 0.0341209224	-0.326131
H	 0.2207466953	-2.2759587568	-0.0097621953	 0.185207
H	-1.2735917804	 1.9896557655	 1.9615669043	 0.083607
H	 0.6684014198	 4.0938565461	 1.2247616976	 0.110418
H	 1.1960516632	 2.6319279421	 2.1115863278	 0.113267
H	 0.6415839287	 4.1050271401	-1.1950393491	 0.110419
H	 1.1493147657	 2.6514022298	-2.1067933604	 0.113267
H	-1.3164654371	 2.0075137611	-1.9080313771	 0.083608
H	-2.469565546	 2.644894119	 0.0427647677	 0.223391
