20
gdb 108544	2.78629	1.63634	1.2446	2.4513	78.55	-0.2265	0.0683	0.2948	1054.3414	0.172815	-403.08197	-403.074251	-403.073306	-403.114169	30.792	
O	-0.0790269242	 1.4237762402	 0.2515696901	-0.422127
C	 0.0007893559	 0.0351788848	-0.0553869187	-0.202148
C	-1.4018524163	-0.5234120818	-0.0127919682	 0.391206
C	-2.4162155225	 0.074085467	-0.9882122938	-0.300566
C	-3.6426389484	-0.7788514409	-0.5844245597	-0.17289
N	-3.126847071	-1.6598541394	 0.4900796848	-0.130575
C	-1.7083030777	-2.05974566	 0.0835528257	-0.085484
C	-1.3430149168	-2.0768483788	 1.5791624751	-0.247687
C	-2.1723234661	-0.8054626907	 1.3265068995	-0.05394
H	 0.8071018999	 1.7936564096	 0.1997358968	 0.288569
H	 0.421923987	-0.1245408114	-1.0620159086	 0.086056
H	 0.6573140521	-0.4856511935	 0.6568052912	 0.086447
H	-2.549964161	 1.1459285869	-0.8248386383	 0.116405
H	-2.1142791286	-0.0697361264	-2.0315232081	 0.091278
H	-4.4723130786	-0.1839179107	-0.1912861385	 0.103535
H	-4.0296473248	-1.3955286109	-1.4012028799	 0.100787
H	-1.5345182361	-2.826437384	-0.6763079942	 0.070943
H	-1.8367702214	-2.8478798793	 2.171325495	 0.106809
H	-0.2941346389	-1.9558164161	 1.8496397254	 0.094567
H	-2.5494756921	-0.0757446046	 2.0458834946	 0.078813
