21
gdb 105476	2.13098	1.10348	0.84132	2.0735	87.52	-0.2464	0.0479	0.2943	1482.1173	0.180331	-387.050576	-387.040039	-387.039095	-387.08885	36.671	
C	 0.1083678403	 1.4829427186	-0.142286552	-0.390339
C	-0.0565266884	-0.0222494985	 0.0750526532	-0.239269
C	-1.5214287096	-0.5012215559	 0.0696195287	 0.100239
C	-2.1415717185	-0.5594308317	-1.3621572713	-0.10726
O	-1.9706704935	-1.9862960454	-1.4258924402	-0.271293
C	-1.6364706958	-2.0531825685	-0.0283485718	-0.117267
C	-2.3221311335	 0.1376763299	 1.10009936	 0.016879
C	-2.9907360559	 0.6587258326	 1.9569538472	 0.082341
C	-3.8039295279	 1.2860337864	 2.9893294943	-0.501356
H	 1.1661112959	 1.7622996165	-0.1355936643	 0.114407
H	-0.3103863008	 1.7974308372	-1.104530414	 0.11543
H	-0.3997661686	 2.0489460113	 0.6435983494	 0.130161
H	 0.4768625273	-0.5762258402	-0.7071854872	 0.106075
H	 0.3962233611	-0.3107888832	 1.0313691715	 0.103146
H	-3.1975330096	-0.2662660373	-1.4025691781	 0.103007
H	-1.5858076044	-0.0404930663	-2.1518346996	 0.103573
H	-0.7116624901	-2.6139317765	 0.152212406	 0.102458
H	-2.4494323698	-2.4785914499	 0.5724294212	 0.102099
H	-4.6429704459	 0.6442839365	 3.2801663458	 0.149319
H	-3.2158466306	 1.4912119428	 3.8906695913	 0.148523
H	-4.2208213717	 2.2382363714	 2.6427963998	 0.149126
