15
gdb 20286	4.15945	3.10636	2.89116	1.6072	64.79	-0.2388	0.0691	0.3079	585.8616	0.122474	-325.44812	-325.443597	-325.442653	-325.476346	20.388	
C	-0.0580109194	 1.5757771973	-0.0178328348	-0.087872
C	 0.1643450117	 0.815308034	-1.3257548218	-0.087873
C	 0.0545718583	 0.0734699066	-0.0191499244	-0.02547
N	 1.3713991926	-0.3805549503	 0.4686707703	-0.117991
C	 2.1808058939	 0.8040814249	 0.7918437472	-0.05778
C	 2.3983029581	 0.0603373289	-0.4873780511	-0.057777
C	 1.6708600014	 1.1660417007	-1.2977173644	-0.081068
C	 1.4424943523	 1.9470476944	 0.0455671801	-0.081068
H	-0.9131067284	 2.1355009944	 0.3408719593	 0.087145
H	-0.4844154147	 0.669369501	-2.1807171747	 0.087145
H	-0.7940092461	-0.5588922183	 0.2042600228	 0.096623
H	 2.7426429597	 0.8367034697	 1.7188604137	 0.090405
H	 3.171706048	-0.6304913714	-0.8046929179	 0.090406
H	 2.1492766143	 1.6375218021	-2.1518455681	 0.072588
H	 1.7564147882	 2.981110526	 0.1590542938	 0.072588
