20
gdb 83298	2.44703	1.81806	1.43565	3.7223	78.38	-0.227	0.0366	0.2636	1005.1043	0.174436	-403.205168	-403.197452	-403.196508	-403.237206	30.363	
C	-0.0390791543	 1.389321138	-0.1270873225	-0.350648
N	-0.0084013864	-0.0257331	 0.1569229667	-0.051221
C	-1.1724327323	-0.9152777695	 0.0443556863	-0.003931
C	-1.2260616798	-1.4680614715	-1.4057753624	-0.216776
C	 0.0415776212	-2.3812069529	-1.447498183	-0.218081
C	 0.6317443629	-2.2310246069	-0.008476104	-0.134307
C	-0.6558224761	-2.1331170135	 0.8322608335	-0.227134
C	 1.1405098086	-0.784788072	 0.0583550699	 0.407525
O	 2.2758949008	-0.3677846914	-0.0314334658	-0.408404
H	 0.9894034528	 1.7534981349	-0.0880360789	 0.163448
H	-0.449087034	 1.6014541498	-1.1246492093	 0.117838
H	-0.6410101691	 1.9269123038	 0.6138109593	 0.1225
H	-2.0832302981	-0.4344676074	 0.4036152021	 0.073182
H	-2.1450806923	-2.036118548	-1.5772241482	 0.102761
H	-1.1940317175	-0.6626860606	-2.1440336199	 0.106498
H	-0.2244268565	-3.4250938006	-1.6350658465	 0.104198
H	 0.7598526244	-2.0805917791	-2.213479343	 0.119723
H	 1.3842306167	-2.9677008769	 0.2643347708	 0.08419
H	-0.4790917559	-1.9086416042	 1.8864665934	 0.109341
H	-1.3029405251	-3.0099149621	 0.7403506915	 0.099297
