17
gdb 44009	3.72345	1.45726	1.37102	3.5023	71.31	-0.2338	0.0469	0.2807	975.9401	0.138822	-418.010624	-418.003641	-418.002696	-418.04163	28.818	
O	 0.0061944533	-0.0728185662	 0.2248210258	-0.383723
C	-0.0132340004	 1.1114531298	-0.0036956297	 0.393066
N	-1.1571459478	 1.917454063	-0.143063943	-0.392334
C	-0.8055736852	 3.2953719035	-0.1041833188	 0.241709
C	-0.0358324715	 3.8536553771	 1.0741352379	-0.359926
C	 0.7158135867	 3.3162382972	-0.125377351	 0.241706
C	 0.7101711783	 4.2953504008	-1.3174142897	-0.269027
C	-0.8599879807	 4.2738157211	-1.2955378987	-0.269027
N	 1.1038254837	 1.9484657933	-0.17456668	-0.392335
H	-2.0113702485	 1.5458996863	 0.2421242111	 0.252438
H	-0.0480039727	 4.9245434534	 1.2545496495	 0.116683
H	-0.0149726966	 3.2367120326	 1.9647606439	 0.124887
H	 1.2017348648	 5.2570645603	-1.1460615661	 0.102437
H	 1.1202114836	 3.8405441603	-2.2200022597	 0.119287
H	-1.2823800321	 3.8075825861	-2.1865252086	 0.119286
H	-1.3727784063	 5.2217544981	-1.1102019937	 0.102437
H	 1.9782999315	 1.6006294132	 0.1865811309	 0.252438
