14
gdb 18636	3.32739	2.06613	1.78266	2.792	57.33	-0.2494	-0.0268	0.2225	768.4236	0.106935	-419.666719	-419.659905	-419.658961	-419.697912	25.528	
O	 0.0876497771	 1.3127845185	-0.1922817339	-0.421178
C	-0.018513439	-0.0642855751	-0.065681522	 0.100177
C	-0.4412926684	-0.6432093116	 1.2374362909	 0.01942
O	-0.9205710021	 0.3350575349	 2.1420420727	-0.276996
C	-2.2117965534	 0.7924991365	 1.739255601	-0.197663
C	-2.5621430136	 0.0907069661	 0.4213195855	 0.405906
O	-3.6157747495	 0.1777605631	-0.1528114185	-0.315665
C	-1.3918762057	-0.7622078053	 0.0629787192	-0.255229
H	 0.1670459398	 1.6648712487	 0.7047483	 0.301338
H	 0.6941721894	-0.6146173919	-0.6742634182	 0.118899
H	 0.0513085029	-1.4776979188	 1.7236664463	 0.117361
H	-2.9544886262	 0.5371966345	 2.5045532454	 0.143088
H	-2.2093623447	 1.8797860124	 1.6031088076	 0.138411
H	-1.5646197566	-1.670157102	-0.499399356	 0.122132
