19
gdb 15767	2.92675	1.37057	1.05416	1.6137	80.2	-0.231	0.0497	0.2807	1193.9295	0.163535	-327.873147	-327.863654	-327.862709	-327.909256	33.156	
C	 0.954526749	 0.9598599932	 0.4977443986	-0.498343
C	 0.4572101892	-0.3986680613	 0.3274051626	 0.001122
C	 0.0322216719	-1.5197216313	 0.1996679145	 0.110763
C	-0.474750309	-2.8891731766	 0.0238754863	-0.10098
C	-1.8247255773	-2.8910647435	-0.7095883645	-0.374512
N	 0.4336400658	-3.8214141647	-0.6705862366	-0.072933
C	 1.2611940662	-3.3162346315	-1.7612839524	-0.222146
C	 1.8703000722	-3.7027854185	-0.4576769198	-0.224431
H	 2.0455129332	 0.9754163148	 0.595617096	 0.149195
H	 0.6889167617	 1.594124825	-0.3551429636	 0.14856
H	 0.5363066131	 1.4230933809	 1.3982379879	 0.150457
H	-0.6267790102	-3.3231094901	 1.021277182	 0.10787
H	-2.188519397	-3.9175203638	-0.8007079789	 0.123512
H	-2.5598338304	-2.2928415721	-0.1652539557	 0.119116
H	-1.7141369263	-2.4692732366	-1.7127404277	 0.122891
H	 1.3387856625	-3.9674649001	-2.6272509936	 0.111519
H	 1.2251563164	-2.2514228612	-1.9803989533	 0.118369
H	 2.2302611263	-2.8890118558	 0.1679579131	 0.118384
H	 2.4029724027	-4.6434872967	-0.3491214249	 0.111589
