21
gdb 103477	2.39025	1.58809	1.19392	2.5252	79.29	-0.2255	0.0798	0.3052	1143.0624	0.179737	-424.175837	-424.166142	-424.165198	-424.209708	36.267	
C	 0.1036923513	 1.1968930781	-0.3602471337	-0.249599
O	-0.0866740666	-0.0521285179	 0.276143926	-0.274405
C	-1.3667902824	-0.5934633706	 0.131531778	 0.375335
C	-2.4535105824	 0.1301462585	 0.902354171	-0.466684
C	-1.7934235573	-1.2034265654	-1.1969355424	-0.279587
C	-0.5918825255	-1.894437962	-1.8272193913	-0.100199
O	-0.3161985222	-2.6367840846	-0.6149035341	-0.309783
C	-1.4727869265	-2.0883773548	 0.0211303143	 0.393853
C	-2.2309735388	-3.0288134862	 0.9029471082	-0.495199
H	 1.1746370887	 1.4103852074	-0.3236437689	 0.128439
H	-0.2208574064	 1.1708663985	-1.4103095287	 0.107132
H	-0.4311043683	 2.0119934792	 0.1476157026	 0.107386
H	-2.5603713827	 1.1623314301	 0.5528143288	 0.120846
H	-3.4253608794	-0.3532782177	 0.7761669337	 0.121806
H	-2.2135154532	 0.1558799574	 1.9700329036	 0.128192
H	-2.730222281	-0.971242799	-1.6888042583	 0.090355
H	-0.8559316571	-2.5763436058	-2.6434431537	 0.104187
H	 0.2534709572	-1.2655833671	-2.1267054601	 0.107001
H	-1.5800120096	-3.3732067427	 1.7148139233	 0.13857
H	-3.1059258553	-2.5526067269	 1.3503647606	 0.123785
H	-2.5588048425	-3.9078650086	 0.3398169609	 0.128567
