23
gdb 69958	2.37784	1.78186	1.32886	0.3173	88.72	-0.2246	0.0874	0.312	1092.9442	0.205922	-351.115252	-351.106665	-351.105721	-351.147505	35.289	
C	-0.0435969301	 1.5586050732	 0.0734408948	-0.502215
C	 0.0488277249	 0.057633823	 0.0137955203	 0.311909
C	-0.8712777361	-0.8132729414	 0.8256160091	-0.346781
C	 0.6128340265	-0.9510137426	 1.0313013388	-0.109222
C	 1.2795234025	-1.7584139758	-0.1006093621	-0.056016
C	 0.4882999207	-2.913179156	-0.7851923886	-0.238655
C	-0.0967790912	-1.8952646196	-1.8183901762	-0.302794
C	 0.7245533334	-0.7441585676	-1.146738519	 0.325689
C	 1.6628377723	 0.0469343424	-2.0332084057	-0.494444
H	 0.9038615481	 2.0441561223	-0.1825254028	 0.114851
H	-0.807124514	 1.9401848965	-0.6164338972	 0.116364
H	-0.321807915	 1.8875880665	 1.0803843272	 0.114382
H	-1.3900664417	-0.2877797055	 1.6225476372	 0.103361
H	-1.4635860519	-1.6098444619	 0.3868170208	 0.10696
H	 1.0612423369	-0.7653079466	 2.0014929765	 0.076698
H	 2.356919752	-1.889992473	 0.013995595	 0.058669
H	 1.137045972	-3.6647798575	-1.2416679435	 0.095347
H	-0.2381418325	-3.4329994193	-0.1550610736	 0.098747
H	 0.2131104785	-2.0940399521	-2.8481528961	 0.092153
H	-1.1831312795	-1.7736828439	-1.8122126916	 0.09633
H	 1.1164671763	 0.739328971	-2.6856276195	 0.113718
H	 2.3726360083	 0.6375273736	-1.4431459778	 0.114974
H	 2.2451926798	-0.6230731457	-2.6752834058	 0.109975
