17
gdb 102262	2.78101	0.91971	0.80832	4.9205	69.19	-0.2659	0.0094	0.2753	1436.0308	0.13468	-455.189148	-455.178994	-455.178049	-455.225853	35.098	
N	 0.2072623831	 1.0883087919	-0.5063080131	-0.521924
C	 0.1577830783	-0.1169425049	 0.1251673147	 0.421387
O	 1.0831948777	-0.56450342	 0.7726366701	-0.352325
C	-1.1804825272	-0.8551733244	 0.0174349044	-0.333411
C	-0.9719452431	-2.3793694247	-0.0436891269	-0.133663
C	-2.2634249117	-3.16477329	 0.2884801112	-0.078443
O	-2.073113872	-4.5579821893	 0.2654760343	-0.413285
C	-0.4890710574	-2.7946335581	-1.3640118789	 0.260304
N	-0.1658728973	-3.1503119421	-2.415855424	-0.329948
H	 1.0845911436	 1.5840421585	-0.5015451298	 0.268489
H	-0.4989297169	 1.3770338963	-1.160311346	 0.263934
H	-1.7469036498	-0.6215966635	 0.9272510942	 0.14306
H	-1.7755399255	-0.5059617591	-0.8318156334	 0.115674
H	-0.2014594942	-2.6392924088	 0.6897491972	 0.165219
H	-2.5631129574	-2.9088160402	 1.3095618559	 0.123731
H	-3.070377052	-2.8456311352	-0.3891664439	 0.101711
H	-1.8786057682	-4.8222172767	-0.6412723857	 0.299491
