16
gdb 37212	3.2805	2.04693	1.71115	1.0308	71.93	-0.2321	-0.0327	0.1994	818.7674	0.126205	-400.632952	-400.626984	-400.626039	-400.662948	25.293	
C	 0.0819363555	 1.4824100867	 0.1920906062	-0.188736
C	 1.5434879697	 1.8003842148	-0.0228436418	-0.058587
C	 2.1678814271	 0.7394203372	-0.557838856	 0.011137
C	 3.2244356769	 0.0644773851	 0.2943144488	-0.052488
O	 2.9057400999	 0.2505401948	 1.7020596847	-0.247103
C	 2.3802630075	-0.8934055237	 1.0352658184	 0.058508
C	 0.9758526878	-0.983660568	 0.3743043677	-0.068718
C	 1.1039692129	-0.2979273428	-0.9352658152	-0.102357
N	-0.0465072141	 0.0408308247	-0.111656405	-0.129271
H	-0.1863373335	 1.7051208932	 1.2315125922	 0.131727
H	-0.6328870714	 2.0119098389	-0.4519170338	 0.122043
H	 2.0440951222	 2.5769390191	 0.5441057838	 0.118705
H	 4.2737446779	-0.0839556006	 0.0649967858	 0.1083
H	 2.7520434669	-1.8458463723	 1.4085598312	 0.105004
H	 0.4916967843	-1.9481690823	 0.4871999627	 0.100577
H	 0.9810034304	-0.7246181148	-1.9267920696	 0.091258
