13
gdb 127759	3.72752	1.65082	1.15249	5.4696	66.23	-0.2657	-0.0564	0.2093	968.2431	0.091513	-448.876111	-448.869475	-448.868531	-448.907415	24.447	
C	-0.0162731699	 1.492178222	-0.0743895809	-0.349562
N	-0.007990637	 0.0514746593	 0.0673805063	-0.126276
N	-0.044407256	-0.7378846502	-1.0433813626	-0.131579
N	-0.0290765291	-2.0037679837	-0.6971796244	-0.29552
C	 0.0179553599	-2.0110895654	 0.647990099	 0.450575
C	 0.0327294158	-0.7398786319	 1.1689304982	 0.243088
C	 0.0821648345	-0.9487816377	 2.5702076818	-0.091424
N	 0.0947484036	-2.2388138373	 2.8342196204	-0.11501
O	 0.0539943118	-2.939914252	 1.6119286815	-0.22087
H	 0.8922543805	 1.9256220363	 0.3529640312	 0.154004
H	-0.0577407436	 1.7089907929	-1.1416484238	 0.178647
H	-0.8910773964	 1.9218554537	 0.4215590901	 0.153963
H	 0.1091592659	-0.255249436	 3.3972951231	 0.149963
