22
gdb 64332	2.5029	1.38073	1.13389	3.2035	83.38	-0.2527	0.0245	0.2773	1196.9718	0.194861	-404.381324	-404.3722	-404.371255	-404.414702	35.6	
C	 0.0098734656	 1.5438728024	 0.028416945	-0.427252
C	-0.0490781185	 0.010406444	-0.0141353618	 0.251126
C	-1.5218917139	-0.4395553768	-0.043259734	-0.420002
C	 0.7256470958	-0.5081647281	-1.2425483925	-0.226825
C	 0.8269561393	-2.0278697216	-1.2541918838	-0.089794
O	 1.3204439753	-2.5824878834	-0.0252481645	-0.254229
C	 0.8851913628	-2.065588731	 1.1649673546	 0.365701
N	 0.781927245	-2.7900130833	 2.198828122	-0.504217
C	 0.6615502123	-0.5725677478	 1.2256916183	-0.272212
H	 1.0450644407	 1.9023509899	 0.0320310512	 0.111238
H	-0.4935040285	 1.9799564783	-0.8415986994	 0.111271
H	-0.4821413659	 1.9309241359	 0.9274287532	 0.115666
H	-2.0189933009	-0.0990592179	-0.9582041444	 0.110666
H	-1.6275905501	-1.5270250204	 0.0142313391	 0.123989
H	-2.0650469459	-0.0183160753	 0.8089537712	 0.120336
H	 0.2455297585	-0.1827507695	-2.1734223391	 0.099395
H	 1.7351453497	-0.0786512194	-1.2341118291	 0.102366
H	-0.1499842522	-2.4806528046	-1.4690734572	 0.110491
H	 1.5241591338	-2.369751456	-2.0234580744	 0.116718
H	 1.0145516659	-3.7581236243	 1.9640363847	 0.21491
H	 1.6511877248	-0.1033280502	 1.3149021707	 0.116225
H	 0.1178775564	-0.3543595507	 2.1473802003	 0.124434
