21
gdb 100055	3.08429	1.12208	1.00545	3.0747	74.13	-0.2518	0.0658	0.3176	1270.2473	0.181458	-461.344313	-461.334722	-461.333778	-461.378532	36.17	
C	-0.0672871241	 1.5976608078	 0.0755502702	-0.417539
C	-0.0595237544	 0.0774527153	-0.053790899	 0.297736
O	 0.5869021039	-0.4504390499	 1.1114063133	-0.483021
C	-1.4967839726	-0.4882118961	-0.0829226823	-0.084258
O	-2.1479772682	-0.2670178743	 1.1503804526	-0.428615
C	 0.7078816426	-0.3798429927	-1.2939616018	 0.118292
C	 2.2153694491	-0.0629992694	-1.4057273864	-0.293747
C	 2.3802809574	-1.5865550629	-1.5513228982	-0.072706
O	 0.9857019109	-1.8080865659	-1.2240613305	-0.314214
H	 0.9408618367	 1.9793409982	 0.2543043573	 0.120621
H	-0.4635569593	 2.0600530366	-0.8342034413	 0.113436
H	-0.7068228215	 1.8886528554	 0.9116716861	 0.139817
H	 0.8079875339	-1.3644629196	 0.8776297335	 0.285936
H	-2.0893747078	 0.0079159045	-0.8596278651	 0.100075
H	-1.4509969045	-1.561472836	-0.3287384258	 0.096219
H	-1.4890785006	-0.4903359153	 1.8219332559	 0.283728
H	 0.1359975922	-0.1401638133	-2.2011890655	 0.077623
H	 2.5269989745	 0.5519726236	-2.2501087432	 0.111941
H	 2.6338817352	 0.3332545839	-0.4797972507	 0.127476
H	 2.6068149871	-1.9293743588	-2.5682377379	 0.109443
H	 3.0494753895	-2.0893270311	-0.845605771	 0.111754
