21
gdb 110373	3.66571	1.08331	1.02607	1.7816	81.75	-0.2424	0.0675	0.3099	1282.6719	0.183127	-387.030405	-387.022244	-387.0213	-387.063232	32.037	
C	-0.0568648929	 1.4436288518	 0.2927747538	-0.373868
C	-0.1056820704	 0.000158735	-0.2208094632	-0.219185
C	-1.4847756711	-0.622021356	-0.0998562279	-0.000269
C	-1.5635058895	-2.1223963329	-0.0270412295	-0.104449
C	-1.8452466872	-1.2527337286	 1.2159943562	-0.066555
C	-3.3042804336	-1.7557860709	 1.2077281415	 0.097924
O	-4.2650579626	-0.9778349594	 0.4458614835	-0.299622
C	-4.1253296163	-1.8561628649	-0.7031212948	-0.10965
C	-3.0135284562	-2.6619654396	-0.0012263213	-0.081872
H	 0.9460252026	 1.8683373872	 0.1849597495	 0.109884
H	-0.7519119053	 2.0824533415	-0.2626093403	 0.11817
H	-0.3348896591	 1.4957524977	 1.3503162504	 0.118976
H	 0.2084843926	-0.0260258508	-1.2722341515	 0.097846
H	 0.6204777157	-0.6125518343	 0.3290404697	 0.09329
H	-2.2658618219	-0.0721647744	-0.6183403883	 0.098938
H	-0.6934684331	-2.7338202129	-0.2372751296	 0.08421
H	-1.2426832843	-1.1055885413	 2.1053837035	 0.079273
H	-3.7072818177	-2.1092460848	 2.1597919888	 0.076363
H	-5.0482125643	-2.4233707634	-0.8772197363	 0.100087
H	-3.8591291993	-1.3110958199	-1.6163603267	 0.101917
H	-3.1093745359	-3.7454261589	 0.0470283126	 0.078588
