19
gdb 93356	3.1636	1.35176	1.05911	3.3549	75.47	-0.2441	-0.0308	0.2133	1155.9192	0.15969	-423.046156	-423.037952	-423.037008	-423.079112	31.482	
C	-0.1789657994	 1.5257596015	 0.0956247654	-0.406099
C	 0.016255986	 0.0057336771	 0.0157351841	-0.011339
C	 0.7014784936	-0.4142916738	-1.2958388797	-0.223079
C	 0.9476932796	-1.926200272	-1.3738308888	-0.328379
C	 1.6035717421	-2.5526738401	-0.1485874076	 0.408098
O	 2.0431412996	-3.6795699364	-0.1553956587	-0.314882
C	 1.6065252911	-1.7440818035	 1.1221001934	-0.083143
O	 2.2389536628	-0.451738099	 1.0525543091	-0.244575
C	 0.8222972979	-0.4946243706	 1.2011069213	 0.062264
H	 0.7868430679	 2.0413270189	 0.073418261	 0.131961
H	-0.7753674082	 1.8877358275	-0.7474542414	 0.117905
H	-0.6931240314	 1.8139402358	 1.0183507345	 0.115403
H	-0.9714924759	-0.4759822018	 0.0725511199	 0.080591
H	 0.0845782429	-0.1004795626	-2.1443275166	 0.099839
H	 1.6531027557	 0.1195976158	-1.3780146008	 0.123734
H	-0.0112262419	-2.4546751082	-1.4814764699	 0.132464
H	 1.5377208711	-2.2007632084	-2.2532309048	 0.132762
H	 1.8369790029	-2.3171919689	 2.0180993167	 0.109395
H	 0.4691882735	-0.1931247913	 2.1886482132	 0.097079
