18
gdb 72377	2.37321	2.0157	1.49074	1.7897	75.84	-0.2447	0.0073	0.252	951.0469	0.149591	-401.986867	-401.979494	-401.97855	-402.018527	29.186	
C	-0.2422332336	 1.4775554426	 0.0365563225	-0.448897
C	 0.0262184107	-0.0168760164	-0.0458431712	 0.354067
O	-1.2749111581	-0.7045957778	-0.0196890664	-0.258693
C	-1.171616994	-1.626650079	 0.9593160793	 0.104762
N	-0.1200588593	-1.7062795615	 1.6650075048	-0.275495
C	 0.790931689	-0.6660225939	 1.1583427777	-0.048315
C	 2.1007597616	-1.2542456491	 0.5763871256	-0.27165
C	 1.9234969521	-1.1144819154	-0.9143329886	-0.06681
C	 0.8166834961	-0.4558445414	-1.2513873435	-0.122788
H	 0.7031938783	 2.0284385353	 0.051918962	 0.124779
H	-0.8228848495	 1.8181767338	-0.8260291448	 0.127092
H	-0.8021221062	 1.7186560545	 0.9450978875	 0.127276
H	-2.047144393	-2.2571671446	 1.0756911624	 0.135102
H	 0.9976864069	 0.0458427075	 1.9638596753	 0.082474
H	 2.9853664539	-0.7063119091	 0.9256960627	 0.108436
H	 2.2305585429	-2.2948842989	 0.8907055329	 0.126806
H	 2.6473470634	-1.5076758517	-1.6204455997	 0.101627
H	 0.4876459287	-0.2340779649	-2.2602600184	 0.100228
