20
gdb 26495	3.50754	1.13466	1.05586	1.9079	85.2	-0.2004	0.0488	0.2492	1234.8203	0.172388	-366.039692	-366.031225	-366.030281	-366.073018	33.225	
C	-0.1678658579	 1.4582381879	 0.3379421452	-0.453361
C	 0.0053921522	-0.0226682603	 0.0314507427	 0.258785
C	 1.3750654217	-0.4773480782	-0.4300752624	-0.291016
C	 0.8897289486	-0.8265532671	 0.9567776343	-0.305318
C	-1.1941814332	-0.6823682248	-0.5598147578	 0.211181
C	-2.0402149128	-1.575081522	 0.0628266426	-0.186965
N	-3.03954344	-1.9062557096	-0.8176970088	-0.236068
C	-2.8536244035	-1.2378764368	-2.000994648	-0.07251
C	-1.721285404	-0.4705878327	-1.8722518392	-0.255584
H	 0.7512651903	 1.886633951	 0.7519376431	 0.103899
H	-0.4231237017	 2.0203377957	-0.5671224487	 0.11534
H	-0.973759964	 1.6159324133	 1.0631797886	 0.113883
H	 1.4240541382	-1.2740460255	-1.1637077448	 0.110685
H	 2.153736155	 0.272386876	-0.5267454256	 0.102192
H	 1.3390073067	-0.3134761177	 1.8007644928	 0.102249
H	 0.6262623357	-1.8599411736	 1.1515018696	 0.105781
H	-2.0106038176	-1.9928101032	 1.0563362657	 0.113803
H	-3.7862217191	-2.5505602236	-0.627967266	 0.259112
H	-3.5337662992	-1.3700528551	-2.8271507071	 0.115071
H	-1.3013628554	 0.1706283963	-2.6326251562	 0.08884
