17
gdb 47585	2.57512	1.86646	1.20325	2.6508	69.78	-0.2351	0.0078	0.2429	1010.1592	0.138828	-455.12098	-455.113724	-455.11278	-455.152954	27.957	
N	-0.0837975035	 1.2793092636	 0.2469852103	-0.521802
C	 0.0028678331	 0.0501567518	-0.0336313732	 0.405622
O	 1.1996725803	-0.5743300065	-0.2444347845	-0.24154
C	 1.1656685205	-1.8052340608	-0.9689994676	 0.007037
O	 0.274761315	-2.7243941712	-0.4328712046	-0.234439
C	-1.065137503	-2.2777584544	-0.5716522287	 0.092653
C	-1.9024906012	-2.697347723	 0.6479356988	-0.189844
N	-1.6196330548	-1.3757811128	 1.2568677681	-0.306111
C	-1.2322541085	-0.8203663387	-0.065870838	-0.081771
H	 0.8469642736	 1.7021822921	 0.2804159586	 0.221042
H	 0.9275668637	-1.5861911389	-2.0234505952	 0.094642
H	 2.1689944017	-2.2244054567	-0.8874650855	 0.132733
H	-1.4451205831	-2.5123663052	-1.5722093777	 0.0808
H	-2.9536870626	-2.8730255652	 0.3813100424	 0.097105
H	-1.5199764528	-3.5523058102	 1.2129147289	 0.120581
H	-2.3971278163	-0.9056676989	 1.7051359294	 0.229383
H	-2.0327541721	-0.279936865	-0.5834106515	 0.09391
