13
gdb 124272	4.21837	1.12017	0.88997	4.4482	62.3	-0.281	-0.0907	0.1904	1203.3066	0.088055	-489.900532	-489.892513	-489.891569	-489.933918	28.137	
C	-1.1796952659	 0.7417873637	 0.2380574795	-0.482878
C	 0.1942658994	 0.279159972	-0.1802604142	 0.30723
O	 1.226218575	 0.6568715398	 0.3179161563	-0.271326
C	 0.2243982326	-0.7211986369	-1.2986346937	 0.348964
N	-0.7905459014	-1.2287341872	-1.9419877375	-0.387588
C	-0.1636927567	-2.0620958312	-2.8295474703	 0.441589
O	-0.8204687656	-2.8065886493	-3.7132660045	-0.396687
N	 1.1475071117	-2.0809630195	-2.7536605217	-0.175288
O	 1.4032968618	-1.1758933712	-1.7211057513	-0.176952
H	-1.7012005975	 1.1952337364	-0.6109181246	 0.15894
H	-1.7860365451	-0.1122503287	 0.5563553254	 0.158925
H	-1.0824505801	 1.4612380087	 1.0509891591	 0.151504
H	-1.7631661483	-2.6379583567	-3.5935287023	 0.323567
