20
gdb 110113	2.24048	1.18136	0.93842	3.7786	79.56	-0.2735	0.0227	0.2961	1340.523	0.170169	-403.152147	-403.142125	-403.14118	-403.187761	35.875	
C	 0.3719813814	 1.5255570134	-0.1603829426	-0.381212
C	-0.1638953104	 0.109991865	 0.0846627313	-0.210866
C	 0.5240822088	-0.5681405813	 1.2538343845	-0.024112
C	 0.5377048611	-2.0518882823	 1.4881933941	-0.071463
C	-0.112856198	-3.056308042	 0.5573688232	-0.088703
O	 0.5470399716	-4.3098355923	 0.5861574801	-0.420682
C	 1.832219197	-1.3427523006	 1.0797685619	-0.196993
C	 2.3622608537	-1.5834709679	-0.2312982041	 0.282214
N	 2.7795488175	-1.8082626015	-1.2882981736	-0.355156
H	 1.4366400708	 1.5048949631	-0.4134115842	 0.132363
H	-0.159408084	 2.0059001449	-0.9868901536	 0.120828
H	 0.2493819203	 2.155289402	 0.727644	 0.11542
H	-1.2410492341	 0.1519642246	 0.2890860809	 0.106836
H	-0.0436365862	-0.4828478557	-0.8267881642	 0.123838
H	 0.5154787513	 0.0323077589	 2.1609617452	 0.101985
H	 0.5332952052	-2.3730961752	 2.5260194798	 0.109386
H	-1.137095425	-3.2453594635	 0.8960646044	 0.117363
H	-0.1757565026	-2.6631750677	-0.4648385593	 0.109092
H	 1.3816325587	-4.2096018192	 0.1150381994	 0.295748
H	 2.5944726029	-1.2192432227	 1.841272397	 0.134114
