17
gdb 99552	2.17962	1.27165	0.86005	5.9343	74.15	-0.2751	-0.0023	0.2729	1318.6561	0.135895	-414.187235	-414.177252	-414.176308	-414.222554	34.811	
C	-0.1701866478	 1.4842007536	 0.0200048452	-0.335844
N	 0.0810679489	 0.0417527476	-0.0222523801	-0.283582
C	 0.7446142801	-0.4909604287	 1.160001536	-0.124971
C	-0.1306979524	-0.5061281226	 2.3499084639	 0.277856
N	-0.8802845988	-0.5108977859	 3.2302276894	-0.314483
C	 1.2835375107	-1.9273483915	 0.8223461355	-0.129188
N	 2.1418790938	-1.9669682456	-0.3524006048	-0.502759
C	 1.9913675191	-2.4910276705	 1.9776900932	 0.295525
N	 2.5714889941	-2.9034267545	 2.8869273894	-0.305139
H	 0.7858275952	 2.0162406723	 0.0551606503	 0.135713
H	-0.6848858837	 1.778254641	-0.8978044681	 0.137659
H	-0.7763256193	 1.8044612778	 0.8802312918	 0.13441
H	-0.7960788827	-0.4515304977	-0.1632058418	 0.238145
H	 1.6101602058	 0.1449649058	 1.3792880712	 0.139253
H	 0.4063714807	-2.5601168968	 0.63010916	 0.145267
H	 1.7021050253	-1.3941305798	-1.0691433756	 0.248716
H	 3.0427722011	-1.5467798445	-0.1418651755	 0.243424
