23
gdb 40821	3.59952	1.00465	0.84313	1.3528	85.8	-0.239	0.0921	0.3311	1433.1133	0.208077	-388.290191	-388.281637	-388.280693	-388.323557	33.681	
C	-0.178456003	 1.4126605909	-0.1748227364	-0.27517
C	 1.2544298803	 1.0256481993	 0.0978243348	-0.278081
C	 0.1828871541	-0.0355019669	 0.0420430791	 0.026923
C	-0.2550985777	-0.7611706403	 1.2967618286	 0.000785
C	-1.6896981666	-1.3081759471	 1.1883377034	-0.203996
C	-2.0501743486	-2.1409614989	 2.4261834759	-0.212627
C	-0.9732185988	-3.1973019152	 2.6819698371	-0.062727
O	 0.3133071837	-2.6150925309	 2.8038649841	-0.246976
C	 0.7002083817	-1.916780856	 1.6334702074	-0.079158
H	-0.7229434799	 1.9211027799	 0.6145218446	 0.10996
H	-0.4439691752	 1.7368049669	-1.1749665588	 0.109956
H	 1.9689704998	 1.0853332495	-0.7156356754	 0.110405
H	 1.6679979002	 1.2759612214	 1.069606111	 0.111591
H	 0.1827613416	-0.6574354972	-0.8512103884	 0.077891
H	-0.2174949383	-0.0551737006	 2.1389960952	 0.069497
H	-2.3995199175	-0.4860343606	 1.0463354577	 0.09535
H	-1.7607566262	-1.9410703514	 0.2916728727	 0.089843
H	-2.1208687815	-1.4896168705	 3.3061341092	 0.101556
H	-3.0248486264	-2.6272215167	 2.3020567704	 0.091245
H	-1.1544551418	-3.7347581087	 3.6175926721	 0.10219
H	-0.9751547284	-3.9378619273	 1.8618573555	 0.079685
H	 0.749077991	-2.6127225127	 0.7756441833	 0.076419
H	 1.7119614175	-1.543964947	 1.8176511069	 0.105438
