25
gdb 101256	2.61379	1.06594	0.88117	1.1532	90.43	-0.2427	0.0789	0.3216	1484.1748	0.225932	-389.479427	-389.468177	-389.467232	-389.515796	41.431	
C	-0.123103605	 1.5133624699	-0.2028456012	-0.23761
O	-0.0566093254	 0.1425308889	 0.1147449816	-0.240012
C	-1.2924397591	-0.5576864727	 0.0005866489	 0.109732
C	-1.6252398269	-0.8517221	-1.468202989	-0.399829
C	-1.2113443938	-1.8536524001	 0.7967450242	-0.046713
C	 0.1095455467	-2.4548189513	 1.222585518	-0.324969
C	-0.8662244885	-1.9631112101	 2.2690166834	 0.330992
C	-0.5206149517	-0.7259423487	 3.0773542301	-0.466325
C	-1.6230179955	-3.0139117039	 3.0629022114	-0.445272
H	 0.8614791501	 1.9391095525	 0.0070618824	 0.126056
H	-0.3585043896	 1.6922625562	-1.2616957449	 0.10859
H	-0.8735554918	 2.036976392	 0.4099045305	 0.104876
H	-2.0915275916	 0.076398377	 0.4236829707	 0.062803
H	-1.6810012429	 0.0655397401	-2.0611425408	 0.1111
H	-0.859138047	-1.5007135695	-1.9032297149	 0.126896
H	-2.5936752766	-1.355555649	-1.547788156	 0.114195
H	-1.9623688426	-2.5667648391	 0.4647444434	 0.073057
H	 0.2548625875	-3.5239143853	 1.1040975044	 0.096551
H	 0.9918650381	-1.8528133716	 1.0413744737	 0.124741
H	 0.0511081812	-0.0084130219	 2.488604819	 0.135341
H	-1.4288350392	-0.2270136369	 3.4388331846	 0.102724
H	 0.0712308583	-0.9993370357	 3.9592634335	 0.106006
H	-1.0338914371	-3.3550526485	 3.9229267971	 0.111024
H	-2.5688410943	-2.6148905482	 3.4497448284	 0.108878
H	-1.8565641934	-3.8916007541	 2.4515409015	 0.107168
