27
gdb 101249	2.92802	0.85515	0.79982	0.0532	96.99	-0.2543	0.0817	0.3361	1668.1823	0.24972	-353.564024	-353.552526	-353.551582	-353.600358	43.167	
C	-1.640599744	 1.3989566345	-2.5172158488	-0.393016
C	-1.2286428171	 0.2552602246	-1.5848436414	-0.15931
C	-2.0886744529	-1.0198206981	-1.703879355	 0.012972
C	-1.9633215577	-1.682437346	-3.0850686752	-0.395606
C	-1.7151521765	-2.0035818711	-0.6062157921	-0.008229
C	-2.2330058115	-1.857359106	 0.807676877	-0.34764
C	-2.6474150787	-3.0506024951	-0.0269324197	 0.333745
C	-4.0918627064	-3.1455410917	-0.4831337715	-0.457246
C	-2.03714429	-4.3953026961	 0.326072739	-0.448201
H	-1.035363643	 2.2919401583	-2.3310046683	 0.110222
H	-1.5174470377	 1.1363966156	-3.5724870523	 0.116699
H	-2.6907735256	 1.6741160964	-2.365043327	 0.110811
H	-0.1769694718	-0.0068394811	-1.7671533157	 0.088456
H	-1.2767468599	 0.6052770977	-0.5466062075	 0.0962
H	-3.1354629447	-0.718015177	-1.5633889199	 0.063467
H	-2.5865914581	-2.5794268647	-3.1480782131	 0.114474
H	-2.2672033058	-1.009204481	-3.8920059521	 0.110771
H	-0.9264836097	-1.9852502147	-3.2761585134	 0.109057
H	-0.6779275418	-2.3305685144	-0.6799895064	 0.069466
H	-1.5495445006	-2.0105080216	 1.6369913013	 0.10151
H	-2.9792375559	-1.0885960161	 0.9889235662	 0.101059
H	-4.7092101802	-3.6020949587	 0.2999556843	 0.111443
H	-4.525010782	-2.1682823543	-0.7101175981	 0.115291
H	-4.1883648204	-3.7705551526	-1.3791583788	 0.11245
H	-2.601807711	-4.8873166415	 1.1275183899	 0.110309
H	-2.0359187197	-5.0695517806	-0.539030998	 0.111076
H	-1.0022999572	-4.2881084148	 0.6661749464	 0.109771
