20
gdb 40403	4.02137	1.23349	1.0868	1.5498	83.44	-0.2244	0.008	0.2324	1166.9748	0.173004	-365.985092	-365.977395	-365.976451	-366.017354	31.006	
C	-0.3166332039	 1.2729705721	-0.2740263544	-0.270848
C	 1.0878226639	 1.1972158843	 0.2661193326	-0.263586
C	 0.2802425573	-0.0663822388	 0.0674187614	-0.082334
C	-0.1909694133	-0.8468289524	 1.2532890223	 0.334188
C	 0.6757015764	-2.0114028305	 1.7538073219	-0.339506
C	-0.3183599083	-2.975523845	 2.3652184082	-0.090032
C	-1.5775725707	-2.5587282366	 2.2008548871	-0.078657
C	-1.617993009	-1.2262040694	 1.5311741869	-0.108269
N	-0.9621824466	-0.1113578451	 2.2627473088	-0.370285
H	-1.0801553623	 1.6545341022	 0.3933937551	 0.132473
H	-0.455677432	 1.5131967678	-1.3223078171	 0.102718
H	 1.9189491832	 1.390824423	-0.4029277214	 0.105205
H	 1.2396909858	 1.529172747	 1.2874000594	 0.114747
H	 0.5724899644	-0.691524748	-0.7727547276	 0.078154
H	 1.2227779915	-2.475634477	 0.9219179304	 0.111833
H	 1.438839341	-1.6785875289	 2.4697565864	 0.11287
H	-0.0143373524	-3.8775257472	 2.8841044484	 0.098127
H	-2.4679691348	-3.0809823803	 2.5311390843	 0.099474
H	-2.4502831665	-0.9310366312	 0.900815562	 0.091731
H	-0.7188156038	-0.422235276	 3.2014558053	 0.221994
