18
gdb 81536	3.11171	1.42737	1.10661	1.5146	74.62	-0.2134	-0.0498	0.1636	1102.4072	0.145872	-439.001379	-438.992977	-438.992033	-439.034408	32.259	
C	-0.1077398499	 1.5516370199	-0.041787067	-0.338907
N	-0.1204652432	 0.0876412135	-0.0271259572	-0.104487
C	-1.1143372234	-0.7073873552	 0.7936254006	-0.098545
C	-0.179814933	-1.913361469	 0.5092800703	-0.231862
C	 0.7154113221	-0.721831582	 0.9421727761	-0.098544
C	-0.2995139797	-0.4330706869	 2.1277058568	 0.361777
O	-0.3338262414	 0.8407579214	 2.6745418376	-0.482784
C	-0.4003977005	-1.4278822621	 3.2734517314	 0.09406
O	-0.490074162	-1.0366386119	 4.4163427832	-0.280711
H	-0.1819925341	 2.052351102	 0.9246937411	 0.143758
H	 0.8184654002	 1.8649695307	-0.5361273056	 0.115782
H	-0.9373376308	 1.8788237084	-0.6782712925	 0.115787
H	-2.1930479488	-0.6249952598	 0.6483877525	 0.091399
H	-0.2376284394	-2.8012706052	 1.1350987161	 0.096356
H	-0.0957941492	-2.1496637948	-0.5486624988	 0.122008
H	 1.8045813512	-0.6565437416	 0.9729363376	 0.0914
H	-0.4128070004	 0.7050819255	 3.6347746767	 0.294888
H	-0.3909635679	-2.5068592027	 3.0519985012	 0.108625
