17
gdb 13540	2.99536	1.50547	1.14554	2.4029	68.67	-0.2809	0.0278	0.3087	1068.21	0.14049	-363.864689	-363.855883	-363.854939	-363.898553	31.059	
C	-0.0411250356	 1.4361115952	-0.2533875951	-0.396797
C	 0.0820406151	-0.0172868724	 0.2476149173	-0.170407
C	 0.7666263337	-0.0796192537	 1.5435309965	 0.263885
N	 1.2917663419	-0.1280032141	 2.5719187615	-0.318466
C	-1.2917136759	-0.6694000718	 0.3601283291	 0.06794
O	-1.912720388	-1.0167348822	-0.8740379238	-0.264454
C	-1.579028946	-2.0760437749	 0.0399389515	 0.080214
C	-0.5656949574	-3.0975915655	-0.4062667988	-0.42649
H	 0.9437758887	 1.8944359567	-0.3673626589	 0.137904
H	-0.5481923782	 1.4353307154	-1.2210541806	 0.14698
H	-0.6231590873	 2.0408127635	 0.4475305437	 0.138161
H	 0.6810196094	-0.5843280363	-0.471381375	 0.130416
H	-1.9499430886	-0.1662423162	 1.0715781593	 0.106673
H	-2.4541335814	-2.502541286	 0.533851064	 0.099921
H	 0.2890635874	-2.6423214127	-0.9103195047	 0.128886
H	-0.2015233476	-3.6686732385	 0.4540012424	 0.138328
H	-1.0294777703	-3.8013251064	-1.1048050184	 0.137305
