16
gdb 18679	2.8972	2.6226	1.55052	3.565	64.72	-0.2225	0.0011	0.2237	811.3032	0.133429	-379.914168	-379.907512	-379.906568	-379.945014	25.691	
O	-0.1771461264	 0.2668665802	 0.9281528523	-0.334027
C	-0.1120178968	 1.2558616489	 0.2364341016	 0.339319
C	-1.3526420713	 1.889423994	-0.4143629839	-0.260246
N	-1.261660356	 3.328113163	-0.6995752798	-0.285611
C	-0.2605230218	 3.9834373893	 0.1534290018	-0.206831
C	 1.106575318	 3.3661166394	-0.0782139536	-0.021748
C	 1.8534094586	 2.5989380606	 0.9722941757	-0.254441
N	 1.0899152789	 1.9062793891	-0.0548815505	-0.077268
H	-1.5833777572	 1.343648839	-1.3352028136	 0.135736
H	-2.1762928326	 1.6894207658	 0.2810868827	 0.140282
H	-1.0033369022	 3.4693012649	-1.6704697414	 0.223002
H	-0.2544912813	 5.0563990829	-0.0569497442	 0.11542
H	-0.5689481568	 3.8557661676	 1.1987374302	 0.119952
H	 1.68193107	 3.7883752338	-0.9017827987	 0.099696
H	 2.9327315406	 2.5026022591	 0.902113958	 0.131171
H	 1.4530740962	 2.5781483322	 1.9827771432	 0.135592
