20
gdb 68837	2.75516	1.44062	1.20593	1.6298	80.17	-0.2223	0.0728	0.2952	1126.5504	0.169224	-403.092801	-403.083817	-403.082873	-403.125954	34.484	
C	-0.0058202662	 1.53708556	 0.058496105	-0.507681
C	 0.1322537791	 0.0481859448	 0.0011647083	 0.286636
C	 0.6223084201	-0.7882700293	-1.1983559681	-0.368442
C	 1.1969772488	-1.7919358058	-0.1764635098	 0.453078
C	 1.4936864247	-3.2182797718	-0.2504529873	-0.266653
O	 2.5431848095	-2.2289028932	-0.2407863948	-0.284548
C	 0.6982185823	-0.9388338771	 0.9782939843	 0.18483
C	 1.3311300234	-0.8017828572	 2.3256835433	-0.51965
N	-0.7772574009	-0.8592767042	 0.7521791249	-0.411359
H	 0.881698426	 2.0311879296	-0.3507787351	 0.127768
H	-0.8733872675	 1.8764595597	-0.5199431748	 0.130383
H	-0.1386933774	 1.883047344	 1.0897538515	 0.116856
H	-0.1534802784	-1.1475517646	-1.8787509126	 0.107025
H	 1.4282646425	-0.3065979607	-1.7586803049	 0.114422
H	 1.4287838749	-3.8368058493	 0.6435225001	 0.113575
H	 1.3699638614	-3.7495308733	-1.1929149396	 0.116121
H	 2.4201963256	-0.7587784856	 2.2299317061	 0.14279
H	 0.9915128524	 0.1072774334	 2.8336630779	 0.117405
H	 1.085419289	-1.6548320674	 2.9693226938	 0.128897
H	-1.1540927992	-0.3175551318	 1.5324547216	 0.218547
