18
gdb 114146	5.05614	0.89784	0.83144	4.4929	78.34	-0.2761	-0.0026	0.2736	1398.4072	0.146804	-401.927399	-401.918741	-401.917796	-401.960953	32.059	
C	 0.0102355394	 1.5009782857	 0.1583897371	-0.383317
C	-0.1155935826	-0.0121647787	-0.0437888718	-0.194852
C	 0.6673514098	-0.5193389933	-1.249769825	 0.003553
C	 2.2441285918	-0.4904217794	-1.2031188654	-0.327681
C	 2.2299758517	-2.0120744473	-1.4199192955	 0.317294
O	 1.476480581	-2.5918172505	-0.3465726711	-0.264258
C	 0.7487944574	-2.0437300392	-1.4456086663	-0.06437
C	 3.1959959087	-2.8216970518	-2.0943057187	 0.201824
N	 3.9969329038	-3.4384930874	-2.6561235366	-0.337182
H	 1.053680032	 1.7983444142	 0.3083878608	 0.121037
H	-0.3695393268	 2.0521174098	-0.7090074207	 0.116459
H	-0.5561739394	 1.8285068997	 1.0350757635	 0.12105
H	 0.2350194502	-0.5425602593	 0.8485051117	 0.118139
H	-1.1727574338	-0.2794694237	-0.1706151097	 0.10151
H	 0.3174709905	-0.0404209567	-2.1704422627	 0.08939
H	 2.6878330479	 0.0601299726	-2.033814665	 0.130579
H	 2.7056320685	-0.1822903317	-0.2626892882	 0.125821
H	 0.0804080899	-2.7122707831	-1.9762990564	 0.125005
