17
gdb 50757	3.37316	1.18736	0.91945	2.5424	71.45	-0.2509	-0.0333	0.2176	1224.4473	0.13531	-458.956044	-458.947839	-458.946895	-458.989655	29.887	
O	-0.839790234	 0.9023187526	-0.6780955162	-0.240083
C	 0.289184309	 0.6145459126	-0.3857968409	 0.140239
C	 1.337075268	 1.6239228791	 0.0905586901	-0.03607
O	 2.580467281	 0.9704559147	-0.0469695437	-0.244344
C	 3.7035512939	 1.6705282982	 0.4219073749	 0.014898
O	 4.2108289505	 2.5775739772	-0.5057910455	-0.218645
C	 3.5788257084	 3.8435267061	-0.5512890932	-0.140748
C	 2.1023200974	 3.8717872813	-0.8497527311	-0.09112
C	 1.1702298108	 2.9597679317	-0.5846513746	-0.057537
H	 0.6726419729	-0.4272462549	-0.4122606616	 0.104711
H	 1.1160143716	 1.7654839206	 1.1704624459	 0.111435
H	 3.4687267056	 2.1716641263	 1.3791159801	 0.077006
H	 4.4813941078	 0.9183469642	 0.5715253523	 0.12
H	 3.7531699843	 4.3829285869	 0.3985652484	 0.107779
H	 4.1149580358	 4.4007580809	-1.3259503354	 0.126184
H	 1.7729392989	 4.806609204	-1.3007127432	 0.102859
H	 0.1328170581	 3.1730958986	-0.8292659362	 0.123437
