14
gdb 25466	2.7798	1.64649	1.03403	3.5901	73.55	-0.2387	-0.0786	0.1601	1059.9428	0.102839	-436.774466	-436.767386	-436.766442	-436.806217	26.628	
O	-0.0474906443	-0.0707333375	-0.0017209605	-0.291705
C	-0.0309931986	 1.1314958869	 0.0075816006	 0.176065
N	 1.1698557783	 1.8843089659	 0.000122912	-0.219966
C	 2.3730137849	 1.2096343298	-0.0185861049	 0.065201
C	 3.5482440296	 1.8760453013	-0.0264226112	-0.209328
C	 3.5285598283	 3.3062973878	-0.0149515572	-0.048768
C	 2.3576356314	 3.9913066906	 0.0034703637	-0.239238
C	 1.0716144614	 3.3200821449	 0.0125169995	 0.456597
O	-0.0162190442	 3.8657039861	 0.0288236551	-0.385207
H	-0.9097153689	 1.7859219736	 0.0225236352	 0.15842
H	 2.2705564681	 0.1322594178	-0.0259267571	 0.167005
H	 4.4813394781	 1.3292481146	-0.041123701	 0.120466
H	 4.4700059231	 3.8470047155	-0.0211791124	 0.122863
H	 2.3157294127	 5.0732453627	 0.0124360081	 0.127593
