17
gdb 79410	2.47485	1.55463	1.47755	1.8528	67.72	-0.2487	0.0598	0.3085	984.3	0.134485	-458.880796	-458.872565	-458.871621	-458.912948	32.362	
O	 0.2058144362	 1.4130643777	-0.2143541438	-0.454532
C	 0.0771665345	 0.0170588213	-0.0895967433	 0.06211
C	 0.0528275645	-0.6495707571	 1.3050924936	-0.144139
C	-1.4592577406	-0.3016318016	 1.5509231707	-0.155163
C	-1.8217430216	-1.7639126971	 1.8924734404	-0.333629
C	-0.7668178474	-1.8646684224	 0.7687095474	 0.367304
O	-0.1769911485	-2.977920461	 0.2045296501	-0.477097
C	-1.3245752712	-0.61827703	 0.0051704385	 0.291699
O	-2.3285389895	-0.7035508647	-0.9376051788	-0.482672
H	-0.2769721129	 1.8272034056	 0.5094075744	 0.281406
H	 0.7551500515	-0.4249691887	-0.8237203752	 0.098513
H	 0.8256467216	-0.6934829892	 2.0691237297	 0.085776
H	-1.8461521727	 0.6069878766	 2.0076847009	 0.076254
H	-1.5220547477	-2.1258738788	 2.8802527783	 0.097777
H	-2.8385619176	-2.084127293	 1.6471844477	 0.102127
H	-0.8180348987	-3.3895304282	-0.3862861528	 0.291685
H	-2.4525184199	 0.1693161206	-1.3270930178	 0.292581
