17
gdb 88052	2.49352	1.35229	1.124	2.4206	74.24	-0.2386	0.0306	0.2692	1137.4573	0.133626	-421.74318	-421.734485	-421.733541	-421.776641	32.843	
O	-0.0114455882	 1.3647131739	 0.0073636376	-0.434962
C	 0.0531759531	-0.0205646477	 0.1174670873	 0.061348
C	-0.5144877846	-0.7067376037	 1.3589345605	-0.394435
C	-1.2402133587	-0.7623833686	 0.0551146094	 0.40701
O	-2.4224003628	 0.0139231162	-0.1734650146	-0.315915
C	-2.8381059097	-0.8924702872	-1.2247306464	-0.083746
C	-1.7146013612	-1.9043776119	-0.8548065335	-0.349794
C	-0.8283880159	-2.3758139758	-1.8968462554	 0.332473
C	-0.0843501875	-2.7563203711	-2.7609952767	-0.439972
H	-0.9230562241	 1.5742974026	-0.2431011833	 0.293296
H	 0.9346836151	-0.4527251207	-0.3486770268	 0.110545
H	-0.0307996791	-1.6089786756	 1.7207035284	 0.120538
H	-0.9387390204	-0.0630994256	 2.1231785947	 0.130075
H	-3.865808373	-1.2344051082	-1.0782447268	 0.120775
H	-2.7226686005	-0.4482264665	-2.218269164	 0.121541
H	-2.1098361972	-2.743781253	-0.2740938589	 0.11785
H	 0.5697420846	-3.094623387	-3.5262854416	 0.203372
