16
gdb 31097	2.48257	1.36133	0.88761	2.3514	70.03	-0.1671	0.0451	0.2122	1256.8403	0.122784	-475.022106	-475.012756	-475.011812	-475.056618	33.397	
C	-0.1068472438	 1.3992566763	-0.0100055835	-0.242852
O	 0.0133074019	-0.009027411	-0.0273310867	-0.26683
C	 0.6558276641	-0.5659413147	 1.0315809003	 0.246265
C	 0.8035809151	-1.9046598824	 1.2070827968	 0.206781
O	 0.3291413758	-2.9829393331	 0.5552371937	-0.416305
O	 1.5089899543	-2.1369119344	 2.378921775	-0.187685
C	 1.7929772009	-0.9318287844	 2.9173709858	 0.39014
N	 2.5839881938	-0.9636839635	 4.0606619176	-0.592101
C	 1.2991554794	 0.0818454978	 2.1511071391	-0.417568
H	 0.8751827395	 1.8912921519	-0.0225946147	 0.118123
H	-0.6536356783	 1.6733519196	-0.9141485249	 0.132183
H	-0.6670997355	 1.7482636059	 0.8678274614	 0.119022
H	 1.013963943	-3.3503025167	-0.0181336737	 0.303715
H	 2.3581453697	-1.7477880517	 4.6612741199	 0.254886
H	 2.5373088325	-0.0987862078	 4.5821282458	 0.252618
H	 1.3797357876	 1.137164018	 2.3497527181	 0.099608
