21
gdb 73952	2.51251	1.36899	0.92539	0.9613	95.18	-0.2154	-0.0066	0.2088	1300.8464	0.182573	-349.960276	-349.951085	-349.950141	-349.993828	35.464	
C	 0.0099996612	 1.5566930773	 0.169635991	-0.501697
C	 0.0045719256	 0.0617748077	 0.0182959298	 0.230788
C	 0.003321614	-0.5562458918	-1.1815577415	 0.060039
C	 0.0276318877	-2.0711439823	-1.3334768385	-0.288
C	 0.4172908692	-2.7940351814	-0.0402752768	-0.207043
C	-0.336619348	-2.2002799289	 1.1513106501	-0.204923
C	 0.0097179292	-0.7164438644	 1.3141978925	-0.270372
C	-0.0320617868	 0.1672604353	-2.4087696194	 0.214937
C	-0.0631965191	 0.7081552476	-3.4864956424	-0.422485
H	 0.8530381589	 1.8774280411	 0.7958269793	 0.121733
H	 0.0778174686	 2.0671882323	-0.7919563203	 0.138185
H	-0.9002631335	 1.8976865768	 0.6801583091	 0.123591
H	-0.9626278462	-2.4084558129	-1.6712697016	 0.11249
H	 0.7183513493	-2.3333830281	-2.142534151	 0.111815
H	 0.2149177083	-3.865983068	-0.1373782843	 0.092734
H	 1.4974350782	-2.6899510055	 0.1264393653	 0.098668
H	-1.4164960459	-2.306712658	 0.9853963515	 0.099566
H	-0.104434485	-2.7432962381	 2.0735897018	 0.09196
H	 1.0021242627	-0.6108097774	 1.7803170963	 0.109113
H	-0.6855489988	-0.2382277945	 2.0171039317	 0.102188
H	-0.0925960697	 1.201937503	-4.4257602427	 0.186713
