18
gdb 94958	3.60363	1.35511	1.16879	3.0319	72.48	-0.2616	0.0229	0.2845	1085.8294	0.148991	-439.094437	-439.086719	-439.085774	-439.126682	29.747	
C	 0.0991410882	 1.3174582978	-0.275239938	-0.411052
C	-0.1010859344	-0.1178105096	 0.2155015709	 0.091512
O	 0.1926580457	-1.082098466	-0.8009445433	-0.262277
C	 1.5837174511	-1.380592802	-0.7528372256	-0.102141
C	 1.9644745229	-1.3186313214	 0.7310691701	-0.197942
C	 0.8317164264	-0.4761100778	 1.3702653348	 0.100972
O	 0.3763617631	-1.6529135772	 2.1143648253	-0.268706
C	 1.3848224686	-2.4316541768	 1.581917159	 0.442175
N	 1.676221372	-3.6352898094	 1.7668355768	-0.546265
H	 1.1501651652	 1.5297965919	-0.4981486079	 0.119841
H	-0.48109919	 1.4797212255	-1.1867393541	 0.135745
H	-0.2355004473	 2.0337818375	 0.482059096	 0.12161
H	-1.145772016	-0.2774438153	 0.4999322783	 0.103814
H	 1.7292384078	-2.3707251311	-1.1906979407	 0.137501
H	 2.1732586256	-0.6512258515	-1.3284374425	 0.097726
H	 3.0040615998	-1.0606339118	 0.9270565984	 0.110226
H	 1.0731511092	 0.3424799266	 2.0490260429	 0.097279
H	 1.0308113122	-4.0815128296	 2.4207584999	 0.229982
