19
gdb 41722	3.29724	1.72978	1.72216	1.7795	72.83	-0.2303	0.0865	0.3167	894.9241	0.163734	-423.037852	-423.031614	-423.03067	-423.068117	26.684	
C	-0.0309714783	 1.5883122249	-0.0140347283	-0.220395
C	 1.4922154049	 1.9464696316	 0.0005936392	-0.237262
C	 2.1799575975	 0.5846700612	-0.2022883512	-0.057838
C	 2.0374941598	-0.3439370444	 1.0245727832	 0.0636
C	 2.2946299619	-1.7191644523	 0.413900108	-0.077816
O	 1.5906338554	-1.6358489827	-0.842294662	-0.288723
C	 1.1561115019	-0.2892518408	-0.9623947994	 0.106824
C	 0.019968469	 0.0612218841	 0.0260351262	 0.081601
O	 0.6202429563	-0.2968628526	 1.2978122102	-0.301696
H	-0.5700265234	 1.984686621	 0.848719512	 0.110779
H	-0.526587906	 1.9506683106	-0.9216495274	 0.0958
H	 1.7535615854	 2.6394013426	-0.8037165477	 0.101837
H	 1.7942026663	 2.4154559658	 0.9411133655	 0.107959
H	 3.1854138898	 0.6130774988	-0.623234109	 0.074308
H	 2.5953748386	-0.0994300554	 1.9293649833	 0.079115
H	 3.3593282436	-1.9293022801	 0.2370932817	 0.090061
H	 1.8625328995	-2.5157109836	 1.0270754891	 0.111351
H	 0.9562556718	-0.0633501009	-2.0100876592	 0.082914
H	-0.923137134	-0.4739184276	-0.0894738643	 0.077579
