21
gdb 101181	3.60731	0.9379	0.86998	1.4455	78.74	-0.2348	0.0659	0.3008	1423.5386	0.181281	-424.14998	-424.140812	-424.139868	-424.184389	34.587	
C	 0.2153204537	 1.5880466099	 0.2263304249	-0.384335
C	 0.1303573726	 0.0733167586	 0.0264723882	-0.184044
C	 0.8278517581	-0.4052921227	-1.2548244625	 0.077923
O	 2.2056971213	-0.0249358153	-1.2815705157	-0.431122
C	 0.7023264651	-1.9121343199	-1.4344931796	 0.033194
C	-0.5583349551	-2.6354169413	-1.9958194315	 0.025892
C	-0.2405584188	-2.1295524331	-3.4237032314	-0.232616
C	 1.0598200797	-2.6412528225	-2.7594745557	 0.028082
O	 0.2959117689	-3.8152536839	-2.2653284619	-0.311649
H	 1.2574054887	 1.9177234995	 0.2209866193	 0.129359
H	-0.3046763768	 2.1205931603	-0.5776856164	 0.11448
H	-0.2390110088	 1.8891980339	 1.1748296185	 0.110509
H	 0.5833249825	-0.4452869073	 0.8841181074	 0.087486
H	-0.9186880896	-0.2483880974	-0.0021155363	 0.099171
H	 0.3914041063	 0.1254526074	-2.107642433	 0.085464
H	 2.6486799563	-0.4855714001	-0.5594956149	 0.277592
H	 1.1076440512	-2.4448667527	-0.5660843284	 0.072231
H	-1.5236921884	-2.8154466237	-1.5211091373	 0.092718
H	-0.6212567133	-2.7662746959	-4.2226942745	 0.110416
H	-0.3401740646	-1.0666462168	-3.6498142727	 0.101984
H	 2.038370841	-2.8273485569	-3.2012906565	 0.097264
