18
gdb 32534	2.58641	1.33841	0.892	2.6864	76.3	-0.1835	0.0572	0.2407	1297.2867	0.146927	-439.085613	-439.076183	-439.075239	-439.120044	33.809	
C	-0.0496391599	 1.3304127681	-0.0464932453	-0.241925
O	-0.0038569581	-0.0796219603	-0.0153907566	-0.260425
C	 0.6362140264	-0.6095933943	 1.0590195215	 0.236861
C	 1.2478771968	 0.0145806337	 2.125846139	-0.203271
N	 1.748251775	-0.9710772138	 2.945919079	-0.268305
C	 1.4684374675	-2.213512794	 2.4239298788	-0.203271
C	 0.7757330164	-2.0185723523	 1.2474933144	 0.23686
O	 0.2778320873	-2.9230079669	 0.3648789526	-0.260425
C	 0.5034798769	-4.2739965765	 0.7042503498	-0.241925
H	 0.9607364317	 1.7634321551	-0.0736877609	 0.112918
H	-0.586541366	 1.6089605431	-0.9547774154	 0.12995
H	-0.5805770559	 1.7333095592	 0.8280914389	 0.112903
H	 1.3658521315	 1.0570530003	 2.3643751588	 0.117524
H	 2.2454450871	-0.8074778152	 3.8008826386	 0.259236
H	 1.7790183273	-3.1149600049	 2.922423082	 0.117524
H	 1.5783972652	-4.4975570767	 0.7649902459	 0.112905
H	 0.0372939502	-4.5283293271	 1.6671072167	 0.112916
H	 0.0531857208	-4.8774540576	-0.0856275078	 0.12995
