16
gdb 7768	3.42844	1.76988	1.21521	4.2743	67.75	-0.2411	-0.0512	0.1899	950.7387	0.131201	-383.775816	-383.768523	-383.767579	-383.807308	27.788	
O	-0.079615482	 1.4548269758	 0.0440960398	-0.430844
C	 0.046931712	 0.0422765684	 0.0141850507	 0.10173
C	 0.7419935582	-0.5038871697	 1.2705063747	-0.282899
C	 0.6350490773	-2.0007271846	 1.3606783092	-0.056138
C	-0.3144779061	-2.7066080078	 0.7336272704	-0.136472
C	-1.3672592966	-2.0633989203	-0.084395283	 0.364033
O	-2.2056014243	-2.7132338785	-0.6750816716	-0.330513
C	-1.3592795088	-0.5381604586	-0.109436067	-0.306263
H	 0.8025087713	 1.8386793917	 0.0070179819	 0.282843
H	 0.6323327418	-0.2715818532	-0.8657623933	 0.079275
H	 1.7967207201	-0.2010039803	 1.2887632632	 0.102717
H	 0.2782820502	-0.0406360382	 2.1537785478	 0.13146
H	 1.3744904724	-2.5157643003	 1.9696557123	 0.110943
H	-0.3674536156	-3.7884023855	 0.8033469469	 0.10903
H	-1.9575814633	-0.1827468289	 0.7416847961	 0.130518
H	-1.8547668266	-0.1936716501	-1.019496018	 0.13058
