16
gdb 90701	2.74814	1.69258	1.36812	4.258	70.64	-0.2417	-0.0324	0.2093	959.7135	0.125805	-437.897783	-437.890438	-437.889494	-437.929771	28.156	
O	 0.0009635944	 1.4558534269	 0.1747452686	-0.415978
C	 0.0607916606	 0.0609499222	 0.0104565406	 0.092087
C	 0.2852423368	-0.756604642	 1.3156335171	-0.219502
N	-1.1550002315	-1.1372604785	 1.3140756778	-0.111675
C	-1.3820782564	-0.5539080112	-0.0233655483	-0.057395
C	-2.6110475257	 0.2865761824	 0.1358693166	-0.061722
C	-3.0255172093	 0.2268603965	 1.4055006038	-0.182207
C	-2.0245844204	-0.514808438	 2.2296996927	 0.360374
O	-1.904423235	-0.5332735461	 3.4331104095	-0.365796
H	 0.8826033025	 1.7733727222	 0.3971946905	 0.291382
H	 0.6942949548	-0.2251764938	-0.8389280482	 0.075814
H	 0.9460575516	-1.6215138124	 1.2118426226	 0.114329
H	 0.568932396	-0.172599108	 2.1954061264	 0.131635
H	-1.493084558	-1.3068674073	-0.8126156098	 0.098933
H	-3.097197768	 0.7952788834	-0.6867261949	 0.123421
H	-3.8948800326	 0.6962265938	 1.8445477149	 0.126298
