16
gdb 127588	6.00024	0.90223	0.7942	0.8265	77.14	-0.2508	-0.0043	0.2465	1395.1494	0.124198	-396.904202	-396.895378	-396.894434	-396.940032	30.717	
C	-0.7274458311	 1.3263532206	-0.5772198522	-0.310937
N	-0.1732444432	 0.0675288228	-0.1232183351	 0.156835
N	 0.8065190291	-0.5476948703	-0.7723297506	-0.233274
C	 1.0668922694	-1.6120116452	-0.0090704426	-0.11952
C	 0.2118395199	-1.590266797	 1.1016835132	 0.306106
C	 0.0713368031	-2.5535865218	 2.2503877845	-0.466126
C	 1.1263160165	-3.5604118175	 2.2933391133	 0.310162
C	 1.9922133967	-4.392366865	 2.3249134957	-0.447864
N	-0.5663059339	-0.5075475629	 1.0077005163	-0.309544
H	-0.3039740745	 2.1611637051	-0.0106034843	 0.150266
H	-0.4801562593	 1.4370755675	-1.6321014259	 0.162889
H	-1.8093132397	 1.3106048505	-0.4387962475	 0.15647
H	 1.8267912935	-2.326658871	-0.2779850885	 0.134741
H	 0.0575841404	-1.9901839243	 3.1915344878	 0.155441
H	-0.9049710196	-3.0529606677	 2.1911067392	 0.15437
H	 2.7566829727	-5.128420414	 2.3614448267	 0.199985
