17
gdb 13316	5.33623	1.20912	1.04161	5.3288	68.59	-0.2671	0.0345	0.3016	1110.53	0.143647	-363.88757	-363.879753	-363.878809	-363.921573	27.678	
N	-0.2461375047	-1.0947413196	 0.155108748	-0.30617
C	-0.1447654345	 0.0530281555	 0.0727766306	 0.272777
C	-0.0223375553	 1.5039195407	-0.0550843732	-0.367416
C	 1.4278697871	 1.9951976341	 0.0223572101	 0.156074
C	 1.5848977313	 3.5273485235	-0.1720105783	-0.263188
C	 2.5215819101	 3.9524963619	 0.9866523188	-0.213915
C	 3.0018811591	 2.6059461934	 1.5522458525	-0.07731
O	 1.9290350665	 1.7061620831	 1.3166395609	-0.250617
H	-0.4595869701	 1.8072562571	-1.0127049051	 0.151657
H	-0.6019584953	 1.9837149732	 0.7411831029	 0.155377
H	 2.0255825316	 1.4607968252	-0.7327973209	 0.085779
H	 2.0086805688	 3.7523332291	-1.153552133	 0.11351
H	 0.6187351183	 4.0363475088	-0.1097145009	 0.10907
H	 3.3478321377	 4.5853772777	 0.655220612	 0.108675
H	 1.9642194951	 4.5027974157	 1.7488733861	 0.114486
H	 3.9126930482	 2.2636960864	 1.0347731342	 0.094861
H	 3.1995068161	 2.6171400542	 2.6264211251	 0.11635
