18
gdb 85227	2.72676	1.51312	1.10174	2.8488	71.58	-0.2393	-0.0207	0.2186	1105.2942	0.1476	-439.093649	-439.085188	-439.084244	-439.126665	32.347	
C	-0.0776059274	 1.5089659181	 0.0113824006	-0.495944
C	 0.1568872208	 0.0255750042	-0.0127011799	 0.201282
N	-0.6658998369	-0.9022153536	 0.8308056174	-0.382374
C	 0.7820895415	-0.7832563985	 1.0714617483	-0.128763
C	 1.4992028699	-2.0017556737	 0.4953723525	 0.147735
O	 1.2403075128	-3.1757046709	 1.236093956	-0.438317
C	 1.0331119668	-2.056434338	-0.9842835008	-0.373487
C	 0.5286708679	-0.6508658303	-1.3117324525	 0.395775
O	 0.5097569634	-0.1199312011	-2.393385767	-0.320836
H	 0.7780959293	 2.0414582213	-0.4136386988	 0.142266
H	-0.9547188314	 1.7699771066	-0.5884887024	 0.144369
H	-0.2345322292	 1.8677975301	 1.0335396798	 0.114
H	-1.169146891	-0.3303637676	 1.5068549287	 0.238936
H	 1.1343428363	-0.3275257418	 1.9913646232	 0.098772
H	 2.5824869673	-1.8522030502	 0.5443121992	 0.098535
H	 0.279570529	-3.2305044007	 1.3199693297	 0.288344
H	 1.8108105396	-2.364846814	-1.6844721328	 0.130185
H	 0.1989001213	-2.7594015099	-1.0810767314	 0.139522
