17
gdb 97241	2.52122	1.53819	0.99321	5.4671	74.26	-0.251	-0.0312	0.2198	1173.6826	0.136778	-455.178252	-455.169583	-455.168639	-455.212449	30.972	
C	 0.1600333473	 1.4486474175	 0.0938869363	-0.327903
N	 0.2168023941	-0.0007567422	 0.0708869126	-0.24804
C	 0.5103173278	-0.5994604467	-0.9977750721	 0.287126
O	 0.8328078509	 0.0712659085	-2.152618583	-0.26664
C	 0.8058354735	-0.6655131431	-3.3734573435	-0.084294
C	 1.6356683661	-1.9286708794	-3.245783019	-0.167108
N	 1.1148915446	-2.6856287342	-2.1242759375	-0.334783
C	 0.5867159031	-2.1257322632	-0.990250619	 0.344216
O	 0.2156594225	-2.7883138258	-0.0480033824	-0.339628
H	 1.1168849934	 1.8426088241	 0.4596711602	 0.133771
H	-0.0416664248	 1.9040317528	-0.8822825326	 0.120178
H	-0.6076900307	 1.7567829031	 0.8092792669	 0.130109
H	-0.2297958138	-0.9190179415	-3.6356299523	 0.121832
H	 1.2107268997	 0.0024140413	-4.1366938246	 0.127578
H	 1.5479970313	-2.5232939736	-4.1609561649	 0.124358
H	 2.6960742383	-1.6693327376	-3.1125605365	 0.123763
H	 1.2597686867	-3.68305919	-2.0723873186	 0.255464
