16
gdb 44449	3.11274	1.83339	1.62872	3.8152	66.96	-0.2282	0.0109	0.239	861.0594	0.128609	-437.911256	-437.905168	-437.904224	-437.941597	25.261	
O	-0.0249798497	-0.0116044641	-0.2633539397	-0.345059
C	 0.0090402702	 1.1572272552	 0.0042158347	 0.426214
O	-1.1326969772	 1.8239795258	 0.349747916	-0.22925
C	-1.0042515922	 3.1961715419	 0.6689902814	 0.098253
C	 0.0067486304	 4.052334272	-0.0567610909	-0.116666
C	 1.003669694	 3.254437597	-0.8779714423	-0.224077
C	 1.2411225266	 2.0466917554	 0.053028726	-0.17649
N	 1.3268875844	 2.6864783112	 1.3858668391	-0.291664
C	 0.2462934386	 3.6521831736	 1.3866244634	-0.058389
H	-1.9744130155	 3.6063524762	 0.9194613892	 0.118036
H	-0.2580261565	 5.0631936245	-0.3403011303	 0.101445
H	 0.6308471921	 2.9517170733	-1.8601076208	 0.12577
H	 1.9326254447	 3.8163477266	-1.0102020016	 0.122742
H	 2.1285323617	 1.457066678	-0.174484848	 0.106952
H	 1.2196212663	 1.999038523	 2.1280791934	 0.236446
H	 0.2061321221	 4.3404484004	 2.2221195405	 0.105737
