17
gdb 31539	3.35427	1.1222	0.86374	1.1573	74.4	-0.161	0.0498	0.2108	1317.9524	0.135876	-455.151371	-455.142002	-455.141058	-455.185603	34.207	
C	-0.1514597105	 1.4118944237	-0.2381076099	-0.330359
N	-0.1090343639	 0.100560507	 0.4083112666	-0.385206
C	-1.1847834155	-0.752286317	 0.2220309085	 0.428112
C	-1.2800128549	-2.0964434221	 0.0134248541	-0.375307
C	-2.6895812627	-2.4058839766	 0.0416368847	 0.15937
N	-3.2671768392	-3.6848144539	-0.0540323266	-0.618351
C	-3.3286643654	-1.2278131401	 0.243242156	 0.259692
O	-4.6404847449	-0.9000735739	 0.2405133156	-0.431115
O	-2.4136585275	-0.194522197	 0.361925063	-0.204684
H	 0.7357071912	 1.9770787448	 0.0574120284	 0.122087
H	-0.1908084116	 1.3600613128	-1.3369908516	 0.111831
H	-1.0324118044	 1.9546877899	 0.1091220803	 0.15147
H	 0.7624252698	-0.3855222731	 0.2496676473	 0.239306
H	-0.464993428	-2.7893105211	-0.1255538733	 0.088298
H	-2.854612294	-4.2307112342	-0.8017414041	 0.239945
H	-4.2651665121	-3.6182633547	-0.2183218432	 0.24284
H	-4.9256170164	-0.6826963645	 1.1375882942	 0.302071
