16
gdb 125431	5.12318	1.0637	0.92207	1.8691	72.67	-0.2396	-0.0106	0.229	1256.6664	0.12472	-434.048633	-434.040566	-434.039622	-434.082224	28.721	
C	-0.0959207451	 1.4545387889	-0.2535150673	-0.495177
C	-0.0490410175	-0.020294079	-0.0757962136	 0.427052
N	-0.9886255159	-0.8880621672	-0.300305948	-0.352358
C	-0.3717983102	-2.0721450002	 0.0445881176	 0.389736
N	 0.8725272248	-1.954220351	 0.4460225754	-0.202064
O	 1.0881861112	-0.5637001244	 0.3744623564	-0.199415
N	-1.0520897795	-3.2734586616	 0.0365776854	-0.140883
C	-1.464814304	-3.8673742934	-1.2326320879	-0.222628
C	-0.3785151016	-4.4835154148	-0.4142756791	-0.222508
H	 0.6764813485	 1.783150373	-0.9552404502	 0.156629
H	-1.0764999839	 1.7401855805	-0.633268528	 0.162516
H	 0.0853498793	 1.9615149837	 0.6990134934	 0.159175
H	-2.4617386923	-4.296005547	-1.2353920801	 0.131326
H	-1.1788667597	-3.3507943737	-2.1446170149	 0.134132
H	 0.6434280253	-4.3806339437	-0.7671300363	 0.143945
H	-0.5792157195	-5.3695122201	 0.1794136671	 0.130523
