15
gdb 116996	4.99226	0.56548	0.51114	1.5705	87.62	-0.2643	-0.0794	0.1848	2019.1771	0.108588	-420.577565	-420.567517	-420.566573	-420.613907	34.312	
O	-0.2110721443	 1.4612479536	 0.0118322646	-0.426182
C	 0.0061708269	 0.0589201238	 0.0024395703	-0.085638
C	-1.3661311606	-0.5997101417	 0.0118182655	-0.284396
C	-1.297082701	-2.1124420113	 0.0032446855	 0.126898
O	-0.2531416218	-2.7328026857	-0.0102253475	-0.286917
C	-2.5772981388	-2.7956531616	 0.0119407445	 0.326556
C	-3.6458298775	-3.3700517489	 0.0190216757	-0.108448
C	-4.8412003333	-4.0134995201	 0.0267455751	 0.288247
C	-5.9050893271	-4.5849122133	 0.0339452823	-0.543852
H	 0.6466391226	 1.8957683787	 0.0058016031	 0.289028
H	 0.5638081671	-0.2636190179	-0.8882448711	 0.105772
H	 0.580331343	-0.2728878134	 0.8791182348	 0.105756
H	-1.937956525	-0.2771873524	 0.8916124183	 0.143876
H	-1.9542149765	-0.2680968232	-0.8537722845	 0.143895
H	-6.8401678539	-5.0888747765	 0.0398597334	 0.205404
