12
gdb 131048	5.97572	0.96912	0.83389	7.3727	59.3	-0.2549	-0.0367	0.2182	1240.5587	0.077405	-505.974315	-505.966484	-505.96554	-506.008383	27.149	
O	-0.3702486741	 0.0806461301	 0.0073876011	-0.237293
C	-0.1100357167	 1.2497424005	 0.0093894058	 0.158877
N	 1.171413539	 1.7924631408	-0.0013964676	-0.429538
C	 2.3622298599	 1.0913342888	-0.0167905412	 0.583066
N	 2.4989502113	-0.195979655	-0.0296884919	-0.180402
O	 3.9134503703	-0.3952222615	-0.0418202171	-0.226968
C	 4.5758622825	 0.7954204477	-0.0358965588	 0.522909
O	 5.7614708437	 0.9504451632	-0.0427955356	-0.385792
N	 3.5636610298	 1.7533221266	-0.0199753339	-0.458518
H	-0.8638946097	 2.0598472789	 0.0204496676	 0.101045
H	 1.2361518477	 2.7988311652	 0.0013778688	 0.266499
H	 3.7429401362	 2.7424103849	-0.0096519974	 0.286115
