19
gdb 100496	4.69643	0.5448	0.51077	2.8058	83.36	-0.2488	-0.0291	0.2198	2137.4737	0.15452	-422.993914	-422.982834	-422.98189	-423.033227	36.832	
C	-0.4727978003	 1.1943612356	-0.0729102388	-0.231546
O	-0.137593778	-0.1710983987	 0.0348740101	-0.241852
C	 0.8348824031	-0.4540654709	 1.0363624606	-0.03982
C	 0.2220821908	-0.4761120704	 2.4466656153	-0.392477
C	 1.4552409336	-1.7388094144	 0.7102581707	 0.071656
C	 1.9831552129	-2.7914348744	 0.4612358899	 0.080543
C	 2.5855495805	-4.0892850675	 0.1970519651	-0.417701
C	 2.065578718	-5.176803105	 1.1405011772	 0.171632
O	 2.75347725	-6.0510783903	 1.5915910739	-0.230344
H	 0.4163214106	 1.8175722778	-0.2578556308	 0.106399
H	-1.14996441	 1.2869022155	-0.9252533891	 0.132004
H	-0.9847407295	 1.5805373517	 0.8204944656	 0.107888
H	 1.6177226362	 0.32358531	 1.00427294	 0.093333
H	 0.9886611859	-0.7142626096	 3.18899813	 0.128333
H	-0.2068114504	 0.497601398	 2.6983905438	 0.118786
H	-0.5645043298	-1.2329771369	 2.4972835242	 0.134136
H	 2.3388854462	-4.4145791273	-0.825554684	 0.159372
H	 3.6779415958	-4.0670092788	 0.2679066427	 0.154609
H	 0.9802670945	-5.1007346344	 1.3684679136	 0.095048
