20
gdb 70297	3.51129	1.29688	1.17434	2.7631	78.42	-0.2397	0.0827	0.3224	1129.9075	0.171712	-403.12603	-403.117978	-403.117034	-403.158226	32.141	
C	-0.006537175	 1.5070308379	-0.0167611504	-0.470324
C	-0.0457882614	 0.0025633148	 0.0620063836	 0.338341
C	-1.3306755033	-0.7271232929	-0.3230848898	-0.346959
C	-1.1394098	-2.1349095252	 0.2301523372	 0.3909
C	-2.055210196	-3.2494295042	-0.0133686503	-0.251963
O	-0.8248445488	-3.1565591295	-0.7369099067	-0.274286
C	-0.1993877827	-2.0386782949	 1.4290185211	-0.30422
C	 0.6372664501	-0.8082599996	 1.117418094	-0.058472
N	 1.2132611185	-0.7026915999	-0.2322120743	-0.38058
H	 0.9617332226	 1.8813568018	 0.3240711386	 0.129557
H	-0.1528558028	 1.8490506961	-1.0478374734	 0.119325
H	-0.793607565	 1.9557596846	 0.5999057706	 0.110313
H	-2.1907103208	-0.2359390497	 0.1508719928	 0.104362
H	-1.5133172015	-0.7523119633	-1.4024145616	 0.114675
H	-2.1152432649	-4.0675760125	 0.7039477265	 0.112506
H	-2.9574765098	-3.0894965727	-0.6031344816	 0.112506
H	-0.7631854559	-1.8834382507	 2.3579648481	 0.107015
H	 0.3852344047	-2.9574248646	 1.5390796378	 0.117551
H	 1.2260326979	-0.3540785134	 1.909548529	 0.084911
H	 1.0539898841	-1.554177402	-0.7671533612	 0.244842
