21
gdb 46052	4.10171	0.91111	0.78535	2.9362	82.77	-0.2333	-0.0117	0.2216	1469.5035	0.183082	-387.116508	-387.107911	-387.106967	-387.150348	33.027	
O	-0.168531707	-0.0114267281	-0.1939580081	-0.313312
C	-0.0885350423	 1.1777412422	-0.0260084687	 0.397958
C	-1.2646907528	 2.1294923004	 0.2320641333	-0.321711
C	-0.6665672374	 3.5378622266	 0.1104117677	-0.227594
C	 0.8083312138	 3.3731302151	 0.5578049105	 0.011463
C	 1.2011603743	 2.0042467869	-0.0288973218	-0.329546
C	 1.7087834996	 4.5166368926	 0.1565609254	 0.027329
C	 1.8013452664	 5.7595764806	 1.0064092305	-0.276714
C	 2.9732787292	 4.8127201248	 0.9239413778	-0.276022
H	-2.0977555395	 1.9134156353	-0.4411453131	 0.126714
H	-1.6214888392	 1.9347310854	 1.2523255893	 0.129676
H	-0.6908007449	 3.8681423825	-0.9359495178	 0.101639
H	-1.1971696945	 4.290973735	 0.6980763288	 0.104586
H	 0.8219576829	 3.2926504915	 1.6545369466	 0.069661
H	 2.0089178612	 1.4860449462	 0.492630395	 0.126075
H	 1.5157219383	 2.1143595975	-1.0769711468	 0.125414
H	 1.7615485258	 4.6748025582	-0.9192094859	 0.078254
H	 1.8782717659	 6.721198394	 0.5114333562	 0.112502
H	 1.2355624144	 5.783049852	 1.9324080062	 0.109995
H	 3.1915672053	 4.2022929818	 1.794364045	 0.110821
H	 3.8523406404	 5.1256864297	 0.37175696	 0.112811
