25
gdb 106370	3.17533	1.13489	1.04019	0.0901	92.35	-0.2821	0.0851	0.3672	1333.5163	0.230571	-352.363056	-352.353982	-352.353038	-352.396401	36.426	
C	-0.2031342082	 1.5529186677	 0.0231670614	-0.383766
C	 0.0439228139	 0.0395021782	-0.0229163477	-0.289469
C	 0.7555299131	-0.5135577717	 1.1966855133	 0.378318
C	 0.1196464751	-0.4870705429	 2.6262474726	-0.266473
C	 1.1519902473	-1.6164058903	 2.8958745084	-0.023734
C	 0.9027934408	-2.0502300051	 1.4246970748	-0.276467
C	 2.4880451413	-0.8421726253	 2.8094096966	 0.055057
C	 3.7489758255	-1.7036186173	 2.7732483763	-0.416073
C	 2.1954662597	-0.0323941003	 1.4993708702	-0.2723
H	 0.7353191011	 2.1146262425	 0.0668468047	 0.117547
H	-0.7475208412	 1.888097405	-0.8650623931	 0.110122
H	-0.7969636967	 1.8303757267	 0.9008353285	 0.117236
H	-0.9177415343	-0.47808689	-0.1359387497	 0.089023
H	 0.6281488038	-0.2079363764	-0.920376687	 0.091244
H	 0.2004054839	 0.4323395638	 3.215606714	 0.081978
H	-0.9137437562	-0.8447865962	 2.6268987053	 0.087938
H	 1.037431254	-2.3128551983	 3.7281867839	 0.051026
H	-0.04688312	-2.5777297055	 1.3004550764	 0.088878
H	 1.6939027673	-2.5814053819	 0.8866315739	 0.084291
H	 2.5644740638	-0.1590906138	 3.6638623155	 0.062656
H	 3.7292298205	-2.4205674817	 1.9455601098	 0.113498
H	 4.6435902166	-1.0836790181	 2.6483261012	 0.111325
H	 3.8665890608	-2.2717217451	 3.7029430321	 0.108924
H	 2.8868151984	-0.2921515657	 0.6893803664	 0.087842
H	 2.2556618499	 1.0488081518	 1.6537287122	 0.091378
