18
gdb 118387	3.11548	0.78793	0.65984	3.9266	78.24	-0.2728	0.0268	0.2996	1643.3646	0.145088	-401.923321	-401.912964	-401.91202	-401.959496	36.115	
O	-0.1244098235	 1.4796168528	 0.0981077508	-0.419787
C	 0.0272779168	 0.0750630109	-0.029383254	-0.089187
C	-1.3696372757	-0.53198559	 0.0177362107	-0.177527
C	-1.3705271579	-2.0738224745	-0.041969947	-0.177264
C	-2.8227673534	-2.6032378652	 0.1250670199	-0.350851
C	-2.89725752	-4.0579021896	 0.232915929	 0.268452
N	-2.9518366213	-5.2073125223	 0.335034064	-0.30238
C	-0.7752658641	-2.5788260559	-1.2774012162	 0.351845
C	-0.309547424	-2.9869673721	-2.3072628633	-0.469911
H	 0.7416277549	 1.8860221241	 0.0019946204	 0.289769
H	 0.5181215031	-0.1961211314	-0.9747674976	 0.107389
H	 0.6389402425	-0.3379698622	 0.7901952503	 0.087622
H	-1.8548522422	-0.2119494751	 0.9469218214	 0.111933
H	-1.959805021	-0.1285932262	-0.8125450388	 0.119317
H	-0.7843877371	-2.4534816473	 0.8055637947	 0.12763
H	-3.2635276152	-2.1645677111	 1.0269001062	 0.153738
H	-3.4310230143	-2.2782016456	-0.7255220535	 0.161777
H	 0.1095087123	-3.3620339994	-3.208427627	 0.207434
