20
gdb 64331	2.45247	1.49982	1.18428	5.1567	75.35	-0.2475	0.0606	0.308	1130.085	0.171384	-440.352073	-440.343063	-440.342118	-440.385541	34.398	
C	-0.0963005158	 1.5787337108	-0.0017939314	-0.415675
C	 0.0094144515	 0.0486802147	-0.0407750316	 0.353691
C	-1.3728191797	-0.5920456076	 0.0652383196	-0.414392
C	 0.7651190871	-0.4672373581	-1.2714787251	-0.228608
C	 2.2079577197	 0.0257364593	-1.2617060455	-0.173834
N	 2.7530135269	-0.1305352681	 0.0742618781	-0.355663
C	 2.0648084473	-0.3663221668	 1.2356062536	 0.45029
O	 2.6104917836	-0.5608780646	 2.2944173484	-0.396966
O	 0.7090238684	-0.3942279519	 1.1530000075	-0.278458
H	 0.8883918083	 2.0530793321	 0.0063391802	 0.129231
H	-0.6504807443	 1.9487546012	-0.8703218132	 0.115828
H	-0.6241723766	 1.8889181061	 0.903552317	 0.134382
H	-2.0019856035	-0.2886343674	-0.7770398274	 0.114614
H	-1.2916858399	-1.6823036502	 0.067597922	 0.125591
H	-1.8610627914	-0.2834933786	 0.9933368889	 0.13212
H	 0.7479852548	-1.5621965591	-1.2511130692	 0.116618
H	 0.2637860449	-0.1431152944	-2.1880381044	 0.109587
H	 2.8103584257	-0.5518537107	-1.9720690309	 0.114542
H	 2.255912946	 1.0757329444	-1.5836649492	 0.110495
H	 3.7509628471	-0.1191425211	 0.2065143628	 0.256605
