21
gdb 59133	4.06963	1.13622	1.03507	1.3838	83.08	-0.2141	0.0671	0.2812	1242.1526	0.182235	-383.150312	-383.141954	-383.14101	-383.183213	32.896	
C	 0.9277537618	-0.3464751681	-1.3462630059	-0.38747
C	 0.1157703506	 0.0403908877	-0.1073449434	 0.080552
C	-0.0110019103	 1.5607843533	 0.0197780778	-0.387288
N	-1.2288030235	-0.54403861	-0.2140799039	-0.127426
C	-2.0210171579	-0.6256349857	 1.0515634502	-0.039134
C	-2.8011827641	-1.8757318903	 0.5389053868	-0.032897
N	-2.5484973435	-2.7334365335	 1.7406811707	-0.350283
C	-1.3000858755	-1.9144327721	 1.6137363036	-0.047041
C	-1.336865149	-2.0125998941	 0.0462830698	-0.005944
H	 1.9268086145	 0.098714165	-1.3085484369	 0.109898
H	 1.0498690337	-1.4312655666	-1.424595444	 0.110908
H	 0.4239739062	 0.0035156272	-2.2528959807	 0.122797
H	 0.6477708397	-0.3375323866	 0.7859398245	 0.053725
H	-0.5415867833	 1.9697693883	-0.8459309057	 0.122882
H	-0.5646869726	 1.8443736389	 0.9203959706	 0.108275
H	 0.9769811136	 2.0280847639	 0.0760026232	 0.110106
H	-2.4026773839	 0.2442164222	 1.5903428245	 0.081299
H	-3.7117992042	-1.9052171932	-0.0583913847	 0.089995
H	-3.1064007869	-2.401269658	 2.5320991307	 0.207702
H	-0.4633814566	-2.014157946	 2.3053930353	 0.086756
H	-0.9157941788	-2.7861084525	-0.5951003425	 0.092589
