15
gdb 2235	4.96428	2.77247	2.16885	1.8071	61.24	-0.2417	0.0064	0.2481	647.8958	0.125258	-308.513516	-308.507357	-308.506413	-308.543051	24.013	
C	-0.0840925984	 1.5467242596	 0.0497900873	-0.492
C	 0.1288158988	 0.0611862079	-0.0117709847	 0.394318
O	-0.7247535378	-0.744283563	 0.8451750284	-0.298633
C	 0.688674461	-0.7853800786	 1.0605329048	-0.019549
C	 1.3857044465	-1.9819268233	 0.4240163488	-0.291174
C	 1.1210239772	-1.7771939785	-1.0552714452	-0.073348
C	 0.4534458248	-0.6466282472	-1.2945607362	-0.124286
H	 0.7799800124	 2.080616072	-0.3598627314	 0.12406
H	-0.9648657267	 1.8368397127	-0.533875352	 0.12803
H	-0.2408798357	 1.8695184196	 1.0817738027	 0.130839
H	 1.0263348388	-0.3886794621	 2.0151439084	 0.089432
H	 2.4595218335	-1.9856214302	 0.6520489955	 0.110639
H	 0.9782659249	-2.9320544943	 0.7905251115	 0.124889
H	 1.4192252906	-2.5024869158	-1.8040621579	 0.100175
H	 0.1478119901	-0.2780257389	-2.26662595	 0.096608
