19
gdb 116411	2.80513	1.33257	0.98055	1.6856	72.45	-0.2345	-0.0223	0.2122	1218.9135	0.159064	-460.170606	-460.161806	-460.160862	-460.204335	32.27	
C	-0.1054590853	 1.3687397979	-0.0012824921	-0.244365
O	 0.1554638406	-0.0235390325	 0.0506189122	-0.234012
C	 0.6433887353	-0.5755468832	-1.1364903349	 0.009963
C	 1.2547591091	-1.9514434983	-0.7814894871	-0.117814
O	 1.7457410768	-2.6154115418	-1.9255664139	-0.236107
C	 0.7203163352	-2.9170375505	-2.8517877925	-0.087692
C	 0.0603083612	-1.630691955	-3.3861643564	-0.303983
C	-0.4222160425	-0.7792301067	-2.2218469933	 0.355697
O	-1.5451238048	-0.3428648863	-2.1326820571	-0.305752
H	 0.7966369906	 1.9298212795	-0.2914817822	 0.100202
H	-0.9170428329	 1.6014823292	-0.6973890003	 0.138842
H	-0.3963195657	 1.6705560033	 1.007461288	 0.128649
H	 1.4467576638	 0.0452790313	-1.5738052574	 0.08573
H	 2.0957262258	-1.8112182013	-0.0992834098	 0.124254
H	 0.4873959987	-2.5507695215	-0.2663997722	 0.110705
H	 1.1875121333	-3.4801246834	-3.6636276797	 0.119294
H	-0.04255871	-3.5603500665	-2.3839241548	 0.104691
H	 0.8120462732	-1.0668264321	-3.9522933476	 0.127482
H	-0.7837821622	-1.8500820321	-4.0450270589	 0.124216
