17
gdb 20219	3.37327	3.0231	2.11099	1.2522	69.42	-0.211	0.0732	0.2842	702.3975	0.145468	-326.652341	-326.646525	-326.645581	-326.682405	24.019	
C	-0.0336570246	 1.5415035617	-0.1652930268	-0.247091
C	 1.3101021912	 2.2409349873	 0.1457106832	-0.1454
N	 2.3948926178	 1.3585413594	 0.5741349279	-0.092975
C	 2.1917118408	 0.2170207711	 1.4394696103	-0.065031
C	 0.8715714779	-0.5742837794	 1.1593708979	-0.095642
C	 0.0669186517	 0.0465111014	 0.0476736659	-0.045192
C	 1.2990910166	-0.7518132687	-0.2887038007	-0.095638
C	 2.6124521751	 0.0423282512	 0.0143097219	-0.065036
H	-0.8302397565	 1.9423489495	 0.471473334	 0.099978
H	-0.3367645053	 1.7374512602	-1.1999053327	 0.099978
H	 1.6777055135	 2.7803317713	-0.7330129503	 0.106892
H	 1.1842219951	 2.9852012108	 0.9384644305	 0.106892
H	 2.7616046158	 0.1414705609	 2.3589179804	 0.090605
H	 0.4729307144	-1.3180022454	 1.8367679299	 0.084711
H	-0.853029197	-0.4963280545	-0.1573798888	 0.087631
H	 1.277561132	-1.652124793	-0.8885989867	 0.084712
H	 3.5798077716	-0.1982508238	-0.4125576958	 0.090605
