18
gdb 35028	3.20472	1.47107	1.43662	3.9446	79.01	-0.2564	-0.0055	0.2509	982.2403	0.151279	-364.840824	-364.833859	-364.832915	-364.871986	28.393	
N	-0.0564233836	-1.1641901012	-0.0968994012	-0.338966
C	-0.0253037953	-0.0099556783	-0.0324608519	 0.271608
C	 0.0112642543	 1.446226739	 0.0454695889	-0.145507
C	-0.3360853969	 2.0542017151	 1.4397904916	-0.066766
C	 0.8255390091	 1.4789778447	 2.3171839122	-0.213341
C	 2.0444422722	 1.500354023	 1.3446925176	-0.213343
C	 1.4345110544	 2.0853338491	 0.0271829341	-0.066771
C	 1.0562708871	 3.5261606052	 0.329740175	-0.086163
C	 0.011768814	 3.5077953095	 1.1629586532	-0.086167
H	-0.6236079799	 1.8615366746	-0.7411434544	 0.121013
H	-1.3375708854	 1.8531510761	 1.8182400175	 0.08036
H	 0.9813081168	 2.0853663157	 3.211382244	 0.104761
H	 0.5948299472	 0.4595985926	 2.6373687287	 0.122989
H	 2.8686062445	 2.1184366793	 1.705647586	 0.104759
H	 2.4295807443	 0.4917740289	 1.1734737124	 0.122992
H	 2.0299570415	 1.9123782862	-0.8684446233	 0.08036
H	 1.6253619515	 4.385777935	-0.0002294615	 0.104092
H	-0.4546815958	 4.3492020553	 1.659088651	 0.104088
