18
gdb 12679	2.6208	2.19791	1.44223	1.9277	67.09	-0.2417	-0.0226	0.2191	915.1258	0.152926	-384.970477	-384.962324	-384.961379	-385.002895	30.292	
C	 0.5184125843	 1.3548734876	-0.4508226531	-0.400285
C	-0.0822479855	 0.0878967063	 0.1575124855	 0.093943
O	-0.1642216464	-0.9668470076	-0.8225222646	-0.264533
C	 1.0486233526	-1.6938893416	-0.8216106207	-0.183791
C	 1.6811979251	-1.464092605	 0.5513434096	 0.361132
O	 2.7259812463	-1.9125669189	 0.9439471227	-0.310006
C	 0.7321105334	-0.5347178789	 1.3104612017	-0.102372
C	 1.4355125032	 0.3761516494	 2.3106513084	-0.412602
H	 1.566793517	 1.2142481277	-0.7367334338	 0.120046
H	-0.0442564196	 1.6296932113	-1.3467763452	 0.13004
H	 0.4719786431	 2.1894854564	 0.2551492995	 0.122126
H	-1.1147151156	 0.2876222574	 0.4587373695	 0.088684
H	 0.8415250198	-2.7557609053	-0.9930432156	 0.136356
H	 1.7468563274	-1.3570014571	-1.6037686486	 0.122443
H	 0.0518813133	-1.2113679425	 1.849650023	 0.11405
H	 2.0985723162	 1.0862303696	 1.809237078	 0.126761
H	 0.7169477718	 0.9429232142	 2.9098957923	 0.11694
H	 2.0497837237	-0.227569753	 2.9838722514	 0.141069
