20
gdb 100570	2.36238	1.01782	0.83884	2.1458	79.81	-0.2637	-0.0365	0.2272	1455.8298	0.168083	-403.189948	-403.179244	-403.1783	-403.227289	37.052	
C	-0.8393790255	 1.5898289711	-0.2456070362	-0.399722
C	-0.3121375542	 0.2197748824	 0.1885331727	-0.170266
C	-1.2737271358	-0.9462207937	-0.1134235019	-0.074175
C	-1.5095411836	-1.1578854751	-1.6266572638	-0.406281
C	-0.7171122342	-2.2439683342	 0.4553583705	 0.38944
O	 0.453427722	-2.5286137634	 0.4291702142	-0.299645
C	-1.69966392	-3.2345319351	 1.1355251136	-0.435949
C	-3.0298630633	-3.3123841236	 0.5466371933	 0.269805
N	-4.0796804522	-3.3669077899	 0.0658440645	-0.31309
H	-0.1441462921	 2.3793255367	 0.0551569494	 0.120078
H	-0.9618454336	 1.6586092722	-1.330427194	 0.123736
H	-1.8094285691	 1.8097360091	 0.2144519598	 0.116999
H	 0.6499234313	 0.0097551103	-0.2899105696	 0.121463
H	-0.1131054776	 0.2371181488	 1.2671136813	 0.097743
H	-2.2456894274	-0.7496218112	 0.3566548799	 0.093424
H	-0.5594129592	-1.3533463885	-2.1332882101	 0.134431
H	-2.1834148869	-1.9976805387	-1.8153717411	 0.144444
H	-1.9636626075	-0.2682276304	-2.0689092425	 0.131136
H	-1.227194923	-4.2198827489	 1.1495414502	 0.178428
H	-1.7991846681	-2.908308658	 2.1798152397	 0.177999
