21
gdb 79578	2.096	1.6457	1.46426	1.9603	81.87	-0.2391	0.0849	0.324	1083.3893	0.180614	-387.049166	-387.039974	-387.03903	-387.082291	35.444	
C	-0.060828342	 1.5582312785	-0.0635267827	-0.421582
C	 0.0816708245	 0.0525857877	 0.0433267774	-0.060498
C	 1.3597165776	-0.7216371729	-0.1972599121	-0.158762
C	 2.5477626436	-0.017643547	 0.4121902989	-0.053184
O	 3.0566722308	-0.8161854137	 1.497509385	-0.299953
C	 1.9061614942	 0.016970085	 1.7423290788	 0.351544
C	 1.9878122234	 0.9888262637	 2.8768153573	-0.509182
C	 0.6831670967	-0.7174019179	 1.1982044969	 0.268826
C	-0.0020226137	-1.8505877208	 1.9094644272	-0.503187
H	 0.8145469056	 2.0855320905	 0.3214289686	 0.122728
H	-0.1951486469	 1.8572022634	-1.1090699873	 0.117284
H	-0.9364963462	 1.9079808668	 0.4947818578	 0.11578
H	-0.7808184016	-0.4741696448	-0.3666696014	 0.084907
H	 1.4130414181	-1.5546795036	-0.8887683045	 0.09199
H	 3.2405415033	 0.6844625731	-0.0378801783	 0.098274
H	 2.9655086232	 1.4774844124	 2.8920181295	 0.132956
H	 1.2097910397	 1.7542367946	 2.7957400024	 0.125339
H	 1.8531246769	 0.4757857634	 3.836020528	 0.129346
H	-0.614195611	-1.4899380037	 2.7450684375	 0.117063
H	-0.663638787	-2.4019137886	 1.233468389	 0.117106
H	 0.7350859107	-2.5547511163	 2.3093524119	 0.133205
