18
gdb 32567	2.0451	1.83694	1.04993	4.5173	74.49	-0.1743	0.0583	0.2326	1142.5939	0.148545	-435.324129	-435.314781	-435.313837	-435.358389	34.157	
C	 0.1264231714	 1.5947298591	 0.0657532262	-0.379774
C	-0.0337255703	 0.0792465176	-0.0775936802	-0.153551
N	 0.6913027299	-0.4714671742	-1.209321278	-0.127271
C	 0.055934098	-0.7685749872	-2.4195775097	 0.459892
O	-1.1358040902	-0.6873896046	-2.6645608367	-0.453542
N	 1.085949357	-1.1648065437	-3.2452917203	-0.365915
C	 2.3187742767	-1.1223968401	-2.575348047	-0.173348
C	 2.0663319742	-0.6843666521	-1.3218640428	 0.278469
N	 2.9188128996	-0.3636810779	-0.2558477441	-0.6015
H	 1.1751980573	 1.8624342447	 0.216716788	 0.135834
H	-0.2398656211	 2.102016612	-0.8311728405	 0.135056
H	-0.4517050061	 1.9541088933	 0.9231485712	 0.113361
H	 0.2872035583	-0.4288014479	 0.8389814921	 0.097513
H	-1.0809209525	-0.1812726591	-0.2515475069	 0.147659
H	 0.9302219908	-1.4231807792	-4.2023629542	 0.263816
H	 3.2439337935	-1.4049565163	-3.0451007197	 0.124178
H	 3.8887632468	-0.4884232165	-0.5180530337	 0.249776
H	 2.7369906667	-0.9234810079	 0.5721684766	 0.24935
