16
gdb 48806	2.25753	1.52713	1.12949	2.6208	76.19	-0.252	-0.0396	0.2124	1103.5433	0.122659	-400.674346	-400.666064	-400.66512	-400.707444	30.838	
O	-0.1368955101	 0.0141755483	 0.0255388708	-0.256899
C	-0.0180435391	 1.2035677819	-0.1391296819	 0.076508
C	 1.2455824673	 1.9368827387	 0.0631835595	 0.244752
C	 1.3148452933	 3.393852404	 0.3410062567	-0.280225
N	 1.7318121189	 2.957504271	-0.9868235081	-0.160976
C	 3.1129151683	 2.3771269702	-0.8216549661	-0.169751
C	 2.6269974796	 1.2782361061	 0.1799096548	-0.261104
C	 3.2458366351	 1.2016891687	 1.488499062	 0.316868
C	 3.7731350715	 1.1699301677	 2.5686347685	-0.454987
H	-0.8640669433	 1.8413330341	-0.4793842674	 0.083385
H	 0.3804448898	 3.9473755046	 0.3351650183	 0.135041
H	 2.055900359	 3.74292539	 1.0571458929	 0.137794
H	 3.4653585542	 1.9739256798	-1.7711829025	 0.128819
H	 3.8380326363	 3.0943880355	-0.4286737916	 0.12365
H	 2.6092803629	 0.2931906878	-0.2925423051	 0.134673
H	 4.2329322264	 1.1247160014	 3.5249105689	 0.202453
