17
gdb 55110	4.57151	0.96142	0.8609	3.9994	70.46	-0.243	0.0469	0.29	1319.2452	0.135964	-455.139031	-455.13057	-455.129626	-455.17256	31.419	
N	-0.110566232	 1.3224546362	 0.1389254793	-0.555952
C	-0.0320806765	-0.0624130092	 0.1380293915	 0.41791
O	 1.0170859117	-0.6744691472	 0.0730102297	-0.388457
N	-1.2566808658	-0.6946372131	 0.1950536814	-0.124315
C	-2.5404302853	-0.236149112	-0.3774569593	-0.276194
C	-2.8565875966	-1.7116465416	-0.6588105653	 0.422452
C	-4.1166147546	-2.441912917	-0.5653823568	-0.259707
O	-3.4829368088	-2.1734769986	-1.8298612849	-0.254502
C	-1.4375894823	-2.0968949551	-0.2205601926	-0.250026
H	 0.7760767022	 1.7653195941	 0.3261887859	 0.262224
H	-0.8978985568	 1.7511183294	 0.6011915171	 0.253206
H	-3.2000448087	 0.2810303212	 0.32874828	 0.112605
H	-2.4304074046	 0.3667074631	-1.2868530095	 0.133712
H	-4.1155192331	-3.4864145043	-0.2572514328	 0.125328
H	-5.0459399123	-1.9025824266	-0.3871962942	 0.121514
H	-0.7795141986	-2.3898866356	-1.0453991978	 0.138456
H	-1.349134098	-2.824706014	 0.5911968484	 0.121746
