25
gdb 112703	2.71918	0.99388	0.8228	1.189	88.58	-0.2612	0.0772	0.3384	1521.0132	0.229399	-389.509945	-389.49972	-389.498776	-389.545492	38.864	
C	 0.4730953332	 1.6023157622	-0.2493145559	-0.395233
C	 0.0821916853	 0.1393354318	-0.0000392468	 0.022573
C	 0.5023902335	-0.7749446183	-1.1935134845	-0.252688
C	 1.5386528456	-1.790629435	-0.645516408	 0.052032
C	 2.6312960053	-2.1306543692	-1.6462379152	-0.102614
O	 3.4869080303	-3.1026866436	-1.060598769	-0.424981
C	 2.0362516019	-1.1539819864	 0.6615208055	-0.205312
C	 0.7702800988	-0.505704933	 1.2420942416	 0.039891
C	 1.0061960291	 0.4087591391	 2.443666203	-0.418782
H	 1.5569738194	 1.7175608248	-0.3663608945	 0.111559
H	 0.0057157627	 1.9685860571	-1.1697028532	 0.108876
H	 0.1535715231	 2.2574475809	 0.5668548176	 0.111554
H	-1.0050000977	 0.1084787257	 0.1336032481	 0.062132
H	-0.3544562096	-1.2833121488	-1.6449999201	 0.0954
H	 0.9523978294	-0.1665142359	-1.9880807081	 0.089156
H	 1.0275086922	-2.7284676372	-0.392887116	 0.075882
H	 2.1798540201	-2.5095963256	-2.5780953505	 0.081027
H	 3.1887604314	-1.2134009421	-1.9029801121	 0.078357
H	 4.1815168767	-3.3120763513	-1.6915589988	 0.284813
H	 2.5016271871	-1.8772005103	 1.3357139293	 0.102629
H	 2.7905970707	-0.3838979076	 0.4438712754	 0.085144
H	 0.1167090018	-1.3255569506	 1.5734647297	 0.066619
H	 1.6974362448	 1.2236397934	 2.2055099582	 0.113804
H	 0.0716000191	 0.8571028641	 2.7991556244	 0.108338
H	 1.4385467058	-0.154925604	 3.2772119998	 0.109826
