18
gdb 81477	3.51683	1.58471	1.51238	3.078	69.51	-0.2238	0.0528	0.2766	925.8884	0.151374	-439.003551	-438.997317	-438.996373	-439.033738	27.386	
O	 0.1540231415	 1.3423893521	-0.1124490633	-0.466379
C	 0.0816519834	-0.0507840533	-0.0585122711	 0.225175
C	 0.131301832	-0.6478169647	 1.3950887491	-0.083239
N	-1.2907548067	-0.1818179161	 1.466880925	-0.343182
C	-1.3800259928	-0.6218664823	 0.0375664316	-0.08324
C	-1.268254095	-2.192399966	-0.0778457466	 0.074061
C	-1.2158732585	-2.8250900029	 1.3329898086	-0.243768
C	 0.2042598079	-2.2176825241	 1.2448110245	 0.074061
O	 0.1582577718	-2.5156362452	-0.1909156897	-0.288208
H	-0.4538600647	 1.6594451565	 0.5703654704	 0.284703
H	 0.7498678463	-0.4536657288	-0.8101379502	 0.110528
H	 0.8108454528	-0.2305584319	 2.1419924895	 0.073247
H	-1.8917755825	-0.6655606711	 2.1267491915	 0.213559
H	-2.1871304596	-0.1790829943	-0.5508845437	 0.073247
H	-1.8639042828	-2.6325510099	-0.8793941832	 0.083385
H	-1.9168797311	-2.539316634	 2.1188826995	 0.092016
H	-1.1663282472	-3.9111428068	 1.2570731308	 0.120649
H	 1.0562972951	-2.6826908971	 1.7436210471	 0.083385
