14
gdb 79562	2.67067	1.70514	1.23981	5.7615	66.17	-0.2714	-0.0006	0.2708	971.8073	0.100376	-436.622624	-436.615267	-436.614323	-436.654471	28.034	
O	-0.075058705	 1.3813071999	-0.0468816081	-0.413142
C	-0.0508902567	-0.0069293758	 0.049710284	 0.10386
C	-0.4645522869	-0.7609606604	 1.2918387522	-0.164888
C	-1.581530575	-0.034914702	 2.0013652316	-0.042852
O	-2.7851398047	-0.8023796487	 1.9218792834	-0.273285
C	-2.4090324259	-0.0294023999	 0.7699558313	 0.33129
C	-3.3339332671	 0.9516847626	 0.2918132301	 0.239185
N	-4.0819464764	 1.7294403405	-0.1224343544	-0.344835
C	-1.3375436821	-0.7617381766	-0.0078490605	-0.208145
H	 0.7196822079	 1.7313694655	 0.3701123585	 0.294433
H	 0.7601438664	-0.4895992754	-0.4988629904	 0.107027
H	 0.1060892885	-1.5860638546	 1.6994519478	 0.116271
H	-1.5296184905	 0.7206600107	 2.7747409308	 0.133179
H	-1.5213151925	-1.5773214358	-0.6950033362	 0.121903
