21
gdb 120466	3.43229	0.82351	0.72621	1.889	80.85	-0.2382	-0.0179	0.2203	1636.4186	0.180085	-424.228145	-424.217911	-424.216967	-424.26441	35.921	
C	 0.6519437074	 1.5030423876	 0.1415117483	-0.227424
O	 0.8065146692	 0.1038241345	 0.1722459755	-0.236805
C	-0.1961441307	-0.5405122074	 0.9281071761	-0.064824
C	 0.0699003437	-2.0319689739	 0.9097521365	-0.122258
C	 1.2465093674	-2.6337112652	 1.7393149624	-0.258728
C	 0.3090701929	-3.765723377	 2.2751008029	-0.085597
C	 0.3054755264	-4.1452732277	 3.7491717085	-0.406062
C	-0.8651767537	-2.927982427	 1.7417588756	 0.373451
O	-2.033442568	-2.8788149741	 2.0049487886	-0.309059
H	 0.7044018312	 1.9427041365	 1.1503272132	 0.104384
H	 1.4663863792	 1.9091680443	-0.4631972825	 0.127587
H	-0.3085033128	 1.7983007375	-0.3098126102	 0.106115
H	-0.1978564282	-0.1656174149	 1.9666511673	 0.0857
H	-1.1964187953	-0.3364941364	 0.5115304958	 0.103717
H	 0.1016790255	-2.3802303017	-0.1296315177	 0.110226
H	 2.1259773294	-2.9495268976	 1.178195678	 0.111282
H	 1.5597317187	-1.9563777957	 2.5392121112	 0.11014
H	 0.4094841661	-4.6628814886	 1.6499728949	 0.103169
H	 0.2158346002	-3.2569968385	 4.3829758675	 0.119993
H	-0.5403454902	-4.8015435341	 3.9746237189	 0.135054
H	 1.2267761518	-4.6672658907	 4.0260343791	 0.119941
