18
gdb 53260	3.92433	0.80104	0.74008	2.7528	86.13	-0.2443	-0.0414	0.2029	1577.1336	0.144599	-401.917117	-401.90691	-401.905966	-401.953637	35.166	
C	 0.2100348663	 1.4189217394	-0.0182110617	-0.502588
C	 0.071382231	-0.0286344347	 0.0229452731	 0.159464
C	-0.0362452675	-1.2279236708	 0.0690844192	 0.095435
C	-0.149087083	-2.657278312	 0.0860990833	-0.304497
N	-0.7081428609	-3.3108103967	 1.2764206125	-0.34946
C	-1.5098855944	-3.3500933053	 0.0510353451	 0.227733
C	-2.7979941349	-2.5647559285	 0.0230100661	-0.471656
C	-1.4819003329	-4.6422368821	-0.6987162252	 0.100864
O	-0.6699388365	-5.5142277028	-0.4894848654	-0.275079
H	 1.2617145483	 1.7126250695	-0.1063888818	 0.154089
H	-0.3271076605	 1.8472220384	-0.8717164406	 0.151076
H	-0.1886996226	 1.8797984025	 0.8919847857	 0.155184
H	 0.6408010585	-3.1959889782	-0.433219767	 0.124593
H	-0.2578350245	-4.223096792	 1.3727371482	 0.248728
H	-2.6450690429	-1.5683879155	 0.4399722887	 0.148076
H	-3.1627429657	-2.4551212255	-1.0042470467	 0.121346
H	-3.5725359752	-3.0691792034	 0.6098338506	 0.13016
H	-2.2655948528	-4.7582522024	-1.4772382641	 0.086532
