23
gdb 84865	2.22703	1.49505	1.11611	0.2101	92.84	-0.2314	0.0231	0.2545	1231.4546	0.206492	-351.168688	-351.159342	-351.158398	-351.202972	36.13	
C	-0.3475190806	 1.3505841249	-0.135829741	-0.414977
C	 0.2334835631	-0.0705500505	-0.0941414535	-0.036586
C	 1.1794934313	-0.2960029717	-1.253460175	-0.03874
C	 1.7851864038	-1.4367074116	-1.5760450128	-0.069665
C	 1.6896581403	-2.7669235785	-0.8765570175	-0.312696
C	 1.4307189204	-2.8275990384	 0.606545026	-0.039446
C	 1.1152063276	-1.8779510634	 1.4877499985	-0.080557
C	 0.8619507494	-0.4021141044	 1.2856641873	-0.008524
C	 2.1307179207	 0.4153987234	 1.6022880864	-0.391446
H	 0.436994893	 2.1115033643	-0.0637786688	 0.1184
H	-0.8823685772	 1.520942901	-1.0758846675	 0.113269
H	-1.0525787482	 1.5150437375	 0.685314153	 0.108509
H	-0.6083292479	-0.7676581525	-0.2083695306	 0.085594
H	 1.3619027743	 0.5682157424	-1.8902980438	 0.076534
H	 2.4102219147	-1.444443493	-2.4671759879	 0.083618
H	 0.9326287977	-3.3854435808	-1.3906929969	 0.121647
H	 2.6270643155	-3.3128008705	-1.0575391865	 0.114328
H	 1.5478987955	-3.8358520388	 1.0033810998	 0.080901
H	 1.0299531514	-2.1970684534	 2.5262116495	 0.078392
H	 0.1080600413	-0.1194983076	 2.0352072727	 0.06833
H	 2.9113465873	 0.2177068099	 0.8624916752	 0.124024
H	 1.9251042667	 1.4905037204	 1.6116896323	 0.109054
H	 2.5257133297	 0.1455578215	 2.5867931513	 0.110035
