17
gdb 37149	3.99667	1.90355	1.65456	1.5338	74.35	-0.2175	0.0546	0.272	836.1137	0.138729	-380.697245	-380.691571	-380.690626	-380.726804	25.39	
C	-0.0277713965	 1.5134250111	-0.1281471269	-0.295997
C	 1.2996775435	 0.811834186	 0.0184168702	 0.011198
C	-0.0127952136	 0.0025437898	-0.0453906255	-0.210613
C	 0.3540477626	-0.7068634695	-1.3294533437	 0.336539
N	 0.0248851882	-1.6292705289	-2.4801316544	-0.430797
C	 1.4506121962	-1.1285757551	-2.7538325817	-0.096331
C	 1.8727599542	-1.0578878294	-1.2696746941	-0.027852
N	 2.1328516739	 0.4453265241	-1.182471235	-0.186686
C	 1.0841158089	 0.2813306248	-2.2602290794	-0.006882
H	-0.3778994614	 2.0487915527	 0.7495443973	 0.11506
H	-0.3005425036	 1.9923743657	-1.0612157601	 0.122545
H	 1.8598053269	 0.9175462455	 0.9392685189	 0.098442
H	-0.3991493874	-0.5283711454	 0.815047906	 0.097794
H	 0.0555388298	-2.605084492	-2.1694755387	 0.209764
H	 1.9996138831	-1.437806761	-3.6416125195	 0.091449
H	 2.3795310723	-1.7912318985	-0.6400260329	 0.080015
H	 0.667074393	 1.1023759901	-2.8392100604	 0.092352
