16
gdb 98958	4.14038	0.853	0.71045	0.8051	71.3	-0.2532	-0.092	0.1613	1507.5429	0.123646	-471.259914	-471.25037	-471.249426	-471.295478	32.628	
C	-0.5342012539	 1.3507878294	-0.5374387152	-0.333645
N	-1.063831426	 0.0111219881	-0.3832790536	-0.337611
C	-0.9844202556	-0.6445186802	 0.7926009392	 0.484688
O	-0.4909139306	-0.2373850833	 1.8276077801	-0.409796
N	-1.549799777	-1.9515758762	 0.7837984288	-0.407983
C	-2.1608707841	-2.653130076	-0.2211863832	 0.331275
N	-2.3388713208	-2.2174160872	-1.4098605013	-0.527935
C	-2.6267886996	-4.0365545889	 0.2008581627	 0.108243
O	-3.1815024847	-4.7788797534	-0.5623877855	-0.225025
H	 0.2488000689	 1.3785464491	-1.3032353464	 0.129237
H	-1.3234989384	 2.0553146387	-0.8218921917	 0.129241
H	-0.1088060916	 1.6596165802	 0.4176472002	 0.168262
H	-1.5103589613	-0.4729527609	-1.1579015328	 0.283636
H	-1.4595757649	-2.3882597715	 1.6894074977	 0.261702
H	-2.8161583995	-2.9364525044	-1.9553476294	 0.246467
H	-2.4248778809	-4.3222881835	 1.2564109805	 0.099245
