19
gdb 124582	4.11197	0.97841	0.89217	3.0184	77.1	-0.2867	-0.0222	0.2645	1357.4399	0.160165	-415.386431	-415.377548	-415.376604	-415.421264	31.761	
C	-0.0941402791	 1.5638297825	 0.0998278523	-0.385742
C	-0.0220955959	 0.0355620185	 0.004124971	 0.020868
C	-1.4212742453	-0.5937625497	 0.0074309559	-0.392049
C	 0.7360305347	-0.4339839998	-1.2506164374	-0.14083
N	 2.144126921	-0.054960318	-1.251331983	 0.142014
N	 2.6148052673	 1.0473192789	-1.8249845121	-0.241847
C	 3.9054969678	 0.9655518488	-1.5232226664	 0.071191
N	 4.2054897518	-0.1352688973	-0.8002323322	-0.208184
N	 3.0726228666	-0.7746165929	-0.6342708144	-0.128783
H	 0.8983753245	 2.0211155094	 0.0884578366	 0.133938
H	-0.6614688533	 1.9812870245	-0.7403189809	 0.117402
H	-0.5956251726	 1.8652977859	 1.0245554772	 0.11799
H	 0.5325906467	-0.3470888274	 0.8702564477	 0.103181
H	-2.0051930476	-0.2638378329	-0.8600245691	 0.118816
H	-1.3731186034	-1.6874201153	-0.015387106	 0.119093
H	-1.9719927293	-0.3009238631	 0.905986449	 0.123433
H	 0.7119553928	-1.5235259675	-1.3239425999	 0.142513
H	 0.2994331671	-0.0078981625	-2.157174653	 0.140404
H	 4.6323804561	 1.6989909979	-1.8320140254	 0.146593
