27
gdb 115379	3.04046	0.94826	0.84711	0.0766	95.57	-0.2826	0.0784	0.361	1559.3178	0.254029	-353.594272	-353.584309	-353.583364	-353.628779	39.067	
C	 0.0967821599	 1.6284114927	 0.1359714088	-0.391061
C	 0.0248111808	 0.0993107757	 0.0656717006	-0.181097
C	-1.3970449833	-0.4813932937	-0.0020619957	 0.065162
C	-2.1450519497	-0.0959464098	-1.2915261906	-0.191369
C	-3.5542951869	-0.7067090469	-1.3466579405	-0.211668
C	-3.5583647646	-2.2402594056	-1.1824082401	 0.045283
C	-3.0334700347	-2.9670427698	-2.4305214215	-0.389484
C	-2.784105415	-2.6247024464	 0.0952853349	-0.215216
C	-1.3763756159	-2.0125560287	 0.15056995	-0.197297
H	 1.1322369177	 1.9663904777	 0.2451227289	 0.109684
H	-0.3076385701	 2.1009142914	-0.7644625905	 0.117701
H	-0.468373756	 2.0113480378	 0.9934978576	 0.111423
H	 0.5973775034	-0.2550865095	-0.8029624003	 0.089177
H	 0.5277974952	-0.3193921854	 0.9474146473	 0.08775
H	-1.9669987654	-0.0714433351	 0.8479278885	 0.059792
H	-2.2215884657	 0.9932699183	-1.3777820669	 0.089413
H	-1.5560106423	-0.4294096215	-2.1574473934	 0.090477
H	-4.1575486474	-0.2661134372	-0.5411935518	 0.086929
H	-4.0462873187	-0.429207546	-2.2868498125	 0.083816
H	-4.6010970664	-2.5557406992	-1.0458059186	 0.061567
H	-1.9922201655	-2.7158439028	-2.6546926158	 0.115567
H	-3.087043165	-4.0533906995	-2.3004173143	 0.108225
H	-3.6293367633	-2.7073161418	-3.3122626299	 0.10821
H	-3.3525358718	-2.2754048725	 0.9681299115	 0.086535
H	-2.7241781656	-3.7163329738	 0.1834357332	 0.08403
H	-0.7483257412	-2.4419068458	-0.6423111123	 0.091288
H	-0.8940324324	-2.2837979027	 1.0977157931	 0.085164
