17
gdb 67030	2.19642	2.14486	1.64603	2.0729	72.41	-0.2266	0.0026	0.2292	908.7962	0.134876	-421.78261	-421.774988	-421.774044	-421.814012	30.915	
C	 0.0502543951	 1.5231389893	-0.110706819	-0.492448
C	-0.0236619633	 0.0389402975	 0.1009295775	 0.308479
O	 0.3280817339	-0.7132057802	-1.1591269017	-0.313888
C	-0.7990433683	-1.5157714213	-0.9862769505	 0.043009
C	-0.9094553281	-2.0698153691	 0.5297629233	-0.230982
C	 0.2914970098	-1.8737925377	 1.3629218184	-0.065075
C	 0.7811051182	-0.6360987802	 1.1734678027	-0.151684
C	-1.4165666112	-0.7218695247	 0.0864176394	 0.267265
O	-2.6776230938	-0.1959471469	 0.2192761021	-0.456754
H	 1.0723624181	 1.8198907719	-0.3663330761	 0.13156
H	-0.6154754625	 1.8343105119	-0.9191703554	 0.136494
H	-0.2407954684	 2.0493491047	 0.8043734106	 0.121737
H	-1.1612413766	-2.103964725	-1.8198747207	 0.11997
H	-1.6049879794	-2.8912693138	 0.6551996404	 0.090114
H	 0.7445330779	-2.6553425018	 1.9609770038	 0.102732
H	 1.6929955165	-0.2262179801	 1.5885223939	 0.098515
H	-2.9131362678	-0.2023497444	 1.1547880512	 0.290955
