20
gdb 12784	3.39154	1.61227	1.35044	1.008	75.75	-0.24	0.0861	0.3261	1019.2529	0.176246	-348.971847	-348.963382	-348.962438	-349.00453	31.711	
C	-0.2238971272	 1.3262610916	 0.0920918465	-0.234861
O	 0.3324469163	 0.0509086728	-0.1287003627	-0.245476
C	 0.7766497947	-0.5742223897	 1.0498880487	 0.084045
C	-0.2827413423	-1.2053724775	 2.0233246472	-0.26828
C	 0.3991060113	-2.55990439	 1.8120584067	-0.096483
C	 0.3585037648	-2.9089097486	 0.3506721621	-0.317821
C	 1.4108591539	-1.9449646487	 0.8303360453	 0.340931
C	 2.884492263	-2.1762158493	 0.6538883702	-0.505121
H	 0.5029581431	 2.0128259869	 0.5553734389	 0.101254
H	-0.517041597	 1.7284436649	-0.8808471626	 0.125094
H	-1.1134248248	 1.2837342678	 0.7388833588	 0.106176
H	 1.4546650621	 0.0982535755	 1.5989768238	 0.059753
H	-0.208577075	-0.8143523218	 3.0405821391	 0.098101
H	-1.3249149774	-1.146027643	 1.6919159449	 0.096759
H	 0.5773408934	-3.3031908164	 2.5798382144	 0.082631
H	 0.7363888977	-3.8935172012	 0.0926226148	 0.105077
H	-0.4625951871	-2.5658877662	-0.2730716398	 0.113738
H	 3.2229613064	-1.8315080193	-0.3304473662	 0.126813
H	 3.4688047321	-1.6417701989	 1.4121536519	 0.112036
H	 3.1302307921	-3.240382629	 0.732726578	 0.115635
