15
gdb 60746	2.63272	1.20984	1.0139	3.743	63.6	-0.2589	-0.063	0.1959	1178.4801	0.10918	-494.883784	-494.874896	-494.873952	-494.918202	31.09	
O	 0.5334358774	 1.4158675493	 0.6356623581	-0.408835
C	 0.3944852749	 0.0463571234	 0.4746108256	-0.049988
C	-0.142321535	-0.2899790902	-0.9154506915	 0.124516
O	-0.2699341777	 0.5780912264	-1.7427627737	-0.250394
C	 1.7492953457	-0.6906750517	 0.6680297636	 0.320335
O	 2.8020725488	-0.1248750111	 0.5341839825	-0.280609
C	 1.6929382335	-2.1530027149	 1.0121479714	-0.027062
C	 0.9044885264	-2.6345477673	 2.1645603769	-0.172096
O	 0.4351173003	-2.81687405	 0.8349671146	-0.220736
H	 0.4339205387	 1.799513293	-0.2502481523	 0.301223
H	-0.3272337722	-0.3648207336	 1.1972851569	 0.119147
H	-0.3940038011	-1.3469141785	-1.1099099099	 0.131808
H	 2.5747112807	-2.7172695524	 0.7147936442	 0.133094
H	 1.2347008926	-3.5373133064	 2.6739595751	 0.14248
H	 0.3450831671	-1.9271823259	 2.7739250784	 0.137118
