23
gdb 103376	2.89811	1.43536	1.27795	1.0347	84.84	-0.2434	0.0833	0.3266	1129.9682	0.206835	-388.272718	-388.264009	-388.263065	-388.305613	34.823	
C	-0.1811537857	 1.3355017304	 0.0202599328	-0.251556
O	 0.2050240253	-0.0208463826	-0.0137788885	-0.301453
C	 0.8194978877	-0.53353223	 1.1643471249	 0.475257
C	 2.1722197551	 0.1370477232	 1.3787953003	-0.486407
C	-0.1896471681	-0.7231462119	 2.358703337	-0.080645
C	-0.7888249574	-1.8969301155	 1.5292441303	-0.229812
C	 0.6996971924	-2.0933084896	 1.1096734594	-0.061225
C	 1.329656468	-2.5386419645	 2.4412126227	-0.226187
C	 0.6601514613	-1.4863603587	 3.3937086862	-0.223073
H	 0.6779848887	 2.0199092728	 0.0585062741	 0.106231
H	-0.7305170999	 1.527897675	-0.9051495094	 0.124313
H	-0.8406089103	 1.5617382869	 0.8702167608	 0.10496
H	 2.0559002339	 1.1876296863	 1.6641678602	 0.115678
H	 2.7625239064	-0.3443832649	 2.1590518519	 0.121306
H	 2.745825375	 0.1036129931	 0.4468826377	 0.122874
H	-0.8019859249	 0.0997031049	 2.7304571694	 0.053713
H	-1.2612625121	-2.710077072	 2.0880007782	 0.079397
H	-1.4228916207	-1.5696083573	 0.7097004965	 0.112875
H	 0.9796993868	-2.6297387249	 0.2025220467	 0.059961
H	 1.0498939881	-3.5655052225	 2.6919895414	 0.096504
H	 2.4214369264	-2.4867351475	 2.4445875999	 0.095812
H	 1.3870221096	-0.8509850512	 3.9066732974	 0.094834
H	 0.0346898942	-1.9541356091	 4.1592451103	 0.096643
