20
gdb 117413	5.38634	0.58654	0.56116	3.4754	83.84	-0.2459	0.0279	0.2738	2002.9768	0.168311	-403.15746	-403.146565	-403.145621	-403.195971	37.741	
C	-0.4925001874	 1.2507296009	-0.3041059852	-0.372409
C	 0.5001714456	 0.1923211512	 0.1806270895	-0.14552
N	 1.1716030879	-0.4948433078	-0.9119823805	-0.323395
C	 0.9661601371	-1.8113124824	-1.2038552679	 0.426406
O	 0.2041098318	-2.5239629031	-0.5723804637	-0.376272
C	 1.7952788873	-2.3403776848	-2.3742231165	-0.319234
C	 1.1564136048	-3.597385057	-2.9897059161	-0.346783
C	 1.9864770824	-4.1928531177	-4.0284553164	 0.28719
C	 2.6889496474	-4.6642570496	-4.8825667416	-0.435604
H	 0.0046612868	 2.0199468345	-0.9056402697	 0.110537
H	-1.2766949033	 0.794935543	-0.915322304	 0.132634
H	-0.9652059363	 1.7486926774	 0.5483337485	 0.121534
H	 1.2511665848	 0.6500778652	 0.8366733491	 0.106129
H	-0.0120748284	-0.5842077452	 0.7520966384	 0.151996
H	 1.7924551496	 0.0359864632	-1.5014101985	 0.241706
H	 1.9326382285	-1.5664407941	-3.1371896129	 0.113307
H	 2.795699744	-2.587675256	-1.998846945	 0.140987
H	 0.9654140747	-4.3153262125	-2.1859540232	 0.158076
H	 0.1717577226	-3.3431444875	-3.3997821799	 0.136801
H	 3.2976874	-5.0967229777	-5.6370995144	 0.191914
