18
gdb 38482	3.36531	1.70159	1.57906	2.5669	73.51	-0.2171	0.0616	0.2787	907.2881	0.150196	-401.867289	-401.860742	-401.859797	-401.897741	27.82	
C	-0.078981619	 1.4209442963	 0.0350576149	-0.37073
C	 1.2491295034	 0.7470366985	 0.0597897788	 0.377257
C	 2.0813437262	 0.4333859754	 1.2934834992	-0.308781
C	 1.2234569162	-0.5749533881	 2.0799277715	-0.03151
N	-0.0774094218	-0.0250780644	 2.5104674484	-0.335519
C	-0.0316193677	-0.8866458897	 1.3130115733	-0.133754
C	-0.013070194	-0.0994431145	 0.0301407586	 0.15784
C	 0.5437390977	-0.5971323656	-1.3048065246	-0.14182
O	 1.6704606791	 0.3245264562	-1.2512278308	-0.322848
H	-0.4142702205	 1.8495218796	 0.9710595841	 0.146957
H	-0.3851163688	 1.9384872699	-0.8693486436	 0.111746
H	 3.0164575262	-0.0352628233	 0.9735226472	 0.120528
H	 2.326627735	 1.3112065432	 1.8984124635	 0.115604
H	 1.7117628662	-1.2990256799	 2.7263158179	 0.08633
H	-0.4315626507	-0.5551436807	 3.3019116743	 0.234325
H	-0.4993490271	-1.8653430944	 1.3520479134	 0.086191
H	 0.8899355496	-1.6375217224	-1.2721293487	 0.10352
H	-0.06983539	-0.4439844061	-2.2007033473	 0.104664
