19
gdb 74926	2.58238	1.88213	1.33672	1.313	80.	-0.2128	0.0232	0.236	1006.4529	0.159537	-385.862413	-385.854625	-385.853681	-385.894068	31.729	
C	 0.0465433571	 1.488160073	 0.0114275431	-0.512823
C	-0.0500332758	-0.0006457774	-0.0584535348	 0.265498
C	-0.1366522283	-0.8023920945	-1.1272092965	-0.198897
C	-0.0479846675	-2.2466736042	-0.6855962549	-0.108386
C	 1.4250232006	-2.4940993902	-0.1543767004	-0.233023
C	 0.9464524165	-2.0723695131	 1.2267309892	-0.131983
C	-0.5037029465	-2.2341212747	 0.8111217867	-0.104397
C	-0.0319402223	-0.8626607943	 1.1708160121	 0.319148
O	-0.4308095978	-0.3416331874	 2.4013692398	-0.47933
H	 1.0122415472	 1.8089964294	 0.4255313245	 0.117716
H	-0.0602689394	 1.9428939931	-0.9767344661	 0.124445
H	-0.7274033571	 1.899163753	 0.6696944785	 0.135773
H	-0.0930007923	-0.4894963664	-2.164009319	 0.0888
H	-0.4498762461	-2.9958026689	-1.3657540698	 0.069304
H	 1.6658463144	-3.5607217876	-0.1633336913	 0.102162
H	 2.2287517224	-1.9303474571	-0.6405148584	 0.087452
H	 1.404046362	-2.3146363308	 2.1795269549	 0.081689
H	-1.330024213	-2.7489991598	 1.2851876472	 0.0922
H	 0.3266729658	 0.0953086577	 2.8042738351	 0.284654
