14
gdb 49056	2.12319	1.85471	1.34473	4.8215	63.46	-0.2496	-0.0509	0.1987	967.3239	0.099801	-473.810851	-473.803044	-473.8021	-473.843943	27.851	
O	-0.380459681	 0.3345553856	-0.5667192934	-0.244536
C	 0.073522189	 1.0822303183	 0.2604916551	 0.072476
C	 1.3004359471	 1.9119941775	 0.0290103673	 0.192118
O	 1.4601057626	 3.0179481488	 0.9380000097	-0.320278
C	 1.6723764955	 3.948388189	-0.1541799825	-0.099279
C	 1.5997182388	 2.8151748245	-1.2016782288	-0.073664
N	 2.8298198976	 2.0572841139	-1.3976925603	-0.329737
C	 2.6878922802	 1.2324336183	-0.3002180903	 0.410649
O	 3.3819206562	 0.3985947731	 0.2001710664	-0.336691
H	-0.3807479492	 1.2214465839	 1.2651756232	 0.102215
H	 0.8495283721	 4.6691749339	-0.215411776	 0.123362
H	 2.6293077327	 4.4739547205	-0.0777896215	 0.119222
H	 0.9528419636	 2.9133598313	-2.0711478833	 0.124505
H	 3.6604753849	 2.2827434814	-1.9281783454	 0.259639
