19
gdb 59720	3.10461	1.29591	1.02917	2.6935	71.26	-0.2528	0.0695	0.3223	1185.6966	0.158379	-460.142899	-460.134244	-460.1333	-460.176307	32.599	
C	 0.0256368557	 1.4810554721	-0.1269961913	-0.414842
C	-0.0247584946	-0.0371493921	-0.0047210093	 0.119125
O	 0.7119909139	-0.5132063664	 1.1193073164	-0.437872
C	-1.4589171271	-0.5763042697	 0.0735198923	 0.089112
O	-2.1961564963	-0.1177889797	-1.0609776709	-0.276676
C	-3.1243478493	-1.1105764709	-1.4879004564	-0.106757
C	-2.59242165	-2.4207099343	-0.9527091869	 0.023612
O	-1.2085207553	-2.6202583976	-1.2578808719	-0.250219
C	-1.5575852742	-2.088616921	 0.0268260786	 0.011686
H	 1.0629509617	 1.8210101329	-0.1908585174	 0.121828
H	-0.5167121495	 1.8127262061	-1.0151335112	 0.143131
H	-0.4398051876	 1.9563743836	 0.7470566578	 0.100447
H	 0.4467067439	-0.4979924958	-0.8786509465	 0.111597
H	 0.4611005209	 0.0206683873	 1.8813142114	 0.277782
H	-1.9266959802	-0.2222932217	 1.011586874	 0.056934
H	-4.1313630409	-0.9251510352	-1.0803807103	 0.09623
H	-3.1772359525	-1.0728271036	-2.5810065632	 0.120817
H	-3.2161637168	-3.3090548264	-0.9072928038	 0.103733
H	-1.3048950618	-2.6944311475	 0.8901604385	 0.110331
