19
gdb 76780	2.2583	1.60506	1.06797	5.0492	78.58	-0.236	0.026	0.262	1170.7685	0.158668	-419.201695	-419.192355	-419.19141	-419.235884	33.688	
C	-0.0081214826	 1.6166848256	-0.0041448696	-0.405968
C	 0.0649292285	 0.096741805	 0.0240188552	-0.030794
N	 1.1290115209	-0.5077837976	-0.7953805726	-0.106865
C	 1.3702585697	-0.5113863836	-2.2130665314	-0.348573
C	 1.7634751953	-1.1682136306	 0.2353931586	 0.398968
O	 2.7258776733	-1.889103842	 0.2637816991	-0.380849
C	 0.761073071	-0.5828616022	 1.2282907017	 0.157398
C	 0.9636618317	-0.0819980735	 2.6043841596	-0.298287
N	 0.172320904	-1.3000936399	 2.3504215121	-0.353835
H	 0.9644708296	 2.0574832368	 0.2333490557	 0.128016
H	-0.3217760245	 1.9789404776	-0.9889651174	 0.124006
H	-0.741300145	 1.9782919489	 0.7246567123	 0.122043
H	-0.9209179107	-0.3399424377	-0.1941126183	 0.082778
H	 1.5461629338	 0.4995828575	-2.5997086441	 0.128444
H	 2.2638764746	-1.1145464682	-2.3918038195	 0.164148
H	 0.5313625169	-0.9531649582	-2.7662867842	 0.126781
H	 1.9153150724	-0.2536555303	 3.0987552354	 0.140655
H	 0.4493004436	 0.8312772746	 2.8937981367	 0.116259
H	-0.8225503723	-1.0934189022	 2.4115525207	 0.235676
