13
gdb 3542	6.30607	3.03425	2.67506	1.4741	52.3	-0.2374	0.0693	0.3067	533.2109	0.103343	-344.377098	-344.372374	-344.371429	-344.405342	19.146	
C	-0.0098325934	 1.5742687494	-0.0143469712	-0.108909
O	 1.413011585	 1.8439268961	-0.0305342398	-0.273372
C	 1.971565187	 0.5588995893	 0.0040891181	 0.106333
C	 1.1526478214	-0.4459757103	-0.8617465461	 0.029131
O	 1.4576008132	-1.5347408256	 0.0687484785	-0.313777
C	 1.1630669859	-0.392981981	 0.9370018498	 0.029131
C	-0.0269239346	 0.0561445979	 0.0304789187	-0.081945
H	-0.4641891397	 2.044010331	 0.8658496132	 0.113001
H	-0.4745078893	 1.9915320117	-0.9153525999	 0.113001
H	 3.0589437294	 0.5720520916	-0.0025967049	 0.104645
H	 1.1785014011	-0.6542541632	-1.9309400881	 0.096039
H	 1.20136965	-0.5379640707	 2.0162313098	 0.096039
H	-0.9666910858	-0.4919431862	 0.0520700218	 0.090684
