21
gdb 118367	1.59502	1.19165	0.72081	2.2598	86.29	-0.2438	-0.0175	0.2263	1624.5072	0.181045	-420.443347	-420.43279	-420.431846	-420.479603	36.864	
C	-0.2035423356	 1.3433399102	 0.7629508163	-0.380694
C	-0.1378732303	-0.1401911036	 0.392623441	-0.170841
C	 0.9214056255	-0.8855891494	 1.21156787	-0.162936
N	 1.0093504665	-2.31087659	 0.8895763524	-0.091327
C	 1.9966030666	-2.7842267128	 0.0464491231	 0.15468
O	 2.1346584247	-3.9355097517	-0.2958034145	-0.318093
C	 0.0931387588	-3.207645068	 1.4372067292	 0.108101
N	-0.8291353263	-2.8240617093	 2.2156844059	-0.24064
C	-1.7149282581	-3.8413929911	 2.7451569228	-0.315395
H	 0.7553052622	 1.84425415	 0.5870675053	 0.114129
H	-0.9621409519	 1.8624321679	 0.1703372988	 0.120037
H	-0.45894354	 1.4762507367	 1.8198112883	 0.123563
H	-1.1078400573	-0.6151500394	 0.5666990277	 0.128301
H	 0.0894308744	-0.253034438	-0.6746777368	 0.098356
H	 1.9109932959	-0.4481336009	 1.0402502426	 0.10969
H	 0.6956989549	-0.8024848077	 2.2778577626	 0.13745
H	 2.6675960742	-1.9702808874	-0.2863499865	 0.086169
H	 0.2783152123	-4.2376834363	 1.1210130248	 0.136518
H	-1.6753643924	-3.8271137815	 3.8404930237	 0.129207
H	-2.7486879102	-3.6106582992	 2.4629078941	 0.128624
H	-1.4782886738	-4.8602440284	 2.4013115693	 0.105101
