13
gdb 128258	7.09408	0.91129	0.81215	7.1024	68.68	-0.2574	-0.0539	0.2036	1318.8134	0.089922	-448.936067	-448.927879	-448.926934	-448.9696	28.01	
C	-0.0484175382	 1.446382686	 0.0950903321	-0.338896
N	-0.0543251239	-0.0022268567	-0.0320956148	-0.405253
C	-1.170546259	-0.7426137201	-0.0015494931	 0.549331
N	-1.2629173048	-2.0521102745	 0.0241786109	-0.404968
C	-2.6201514809	-2.2136347663	 0.0105752971	 0.276281
N	-3.345173529	-1.1189630896	-0.0167237479	-0.17576
O	-2.3580193351	-0.1128025273	-0.0211112453	-0.201816
C	-3.2485957855	-3.4974746348	 0.0256123972	 0.274371
N	-3.7464425873	-4.5397626704	 0.0383187353	-0.316231
H	 0.9288270069	 1.8177694059	-0.2164698522	 0.147899
H	-0.8084860581	 1.8786142093	-0.5590517954	 0.167081
H	-0.2437221834	 1.7762722466	 1.1224907739	 0.147245
H	 0.8010167283	-0.516975618	 0.0980576223	 0.280717
