19
gdb 20126	4.39574	1.26026	1.11334	2.8341	71.3	-0.2371	0.063	0.3001	1114.3696	0.165739	-365.014844	-365.006386	-365.005442	-365.04813	31.204	
O	-0.7161276808	 1.0789924981	 0.2904742838	-0.439928
C	-0.315399054	-0.2508019991	-0.0461460125	 0.073642
C	 0.6833428981	-0.2828060529	-1.1801254635	-0.004762
C	 0.6536445704	-1.405174028	-2.1894147107	-0.264986
C	 0.2284555655	-0.017821138	-2.5933396269	-0.276332
C	 0.2032428443	-0.9925325668	 1.1798858426	 0.02354
C	 0.98982227	-0.2887744942	 2.2209731644	-0.243157
N	-0.3914402093	-0.7309822697	 2.4939654179	-0.332314
H	 0.0366529402	 1.6611675278	 0.1477387959	 0.285583
H	-1.2384376956	-0.7466847655	-0.3780055005	 0.085444
H	 1.6708484674	 0.0843552374	-0.9058741658	 0.082879
H	 1.5994536635	-1.7862883232	-2.5572037117	 0.116106
H	-0.1171642799	-2.1613944976	-2.0828602871	 0.11837
H	-0.829187543	 0.1649781157	-2.750336434	 0.123004
H	 0.8807769716	 0.5519610199	-3.245415949	 0.113666
H	 0.4192383843	-2.0424111319	 0.9904086678	 0.091342
H	 1.7637004095	-0.8161669306	 2.7712004356	 0.115005
H	 1.1655007456	 0.7770493374	 2.100264727	 0.094619
H	-0.9991698276	 0.0816276012	 2.3948531965	 0.238277
