18
gdb 117110	2.49407	1.04815	0.78684	1.699	75.59	-0.2592	0.0203	0.2796	1464.3625	0.144413	-439.051773	-439.041428	-439.040484	-439.087933	36.525	
C	-0.258126885	 0.9844172508	 1.2130410293	-0.390071
C	-0.0956543978	-0.064383693	 0.1298713222	-0.033379
O	-1.2889205233	-0.8690097699	 0.1231622056	-0.242415
C	-1.3390441986	-1.8572365301	-0.7787921747	 0.382195
N	-0.415621947	-2.105575143	-1.6053279399	-0.536637
C	-2.6889343472	-2.5952802897	-0.6847961128	-0.107584
O	-2.75907065	-3.6400125551	-1.6423886908	-0.409328
C	-2.9531129275	-3.0741483205	 0.6710144331	 0.29919
C	-3.1538228136	-3.5331387058	 1.7631435257	-0.461772
H	 0.6334909743	 1.6171801902	 1.2527736288	 0.121439
H	-1.1244178024	 1.6216509204	 1.0137847132	 0.127872
H	-0.3936912588	 0.5164262987	 2.1921184035	 0.129896
H	 0.0359299156	 0.3810702593	-0.8616623743	 0.122223
H	 0.7670988224	-0.7138820585	 0.3100364293	 0.122268
H	-0.707643846	-2.8816665312	-2.1995515653	 0.230172
H	-3.4644609365	-1.8715921506	-0.9673439952	 0.143626
H	-2.4052230141	-4.4359400517	-1.2299431508	 0.295207
H	-3.3383815246	-3.9205068303	 2.7348902132	 0.2071
