20
gdb 117378	5.41018	0.71075	0.65702	2.2417	77.48	-0.2472	0.0598	0.3069	1762.7131	0.169886	-440.317234	-440.307196	-440.306252	-440.353774	35.256	
C	 0.1621270317	 1.4349718128	-0.0554629795	-0.3913
C	-0.2051668508	-0.0100485049	-0.3353896255	-0.032429
O	 0.8521246007	-0.5805675245	-1.1233625584	-0.281362
C	 0.6952951461	-1.8950674541	-1.4301489384	 0.515343
O	-0.2375842641	-2.5780545116	-1.0759722849	-0.409045
N	 1.7397995219	-2.3089201409	-2.210096425	-0.374623
C	 1.9427858797	-3.6883968471	-2.5255203007	 0.054961
C	 1.026708985	-4.3414651066	-3.5227564829	-0.234896
C	 2.4488465218	-4.021291823	-3.9054348095	-0.289244
H	 1.1035104904	 1.498576172	 0.4978890772	 0.12619
H	 0.272439211	 1.9981549322	-0.9866491572	 0.126839
H	-0.6219895184	 1.9084848572	 0.5427971234	 0.121469
H	-0.3183121119	-0.5882820599	 0.5870614851	 0.120173
H	-1.1477144401	-0.0900006425	-0.8869582176	 0.117973
H	 2.5152540265	-1.6709669663	-2.2957519185	 0.249693
H	 2.2931333052	-4.3106884437	-1.7044089006	 0.098761
H	 0.7515588078	-5.3748203895	-3.3483010606	 0.119955
H	 0.2391612928	-3.7257669735	-3.9385586643	 0.127898
H	 2.6103551971	-3.193519152	-4.587126986	 0.116348
H	 3.1626737875	-4.8314103741	-4.0005762564	 0.117298
