17
gdb 12466	3.45929	1.89904	1.36865	2.7283	70.72	-0.2379	-0.0524	0.1854	903.9475	0.144276	-363.875334	-363.868066	-363.867122	-363.906985	27.659	
O	-0.0050744601	-0.1023565155	 0.1322118692	-0.324548
C	-0.0257188911	 1.1085490877	 0.0308755412	 0.363392
C	-1.3672229181	 1.851061626	-0.0797939627	-0.315901
C	-1.3617757613	 3.0809167846	-1.0080004151	-0.213083
C	-0.7458624681	 4.3382621018	-0.3533943269	-0.168581
N	 0.342706898	 4.0426969329	 0.5970547526	-0.305382
C	 1.3657854721	 3.1969628071	 0.077555115	-0.043814
C	 1.2424728595	 1.8743345441	-0.0928606777	-0.138804
H	-2.0846166135	 1.1023429759	-0.4260131382	 0.128323
H	-1.6949999483	 2.1333519249	 0.9314080566	 0.1136
H	-0.8158437921	 2.828637642	-1.9231783258	 0.112368
H	-2.3881400298	 3.3078356203	-1.3163963625	 0.107071
H	-0.3699463904	 5.0221416882	-1.1218935851	 0.115387
H	-1.5084346801	 4.8832693449	 0.2130067289	 0.110827
H	-0.0699114489	 3.5876538863	 1.4040476929	 0.234387
H	 2.3045910953	 3.6967351565	-0.1586810421	 0.115575
H	 2.1042429368	 1.2762028924	-0.3753508203	 0.109184
