16
gdb 64571	2.1581	1.5931	1.45389	2.5831	70.09	-0.2477	-0.0521	0.1957	1004.5874	0.12209	-437.860096	-437.851557	-437.850613	-437.893407	30.983	
C	 0.1629267289	 1.7245855208	 0.1431764038	-0.468425
C	 0.0266487868	 0.2067105482	 0.0331131018	 0.068186
C	-1.3600494954	-0.2608800862	 0.421762536	 0.115281
O	-2.0113014402	-1.0571865731	-0.2062365527	-0.251231
C	 0.5639231037	-0.5220085005	-1.2129016114	-0.076977
N	 1.983213567	-0.1837769859	-1.3098570708	-0.343307
C	 1.5592222514	-1.3204462125	-0.4155702207	-0.181115
C	 1.0690020918	-0.6681735361	 0.85000333	 0.42268
O	 1.2397000533	-0.8362249132	 2.0192405653	-0.303607
H	 1.1643515675	 2.0305862735	-0.1636561288	 0.156395
H	-0.5691834276	 2.236909141	-0.490031835	 0.127471
H	 0.0029386022	 2.0451930647	 1.1774067118	 0.137745
H	-1.7441452292	 0.1918498208	 1.3612307194	 0.097926
H	-0.0258128464	-0.8616996732	-2.0522487204	 0.12892
H	 2.3557375005	-0.6229817877	-2.1521932757	 0.245948
H	 1.9553961657	-2.3171165208	-0.5596496024	 0.124111
