17
gdb 6712	4.39204	0.90385	0.89224	3.8645	65.93	-0.2737	0.0015	0.2752	1331.993	0.140057	-400.996221	-400.986958	-400.986014	-401.031049	31.936	
C	 0.0101204654	 1.5665762651	 0.1119252451	-0.397311
C	-0.0282308022	 0.0428219146	-0.0312342918	 0.127528
O	-1.3572606926	-0.4524074195	-0.0689267757	-0.434398
C	 0.7440926637	-0.451277542	-1.2545648346	-0.077494
O	 0.0755410014	 0.058963588	-2.4037799106	-0.253689
C	 0.6147534267	-0.4166908845	-3.6101540252	-0.179124
C	-0.1503027738	 0.1377864822	-4.7312771318	 0.261799
N	-0.7370617348	 0.56094403	-5.6307803788	-0.287577
H	 1.0347310728	 1.9244151957	 0.2597898406	 0.110701
H	-0.392414839	 2.0477765615	-0.7841514054	 0.130776
H	-0.5915403232	 1.8698552593	 0.9719296349	 0.128581
H	 0.4317423887	-0.417250314	 0.8514877051	 0.091749
H	-1.7261347199	-0.1805928541	-0.9179897791	 0.2884
H	 1.7900219473	-0.1067638192	-1.233835892	 0.096997
H	 0.7376871013	-1.5513020161	-1.2772275684	 0.104643
H	 1.6706462921	-0.1227725651	-3.7253699845	 0.143636
H	 0.5759242857	-1.5167581219	-3.6659255878	 0.144782
