15
gdb 48293	2.81369	0.9081	0.73221	4.9506	73.38	-0.2542	-0.0525	0.2017	1469.8529	0.109632	-416.768074	-416.758452	-416.757508	-416.803735	32.965	
O	-0.1279042064	 0.0587393609	-0.0388796646	-0.235168
C	-0.0210421733	 1.2548685424	-0.0193642668	 0.154565
C	 1.3495390579	 1.9752973062	-0.0244972753	-0.240033
N	 2.5036320414	 1.091284574	 0.0270849821	-0.282446
C	 2.6505311042	 0.3854359641	 1.3012373996	-0.277535
C	 3.8997244736	-0.3807022476	 1.3194196443	 0.265188
N	 4.871545665	-1.0041641838	 1.3359560904	-0.29492
C	 1.3725207055	 2.8266242828	-1.2135124812	 0.276425
C	 1.3230912625	 3.4862263727	-2.2162778579	-0.381181
H	-0.9014807067	 1.9322353278	-0.0145999583	 0.107125
H	 1.368902583	 2.6200802258	 0.8687005728	 0.13295
H	 2.4471917822	 0.4198120065	-0.7324215905	 0.246719
H	 2.6970121236	 1.1290959418	 2.1068373694	 0.15439
H	 1.8240057565	-0.3007546364	 1.5364296756	 0.161607
H	 1.3091926609	 4.0845735426	-3.0943312896	 0.212314
