20
gdb 91449	2.46611	1.68069	1.2925	1.8804	79.	-0.2334	0.0027	0.2361	1063.4296	0.171568	-403.151205	-403.142684	-403.14174	-403.183848	33.123	
C	-0.0611781054	 1.5287826967	 0.0192267904	-0.419032
C	 0.0329779412	 0.0043754963	 0.0153829598	 0.014877
C	 0.9908015365	-0.5680974953	-1.0908974523	-0.227088
C	 1.9665456553	-1.3514964318	-0.2045347504	-0.126057
N	 2.1888418104	-0.3445505501	 0.9105911963	-0.345017
C	 0.7225141842	-0.596279588	 1.2667934889	 0.191849
C	 0.2268297878	-0.2675401971	 2.6474326555	-0.511446
C	 1.0418057898	-2.039891376	 0.815854353	 0.385356
O	 0.9163127526	-3.1326253431	 1.2899555532	-0.33878
H	 0.9219148186	 1.9734412947	 0.198291678	 0.134878
H	-0.4270594055	 1.891937855	-0.9470805053	 0.114631
H	-0.7501391113	 1.8896761527	 0.7900589725	 0.112781
H	-0.9708612499	-0.4238193231	-0.0807344226	 0.078347
H	 0.4807678597	-1.2061527025	-1.8169274185	 0.108479
H	 1.5069769666	 0.2320546456	-1.6279591844	 0.111337
H	 2.8370675208	-1.8296620441	-0.6494454802	 0.088487
H	 2.7734148398	-0.77466669	 1.6291170342	 0.23047
H	 0.3415372884	 0.797568726	 2.8694473903	 0.133224
H	-0.8345927207	-0.5204460149	 2.735071728	 0.134501
H	 0.7667696611	-0.841693701	 3.4069042735	 0.128203
