20
gdb 105074	2.70285	1.15182	1.05817	3.5458	74.56	-0.2475	0.0634	0.3108	1244.951	0.169834	-440.231209	-440.221862	-440.220918	-440.26599	34.832	
C	-1.5046510865	-0.8517174759	 2.2556810707	-0.425459
C	-0.6643322591	-0.8059867161	 1.0070944512	 0.088627
O	-0.5053063622	 0.4671799568	 0.3739356927	-0.247633
C	 0.6590722644	-0.1556447663	 0.9255296178	-0.066917
C	 1.3329091778	 0.5579394805	 2.0728256006	 0.261129
C	 1.1057201339	 2.0684328897	 2.1257282186	-0.107266
O	 1.907988819	 2.6776633265	 3.1103036335	-0.424943
C	 1.6502568384	-0.1798791723	 3.3242633514	-0.262808
N	 2.7271249873	 0.1930628358	 2.3848507037	-0.380145
H	-1.2374251754	-0.0514745958	 2.9487181387	 0.139263
H	-2.5637980791	-0.7468510767	 1.9992306147	 0.133234
H	-1.3787363204	-1.8126129939	 2.7662835167	 0.121729
H	-0.8513383953	-1.6164490128	 0.2991405401	 0.091016
H	 1.3499095298	-0.5223540859	 0.1609474593	 0.094423
H	 1.2998219962	 2.4852485446	 1.1238343966	 0.094371
H	 0.0609063452	 2.2844099072	 2.3661825682	 0.118437
H	 2.7865166726	 2.2841486397	 3.0043230253	 0.292848
H	 1.6735866779	 0.3565630004	 4.2674209116	 0.13468
H	 1.3651875259	-1.226151943	 3.38655133	 0.112836
H	 3.0253447497	-0.6120755425	 1.8393393685	 0.232576
