18
gdb 110425	4.71492	1.10145	1.00977	2.9347	71.35	-0.2357	0.0574	0.2932	1179.29	0.148107	-438.992741	-438.984977	-438.984033	-439.024809	30.901	
O	-0.0311761937	 1.322591216	 0.252600119	-0.424322
C	 0.0021433294	-0.0274950161	-0.1632496795	-0.070994
C	-1.3937104433	-0.6283275261	-0.0949743	 0.012923
C	-1.4982898905	-2.1366333013	 0.0145559691	-0.127612
C	-1.4503877338	-2.0152825633	 1.5191740438	-0.124123
N	-1.8852808598	-0.5413468091	 1.3513154099	-0.191069
C	-3.316281261	-1.0269407173	 1.2170550647	-0.238825
C	-2.7529913776	-2.3952990353	 0.8672029872	 0.3583
O	-3.3805843358	-3.6156803231	 0.7749928373	-0.458028
H	-0.5419787395	 1.3166969199	 1.0740415279	 0.288804
H	 0.3758101477	-0.04358669	-1.1928712553	 0.104526
H	 0.6933835625	-0.6274857912	 0.4514577715	 0.082916
H	-2.0544267918	-0.1048443768	-0.7962082964	 0.07919
H	-1.0954849587	-2.926366787	-0.6077451765	 0.100417
H	-0.8261032069	-2.4163185836	 2.3041982828	 0.106132
H	-3.8008253712	-1.0078357786	 2.1984859476	 0.102164
H	-3.9225999355	-0.4745550312	 0.4908713062	 0.108625
H	-3.7494028004	-3.8364388059	 1.6377555107	 0.290975
