17
gdb 103524	2.47172	1.50889	1.2408	3.8387	69.23	-0.2529	-0.0234	0.2295	1055.2981	0.136327	-455.193561	-455.184932	-455.183988	-455.226725	32.084	
C	-0.0712212945	 1.5539071822	 0.0030910296	-0.414027
C	-0.0312263661	 0.0218439559	 0.013592378	 0.092356
C	-1.4575966123	-0.5764513762	-0.0200568119	-0.061856
O	-2.1364233602	-0.2079480906	-1.1977221344	-0.421715
N	 0.6961454779	-0.5005689881	-1.1634356459	-0.282889
C	 1.6752535868	-1.1808445699	-0.7076084293	 0.059748
N	 1.7841181479	-1.2327676397	 0.6754268261	-0.344518
C	 0.7378299979	-0.5019813944	 1.2365880637	 0.412375
O	 0.5188196725	-0.3427312891	 2.4115640907	-0.369679
H	 0.9285792039	 1.9711559065	-0.1424431098	 0.120562
H	-0.719423499	 1.8929640166	-0.8068346236	 0.141583
H	-0.4661025091	 1.9134484388	 0.9574867837	 0.13828
H	-1.3891273269	-1.6707845439	 0.0833992828	 0.090789
H	-2.0316793341	-0.1928833603	 0.8283187924	 0.127766
H	-1.5488793606	-0.4394700229	-1.9285775254	 0.295448
H	 2.399312723	-1.7055862034	-1.3230730054	 0.14435
H	 2.4906011427	-1.7142726916	 1.2085157887	 0.271428
