12
gdb 3798	7.76491	2.18361	1.72296	2.2807	52.79	-0.2298	0.0072	0.237	684.8041	0.090582	-360.497612	-360.491441	-360.490497	-360.527954	21.538	
C	 0.0139104128	 1.4163890939	-0.0433552583	-0.250029
O	 0.0053056006	-0.0167193195	-0.0060092618	-0.262649
C	 0.5816321621	-0.6533331245	-1.0162514657	 0.54683
C	 0.7216665413	-1.993025971	-1.2434525879	-0.402137
C	 1.4173287529	-2.0200987582	-2.4752724394	 0.058959
N	 1.6803548228	-0.8284054492	-2.9566090401	-0.16482
O	 1.1326970453	 0.0625836154	-2.0021218293	-0.222027
H	 1.0382263809	 1.7993895477	-0.0492223204	 0.147828
H	-0.5147374088	 1.7858558281	-0.9265163162	 0.147817
H	-0.5009266816	 1.7332811829	 0.8631114687	 0.144931
H	 0.381301738	-2.8067447934	-0.6285983985	 0.122273
H	 1.7434828236	-2.8833128422	-3.0396268513	 0.133025
