12
gdb 133531	1.8746	1.60222	1.04685	1.9175	54.16	-0.2724	-0.0537	0.2187	1082.4517	0.070584	-566.960683	-566.951857	-566.950913	-566.995406	30.315	
F	-0.0056113838	 0.0397294488	 0.0048493758	-0.068977
C	-0.0224649061	 1.3793843707	-0.0107244797	 0.281111
F	 1.2462484058	 1.8036414155	-0.0536996419	-0.071426
F	-0.6311611243	 1.774165012	-1.1290628428	-0.06119
C	-0.7421244131	 1.903187887	 1.2392372704	-0.3896
C	-0.031427006	 1.3771146224	 2.507575504	 0.162092
O	-0.5786425717	 0.69617379	 3.3258169312	-0.22339
C	-0.7625896003	 3.3571295007	 1.2785230156	 0.300936
C	-0.7530235223	 4.5543961028	 1.368221076	-0.420584
H	-1.7537837908	 1.4860457834	 1.2329395384	 0.156427
H	 1.0218061464	 1.7076944517	 2.6033364112	 0.118011
H	-0.7568969539	 5.615219195	 1.4290727021	 0.21659
