15
gdb 45498	3.17542	1.77686	1.55095	4.5516	62.88	-0.2671	-0.0009	0.2662	868.4144	0.115707	-457.799285	-457.79317	-457.792226	-457.829896	24.506	
O	-0.033392342	 0.0212781542	-0.4314034827	-0.340219
C	 0.0032406612	 1.165777288	-0.088281128	 0.444673
O	-1.1243321262	 1.8913300932	 0.1854043837	-0.234335
C	-0.7862528208	 3.217247644	 0.6451055292	 0.168782
O	-0.8264245595	 3.25182392	 2.0367915703	-0.231851
C	 0.3880292793	 2.6521287317	 2.5163284373	-0.114725
C	 1.3963015312	 2.8128990284	 1.3815765824	-0.085191
C	 0.6810837828	 3.4545164485	 0.2378457418	-0.106819
C	 1.2002079001	 2.0580148259	 0.0624057217	-0.216202
H	-1.5347978244	 3.9016262997	 0.2506825259	 0.113865
H	 0.7001008364	 3.1963180604	 3.4118733117	 0.122642
H	 0.210275903	 1.6046531411	 2.7876609574	 0.127896
H	 2.417499198	 3.0784225302	 1.6255078549	 0.114667
H	 0.9997746974	 4.3267143184	-0.3153944259	 0.113061
H	 2.0764366636	 1.8078966164	-0.5202820596	 0.123758
