17
gdb 47679	2.24666	1.69572	1.01779	3.1295	71.81	-0.2635	-0.0117	0.2517	1131.3901	0.138675	-455.195533	-455.187609	-455.186664	-455.228728	29.513	
N	-0.0138236367	 1.1674189351	-0.6956843443	-0.479225
C	-0.0476580681	 0.0448631424	-0.0961368601	 0.355492
C	-1.3943881954	-0.5733122604	 0.1892898915	-0.24121
C	-1.5723325892	-1.2341062396	 1.5556862268	-0.224874
C	-0.5971614786	-2.3767159435	 1.7869589451	-0.07272
O	 0.714236032	-1.9360660256	 2.1639430754	-0.2269
C	 1.5902626225	-1.3987317951	 1.2996073754	 0.435019
O	 2.7744895685	-1.48931311	 1.4961543711	-0.360645
N	 1.1225291857	-0.7064649063	 0.1725736341	-0.411619
H	 0.9432423777	 1.4752759423	-0.882800409	 0.211805
H	-2.1316276853	 0.2151347759	 0.0331867689	 0.138917
H	-1.5649254902	-1.3330591161	-0.5867873687	 0.126007
H	-1.4645904562	-0.5063938739	 2.3678218385	 0.126425
H	-2.5909121349	-1.6334291679	 1.6179127697	 0.11542
H	-0.9123373802	-2.9919088792	 2.6322825389	 0.131892
H	-0.5267502707	-3.0228806093	 0.9026546193	 0.118149
H	 1.9367292092	-0.3350890187	-0.3011604127	 0.258067
