14
gdb 32159	4.15192	1.23154	0.95553	2.0244	66.56	-0.2718	-0.037	0.2348	1154.2109	0.103369	-470.076613	-470.069195	-470.068251	-470.108809	26.895	
C	-0.0462358158	 1.4043390914	-0.0221131676	-0.231108
O	 0.0123098523	-0.0264975187	-0.0491248324	-0.232389
C	 0.6267523919	-0.5998161243	-1.0749723491	 0.479632
N	 1.1620335746	 0.1697926455	-2.0317115809	-0.352971
C	 1.7505438325	-0.5212489829	-3.0054188183	 0.077191
N	 1.8409868552	-1.8425004894	-3.0927896972	-0.354113
C	 1.2605908588	-2.4844567321	-2.0641055734	 0.457754
O	 1.3084741262	-3.8153683762	-2.0789240409	-0.37699
N	 0.6427344133	-1.9323570512	-1.0334168953	-0.336124
H	 0.9574195858	 1.8353040367	 0.0004760125	 0.14315
H	-0.5766123868	 1.7895056608	-0.8960984356	 0.143212
H	-0.5875743259	 1.6493992641	 0.8917560046	 0.139195
H	 2.2022725058	 0.0555833883	-3.8097277479	 0.132491
H	 1.7852699821	-4.061645242	-2.8842290687	 0.311071
