21
gdb 94725	2.66782	1.50532	1.24668	2.7472	76.91	-0.2445	0.0596	0.3041	1100.3872	0.183726	-424.228432	-424.220094	-424.21915	-424.260945	33.172	
C	-0.3135552609	 1.4983652831	-0.0117959282	-0.486183
C	 0.0545612328	 0.0242700222	-0.0323316557	 0.287696
C	-1.0369655198	-0.9541694038	 0.4719394962	-0.113958
O	-0.1776220834	-1.4681743752	 1.5165988605	-0.314478
C	 0.8930269672	-0.5649489811	 1.136352257	 0.058172
C	 2.0532330739	-1.3682390483	 0.5322480242	 0.147821
O	 2.3815966093	-2.4950457893	 1.3125377699	-0.445731
C	 1.5747683942	-1.6858933152	-0.9038111768	-0.259036
C	 0.770193278	-0.4420749848	-1.3178921974	-0.277548
H	 0.572391632	 2.1278364101	-0.149985997	 0.118597
H	-1.0166973636	 1.7382034489	-0.8180833415	 0.119118
H	-0.7840191258	 1.7817384466	 0.9354658703	 0.120435
H	-1.9296519228	-0.47484484	 0.8923879478	 0.100786
H	-1.3487954296	-1.7383285268	-0.2293548234	 0.10045
H	 1.1812234764	 0.0836458886	 1.9700156262	 0.071865
H	 2.9508080816	-0.7380848159	 0.4951774452	 0.08172
H	 1.5329715195	-2.8729449026	 1.5822157933	 0.286841
H	 2.4015405123	-1.9151904226	-1.5800220871	 0.101784
H	 0.9306690001	-2.5723579151	-0.867482136	 0.103903
H	 0.0688331507	-0.6337494359	-2.1368747645	 0.098654
H	 1.4474893176	 0.3512289271	-1.6582136029	 0.099094
