22
gdb 99258	4.27224	0.66649	0.60692	1.9446	79.94	-0.2448	0.0171	0.2619	1906.3667	0.192002	-441.524444	-441.513107	-441.512163	-441.562833	39.145	
C	-0.1164654965	 1.5281671896	 0.0966020438	-0.383407
C	 0.0131207762	 0.0000898526	 0.0595289166	 0.013229
C	 0.6767819873	-0.4783027511	-1.2385315986	-0.394087
C	 0.7959382478	-0.5266008024	 1.2575451055	-0.048699
O	 0.0749254796	-0.1842237817	 2.4589910458	-0.245868
C	 0.6455730611	-0.5502406213	 3.6207087052	 0.414597
O	 1.6967635545	-1.135093807	 3.7061198871	-0.360189
C	-0.2130334883	-0.1236658006	 4.8098496129	-0.27422
N	 0.3054362808	-0.5007530787	 6.1125982907	-0.485824
H	 0.8690166796	 2.0041048708	 0.0234474665	 0.111662
H	-0.7223838328	 1.8892465187	-0.7403221742	 0.112962
H	-0.5844748471	 1.8621459627	 1.0259225128	 0.126018
H	-0.9940777145	-0.4342605522	 0.1148957845	 0.084691
H	 1.6956563292	-0.0837443014	-1.3293334687	 0.11796
H	 0.7356975478	-1.5707853182	-1.2836197273	 0.115696
H	 0.1116556025	-0.1363149817	-2.1107064646	 0.118045
H	 0.9136100556	-1.614391509	 1.2159323965	 0.115605
H	 1.7990362784	-0.0874648354	 1.307193071	 0.116846
H	-0.3386725713	 0.9645615074	 4.7586520163	 0.137235
H	-1.2166306665	-0.5418587025	 4.6705700926	 0.137052
H	 0.4151152747	-1.5108616896	 6.1436535026	 0.234891
H	 1.250821772	-0.1389812391	 6.2064936632	 0.235803
