20
gdb 74852	2.40276	1.81213	1.22418	1.3525	85.54	-0.2155	0.0199	0.2354	1078.1848	0.172022	-365.985836	-365.977833	-365.976889	-366.017956	32.255	
C	 0.0569901254	 1.4898557233	 0.0237793025	-0.505871
C	-0.0215085511	-0.003836976	-0.0025114593	 0.241195
C	-0.1072379315	-0.7801119876	-1.0930552979	-0.170067
C	-0.0585233729	-2.2248080789	-0.7337356123	-0.09175
N	 1.2301691542	-2.6135052851	-0.0778723954	-0.343553
C	 0.0474314728	-2.2736789889	 0.7485683314	-0.155823
C	 0.0281742395	-0.847600487	 1.2397443875	 0.337743
C	 0.7715788909	-0.4360396252	 2.4907932708	-0.300816
C	-0.7307256842	-0.4816413285	 2.5019029286	-0.325974
H	 1.01874071	 1.8330523219	 0.4250407777	 0.13278
H	-0.0516486229	 1.9058175492	-0.9811098661	 0.126585
H	-0.72465825	 1.9282214379	 0.6565865044	 0.123821
H	-0.1544419842	-0.4169735169	-2.1128793737	 0.088661
H	-0.5895037048	-2.9729637735	-1.3127638434	 0.084424
H	 1.3046913076	-3.6301626935	-0.10555128	 0.221851
H	-0.4180007004	-3.0530447651	 1.3438617811	 0.081411
H	 1.321407699	-1.2082671279	 3.0174681305	 0.117688
H	 1.2530931682	 0.5357970013	 2.5008074529	 0.113156
H	-1.2754789086	 0.4560148869	 2.5208551367	 0.112832
H	-1.2197150772	-1.2898237262	 3.0368173341	 0.111706
