14
gdb 2771	4.56569	2.11812	1.64945	3.5421	54.22	-0.2421	-0.0326	0.2096	743.652	0.112975	-361.683558	-361.676566	-361.675622	-361.714981	24.77	
O	 0.1167767214	 1.2953298419	-0.3246763638	-0.424286
C	-0.0523786955	-0.079660289	-0.0967474835	 0.141529
C	 0.3694219804	-0.5838999646	 1.3071040368	-0.203408
N	-1.0501331702	-0.4988267328	 1.7215589076	-0.330966
C	-1.5032455664	-0.5386518788	 0.3157684235	-0.100951
C	-2.6392207785	 0.3981333062	-0.0279787531	 0.169331
O	-3.3928170017	 0.2343392627	-0.9517089006	-0.24508
H	-0.1314297069	 1.766804148	 0.4788816142	 0.293003
H	 0.3697667021	-0.5900809052	-0.9620721329	 0.107268
H	 0.7823360916	-1.601651819	 1.2770954986	 0.101814
H	 1.0551620728	 0.0614437922	 1.8679876619	 0.106604
H	-1.3912404487	-1.2406346262	 2.3225206055	 0.227388
H	-1.726457641	-1.5347297652	-0.0898129192	 0.085957
H	-2.7194538293	 1.2766884995	 0.6517935351	 0.071797
