21
gdb 111976	2.3622	1.32	1.07579	2.3598	79.53	-0.2516	-0.002	0.2497	1234.4985	0.182927	-424.236646	-424.227441	-424.226497	-424.270581	35.353	
C	 0.2196597289	 1.2787535478	 0.4353783218	-0.391467
C	 0.3032013309	-0.214229281	 0.1080945656	-0.164549
C	 0.6587428325	-0.5088398595	-1.3623410998	-0.080771
C	 2.0729692616	-0.1290104841	-1.7362008571	-0.056776
C	 2.8672195922	-1.1860695689	-1.9279416579	-0.130762
C	 2.1307920756	-2.4763681562	-1.6980174633	 0.049995
O	 2.459052197	-3.0924428836	-0.4381987144	-0.444601
C	 0.63863239	-2.0336136643	-1.7234271144	 0.092799
O	-0.1688152131	-2.8440320279	-0.9075426806	-0.434765
H	 1.1795556588	 1.7842517975	 0.2848230693	 0.11256
H	-0.5208749387	 1.779829837	-0.198280818	 0.116423
H	-0.0754202757	 1.4368501164	 1.4773222514	 0.114875
H	 1.0418206443	-0.6932259448	 0.7649980573	 0.071134
H	-0.6519833353	-0.7038772625	 0.3216638318	 0.119759
H	-0.0635282275	 0.0335150508	-1.9872509042	 0.075387
H	 2.395475256	 0.9036174126	-1.8251904106	 0.103197
H	 3.9219468414	-1.1513158211	-2.1767621229	 0.100775
H	 2.3362293436	-3.2498870797	-2.443468603	 0.091536
H	 2.6930797422	-2.3846313277	 0.1730200183	 0.285534
H	 0.2751359563	-2.1271064049	-2.7538729062	 0.084674
H	 0.442179999	-3.2564423059	-0.278021483	 0.285042
