20
gdb 73861	3.13944	1.04396	0.8219	4.508	87.44	-0.2372	0.0173	0.2545	1413.675	0.170703	-366.062405	-366.052952	-366.052008	-366.096768	34.656	
C	-0.0671718082	 1.4958818395	 0.1363693502	-0.49931
C	 0.0320410397	 0.0074295257	 0.0135289294	 0.222817
C	 0.0205654615	-0.7447336271	-1.0954322811	 0.222834
C	-0.0946541207	-0.3074004689	-2.5222697624	-0.499312
C	 0.0806805141	-2.2232219827	-0.770548664	-0.306683
C	 0.5092877861	-2.2406945237	 0.7237995604	-0.142635
C	 0.1016837638	-0.8418197125	 1.2661255709	-0.306681
C	-0.0375475025	-3.3576824239	 1.4870849296	 0.262757
N	-0.4781994996	-4.2402021926	 2.0902395196	-0.331031
H	 0.800511426	 1.9054584142	 0.6691499663	 0.127644
H	-0.1314992372	 1.9938127605	-0.833577396	 0.126545
H	-0.9518360164	 1.7825806095	 0.7197966568	 0.130412
H	-0.1506650177	 0.7784666753	-2.6253454046	 0.126546
H	 0.7617384842	-0.6586984633	-3.1119048087	 0.127651
H	-0.9898556678	-0.7354185973	-2.9919875074	 0.130409
H	-0.8999719641	-2.6976531185	-0.9116586971	 0.125687
H	 0.7860232856	-2.7767558012	-1.400192678	 0.114539
H	 1.6010842815	-2.3169473862	 0.7642649096	 0.127587
H	 0.821133884	-0.4683681001	 2.0032012598	 0.114537
H	-0.8722819225	-0.876809877	 1.7729260467	 0.125689
