19
gdb 107922	3.89463	1.14142	1.09755	0.3652	74.78	-0.2248	0.0717	0.2965	1189.3897	0.158254	-422.956418	-422.948063	-422.947119	-422.98931	32.305	
C	-0.2038145125	 1.4801264636	 0.2146978037	-0.376273
C	 0.2062811131	 0.0128507679	 0.031312399	-0.309903
C	 0.824084096	-0.5660802842	 1.2606702749	 0.495002
O	 2.0672098683	-0.0148227103	 1.7380179302	-0.332955
C	 2.1461069418	-1.175143335	 2.605683134	 0.009516
C	 1.1006198847	-1.9520523662	 1.7290522025	-0.207426
C	 0.0688961	-1.1104968067	 2.489569978	-0.1744
C	 1.0236477475	-0.9135519846	 3.6561792158	 0.119536
O	 0.8650674792	-1.9612418604	 4.589720526	-0.43389
H	 0.6591339505	 2.0853502733	 0.506132711	 0.1376
H	-0.6123475023	 1.8908169513	-0.713094471	 0.110903
H	-0.9631892854	 1.5809630544	 0.9964660838	 0.118519
H	-0.6633164859	-0.5987066769	-0.2379823624	 0.106317
H	 0.9221375831	-0.0750509296	-0.7950374369	 0.111923
H	 3.1589878823	-1.4659884076	 2.8812456254	 0.080675
H	 1.0592001619	-2.9286223778	 1.2681747187	 0.099762
H	-1.0068992955	-1.227407591	 2.5201444989	 0.09295
H	 1.0526070768	 0.0711028976	 4.1439997336	 0.068165
H	 1.5591758965	-1.8719050778	 5.2510829148	 0.28398
