20
gdb 11472	5.07022	1.23448	1.07127	1.11	71.84	-0.2489	0.0905	0.3394	1173.0262	0.176501	-386.157697	-386.14888	-386.147936	-386.191701	31.629	
C	-0.054716851	 1.6371259508	 0.1340950101	-0.38393
C	 0.0840977712	 0.1438633147	-0.1697431886	-0.200169
C	-1.2424170015	-0.589078875	-0.0980560402	 0.234817
O	-2.1522240469	-0.090089358	-1.0746848069	-0.27497
C	-2.8511412828	-1.1970436434	-1.6297394312	-0.0936
C	-2.3328612674	-2.4159809899	-0.8412067027	 0.119312
C	-2.1578594799	-3.6914090907	-1.6425864783	-0.414022
O	-1.0671245595	-1.9555341646	-0.3784364083	-0.266803
H	 0.9149280023	 2.1391429903	 0.0721342948	 0.113079
H	-0.7344003968	 2.1146118977	-0.5766529628	 0.136353
H	-0.4514368526	 1.8031305092	 1.141893213	 0.113641
H	 0.4940159512	-0.0135434906	-1.1730676716	 0.106306
H	 0.7671315903	-0.3336894307	 0.5418582128	 0.105291
H	-1.7033338149	-0.4688630795	 0.9024149414	 0.055212
H	-3.9333378761	-1.0581222908	-1.5213235233	 0.101484
H	-2.6137095511	-1.2822927083	-2.6987834172	 0.097972
H	-2.991405898	-2.6002132589	 0.0239958125	 0.071024
H	-1.4890503193	-3.5183577293	-2.4909114094	 0.128189
H	-1.7309545105	-4.4821038459	-1.0199252177	 0.13081
H	-3.1237153668	-4.0393629473	-2.0223091164	 0.120006
