21
gdb 117821	2.3607	1.06212	0.9093	2.7903	76.06	-0.2383	-0.0249	0.2135	1410.0548	0.177584	-461.359645	-461.348296	-461.347352	-461.396749	39.436	
C	 0.0281884794	 1.5931936242	 0.3143894407	-0.381952
C	 0.1109866671	 0.1026871659	 0.0308587585	-0.057031
O	 0.7523222253	-0.5108687707	 1.145684618	-0.302543
C	 0.7770064536	-1.9404490343	 1.1732936553	 0.278421
C	 1.3219030655	-2.5887542534	-0.0946765129	-0.442555
C	 1.6458621595	-2.256306873	 2.3959366829	-0.126006
O	 1.5811093837	-3.655088378	 2.6163528561	-0.417275
C	-0.661102224	-2.3929082962	 1.4801686172	 0.152009
O	-1.3602413397	-3.038591079	 0.7462416789	-0.249211
H	 1.027554903	 2.0104222159	 0.4678388816	 0.126646
H	-0.4395003422	 2.1128975477	-0.527128021	 0.118011
H	-0.5639547611	 1.7829294717	 1.2140204268	 0.125544
H	-0.8934999132	-0.3179786275	-0.1209977651	 0.106885
H	 0.6839616442	-0.0808024541	-0.8883825405	 0.099716
H	 2.2564335268	-2.1026390387	-0.3901405187	 0.114672
H	 1.5212024293	-3.6438588483	 0.1039712455	 0.147478
H	 0.6058868363	-2.5326764685	-0.9164198917	 0.133069
H	 2.6706042977	-1.9098514112	 2.1997754701	 0.100383
H	 1.2549008401	-1.6870080362	 3.2520627975	 0.100296
H	 2.0830164861	-3.86371774	 3.4089687954	 0.296267
H	-1.0378916874	-2.0003423662	 2.4528282856	 0.077176
