14
gdb 43458	2.93179	1.60474	1.13057	2.995	64.47	-0.2844	-0.0179	0.2665	1022.2845	0.101248	-473.870672	-473.863499	-473.862555	-473.902579	27.116	
N	-0.0629992047	 1.2805787458	 0.0119049499	-0.538762
C	-0.0345230187	 0.0265778836	 0.0046945013	 0.34038
O	 1.0937164461	-0.7720649116	-0.0070554467	-0.24122
C	 0.7252172544	-2.1040950341	-0.0121836578	 0.489709
O	 1.4919654541	-3.0066526099	-0.0221895679	-0.348442
O	-0.6207629165	-2.2034899641	-0.0040780142	-0.268783
C	-1.187768314	-0.9023931354	 0.0069298729	 0.338021
C	-2.4549028959	-0.6578027277	 0.7713970596	-0.310478
C	-2.4647140464	-0.6492981482	-0.7381825005	-0.31048
H	 0.8718204995	 1.686660208	 0.0081594112	 0.246361
H	-2.883097905	-1.5172396452	 1.2741453676	 0.146711
H	-2.5241890295	 0.2873421746	 1.2973673544	 0.155136
H	-2.540762187	 0.3017081691	-1.252525931	 0.155137
H	-2.8994774363	-1.5030425048	-1.2449765188	 0.146711
