15
gdb 55015	2.45208	1.4054	1.19727	1.3049	61.19	-0.2578	0.	0.2578	1061.3914	0.11192	-491.120202	-491.111311	-491.110367	-491.154856	32.095	
N	 0.4972591771	 0.41339028	-0.4155438848	-0.505599
C	-0.6822682185	 1.0580820468	-0.2771099446	 0.349419
O	-0.8286743984	 2.2682444368	-0.232663813	-0.377642
C	-1.8780898482	 0.1412802129	-0.1450532016	-0.042219
O	-1.6284849032	-1.2522729526	 0.0611970198	-0.24173
C	-2.1546668775	-0.5004119081	 1.1517137792	-0.031437
C	-1.2522395797	-0.3114572688	 2.3655003451	 0.340944
N	-1.2033589502	 0.9799922013	 2.8030692937	-0.510767
O	-0.7050747608	-1.2443796018	 2.911865931	-0.347606
H	 1.3520384498	 0.9452278151	-0.4149752393	 0.269929
H	 0.5250986727	-0.5913898763	-0.3439537507	 0.2869
H	-2.7089467571	 0.3923536648	-0.801353083	 0.12954
H	-3.1897731279	-0.7343704296	 1.4019880298	 0.134816
H	-1.4283470926	 1.7398881034	 2.1772591241	 0.280091
H	-0.5829068556	 1.1785349362	 3.5735400644	 0.265363
