16
gdb 54735	3.07132	1.5046	1.46268	4.3234	67.28	-0.2286	0.0397	0.2683	953.9938	0.123891	-437.827113	-437.819532	-437.818588	-437.859269	29.671	
N	 0.1353224685	 1.01618853	-0.6062170862	-0.516308
C	 0.1492354925	-0.0855000123	 0.2123957917	 0.381465
O	 1.0063311371	-0.2824316345	 1.0464179036	-0.365619
C	-1.1005975941	-0.9441826976	 0.1287337753	-0.117655
C	-1.7791330198	-1.5329290572	-1.0857635468	-0.152144
C	-0.7610672431	-2.0943218506	-2.1293353356	 0.009862
O	 0.5706734831	-1.8177054651	-1.6764586057	-0.232745
C	-0.1319184742	-2.9359088031	-1.1182993597	 0.030263
C	-1.1233440097	-2.4316478167	-0.025410806	-0.105663
H	 1.0012200036	 1.5314764409	-0.6578410459	 0.255839
H	-0.4152983917	 0.9832714066	-1.4484571644	 0.254004
H	-1.8321847857	-0.6126299869	 0.8645223922	 0.12633
H	-2.833774131	-1.4068093829	-1.2931770773	 0.09885
H	-0.9178967999	-2.2262148479	-3.1928295101	 0.113401
H	 0.3447661303	-3.9062216328	-1.1721998713	 0.116846
H	-1.6088837959	-3.0911026598	 0.6810289663	 0.103275
