20
gdb 104920	2.07117	1.56222	1.06174	3.6287	81.01	-0.2687	0.0212	0.2898	1214.1712	0.167842	-403.146773	-403.136507	-403.135563	-403.181473	37.351	
C	 0.0376397858	 1.2937423558	-0.3253467596	-0.261675
O	-0.0675690402	 0.0080215323	 0.273993927	-0.274937
C	-1.3217843284	-0.5797907381	 0.1454172036	 0.259294
C	-1.6882938237	-1.2415602076	-1.1797827608	-0.378791
C	-1.3596187418	-2.0989665966	 0.0187851935	 0.242925
C	-0.0258714344	-2.8216840551	 0.042562539	-0.443573
C	-2.4923831461	-2.8516086586	 0.6913665703	-0.458354
C	-2.3675739325	 0.0960622884	 0.8885369929	 0.262644
N	-3.1870724216	 0.6583743917	 1.4811281331	-0.364546
H	 1.0683801077	 1.6202538104	-0.1767582745	 0.13667
H	-0.1813990371	 1.2522234955	-1.4006665992	 0.115154
H	-0.6420217054	 2.0129623438	 0.148879354	 0.137492
H	-2.7165942437	-1.1791163664	-1.5183092487	 0.131556
H	-0.9391136485	-1.1490134291	-1.9589715648	 0.127888
H	 0.7677795514	-2.2222019827	-0.4042580297	 0.132346
H	 0.2684400813	-3.0574575131	 1.0706501484	 0.126533
H	-0.1065063028	-3.7650923236	-0.5083157016	 0.119351
H	-2.6616917982	-3.8045747237	 0.1783777957	 0.122037
H	-2.2492258707	-3.0707657287	 1.7364528062	 0.130164
H	-3.4293219508	-2.2895887047	 0.6767104855	 0.137821
