16
gdb 67576	3.03985	2.02088	1.51419	0.8162	66.54	-0.2351	0.061	0.296	863.067	0.125453	-437.777315	-437.771051	-437.770107	-437.807513	26.728	
O	-0.0959964755	 1.3768156722	-0.0345133702	-0.487703
C	-0.0469026182	 0.00427147	-0.0657693033	 0.440307
C	-1.3447268015	-0.7521501375	 0.0851597856	-0.096932
C	-1.7354956342	-1.6816050368	-1.0066769046	-0.243443
N	-0.8887086824	-2.1679576685	 0.0989230668	-0.120379
C	 0.5500317762	-1.9876541109	-0.1434490396	-0.022958
C	 0.8792905373	-0.7687572725	-1.0626578447	-0.058692
O	 2.0656979603	-0.4374155311	-0.257882121	-0.336955
C	 1.0551153837	-0.8147502047	 0.7355473082	-0.018188
H	 0.8212348368	 1.6789960729	-0.0996128303	 0.292008
H	-2.052896918	-0.4402229913	 0.8465458544	 0.10728
H	-2.7391222544	-2.0960367367	-1.010299508	 0.126394
H	-1.2944805511	-1.5565632732	-1.9918478083	 0.122052
H	 1.1370131428	-2.8991625697	-0.2277597072	 0.097797
H	 0.9750005742	-0.6908116121	-2.1455115253	 0.098412
H	 1.3328552341	-0.7914950501	 1.7894581875	 0.100998
