18
gdb 119805	5.39884	0.84854	0.78325	1.0393	72.56	-0.2396	0.0221	0.2616	1453.6309	0.147822	-439.079079	-439.070628	-439.069684	-439.113061	31.102	
O	-0.1932140189	 1.4575126913	 0.0509766604	-0.422921
C	 0.0248317679	 0.0565177288	-0.0274437038	-0.073412
C	-1.343807376	-0.6057184583	 0.0698066724	-0.295169
C	-1.2748694644	-2.093800348	 0.0126894161	 0.407318
N	-0.2236332391	-2.8182195008	 0.0197446866	-0.31784
C	-0.6699950757	-4.1904531402	-0.0014211593	-0.021577
C	-1.4998858407	-4.6372666518	 1.1875667617	-0.318503
C	-2.1857884526	-4.118027138	-0.0419785721	 0.057812
O	-2.4841167963	-2.7316745996	-0.0600750783	-0.248818
H	 0.6613287914	 1.8946862294	-0.0012580202	 0.287911
H	 0.5074875779	-0.2294268777	-0.9727234902	 0.102957
H	 0.6681986168	-0.304825183	 0.786384002	 0.107171
H	-1.8320385648	-0.3008155292	 1.0035259552	 0.137259
H	-1.9926897695	-0.2479420177	-0.7379069105	 0.136389
H	-0.0574665152	-4.9000411057	-0.5439044387	 0.10206
H	-1.575305839	-5.705875706	 1.3568075095	 0.121426
H	-1.4871860147	-4.0243500099	 2.0827938275	 0.125254
H	-2.8673064272	-4.7077171337	-0.6406917484	 0.112683
