16
gdb 124341	2.69959	1.67753	1.04788	1.0129	72.27	-0.2725	-0.0509	0.2216	1095.5785	0.124463	-434.133598	-434.125187	-434.124243	-434.16698	30.003	
C	-0.1076735473	 1.5246105318	-0.0274598117	-0.480625
C	 0.0713732268	 0.0292266895	-0.0204414372	 0.424581
O	 1.1336649759	-0.5409608231	-0.0377295411	-0.309961
N	-1.1336387824	-0.7193593115	 0.0083871258	-0.088067
N	-2.3579128134	-0.1003932971	 0.0285204045	-0.246723
C	-3.1835229093	-1.1185554625	 0.051551453	 0.034489
N	-2.5957769895	-2.3555045519	 0.0477988356	-0.307636
C	-1.3090826657	-2.0884022625	 0.0205034295	 0.376629
C	-0.2166349729	-3.098001781	 0.0053066697	-0.478244
H	 0.8801248618	 1.9837476327	-0.0457341539	 0.146616
H	-0.6922208839	 1.8352839467	-0.8970867332	 0.165494
H	-0.6664729682	 1.8475088224	 0.8544010393	 0.165587
H	-4.2545745849	-0.9797765734	 0.0719049705	 0.136651
H	 0.4118466303	-2.9872661493	-0.8821326257	 0.156649
H	 0.4430869818	-2.9795451649	 0.8688369405	 0.156575
H	-0.6701813191	-4.0897036361	 0.0180491342	 0.147985
