15
gdb 13829	4.71222	1.46155	1.13202	2.1627	65.01	-0.2425	-0.0335	0.209	995.0555	0.119126	-399.833185	-399.825363	-399.824418	-399.865979	27.651	
N	-0.0472722612	 1.3321342695	 0.0442011019	-0.540683
C	 0.0346636234	-0.0362765832	 0.0301406477	 0.315213
O	 1.1015486712	-0.6230485169	 0.0216174035	-0.360996
C	-1.2732099323	-0.7450429603	 0.0563776035	 0.210958
C	-1.4040951357	-2.069854068	 0.0095889008	-0.173406
C	-2.8507702082	-2.445799717	 0.0607122647	-0.110631
O	-3.5596037772	-1.2096581641	 0.1387035239	-0.267608
C	-2.6457141425	-0.1193293024	 0.1497007957	-0.178943
H	 0.8130774947	 1.8424902714	-0.0755603306	 0.262969
H	-0.9096800605	 1.8175655649	-0.1335292888	 0.261464
H	-0.5851543812	-2.7738782203	-0.0532894555	 0.13645
H	-3.1701063163	-3.0061772085	-0.8322071343	 0.115652
H	-3.0883734431	-3.0723883779	 0.9351282072	 0.116233
H	-2.774815675	 0.4689031013	 1.0724464912	 0.112321
H	-2.8639718962	 0.5519146814	-0.6983814909	 0.101007
