20
gdb 14469	2.74579	2.29017	1.89943	0.4822	78.83	-0.2313	0.0893	0.3207	857.0734	0.177222	-311.83396	-311.826299	-311.825355	-311.865201	30.479	
C	-0.0747544846	 1.5631467301	-0.0926701505	-0.529131
C	-0.0028309389	 0.0745998418	-0.0055676567	 0.315396
C	 0.3131555807	-1.0028570044	-1.0156527065	-0.112076
C	 1.3709459554	-1.6309189361	-0.1160361743	-0.267703
C	 0.6402143206	-0.9297438842	 1.0668187512	 0.280426
C	 1.3743010536	-0.556124684	 2.3274672086	-0.504359
C	-0.7337422859	-1.6607463242	 1.118310379	-0.267716
C	-1.015975669	-1.0214993964	-0.2360710418	-0.112058
H	 0.9223370953	 2.0181994733	-0.1310547625	 0.117587
H	-0.6106848964	 1.8704657829	-0.9978942012	 0.121051
H	-0.6031835862	 1.9968812718	 0.7648686349	 0.117589
H	 0.3184146679	-0.9102261479	-2.0949617378	 0.076493
H	 1.459530217	-2.7239659781	-0.0755837187	 0.081504
H	 2.3581789932	-1.1922151148	-0.2932500066	 0.090001
H	 2.2656140098	 0.0437744551	 2.1116129399	 0.113599
H	 0.7381864781	 0.0214035471	 3.0077088491	 0.113594
H	 1.7032683085	-1.4537316121	 2.8657819513	 0.117797
H	-0.7186531336	-2.7548484053	 1.2017288705	 0.081522
H	-1.3792841489	-1.2452420622	 1.8987715704	 0.089992
H	-1.9623841768	-0.9421756823	-0.7571617083	 0.076493
