17
gdb 107697	3.19804	1.36803	1.13353	1.7625	68.38	-0.2429	0.049	0.292	1100.5108	0.133179	-458.848616	-458.84033	-458.839386	-458.881473	31.443	
C	 0.1881990498	 1.3441753692	-0.200184756	-0.535904
C	 0.0535302188	-0.1286475391	-0.0138072236	 0.417316
O	 0.5679415532	-1.0468821652	-1.0316807569	-0.385307
C	 0.0141348307	-1.9637326596	-0.0342003115	 0.413141
C	 0.1571666834	-3.4295128385	-0.2897890765	-0.218434
O	 1.5212250488	-3.7936893928	-0.3989946467	-0.411872
C	 0.4238976762	-1.0709572934	 1.180025236	-0.047026
O	-0.9128115106	-1.0502933562	 1.7589280513	-0.331314
C	-1.1841139589	-1.0312190972	 0.3303389867	-0.067411
H	 1.2417821038	 1.6294002224	-0.275637042	 0.139272
H	-0.3252409634	 1.6679564653	-1.1103902989	 0.13911
H	-0.2549517235	 1.8608429138	 0.6564327526	 0.144911
H	-0.264108764	-3.9870791706	 0.5528482464	 0.131196
H	-0.4122847811	-3.6982496966	-1.1936636695	 0.102987
H	 1.9169581692	-3.1942426987	-1.0424729645	 0.296336
H	 1.2919704004	-1.1027152217	 1.8374110119	 0.109423
H	-2.2167978627	-1.0087742511	-0.0181404888	 0.103575
