20
gdb 78185	2.05213	1.61951	1.36592	1.7251	84.58	-0.2267	0.0303	0.257	1093.8484	0.169554	-365.928966	-365.919753	-365.918809	-365.962391	35.248	
C	-1.2816799033	 0.7725801859	-0.8020735734	-0.43055
C	-0.5668881254	-0.5554202529	-0.91396628	 0.036421
C	 0.5614437823	-0.9504182749	-1.7819578307	-0.074391
C	 1.6738620812	 0.0838779288	-1.9547465591	 0.001592
C	 1.4814587723	 1.3244963217	-2.8173395388	-0.427152
C	 1.7348315728	 0.1389297076	-0.3862919237	-0.189136
C	 1.5456114574	 1.3849541181	 0.3323477565	 0.370697
C	 1.4565421629	 2.4203798173	 0.9389070479	-0.469319
N	 0.6920312817	-0.9596669193	-0.249413346	-0.165215
H	-0.6327235526	 1.6391436751	-0.9019891468	 0.141041
H	-2.056695459	 0.8280355016	-1.5748278441	 0.115735
H	-1.7763021411	 0.8448602858	 0.1723114308	 0.126184
H	-1.2655291571	-1.3834353535	-0.7866340193	 0.098031
H	 0.5368315443	-1.8839193266	-2.3378281382	 0.091292
H	 2.5779752939	-0.4297925654	-2.2948071761	 0.090244
H	 0.6006500302	 1.9058681599	-2.5416454312	 0.127856
H	 2.3529513255	 1.9828974693	-2.7400678432	 0.122697
H	 1.3748515236	 1.0360241804	-3.8689098449	 0.117608
H	 2.674471388	-0.3006058259	-0.0386218772	 0.117177
H	 1.3588911224	 3.3300311572	 1.4782621277	 0.19919
