16
gdb 87081	4.40973	0.71014	0.668	5.2807	86.28	-0.2798	-0.052	0.2278	1662.0324	0.121605	-400.723733	-400.714188	-400.713244	-400.758581	33.57	
C	-0.0427924965	 1.5350361845	-0.1054360332	-0.42972
C	-0.0156635934	 0.041657871	 0.0844523054	 0.049384
O	 1.2201291549	-0.6441420449	-0.1147539602	-0.266173
C	 0.6624685259	-0.6551520524	 1.2128590868	 0.123649
C	 1.4509593646	 0.0585526858	 2.2919655055	-0.475241
C	 0.117483915	-1.9317571855	 1.6154362439	 0.089756
C	-0.332901701	-2.9925769336	 1.9804475824	 0.09382
C	-0.8481026151	-4.1895325579	 2.3858652371	 0.197901
N	-1.2892379501	-5.206790262	 2.7330343388	-0.333108
H	 0.8261939516	 2.0263335162	 0.3344561886	 0.134337
H	-0.0556127107	 1.7661613155	-1.1755469168	 0.1434
H	-0.9509418326	 1.955571105	 0.3384676461	 0.135193
H	-0.8713019944	-0.4833104012	-0.3438107725	 0.107489
H	 1.8602569807	 0.9969029234	 1.9171315942	 0.139711
H	 0.8147903646	 0.2649604652	 3.1577183767	 0.14105
H	 2.2821949266	-0.5705459391	 2.6224603572	 0.148551
