18
gdb 68254	2.36258	1.52114	1.45432	4.7605	76.47	-0.279	0.0315	0.3105	1026.8906	0.14695	-401.915214	-401.906614	-401.90567	-401.948033	32.952	
C	-0.1551053257	 1.552867262	 0.0150867668	-0.483125
C	 0.0102778211	 0.0297133918	 0.0272449281	 0.164831
C	-1.3088033245	-0.5730836845	-0.1849905283	 0.229331
N	-2.3679360443	-1.0008996285	-0.3655556809	-0.354436
C	 1.2004966624	-0.6744652452	-0.7342109602	-0.07991
C	 2.1664241145	-0.1332064496	 0.3566891987	-0.315874
C	 0.9053714136	-0.6704095283	 1.1104713917	 0.380397
O	 0.5985658248	-0.5973528233	 2.4493947696	-0.4676
C	 0.9797043257	-1.9191492265	 0.1745543231	-0.315081
H	 0.7905247138	 2.0794534626	 0.1416742342	 0.128289
H	-0.6019188354	 1.8760190261	-0.9295017295	 0.138638
H	-0.825285314	 1.8601093026	 0.8227706451	 0.149563
H	 1.352064758	-0.6700746734	-1.8103956345	 0.099083
H	 3.0805388568	-0.7148565698	 0.4962233294	 0.098242
H	 2.3758320976	 0.9345511406	 0.3863305405	 0.10608
H	 1.1968477021	-1.1703775348	 2.9411550991	 0.291199
H	 0.0636915071	-2.4922885739	 0.0288731863	 0.136249
H	 1.8505684063	-2.5651901678	 0.3062209907	 0.094123
