12
gdb 132455	3.35119	1.42175	0.99914	3.1369	61.87	-0.2244	-0.057	0.1674	1047.8913	0.077858	-513.968455	-513.961297	-513.960353	-514.000125	26.914	
N	 0.0042304447	 1.3954707808	 0.1487781865	-0.583039
C	-0.0678419735	 0.0193466217	 0.0447729399	 0.136707
C	-1.1982412416	-0.7381763193	 0.0146745702	-0.08988
N	-1.1848760608	-2.1209093252	-0.0204279292	-0.360466
C	-0.0394979281	-2.6593872362	-0.0287266472	 0.405699
F	 0.1150944173	-3.9578766694	-0.0536327279	-0.037356
O	 1.151748142	-2.0570048037	-0.0185277408	-0.214056
C	 1.2250408354	-0.6570582145	 0.0084767554	 0.429121
O	 2.3057805493	-0.1363090711	-0.0103853214	-0.339592
H	 0.9023527868	 1.7718404105	-0.1211389157	 0.272427
H	-0.783461749	 1.9161854661	-0.204966591	 0.258797
H	-2.1831533926	-0.2832702797	 0.0221348211	 0.121638
