19
gdb 39766	2.95641	1.85061	1.50279	1.8428	78.17	-0.2551	0.086	0.3411	937.4339	0.161492	-385.825257	-385.818619	-385.817674	-385.855797	28.534	
C	-0.027970217	 1.5435503896	-0.0738511201	-0.311542
C	 1.3016103705	 0.8259441972	-0.0932147277	-0.037825
C	 0.0013092119	 0.03287337	-0.0848255445	-0.037824
C	 0.1248774038	-0.7187522838	-1.4249908784	-0.145295
C	 1.6282241333	-1.1854073211	-1.3485766504	-0.220716
C	 1.9006919237	 0.3643348599	-1.4364483977	-0.145296
C	 0.692020127	 0.3387012786	-2.3772746621	 0.526395
C	 0.654547229	 0.3847223222	-3.8336571532	-0.309806
O	 0.0364461514	 1.4067174746	-3.0241723615	-0.305347
H	-0.2958252512	 1.9927818399	 0.8779850682	 0.102381
H	-0.3721151679	 2.0986873457	-0.9358574582	 0.149427
H	 1.9531632677	 0.8713998877	 0.7716876616	 0.08578
H	-0.3291762738	-0.5206223682	 0.7864178983	 0.08578
H	-0.6815453633	-1.3887033972	-1.7208996879	 0.067911
H	 1.9350171319	-1.6786456861	-0.4243783512	 0.097755
H	 1.9646984338	-1.7463537439	-2.2242847055	 0.096618
H	 2.8626312396	 0.7729220859	-1.7437645805	 0.067911
H	 1.5305677243	 0.7082858443	-4.3945520592	 0.116846
H	-0.0393440847	-0.2492254455	-4.3844144001	 0.116846
