21
gdb 121104	4.71207	0.75402	0.69036	1.9255	75.94	-0.2527	0.0817	0.3344	1670.4961	0.181488	-461.36549	-461.355555	-461.354611	-461.40135	35.227	
C	-0.3312831938	 1.5672571232	 0.1028958524	-0.41441
C	 0.2404961338	 0.1645234351	 0.0362913747	 0.118157
C	 1.1339243342	-0.1355158701	-1.1848485138	-0.095347
O	 2.1709020879	-0.9642615122	-0.6725768957	-0.276416
C	 1.9559866828	-1.1170849076	 0.7279535558	 0.21596
C	 3.270430995	-1.087214695	 1.4817233517	-0.203782
C	 4.2087874485	-2.2095120563	 1.056903745	-0.07573
O	 5.3620060134	-2.13647502	 1.8826529123	-0.421787
O	 1.136740405	-0.0468262118	 1.12335438	-0.265152
H	 0.473553704	 2.3076144122	 0.0731754056	 0.129525
H	-1.0038336946	 1.7454610191	-0.7420782025	 0.120385
H	-0.8986624616	 1.7081801314	 1.0266183576	 0.13187
H	-0.5725477944	-0.5786605708	 0.0866197868	 0.071876
H	 0.5891401534	-0.6535794577	-1.9829693538	 0.101956
H	 1.571907865	 0.783019539	-1.5973593662	 0.100496
H	 1.4246951524	-2.0746718879	 0.8971595987	 0.057272
H	 3.7479895045	-0.1175107826	 1.3125001973	 0.115163
H	 3.0616090608	-1.177363523	 2.5529414391	 0.115756
H	 3.7015646732	-3.1827639466	 1.1681862738	 0.081703
H	 4.4627925175	-2.0915416778	-0.0057782175	 0.107314
H	 5.9890488227	-2.7984232206	 1.577718689	 0.285189
