23
gdb 100090	3.09609	0.93002	0.86528	3.3167	82.5	-0.2366	-0.0097	0.2268	1482.2096	0.20148	-425.458293	-425.446945	-425.446001	-425.495096	41.394	
C	 0.1097975403	 1.4501136557	-0.3472471316	-0.393813
C	-0.0641439225	 0.0352678397	 0.2130369156	-0.198776
C	-1.4890397625	-0.5487688691	 0.0794521315	 0.331066
C	-2.5294074864	 0.3072419685	 0.8046977004	-0.394248
O	-1.8866685704	-0.5498177659	-1.2997190874	-0.455903
C	-1.4733462159	-2.0055657445	 0.6318707849	-0.312422
C	-2.8308110021	-2.7040448748	 0.5806171343	 0.389041
C	-3.2037603802	-3.3922597336	-0.7167234015	-0.485477
O	-3.5742416638	-2.6858488673	 1.5363367662	-0.306924
H	 1.1666479597	 1.732966453	-0.3513739754	 0.11228
H	-0.2654376399	 1.5107401518	-1.3725437022	 0.124657
H	-0.4269168709	 2.192904238	 0.2495002999	 0.123438
H	 0.6261601759	-0.6461743748	-0.3057483555	 0.082812
H	 0.2291422203	 0.009538831	 1.2692629393	 0.102568
H	-2.5642688584	 1.3082021874	 0.3700330791	 0.122867
H	-3.5239284391	-0.1347817443	 0.7227551979	 0.137821
H	-2.2856920307	 0.3904283393	 1.8673726584	 0.119083
H	-1.1856589229	-0.9722830636	-1.8090110175	 0.275981
H	-0.7320644344	-2.5796601755	 0.0611777698	 0.087265
H	-1.1571515932	-1.9839641021	 1.678666445	 0.119821
H	-2.4679839422	-4.1664143184	-0.9642359926	 0.127907
H	-4.194959837	-3.8394394506	-0.6328589876	 0.135879
H	-3.1830381938	-2.6542992699	-1.525230281	 0.155076
