17
gdb 34024	3.10921	1.39655	1.19942	0.6803	75.03	-0.2289	0.0294	0.2584	1069.1437	0.135065	-421.757454	-421.749475	-421.748531	-421.789888	31.045	
C	-0.0111706077	-1.1187547247	 0.0780600335	-0.405802
C	-0.0292476232	 0.0819172252	 0.0229627631	 0.283467
C	-0.0221187729	 1.5166340906	-0.0660959265	 0.171029
C	 0.5413547297	 2.1513164883	-1.3324355772	-0.357351
C	 1.3232444457	 2.2290572588	-0.0447822301	 0.034765
O	 1.407829568	 3.4667258666	 0.5965308585	-0.261365
C	 0.4601578784	 3.6031916516	 1.649836071	-0.088021
C	-0.9433350152	 3.3980041011	 1.1094362711	-0.088695
O	-1.1233977903	 2.0806159374	 0.5988669807	-0.295504
H	-0.0027967019	-2.1792312176	 0.1315086264	 0.194744
H	 0.8804961221	 1.4903979513	-2.120948407	 0.127574
H	 0.0776024111	 3.0751120147	-1.6603423129	 0.128529
H	 2.2164816103	 1.6195615002	 0.0687261329	 0.111648
H	 0.6656669858	 2.8837250072	 2.4562088248	 0.108345
H	 0.5785047916	 4.6169971967	 2.041401161	 0.116577
H	-1.6917511661	 3.517126902	 1.8984799143	 0.116428
H	-1.1426210053	 4.1461907107	 0.3271943064	 0.103631
