15
gdb 19891	3.99636	1.95172	1.61198	4.4051	68.28	-0.2344	0.0213	0.2557	806.0454	0.119988	-325.460385	-325.454012	-325.453068	-325.490735	25.302	
N	-0.2850578454	-1.2178886952	-0.2091198105	-0.3537
C	-0.0856273057	-0.0876493948	-0.0594123479	 0.286475
C	 0.0779153628	 1.3384935862	 0.070440868	-0.167661
C	 0.5023054852	 2.1551560155	 1.2781098083	-0.085319
C	 1.7188342836	 1.6338684395	 2.0904301831	-0.053627
C	 2.3412251204	 0.3668539408	 1.5732754792	-0.320821
C	 2.5661137938	 1.6518387254	 0.8260251631	-0.053628
C	 1.345394286	 2.1730351334	 0.0199591505	-0.085318
H	-0.7245715191	 1.8490172727	-0.4600574481	 0.141751
H	-0.1622024417	 2.920966181	 1.6574323905	 0.106051
H	 1.9563066317	 2.0416537483	 3.0637266057	 0.099456
H	 3.2072345282	 0.0522902026	 2.1491189148	 0.119536
H	 1.7670210086	-0.4585187816	 1.1767688027	 0.1613
H	 3.5511370702	 2.0754801922	 0.6837408314	 0.099456
H	 1.4333863716	 2.9548023441	-0.7236933106	 0.106051
