19
gdb 107591	2.66236	1.55457	1.13017	1.628	75.53	-0.1984	-0.0148	0.1836	1114.3713	0.160588	-419.194206	-419.185657	-419.184713	-419.227282	32.549	
C	-0.4723083033	 1.4217379368	-0.2404758799	-0.333143
N	 0.0543300963	 0.0806610589	 0.0459758213	-0.367967
C	 0.8210609541	-0.4849877461	-1.0163386791	 0.224727
C	 0.0729752042	-1.0474416411	-2.2290829343	-0.311092
C	 0.8383932934	-1.9831376675	-1.3680396698	-0.069382
N	 2.1432421956	-2.3992719257	-1.8621584719	-0.301903
C	 2.9345674801	-1.169047038	-2.063388128	-0.299909
C	 2.2180415078	-0.0341904311	-1.3077936929	 0.339045
O	 2.7281946374	 0.9970495789	-0.9352742843	-0.335573
H	 0.3043744571	 2.1594449807	-0.4796014944	 0.131184
H	-1.1651011617	 1.3618414524	-1.0861172574	 0.119842
H	-1.0373464037	 1.7715713263	 0.628408572	 0.114761
H	 0.6257725161	 0.122558433	 0.8840234353	 0.222888
H	-1.0040835356	-1.0491954583	-2.1083727623	 0.134444
H	 0.4243803249	-0.8226889116	-3.2304152799	 0.123606
H	 0.3061581518	-2.6993217344	-0.7545960751	 0.109869
H	 2.5909789709	-2.9565463096	-1.1428299853	 0.227241
H	 3.9582756621	-1.2799579732	-1.7000044833	 0.135122
H	 3.0002193625	-0.9068191504	-3.1279287408	 0.13624
