18
gdb 12135	4.74187	1.54393	1.40856	2.1493	72.51	-0.2544	0.085	0.3394	945.2799	0.15322	-347.758669	-347.751267	-347.750323	-347.789963	29.061	
C	-0.0378085175	 1.5271522096	 0.0467632743	-0.494787
C	 0.0563460173	 0.0299876833	 0.0024844624	 0.363753
C	-0.8190985635	-0.8868320392	 0.8049980922	-0.327612
C	 0.6751737494	-0.945747547	 1.0257767986	-0.189053
C	 1.3155494573	-1.6993875173	-0.1090772085	 0.484005
C	 2.6132350347	-2.3682015021	-0.1537930713	-0.276966
O	 1.3881284448	-3.1152656316	-0.205052225	-0.276635
C	 0.678742401	-0.7701430075	-1.1607695283	-0.389945
H	 0.9176818912	 1.9966797906	-0.2140164783	 0.116941
H	-0.791461888	 1.8975073851	-0.6588140457	 0.122411
H	-0.322283659	 1.8762766015	 1.0447528436	 0.118942
H	-1.375453455	-0.41332577	 1.608399947	 0.109992
H	-1.3349614085	-1.7225090013	 0.3382774353	 0.11655
H	 1.1229818292	-0.7434704758	 1.9918839826	 0.086061
H	 3.1973530617	-2.360218896	-1.0740951633	 0.111433
H	 3.1944228614	-2.4904436401	 0.7602558778	 0.112459
H	-0.0247990783	-1.2384962269	-1.8563683724	 0.106879
H	 1.4233731019	-0.2056100854	-1.729464751	 0.105571
