16
gdb 20997	3.69256	1.76113	1.21042	2.0801	68.82	-0.2059	0.0326	0.2385	983.3664	0.130817	-379.951885	-379.943539	-379.942595	-379.985428	29.312	
C	-0.0430556517	 1.3921183633	 0.1200962342	-0.313202
N	 0.0003451132	-0.0442644065	-0.002200061	 0.046844
C	 0.0482553186	-0.7928204381	-1.1300532017	-0.107389
C	 0.0771006079	-2.1246856013	-0.7619660046	 0.092564
C	 0.1320257316	-3.3469294117	-1.6223558202	-0.503649
C	 0.0416402841	-2.056134939	 0.649932726	 0.373049
O	 0.0522983024	-3.1280816785	 1.4735927613	-0.430283
N	-0.0044195579	-0.8163963764	 1.1153495602	-0.386748
H	-0.0317953622	 1.8297458801	-0.8798361449	 0.135109
H	-0.9534791172	 1.7077758743	 0.638996777	 0.14313
H	 0.8226468342	 1.7578892217	 0.6809379654	 0.143123
H	 0.0585028445	-0.333527814	-2.107194459	 0.126154
H	 1.024411044	-3.9484414051	-1.4152557567	 0.131623
H	-0.7339885538	-3.9979389396	-1.4572356059	 0.131622
H	 0.1498177804	-3.0797315001	-2.6827009377	 0.117192
H	 0.0215375718	-2.789777519	 2.3770768475	 0.300862
