18
gdb 32945	3.50922	0.99956	0.9218	3.4111	75.89	-0.1991	0.0181	0.2172	1338.3877	0.148763	-435.283782	-435.274598	-435.273654	-435.318871	32.889	
C	-1.0861086975	 0.7173472075	-0.8125189801	-0.315475
N	 0.0057275503	 0.2099968991	 0.0132351248	-0.270911
C	-0.409511967	-0.7705819528	 1.0174100191	-0.274687
C	-1.0185292216	-2.032578661	 0.4882154657	 0.36486
N	-2.2328680712	-2.4618239825	 0.5598770169	-0.289502
C	-2.2445275147	-3.6612331421	-0.1505503172	-0.196972
C	-0.9929621084	-3.895638288	-0.6256275797	 0.33638
N	-0.3718830192	-4.9311665394	-1.3040551867	-0.596992
O	-0.1900090017	-2.8712196352	-0.2303964729	-0.206233
H	-0.6813387448	 1.4178669948	-1.54873303	 0.116159
H	-1.660397922	-0.0567494926	-1.3471109029	 0.107676
H	-1.7901659416	 1.2679555386	-0.1787131788	 0.126191
H	 0.7187384319	-0.2045982717	-0.5778985226	 0.220014
H	 0.4670859727	-1.0164057195	 1.628147831	 0.118072
H	-1.1547162385	-0.3123865181	 1.6745018251	 0.135704
H	-3.1367567343	-4.2546817044	-0.2642195393	 0.107907
H	-1.0316063783	-5.542571178	-1.7650838222	 0.259778
H	 0.3342207659	-4.6121434546	-1.9559311903	 0.25803
