25
gdb 60058	2.90824	0.92682	0.89504	2.0071	88.24	-0.2418	0.0644	0.3061	1499.0233	0.227269	-389.480721	-389.470154	-389.46921	-389.516242	39.544	
C	-0.1119927844	 1.6080123409	 0.080738707	-0.387048
C	 0.0487781591	 0.0813393747	 0.0511572615	 0.031339
C	 0.8725853407	-0.3967979178	 1.2552867125	-0.383167
C	-1.3348127032	-0.5925663427	-0.0352585871	-0.256219
C	-1.3735353278	-2.1201542426	-0.1632463646	 0.293486
C	-0.5259936695	-2.6554416293	-1.3185908086	-0.454304
C	-1.217865319	-2.9634465773	 1.1338838173	-0.112371
O	-2.4708747063	-3.6357999326	 0.9045363024	-0.276981
C	-2.8021597215	-2.7284281557	-0.1637815074	-0.113582
H	 0.8620619502	 2.1080276231	 0.0955567969	 0.109318
H	-0.662006571	 1.9698058304	-0.7943985746	 0.109596
H	-0.6621090734	 1.9275325334	 0.9740959686	 0.1124
H	 0.6076394336	-0.171833603	-0.8596982015	 0.076126
H	 0.3497868437	-0.1911117942	 2.1970102435	 0.112986
H	 1.0787464557	-1.4707697058	 1.2156948324	 0.117847
H	 1.8372824795	 0.1199515558	 1.2949497967	 0.110005
H	-1.9239305043	-0.3009127463	 0.8459129153	 0.090689
H	-1.8649878395	-0.1720645288	-0.9019763448	 0.091527
H	 0.5409018464	-2.4653229469	-1.1642294669	 0.119286
H	-0.6584485735	-3.7373711324	-1.4200487687	 0.12336
H	-0.8156177262	-2.1894096938	-2.2675921333	 0.112841
H	-0.3748208392	-3.6645528806	 1.1692782002	 0.096361
H	-1.2360742943	-2.3796698083	 2.0639814328	 0.09228
H	-3.5941561474	-2.0240436746	 0.1289481383	 0.088515
H	-3.1121431284	-3.2554262955	-1.0747206579	 0.095708
