9
gdb 1376	7.44813	1.57744	1.30174	3.5985	48.87	-0.3116	-0.0961	0.2154	814.4597	0.054026	-375.393636	-375.386992	-375.386048	-375.424914	21.441	
N	-0.223677211	 1.3027179494	 0.0119204895	-0.398602
C	-0.0213516267	 0.0670742823	 0.0024385125	 0.123092
O	-1.1439786165	-0.7523648364	 0.0091407389	-0.186066
C	-0.9490541328	-2.0879605285	-0.0004447044	 0.382558
O	 0.0981632047	-2.667897815	-0.0142286396	-0.309613
C	-2.2451433221	-2.7692023523	 0.0086283301	 0.265084
N	-3.236392261	-3.3612760305	 0.0151853819	-0.292984
H	 0.662167601	 1.8065610674	 0.0057064788	 0.254965
H	 0.9121889444	-0.4933677164	-0.0106047777	 0.161566
