17
gdb 87053	2.21334	1.46763	1.0849	2.7623	74.71	-0.2598	0.0181	0.2779	1163.8455	0.132413	-421.746246	-421.737118	-421.736174	-421.780231	33.448	
C	-0.3835096724	 1.4304670063	 0.3895631221	-0.433748
C	-0.1656158102	-0.0548284445	 0.4903938304	 0.034389
O	 0.9787936294	-0.5975232356	-0.1757858734	-0.293724
C	 0.9439131027	-0.6645739981	 1.2620032335	 0.178393
C	 1.90887315	 0.1475753351	 1.9637523313	 0.299756
C	 2.7204658121	 0.7781381506	 2.5876231258	-0.42523
C	 0.795674663	-2.0545544891	 1.8259326929	-0.044012
C	-0.1975141465	-2.3540299927	 2.8640495015	-0.168309
O	-0.3969410461	-2.7588058768	 1.5065395765	-0.219663
H	 0.5431787826	 1.9787952275	 0.5697951216	 0.139857
H	-0.7544195682	 1.6856036875	-0.6082924355	 0.133669
H	-1.1333804166	 1.7540075007	 1.1192558141	 0.124083
H	-1.0518477038	-0.6809881629	 0.3921693562	 0.116038
H	 3.4380676457	 1.346394854	 3.126630798	 0.201251
H	 1.7047667976	-2.6542793103	 1.781254174	 0.113829
H	-0.0128646381	-3.1602694162	 3.571218267	 0.1247
H	-0.8565806812	-1.5617769253	 3.215055534	 0.11872
