14
gdb 129718	2.37858	1.90383	1.05801	3.7972	72.92	-0.2001	-0.045	0.155	1037.1385	0.100982	-469.991512	-469.983417	-469.982473	-470.023866	30.617	
N	 0.0500624389	 1.3780819484	-0.0210524472	-0.586936
C	-0.0140767401	 0.0215035147	 0.0205831243	 0.214134
C	-1.1577759	-0.7093975155	 0.1329531067	 0.247987
O	-2.3601944674	-0.0565649506	 0.1689741802	-0.455435
C	-1.0480129416	-2.1266470171	 0.2159074241	-0.0491
N	 0.045929132	-2.8153462413	 0.1886601	-0.108507
O	 1.2214050423	-2.0678102746	 0.0585157661	-0.286418
C	 1.2529588492	-0.6994974499	-0.0394020403	 0.381849
N	 2.3483776122	-0.065064053	-0.1852625888	-0.561522
H	 0.9430752867	 1.7544882972	-0.3039207402	 0.28038
H	-0.7858928094	 1.8901850581	-0.2462944387	 0.268629
H	-3.0781184376	-0.6953657402	 0.2146665414	 0.303939
H	-1.9429413766	-2.7388760004	 0.3159957423	 0.121608
H	 3.1443818912	-0.7003574459	-0.21884182	 0.22939
