11
gdb 3856	3.76089	3.57458	1.84744	3.3198	48.39	-0.2176	0.0039	0.2215	621.7331	0.080403	-372.742461	-372.736144	-372.7352	-372.772777	22.468	
N	 0.2192237066	 1.44773634	 0.1388224108	-0.615505
C	 0.0132019804	 0.0660248167	 0.0070643331	 0.209536
C	-1.0899724136	-0.7627679493	-0.0100955489	 0.328251
O	-2.3846136532	-0.3883477526	 0.0739296062	-0.439677
N	-0.6959257676	-2.049896452	-0.1122026722	-0.277865
N	 0.6165177656	-2.0893806817	-0.1705461691	-0.132131
N	 1.0410752029	-0.8248416899	-0.0853697314	-0.178027
H	-0.522417142	 1.8657819541	 0.6893755905	 0.260749
H	 0.2375329059	 1.9234344096	-0.7588370091	 0.254816
H	-2.9083677635	-1.199311753	 0.0745477784	 0.307557
H	 2.0282443885	-0.6203608519	-0.0863940783	 0.282295
