18
gdb 6906	4.96583	1.00543	0.93529	1.9899	78.75	-0.2413	0.0315	0.2728	1317.3067	0.150091	-347.774231	-347.764534	-347.76359	-347.809716	33.722	
C	 0.1338458625	 1.505892676	 0.0830338329	-0.502208
C	 0.0431523889	 0.053964834	 0.0579831526	 0.129794
C	-0.0350065215	-1.1483876014	 0.0455634936	 0.074931
C	-0.0845202741	-2.5846620345	 0.0079757348	-0.234865
O	-0.6231100039	-3.2741362101	 1.1545751517	-0.282288
C	-1.3476347636	-3.3621568893	-0.078210419	 0.410825
C	-2.6826582649	-2.6538815482	-0.0924742176	-0.456826
C	-1.316411884	-4.7271645965	-0.7315453679	-0.452071
H	 1.1612112139	 1.84243367	-0.0939475519	 0.151729
H	-0.502813067	 1.9599042405	-0.684397238	 0.149963
H	-0.182506478	 1.9022489666	 1.0541194663	 0.154636
H	 0.8104474996	-3.0579257254	-0.398433849	 0.101488
H	-2.605724394	-1.6687763744	 0.3700315033	 0.137952
H	-3.0435698597	-2.5321770327	-1.1193836863	 0.118816
H	-3.4252162809	-3.2428199816	 0.4567175447	 0.122975
H	-2.0301503252	-5.3980772778	-0.2409049151	 0.126126
H	-1.5920184759	-4.660075491	-1.7893005457	 0.121902
H	-0.3220166621	-5.1737584344	-0.6552334293	 0.127122
