16
gdb 125857	3.22401	1.75299	1.21046	4.967	77.09	-0.2319	-0.0386	0.1933	990.7946	0.12722	-396.941011	-396.934086	-396.933142	-396.972344	26.838	
C	-0.0609719417	 1.5646442757	 0.0546655978	-0.392852
C	 0.0089617701	 0.0356135389	-0.0048817852	-0.048548
C	 0.7923094165	-0.5272620347	-1.1803467955	-0.090826
C	 1.8343232922	-1.269201064	-0.76480933	-0.222241
C	 1.8396005013	-1.2815272398	 0.6905670842	 0.350704
C	 2.4156718599	-1.6934718691	 1.8738004318	-0.212574
N	 1.68459975	-1.1733128513	 2.904083366	-0.18987
N	 0.6870607815	-0.4639617249	 2.4301821416	-0.177003
N	 0.7830784493	-0.5323067483	 1.0979867154	 0.062596
H	 0.9425257485	 1.9960845388	 0.017748375	 0.137807
H	-0.6397324724	 1.9464398545	-0.790962085	 0.127197
H	-0.5448194126	 1.8805988097	 0.9820316452	 0.153823
H	-1.006752098	-0.3798043642	 0.0176436775	 0.129521
H	 0.5114399968	-0.3211510159	-2.2043521226	 0.1202
H	 2.5547525529	-1.7788825878	-1.3881199902	 0.127907
H	 3.2797605858	-2.3107518676	 2.0544910639	 0.124157
