15
gdb 2324	7.34964	1.32173	1.23098	3.1647	58.59	-0.251	-0.0259	0.2251	957.0895	0.122543	-345.644179	-345.636418	-345.635474	-345.67703	26.425	
C	 0.1522958239	 1.5240704223	-0.2490099588	-0.420063
C	-0.0894296553	 0.0899637395	 0.1431833837	 0.081112
O	 1.0252649437	-0.8091041288	 0.1017417746	-0.259546
C	 0.4102908679	-0.5541838128	 1.3712669106	 0.047382
C	 1.2628492633	 0.1253070187	 2.4226550022	-0.310631
C	 2.3572279675	-0.8007161245	 2.9236210014	 0.160753
O	 2.5702021493	-1.0389006336	 4.0839767383	-0.236002
H	 1.0703100277	 1.9223198285	 0.1875620738	 0.128502
H	 0.2390653925	 1.6028741486	-1.3375402211	 0.136253
H	-0.6881485183	 2.1516586879	 0.0661963792	 0.127666
H	-1.0010432034	-0.3392724748	-0.2783260884	 0.094274
H	-0.1672310137	-1.3994440775	 1.7517876896	 0.101869
H	 1.7533611118	 1.0070415102	 1.9940861577	 0.12532
H	 0.6550800704	 0.4426282181	 3.2754777105	 0.125687
H	 2.9703113726	-1.2561853919	 2.1152558666	 0.097425
