20
gdb 120073	5.71724	0.88525	0.87348	1.4929	80.58	-0.2326	0.0732	0.3057	1419.2171	0.170644	-403.037098	-403.028861	-403.027917	-403.070689	31.072	
C	-0.0023161091	 1.5223235419	 0.0072826632	-0.385086
C	-0.1618795111	 0.0265946881	-0.2019355591	-0.039458
O	 0.9510141006	-0.4439391201	-0.9457128323	-0.270148
C	 0.9464646241	-1.8242629195	-1.1501843919	 0.158554
C	 0.1551370631	-2.406988165	-2.3363851202	-0.0573
C	 1.1860318345	-1.9124948674	-3.3981011079	-0.056864
C	 1.3000010507	-3.3412765476	-3.9154636599	-0.184413
N	 1.1448571621	-3.6037408493	-2.4174348301	-0.171338
C	 1.9949124758	-2.3325865626	-2.1323464301	-0.061167
H	 0.9213927641	 1.7364917466	 0.5522459351	 0.128105
H	 0.039273018	 2.0420617837	-0.9541343559	 0.126848
H	-0.8453652047	 1.9190884879	 0.5806785782	 0.115656
H	-0.2136293178	-0.498149965	 0.766143184	 0.090615
H	-1.0992384182	-0.1912158034	-0.7383378633	 0.090488
H	 0.8577577728	-2.3870884113	-0.2091199641	 0.077589
H	-0.9148613854	-2.5746178951	-2.4723951859	 0.079141
H	 1.2083491786	-0.9549722374	-3.9244464763	 0.074404
H	 0.4765187361	-3.7452052058	-4.5139888701	 0.100113
H	 2.2633814511	-3.6742969609	-4.3161715731	 0.100941
H	 3.0781923746	-2.4033907479	-2.0225493704	 0.083319
