14
gdb 132059	2.36076	1.87091	1.04466	4.9787	72.22	-0.1964	-0.0294	0.167	1046.2935	0.101344	-477.996715	-477.989099	-477.988154	-478.028653	29.409	
N	 0.0050368464	 1.3975392218	 0.1700955837	-0.587217
C	 0.0091697058	 0.0218542092	 0.0630809438	 0.214202
C	-1.1403751278	-0.7036611322	 0.0402786785	 0.113153
F	-2.3181375005	-0.0624335031	 0.0577266282	-0.078984
C	-1.1838751082	-2.1426199247	-0.005344446	 0.305064
N	-2.2485014962	-2.832081209	-0.0262407904	-0.548314
O	 0.07602109	-2.7610252571	-0.0350440693	-0.24386
C	 1.2183467967	-2.0460958342	-0.0174410514	 0.081521
C	 1.256269039	-0.7068984139	 0.0308063796	-0.251666
H	 0.7905446878	 1.8767559241	-0.2424104539	 0.257326
H	-0.8826671926	 1.8349307404	-0.0285257896	 0.266081
H	-2.0315432934	-3.8270465456	-0.0664145928	 0.221187
H	 2.0905529072	-2.6869780938	-0.0444892951	 0.139287
H	 2.2044633257	-0.186058842	 0.0573017147	 0.11222
