13
gdb 3947	7.36722	2.01723	1.61637	3.7765	55.48	-0.231	0.0251	0.2561	723.6032	0.104126	-340.647778	-340.641417	-340.640472	-340.678405	22.653	
O	 0.5981775115	 0.0663895573	 0.9287013853	-0.424179
C	-0.1290703275	 0.3211125314	-0.2678111141	-0.194739
C	-1.5078746442	-0.2284972942	-0.0885326994	 0.385933
C	-2.7149647773	 0.0322460647	-0.7081070663	-0.319849
C	-3.621677674	-0.8685582788	-0.1091842173	-0.000435
N	-3.0360169839	-1.6263517314	 0.814421082	-0.233486
N	-1.7512093795	-1.2243676573	 0.7964531371	-0.222184
H	 1.5291142683	 0.2340405641	 0.7576218839	 0.296668
H	-0.187386191	 1.3971201099	-0.4888651701	 0.114119
H	 0.3609209399	-0.1603472108	-1.1293467752	 0.112996
H	-2.9087027829	 0.7633903102	-1.4764590919	 0.098042
H	-4.6761448275	-0.9896922873	-0.3100636924	 0.108624
H	-1.0865863618	-1.602240118	 1.4506311284	 0.278489
