19
gdb 83399	2.62759	1.37653	1.14964	2.2255	77.4	-0.2371	-0.0206	0.2165	1158.8509	0.156936	-423.010523	-423.001306	-423.000362	-423.044755	33.715	
C	 0.0252453054	 1.5635591486	-0.1354823723	-0.422471
C	 0.0918276725	 0.0564283678	-0.0454972294	-0.060098
C	 1.3482861285	-0.7634290829	-0.1691907416	-0.180494
C	 2.5041825603	-0.1026215569	 0.574807358	-0.107918
O	 1.7044623938	 0.0602236537	 1.7785636357	-0.327104
C	 0.6197157463	-0.6576408005	 1.1765109415	 0.320922
C	-0.1228344516	-1.6917642534	 1.9395879723	 0.297015
C	 0.2819911736	-1.8753611843	 3.3857550758	-0.480432
O	-0.9968471515	-2.3415624379	 1.4033150056	-0.323008
H	 0.8016144446	 2.0315862211	 0.474026076	 0.136446
H	 0.142821675	 1.9009902372	-1.1704571319	 0.120768
H	-0.9423783707	 1.9238846256	 0.2273041845	 0.126603
H	-0.7621393714	-0.4796935508	-0.4521290087	 0.12226
H	 1.4245331545	-1.6311070594	-0.8106573921	 0.116045
H	 3.3434356978	-0.7803844209	 0.7635072993	 0.116847
H	 2.8794714488	 0.8533818381	 0.1937452814	 0.112499
H	 0.1768322134	-0.9304041517	 3.9301078031	 0.149197
H	-0.3375629337	-2.6470980001	 3.8432267594	 0.136854
H	 1.3406251044	-2.1472222333	 3.4497349235	 0.146072
