25
gdb 119079	2.43441	1.03398	0.8638	1.4306	88.86	-0.2397	0.0811	0.3209	1526.9284	0.227669	-389.489332	-389.478637	-389.477693	-389.525544	39.245	
C	 0.0453623657	 1.6206566753	 0.0779210025	-0.382708
C	 0.0292815513	 0.0897483494	 0.0395193624	-0.1721
C	 0.4694744096	-0.4689432379	-1.3198082036	-0.221326
C	 0.6845816886	-1.9868286417	-1.3542063304	 0.437861
C	-0.6087974453	-2.7751945179	-1.1241670584	-0.226142
C	-0.4328257662	-4.2913127968	-1.0030876975	-0.399752
C	 1.5891136368	-2.4532582254	-2.5288656569	-0.341601
C	 2.6282160846	-2.7539974999	-1.4345564632	-0.0621
O	 1.7156574278	-2.3701835942	-0.3876976907	-0.322894
H	 1.049606355	 2.0109701079	-0.1218476561	 0.113134
H	-0.6286621955	 2.0463411929	-0.6743673264	 0.110184
H	-0.2691878868	 1.9973936284	 1.0562827972	 0.110488
H	 0.6994293183	-0.3102786493	 0.8086104232	 0.118151
H	-0.9781960803	-0.2636369145	 0.2878302611	 0.0952
H	-0.256858433	-0.1965841857	-2.0987553205	 0.088837
H	 1.4168258677	 0.0090227479	-1.6016007236	 0.088109
H	-1.0788802934	-2.4050311756	-0.2062292336	 0.106878
H	-1.3001828297	-2.5348037034	-1.9430508241	 0.094353
H	 0.2755462328	-4.528953341	-0.2052708127	 0.135027
H	-1.3875930486	-4.7702494476	-0.7661750595	 0.110084
H	-0.0649013035	-4.7429580899	-1.9301114946	 0.110801
H	 1.2311896327	-3.3249643191	-3.0779455404	 0.106943
H	 1.8565153302	-1.6697720751	-3.2402825966	 0.103505
H	 2.9380785506	-3.8017419	-1.3412154734	 0.1002
H	 3.5253113005	-2.122118207	-1.447711074	 0.098868
