16
gdb 98650	3.53424	0.98631	0.85947	1.6649	67.24	-0.2732	-0.0467	0.2264	1318.496	0.122519	-475.028079	-475.019368	-475.018424	-475.0627	31.144	
O	-0.4739516313	 1.2692829971	-0.9667781333	-0.419606
C	-1.1083268651	 0.0551904511	-0.7057060875	-0.134799
C	-0.6158339406	-0.5496979232	 0.5950470942	 0.323302
O	 0.2401094349	 0.008363557	 1.247419758	-0.321526
C	-1.2200770443	-1.8510639224	 1.0771668747	 0.026388
C	-2.4182708049	-1.7318223149	 2.0556671684	-0.367877
C	-3.181024317	-2.4283676235	 0.9477535458	 0.439775
N	-4.3552785488	-2.8269465642	 0.797113951	-0.525106
O	-2.0857014073	-2.4946852658	 0.0942535827	-0.258499
H	 0.1493219769	 1.4007268468	-0.2348160143	 0.296117
H	-2.2029254773	 0.1742419907	-0.6455294779	 0.126305
H	-0.9363777569	-0.6816219367	-1.5074316559	 0.135428
H	-0.424465999	-2.5246389463	 1.4049137345	 0.131214
H	-2.3254260288	-2.2964355475	 2.983443166	 0.15662
H	-2.7520330628	-0.7169543054	 2.2778441506	 0.154405
H	-4.4950165177	-3.2685202328	-0.1128413671	 0.237859
