15
gdb 47334	3.27119	1.1934	0.89416	3.4406	81.35	-0.241	-0.0805	0.1605	1223.4309	0.111866	-420.615735	-420.607738	-420.606794	-420.648502	29.789	
O	-0.0911686793	-0.0734114137	 0.0060233459	-0.322385
C	-0.050157847	 1.1391280373	 0.0594860868	 0.369525
C	-1.3194010432	 1.9871757525	 0.0014854361	-0.196855
O	-1.1620704598	 3.2450665781	 0.6305531759	-0.236398
C	-0.1064109342	 4.0049738171	 0.0987948443	-0.17155
C	 1.2085551691	 3.2447351397	 0.0673116644	 0.109276
C	 1.2102622907	 1.8953977106	 0.1065086394	-0.259823
C	 2.3906262489	 4.018902603	-0.0269051036	 0.243458
C	 3.3628815159	 4.7264280672	-0.109004199	-0.380722
H	-1.6096890379	 2.1021868637	-1.0585691938	 0.114584
H	-2.1260046377	 1.4628360659	 0.5172678533	 0.143056
H	-0.3369202528	 4.3579524582	-0.923564403	 0.117384
H	-0.0049780187	 4.8905664645	 0.7323306723	 0.139092
H	 2.131016668	 1.3225324413	 0.1074419768	 0.120162
H	 4.2324974179	 5.3324103447	-0.1829858756	 0.211195
