25
gdb 123136	5.77402	0.41901	0.40266	2.7229	86.97	-0.261	0.073	0.334	2719.9467	0.226285	-426.62999	-426.618023	-426.617079	-426.668482	42.165	
C	 0.0328371481	 1.577311913	 0.063677851	-0.401467
C	 0.0191133588	 0.0484978004	 0.0335307949	 0.136877
O	 0.7578988215	-0.4921494248	 1.1291343041	-0.427809
C	-1.403724521	-0.5228374874	-0.0246687437	-0.194078
C	-1.4461087072	-2.049829923	-0.1328370182	-0.172877
C	-2.8675845514	-2.6214750813	-0.1229137998	-0.188103
C	-2.9017500263	-4.148038747	-0.2406032699	-0.163852
C	-4.314272391	-4.7164129778	-0.2265381232	-0.073643
O	-4.2226451351	-6.1289364134	-0.3435405588	-0.421565
H	 1.0599103653	 1.9472745667	 0.1247756037	 0.122737
H	-0.4367296785	 1.9976601688	-0.8316746449	 0.114451
H	-0.51867849	 1.9532806124	 0.9351259863	 0.103903
H	 0.5702899637	-0.2939479579	-0.8520082648	 0.086821
H	 0.3420011027	-0.1783030723	 1.9401997334	 0.273964
H	-1.9479064115	-0.1983251515	 0.8761343681	 0.078993
H	-1.9319660264	-0.0717420874	-0.8754467199	 0.091352
H	-0.9366205012	-2.3598976156	-1.0557188682	 0.092134
H	-0.8649120767	-2.4783294133	 0.6914529733	 0.108646
H	-3.3755603456	-2.3136242686	 0.8021847485	 0.089362
H	-3.445575726	-2.1771021315	-0.9457328679	 0.089876
H	-2.4095488859	-4.4662045822	-1.1679686004	 0.10373
H	-2.3361210965	-4.6024334235	 0.582151009	 0.104708
H	-4.8224619447	-4.4266936177	 0.7083985356	 0.080922
H	-4.8968113944	-4.2852619957	-1.0578122101	 0.08108
H	-5.1138304406	-6.4896293093	-0.3345454779	 0.283838
