15
gdb 131293	5.96059	0.9151	0.805	2.0906	73.75	-0.2173	0.023	0.2403	1339.4217	0.112699	-416.788024	-416.779793	-416.778849	-416.821684	30.353	
O	 1.0156355946	 1.0759230345	 0.6919270256	-0.428189
C	 0.4112279094	-0.0589217966	 0.2844464846	 0.443863
N	 0.7127271186	-0.6299607246	-0.8741285093	-0.379053
N	-0.106926057	-1.7143578656	-0.9307884971	 0.027201
C	 0.0628757401	-2.6393280037	-2.040028321	-0.267124
C	-1.086869175	-3.5135457324	-2.2299065713	 0.278598
C	-2.0159432934	-4.2554384282	-2.3973406343	-0.424379
C	-0.884268713	-1.8267725146	 0.1706911759	 0.007528
C	-0.5865359189	-0.7596653861	 0.9931782844	-0.345125
H	 1.6440517431	 1.3249352438	 0.0027229742	 0.302745
H	 0.237291222	-2.0354508736	-2.9367869316	 0.162811
H	 0.966996018	-3.2441526727	-1.8846575752	 0.153869
H	-2.8416669945	-4.9054074388	-2.5530445532	 0.209514
H	-1.5866946386	-2.6374977462	 0.2757329581	 0.145649
H	-1.0253581854	-0.5109973053	 1.9441956502	 0.112093
