20
gdb 113458	4.19128	0.93985	0.926	1.0621	79.88	-0.2406	0.0751	0.3156	1369.953	0.170283	-403.0812	-403.072589	-403.071645	-403.114748	32.869	
C	 0.2864114962	 1.5001902299	 0.1643701123	-0.375108
C	-0.284073201	 0.1262348122	-0.2035617037	-0.180662
C	 0.4238485715	-0.4954761547	-1.3854338096	-0.080812
N	 1.7292553622	-1.1446308828	-1.1008780522	-0.390375
C	 0.5946021119	-1.952614817	-1.5432153464	 0.343479
C	 0.0794543292	-3.1681096187	-0.7272791934	-0.331246
C	 0.0541396219	-3.9516726588	-2.0533336401	 0.034435
O	-0.8136435342	-3.2459809422	-2.9483978785	-0.240763
C	 0.5408406701	-2.7880541984	-2.8133408791	-0.086857
H	 1.3486760235	 1.4190830106	 0.4144283378	 0.129238
H	 0.1894373046	 2.2064299106	-0.6680123522	 0.109951
H	-0.2347727545	 1.9285286999	 1.0258348679	 0.111371
H	-0.1983015158	-0.5518678093	 0.6524868393	 0.104141
H	-1.3532090994	 0.2109296319	-0.4368518374	 0.100745
H	 0.3562138362	 0.0783840636	-2.3105899847	 0.08109
H	 2.3803746407	-0.9942943403	-1.8688513895	 0.228141
H	 0.8369187448	-3.5202487138	-0.0230343527	 0.119961
H	-0.8875446221	-3.0723607568	-0.2281704444	 0.11324
H	 0.1924891253	-5.0124459822	-2.2249383851	 0.107499
H	 1.140705299	-2.7145805036	-3.7147036083	 0.102535
