20
gdb 7275	2.7045	1.42147	1.18355	4.5315	75.61	-0.2177	0.0391	0.2568	1125.375	0.175482	-345.188664	-345.178949	-345.178005	-345.223191	34.727	
C	-0.0377963018	 1.6136564706	-0.1465432939	-0.411399
C	 0.0665965049	 0.0837802956	 0.0004836943	 0.050358
C	 0.6968545683	-0.527252682	-1.2750853665	-0.358789
C	 0.686160988	-1.9879217967	-1.269877886	 0.275389
N	 0.6614664733	-3.1428954136	-1.2869759272	-0.312115
N	 0.7613162797	-0.3950164955	 1.1952732174	-0.032464
C	 2.0769376046	 0.1749593477	 1.4369926491	-0.329348
C	-0.0603730405	-0.3859390361	 2.3934317162	-0.325592
H	 0.9401782279	 2.071132868	-0.3274740547	 0.121815
H	-0.6909943366	 1.8795277107	-0.9835783994	 0.11982
H	-0.4573891128	 2.061935524	 0.7585342297	 0.126888
H	-0.9505573134	-0.3179879399	 0.0689561737	 0.097619
H	 0.1477683888	-0.1772280782	-2.1563715856	 0.147392
H	 1.7291865672	-0.1815028971	-1.3981722207	 0.146949
H	 2.056074895	 1.2315736495	 1.7597832278	 0.096637
H	 2.5757053958	-0.4008824774	 2.2229792833	 0.128
H	 2.7008036806	 0.1084319119	 0.5411548812	 0.116898
H	-1.0009767338	-0.9120462345	 2.2047771188	 0.125053
H	 0.4643969646	-0.9151298475	 3.195443621	 0.124069
H	-0.30070515	 0.6269363906	 2.7684606516	 0.09282
