19
gdb 85226	2.67758	1.4849	1.09274	2.1713	75.64	-0.2374	-0.0101	0.2273	1131.8741	0.158826	-423.051192	-423.042497	-423.041553	-423.084287	33.35	
C	-0.1406920083	 1.5485706305	 0.1183060817	-0.481745
C	 0.0443260926	 0.0593974856	-0.0243988063	 0.214492
C	-0.8645928	-0.9198634212	 0.7125786524	-0.318102
C	 0.5879579474	-0.8700388341	 1.0574271938	-0.077039
C	 1.4695105208	-1.9309115937	 0.4141461356	 0.108255
O	 1.2216493799	-3.1837799588	 1.0342365931	-0.432792
C	 1.1277725988	-1.8819683442	-1.0922639181	-0.389322
C	 0.572355246	-0.4701122484	-1.3243467193	 0.365777
O	 0.6258509906	 0.1494535304	-2.3583965365	-0.330224
H	 0.796262597	 2.0822592168	-0.0694930518	 0.127598
H	-0.8756738362	 1.9142037957	-0.6049374701	 0.137936
H	-0.4887187052	 1.8075969446	 1.1224736155	 0.112955
H	-1.5580785175	-0.4643364596	 1.4109797186	 0.122137
H	-1.2605152775	-1.7865680583	 0.1958772294	 0.126904
H	 0.8860954508	-0.4719991995	 2.0206576058	 0.095527
H	 2.521828409	-1.6408582868	 0.5546941323	 0.076393
H	 1.8446076537	-3.8235510554	 0.674775919	 0.284324
H	 1.9752338393	-2.0702151049	-1.7542697135	 0.122531
H	 0.3551276987	-2.6252581787	-1.3209177417	 0.134395
