19
gdb 94901	2.77057	1.66697	1.26784	1.7835	76.7	-0.2386	0.0043	0.2429	1035.9809	0.1604	-423.0252	-423.017295	-423.016351	-423.057693	30.253	
C	-0.1038224371	 1.5666618341	 0.0976272149	-0.390952
C	 0.0240847514	 0.0524054086	-0.0080466795	 0.093638
O	 0.8951913144	-0.3502835155	-1.0894980063	-0.292139
C	 2.2420741763	-0.5591248575	-0.624070037	-0.172617
C	 2.1376096222	-0.4449741006	 0.8588167563	 0.290754
C	 2.8115309048	 0.0224895075	 1.9002736259	-0.272673
C	 1.8498983094	 0.1832504644	 3.0581859358	-0.111299
O	 0.5440731294	 0.0090829643	 2.4885148481	-0.277976
C	 0.6882951283	-0.6063381349	 1.2221924173	 0.047509
H	 0.8551763603	 2.029395393	 0.3491741635	 0.114969
H	-0.4482902524	 1.9767070192	-0.8554215011	 0.11904
H	-0.8216871911	 1.8321548784	 0.8791194545	 0.126045
H	-0.9497427758	-0.3906409714	-0.2379618214	 0.082297
H	 2.5700587949	-1.5511115323	-0.9626095705	 0.116027
H	 2.9210996877	 0.1859175663	-1.0581201292	 0.115246
H	 3.853169667	 0.313334935	 1.94977362	 0.108921
H	 2.0152705753	-0.5548663882	 3.8606418714	 0.105951
H	 1.9088068652	 1.1804323821	 3.5140815284	 0.115169
H	 0.3811434597	-1.6643523826	 1.273473239	 0.082091
