15
gdb 1138	5.15746	1.88265	1.80689	3.2015	57.32	-0.2398	-0.0195	0.2203	748.7937	0.122494	-345.664882	-345.657621	-345.656677	-345.695982	27.38	
C	-0.2629530428	 1.5713607942	-0.0474454212	-0.447212
C	 0.0104665214	 0.0724361211	-0.0034687081	 0.406281
O	-1.1764433792	-0.6811653125	-0.1569194138	-0.472524
C	 1.2167781223	-0.3802411644	-0.9044500637	-0.400487
C	 2.0311554985	-0.5692174288	 0.3831392948	 0.410787
O	 3.1965598149	-0.7135839966	 0.6136579945	-0.291777
C	 0.7856558976	-0.4013975094	 1.2618771741	-0.376749
H	 0.6504572119	 2.1495505078	 0.1252509604	 0.125572
H	-0.657322569	 1.8655298229	-1.0279619319	 0.111489
H	-0.9968082525	 1.8459185526	 0.7161335456	 0.130556
H	-1.6260378015	-0.3772471035	-0.9530049248	 0.278367
H	 1.0096991455	-1.3392885652	-1.3902429801	 0.134064
H	 1.6166183282	 0.3226427941	-1.6402069866	 0.121145
H	 0.8624579973	 0.2833730846	 2.1097789599	 0.12635
H	 0.4069992672	-1.367269027	 1.611330951	 0.144139
