14
gdb 34354	3.0422	1.6197	1.3181	2.1733	65.34	-0.2726	-0.005	0.2676	939.1052	0.1011	-436.61493	-436.608133	-436.607188	-436.64619	26.174	
N	-0.0302095646	-1.1788991931	-0.0037771452	-0.33156
C	-0.014358548	-0.0220821923	 0.0013438776	 0.198334
C	-0.0045759942	 1.4143436775	 0.0267214447	 0.095955
C	-0.3708447614	 2.222068874	-1.2529112361	-0.114844
O	 0.8787347246	 2.9520463758	-1.2040185507	-0.269619
C	 1.3018257348	 2.2697605854	-0.025806775	 0.039631
C	 0.8961073347	 2.9238490708	 1.3280653612	 0.010239
O	-0.4007765081	 3.500877093	 1.1534682533	-0.21504
C	-0.331404919	 2.1070477627	 1.3920986434	-0.047553
H	-0.4358269926	 1.605792408	-2.1543279773	 0.129443
H	-1.239228146	 2.8777813054	-1.159988948	 0.134306
H	 2.3014415298	 1.8344390911	-0.0799925597	 0.112237
H	 1.5259030513	 3.3410521768	 2.1044420052	 0.126671
H	-0.8893036613	 1.6889496548	 2.2209973168	 0.1318
