20
gdb 95663	2.89991	1.22115	0.92258	3.7197	83.51	-0.2133	-0.0516	0.1616	1291.1421	0.172336	-403.167086	-403.158341	-403.157397	-403.20099	33.212	
C	 0.5440203448	 1.6279301119	 0.0332198371	-0.398236
C	-0.1004562433	 0.2331436374	-0.0895132418	-0.052679
C	 0.4253495389	-0.4904996754	-1.3410515353	-0.166304
N	-0.0777155397	-1.8329060544	-1.5734014246	-0.285074
C	 0.6221158906	-2.9012747088	-0.8923864294	-0.287489
C	 0.6887339541	-2.9447666656	 0.6424031091	 0.34177
O	 1.0366014144	-3.9831818342	 1.1743334235	-0.32337
C	 0.3497963004	-1.7827486815	 1.4997811216	-0.167547
C	 0.027948009	-0.51353765	 1.2099094697	-0.020812
H	 1.6215156097	 1.5449221592	 0.2112106291	 0.126538
H	 0.3964787372	 2.202535411	-0.8864395017	 0.120941
H	 0.1103049459	 2.1983908891	 0.8599489557	 0.119683
H	-1.1826771487	 0.3951407125	-0.2362168878	 0.092173
H	 0.1868337518	 0.1374453911	-2.2100857384	 0.101026
H	 1.5205457991	-0.5476391734	-1.2946799978	 0.106519
H	-1.0773249576	-1.8844628235	-1.4143719623	 0.218493
H	 0.2047819373	-3.8655037581	-1.2004443611	 0.131841
H	 1.6657958304	-2.9106971489	-1.2374907617	 0.134925
H	 0.3835357373	-2.0664063008	 2.5493246813	 0.105308
H	-0.1915250716	 0.1166436724	 2.0730637749	 0.102295
