20
gdb 92724	3.19733	1.30137	1.02925	1.9848	80.75	-0.2244	0.0163	0.2407	1201.1112	0.172347	-403.14078	-403.13231	-403.131366	-403.173544	33.237	
C	 0.1944846464	 1.4956480606	 0.1065414703	-0.493385
C	-0.0012934585	 0.0109835575	-0.0272434893	 0.391199
C	-0.1094788529	-0.6179563397	-1.2005684163	-0.188408
C	-0.2612500719	-2.1119661683	-1.3215977525	-0.286913
C	-0.9894382706	-2.7686299124	-0.1313850592	 0.132561
O	-0.8151326303	-4.1813497029	-0.1367235208	-0.441997
C	-0.5807501944	-2.173321535	 1.1978293249	-0.062458
N	 0.8627744523	-1.9353039822	 1.3727699317	-0.349611
C	-0.0719080129	-0.779407171	 1.2368909852	-0.14595
H	 1.135243248	 1.7261495634	 0.6231400854	 0.127078
H	 0.2145456831	 1.986889897	-0.8696405725	 0.122364
H	-0.6074671105	 1.9536499815	 0.700320416	 0.121195
H	-0.0387770934	-0.0469473979	-2.1232943054	 0.080919
H	-0.7860241491	-2.3785667846	-2.2444465568	 0.105619
H	 0.7351907734	-2.5692940962	-1.3950717808	 0.116814
H	-2.0695553012	-2.6173910118	-0.2453253265	 0.091215
H	 0.1175459671	-4.3401268018	 0.0516188438	 0.282
H	-1.1455160084	-2.5387115608	 2.0528026331	 0.086566
H	 1.1144482612	-2.0501081941	 2.3517055774	 0.231616
H	-0.2620765374	-0.2072893012	 2.1421383922	 0.079574
