18
gdb 29574	2.8141	1.34349	0.96664	1.6316	77.77	-0.2218	0.0189	0.2407	1212.7466	0.148731	-401.94934	-401.940976	-401.940032	-401.98321	30.863	
C	-0.0280720794	 1.5315654666	 0.0048605598	-0.504046
C	-0.0306168816	 0.035055731	-0.0049340171	 0.151197
C	-0.04902151	-0.7882501535	-1.0852638331	-0.094113
O	-0.0483457705	-2.0958974847	-0.7083897194	-0.148101
C	-0.0252694748	-2.1069901757	 0.6494563887	-0.113571
C	-0.0222746791	-0.8403778697	 1.1470316521	 0.157012
C	 0.0051611729	-0.4243415774	 2.5681254672	-0.127743
C	-1.2579548542	-0.1481453945	 3.310299325	-0.229561
N	-0.4430221457	-1.3304048927	 3.6388269334	-0.318424
H	 0.8812964978	 1.931443866	 0.4688180152	 0.130989
H	-0.085574774	 1.9328213535	-1.0105873457	 0.125575
H	-0.8765367122	 1.9300713409	 0.5724404597	 0.13246
H	-0.0682497145	-0.6061010076	-2.1476729033	 0.134738
H	 0.0044536562	-3.0813870968	 1.1092422283	 0.137284
H	 0.8769130315	 0.1619058377	 2.8559106847	 0.101814
H	-1.2792867921	 0.6214594287	 4.0767046351	 0.118822
H	-2.1940034978	-0.2954838415	 2.7787755258	 0.114601
H	-0.8764342126	-2.1524215302	 3.2249581237	 0.231068
