21
gdb 102510	1.74231	1.3229	0.8635	2.4089	80.36	-0.2579	0.0228	0.2807	1407.5548	0.179686	-424.183306	-424.172414	-424.17147	-424.219305	39.616	
C	-0.1596949122	 1.2795039919	 0.9018833222	-0.389612
C	-0.150184502	-0.1203793186	 0.2761277094	-0.197215
C	 0.5243150185	-0.1851318907	-1.1038379051	-0.016159
C	 2.014681907	 0.2246257443	-1.0177242636	-0.074798
O	 2.7808649545	-0.1500514476	-2.14905873	-0.426596
C	 0.4225135191	-1.5805109524	-1.7727013243	-0.089578
O	 1.3329604426	-2.5229966134	-1.1883057827	-0.440496
C	-0.9423484989	-2.1047080349	-1.8150831148	 0.289892
C	-2.0614484834	-2.544450359	-1.8324123762	-0.413306
H	 0.8498795905	 1.6457643134	 1.1117095385	 0.12285
H	-0.6441520027	 2.0029752485	 0.2366312475	 0.118769
H	-0.7104355878	 1.2780241779	 1.8474809065	 0.114896
H	 0.3574612289	-0.8160210327	 0.9601743846	 0.083416
H	-1.1807097291	-0.4781296673	 0.1816409049	 0.114002
H	 0.0047168883	 0.5083033104	-1.7791429991	 0.085381
H	 2.0907410736	 1.3131704256	-0.9435149867	 0.112005
H	 2.4470767773	-0.1960532258	-0.0981572423	 0.088403
H	 2.9325934258	-1.0989110822	-2.0682547842	 0.296095
H	 0.7835928645	-1.4665645094	-2.7993479257	 0.13143
H	 0.9746229071	-2.796062726	-0.3369649518	 0.290825
H	-3.0476677817	-2.9379216518	-1.8633445072	 0.199797
