20
gdb 118922	2.54568	1.07788	0.97965	3.1007	76.05	-0.2454	0.0185	0.264	1344.087	0.169061	-440.310017	-440.299733	-440.298789	-440.34605	36.385	
C	 0.0183342194	 1.5595283132	 0.0160965231	-0.385182
C	 0.0100671562	 0.0295020088	-0.0175689892	-0.171482
C	-1.4055485558	-0.5519969639	 0.0850991048	-0.212987
C	-1.4372464916	-2.0768035945	 0.0579760944	 0.262449
O	-0.7275030969	-2.5606024762	 1.1720447076	-0.472766
C	-2.8609247021	-2.7010952291	-0.1950370246	-0.21975
N	-2.3568816594	-3.1362569742	-1.5006135137	-0.324367
C	-1.0632428968	-2.7217919411	-1.3186719454	 0.348184
O	-0.0555442311	-2.851913874	-1.9644429163	-0.366439
H	 1.038144728	 1.9509964005	-0.0494472524	 0.113314
H	-0.5527823515	 1.9811029605	-0.8190438195	 0.110659
H	-0.4247176445	 1.9402267598	 0.9435917026	 0.110946
H	 0.4793393954	-0.3291338208	-0.9405736704	 0.121701
H	 0.6098636683	-0.3675400822	 0.8073974196	 0.112671
H	-1.8780592785	-0.2232560284	 1.0207510903	 0.103519
H	-2.0301649863	-0.1746202871	-0.7344395231	 0.098102
H	-0.3349418013	-3.4113718346	 0.9511405088	 0.294135
H	-3.0969690945	-3.5188465971	 0.4926979319	 0.111825
H	-3.6948547237	-1.9943340399	-0.2429514256	 0.112087
H	-2.7845081036	-3.6652391198	-2.245865903	 0.25338
