21
gdb 93021	2.20932	1.82472	1.19736	1.4141	83.13	-0.2228	0.0204	0.2432	1103.6775	0.183197	-387.095564	-387.087045	-387.086101	-387.127954	34.453	
C	 0.1009720139	 1.5881901055	-0.0259253743	-0.414722
C	 0.0352455288	 0.0558432548	 0.0005750736	-0.024512
C	 0.5374124447	-0.5473694207	-1.3284042988	-0.279396
C	 0.7596129739	-2.037253982	-1.2676467942	-0.098462
C	 1.0630100752	-2.6665712347	-0.1311550912	-0.035528
C	 1.2186827816	-1.9456195849	 1.1541573082	-0.126685
C	 2.2235891041	-0.788523524	 1.2470658261	-0.357722
C	 0.7434282817	-0.5217725835	 1.2204086614	 0.415206
O	 0.1455151031	-0.1794364501	 2.4465425271	-0.481273
H	 1.1383953556	 1.9357867872	-0.0963030073	 0.113457
H	-0.4451867059	 1.9906373811	-0.8851970423	 0.114803
H	-0.3451850852	 2.0226717227	 0.8746989514	 0.106381
H	-1.016253588	-0.2391322403	 0.1191608507	 0.085771
H	-0.1874207314	-0.306005867	-2.1148404185	 0.103693
H	 1.4677126828	-0.0444838015	-1.6345577017	 0.10632
H	 0.686570545	-2.5944133935	-2.1973805411	 0.085449
H	 1.2261815305	-3.7407418263	-0.1243416373	 0.085986
H	 1.0918775136	-2.5216368986	 2.064126855	 0.094958
H	 2.7259276711	-0.6498309805	 2.1981298413	 0.110493
H	 2.8283133706	-0.5844161822	 0.370201261	 0.115057
H	 0.4000150542	 0.7255201183	 2.6568740208	 0.280726
