20
gdb 56595	2.91476	0.96704	0.9137	4.3187	79.57	-0.2432	0.021	0.2641	1378.6828	0.171416	-399.310308	-399.300419	-399.299475	-399.345311	36.556	
N	 0.0019670118	 1.4128999237	 0.2854005558	-0.505309
C	 0.043789609	-0.0074086887	-0.0631305376	-0.13439
C	-1.3040454153	-0.5760474298	 0.0975169412	 0.291169
N	-2.362940834	-1.0362326897	 0.1517644098	-0.325524
C	 0.5701061297	-0.36770258	-1.5011166886	 0.002095
N	-0.2336785275	 0.1706915941	-2.5933640316	-0.516227
C	 2.0136209796	 0.0625659234	-1.6527550996	 0.02591
C	 3.126275047	-0.7938651055	-1.0969599582	-0.276093
C	 2.9259359949	-0.6817783337	-2.5877173789	-0.269764
H	 0.9434842212	 1.7907460893	 0.2904086261	 0.241479
H	-0.5349144989	 1.9290432451	-0.4056346057	 0.229316
H	 0.6975803154	-0.5035627169	 0.664593041	 0.132089
H	 0.5295996945	-1.4624199015	-1.5777096142	 0.094968
H	-1.2102930695	-0.0903821552	-2.4881114925	 0.244263
H	-0.1876466953	 1.1851651841	-2.613747369	 0.219428
H	 2.1661779074	 1.1387945331	-1.601370739	 0.073229
H	 3.98323567	-0.3027834358	-0.6496411206	 0.115385
H	 2.8559521558	-1.7310278373	-0.6205972872	 0.116433
H	 2.5121148284	-1.5356752871	-3.1126510999	 0.12531
H	 3.6466625757	-0.1124848716	-3.1635252613	 0.116231
