17
gdb 19593	4.16663	1.99465	1.85893	1.7371	66.72	-0.2221	0.0779	0.2999	774.3517	0.145017	-363.796139	-363.790001	-363.789057	-363.825889	25.961	
O	-0.0474798824	 1.4281756364	-0.0443397995	-0.457268
C	 0.0488428554	 0.0170041447	-0.0364056491	 0.152551
C	 0.1440784244	-0.6246449969	 1.3884496049	-0.094017
C	-1.3792158936	-0.260037665	 1.5171776576	-0.222666
C	-1.3646531638	-0.620284648	-0.0137920737	-0.05774
C	-1.0559935791	-2.1267182656	 0.0772441683	-0.040329
N	 0.3203941841	-2.5267191808	-0.3157841044	-0.343119
C	 0.0285216739	-2.1298647112	 1.0871374657	-0.038482
H	 0.8415076741	 1.7787437343	 0.066737828	 0.281469
H	 0.7493193591	-0.3391049388	-0.7917849639	 0.093521
H	 0.8900701912	-0.2966808524	 2.1137208524	 0.054521
H	-1.9905431947	-0.8844273327	 2.1748325198	 0.081719
H	-1.5526061528	 0.7984411921	 1.7038586614	 0.116514
H	-2.1391445988	-0.285999832	-0.7034409789	 0.066658
H	-1.8562402036	-2.8572663546	 0.0507352164	 0.090194
H	 0.3544238583	-3.5436912359	-0.3557782971	 0.226906
H	 0.1098165184	-2.8641299136	 1.880683042	 0.089568
