14
gdb 34277	3.83117	1.52807	1.23399	3.1124	72.6	-0.252	-0.0814	0.1706	951.4438	0.101102	-395.596618	-395.589869	-395.588925	-395.62761	26.614	
N	 0.1301354585	-1.0751896875	 0.1482293663	-0.325922
C	 0.0428053521	 0.0736536451	 0.0378312002	 0.19545
C	-0.0830687113	 1.4981323098	-0.0797406403	 0.165322
C	-1.3613745868	 2.2234886081	 0.4323388969	-0.230947
N	-0.9870618054	 3.6377483087	 0.2075239118	-0.141308
C	-0.0405921869	 3.5997205099	-0.6384891948	 0.114621
N	 1.3217527731	 3.8339795511	-0.1094589787	-0.338466
C	 1.3246768812	 2.2926001078	-0.2788361935	-0.044247
C	 0.3012977798	 2.2294159623	-1.3288484953	-0.193208
H	-2.2532460681	 1.8582195786	-0.0961112848	 0.133612
H	-1.5290956925	 2.1129964495	 1.5070325392	 0.15179
H	 1.9608174177	 4.1270089031	-0.8577784291	 0.236526
H	 2.2575412614	 1.751704604	-0.1554097919	 0.143769
H	 0.2928913373	 1.9162109097	-2.364169926	 0.133006
