18
gdb 103246	2.59161	1.62401	1.22234	2.6169	71.39	-0.2221	0.0565	0.2787	1042.6951	0.146831	-438.963254	-438.955068	-438.954124	-438.995925	32.222	
O	 0.2793683786	 1.0223555936	 1.0034319473	-0.418489
C	 0.0598667873	 0.1401081218	-0.095585994	-0.220612
C	-1.2825581517	-0.5368200433	 0.0825456006	 0.410547
O	-2.3210743648	 0.2008605485	-0.5307669775	-0.466267
C	-1.5645334171	-1.9951948103	-0.0597111487	-0.134783
C	-0.6388428236	-2.8963507593	 0.7854753805	-0.065778
C	 0.2765369088	-2.2467782276	 1.7675997361	-0.257525
N	-1.1545330173	-2.3244317768	 2.0826347128	-0.14035
C	-1.9108149784	-1.3211481009	 1.2516060541	-0.071981
H	 1.0566832656	 1.5555904786	 0.8091501217	 0.290775
H	-0.0031683612	 0.696206287	-1.0416479056	 0.103401
H	 0.8676649016	-0.5938892635	-0.1948834681	 0.103914
H	-2.4160651815	 1.0175567736	-0.026322708	 0.291015
H	-2.2211286967	-2.3854792021	-0.8263076673	 0.103789
H	-0.6198361499	-3.9716513713	 0.6371464133	 0.103761
H	 0.8581792033	-2.9408183531	 2.3706972536	 0.11703
H	 0.7392453506	-1.2782527456	 1.6439163029	 0.147699
H	-2.8684566135	-0.9810335392	 1.6237468264	 0.103855
