21
gdb 83384	2.62089	1.68328	1.51417	1.5507	81.48	-0.2453	0.069	0.3143	1002.4411	0.185436	-387.040655	-387.033305	-387.032361	-387.071749	31.306	
O	 0.0300644858	 1.5101212987	-0.1206777625	-0.45948
C	-0.0253313951	 0.112776531	-0.0172327554	 0.155826
C	 0.1807159773	-0.6152377358	 1.3285651292	-0.110797
C	-0.9672526677	 0.036656502	 2.1705364273	-0.232542
C	-2.1582510401	 0.0641602078	 1.1189300727	-0.349628
C	-1.410325549	-0.6540410215	 0.0042013574	 0.323604
C	-1.680412806	-1.5478162182	-1.2171365539	-0.340463
C	-0.5091196154	-2.4666427739	-0.7005566349	-0.278903
C	-0.6274567192	-1.7882724558	 0.7127928882	 0.000706
H	-0.4972792031	 1.9004883118	 0.5827670681	 0.282634
H	 0.6319853944	-0.2543831865	-0.8035531924	 0.082851
H	 1.1506893463	-0.6978641902	 1.8240712307	 0.056351
H	-1.21609651	-0.5623915714	 3.0503187969	 0.104339
H	-0.6924039256	 1.0338760163	 2.5302133016	 0.092859
H	-3.0307396757	-0.4917805777	 1.4714497455	 0.101645
H	-2.488323014	 1.0808960857	 0.8771998334	 0.090814
H	-2.6446911863	-2.0634561221	-1.1678940821	 0.10136
H	-1.575531362	-1.094254599	-2.2068799078	 0.100318
H	-0.7261705442	-3.5363758834	-0.6881822989	 0.100241
H	 0.4358740629	-2.3235657995	-1.2273410323	 0.112889
H	-1.1609414932	-2.4198705182	 1.4278829893	 0.065376
