21
gdb 85816	1.98765	1.47812	1.33012	1.3738	84.	-0.2483	0.0408	0.2892	1153.4108	0.179894	-387.054751	-387.044731	-387.043787	-387.088854	38.324	
C	-0.4727369785	 1.3986038578	-0.0275080673	-0.409816
C	-0.0969427698	-0.0807943575	-0.0183916575	-0.020527
C	 1.1213712385	-0.4605197747	-0.9081379493	-0.276286
C	 2.0425738152	-0.5568579664	 0.3613134491	 0.078811
C	 2.9278868924	-1.8012354432	 0.4856658512	-0.458874
C	 2.8137903979	 0.6553247164	 0.5902766446	 0.300604
C	 3.4306213319	 1.6611059646	 0.8345629844	-0.475339
C	 0.7193341471	-0.5490883656	 1.228916701	 0.113411
O	 0.6842417393	 0.1883462284	 2.4144640002	-0.428493
H	 0.4055100644	 2.0424399632	 0.0822135094	 0.121072
H	-0.9603314955	 1.6643792993	-0.9712218982	 0.112348
H	-1.1628133879	 1.6279020649	 0.7902253988	 0.124622
H	-0.99301114	-0.6818259168	-0.1993358987	 0.069382
H	 1.0165629586	-1.4353571823	-1.3911990451	 0.100627
H	 1.4236821368	 0.2735898374	-1.6575409489	 0.107524
H	 3.7373656004	-1.7846506263	-0.2507388259	 0.125446
H	 3.3765961871	-1.8598543264	 1.4819054527	 0.132668
H	 2.3330649026	-2.705311784	 0.3209433116	 0.113776
H	 3.9957606863	 2.5414206109	 1.0191537592	 0.200047
H	 0.4623045256	-1.5782094693	 1.498297989	 0.085429
H	 1.1949075878	 0.9962639497	 2.2729002295	 0.283569
