11
gdb 1009	9.37045	2.03398	1.67122	3.6066	62.77	-0.2204	-0.0156	0.2049	686.5481	0.080084	-302.30389	-302.298152	-302.297208	-302.333219	21.45	
C	 0.0741151584	-1.1660729656	-0.0047406068	-0.410026
C	-0.0162451924	 0.0342644832	 0.0032772628	 0.277732
C	-0.083218041	 1.4458518288	 0.0121009105	 0.187192
N	-1.1737001592	 2.1967984299	 0.0304660144	-0.297511
C	-0.7289350713	 3.4898776152	 0.031992896	-0.091558
C	 0.6443755155	 3.5353555065	 0.014428337	-0.102095
N	 1.0466396049	 2.2261775155	 0.0018107368	-0.283066
H	 0.1357739421	-2.226195698	-0.0116183572	 0.19861
H	-1.4185650986	 4.3200134975	 0.0456228458	 0.112262
H	 1.3487651456	 4.350343005	 0.0098807338	 0.134545
H	 1.9933154558	 1.8848837319	-0.0124071731	 0.273914
