18
gdb 68906	2.66187	1.56608	1.20112	4.9949	71.98	-0.2469	0.0504	0.2972	1076.6115	0.147012	-439.133813	-439.125309	-439.124365	-439.166411	32.785	
C	-0.0264528372	 1.5763744755	-0.0466047837	-0.469009
C	-0.0211453254	 0.0731416865	 0.0448914774	 0.272289
C	 1.2097603554	-0.7744590188	-0.2708342919	-0.394102
C	 0.630376489	-0.7531327854	 1.1262288761	 0.384937
C	 1.3674273108	-0.2528992075	 2.333091236	-0.468778
O	-0.2617778982	-1.8170880446	 1.4333889144	-0.273719
C	-1.3654433459	-1.7548394274	 0.6168110191	 0.451384
O	-2.2231041925	-2.5916748748	 0.5942848924	-0.387003
N	-1.2815062008	-0.5938307337	-0.1241722106	-0.409298
H	 0.9482880175	 1.9875805362	 0.2283230532	 0.127169
H	-0.2417166758	 1.9057790233	-1.0696008055	 0.126303
H	-0.785143424	 2.0046681327	 0.6156056095	 0.134048
H	 1.0852670796	-1.6696640499	-0.8707218306	 0.126017
H	 2.1484687306	-0.2486596957	-0.4114274448	 0.11926
H	 2.0096310138	 0.5919591098	 2.072015594	 0.123711
H	 0.6674332776	 0.0661188973	 3.1111122238	 0.13599
H	 2.0004864017	-1.0443177127	 2.74620277	 0.141507
H	-1.8324113162	-0.5290851309	-0.9651270588	 0.259294
