16
gdb 52988	3.31032	1.01073	0.8421	2.683	81.74	-0.2374	0.0132	0.2505	1381.5232	0.122798	-400.695343	-400.686626	-400.685681	-400.73007	31.317	
C	-0.0303672525	 1.5131000269	-0.0363267739	-0.509834
C	-0.0200071973	 0.058914357	-0.0139780977	 0.250131
C	-0.00411118	-1.1454953585	 0.0114105926	-0.183222
C	 0.0285223519	-2.5634262589	 0.0495267921	 0.051273
C	-0.3161571682	-3.4666578363	-1.161353931	-0.326044
C	-1.0639779656	-3.6327343668	 0.1029985578	 0.044633
O	-0.2836313398	-4.433401451	 1.02039028	-0.273112
C	 0.7009682812	-3.4425805404	 1.0685690077	 0.388365
N	 1.7242705724	-3.3486399299	 1.7795938775	-0.547894
H	 0.8303776549	 1.9154064497	 0.5089827807	 0.158463
H	 0.0171136556	 1.8976892402	-1.0610849972	 0.149922
H	-0.9362700487	 1.9152960508	 0.4307654597	 0.149967
H	-0.8215883766	-2.9282814528	-1.9562061878	 0.140628
H	 0.380480757	-4.2367586811	-1.4769738043	 0.136582
H	-2.1269716189	-3.5536387257	 0.2818080769	 0.136234
H	 1.8267438846	-4.1585574233	 2.3931471471	 0.233906
