17
gdb 72675	2.35899	1.51871	1.45969	4.5227	72.93	-0.2447	-0.0087	0.236	1016.4516	0.135732	-417.974346	-417.966039	-417.965095	-418.007216	31.069	
C	-0.211395998	 1.5574965941	 0.0005932872	-0.462466
C	 0.0243948548	 0.0691579049	 0.0169316731	 0.212328
C	-1.1828568204	-0.8823708537	 0.1849544944	-0.117034
O	-0.5110142958	-1.6386829109	 1.2255460458	-0.322581
C	 0.6409033471	-0.7829243643	 1.185872442	 0.268732
C	 1.7058142948	-1.2748778154	 0.1785630105	-0.219629
N	 1.1007395393	-0.4181003853	-0.8759929606	-0.352972
C	 1.0437926233	-0.2787103338	 2.4831708866	 0.235203
N	 1.3781622201	 0.1503492775	 3.503297278	-0.338402
H	 0.7345809651	 2.0969229601	 0.0891450892	 0.141006
H	-0.6774700206	 1.8515973255	-0.9474100316	 0.127608
H	-0.8746353724	 1.8643321041	 0.8149370891	 0.131934
H	-2.0950756402	-0.4113819697	 0.5706209476	 0.116986
H	-1.4311847772	-1.501990393	-0.6849428649	 0.105312
H	 2.7372898285	-0.9880650894	 0.406973989	 0.127535
H	 1.6496856527	-2.3576718711	 0.0291291096	 0.122979
H	 0.7828447887	-0.9076242996	-1.705792705	 0.223461
