14
gdb 129857	5.42114	1.27993	1.03789	5.4112	72.49	-0.1908	0.0043	0.1951	1060.0539	0.104897	-429.049815	-429.042766	-429.041822	-429.080913	27.573	
N	 0.1282053972	 1.3784071923	 0.1360552097	-0.600926
C	-0.0173677136	-0.0052006604	 0.027238105	 0.369069
C	-1.1637300781	-0.7834642262	 0.0029744981	-0.415402
C	-0.6870208654	-2.1275991873	-0.0028345523	 0.384672
C	 0.6993486503	-2.1101396266	 0.0072031492	 0.357711
N	 1.1220127589	-0.7936300931	 0.0024203535	-0.428451
N	 1.2174121357	-3.3514538422	-0.0198180967	-0.308107
N	 0.2065688544	-4.1871083512	-0.0398804397	-0.144645
N	-0.9539931036	-3.4551292255	-0.035355555	-0.360812
H	 0.722968455	 1.7779290502	-0.5817818595	 0.2527
H	-0.7650054716	 1.8522950176	 0.1328542673	 0.256062
H	-2.1747762224	-0.4125153343	-0.0370314207	 0.097307
H	 2.0382876417	-0.4622117928	 0.2503542024	 0.269248
H	-1.8289393884	-3.9498923406	-0.0589346412	 0.271575
