22
gdb 102103	2.25909	1.15212	0.863	2.5915	83.43	-0.2298	-0.0238	0.206	1428.698	0.191411	-404.326198	-404.315619	-404.314674	-404.362748	37.476	
C	-1.5209207053	 0.3753405762	 3.6791801999	-0.394163
C	-1.0576944416	-0.7513357752	 2.7509980639	-0.193571
C	-1.9902341579	-0.9794907136	 1.5391978379	-0.093955
C	-1.9496083269	 0.2351454154	 0.6278597989	 0.17409
O	-2.8812088415	 0.9563194181	 0.3810093419	-0.257426
C	-1.5387913191	-2.2045518163	 0.7524515886	 0.001993
C	-2.0497556929	-3.5657406012	 1.0878767237	-0.260326
N	-2.3918934123	-2.937897314	-0.1816863259	-0.088974
C	-3.7765003079	-2.5321508229	-0.3878559132	-0.321396
H	-0.8290768425	 0.4973321098	 4.5177886154	 0.117935
H	-1.5830205695	 1.3342433271	 3.1546336694	 0.131326
H	-2.5132546437	 0.1633613257	 4.0909245788	 0.123209
H	-0.0431043995	-0.5421904736	 2.3857708655	 0.103472
H	-0.9908678642	-1.6930323262	 3.3072617433	 0.110421
H	-3.0202121864	-1.0936456294	 1.8885047807	 0.092408
H	-0.9427858735	 0.4253005903	 0.1818640962	 0.072348
H	-0.5086498859	-2.1257002791	 0.4015454038	 0.092023
H	-1.4003923903	-4.4363319723	 1.0389424849	 0.116761
H	-2.8261646946	-3.6218850841	 1.8516840631	 0.105827
H	-4.3192825538	-2.2649164164	 0.5317393062	 0.105627
H	-3.8096353023	-1.6733832824	-1.0644925954	 0.137405
H	-4.3102111385	-3.3618752959	-0.8616553977	 0.124964
