17
gdb 20264	4.00514	2.79735	2.47305	1.7078	69.49	-0.2318	0.1057	0.3375	657.5489	0.147085	-326.701159	-326.696189	-326.695245	-326.729804	22.167	
C	-0.0472667856	 1.5541979945	 0.0688335427	-0.222396
C	 1.503976107	 1.4186912297	 0.0014992355	-0.068556
C	 1.7964578133	 0.6091918466	 1.2697453689	-0.039605
C	 2.0848786143	-0.8080797562	 0.9180567103	-0.037227
C	 2.2591382717	-0.9170050079	-0.5829001023	-0.255108
C	 1.281791314	 0.1863669387	-0.9491825063	-0.036214
C	 0.0296522743	 0.0135822085	-0.0359447669	 0.002955
N	 0.6905523909	-0.3945990569	 1.2499445239	-0.1302
H	-0.4928421878	 1.9800782701	 0.9711969143	 0.101464
H	-0.4731105308	 2.0166895544	-0.825348815	 0.096432
H	 2.1636683698	 2.2489632594	-0.2483470453	 0.064909
H	 2.0516775554	 1.0686506395	 2.2178354645	 0.088397
H	 2.5526861598	-1.4981304096	 1.6115168623	 0.088318
H	 3.2875470104	-0.7102501249	-0.8984253511	 0.103353
H	 1.9623330266	-1.8958933053	-0.9754814865	 0.103817
H	 1.1009097967	 0.4154547449	-1.9971509372	 0.07192
H	-0.8228049999	-0.6155212455	-0.2899030417	 0.067741
