21
gdb 89181	2.46616	1.3535	1.1364	1.9462	79.09	-0.2265	0.0632	0.2897	1199.5994	0.180329	-424.196091	-424.186547	-424.185602	-424.229441	37.365	
C	-0.0290392507	 1.5239430583	-0.005118312	-0.406423
C	 0.0272324886	 0.0012020104	 0.0257941726	 0.023679
C	 1.1136562268	-0.6196547129	-0.9228005176	-0.332658
C	 1.8155727572	-1.1960135836	 0.3042121069	 0.28951
O	 3.1976145689	-1.2110708653	 0.4979687691	-0.464879
C	 0.7691828571	-0.5806949903	 1.2405301976	-0.186043
C	 0.9454943136	-2.0884964488	 1.1553899907	 0.378568
C	-0.0982637413	-3.061689076	 0.6667225964	-0.451592
O	 1.6492102515	-2.6291268019	 2.2464172544	-0.491579
H	 0.9650213602	 1.9563272187	 0.1540789767	 0.119436
H	-0.4039261807	 1.8832040063	-0.969894609	 0.112444
H	-0.6900435787	 1.9097031253	 0.7788052559	 0.115877
H	-0.9790873975	-0.4061117302	-0.1214805537	 0.070339
H	 0.7805429712	-1.3278272078	-1.6888558739	 0.091541
H	 1.714190213	 0.1606339392	-1.3983397516	 0.109202
H	 3.5654638372	-1.931319372	-0.0298822326	 0.289513
H	 0.9018830254	-0.0834034564	 2.1950730439	 0.089926
H	-0.6729741475	-2.664905043	-0.1728594942	 0.117607
H	 0.3740066516	-3.9978154731	 0.3516884096	 0.115829
H	-0.7968789705	-3.2967553309	 1.4764927789	 0.128145
H	 2.5578641544	-2.3049418762	 2.1763760419	 0.28156
