19
gdb 61225	3.4992	0.98365	0.84589	2.1116	77.44	-0.2534	0.0536	0.307	1381.1078	0.156029	-422.971744	-422.961987	-422.961043	-423.006416	36.47	
C	 0.1183317952	 1.5211819384	-0.1966757822	-0.479166
C	 0.0106843039	 0.0187357861	-0.0673558065	 0.392882
C	 1.1651140526	-0.8229367988	-0.4097538139	-0.231402
O	 0.8241847758	-0.5703885094	 0.9660722284	-0.291358
C	-1.3857743446	-0.6144525369	-0.1377441476	 0.056029
O	-1.3107026937	-2.0008094685	 0.1057943474	-0.42409
C	-2.3707185043	 0.0683176299	 0.8462493271	-0.396035
C	-3.7052905211	-0.5121481788	 0.7996833228	 0.31271
C	-4.8118781537	-0.9769323373	 0.7462003915	-0.433822
H	 1.1666581102	 1.82720172	-0.2218737604	 0.13039
H	-0.3638419205	 1.8643078194	-1.1186138869	 0.128316
H	-0.3589125038	 2.0310702406	 0.6451103242	 0.136806
H	 1.0048991462	-1.8446261158	-0.7415855207	 0.131791
H	 2.0853018206	-0.348364715	-0.7458221163	 0.115083
H	-1.7762861219	-0.5004002422	-1.1559496988	 0.103968
H	-0.7490258182	-2.099031569	 0.8879727124	 0.289699
H	-1.9587283885	-0.0123174588	 1.8613118903	 0.134678
H	-2.4361637131	 1.1391595097	 0.6208414817	 0.130242
H	-5.786202671	-1.3962960536	 0.7051127875	 0.193278
