20
gdb 7496	3.84112	1.25564	1.14995	2.1833	71.45	-0.2449	0.0719	0.3168	1144.2758	0.174967	-386.115358	-386.10622	-386.105276	-386.149614	32.753	
C	-0.0142494525	 1.5375542077	-0.070702628	-0.381893
C	-0.0179794734	 0.0204087408	 0.0217586572	-0.057289
O	 0.7980851764	-0.4828302477	-1.0237059409	-0.291648
C	 0.7573155154	-1.8763524325	-1.2278829354	 0.370257
C	 1.2721934783	-2.6826488094	-0.0399573905	-0.45627
C	-0.5369769036	-2.4421981599	-1.8804991671	-0.117717
O	 0.2171355192	-2.9573327409	-2.995666507	-0.274625
C	 1.4019251363	-2.2477529917	-2.5788557542	-0.115911
H	 1.0057242857	 1.9218466831	 0.0199418651	 0.128284
H	-0.4183899581	 1.8652005535	-1.0325368546	 0.126807
H	-0.6211512847	 1.970695039	 0.7300196246	 0.114616
H	 0.3602976565	-0.3004724939	 1.0036664937	 0.093653
H	-1.0451943404	-0.3670026668	-0.0742626715	 0.089281
H	 0.6135026882	-2.5946857489	 0.829539145	 0.119536
H	 1.3298515524	-3.742209424	-0.3056884427	 0.129954
H	 2.2718541677	-2.340388474	 0.2463465512	 0.124197
H	-1.0707602854	-3.2353578205	-1.3442303588	 0.098111
H	-1.2454460537	-1.6607986631	-2.1865305544	 0.096155
H	 1.6019761418	-1.3663313829	-3.2000599785	 0.105559
H	 2.2852048641	-2.8957388879	-2.5522191432	 0.098942
