16
gdb 53213	3.10889	0.94262	0.8611	4.607	74.97	-0.2402	0.0114	0.2516	1392.2756	0.122439	-437.873669	-437.864077	-437.863133	-437.90958	33.188	
C	-0.1435111617	 1.4068035761	 0.0956890699	-0.500478
C	-0.0818504495	-0.0469958299	 0.053229693	 0.079332
C	-0.0053336635	-1.2495303196	 0.0120339352	 0.097286
C	 0.0320037875	-2.7013577894	-0.0310109412	-0.241957
N	 0.2057691303	-3.3706207779	 1.2682764866	-0.305001
C	-1.0948555893	-3.8122250829	 1.3988099724	 0.362859
O	-1.6981739426	-4.3149346037	 2.3049742281	-0.347332
C	-1.4091194758	-3.3788684365	-0.0710897542	 0.010548
O	-2.5205053657	-2.6006586122	-0.3450368603	-0.407543
H	 0.8429661802	 1.8486183012	-0.0810851803	 0.156739
H	-0.8243344232	 1.7951286468	-0.6693115287	 0.158298
H	-0.4986090011	 1.7606414038	 1.0694238199	 0.156172
H	 0.7263937214	-3.0591038153	-0.7978498156	 0.109944
H	 0.9210680422	-3.2324834405	 1.9679464347	 0.255178
H	-1.4334330497	-4.2348244721	-0.7498726173	 0.126253
H	-2.4476300594	-1.779539678	 0.1578102677	 0.289702
