21
gdb 90928	2.36188	1.70308	1.45395	1.7307	80.95	-0.2439	0.0704	0.3143	1034.8642	0.18396	-387.077669	-387.069549	-387.068605	-387.109807	32.784	
C	-0.0240216698	 1.5341489789	-0.0277168829	-0.517109
C	-0.0306789757	 0.0355286864	 0.0314273863	 0.333585
C	 0.4658028094	-1.0084172728	-0.9585285889	-0.114765
C	 1.2208502909	-1.7550474676	 0.1407403999	-0.246619
C	 0.4608030703	-0.8881551843	 1.1955486052	-0.120182
C	-0.7963990614	-1.6050637143	 1.7015881356	 0.148782
O	-1.5332804968	-0.8016315494	 2.6153467527	-0.444608
C	-1.5899619376	-1.9016740295	 0.3969299349	-0.277704
C	-1.0147229149	-0.9101040719	-0.6130697186	-0.091536
H	 0.9757772897	 1.9409794351	 0.1637649984	 0.121178
H	-0.3414256932	 1.8874816342	-1.0146983112	 0.120637
H	-0.7018546702	 1.9788062008	 0.7122429889	 0.110344
H	 0.8052832468	-0.8622115515	-1.978335001	 0.077634
H	 1.1020748624	-2.8435483112	 0.2066949112	 0.088531
H	 2.2881430902	-1.5210377453	 0.1259879085	 0.101652
H	 1.0600054757	-0.4486383677	 1.9931487918	 0.069596
H	-0.555643111	-2.5168170737	 2.2569877322	 0.080661
H	-1.7737792042	 0.0114842909	 2.1573898397	 0.278829
H	-1.4713175942	-2.9409897512	 0.0726058559	 0.101378
H	-2.6569431568	-1.7391496364	 0.5767135846	 0.101407
H	-1.6462067898	-0.5262205696	-1.4076138533	 0.078307
