17
gdb 31528	3.11841	1.13605	0.88531	1.9756	72.74	-0.2041	0.0113	0.2154	1315.9692	0.135902	-455.1834	-455.17426	-455.173316	-455.217798	33.234	
C	-0.2419982677	 1.5026273176	-0.2001821303	-0.378233
C	 0.1489118296	 0.0238282893	-0.0378671843	-0.286342
C	 0.8713442213	-0.5240273273	-1.2207692954	 0.391522
N	 2.092175546	-0.9762293839	-1.2692041035	-0.390049
C	 2.2697636059	-1.3494482179	-2.5854075529	 0.303096
O	 3.4346709558	-1.8720809233	-3.0120289045	-0.426338
C	 1.1467376218	-1.1113240523	-3.310687058	 0.164437
N	 0.8087235901	-1.2984449736	-4.6397381065	-0.598162
O	 0.2260128166	-0.5649855767	-2.3990874114	-0.206475
H	 0.6452380556	 2.1297437704	-0.3283916435	 0.128725
H	-0.8849630842	 1.6417703359	-1.073491012	 0.131721
H	-0.7836777291	 1.8538998593	 0.6826031762	 0.118619
H	 0.8031760647	-0.1111830686	 0.8268164164	 0.131858
H	-0.7540045587	-0.5738422813	 0.1389609188	 0.121724
H	 4.0149467272	-1.9037178593	-2.2420521918	 0.302788
H	 0.6055244131	-0.4366660637	-5.1345285144	 0.24548
H	 0.041018402	-1.9466290845	-4.7781608628	 0.245629
