14
gdb 32318	2.74212	1.4997	0.97533	1.731	66.73	-0.2563	-0.0629	0.1934	1113.201	0.101399	-473.873257	-473.865421	-473.864477	-473.906128	28.067	
O	-0.0063629447	 1.4490979548	 0.0075796574	-0.419547
C	 0.0042144399	 0.0362174886	 0.0021425982	-0.154512
C	-1.4117489599	-0.4630548473	 0.0120416156	 0.047065
C	-2.5048790709	 0.337500009	 0.0236510388	-0.053833
N	-3.8028477188	-0.1405853019	 0.0329874935	-0.2805
C	-3.9266170352	-1.4139647067	 0.0302030024	 0.141796
O	-2.9349217669	-2.3164912165	 0.019041261	-0.19498
C	-1.5870448096	-1.9016734118	 0.0085089702	 0.404969
O	-0.7349035931	-2.7466739618	-0.0001760769	-0.336013
H	 0.9039022781	 1.7567253475	 0.0010967779	 0.298444
H	 0.5167628258	-0.3712132645	-0.88414565	 0.121849
H	 0.531466451	-0.3779160389	 0.8766123087	 0.121891
H	-2.3939569126	 1.4151569368	 0.0262742591	 0.150247
H	-4.9008189431	-1.8935643872	 0.0369607442	 0.153124
