21
gdb 58652	1.85596	1.49529	1.16892	4.7884	83.76	-0.2506	0.0252	0.2758	1219.7612	0.180437	-383.260043	-383.249799	-383.248855	-383.29475	37.621	
C	 0.7501198764	-2.1949857559	-1.4629319391	-0.404074
C	 0.2373307303	-1.3668260158	-0.2748151795	-0.046701
C	 0.9222356218	 0.0065527917	-0.2118666242	-0.407379
C	-1.2888391423	-1.2331550138	-0.3338764114	 0.16578
C	-2.1619348479	-2.3374697385	 0.1958283895	-0.282911
N	-2.1457399085	-1.0455386111	 0.8491823837	-0.113827
C	-1.5656221864	-0.9367554529	 2.1801552152	-0.324889
C	-1.7696393228	-0.4972053969	-1.4929387444	 0.290916
N	-2.1229586137	 0.0761358724	-2.4329420206	-0.356349
H	 1.8365266849	-2.3124589923	-1.4049860214	 0.117941
H	 0.3005061213	-3.1925398574	-1.4789855272	 0.117828
H	 0.516038322	-1.7042051627	-2.4131802894	 0.143473
H	 0.4724525717	-1.9156296332	 0.6431493968	 0.08186
H	 0.7037790864	 0.5928474047	-1.1102916224	 0.144658
H	 0.5902335897	 0.5857337837	 0.6546989067	 0.12049
H	 2.0077903082	-0.1117331666	-0.1433238917	 0.118074
H	-3.0810197403	-2.6105875285	-0.3147524102	 0.136061
H	-1.6327770619	-3.164853938	 0.6701696901	 0.115092
H	-0.7241473347	-1.6173834671	 2.375959009	 0.109269
H	-1.2330619787	 0.0911632671	 2.3489653601	 0.138106
H	-2.3534451954	-1.1599948789	 2.9058863904	 0.136582
