21
gdb 50751	2.99447	1.10261	0.86776	2.8451	85.05	-0.2445	-0.023	0.2215	1359.712	0.183347	-387.113958	-387.105076	-387.104132	-387.148712	33.224	
O	-0.4632942248	 0.2161475899	-0.4205023662	-0.255755
C	-0.1729876411	 1.2875347733	 0.0431401156	 0.142277
C	 1.2257594731	 1.8828140376	 0.0381235169	-0.105649
C	 1.3728744341	 2.7162591963	-1.2650589424	-0.193922
C	 2.8185174561	 3.0981720455	-1.6160837226	-0.198407
C	 3.515297649	 4.0769611313	-0.6616263988	-0.179324
C	 3.7898977846	 3.5293213322	 0.7509289187	-0.24783
C	 2.5650619517	 3.3564811901	 1.6171299299	-0.081368
C	 1.4692220575	 2.6646532179	 1.3078270355	-0.04788
H	-0.9534809505	 1.9481450504	 0.4924459388	 0.075054
H	 1.9211157366	 1.0351158191	-0.0347469538	 0.106645
H	 0.9669396474	 2.1206440499	-2.090940214	 0.113246
H	 0.7550751728	 3.6196075789	-1.1864689083	 0.10032
H	 3.418262916	 2.1800809494	-1.6897369682	 0.097386
H	 2.8135862802	 3.5366745438	-2.6213809952	 0.097656
H	 4.4747417415	 4.3622171425	-1.1098591911	 0.094952
H	 2.9241491276	 4.9980317454	-0.5809855873	 0.097273
H	 4.3182894388	 2.5680579091	 0.6602195532	 0.109813
H	 4.4873427705	 4.2032816838	 1.2587564561	 0.100282
H	 2.5931856648	 3.8443244439	 2.5890335754	 0.090393
H	 0.6650802139	 2.6332454196	 2.0422595278	 0.084835
