17
gdb 91995	2.85207	1.51487	1.25438	2.7987	73.09	-0.2539	0.0503	0.3043	1031.1331	0.13577	-421.781715	-421.773866	-421.772922	-421.813872	31.001	
O	 0.0115317197	 1.1414583444	 1.2549276295	-0.425143
C	-0.0321160039	 0.168078937	 0.2403596184	 0.114906
C	 0.9647112635	-0.9924770905	 0.4994297362	-0.276738
C	 0.1581239787	-1.9940282818	 1.2990105988	 0.039869
O	-0.6324552657	-1.3788127583	 2.3402215294	-0.267381
C	-1.270888999	-1.7309723412	 1.1024880675	 0.041167
C	-1.4283682316	-0.5518348992	 0.1445454436	-0.255268
C	-2.5755518831	 0.3014049149	 0.4094195341	 0.335613
C	-3.5406179285	 0.9837573714	 0.6250673436	-0.444836
H	-0.2258150425	 0.6864851817	 2.0743694465	 0.290164
H	 0.1882732974	 0.6948291366	-0.6904293608	 0.095164
H	 1.2947800064	-1.4588886378	-0.4369618445	 0.107089
H	 1.8483466779	-0.6220683852	 1.025692671	 0.123593
H	 0.5465711882	-2.9791886181	 1.5416403409	 0.104335
H	-2.0453231662	-2.4887851786	 1.1765169184	 0.111217
H	-1.5247918741	-0.9761517471	-0.8658711104	 0.110066
H	-4.3835026269	 1.5997481517	 0.8189165778	 0.196183
