18
gdb 8501	3.81471	2.05808	1.62711	1.41	72.21	-0.251	0.0821	0.3331	842.1383	0.153309	-347.736817	-347.729573	-347.728629	-347.767552	29.184	
C	-0.0119928897	 1.4536894531	-0.0278080658	-0.515782
C	 0.0342526728	-0.047829472	-0.0568185307	 0.357908
C	 0.5828620331	-0.9634194737	-1.1788004711	-0.372408
C	 0.0742630169	-1.9253466191	-0.0897998139	 0.409527
O	 0.0098690121	-3.3060421601	-0.0996065611	-0.475711
C	 0.5553385629	-0.9940282426	 1.0868268753	-0.147459
C	-0.8243645336	-1.0544740164	 1.7730203451	-0.276659
C	-1.1516596077	-1.0359371541	 0.265578018	-0.110533
H	 0.9948464976	 1.8802947755	-0.0986243809	 0.118571
H	-0.5984003049	 1.8464929064	-0.8658279308	 0.119952
H	-0.4660435997	 1.8203349603	 0.8991913911	 0.121405
H	 0.0371353569	-0.9600132666	-2.1288089717	 0.090818
H	 1.6652014802	-0.9298309985	-1.3522569687	 0.080611
H	 0.90675221	-3.6521495436	-0.1608619471	 0.282313
H	 1.5543461069	-0.968210193	 1.5282608564	 0.060366
H	-1.0623895212	-1.9764838518	 2.3099677389	 0.101092
H	-1.1270413771	-0.1801516566	 2.3577014135	 0.088001
H	-2.1190190955	-1.0554722273	-0.2398169065	 0.067986
