18
gdb 65358	3.33153	0.95137	0.90343	4.4921	78.37	-0.2827	0.0082	0.2909	1365.6429	0.145923	-401.930561	-401.92142	-401.920476	-401.964972	33.276	
C	-0.0536969993	 1.554998282	-0.1625416874	-0.467754
C	-0.0642208705	 0.0635201593	 0.0921530302	 0.208409
O	 1.1776055069	-0.6378497653	-0.051440178	-0.27469
C	 0.591569125	-0.5912667997	 1.2540920941	 0.03336
C	 1.3117426186	 0.1358399199	 2.3331046019	-0.026413
C	 0.7942163478	 0.0258190613	 3.7503575053	-0.268203
C	 2.0698400546	-0.6691890943	 3.3658350269	-0.264804
C	-1.2072247362	-0.6294346403	-0.4891126426	 0.254886
N	-2.1312991582	-1.1564131863	-0.9413238174	-0.332486
H	 0.825939826	 2.0161498685	 0.2872751406	 0.139625
H	-0.0338053612	 1.7500140774	-1.2384559467	 0.150199
H	-0.9530719029	 2.0195040718	 0.2521809592	 0.145075
H	 0.1603801882	-1.5439940501	 1.5692272614	 0.108783
H	 1.7531276654	 1.081697921	 2.0422142123	 0.096593
H	 0.8493636826	 0.9094618528	 4.3753033165	 0.123843
H	-0.0865703563	-0.5842947401	 3.9211015553	 0.124147
H	 2.0538686745	-1.7498507179	 3.2725478144	 0.125249
H	 3.0101698151	-0.26666331	 3.7238951538	 0.124181
