17
gdb 102253	1.90247	1.27559	0.9024	4.1372	69.9	-0.2888	0.013	0.3018	1328.5282	0.134309	-455.206488	-455.196431	-455.195487	-455.243316	34.786	
C	 0.0287033087	 1.5419512886	 0.1009364677	-0.399966
C	-0.0180295771	 0.0138898097	 0.0570643311	-0.184816
C	 0.6971728498	-0.6267728995	 1.2532507227	-0.028738
O	 0.0144888142	-0.2699337073	 2.4623360704	-0.268441
C	 0.8024962044	 0.2115384939	 3.4773512753	 0.516083
N	 0.0214026665	 0.4846738673	 4.5547809177	-0.563668
O	 1.9925204714	 0.3935546005	 3.3980129988	-0.385978
C	 0.7164785005	-2.0951216236	 1.1450924838	 0.27828
N	 0.7289697121	-3.2448058704	 1.034594623	-0.318117
H	 1.0602655909	 1.9089325162	 0.0984762593	 0.130202
H	-0.4809020528	 1.9635390366	-0.7696445928	 0.124529
H	-0.4643037577	 1.9247559319	 0.9983776013	 0.134355
H	-1.0533562534	-0.3425493762	 0.0394021961	 0.125474
H	 0.4623604572	-0.3609004424	-0.8532132768	 0.126005
H	 1.7296079317	-0.2702564779	 1.3288544477	 0.163999
H	-0.9140159915	 0.1177372225	 4.5925354009	 0.27329
H	 0.4944838755	 0.6929032201	 5.4167928538	 0.277509
