18
gdb 22623	2.57365	1.49486	1.20215	1.3546	76.2	-0.2417	0.0098	0.2515	1090.2605	0.147102	-439.017139	-439.008915	-439.007971	-439.049648	31.934	
C	-0.0202655173	 1.5308852972	 0.0811832945	-0.495773
C	-0.0525637556	 0.0395717594	-0.0605210746	 0.349302
C	 0.661495625	-0.7930952396	-1.1747440255	-0.279926
C	-0.2692696001	-1.9315304737	-0.6239870668	-0.178074
C	 0.2663919452	-2.0238614006	 0.816761624	-0.079255
O	 0.4084235189	-0.6193141606	 1.1434793935	-0.312673
C	-1.2714967136	-0.7982940022	-0.4289799214	 0.455075
N	-2.4830117024	-0.519623273	-0.6345451846	-0.310389
O	-3.2041341863	-1.6491669596	-1.085719816	-0.395866
H	 1.0004323291	 1.871613226	 0.2773204479	 0.129311
H	-0.3847771528	 2.0079370489	-0.8318739847	 0.129425
H	-0.654728876	 1.8445541303	 0.9144915207	 0.140729
H	 0.4022752155	-0.4805387644	-2.1871191971	 0.117424
H	 1.7397386719	-0.9276530025	-1.0527395768	 0.106348
H	-0.4957122453	-2.8461961717	-1.1637932123	 0.099798
H	-0.4346533601	-2.5030755779	 1.5084054875	 0.114258
H	 1.2398235941	-2.5233860193	 0.8827426333	 0.104274
H	-4.08994299	-1.2874099368	-1.1972545017	 0.306012
