19
gdb 126428	2.85688	1.23592	0.93219	2.5919	78.24	-0.2078	0.0432	0.2511	1284.8699	0.158915	-419.241237	-419.231437	-419.230493	-419.276226	35.161	
C	 0.0246671572	 1.5370989204	 0.0833540941	-0.372307
C	-0.0722240884	 0.012002811	-0.0942917469	-0.28228
C	 0.7191735421	-0.5004647259	-1.2600854836	 0.293346
N	 0.107081595	-0.8137791103	-2.3973485733	-0.310405
N	 1.1114438932	-1.2082857038	-3.2251862578	-0.265102
C	 2.3189415739	-1.153686491	-2.625207452	 0.380373
O	 3.413677289	-1.5346452153	-3.3224968939	-0.430451
C	 2.1292774713	-0.6959032849	-1.3359981774	-0.000518
C	 3.1746947318	-0.4783180116	-0.2858157457	-0.52754
H	 1.0588889806	 1.8561135344	 0.248985554	 0.113756
H	-0.344075335	 2.0519898928	-0.8087496296	 0.126846
H	-0.5696624962	 1.8691941987	 0.9406375524	 0.109447
H	 0.2658306021	-0.4820553135	 0.8257027075	 0.096508
H	-1.1174853794	-0.274986447	-0.2442493773	 0.118086
H	 0.9091282149	-1.5199812517	-4.1590587128	 0.273371
H	 4.1902593784	-1.393842921	-2.7711829109	 0.308801
H	 3.460293055	 0.5754961426	-0.1768052444	 0.131782
H	 2.8318627362	-0.8214481314	 0.6962329181	 0.136041
H	 4.0928115883	-1.0381252025	-0.5059386604	 0.100246
