19
gdb 92525	2.89214	1.466	1.10809	2.9209	74.52	-0.2486	-0.028	0.2205	1114.2688	0.160519	-423.043839	-423.03595	-423.035006	-423.076473	30.82	
O	 0.4203337109	 1.11880203	 0.6896244708	-0.443141
C	 0.0840071936	-0.1260832106	 0.1507991171	 0.071765
C	-1.4194500848	-0.4283154733	 0.0361377645	-0.271091
C	-1.494062798	-1.5839141728	-0.9962767652	-0.018302
C	-2.4656206386	-1.3777683329	-2.1915391759	-0.228665
C	-1.28460332	-0.8551635949	-3.0596239079	-0.227365
C	-0.2858438537	-1.3423084232	-1.9573951826	-0.120206
C	 0.5625278087	-0.2798476396	-1.2938671844	 0.353229
O	 1.4063643374	 0.4341846482	-1.7819591696	-0.338817
H	 1.0880128799	 1.4865902352	 0.0894257922	 0.290107
H	 0.5593190294	-0.9461995412	 0.7244999368	 0.08892
H	-1.873028271	-0.6831955262	 0.995966366	 0.113683
H	-1.9238742215	 0.4698473648	-0.3391627845	 0.112205
H	-1.5444774809	-2.5566005269	-0.5027201913	 0.074237
H	-2.8696179064	-2.3206229882	-2.568520706	 0.106077
H	-3.2985206719	-0.689646887	-2.0250670681	 0.104436
H	-1.1605260198	-1.3201163427	-4.0387800845	 0.113889
H	-1.271433927	 0.2287702126	-3.1954065013	 0.118778
H	 0.3060208139	-2.2107553812	-2.2540714562	 0.100262
