20
gdb 15657	2.81957	1.92788	1.28903	0.8811	76.87	-0.243	0.0157	0.2587	1013.8596	0.176965	-349.008516	-349.000022	-348.999078	-349.041531	31.478	
C	 0.3444125665	 1.1590322976	 0.4337948637	-0.233262
O	 0.186173414	-0.2058171027	 0.1327642549	-0.244636
C	 0.5110419848	-0.5463542196	-1.2145813597	 0.084993
C	 2.0070967217	-0.5415307088	-1.4646032348	-0.089331
C	 2.504256124	-1.7776109797	-1.4620975553	-0.057355
C	 1.4352967829	-2.8225628423	-1.2658295557	-0.263901
C	 0.1227512764	-2.0257688777	-1.4801539697	 0.002539
C	-1.0803917643	-2.5317281682	-0.6880119793	-0.398615
H	 1.3954138531	 1.4813699208	 0.3906425325	 0.103962
H	-0.2382570981	 1.7971136084	-0.2507002653	 0.098723
H	-0.0225945539	 1.3115072896	 1.4522395602	 0.123861
H	-0.0352472035	 0.1402509147	-1.8820079165	 0.054766
H	 2.5870425903	 0.3679446435	-1.5721333111	 0.09087
H	 3.5548694163	-2.0281222717	-1.5686627797	 0.093357
H	 1.5265649304	-3.6635662911	-1.9629122928	 0.099833
H	 1.492090212	-3.2513050688	-0.2551874836	 0.111487
H	-0.1095888542	-2.0814312333	-2.5506920985	 0.077581
H	-0.8975751663	-2.4605176515	 0.3865608121	 0.131793
H	-1.9789858515	-1.9475575689	-0.9108664206	 0.109798
H	-1.2899821506	-3.5776028702	-0.9366270109	 0.103537
