18
gdb 26478	3.61606	1.25177	1.05539	1.237	79.14	-0.2087	0.0211	0.2297	1166.5557	0.148569	-401.953545	-401.945493	-401.944549	-401.98652	30.825	
C	-0.307331355	 1.340373122	-0.6310232878	-0.472639
C	-0.0301652111	-0.034102429	-0.0516464879	 0.178422
C	 0.9998490422	-0.8943168101	-0.7152404099	-0.261298
N	 1.2616594765	-0.2972694739	 0.6038061251	-0.337386
C	-1.1688217094	-0.6787642091	 0.6409855617	 0.358394
C	-1.2722909655	-1.3967141984	 1.7920335146	-0.277547
C	-2.6509081729	-1.7720133237	 1.911002771	-0.173527
C	-3.2789915772	-1.2519863749	 0.8261301095	-0.025693
O	-2.391775911	-0.5825440445	 0.0393146688	-0.190265
H	 0.5683718853	 1.7160708253	-1.1696837096	 0.109275
H	-1.1496139022	 1.3062883165	-1.3275483721	 0.141323
H	-0.5593551201	 2.0529324173	 0.1617872202	 0.128344
H	 0.8826482905	-1.973650257	-0.7098227845	 0.123152
H	 1.5105990055	-0.4899012524	-1.5859474599	 0.110513
H	 1.8633319207	 0.517029178	 0.5068874694	 0.230875
H	-0.4602558148	-1.61991879	 2.4640559249	 0.121169
H	-3.1073429965	-2.346608565	 2.7018085637	 0.108517
H	-4.298714215	-1.257787861	 0.478359063	 0.12837
