21
gdb 69963	2.39922	1.81546	1.3516	1.4389	81.33	-0.2206	0.0684	0.2889	1041.0696	0.182391	-387.04029	-387.032032	-387.031087	-387.072245	34.029	
C	 0.0469943401	 1.4563658081	-0.1631953641	-0.507774
C	 0.0289858819	-0.0539564042	-0.0623199776	 0.299477
C	-1.3553295837	-0.7806225152	-0.0329996548	-0.300277
C	-0.944012829	-1.5006616044	 1.2919649194	-0.237686
C	 0.4428117489	-0.7847747	 1.2533014453	-0.055004
C	 1.6291896435	-1.4506851169	 0.5277929699	-0.159163
C	 1.1683358937	-2.2446337574	-0.6802197034	-0.331497
C	 1.2075094462	-0.762684691	-0.7881665769	 0.354414
O	 1.9399345721	-0.1987149032	-1.8181753415	-0.454672
H	 1.0316544932	 1.867280329	 0.0968410696	 0.103088
H	-0.1986807482	 1.7925449075	-1.17753337	 0.125076
H	-0.6791185717	 1.9041477867	 0.5231175991	 0.117528
H	-2.1967180773	-0.0930841095	 0.089914083	 0.093813
H	-1.5692669499	-1.4267830677	-0.8882769657	 0.101246
H	-1.5532484624	-1.2061515179	 2.1497030191	 0.096925
H	-0.9161212528	-2.5925596056	 1.2580211334	 0.101403
H	 0.7238790226	-0.202936995	 2.1330541753	 0.060516
H	 2.6078650727	-1.6248432436	 0.9601164264	 0.084026
H	 1.981410568	-2.724104524	-1.2166863977	 0.116949
H	 0.2445105865	-2.8155343636	-0.6819550054	 0.107942
H	 2.2534248857	 0.6653536981	-1.5294117132	 0.28367
