19
gdb 8279	4.89163	1.03592	0.99565	3.7282	73.9	-0.2477	0.0321	0.2797	1239.6171	0.165758	-365.084911	-365.076409	-365.075465	-365.118629	30.978	
C	-0.2442685734	 1.5140424846	-0.1001452963	-0.391204
C	-0.045081451	 0.0011544815	-0.0735409581	 0.025586
C	 1.2255486501	-0.4934671173	-0.8300162932	-0.254212
C	 1.9642656727	-0.56981632	 0.5338557088	 0.083535
C	 0.5844739921	-0.5413806542	 1.2458361845	-0.254303
N	 2.8565832686	-1.6751670675	 0.7841423746	-0.290021
C	 4.1497789512	-1.5310510398	 1.1848258044	 0.150777
O	 4.712299335	-0.4749424228	 1.3811071399	-0.322287
H	 0.6671188171	 2.0466613063	 0.1945216904	 0.121678
H	-0.5174513069	 1.8571308288	-1.1038721198	 0.115668
H	-1.0412235836	 1.8179116921	 0.5871170556	 0.115658
H	-0.9727485835	-0.4947959005	-0.3714274912	 0.069824
H	 1.0816366142	-1.4892047442	-1.262197832	 0.090367
H	 1.6510616177	 0.1609817568	-1.5955277395	 0.105323
H	 2.5432077707	 0.331959263	 0.7333524595	 0.126147
H	 0.4958841786	 0.0745124437	 2.144836951	 0.105314
H	 0.23496427	-1.5524995747	 1.4792372577	 0.090358
H	 2.507078215	-2.6125679338	 0.6558564825	 0.241112
H	 4.6470985852	-2.5131209322	 1.3163314311	 0.07068
