15
gdb 25588	4.53369	0.89526	0.79833	6.207	68.4	-0.2351	-0.004	0.2311	1361.5539	0.11373	-453.993736	-453.98564	-453.984696	-454.028376	28.087	
O	 0.3202512761	 0.1893669803	-0.4476593519	-0.264579
C	 0.4117060243	 1.3767861311	-0.4027800774	 0.182607
O	 0.7390928943	 2.0375227587	 0.7306153808	-0.165318
C	 0.865472171	 3.4572160692	 0.6328476648	-0.221088
C	 2.2576481456	 3.8394995907	 0.2452870132	 0.282367
C	 3.4212853652	 3.1185915007	 0.1604206699	-0.150392
N	 4.4668236739	 3.9243797788	-0.2325516853	-0.246061
C	 3.9491609438	 5.1184917153	-0.3805377661	 0.016397
N	 2.6103667654	 5.1275643113	-0.1051234543	-0.313839
H	 0.2282326896	 2.0565156632	-1.2575293263	 0.083667
H	 0.1293482345	 3.8551231439	-0.0824448586	 0.116962
H	 0.5926825682	 3.8386518896	 1.6229325976	 0.145019
H	 3.5594544245	 2.0682088805	 0.3623639768	 0.131952
H	 4.4776929696	 6.0103220248	-0.6828275304	 0.13581
H	 1.9981122639	 5.925226372	-0.1535054229	 0.266496
