18
gdb 55972	3.52709	0.90695	0.79135	1.2149	73.84	-0.2417	-0.0272	0.2145	1455.2395	0.144882	-439.099735	-439.090181	-439.089237	-439.135844	33.333	
C	 0.0870613059	 1.5017822791	 0.0141975504	-0.474938
C	 0.1002802557	-0.0130232082	 0.0744818785	 0.389952
O	 1.114321047	-0.6411714629	 0.2797135364	-0.297586
C	-1.2406197684	-0.711274231	-0.136258753	-0.316366
C	-1.1578189418	-2.2034885599	 0.1320778207	-0.072304
N	-1.120056067	-2.6008484144	 1.5665617159	-0.328707
C	-2.1560927646	-3.6518379846	 1.385006701	-0.282895
C	-2.4296996641	-3.0569480696	-0.0065170023	 0.375727
O	-3.2874080778	-3.165017367	-0.8302984894	-0.28996
H	 1.1060902318	 1.8865589182	 0.066785946	 0.144788
H	-0.400264566	 1.851318416	-0.9024031047	 0.138739
H	-0.4953936345	 1.8985882518	 0.8539100686	 0.146982
H	-1.9948462931	-0.2478060411	 0.5106382661	 0.126524
H	-1.5684869736	-0.5316671545	-1.1697185885	 0.137458
H	-0.342161396	-2.6357447934	-0.465408113	 0.110707
H	-0.2153621373	-2.9424675467	 1.8672718918	 0.234618
H	-1.7871658646	-4.6855422771	 1.3203996348	 0.124309
H	-2.9810318117	-3.6182856047	 2.1048070008	 0.132953
