19
gdb 1187	4.34167	1.6366	1.63065	2.6199	63.41	-0.2604	0.0669	0.3272	871.3942	0.168887	-348.048844	-348.039503	-348.038559	-348.08189	33.492	
C	-0.0120647735	 1.5525697522	 0.0230004844	-0.403081
C	 0.0143819515	 0.0134530427	 0.0234588076	 0.255375
C	 0.7574318127	-0.5065263156	 1.2672633824	-0.40309
C	-1.422034771	-0.5323213521	 0.0085722746	-0.091445
O	-2.0981820949	-0.0810108417	 1.1733776558	-0.424959
C	 0.7087255899	-0.4960712257	-1.2492008427	-0.091445
O	 2.0433214406	-0.0102895708	-1.2715347607	-0.424959
H	 1.0043473064	 1.9516791869	 0.0060088485	 0.125658
H	-0.5393042037	 1.9351174043	-0.8591259073	 0.0962
H	-0.5277823664	 1.9255993778	 0.9104449693	 0.125633
H	 0.2563342139	-0.1727565241	 2.1783981355	 0.125651
H	 0.7828913859	-1.6027436137	 1.2786997919	 0.096188
H	 1.7884897279	-0.1466046765	 1.2739937307	 0.125625
H	-1.9377034016	-0.1844817118	-0.9020170537	 0.078562
H	-1.3959579168	-1.634250734	-0.0258053152	 0.078546
H	-2.9946441538	-0.4266477569	 1.1530739487	 0.287216
H	 0.6939970746	-1.5986828597	-1.2593012982	 0.078563
H	 0.1517838087	-0.149082406	-2.1355035415	 0.078545
H	 2.4683240597	-0.3366214653	-2.0692824702	 0.287216
