10
gdb 2743	4.91617	2.28532	1.69718	4.2614	47.88	-0.3039	-0.025	0.2789	673.4281	0.06738	-359.341296	-359.335393	-359.334449	-359.371449	20.201	
O	-0.0907047942	 0.0579854861	-0.2510626513	-0.289166
C	-0.0209922768	 1.2108195724	-0.0009091499	 0.471676
O	-1.0102446154	 2.0755204283	 0.3683594081	-0.222479
C	-0.0871536415	 3.1998150179	 0.5088177248	-0.08287
C	 1.0834729414	 2.3089511666	 0.0299694954	-0.341993
C	 2.202785485	 2.1036399658	 0.9263854417	 0.289104
N	 3.0870739043	 1.9487333125	 1.6536766905	-0.301385
H	-0.3637062764	 4.0184188546	-0.1560672475	 0.147782
H	-0.0304026231	 3.5309404346	 1.545956831	 0.158299
H	 1.4375511366	 2.5437291812	-0.9771682728	 0.171033
