21
gdb 41841	2.77338	1.94257	1.69241	1.6554	79.61	-0.2353	0.079	0.3143	918.0218	0.188254	-387.125041	-387.11864	-387.117696	-387.155584	27.745	
C	-0.0633866514	 1.5425036759	-0.1791193936	-0.084456
O	 1.2202040186	 2.0403522947	 0.1992816733	-0.276285
C	 2.1036722569	 0.9427313326	 0.4278517725	 0.12888
C	 2.150873019	 0.5257814548	 1.9304121834	-0.232041
C	 1.2938335459	-0.7557907336	 1.9558750971	-0.008106
C	-0.1526863916	-0.4008919485	 1.5422154642	-0.227104
C	-0.0123277769	 0.0319821351	 0.04394576	-0.028016
C	 1.4760825039	-0.300408205	-0.2553708562	-0.045966
C	 1.8050517999	-1.4683985875	 0.6852518721	-0.2315
H	-0.8350769982	 2.040065523	 0.4212153631	 0.096392
H	-0.253160506	 1.7805661682	-1.2365494878	 0.087924
H	 3.0852561709	 1.2297026964	 0.0422122396	 0.072618
H	 3.1771245193	 0.3036294364	 2.2425759952	 0.089521
H	 1.7702982939	 1.3322329158	 2.5625068048	 0.101159
H	 1.3608249649	-1.3228409867	 2.8862484328	 0.05594
H	-0.800297702	-1.2788270099	 1.6306101797	 0.093547
H	-0.5858339881	 0.3898489877	 2.1629725685	 0.096175
H	-0.7175447668	-0.4958901881	-0.6016105147	 0.066718
H	 1.7191773459	-0.4147017806	-1.3124784132	 0.060334
H	 2.8726658085	-1.7077557325	 0.723934729	 0.092478
H	 1.2514160532	-2.3810685882	 0.4424521301	 0.091786
