16
gdb 86876	3.02491	1.22981	0.98251	2.1861	66.25	-0.268	-0.0496	0.2184	1171.996	0.123501	-475.044303	-475.035935	-475.034991	-475.07806	30.419	
O	 0.5290158453	 0.650481047	 0.7360546132	-0.436088
C	 0.0161438544	-0.3437658714	-0.1035229428	 0.066642
C	-1.4999666147	-0.2661226687	-0.3212161325	-0.270009
C	-1.6424614209	-0.9052825788	-1.7098074146	-0.00884
O	-0.4036080426	-0.6435824739	-2.4103431885	-0.244351
C	 0.5442101725	-0.2332281939	-1.5227499159	 0.394364
N	 1.6900498528	 0.2128638401	-1.7954329873	-0.559299
C	-1.8801369829	-2.4131614727	-1.6814065536	 0.136781
O	-2.587102571	-2.9589129449	-0.8772277077	-0.228124
H	 1.375303192	 0.9139165204	 0.3450308729	 0.29933
H	 0.2782900295	-1.3495189089	 0.2714072049	 0.104121
H	-2.089454547	-0.805002236	 0.4207178481	 0.145395
H	-1.8046327394	 0.7831820568	-0.3376581025	 0.129693
H	-2.4488892606	-0.4586042534	-2.3031024488	 0.131737
H	 1.8703027804	 0.2512884554	-2.798206645	 0.234742
H	-1.3499404279	-2.966564637	-2.4869604498	 0.103908
