20
gdb 97637	2.02344	0.83961	0.62377	3.6156	86.97	-0.2328	-0.0256	0.2072	1834.4245	0.167791	-403.117434	-403.106151	-403.105207	-403.15889	37.681	
C	-0.2397752492	 1.4279418184	-0.1216371264	-0.364713
C	-0.336620428	-0.0930539812	-0.3428373993	-0.315971
C	-1.6758822765	-0.6189589711	-0.0990236337	 0.040421
C	-2.7992164949	-1.0169235088	 0.0902738261	 0.079727
C	-4.13032754	-1.5580257918	 0.3969017164	-0.213019
N	-4.2595418393	-3.0116532929	 0.2463886595	-0.28174
C	-4.2142784836	-3.4616629701	-1.1434972376	-0.315849
C	-4.4758058322	-1.2197865989	 1.8542288492	 0.181012
O	-5.2430722852	-0.3624640538	 2.1926837828	-0.241477
H	 0.7793087922	 1.7749640041	-0.3154371426	 0.117207
H	-0.9201046558	 1.9615180485	-0.7904700286	 0.132373
H	-0.5043245089	 1.6887012691	 0.906452495	 0.132637
H	-0.0344838108	-0.3352176058	-1.3698121702	 0.132669
H	 0.3802554646	-0.6060769726	 0.3109549471	 0.130852
H	-4.8915273789	-1.0777517481	-0.2277357975	 0.123798
H	-3.5050188586	-3.45528706	 0.7622822539	 0.222366
H	-3.3110630026	-3.1432191284	-1.6875347635	 0.111593
H	-4.2687052796	-4.5534760607	-1.1662790083	 0.123619
H	-5.087336164	-3.0720694463	-1.6778250742	 0.128558
H	-3.9376091785	-1.8564934096	 2.5930066319	 0.075936
