14
gdb 45461	2.8473	1.69129	1.21166	6.1174	63.	-0.2385	-0.078	0.1605	973.8311	0.102256	-473.840026	-473.832922	-473.831977	-473.872067	26.372	
O	-0.0319721589	-0.0532237744	-0.2659672634	-0.341185
C	-0.0413018197	 1.140017554	-0.0928602605	 0.308301
N	-1.1368662925	 1.9639703975	-0.0236291708	-0.313335
C	-0.8905007008	 3.3598346378	 0.26690333	-0.06784
C	-0.886212841	 3.7543066525	 1.7620355856	-0.080678
O	 0.5554803449	 3.6538172994	 1.8175511236	-0.277959
C	 0.647163367	 3.4625944897	 0.3836705061	 0.00177
C	 1.1857019763	 2.0714169688	 0.0642588477	 0.321124
O	 2.3296482926	 1.7315412405	-0.0360202605	-0.270975
H	-2.0661371805	 1.5725916357	-0.0645027074	 0.263798
H	-1.4168013108	 4.0244213161	-0.4199558602	 0.109357
H	-1.2224383421	 4.7796253623	 1.9577770761	 0.115871
H	-1.380895062	 3.0591560227	 2.4476759907	 0.121209
H	 1.1727940273	 4.2742784274	-0.1253650669	 0.110543
