17
gdb 55348	2.90357	1.19959	0.92453	4.7533	70.1	-0.2366	-0.0256	0.211	1239.7773	0.134883	-455.174575	-455.165167	-455.164223	-455.209778	32.628	
N	-0.0459136313	 1.4157581341	 0.4264695762	-0.56145
C	 0.0290784163	 0.0432226007	 0.406226139	 0.429372
O	 0.9229711568	-0.5892824662	 0.9434857567	-0.405237
N	-0.9564664209	-0.5826662255	-0.3293907135	-0.118624
C	-2.3637477296	-0.2012948928	-0.555481768	-0.183471
C	-2.737997565	-1.7096071967	-0.5685498629	-0.268631
C	-1.2698977649	-2.0123486744	-0.1761036965	-0.034132
C	-0.4686750677	-2.894055048	-1.1171274814	 0.139882
O	-0.9633579577	-3.6689878319	-1.8948801293	-0.238989
H	 0.5664990263	 1.8723201642	 1.0809380682	 0.266931
H	-0.8894235765	 1.8986177134	 0.1692091339	 0.257217
H	-2.8015088363	 0.3596542407	 0.280392524	 0.109609
H	-2.5348815299	 0.3510707591	-1.4853293459	 0.120697
H	-3.4912995744	-2.0095089327	 0.1585339682	 0.120926
H	-2.998031845	-2.1082824675	-1.5489801356	 0.140105
H	-1.1110319181	-2.3683862693	 0.8514884067	 0.113872
H	 0.6293062278	-2.755098107	-1.0337391198	 0.111924
