23
gdb 118838	3.85246	0.72008	0.66669	1.17	83.16	-0.2562	0.0792	0.3354	1785.3815	0.202578	-425.414259	-425.402994	-425.40205	-425.451616	39.833	
C	-0.3702578425	 1.4703831781	-0.57983517	-0.37172
C	-0.0298042623	 0.196283645	 0.2043349087	-0.223152
C	-1.2612815114	-0.6352582319	 0.4752922484	 0.028488
O	-1.8332653471	-1.3493372494	-0.6310652312	-0.306465
C	-1.3424180283	-2.1103607959	 0.4922977472	 0.371894
C	-0.1334832367	-2.9801398598	 0.2132513645	-0.466319
C	-2.443795979	-2.7562310511	 1.3192586425	-0.247601
C	-3.1934252022	-3.8597365763	 0.5763569872	-0.072027
O	-4.2339459873	-4.3107051014	 1.4324591761	-0.422241
H	 0.5260399718	 2.0685037136	-0.7684761025	 0.112156
H	-0.8221581705	 1.2170980295	-1.5434006737	 0.134231
H	-1.0816024181	 2.0965277947	-0.0303208494	 0.115336
H	 0.7088608785	-0.3883345325	-0.3503666768	 0.10267
H	 0.4279558901	 0.460249819	 1.1668532231	 0.100088
H	-2.009860232	-0.1124374529	 1.0780894758	 0.079381
H	 0.5893329938	-2.4739013667	-0.427186603	 0.128588
H	 0.3626948848	-3.2582477518	 1.149456599	 0.121528
H	-0.4304540266	-3.9047569312	-0.2917144674	 0.126812
H	-2.0226655323	-3.168805195	 2.2440543392	 0.103776
H	-3.176980268	-1.9972442687	 1.60924476	 0.111073
H	-3.591116337	-3.4500555061	-0.3636973263	 0.105508
H	-2.513644293	-4.686633377	 0.3180581266	 0.082839
H	-4.7455622947	-4.9722649123	 0.958078282	 0.285157
