19
gdb 107652	3.16942	1.30505	1.07311	2.113	77.33	-0.233	0.0163	0.2493	1156.0442	0.159607	-423.001568	-422.993166	-422.992222	-423.034543	32.161	
O	-0.0142153152	 1.3402716963	 0.5388452441	-0.419167
C	-0.0016633923	 0.050251617	-0.0602356285	-0.154781
C	-1.4174473684	-0.479080636	-0.0596517587	 0.277805
C	-1.9167599837	-1.1400576095	 1.2187549563	-0.328933
C	-1.6271029068	-1.9686161723	-0.0048111012	 0.037922
O	-2.7252124592	-2.515210494	-0.6765206882	-0.26075
C	-3.0581581242	-1.8939941248	-1.912084303	-0.122712
C	-3.1139005417	-0.3899008994	-1.8190107142	-0.084023
C	-2.3714525215	 0.2622989369	-0.9278090047	-0.139097
H	 0.8520439934	 1.7382768265	 0.4118240958	 0.287949
H	 0.373718972	 0.0998105848	-1.0944785243	 0.08997
H	 0.6513975993	-0.6399009423	 0.4980020736	 0.082398
H	-1.2354500279	-1.192064553	 2.06157945	 0.111361
H	-2.9629959402	-1.0136587502	 1.4701272707	 0.123061
H	-0.7536162191	-2.6200670797	-0.0003762048	 0.083571
H	-2.3514598564	-2.2005932367	-2.7034427486	 0.099019
H	-4.0367380603	-2.3013934496	-2.1860060678	 0.11635
H	-3.7824067048	 0.1314104271	-2.4978927528	 0.094412
H	-2.402080863	 1.342559029	-0.8273977236	 0.105647
