19
gdb 68536	2.54105	1.98047	1.66725	1.275	77.72	-0.2406	0.0123	0.2529	909.1459	0.16156	-385.867458	-385.860661	-385.859717	-385.897902	29.849	
O	-0.1125930941	 1.3699705536	 0.0348270763	-0.513834
C	 0.0442737451	-0.0251962867	 0.0331318288	 0.389291
C	 0.7087984153	-0.7110134247	-1.2026465744	-0.253911
C	 0.5401506829	-2.1271065398	-0.5874726739	-0.088147
C	 1.1835575443	-1.8912238931	 0.7715693416	-0.083376
C	 0.8855964775	-0.643003924	 1.1446359522	-0.166867
C	-1.0233059122	-2.1415199275	-0.4314381947	-0.038156
C	-1.6811502563	-1.8782481953	 0.8997357465	-0.307772
C	-1.3499554185	-0.7272931205	-0.0127204624	-0.038669
H	 0.7649555411	 1.7657605182	 0.017043644	 0.275155
H	 0.1335027382	-0.5626580255	-2.1216179253	 0.091913
H	 1.7534771609	-0.4182564813	-1.3529589463	 0.080348
H	 0.927278597	-2.9710258	-1.1577852635	 0.061787
H	 1.6887799659	-2.6502077934	 1.3559869243	 0.098527
H	 1.0791639757	-0.1588722952	 2.0943372068	 0.098994
H	-1.5837581181	-2.6540354365	-1.2048050747	 0.085916
H	-2.7319684267	-2.1420709599	 0.972014051	 0.104396
H	-1.1219555355	-2.0184476431	 1.817297373	 0.112226
H	-2.1409486226	-0.1423526653	-0.4670384091	 0.09218
