19
gdb 87955	3.81182	1.08721	0.99333	1.3726	78.61	-0.2036	0.0586	0.2623	1262.5992	0.160083	-419.223576	-419.214877	-419.213933	-419.256952	33.261	
C	-0.1350600958	 1.4947540221	 0.0594425339	-0.412338
C	 0.0007679758	-0.0107016266	 0.0840232224	-0.045037
C	 1.318267047	-0.6770276985	-0.2563864517	-0.350475
C	 0.7911902049	-0.7259809639	 1.1536998928	 0.329932
C	 1.4763940612	-0.0085677272	 2.3280644288	-0.17585
O	 1.2470379566	-0.8960607396	 3.4430242354	-0.258774
C	 0.5747659595	-1.9624030974	 2.9249148402	 0.452398
N	 0.2269201825	-2.9008784568	 3.8593617472	-0.579558
N	 0.2929147478	-1.9759734182	 1.6809788768	-0.382048
H	 0.7892574659	 1.9916327163	 0.3747500595	 0.109949
H	-0.3624463276	 1.8499848311	-0.9517504381	 0.119758
H	-0.9388490674	 1.8388696608	 0.7204289268	 0.118607
H	-0.8846529589	-0.5543895651	-0.2332801528	 0.095054
H	 1.3020450177	-1.6020101951	-0.8215505786	 0.117721
H	 2.1713767299	-0.033526526	-0.4562262055	 0.1008
H	 2.5575523739	 0.1091510823	 2.1981472443	 0.113458
H	 1.0404863887	 0.9654776352	 2.5712457605	 0.117418
H	 0.8424325062	-2.9574162356	 4.6562858697	 0.261506
H	-0.0315067079	-3.7913883177	 3.4637546383	 0.26748
