20
gdb 61792	3.82752	0.74727	0.72002	0.612	76.89	-0.2362	-0.0412	0.195	1600.0318	0.166139	-440.282252	-440.271496	-440.270551	-440.319043	37.001	
C	 0.3430297191	 1.4862853291	 0.0006064129	-0.402529
C	-0.0580325557	 0.00594563	-0.0271064777	-0.058279
C	 0.6818561104	-0.812265842	 1.0312612316	 0.151161
O	 1.64815294	-0.4363086391	 1.6404885761	-0.240117
N	-1.4831321153	-0.3112869595	 0.0662998827	-0.080333
C	-2.1396429327	 0.2039477495	 1.2641485091	-0.344078
C	-2.2589996842	-0.0587797548	-1.1333317632	-0.240011
C	-3.4770220257	-0.972959787	-1.2021457347	 0.155115
O	-4.5094690325	-0.6913553412	-1.748837376	-0.233993
H	 1.4283058793	 1.5756422172	-0.0837486083	 0.140979
H	-0.1190008515	 2.0333744269	-0.825884265	 0.117873
H	 0.0504030071	 1.9622722807	 0.9402130692	 0.130463
H	 0.2848638315	-0.4307663405	-0.97922198	 0.105496
H	 0.2442179075	-1.8249805767	 1.1803665462	 0.087431
H	-2.2882446784	 1.2965729659	 1.2506305397	 0.114354
H	-3.1243301589	-0.2622959933	 1.3731289198	 0.132886
H	-1.5545477723	-0.0496138972	 2.1532442192	 0.134628
H	-2.5962452851	 0.9840550847	-1.2575989421	 0.114478
H	-1.6468753688	-0.3067428137	-2.0116468183	 0.128756
H	-3.3118756138	-1.9595925691	-0.7112037812	 0.085721
