18
gdb 126545	4.66942	0.80913	0.72096	3.5142	74.41	-0.2292	0.0168	0.246	1573.3677	0.149095	-435.309928	-435.301023	-435.300079	-435.344735	32.201	
C	 0.0501191877	 1.5743402765	-0.0057485247	-0.384315
C	 0.1349404986	 0.0478747003	-0.0571044862	-0.157142
C	 0.627899538	-0.5595827043	 1.269367889	-0.308533
C	 0.6577484167	-2.0521152521	 1.2473698711	 0.37958
N	-0.3783015144	-2.8612903665	 1.0610600142	-0.398668
C	 0.1895819752	-4.0956527337	 1.1175960417	 0.413324
O	-0.5238688558	-5.2207116028	 0.9746729709	-0.409923
N	 1.4927521157	-4.1302807803	 1.3236480338	-0.289387
N	 1.7696346168	-2.793828781	 1.4016003756	-0.24662
H	 1.0277240014	 2.0227219068	 0.2044423982	 0.11403
H	-0.3038365655	 1.9808473518	-0.9577231064	 0.119119
H	-0.6414439572	 1.9067162897	 0.7763385982	 0.11905
H	-0.8453457865	-0.3806904499	-0.2891623407	 0.128082
H	 0.8073509655	-0.2638805868	-0.8653823013	 0.103513
H	 1.628819262	-0.1801670557	 1.50878495	 0.100698
H	-0.0336020513	-0.2345877373	 2.0817495317	 0.131627
H	-1.4390655815	-4.9473727207	 0.8404791144	 0.309511
H	 2.7158686245	-2.4930231539	 1.5650824806	 0.276055
