19
gdb 50445	3.19793	1.16677	0.89059	2.6575	83.46	-0.2376	-0.0231	0.2145	1290.9492	0.159369	-385.905377	-385.896867	-385.895922	-385.939517	31.665	
O	-0.2659999455	 0.3660975046	-0.8742594937	-0.24718
C	 0.2015182457	 0.9039454139	 0.094519867	 0.151768
C	 1.2121866817	 2.0439474555	 0.0669608604	-0.140157
C	 1.3628456181	 2.6262498411	-1.3480051791	-0.249012
C	 2.5533820566	 3.5290588891	-1.5361050562	-0.082977
C	 2.9732758428	 4.513552226	-0.743196351	-0.03673
C	 2.3882648665	 5.0439161208	 0.5369004639	-0.309598
C	 1.3528552834	 4.276569165	 1.3105337689	-0.061414
C	 0.8766331814	 3.0435648393	 1.1482874665	-0.062366
H	-0.0753430813	 0.5701250848	 1.1227309473	 0.080534
H	 2.1639014063	 1.5534625897	 0.3402942514	 0.120207
H	 1.4191268383	 1.7906433245	-2.0506190177	 0.120108
H	 0.4370027539	 3.1590488208	-1.6004877922	 0.12131
H	 3.1251726046	 3.3529417352	-2.4448753261	 0.087046
H	 3.853172745	 5.0679977973	-1.0663822039	 0.086554
H	 3.2177028637	 5.2548284319	 1.2317444284	 0.122451
H	 1.9802865905	 6.0473344428	 0.3276149972	 0.125876
H	 0.971354424	 4.8346293321	 2.1647838757	 0.090736
H	 0.1518322043	 2.6980075456	 1.8851797032	 0.082844
