19
gdb 82415	2.38875	1.87164	1.2553	2.677	76.59	-0.2366	0.0226	0.2593	1037.8106	0.160905	-419.194646	-419.186666	-419.185722	-419.227026	31.172	
C	-0.3783016768	 1.4468877077	 0.0029357461	-0.379985
C	 0.1286800912	 0.0082137706	 0.0201383032	-0.042101
N	 0.820040389	-0.2952144427	-1.2481207531	-0.098619
C	 2.2813066407	-0.1431819364	-1.2851858788	-0.262848
C	 1.6545835531	-1.4902296892	-1.2158814732	-0.020727
C	 1.6647755026	-2.2693629055	 0.0778892818	-0.114345
O	 1.7378945361	-1.4209565691	 1.2232540803	-0.248641
C	 0.956333274	-0.2978751765	 1.2636373451	 0.377355
N	 0.9466491975	 0.4498877322	 2.2842742737	-0.517327
H	 0.460225115	 2.147887403	-0.0269963115	 0.125669
H	-0.9970959117	 1.5999272875	-0.8844533194	 0.117053
H	-0.9585844979	 1.6605698246	 0.9010078611	 0.139295
H	-0.7388620311	-0.6678734925	 0.0425278261	 0.106679
H	 2.6775579474	 0.2209085872	-2.228234904	 0.121058
H	 2.7947838894	 0.2274473849	-0.4018762017	 0.136842
H	 1.612043777	-2.1136018379	-2.108251928	 0.097927
H	 0.764178908	-2.8979678152	 0.139562187	 0.116143
H	 2.5345920709	-2.9294829695	 0.1427221208	 0.128118
H	 1.5539809156	 0.0617881667	 3.0098614144	 0.218455
