13
gdb 3065	11.23627	0.99185	0.96182	1.4234	60.21	-0.2586	0.0101	0.2687	1153.0705	0.100258	-344.385642	-344.378053	-344.377109	-344.41872	25.335	
O	 0.2143479156	 1.1472902749	 0.6561525779	-0.399494
C	 0.0013123822	 0.1383081524	-0.3196316926	-0.194787
C	-1.3760333522	-0.3504630294	-0.3654549859	 0.095551
C	-2.5093355997	-0.7607055798	-0.3479390449	 0.061828
C	-3.8727760478	-1.2136328015	-0.3398370033	-0.116765
C	-4.2593754696	-2.518504456	-0.9142234878	-0.157962
O	-4.1956471843	-2.3414564126	 0.4933114265	-0.214276
H	-0.1108835984	 0.8092448702	 1.497254583	 0.290326
H	 0.2702827456	 0.5910828042	-1.2805157531	 0.143885
H	 0.6801109397	-0.716876602	-0.1717384029	 0.123455
H	-4.6275417004	-0.4283342067	-0.322583386	 0.120723
H	-5.2577526215	-2.6353144692	-1.3340128938	 0.121894
H	-3.4868818393	-3.1525008746	-1.3450142271	 0.125621
