18
gdb 37399	2.88597	2.22711	1.8004	1.1736	73.54	-0.2077	0.0633	0.271	829.9634	0.151252	-401.873904	-401.868052	-401.867108	-401.903667	25.894	
C	 0.0365261895	 1.478305188	-0.1085691553	-0.245725
C	 1.3046231588	 0.7012322741	 0.0444085257	-0.041653
C	 1.9658871233	 0.7085096468	 1.4141337778	 0.059792
O	 1.0627237166	 1.3760899632	 2.3472544101	-0.292719
C	 0.5006786002	 0.09067352	 2.6276673365	 0.114112
C	 1.756571772	-0.6682042429	 2.1776789016	-0.085616
C	 0.8807150001	-1.707617749	 1.4542740224	-0.235047
C	-0.2223372612	-0.6090694791	 1.3800630584	-0.050923
N	-0.001792928	 0.0261233827	 0.0756397558	-0.086976
H	-0.2438824203	 2.1366378445	 0.7036112298	 0.140886
H	-0.2719829428	 1.79131671	-1.1028549579	 0.109611
H	 1.9395130803	 0.4908634024	-0.8141466548	 0.087933
H	 2.9638271694	 1.1528906547	 1.4236085474	 0.081124
H	 0.0092274285	 0.0153317527	 3.5997607924	 0.080968
H	 2.5664775085	-0.9535659101	 2.8479944639	 0.076382
H	 1.198708097	-2.1223094914	 0.4956492003	 0.109618
H	 0.6227486945	-2.5192737691	 2.1404989872	 0.103354
H	-1.2704975264	-0.8913073675	 1.4905826787	 0.07488
