19
gdb 110276	2.33611	1.41729	1.16586	2.8394	76.02	-0.2354	-0.0109	0.2245	1156.8722	0.158057	-423.014988	-423.00603	-423.005085	-423.048728	33.566	
C	-0.0492098199	 1.6132848548	 0.0142017786	-0.383417
C	 0.145744894	 0.0989840766	 0.1555378491	-0.210634
C	 0.6492242616	-0.5335030274	-1.1406783374	-0.089991
C	 0.9016779271	-2.050608611	-1.2702524456	-0.134307
C	-0.3495822091	-2.8394421805	-1.3074424789	 0.10994
O	-1.4553945281	-2.4732382066	-0.5362452762	-0.410382
C	 0.0408858631	-2.1096965351	-2.5815626147	-0.257552
C	-0.2427441899	-0.6416705695	-2.4026569253	 0.410408
O	-0.8329845515	 0.1658315026	-3.0645792375	-0.325196
H	 0.8968850641	 2.1165880831	-0.216319533	 0.108551
H	-0.7493136543	 1.8421055879	-0.7944468378	 0.14226
H	-0.4399465428	 2.046632991	 0.9398313399	 0.108814
H	 0.8700599112	-0.1116557227	 0.9532581705	 0.092846
H	-0.7903070042	-0.381356224	 0.4489059897	 0.125985
H	 1.5518904035	-0.002699537	-1.4784217438	 0.1018
H	 1.8633386746	-2.5213311761	-1.1080266648	 0.103947
H	-0.1966823296	-3.9174932168	-1.3808067893	 0.102981
H	-2.2519612914	-2.650598943	-1.0483134724	 0.294201
H	 0.1903978716	-2.6336553963	-3.5178617512	 0.109747
