18
gdb 78897	2.92101	2.07265	1.66598	0.5037	72.34	-0.2388	0.0537	0.2925	871.1946	0.150307	-401.891149	-401.884721	-401.883777	-401.921645	26.907	
C	-0.0372605655	 1.5699335221	 0.029732293	-0.404182
C	 0.0649665456	 0.0446557633	 0.0277783015	 0.001972
C	 0.8578130895	-0.5555844712	-1.1248831056	-0.054245
C	 2.3158459024	-0.8075876768	-0.9611064018	-0.066972
C	 2.6946131726	-0.8971073759	 0.5312756622	 0.100872
O	 2.1125240693	 0.1176511263	 1.366368587	-0.306914
C	 0.8173039618	-0.5427369502	 1.2252465109	 0.066919
C	 1.4979877387	-1.8362070304	 0.6697191243	-0.063059
N	 1.2943045136	-1.9371478478	-0.8343169471	-0.169956
H	 0.9539733401	 2.0156997063	 0.1364661902	 0.138625
H	-0.4879563275	 1.9335300903	-0.8990197223	 0.113002
H	-0.659653091	 1.9195893323	 0.8598119002	 0.114815
H	-0.9417794078	-0.3956376699	-0.0005748871	 0.082745
H	 0.4993414051	-0.4095108022	-2.1401756382	 0.094319
H	 3.0094492076	-0.7676856595	-1.7947926347	 0.093213
H	 3.7323779525	-1.1282859036	 0.7721530449	 0.089293
H	 0.2703090094	-0.5597766983	 2.170142128	 0.080285
H	 1.4715531536	-2.7755293349	 1.2147863146	 0.089268
