20
gdb 57284	2.58743	1.2396	1.03847	3.3428	79.16	-0.293	0.0191	0.312	1238.3928	0.169717	-403.15414	-403.14456	-403.143616	-403.188418	35.736	
C	 0.0691936821	 1.5215772406	 0.0812689954	-0.402003
C	-0.0396796916	-0.0063953298	 0.0187740246	 0.157736
O	 0.5037923582	-0.4861969618	 1.2436618243	-0.439442
C	-1.4667500317	-0.4061086063	-0.0732242931	 0.249967
N	-2.5664631118	-0.7539171874	-0.150787886	-0.339386
C	 0.703873619	-0.5686019105	-1.2083093845	 0.050583
C	 2.2504653972	-0.4244039113	-1.2527056741	-0.247793
C	 2.3183887671	-1.8425898626	-1.8812188125	-0.2159
C	 0.8764864158	-2.105106459	-1.3678321632	-0.250873
H	 1.1235938488	 1.7979045283	 0.1578222824	 0.138712
H	-0.3567198286	 1.9775200748	-0.815343952	 0.132673
H	-0.4572678515	 1.9003360692	 0.9594122615	 0.143517
H	 0.3489178532	-1.4357901913	 1.2978699387	 0.29345
H	 0.24498348	-0.1476865343	-2.1085896256	 0.088172
H	 2.6659552768	 0.4095490873	-1.8221071701	 0.101717
H	 2.6636719388	-0.4094929345	-0.2408283414	 0.119549
H	 2.3558927046	-1.8023215129	-2.9731470389	 0.109475
H	 3.1070058967	-2.5114893104	-1.5308398165	 0.104106
H	 0.8905960575	-2.6218668644	-0.40201281	 0.089505
H	 0.1769056396	-2.6254791735	-2.0242205891	 0.116236
