20
gdb 64226	3.13562	0.97451	0.90828	5.6533	79.66	-0.2619	0.0335	0.2954	1374.6106	0.169299	-403.152944	-403.143217	-403.142273	-403.188185	35.22	
C	-0.1634066477	 1.5577719974	-0.054220601	-0.448718
C	-0.0449661358	 0.0342901693	-0.0115347454	 0.239581
C	-1.3727460012	-0.6342321312	-0.3554749209	-0.455426
C	 1.2034970379	-0.500525696	-0.7630261722	-0.101835
O	 1.8728420599	-0.8192339434	 0.4755612313	-0.286219
C	 0.6836014117	-0.5574555079	 1.2367084607	 0.123296
C	 0.9540671292	 0.3255614142	 2.4594346684	-0.369706
C	 1.722608659	-0.3764057561	 3.4854019371	 0.26837
N	 2.3194043063	-0.9389255442	 4.2991104751	-0.301514
H	 0.7924660802	 2.0508899198	 0.1463721737	 0.124925
H	-0.4943822629	 1.8791149808	-1.0476610251	 0.122265
H	-0.8978082802	 1.9266714392	 0.6702837875	 0.118484
H	-1.7124336503	-0.337181605	-1.3537894353	 0.121975
H	-1.2875660018	-1.7252810105	-0.3402554934	 0.123555
H	-2.1549399007	-0.3476330074	 0.3568110486	 0.119707
H	 1.0219849262	-1.3968548012	-1.370350575	 0.101788
H	 1.7688717108	 0.2275003299	-1.3561303901	 0.105854
H	 0.2207596688	-1.495211148	 1.5765621235	 0.087418
H	 1.5016126011	 1.2243562685	 2.1622370526	 0.154691
H	 0.0006191795	 0.6453380619	 2.8969415899	 0.151511
