23
gdb 59559	3.17481	1.23076	1.06978	1.4959	85.26	-0.2346	0.0894	0.3239	1253.1307	0.206739	-388.279194	-388.270542	-388.269598	-388.312324	34.466	
C	-0.0581841261	 1.4983122231	 0.1104042414	-0.389492
C	 0.0443649295	-0.0227549113	-0.0692030241	 0.004078
C	 0.8203431037	-0.3798529592	-1.344800569	-0.396472
C	 0.6988491572	-0.6568594757	 1.1611503488	 0.165947
O	-0.0183818051	-0.3122323616	 2.3791518176	-0.303373
C	-0.2569768331	-1.6019562103	 2.9659224986	 0.117752
C	 1.0978945258	-2.3302243427	 2.7934680443	-0.238795
C	 0.6886094237	-2.193022707	 1.2907854705	-0.087823
C	-0.7745529273	-2.4496347681	 1.779875055	-0.23841
H	 0.9386224002	 1.9514343408	 0.177012259	 0.10695
H	-0.5756009599	 1.957797999	-0.7380404917	 0.104019
H	-0.6016161949	 1.7437405324	 1.0255381671	 0.134191
H	-0.9734685325	-0.4226835392	-0.1580329988	 0.071727
H	 1.8610885872	-0.0399246923	-1.2802512025	 0.112616
H	 0.831764211	-1.4580171851	-1.5323497615	 0.112086
H	 0.3705353768	 0.1038912209	-2.2175813563	 0.113302
H	 1.7267711131	-0.2703645173	 1.2420298207	 0.065111
H	-0.7792580705	-1.4828332888	 3.9139742894	 0.076786
H	 1.9935904313	-1.8063091282	 3.1363930598	 0.097794
H	 1.0877787244	-3.3634330445	 3.1447353755	 0.098395
H	 1.1603338901	-2.7745484229	 0.5005835762	 0.073865
H	-0.9462284924	-3.4957509866	 2.038762823	 0.099002
H	-1.6098990122	-2.0508877954	 1.2015043171	 0.100743
