18
gdb 107374	3.37943	1.16575	0.97872	4.4217	72.27	-0.2374	0.0285	0.2659	1206.8158	0.148465	-439.110223	-439.101885	-439.100941	-439.143333	31.811	
O	-0.0562265062	 1.3469237854	 0.456578903	-0.419416
C	-0.0078182134	 0.0034813789	-0.004344309	-0.175219
C	-1.4145270475	-0.5226193673	-0.0465028889	 0.357765
C	-2.0182147888	-1.1251976261	 1.2079937863	-0.33213
C	-1.6965584236	-2.0069002532	 0.0237711381	-0.064353
N	-2.7519437606	-2.2604695428	-0.9119662442	-0.306942
C	-3.2776530395	-1.1247670269	-1.4911152515	 0.391197
O	-4.2682621672	-1.0807443418	-2.1833632227	-0.3683
C	-2.3792305246	 0.0522984688	-1.0731067715	-0.408961
H	 0.8248561625	 1.7245828433	 0.3770679364	 0.289406
H	 0.4362049551	-0.052277174	-1.0117476615	 0.090043
H	 0.6056690315	-0.6265272072	 0.6604862538	 0.082894
H	-1.371096875	-1.1853968986	 2.0767886579	 0.119001
H	-3.0645426356	-0.9409168567	 1.4297789966	 0.119913
H	-0.9027831516	-2.7447901002	 0.0718724856	 0.102965
H	-3.3100055109	-3.1003250724	-0.889200179	 0.250916
H	-3.0010822003	 0.867122477	-0.6951341558	 0.142742
H	-1.8515285043	 0.4336408939	-1.9542388636	 0.128481
