16
gdb 42462	7.77271	0.59453	0.55791	5.0517	76.34	-0.2697	-0.0422	0.2275	1854.8899	0.120595	-400.746666	-400.736678	-400.735734	-400.783992	33.926	
O	-0.0156538656	-0.1531287215	-0.0022462075	-0.260169
C	-0.0044710943	 1.0498720395	 0.0033948981	 0.376691
C	 1.2730976763	 1.8714391469	-0.0027097446	-0.297506
C	 2.5377607657	 0.9972205466	-0.016878037	-0.361782
C	 3.7549163493	 1.7979835813	-0.0225966069	 0.280664
C	 4.7426197527	 2.4824875158	-0.0270835936	-0.420525
C	-1.30425791	 1.8813035307	 0.0175435153	-0.457173
C	-2.5160219854	 1.0723246307	 0.0232347792	 0.290134
N	-3.4881710253	 0.4500277025	 0.0279340428	-0.290618
H	 1.2574924362	 2.5417369699	-0.8717714404	 0.142167
H	 1.271235592	 2.5333321966	 0.8729077479	 0.142171
H	 2.5251369211	 0.3307729068	 0.8524455113	 0.152184
H	 2.5114093896	 0.3391848268	-0.8922837065	 0.152181
H	 5.6270819799	 3.070054755	-0.0312112205	 0.199248
H	-1.2949073421	 2.5386730128	 0.8957305242	 0.176166
H	-1.3086564	 2.5469563698	-0.8544206018	 0.176167
