15
gdb 27374	2.02744	1.90718	0.98987	9.0959	71.06	-0.2336	-0.0207	0.213	1132.4123	0.113939	-450.204119	-450.195805	-450.19486	-450.237367	30.532	
C	-0.0275342168	 1.4931124751	 0.0567599671	-0.491026
C	-0.0035811512	-0.0048324155	-0.0387117166	 0.382393
N	-0.0526051268	-0.6109386721	-1.1637312771	-0.321751
C	-0.0016249044	-2.0392349085	-1.1821228825	 0.366267
O	-0.0023547263	-2.6258109792	-2.2356731434	-0.342906
N	 0.0353699698	-2.7357362455	 0.0406509601	-0.355217
C	 0.0868929877	-2.0623615322	 1.1356610567	 0.46012
N	 0.2114987397	-2.6909585868	 2.3509356	-0.573847
N	 0.07034197	-0.6841148505	 1.1672478482	-0.37597
H	 0.8780469922	 1.8675590324	 0.5480831949	 0.141211
H	-0.0868696141	 1.9081696296	-0.9480184102	 0.173087
H	-0.8890273243	 1.8340052798	 0.6419654214	 0.141532
H	 0.0698673081	-3.6887826143	 2.2810888093	 0.27778
H	-0.2370004182	-2.2643990781	 3.1481713292	 0.255704
H	 0.2168491046	-0.1817653241	 2.028452683	 0.262623
