23
gdb 123237	10.24665	0.35557	0.35127	3.1215	84.99	-0.2481	-0.0191	0.229	2970.8606	0.202898	-425.437582	-425.42608	-425.425136	-425.476323	38.964	
O	-0.0662410328	 1.5049459659	-0.0949730699	-0.421094
C	 0.0447820434	 0.0902973354	-0.0530329513	-0.073952
C	-1.3622987526	-0.4904904736	-0.0074191527	-0.165576
C	-1.3777363215	-2.0211519194	 0.0371227862	-0.188571
C	-2.7935055122	-2.6057788095	 0.0862713189	-0.17418
C	-2.8130089737	-4.1375359756	 0.1277732688	-0.194252
C	-4.2370969688	-4.7176810294	 0.1908007293	-0.273017
C	-4.2339164571	-6.2266096074	 0.1185443991	 0.159932
O	-4.7195737362	-6.9632249092	 0.9376008175	-0.237499
H	 0.8203798937	 1.876112942	-0.1192907768	 0.285308
H	 0.5770407635	-0.2945272222	-0.9388784397	 0.082679
H	 0.6117972149	-0.2392431953	 0.8334755028	 0.083412
H	-1.8777328024	-0.0817986268	 0.8704503449	 0.105675
H	-1.9133710656	-0.1323852744	-0.8858321796	 0.10476
H	-0.8516752237	-2.4202859261	-0.8413249532	 0.094348
H	-0.8124100391	-2.3693301429	 0.9127376147	 0.096308
H	-3.3200483588	-2.211579135	 0.9656291803	 0.101402
H	-3.3621752841	-2.2599081152	-0.7877803451	 0.097169
H	-2.2973244995	-4.5335152187	-0.7577291639	 0.100935
H	-2.242160394	-4.4886979483	 0.9969719122	 0.110781
H	-4.757757251	-4.4113139497	 1.1028953105	 0.121253
H	-4.8124686781	-4.3473281867	-0.6708125138	 0.116848
H	-3.7193648042	-6.6367899679	-0.7837620894	 0.067331
