17
gdb 104937	2.85059	0.86092	0.71473	6.1475	88.58	-0.2667	-0.0418	0.2249	1564.5844	0.135382	-380.835239	-380.825957	-380.825012	-380.869965	33.25	
C	 0.1740486012	 1.4583114331	-0.2765328911	-0.382684
C	-0.1493403425	 0.0135830902	 0.1188567168	-0.263841
C	 0.6829927882	-0.4926623746	 1.292966698	 0.038257
C	 1.0859677623	-1.9353392815	 1.3377474881	-0.267198
N	 2.0913615287	-0.9080011785	 1.0625487528	-0.319938
C	 0.465101355	 0.1921275432	 2.5406155538	 0.147121
C	 0.2378393579	 0.7673090399	 3.5796904491	 0.073149
C	-0.0112582181	 1.4121783418	 4.7561063187	 0.19493
N	-0.2273202378	 1.9617386801	 5.7569806251	-0.337702
H	 1.2250176507	 1.5675620362	-0.5630623504	 0.123583
H	-0.4410232738	 1.7718785394	-1.1244833994	 0.124225
H	-0.0184099939	 2.145120449	 0.5527754265	 0.139991
H	-1.211523103	-0.0752809391	 0.3745069449	 0.121865
H	 0.0252104498	-0.6594100794	-0.7296624386	 0.101637
H	 1.1913423082	-2.4321841527	 2.2969091287	 0.140033
H	 0.7296284002	-2.5662366259	 0.5273321111	 0.126005
H	 2.282455787	-0.8590571512	 0.0634912659	 0.240567
