23
gdb 60166	4.05652	0.72965	0.66647	1.8569	82.76	-0.2501	0.0702	0.3203	1746.1173	0.203992	-425.416568	-425.406209	-425.405265	-425.452283	38.733	
C	 0.0219692019	 1.5488900565	 0.0570302809	-0.40085
C	-0.0014626545	 0.0194479242	 0.0526127499	 0.137165
O	 0.6902662105	-0.5064818723	 1.1852070888	-0.422428
C	-1.4248239005	-0.5426486282	-0.0632460866	-0.2231
C	-1.494683971	-2.06313581	-0.1326965189	 0.056544
C	-1.261490768	-2.9105870162	 1.1510224932	-0.233907
C	-2.3736752569	-3.8640998919	 0.6775158427	 0.139029
O	-3.2083994256	-4.3353238271	 1.7110621844	-0.433381
C	-2.8907539802	-2.7378181892	-0.2607517216	-0.293888
H	 1.048408828	 1.9115241477	 0.1586326602	 0.12276
H	-0.4025626199	 1.956747756	-0.8661960041	 0.113885
H	-0.5648985871	 1.944272504	 0.8958833814	 0.105398
H	 0.5843394958	-0.3399482548	-0.8036236435	 0.085839
H	 0.2192934542	-0.2165645481	 1.9745413814	 0.275588
H	-2.0226666458	-0.1860510323	 0.7899461035	 0.080152
H	-1.8930318446	-0.1155543728	-0.9609536354	 0.094033
H	-0.8368219977	-2.4190134884	-0.9347176123	 0.067457
H	-0.266162226	-3.3138696093	 1.3392831042	 0.105978
H	-1.6051272407	-2.3757765121	 2.0426989595	 0.095412
H	-1.9574366563	-4.6978342931	 0.0928953037	 0.062872
H	-3.8638884655	-4.925318324	 1.3255543796	 0.279359
H	-3.659028205	-2.1544920794	 0.2580759942	 0.099337
H	-3.252188065	-3.0054736491	-1.257632235	 0.086744
