20
gdb 110037	2.05934	1.69299	1.0504	2.7984	76.08	-0.2266	0.0232	0.2498	1189.3715	0.171343	-440.323901	-440.314538	-440.313594	-440.358071	34.244	
C	-0.6875730601	 1.066803204	-0.0540805708	-0.243396
O	-0.3232792442	-0.3020672545	-0.1271488983	-0.257526
C	 0.7200410697	-0.5746202185	-1.0476674963	 0.001345
C	 1.1770720164	-2.0329536272	-0.8851470515	-0.012584
C	 1.231608321	-2.5543305978	 0.5471627028	-0.406514
C	 0.2146443061	-2.8105931951	-1.8144192138	-0.172429
N	-0.0866302174	-1.8300564524	-2.8436805032	-0.305779
C	 0.1408294004	-0.5330905721	-2.4812431641	 0.401838
O	-0.1217423429	 0.4559936435	-3.1347239749	-0.390027
H	 0.1653609299	 1.684407942	 0.2666096535	 0.104747
H	-1.0490077234	 1.4452316776	-1.0162715864	 0.144499
H	-1.4806254855	 1.1396507625	 0.6939469146	 0.121953
H	 1.5349687387	 0.1526116394	-0.9317821476	 0.079186
H	 2.1754750647	-2.0935438291	-1.3351488574	 0.089649
H	 0.2611463681	-2.4488271811	 1.0361096643	 0.139754
H	 1.5189763726	-3.6110414347	 0.5622508417	 0.110669
H	 1.9672487732	-2.0001541825	 1.1381048953	 0.118544
H	 0.6844807812	-3.7040536483	-2.2379456431	 0.110649
H	-0.6895430703	-3.1235605174	-1.2742051384	 0.114924
H	-0.6219116684	-2.0377227682	-3.6723936562	 0.250501
