12
gdb 43430	3.28668	1.30364	0.93341	4.813	74.03	-0.2914	-0.1166	0.1748	1129.5105	0.079331	-431.734062	-431.726761	-431.725817	-431.766135	26.684	
N	-0.096927809	 1.3118597891	 0.0110016583	-0.510712
C	-0.0029035116	 0.0437556458	 0.0033070283	 0.424862
N	 1.1180146689	-0.7874323815	-0.0069801405	-0.417522
C	 0.7780783618	-2.1372920514	-0.0129921113	 0.386451
O	 1.5321044664	-3.073052106	-0.0220446765	-0.321524
C	-0.7351413638	-2.1386418662	-0.0054980975	 0.075294
C	-1.1678047576	-0.8661455368	 0.0038963937	-0.248432
C	-1.4951912432	-3.3332408441	-0.0085362539	 0.253422
N	-2.1115185679	-4.3127009295	-0.0110613665	-0.316237
H	 0.8177718397	 1.7673254326	 0.0090670894	 0.231475
H	 2.0757707236	-0.4752290777	-0.0099262774	 0.274585
H	-2.1833269373	-0.4993629943	 0.0110200438	 0.168338
