21
gdb 107967	2.66065	1.36417	1.2934	1.7371	82.55	-0.2246	0.0847	0.3092	1145.9464	0.180913	-387.016038	-387.007208	-387.006264	-387.049325	34.11	
C	-0.069284332	 1.5471730088	 0.0428888639	-0.378915
C	 0.0166536786	 0.0194984735	-0.0665143573	-0.322445
C	 0.6623781901	-0.4535937198	-1.3401127439	 0.285505
C	 0.257107519	-0.2407647326	-2.8200394837	-0.334784
C	 1.5369749463	-1.0949558762	-2.9361285001	-0.137413
C	 2.1867424239	-0.4164284604	-1.6983080802	 0.04728
O	 2.5027794214	-1.6629543215	-1.0136806224	-0.364249
C	 1.1987219187	-1.9052930621	-1.6410725469	 0.420048
C	 0.5468435355	-3.2388404967	-1.4651941666	-0.528435
H	 0.9262215262	 2.0018115092	 0.0046679216	 0.117844
H	-0.6604403733	 1.97171627	-0.7752785443	 0.118282
H	-0.5378988116	 1.8483624651	 0.9845703671	 0.114141
H	 0.5954356983	-0.3843618838	 0.7739030402	 0.112582
H	-0.9901666714	-0.4120847347	 0.0113041356	 0.097352
H	-0.6774382896	-0.709032919	-3.144578052	 0.094389
H	 0.318731059	 0.7815874352	-3.2043469026	 0.096739
H	 2.0540346173	-1.4679617966	-3.8204939247	 0.077503
H	 2.9021384586	 0.4044118647	-1.6463850004	 0.087517
H	 0.3624334119	-3.4416789783	-0.4055182938	 0.134108
H	-0.4105425125	-3.2674800193	-1.9953205138	 0.127438
H	 1.1856072855	-4.0340955854	-1.8617688657	 0.135513
