19
gdb 107450	3.51065	1.31248	1.16676	1.9237	74.18	-0.2233	0.0524	0.2757	1100.18	0.161398	-419.149447	-419.141708	-419.140763	-419.181487	30.839	
O	 0.4968729001	 0.6356490144	-0.9312176828	-0.409819
C	-0.0434856189	 0.1927327731	 0.3045719495	-0.20489
C	-1.4769081855	-0.2779407234	 0.1799783685	 0.330698
N	-1.8821640024	-1.0402026056	-1.0171213737	-0.373036
C	-2.4685166845	 0.2955817466	-0.770280121	-0.096839
C	-3.8333070034	 0.2646927533	-0.0954278623	-0.172143
N	-3.6653664777	-0.2973941733	 1.2672194898	-0.109985
C	-3.2702408017	-1.712093999	 1.3418882583	-0.24579
C	-2.2366287615	-0.6500686302	 1.4365852281	-0.100301
H	 0.1229290865	 1.5011660309	-1.1244169031	 0.291131
H	 0.5914347805	-0.6425602793	 0.6227445309	 0.126314
H	 0.0287132263	 0.9691222145	 1.0807871207	 0.104109
H	-1.1373305603	-0.9336789966	-1.7062447293	 0.236909
H	-2.2276032081	 1.1018513906	-1.4587997613	 0.073438
H	-4.2166685927	 1.2860690552	 0.0087352652	 0.105375
H	-4.5681862561	-0.3151309761	-0.6630190064	 0.116459
H	-3.6084578666	-2.2202633771	 2.2414096334	 0.106717
H	-3.2741593484	-2.3051091038	 0.433231708	 0.14041
H	-1.7778321456	-0.3920636942	 2.3883820376	 0.081242
