17
gdb 91203	2.05046	1.66316	1.59304	3.5607	67.46	-0.2697	-0.0018	0.2679	988.8355	0.134957	-458.975556	-458.967109	-458.966164	-459.008607	31.39	
C	-0.0348826425	 1.5648406637	 0.0513892249	-0.506396
C	 0.0111162437	 0.0552695434	 0.072803928	 0.093202
C	-1.3114134202	-0.7652601811	 0.3067208897	 0.089432
O	-2.0045595175	-1.2806732898	-0.7909018692	-0.42328
C	-0.5533310211	-1.7142435873	 1.2969547857	-0.283866
C	 0.7268873352	-0.8864636764	 1.0861694024	 0.05692
O	 1.5277156448	-1.4560877154	-0.0041613877	-0.25625
C	 0.9068837306	-0.6610550391	-0.9365742348	 0.41194
O	 1.074943743	-0.6596189051	-2.1157808597	-0.336879
H	 0.9681260953	 2.0025913219	 0.0602631817	 0.133309
H	-0.5418453784	 1.9074526331	-0.8565023703	 0.151336
H	-0.5860859653	 1.9528421626	 0.9137221416	 0.124758
H	-2.0317682178	-0.1421113149	 0.84429367	 0.10405
H	-1.3844928723	-1.7140211942	-1.3889206206	 0.296884
H	-0.9531994223	-1.6930369214	 2.3127968871	 0.117198
H	-0.4543484087	-2.7519608743	 0.9717904291	 0.124859
H	 1.3529071536	-0.5676940957	 1.9169013219	 0.102783
