16
gdb 65838	2.66809	1.3433	1.21182	4.0525	70.96	-0.2528	0.0078	0.2606	1088.835	0.125228	-434.10104	-434.092738	-434.091794	-434.133962	30.936	
C	-0.1918283036	 1.6041086924	-0.0132909812	-0.434793
C	 0.0794993841	 0.0955997654	 0.0056042681	 0.091168
C	 0.946594573	-0.385401454	-1.1891748794	-0.105583
O	 1.7152283025	-1.468355849	-0.671596144	-0.240757
C	 1.7469340731	-1.3914195488	 0.6963631954	 0.466847
N	 2.3806474308	-2.1471247617	 1.4802372931	-0.581457
N	 0.9638348898	-0.3088110948	 1.0893601804	-0.342346
C	-1.2094398235	-0.6390561632	 0.0452574811	 0.26699
N	-2.2190261198	-1.1990351609	 0.1000599676	-0.325439
H	 0.7598607989	 2.1400172879	-0.0058096658	 0.141285
H	-0.7606843948	 1.8812513121	-0.9052887779	 0.144459
H	-0.7720319698	 1.9036031643	 0.8630727903	 0.145852
H	 0.3568478519	-0.7382391086	-2.0358517295	 0.146318
H	 1.6120478857	 0.424578514	-1.5091821152	 0.124881
H	 2.919743694	-2.8362552526	 0.9615249615	 0.232663
H	 0.6097154777	-0.3472849924	 2.0338701556	 0.26991
