12
gdb 25193	2.5416	1.9289	1.32694	3.377	64.2	-0.2812	-0.0856	0.1955	907.9168	0.078492	-468.829915	-468.822849	-468.821905	-468.86189	25.389	
N	-0.0651363862	 1.0033205224	-0.7631191908	-0.463846
C	-0.0271124389	-0.019119685	-0.0168948651	 0.203467
N	 1.0900883671	-0.5899992487	 0.5928261504	-0.238248
C	 1.3488249534	-1.8317286199	 0.4216441823	 0.062995
N	 0.7271683043	-2.7306701685	-0.429979649	-0.246987
C	-0.5224435314	-2.7246159402	-0.6566852718	 0.15697
O	-1.4997593434	-1.9872916631	-0.0851524885	-0.20666
C	-1.3473196605	-0.6609848128	 0.3743689906	 0.439959
O	-2.2302302135	-0.1719935018	 0.990681038	-0.258555
H	 0.8847891405	 1.3490706968	-0.9265831473	 0.239619
H	 2.213389538	-2.2475171439	 0.9363864704	 0.14859
H	-0.9513962795	-3.4360630553	-1.3580996991	 0.162695
