15
gdb 131556	3.10966	1.6257	1.15384	4.0141	67.58	-0.2091	0.0079	0.217	1007.12	0.115356	-453.935834	-453.928586	-453.927642	-453.967772	27.436	
O	-0.0846184525	 1.4452244588	-0.1374314774	-0.424762
C	 0.0058456212	 0.0308693675	 0.0057760568	-0.090621
C	 0.5064293158	-0.4420398608	 1.4247364632	-0.108242
O	-0.6186221987	-0.9259592206	 2.2024325453	-0.288867
C	-1.6333597709	-1.0488499435	 1.3035076066	 0.292689
C	-1.353165988	-0.5710677165	 0.0539790917	 0.312622
N	-2.4752946006	-0.757061082	-0.6847888814	-0.327637
N	-3.4569992874	-1.3343849434	 0.0344139254	-0.215277
C	-2.95481373	-1.5231395031	 1.2641672809	-0.150992
H	 0.8050698835	 1.788426289	-0.2741261235	 0.284478
H	 0.6586242458	-0.3809749778	-0.7767144418	 0.08497
H	 1.2235143771	-1.2644181405	 1.3254892295	 0.115873
H	 0.9688191332	 0.3864833002	 1.9675280347	 0.120155
H	-2.6599981438	-0.5025110945	-1.6394142656	 0.276784
H	-3.5616920248	-1.9782364527	 2.0303070956	 0.118828
