19
gdb 84943	2.06439	1.70303	1.32188	3.4252	76.66	-0.2319	-0.0237	0.2082	1064.4017	0.160212	-423.047778	-423.039297	-423.038353	-423.080647	32.567	
O	-0.0523335677	 1.4247891154	-0.2190883334	-0.435437
C	 0.0251615193	 0.0065674683	-0.0725235854	-0.00193
C	 0.7439286743	-0.4080256727	 1.1984424495	-0.118571
C	 0.3684341999	-0.039312587	 2.4257072665	-0.046308
C	-0.8457995464	 0.7971731442	 2.7720144442	-0.243292
C	-2.1836050106	 0.1918330212	 2.3009672705	-0.199231
C	-2.4262253622	 0.2301549331	 0.7747173843	-0.289592
C	-1.4057489696	-0.5551599747	-0.0305295274	 0.390129
O	-1.6667865178	-1.5932184394	-0.5913672358	-0.314056
H	 0.8039358791	 1.7866117301	 0.0320248704	 0.286202
H	 0.5138621679	-0.4493994757	-0.9420290006	 0.088792
H	 1.6120379477	-1.048663943	 1.0734821234	 0.100194
H	 0.9754462931	-0.3775862139	 3.2626480825	 0.099814
H	-0.8868040465	 0.9244651878	 3.8580602956	 0.100313
H	-0.7400912333	 1.7997451091	 2.3406817209	 0.119953
H	-2.257151938	-0.8437489485	 2.653472979	 0.112429
H	-3.0016095079	 0.7438980847	 2.7779175621	 0.103499
H	-3.407599686	-0.1948378489	 0.5487157016	 0.114523
H	-2.4041075254	 1.2714211201	 0.437282252	 0.132569
