18
gdb 52997	3.23525	0.94945	0.83987	2.3037	84.17	-0.2277	0.0214	0.249	1441.5294	0.146157	-401.875819	-401.866448	-401.865504	-401.911674	33.629	
C	-0.0357981436	 1.4570796231	 0.0489349287	-0.509458
C	 0.0047220593	 0.0034468968	 0.0090612713	 0.270229
C	 0.0262528566	-1.2019151659	-0.0318144045	-0.202747
C	 0.1019462684	-2.6230818809	-0.0441679701	 0.157613
C	-0.2634545413	-3.4768758596	-1.2025493023	-0.277976
N	-1.1229430179	-3.5729530821	-0.0180698499	-0.165737
C	-0.3648525634	-4.4534650728	 0.9398432088	-0.175617
C	 0.8272792316	-3.480572859	 1.0113485259	 0.023031
O	 2.0633491796	-4.0577612175	 0.6669242184	-0.423403
H	 0.9722639867	 1.8790652865	 0.1303385214	 0.149051
H	-0.4920081332	 1.8658125339	-0.8594177731	 0.152553
H	-0.616479231	 1.8184466964	 0.9050078327	 0.151518
H	-0.7427927361	-2.9759945799	-2.0371507541	 0.128462
H	 0.3805551933	-4.3136170843	-1.4660607271	 0.123902
H	-0.9133807648	-4.5573559976	 1.8769317441	 0.114414
H	-0.1289260623	-5.44300314	 0.5367057894	 0.115762
H	 0.8794879094	-2.95321897	 1.9713875333	 0.081765
H	 2.7352483187	-3.367512487	 0.6809250171	 0.286637
