11
gdb 4426	4.1522	2.11893	1.40297	3.3327	56.49	-0.2575	-0.0628	0.1946	786.7154	0.074431	-430.762817	-430.756789	-430.755845	-430.793321	22.121	
O	-0.1067464084	 1.2713316268	 0.0105115829	-0.359331
C	 0.0371271587	-0.0400001582	 0.0021768888	 0.534184
N	 1.2064252246	-0.5988579072	-0.0071813526	-0.408528
C	 1.1445412988	-1.9720812862	-0.0146091811	 0.076597
N	 0.0833206073	-2.7101203059	-0.0131631514	-0.299694
C	-1.1423914864	-2.0752279966	-0.0028244214	 0.440194
N	-2.2963068961	-2.5764947424	 0.0001880455	-0.509627
O	-1.1302632166	-0.6470649282	 0.0050753945	-0.186331
H	 0.7861316584	 1.6473599021	 0.0079082156	 0.328529
H	 2.1090448861	-2.474929777	-0.0227590793	 0.139125
H	-2.2072710564	-3.591127227	-0.0063126413	 0.244881
