25
gdb 113929	2.72374	0.89255	0.78229	1.071	90.49	-0.2289	0.0845	0.3134	1643.9254	0.226231	-389.482224	-389.471182	-389.470238	-389.518781	40.667	
C	 0.1090335896	 1.2574452758	-0.0056206322	-0.373356
C	-0.0829117254	-0.1937325971	 0.449337619	-0.191151
C	-1.4932691825	-0.6997424124	 0.2306658686	-0.021581
C	-1.9176692874	-1.1561999198	-1.1557807871	-0.334658
C	-1.7737511342	-2.1601932667	-0.0553549904	 0.122699
O	-0.730499598	-3.0776953678	-0.1861942532	-0.260619
C	-0.5952917897	-4.0024747495	 0.8934346411	 0.152534
C	 0.3691332486	-5.0784107339	 0.4081627154	-0.390686
C	-0.1200991396	-3.3387759667	 2.1878980585	-0.389444
H	 1.1364236859	 1.5944073905	 0.1661390344	 0.107733
H	-0.1080281683	 1.3667482714	-1.0732876868	 0.116691
H	-0.5587189929	 1.9356822302	 0.5374188442	 0.109851
H	 0.6138271732	-0.8501336721	-0.0826733505	 0.106647
H	 0.1732913877	-0.2780647076	 1.5135545764	 0.091307
H	-2.2549106557	-0.1831714051	 0.8120909216	 0.074843
H	-2.9088492994	-0.9173367444	-1.5251097842	 0.107622
H	-1.1444172096	-1.1777368255	-1.9173923855	 0.120099
H	-2.6851927218	-2.590589705	 0.3622190955	 0.079249
H	-1.5815287175	-4.4621315653	 1.0775387319	 0.064881
H	 1.3535158597	-4.6429210393	 0.2088932968	 0.121514
H	 0.4843398645	-5.8624449342	 1.1623749608	 0.111135
H	 0.002071714	-5.53145056	-0.5163241468	 0.121837
H	-0.0371517195	-4.0842673987	 2.9855535775	 0.110433
H	 0.8618249577	-2.8770758097	 2.0436745059	 0.121333
H	-0.8187756591	-2.5665754672	 2.5207453293	 0.121085
