17
gdb 3371	3.83868	2.65663	2.58078	1.3047	62.84	-0.244	0.07	0.314	654.6899	0.150701	-309.714859	-309.708461	-309.707516	-309.744759	25.055	
O	-0.3803642834	 1.5713476454	 0.0854185692	-0.416846
C	-0.1490438175	 0.1895915972	 0.0429281797	 0.094841
C	-0.4292139564	-0.7213028146	 1.2158916015	-0.093273
C	-1.2563340509	-0.1878018177	 2.3790427843	-0.214204
C	-2.5183998972	 0.4531702726	 1.7499468643	-0.203651
C	-2.6966709836	-0.2307183179	 0.3726870801	-0.20458
C	-1.3187955825	-0.7466918668	-0.0232745329	-0.071095
H	 0.2936654033	 1.9663936732	 0.6481840316	 0.286743
H	 0.707510652	-0.0919919781	-0.5711463275	 0.080673
H	 0.2848170298	-1.5134460168	 1.4182635941	 0.075978
H	-1.527514918	-1.0299743385	 3.0263800228	 0.098329
H	-0.7070971556	 0.5246470622	 3.0058037576	 0.087238
H	-3.3995058917	 0.3321139967	 2.3866608959	 0.086972
H	-2.3562818458	 1.5216608792	 1.6061393114	 0.114529
H	-3.3774508663	-1.0868083412	 0.4476882682	 0.094406
H	-3.1210905403	 0.4539597061	-0.3684378011	 0.10466
H	-1.2685014658	-1.559384981	-0.740364239	 0.07928
