15
gdb 131470	3.25746	1.63558	1.14242	3.4476	73.79	-0.2139	-0.0166	0.1973	1005.8534	0.11581	-416.819312	-416.812352	-416.811408	-416.850574	27.362	
O	 0.1119884849	 1.4067632016	-0.2053206415	-0.416006
C	 0.0053587375	 0.0013258946	-0.0471417922	-0.044397
C	 0.6482541551	-0.5445797205	 1.2352160226	-0.129413
C	-0.1999753938	-1.3033119115	 1.9536583336	-0.221934
C	-1.4901140306	-1.3468476665	 1.2655345314	 0.233728
C	-2.7837379523	-1.8118476463	 1.2674032277	-0.220067
N	-3.3540300622	-1.2901331036	 0.1368732437	-0.186971
N	-2.5148462502	-0.5186956894	-0.6002092063	-0.322719
C	-1.3923462195	-0.5624130973	 0.0923920336	 0.283172
H	-0.3913406475	 1.814248925	 0.5083926214	 0.283631
H	 0.5098775563	-0.4185773676	-0.9266427304	 0.117185
H	 1.6744325004	-0.3132146498	 1.4910028041	 0.106015
H	 0.029814476	-1.7983252978	 2.8890383465	 0.106234
H	-3.3452454667	-2.4479111163	 1.9329532324	 0.137401
H	-4.3016245974	-1.4092707746	-0.1784963966	 0.274141
