19
gdb 114543	3.33376	1.34441	1.30781	0.7403	71.2	-0.2361	0.076	0.3121	1061.5124	0.159689	-460.129297	-460.121128	-460.120184	-460.162576	30.989	
O	-0.2118882659	 1.54588516	 0.0033691476	-0.409098
C	-0.0345355121	 0.1455499267	 0.0032074817	-0.100498
C	-1.3981893643	-0.526013509	 0.0129797829	 0.245334
O	-2.0725466845	-0.1641030743	 1.2045619817	-0.292642
C	-3.4909763464	-0.1400311105	 1.0690944293	 0.120449
C	-3.9627938659	-1.1966654237	 0.0316877146	-0.278887
C	-3.5063762862	-0.1390799484	-1.0116343354	 0.120483
C	-3.8683961397	 0.9522613572	 0.0319696987	-0.242692
O	-2.0901191463	-0.1631225728	-1.1682146297	-0.292578
H	 0.6572019931	 1.9557449954	 0.0058734276	 0.28985
H	 0.5009199805	-0.2051174049	-0.8923066657	 0.094623
H	 0.5127170942	-0.20402787	 0.8919267546	 0.094713
H	-1.2458471601	-1.6201576407	 0.0113773199	 0.063814
H	-3.90375311	-0.1244557637	 2.0787114322	 0.078019
H	-3.5006929299	-2.1860218804	 0.0277945867	 0.106858
H	-5.0499585428	-1.2984034059	 0.0396643456	 0.106595
H	-3.9341219334	-0.1225593181	-2.0149863047	 0.078052
H	-4.9350066489	 1.1913575749	 0.0399270153	 0.093975
H	-3.2544599715	 1.8535755982	 0.0278847472	 0.123631
