17
gdb 33808	2.17283	1.5904	1.12376	0.6878	88.89	-0.2249	0.0102	0.2351	1129.2913	0.13387	-347.465082	-347.456484	-347.45554	-347.498	33.521	
C	 0.0812222879	-1.2044374303	-0.0260599278	-0.41389
C	 0.0452126133	-0.0010206879	-0.0116370942	 0.207883
C	-0.0058296425	 1.4169353719	 0.0383179229	 0.128713
C	 0.2706913974	 2.2933722547	-1.1556651271	-0.35818
C	 1.1827289163	 2.4564826829	 0.0325235762	 0.12864
C	 0.4623940122	 3.2710384774	 1.1217922245	-0.283548
C	-0.7111294745	 2.2445754997	 1.1275672299	-0.283571
C	 2.5809690205	 2.2168280079	-0.0239760043	 0.207862
C	 3.768778085	 2.0208429662	-0.0446584559	-0.413822
H	 0.1159998577	-2.2652655857	-0.0466752981	 0.188113
H	 0.7110190878	 1.7851663573	-2.0055346066	 0.13922
H	-0.4270817818	 3.0897287923	-1.4078169407	 0.113257
H	 1.0116869902	 3.2790949256	 2.0638508018	 0.121168
H	 0.2202981067	 4.3008604617	 0.8425731887	 0.104438
H	-1.7011108003	 2.6202553084	 0.8520606268	 0.104435
H	-0.7869509693	 1.7058353608	 2.0726986378	 0.121174
H	 4.8154891233	 1.8454105573	-0.0694317539	 0.188108
