20
gdb 39449	2.36537	1.93133	1.30069	1.8831	77.8	-0.2419	0.0692	0.3111	1024.6073	0.173977	-403.117	-403.109664	-403.10872	-403.148551	29.847	
C	-0.0173303946	 1.5068654775	 0.0627584041	-0.145213
O	 1.4206519684	 1.4767497173	-0.1284169386	-0.299979
C	 1.3895098473	 0.0767780416	-0.5217639043	 0.08155
C	 2.4681241388	-0.795525266	 0.1191928244	-0.227386
C	 2.0777471369	-1.3087388309	 1.512649612	-0.199989
C	 0.6929633497	-1.9861692948	 1.4786240417	-0.228666
C	-0.3774812907	-0.9655372859	 1.1094461734	-0.068393
N	-1.0929830427	-0.9635055099	-0.1910940869	-0.409313
C	-0.0287091722	-0.0117745118	 0.0370904642	 0.279704
H	-0.3025583511	 2.0054920865	 0.9952772021	 0.107321
H	-0.5320302207	 1.9824843424	-0.7835409325	 0.102506
H	 1.4334318161	 0.0038394505	-1.619563862	 0.069123
H	 2.6548310828	-1.6543488656	-0.5392020086	 0.094571
H	 3.3989489023	-0.2186454149	 0.1525865111	 0.116009
H	 2.8373854695	-2.0097344001	 1.8742822068	 0.094642
H	 2.0514451453	-0.4737218035	 2.2232703967	 0.110681
H	 0.7059472416	-2.8086622331	 0.7502478336	 0.094442
H	 0.4603469003	-2.4374385037	 2.4477350791	 0.10494
H	-1.0055935846	-0.6177321477	 1.926763777	 0.096523
H	-0.7746245023	-1.7263901179	-0.7864943932	 0.226927
