17
gdb 24716	4.09965	1.50395	1.29119	4.1318	78.13	-0.2147	0.0352	0.2499	986.8103	0.139902	-380.855928	-380.849378	-380.848434	-380.887099	26.007	
C	 0.1444303449	 1.5970518595	-0.1319670076	-0.228117
C	 1.6257168072	 1.5160601363	 0.3451834966	-0.219403
C	 1.5008149498	-0.0342478979	 0.5089681446	-0.206439
C	-0.0133089368	 0.0630967542	 0.0562569479	-0.006209
N	 0.3771906707	-0.7393011291	-1.1256643893	 0.007808
C	 0.2394164034	-1.2039444443	-2.39849348	-0.036768
N	 1.4137808699	-1.6155619451	-2.8457135626	-0.260692
C	 2.3496133878	-1.3584706172	-1.8620696343	-0.220497
C	 1.7008380567	-0.8149963482	-0.7803790975	 0.27963
H	-0.4981839982	 2.1698747519	 0.5403907646	 0.114004
H	-0.0217172786	 1.9435708981	-1.1534492495	 0.120807
H	 2.3855509901	 1.8423019481	-0.3662533028	 0.117669
H	 1.7924253495	 2.0285644418	 1.295303789	 0.108795
H	 1.8171219801	-0.4794772824	 1.4510141892	 0.093233
H	-0.8643616965	-0.3242630956	 0.6154570594	 0.099557
H	-0.6976788836	-1.2710661077	-2.928429322	 0.129926
H	 3.3901898335	-1.6025443226	-2.0050465656	 0.106694
