18
gdb 10976	2.7344	2.37827	1.94714	1.4335	71.72	-0.2344	0.0035	0.2379	806.9722	0.154543	-347.777414	-347.770366	-347.769422	-347.808013	28.901	
C	-0.0347621185	 1.5394938489	 0.0494834762	-0.512882
C	-0.0321898402	 0.0293628522	-0.0008937107	 0.255675
C	 0.3596914068	-0.8022956554	-1.2739844551	-0.247939
C	-0.35917407	-1.9544839134	-0.49850638	-0.124044
C	 0.5313893231	-2.0431234865	 0.7459233149	-0.10991
C	 0.7429210798	-0.7610188259	 1.0682504889	-0.139805
C	-1.3637923021	-0.8293511201	-0.0407743347	 0.151908
O	-2.1602817755	-0.9756783796	 1.0880550888	-0.440775
H	 0.9821032406	 1.9458910093	 0.0072740358	 0.116444
H	-0.5980704911	 1.9624551455	-0.7886462709	 0.115569
H	-0.4993727068	 1.8972861625	 0.9751316269	 0.12365
H	-0.1653473637	-0.4836254661	-2.1810137131	 0.092999
H	 1.4263997808	-0.9327517806	-1.4658939252	 0.096792
H	-0.6876238653	-2.8746821554	-0.9798711136	 0.062345
H	 0.8862723597	-2.9458155862	 1.2233678097	 0.102846
H	 1.3161769575	-0.3336764815	 1.8801276576	 0.099687
H	-2.0282373109	-0.5121197511	-0.8500770691	 0.08519
H	-1.5732834743	-1.2626707565	 1.8016296337	 0.27225
