12
gdb 48065	2.02528	1.82546	1.13286	3.3039	60.72	-0.279	-0.129	0.15	1026.0587	0.074159	-472.604384	-472.595879	-472.594935	-472.639009	28.652	
O	-0.7262062681	 1.316338855	 0.3484754314	-0.197588
C	 0.339445227	 0.976176333	-0.0849783163	 0.085175
C	 1.443938303	 1.9705495809	-0.4590941069	 0.244631
O	 2.392454224	 1.5850647628	-1.0929630894	-0.252504
C	 1.2514555485	 3.4449900678	-0.1112259408	 0.180019
C	 2.2029961776	 4.4056591625	-0.7106161509	-0.19488
O	 0.9042620135	 4.228457504	-1.2638628338	-0.237938
C	 0.5875296311	 3.7926476316	 1.127240052	 0.250616
N	 0.1187331991	 4.0840763957	 2.1422298429	-0.321632
H	 0.6186643366	-0.0735248324	-0.3050105483	 0.130698
H	 2.3670784477	 5.349819154	-0.1970501163	 0.15333
H	 3.0236701701	 4.002326195	-1.2971174834	 0.160074
