17
gdb 34557	3.72832	1.29783	1.22305	1.683	83.27	-0.2296	-0.0275	0.2021	1065.2199	0.1375	-384.659525	-384.652393	-384.651449	-384.690931	28.984	
C	 0.0828111126	-1.1942291641	 0.0058169851	-0.375453
C	-0.0147818402	 0.0074225545	-0.0101244423	 0.109223
C	-0.0682334745	 1.4142567762	-0.0522416663	 0.264114
C	-1.1352814066	 2.2376255564	-0.011228061	-0.196841
C	-0.6138421412	 3.6591754008	 0.0428039996	-0.09712
C	 0.0962171064	 3.787615753	 1.4267565442	-0.069405
O	 1.2218207593	 2.907079844	 1.3174294028	-0.270996
C	 1.1573440685	 2.3411398275	-0.0160962838	-0.012639
C	 0.6525967686	 3.5276888518	-0.8468947714	-0.226042
H	 0.1534980655	-2.2532953842	 0.0275982399	 0.187719
H	-2.1735063055	 1.9479660709	 0.0849721357	 0.109721
H	-1.3220024542	 4.4554723363	-0.1813171618	 0.075132
H	 0.4471978552	 4.811916624	 1.6053175181	 0.101241
H	-0.5445439284	 3.4794698581	 2.2602688524	 0.10368
H	 2.1220657179	 1.8934782848	-0.2439911055	 0.084736
H	 0.4201584759	 3.2755419784	-1.8821479854	 0.109098
H	 1.3241075807	 4.3894624017	-0.7999112301	 0.103831
