18
gdb 48792	2.76695	1.46463	1.15222	3.8193	77.53	-0.2388	-0.041	0.1978	1098.9636	0.14683	-401.890865	-401.882763	-401.881818	-401.923575	30.917	
O	-0.0336235369	 0.0316251313	-0.5814472313	-0.255566
C	 0.1208911561	 0.9384756462	 0.2008087507	 0.07496
C	 1.2162687195	 1.9319326625	 0.1086745262	 0.151589
C	 2.0439916961	 2.0586355821	-1.1218600154	-0.269722
N	 2.6935875608	 1.4602111696	 0.0377220065	-0.143393
C	 3.0457640055	 2.6002988308	 0.9653245414	-0.243672
C	 1.579399276	 3.0193528414	 1.0954243516	 0.293893
C	 0.9856646658	 4.3895021549	 1.2426036949	-0.324611
C	 0.8660318821	 3.3799964419	 2.3636226362	-0.337057
H	-0.5704214284	 1.0799610279	 1.0602260615	 0.072767
H	 1.8329534137	 1.3383940286	-1.9056290212	 0.14904
H	 2.3399785508	 3.0537558058	-1.44957393	 0.116937
H	 3.483187325	 2.205185513	 1.8849104463	 0.121241
H	 3.7344468846	 3.3225582557	 0.5128301556	 0.110613
H	 1.6654717092	 5.224656007	 1.376726449	 0.119357
H	 0.0933490114	 4.6271309669	 0.6722022911	 0.118981
H	-0.1110544333	 2.9508528145	 2.5580339275	 0.12368
H	 1.4681682118	 3.5252957499	 3.2549719393	 0.120964
