16
gdb 131787	3.31682	0.98981	0.80701	1.5929	66.73	-0.2534	-0.005	0.2484	1358.4278	0.124322	-475.012138	-475.00359	-475.002646	-475.046198	30.903	
O	 0.1045765898	 1.456888283	-0.0369981016	-0.412111
C	 0.0701695722	 0.043019263	 0.0278991083	-0.059276
C	-1.359617261	-0.5133821568	-0.10266659	-0.346689
C	-1.4052658451	-2.0076876072	-0.0547146096	 0.059816
C	-1.6323197696	-2.918375026	-1.0364577737	 0.007062
O	-1.565734771	-4.1758832141	-0.5723570381	-0.174416
N	-1.2763022931	-4.1324249833	 0.7940346327	-0.251986
C	-1.1865383745	-2.8565711299	 1.0743102661	 0.396641
O	-0.9179598907	-2.411949874	 2.3140556612	-0.420547
H	-0.3141462365	 1.8005545739	 0.7585942545	 0.284129
H	 0.6792361111	-0.313529335	-0.8090218895	 0.116553
H	 0.529968023	-0.3350411391	 0.952724504	 0.106602
H	-1.9701507966	-0.1018694408	 0.7120506005	 0.109247
H	-1.7933289683	-0.1498287045	-1.0392971341	 0.117331
H	-1.8564726341	-2.8184054036	-2.0879643265	 0.153534
H	-0.8200115656	-3.1824208157	 2.8896370757	 0.314109
