20
gdb 22193	1.62472	1.16685	0.69052	0.0832	84.33	-0.2454	0.0135	0.2588	1627.0177	0.166916	-403.082657	-403.071891	-403.070947	-403.119484	38.526	
C	 0.2655488758	 1.4900999026	-0.0477502837	-0.389156
C	-0.0719338463	-0.0020686456	-0.1004297957	-0.16508
C	 0.9727795195	-0.8028955726	-0.8805910261	-0.248412
C	 0.7149236073	-2.2822965253	-0.9798567256	 0.33747
C	 1.6849349697	-3.1852950538	-1.7320655313	-0.440016
C	 2.8370960975	-2.5201878866	-2.3231562901	 0.283746
C	 3.7954293283	-1.9911666168	-2.819038623	-0.433892
N	-0.332017056	-2.7522306983	-0.4194000586	-0.166552
O	-0.4386192069	-4.1438269742	-0.5961750419	-0.403134
H	 1.2328662343	 1.6646368453	 0.4370714294	 0.112763
H	 0.318871123	 1.9239379819	-1.0528153914	 0.112765
H	-0.4915019969	 2.0463397855	 0.5134841257	 0.111896
H	-0.1531831944	-0.4061209935	 0.9142460752	 0.108429
H	-1.0560197006	-0.1499260314	-0.5577697466	 0.108425
H	 1.0713646754	-0.4065934844	-1.9012497117	 0.121388
H	 1.9689981945	-0.6612318153	-0.4378624485	 0.121386
H	 2.0155700853	-3.9736209802	-1.0432908907	 0.162071
H	 1.118191594	-3.719057406	-2.506080153	 0.162073
H	 4.642496852	-1.5247714289	-3.2575843952	 0.196398
H	-1.2563210155	-4.3444864124	-0.1294837571	 0.307432
