17
gdb 114510	2.76105	1.34548	1.08511	2.6689	68.42	-0.2534	-0.036	0.2174	1124.1388	0.135027	-458.936856	-458.928708	-458.927763	-458.970193	30.405	
O	-0.0597161265	 1.3481135657	-0.4095370215	-0.417418
C	 0.0638953955	-0.0315390342	-0.1250167584	-0.079569
C	-1.2984541908	-0.6208678011	 0.1916896558	 0.112987
O	-2.2104618223	-0.4764853993	-0.9332513991	-0.322679
C	-2.5580828907	-1.8753948789	-0.8982752539	 0.119385
C	-1.7486877485	-2.7194843536	-1.9106305716	-0.365264
C	-0.6950743523	-2.9436484604	-0.8016857417	 0.409412
O	 0.329116397	-3.5570491375	-0.743114596	-0.294915
C	-1.5198670284	-2.1553793507	 0.2347639634	-0.250511
H	-0.7006858916	 1.4224069529	-1.1267185246	 0.295382
H	 0.5271236152	-0.5781684261	-0.9603103213	 0.09716
H	 0.725616135	-0.1258261458	 0.7428181041	 0.119984
H	-1.7202948369	-0.1189721998	 1.0713798074	 0.097853
H	-3.6325710617	-2.0436952622	-0.8161403802	 0.094493
H	-2.2340928785	-3.6621514115	-2.1885063113	 0.137689
H	-1.4188020782	-2.2044175672	-2.8156825988	 0.140348
H	-1.7116143762	-2.6200101402	 1.2004890677	 0.105663
