14
gdb 1219	8.27247	1.23425	1.08846	3.7148	55.9	-0.26	-0.0304	0.2296	1021.4169	0.110553	-361.728546	-361.72038	-361.719436	-361.76267	26.574	
C	-0.1417526799	 1.4468194091	-0.0749775031	-0.46178
C	-0.0619744928	-0.0465085065	 0.1031147948	 0.401463
N	-0.1288751763	-0.7330972956	 1.1673654883	-0.515459
O	 0.1043635823	-0.6489471324	-1.0973383358	-0.241561
C	 0.1971419268	-2.0691127147	-1.0901165928	-0.140115
C	 0.3762829732	-2.5175267995	-2.5267055978	 0.138688
O	 0.4862678119	-3.6709628889	-2.8463458046	-0.236289
H	 0.7710798675	 1.8189579176	-0.5498988641	 0.149962
H	-0.9768216879	 1.7036408732	-0.7337691523	 0.149958
H	-0.2757448355	 1.9474935125	 0.8848051198	 0.131093
H	-0.2540987287	-0.1315118351	 1.9779384032	 0.224858
H	 1.0417824685	-2.4058961079	-0.477723284	 0.152923
H	-0.7044986028	-2.5208315293	-0.6601592292	 0.152976
H	 0.3975793837	-1.6864661225	-3.2660205124	 0.093284
