21
gdb 58820	3.27206	1.26999	1.10207	2.9827	82.	-0.1965	0.0677	0.2642	1194.4477	0.181795	-383.163458	-383.154697	-383.153753	-383.196689	34.539	
C	-0.1695794411	 1.5553232396	-0.135162676	-0.383378
C	-0.0184973809	 0.0287354898	-0.0143230128	-0.103673
C	-1.3788254993	-0.6535115902	 0.1830342614	-0.408444
C	 0.7516739382	-0.5178399442	-1.1885701207	 0.381576
N	 0.1906359689	-0.7466228056	-2.5408652932	-0.35476
C	 0.8554177592	-1.8593802058	-1.8085887479	-0.147907
C	 2.4017643792	-1.6928395761	-1.9430112853	-0.058591
N	 2.6874051045	-0.4957790524	-2.7709578481	-0.307917
C	 2.3093351918	-0.3443643713	-1.3449928801	-0.121513
H	 0.8031959051	 2.0434295718	-0.2496641589	 0.119455
H	-0.7751249643	 1.8167130042	-1.0094037456	 0.12537
H	-0.6551933711	 1.9719310704	 0.7531826232	 0.10813
H	 0.5876300866	-0.1789134511	 0.8802016864	 0.07778
H	-2.067789119	-0.4281993538	-0.6391208595	 0.117438
H	-1.2767633849	-1.7408456846	 0.2566186919	 0.116872
H	-1.8516864128	-0.2981973665	 1.1035815388	 0.117598
H	-0.8117469389	-0.894730994	-2.4178567073	 0.223424
H	 0.3338421605	-2.7821312971	-1.588420739	 0.09156
H	 3.1343626262	-2.4754206426	-1.7955996745	 0.092113
H	 3.7046939436	-0.4118148785	-2.8036014294	 0.225877
H	 2.9547090085	 0.1499528579	-0.6295215336	 0.088993
