22
gdb 91807	2.59273	1.42822	1.21134	2.9371	81.36	-0.24	0.0665	0.3066	1161.1954	0.194992	-404.34632	-404.337344	-404.3364	-404.379581	35.46	
C	 0.0059028133	 1.6017882311	-0.0559509281	-0.398882
C	 0.0489333445	 0.0774756331	-0.043448778	 0.019704
C	 0.8180336365	-0.5713328435	-1.2272696009	-0.241152
C	 1.2785639941	-1.9176698956	-0.6834877534	-0.077839
N	 2.4785631974	-1.8149058674	 0.1824008154	-0.385426
C	 1.1377716236	-1.9415784196	 0.7971447065	 0.309297
C	 0.7873661358	-3.158247349	 1.6097085873	-0.508258
C	 0.6691662427	-0.5386255208	 1.2468859353	 0.065287
O	 1.7367127686	 0.2148998621	 1.7847486736	-0.437675
H	 1.0115373726	 2.0141491326	 0.0587735947	 0.126208
H	-0.4198930974	 1.9760285397	-0.9929921176	 0.102957
H	-0.6031341517	 1.9882460205	 0.7680069262	 0.111177
H	-0.9787374826	-0.3102814895	-0.0896484315	 0.064772
H	 0.1793386624	-0.6838765297	-2.1083257561	 0.096777
H	 1.6825745921	 0.0327380905	-1.5245825793	 0.108739
H	 1.1609303982	-2.820808521	-1.2753908773	 0.08511
H	 2.9622948612	-2.7089723159	 0.223778802	 0.229238
H	 1.1366932818	-4.0756708965	 1.1229194706	 0.111223
H	 1.2397080489	-3.1082169538	 2.6067164116	 0.134134
H	-0.2968748019	-3.2424707726	 1.7421133758	 0.127195
H	-0.0875601069	-0.6113020916	 2.0359242982	 0.07139
H	 2.5207437269	-0.094664493	 1.303172095	 0.286023
