14
gdb 131108	3.48399	1.20771	0.92505	1.9139	67.48	-0.2615	-0.0202	0.2413	1168.7439	0.102799	-432.885974	-432.87809	-432.877146	-432.919354	28.36	
O	 0.7350427671	 1.5247806912	-0.1718564173	-0.405375
C	 0.1910256472	 0.2266743958	 0.0166072376	-0.148167
C	 0.3095918035	-0.603057399	-1.2002170832	 0.287815
N	 0.4192977024	-1.2359081955	-2.1599679506	-0.3164
C	 0.7954965216	-0.4764572171	 1.2010852675	 0.361083
C	 1.1668342804	-1.7828534344	 1.4433752359	-0.310692
C	 1.6322280932	-1.7739005642	 2.7761600529	-0.002533
N	 1.5638226359	-0.5616294654	 3.3196640197	-0.216745
N	 1.0447006157	 0.2081627632	 2.3479151303	-0.25006
H	 1.6791019086	 1.4287501222	-0.3504648889	 0.301121
H	-0.8786389544	 0.4048321379	 0.1863673545	 0.161852
H	 1.1083333944	-2.6109789393	 0.7563258702	 0.132677
H	 2.0184304074	-2.5989552869	 3.3559225543	 0.123187
H	 0.928468707	 1.1971172617	 2.4973079771	 0.282236
