21
gdb 69775	3.04415	1.3431	1.2722	1.3408	81.7	-0.2419	0.0831	0.325	1116.0036	0.182793	-387.081173	-387.072817	-387.071873	-387.113373	34.143	
C	 0.0882387477	 1.5226953627	 0.0137315577	-0.484216
C	 0.0706982164	 0.0124199481	 0.0224280012	 0.377643
C	-0.8298377215	-0.7140338306	 0.9965216551	-0.340093
C	 0.6695074596	-0.7988605137	 1.1615869458	-0.08402
C	 1.3234863328	-2.0161446767	 0.5820061473	-0.092442
C	 2.5127268642	-1.7739045057	-0.3325439978	-0.356073
C	 1.1331608814	-1.9777294257	-0.9119653591	 0.41455
O	 0.8509280511	-3.1706206183	-1.5829826298	-0.474062
C	 0.3406805606	-0.72502917	-1.29651589	-0.374442
H	 1.0362015376	 1.9083292889	-0.3805830497	 0.111547
H	-0.7172337454	 1.926973613	-0.6112716094	 0.116383
H	-0.0435374166	 1.9279414464	 1.0221925929	 0.113232
H	-1.3806643094	-0.1080215589	 1.708749536	 0.104453
H	-1.3571966409	-1.6019174108	 0.6601602254	 0.113496
H	 1.1321806438	-0.2962401511	 2.0063097714	 0.078376
H	 1.2691486812	-2.9670472308	 1.1020935902	 0.092645
H	 2.9626477442	-0.7856814361	-0.3574423747	 0.104723
H	 3.2052112542	-2.600151981	-0.4519963474	 0.108987
H	 1.2831899772	-3.1367216583	-2.4432538733	 0.279934
H	-0.5866358749	-1.0235236507	-1.7991519884	 0.102338
H	 0.8976080767	-0.0848816205	-1.9933582232	 0.087043
