19
gdb 37336	3.24461	1.84732	1.77513	2.0675	76.45	-0.2229	0.0775	0.3004	865.9828	0.164545	-382.007478	-382.001558	-382.000614	-382.037254	26.704	
C	 0.0471512956	 1.4704070744	-0.2073593991	-0.250814
C	 1.2971678011	 0.6996120688	 0.0176996118	-0.013554
C	 1.8770872139	 0.4712545257	 1.4337942277	-0.053253
C	 1.3050319501	-0.9556176823	 1.671716918	-0.215186
C	-0.1501911005	-0.4987739856	 1.4323677706	 0.005331
C	-0.2882014511	 0.6601478913	 2.420577586	-0.046968
N	 0.5859631552	 0.5650001961	 3.6166759464	-0.353276
C	 1.0546584041	 1.302486374	 2.4208003625	-0.039918
N	-0.0265640385	 0.0136049408	 0.0130752978	-0.118192
H	-0.3046189607	 2.1611761884	 0.5480180228	 0.11071
H	-0.2080039152	 1.7591656777	-1.2243300403	 0.109772
H	 1.9527650644	 0.4833596722	-0.823032021	 0.088064
H	 2.9596762175	 0.5858505669	 1.4943661079	 0.06373
H	 1.6275049915	-1.6606915864	 0.90368254	 0.100529
H	 1.4934864528	-1.3552452428	 2.665926906	 0.12571
H	-0.9252542912	-1.2641194205	 1.4737502854	 0.07187
H	-1.2103912309	 1.226516011	 2.4856396457	 0.093278
H	 0.257424863	 1.2493313005	 4.2942080563	 0.230956
H	 1.186145099	 2.3775227997	 2.4772363754	 0.091211
