21
gdb 68226	3.11572	1.63015	1.40732	1.6281	80.86	-0.2364	0.0839	0.3202	1018.0264	0.184592	-387.081985	-387.074516	-387.073572	-387.113232	31.476	
C	-0.0096370582	 1.5551113255	 0.0476888979	-0.469384
C	 0.0079023207	 0.0476786179	-0.0553169038	 0.41286
C	 0.938043479	-0.6357613124	-1.0913186671	-0.284094
C	 1.1816406583	-1.6131066401	 0.0764243271	 0.071191
O	 0.7946069204	-0.5757889286	 1.0180547441	-0.325689
C	 0.1214279588	-2.7011775417	 0.0625532454	-0.030675
C	-0.7852505966	-2.8352238712	 1.2559894497	-0.292695
C	-1.2816648231	-2.1308474655	 0.0123482859	-0.035068
C	-1.3860126903	-0.6027375678	-0.0437096578	-0.260915
H	 1.0097204702	 1.9487797479	 0.0859982441	 0.120693
H	-0.5216930997	 1.9934983391	-0.8156489385	 0.117061
H	-0.5363494598	 1.8737640075	 0.9535226141	 0.123824
H	 0.4973243444	-1.0323204262	-2.008717928	 0.09446
H	 1.8095543637	-0.0174582099	-1.3158270642	 0.099828
H	 2.1923038474	-1.9824722407	 0.271122176	 0.071891
H	 0.355803642	-3.5823281628	-0.5273379912	 0.079489
H	-1.1955453646	-3.8149666779	 1.4755797908	 0.101532
H	-0.5538110921	-2.2226640879	 2.1191212945	 0.1286
H	-2.0197595295	-2.6686002199	-0.5734792906	 0.080011
H	-1.9563939188	-0.2136559242	 0.8090603983	 0.101066
H	-1.9248186424	-0.3017906809	-0.9504161568	 0.096013
