21
gdb 111972	3.27614	1.1048	0.90743	1.5255	80.36	-0.2344	0.0282	0.2625	1333.2513	0.181928	-424.228424	-424.218833	-424.217888	-424.262644	36.211	
C	-0.1163378931	 1.6088759159	-0.0380259549	-0.425311
C	 0.0676839345	 0.0878163955	-0.0424189173	-0.030135
C	 0.8772949231	-0.4499832693	-1.2032875969	-0.076999
C	 1.6969340421	-1.4290298601	-0.8302217179	-0.068376
C	 1.5863086596	-1.7214314653	 0.6494589075	-0.02443
C	 2.9148478494	-2.0202355759	 1.3408366339	-0.091735
O	 3.3884862987	-3.2518996572	 0.8036753311	-0.430132
C	 0.8339384202	-0.4817745401	 1.1949314913	 0.055478
O	 1.8108273604	 0.4269819812	 1.6946545141	-0.427553
H	 0.8503938388	 2.1197364776	-0.0274373252	 0.128979
H	-0.6575771409	 1.9323665455	-0.9326061354	 0.117442
H	-0.6980677517	 1.9444487273	 0.829432655	 0.103336
H	-0.9327031687	-0.3728307217	-0.0587163829	 0.077636
H	 0.7559636272	-0.0772436859	-2.2152421301	 0.085647
H	 2.3546567414	-1.9991166689	-1.4749190947	 0.10157
H	 0.9559958664	-2.6114975033	 0.7951699666	 0.087731
H	 3.6232477297	-1.2030330153	 1.1588156193	 0.104612
H	 2.7630889125	-2.0924363009	 2.4287144561	 0.084792
H	 4.2797431757	-3.3961127777	 1.1336440298	 0.285091
H	 0.1390824267	-0.7552417523	 2.0015226103	 0.057311
H	 1.3492757677	 1.1790298509	 2.0765352804	 0.285046
