24
gdb 85903	2.61507	1.36316	1.2099	1.3949	88.05	-0.2252	0.0804	0.3055	1207.7487	0.217789	-368.411889	-368.402657	-368.401713	-368.444839	37.191	
C	-0.020997933	 1.5965637422	 0.0121177385	-0.396884
C	 0.0478472825	 0.0738907156	 0.0069751781	 0.061299
C	 0.7343630532	-0.5483183099	-1.2327030709	-0.286212
C	 1.2992864669	-1.9040539224	-0.7319330422	 0.299223
C	 0.240399372	-3.0152061825	-0.8635712165	-0.428733
C	 2.5810164615	-2.3213188559	-1.4650059238	-0.433161
C	 1.5336284608	-1.618437774	 0.7552632533	-0.025859
C	 2.2081728277	-0.3535615282	 1.1402350452	-0.27558
N	 0.7409815446	-0.4600792377	 1.205351837	-0.104397
H	 0.9789318575	 2.0393741698	-0.0498105479	 0.112105
H	-0.6018410547	 1.9596225707	-0.8418129741	 0.112643
H	-0.4957412671	 1.9575959799	 0.9289057571	 0.124891
H	-0.9760189173	-0.3153367003	 0.0750341114	 0.080207
H	 0.0388273087	-0.6738290935	-2.0676405554	 0.095909
H	 1.5430084873	 0.097550499	-1.5924795713	 0.09206
H	 0.0186501777	-3.2183563319	-1.916859339	 0.109348
H	 0.5933507286	-3.9485428598	-0.4112180359	 0.111354
H	-0.6957457675	-2.7403012047	-0.3675148539	 0.120595
H	 3.3611039632	-1.5592252703	-1.3716498982	 0.110457
H	 2.9793631292	-3.2588129821	-1.0608200758	 0.111247
H	 2.3894799815	-2.4789336944	-2.5322729233	 0.111198
H	 1.5690634553	-2.4719225879	 1.429188303	 0.078959
H	 2.6947894517	-0.2730832942	 2.107946559	 0.112474
H	 2.6653808998	 0.2530248724	 0.3628626357	 0.106859
