14
gdb 9572	4.3846	1.31653	1.25999	2.7765	70.38	-0.2613	0.0061	0.2674	981.0519	0.106168	-341.543169	-341.535071	-341.534127	-341.575391	29.864	
N	-0.0021804153	 1.4553711354	 0.0484978989	-0.546128
C	 0.0113039691	 0.0209383274	 0.0182365956	 0.148827
C	-0.4403168209	-0.6856307367	 1.278467286	-0.29891
C	-1.3561179208	-0.6895629778	 0.0764512277	-0.237239
C	-2.5611942449	 0.0815213575	 0.0400325539	 0.336417
C	-3.5930817038	 0.6954440227	-0.0161132677	-0.430121
C	 1.0240282277	-0.6257579588	-0.7923629976	 0.237461
N	 1.8468823302	-1.1024860697	-1.4523200226	-0.342838
H	 0.8912407535	 1.8160767877	 0.3677615574	 0.24764
H	-0.1817537222	 1.8377144993	-0.874582731	 0.249998
H	 0.0398174566	-1.618429396	 1.5473429853	 0.142466
H	-0.7043643901	-0.0267419846	 2.0959313292	 0.14854
H	-1.3925257253	-1.6236478135	-0.4758644714	 0.141566
H	-4.4999756538	 1.2462067572	-0.0567405936	 0.20232
