18
gdb 63299	2.18665	1.48661	1.10339	6.0813	74.76	-0.2543	-0.0354	0.2189	1161.0168	0.145284	-439.140234	-439.130969	-439.130025	-439.174233	33.739	
C	-0.0387412956	 1.5384238257	 0.0333554356	-0.433257
C	-0.0252197813	 0.0121444969	-0.0084022557	 0.30345
C	-1.3978775148	-0.5906103387	 0.2813430471	-0.43326
C	 0.7060303165	-0.5988594233	-1.2463445808	-0.441319
C	 1.7513721636	-1.1516887875	-0.2650153768	 0.445601
O	 2.7505401388	-1.7982180161	-0.3395101833	-0.314265
N	 1.0630394723	-0.5849029117	 0.8304789649	-0.143656
C	 1.2735696664	-0.5603012701	 2.195254269	 0.14837
O	 2.1941839226	-1.0812984712	 2.7690095481	-0.271118
H	 0.9577871522	 1.9456112266	-0.1596811152	 0.131449
H	-0.7245224339	 1.9298784905	-0.7246026787	 0.131131
H	-0.3757794832	 1.9058024438	 1.0081500664	 0.127319
H	-2.1213958717	-0.2580836842	-0.4696427131	 0.131128
H	-1.3589621941	-1.6834406796	 0.2628953564	 0.13145
H	-1.7695787118	-0.2777745206	 1.2625464278	 0.127318
H	 0.1525104148	-1.3711424171	-1.7842275331	 0.13927
H	 1.1073948775	 0.1248824173	-1.9585435727	 0.13926
H	 0.4748187317	 0.0097326493	 2.7131309241	 0.081129
