21
gdb 121219	2.42025	0.92007	0.71584	4.2147	79.69	-0.2436	-0.0204	0.2232	1588.27	0.181064	-424.216615	-424.20665	-424.205705	-424.252715	35.434	
O	 0.0070629496	 1.4423153877	-0.1160955464	-0.418899
C	 0.0386657915	 0.0262408148	-0.042367507	-0.075718
C	-1.4003145916	-0.4760622067	-0.0775596642	-0.204256
C	-1.4883051097	-1.994993324	 0.011450516	 0.026553
C	-1.1877526014	-2.7178800007	 1.3549834324	-0.229791
C	-2.3473020283	-3.6996952888	 1.0513988989	-0.242101
C	-2.8936191662	-2.7071328614	-0.0262772665	-0.119281
C	-4.0251152606	-1.8621624475	 0.4923963635	 0.170846
O	-5.0126304223	-1.5760473436	-0.1363618264	-0.25879
H	 0.9116267014	 1.766934513	-0.0854352267	 0.286374
H	 0.6012454894	-0.4067368738	-0.886466486	 0.084747
H	 0.5310925926	-0.3140487807	 0.8834729849	 0.088223
H	-1.9480426126	-0.0048443761	 0.7472049103	 0.106825
H	-1.8694420841	-0.1253599986	-1.0049672557	 0.117559
H	-0.8790370641	-2.4397208838	-0.7842036752	 0.081929
H	-0.1900557861	-3.1413796375	 1.4917425015	 0.101551
H	-1.4087823424	-2.0768579449	 2.214698327	 0.106477
H	-2.003096572	-4.6278329443	 0.5898998352	 0.114391
H	-3.0212585471	-3.9530366916	 1.8740912234	 0.107723
H	-3.1936983662	-3.1219850546	-0.9904381565	 0.087207
H	-3.90179392	-1.508342507	 1.5437961074	 0.068429
