17
gdb 86691	2.13822	1.51804	1.04203	2.9166	74.23	-0.2494	-0.0372	0.2122	1166.3144	0.132381	-421.780612	-421.771257	-421.770313	-421.815713	33.31	
C	 0.1283772508	 1.582941665	-0.0428093385	-0.40507
C	-0.0180855198	 0.0863013348	 0.1041995772	 0.155909
O	 0.6682083655	-0.649636378	-0.9381196999	-0.300638
C	 1.3897252132	-1.4580352681	-0.0015346605	 0.045231
C	 2.8930637962	-1.3675893491	-0.1950734595	 0.137349
O	 3.6614028074	-2.2145833762	 0.1751490538	-0.234616
C	 0.7948601904	-0.6644716232	 1.2141916552	-0.299121
C	 1.7124314697	 0.1050582199	 2.0280017026	 0.358863
C	 2.4791699232	 0.7413447378	 2.7009218781	-0.464284
H	 1.1791761631	 1.881297975	-0.0188052036	 0.132655
H	-0.3069860217	 1.900936506	-0.9950510859	 0.131529
H	-0.3979849449	 2.0988603971	 0.766678573	 0.126281
H	-1.0787789697	-0.1953098092	 0.1279569477	 0.087703
H	 1.0879562783	-2.5118704246	-0.0209602108	 0.106438
H	 3.2213142444	-0.4394007092	-0.7123401519	 0.092141
H	 0.1683410442	-1.2938095648	 1.8502299517	 0.121679
H	 3.1588443498	 1.2966263568	 3.2992735613	 0.207951
