17
gdb 26534	2.28106	1.844	1.0281	6.7339	79.79	-0.2025	-0.0028	0.1997	1114.67	0.137711	-418.074966	-418.066455	-418.065511	-418.107767	32.423	
C	-0.0053918885	 1.526467349	 0.0116541414	-0.523869
C	-0.0123375508	 0.0212592248	 0.018525889	 0.08689
C	-1.1753683767	-0.6942362878	 0.031669638	 0.316861
N	-2.453800481	-0.1386170885	 0.1243416433	-0.587259
N	-1.1651189341	-2.0706391606	 0.0045596534	-0.380297
C	 0.0144532439	-2.7728630964	-0.0142620794	 0.011861
C	 1.2010077162	-2.1340620788	-0.0294244507	-0.238457
C	 1.2821148185	-0.6714706465	-0.0017216383	 0.328431
O	 2.3574612693	-0.0713858628	-0.0139088158	-0.411375
H	 1.0254338924	 1.8545929591	-0.1355837587	 0.164043
H	-0.621652751	 1.9452562041	-0.7951310976	 0.105993
H	-0.3613963671	 1.9547743058	 0.9575713272	 0.121239
H	-2.4441433429	 0.8680078973	 0.0421052497	 0.262346
H	-3.1243504612	-0.5352095116	-0.5234597049	 0.248324
H	-2.0291005996	-2.5558853461	 0.1824484455	 0.258751
H	-0.0906040157	-3.8511628491	-0.022174497	 0.128527
H	 2.1286312583	-2.6911689419	-0.0600574553	 0.107991
