21
gdb 111062	2.13031	1.54841	1.07803	2.8768	79.13	-0.2516	0.084	0.3355	1201.6876	0.182586	-424.160973	-424.151988	-424.151044	-424.194929	34.134	
C	-0.1702044122	 1.2780246909	-0.2339640497	-0.266023
O	-0.2447453649	-0.1361461996	-0.1816880382	-0.302821
C	-1.5252399429	-0.6425535237	-0.0563983102	 0.431985
C	-2.5363752102	-0.5158917714	 1.1269798725	-0.287581
C	-3.1828588807	-1.4720467814	 0.0772831976	-0.089946
C	-2.7432043881	-0.4605955984	-1.0214552177	-0.303248
C	-1.786083746	-2.1708456012	-0.0346461005	-0.02393
C	-1.3355350972	-3.0124998914	-1.2174437512	-0.119276
O	 0.0841219638	-3.0786431566	-1.2588780602	-0.427752
H	 0.885212734	 1.539561479	-0.3321321698	 0.132669
H	-0.7216609208	 1.6791076707	-1.0951829662	 0.117452
H	-0.5682059408	 1.7335196812	 0.6827225975	 0.11817
H	-2.2341168776	-0.962504694	 2.0774096379	 0.09714
H	-3.0304732067	 0.4492924795	 1.2642530549	 0.090131
H	-4.1529569314	-1.9555524793	 0.1618414116	 0.085411
H	-3.242594257	 0.5114557559	-0.9991074771	 0.091559
H	-2.6454599041	-0.8280964239	-2.0428367232	 0.10094
H	-1.4536130695	-2.6481206897	 0.8937423677	 0.074793
H	-1.6866079581	-4.0442550766	-1.1037052421	 0.103633
H	-1.7418528883	-2.6412153138	-2.1693636605	 0.084555
H	 0.408673399	-2.173046856	-1.1835102432	 0.292138
