18
gdb 87383	2.24999	1.58096	1.0817	3.3667	74.42	-0.2655	0.0056	0.271	1155.2077	0.145826	-439.070122	-439.061228	-439.060284	-439.103593	32.984	
C	-0.0373645821	 1.4721854257	-0.3187731918	-0.420762
C	-0.0258669486	-0.0072129604	-0.0397711186	-0.015917
O	 1.2406582028	-0.6806197609	-0.1483706601	-0.276874
C	 0.6336831589	-0.6170407838	 1.120692805	 0.258541
C	 1.2713336584	-0.0736833742	 2.4090647288	 0.061042
C	 0.7446147499	 1.1871446476	 3.0568103733	-0.408142
O	 0.780137622	-1.2817139386	 3.1000519299	-0.285469
C	 0.2406193856	-1.8105150149	 1.9422992434	 0.382188
N	-0.3526945709	-2.8904703559	 1.7191166534	-0.552429
H	 0.8401538894	 1.9625450663	 0.1086075629	 0.128835
H	-0.0339552811	 1.6485795371	-1.3991425732	 0.137874
H	-0.9392578077	 1.9356412986	 0.0941131634	 0.13062
H	-0.8516026108	-0.5777426643	-0.4670780394	 0.120428
H	 2.3651330158	-0.0949403381	 2.3759928892	 0.110702
H	-0.3484525183	 1.2126537818	 3.0359048814	 0.129292
H	 1.0720132907	 1.2347537388	 4.0995223383	 0.138318
H	 1.1273992291	 2.0731387399	 2.5417901331	 0.130035
H	-0.423339763	-3.4648715646	 2.560475301	 0.231716
