20
gdb 108563	3.23023	1.42092	1.24044	2.4936	77.27	-0.2308	0.0858	0.3165	1076.647	0.173489	-403.110664	-403.103033	-403.102088	-403.142843	30.649	
O	 0.03732043	 1.2649844421	-0.3832597377	-0.423329
C	 0.0027239576	-0.0297100999	 0.1937787889	-0.147111
C	-1.4078323565	-0.55909299	 0.2551218384	 0.329953
C	-2.4231520656	 0.0577898644	 1.216659944	-0.289648
C	-3.4601709481	-1.0735726896	 1.4468238133	-0.214099
C	-3.2591320182	-1.9834006409	 0.2281216492	-0.062645
C	-3.3632911525	-1.1517127734	-1.0728779654	-0.160548
N	-1.8757588415	-0.9417105143	-1.1238707986	-0.196528
C	-1.7304863696	-1.9713791711	-0.0302750747	-0.107061
H	-0.3843988506	 1.1717339183	-1.2462567446	 0.289535
H	 0.6338024755	-0.7355221668	-0.3668892742	 0.089914
H	 0.4202531136	 0.0691447068	 1.2016448636	 0.103676
H	-1.9302342486	 0.3637996478	 2.1438711869	 0.105237
H	-2.8751530767	 0.9596577344	 0.7919715025	 0.112863
H	-3.2357949318	-1.6202533751	 2.3696076073	 0.100969
H	-4.4871391775	-0.7011724867	 1.5215149682	 0.09858
H	-3.7859937898	-2.9366807781	 0.2598365774	 0.072428
H	-3.6512248857	-1.7412795568	-1.9464928889	 0.110567
H	-3.9647602868	-0.2353261947	-1.0470945995	 0.097076
H	-1.0375290073	-2.8031972064	-0.0923414063	 0.09017
