18
gdb 95489	2.25091	1.72892	1.03137	3.2493	78.45	-0.246	-0.0325	0.2135	1151.3669	0.1483	-439.102161	-439.093931	-439.092986	-439.135094	31.214	
C	-0.4019271171	 1.3179156449	-0.0446113951	-0.401536
C	 0.0432760344	-0.1282486019	-0.129143955	 0.194029
O	 1.1069647781	-0.2202764732	-1.0311954196	-0.237357
C	 1.1975456629	-1.4503949449	-1.7184519447	-0.143984
C	 1.2191086629	-2.6764189499	-0.8619311892	-0.092386
C	 1.0441550793	-2.7949321908	 0.4574600343	-0.083863
C	 0.790764862	-1.7807228268	 1.49527716	 0.352761
N	 0.9123139668	-2.1347385376	 2.7132381394	-0.51033
O	 0.4473933731	-0.4960531348	 1.1877140569	-0.255703
H	 0.4475021726	 1.9405531846	 0.2468161265	 0.142724
H	-0.7677342615	 1.6499724363	-1.0187120199	 0.125561
H	-1.1956750616	 1.4279982936	 0.6971088191	 0.13032
H	-0.7794543919	-0.7872737538	-0.4451412894	 0.082144
H	 0.3750914394	-1.5442757583	-2.4511584106	 0.110999
H	 2.1231223359	-1.3973698249	-2.3045211993	 0.134378
H	 1.4009300182	-3.590268985	-1.4255175189	 0.108475
H	 1.1228953493	-3.7812353784	 0.9014320597	 0.124091
H	 0.7102666873	-1.3396087689	 3.3229719358	 0.219678
