18
gdb 37233	5.0652	1.16786	1.11277	2.675	75.8	-0.2392	0.0769	0.3161	1117.3611	0.148735	-401.847087	-401.83991	-401.838966	-401.878917	28.14	
C	 0.0469446785	 1.3197353395	 0.0004756464	-0.222578
C	 1.3424041321	 0.6038245293	 0.0293194003	-0.050428
C	 1.6739785335	 0.104896652	 1.4091900119	-0.183873
C	 0.2875993985	-0.5587538801	 1.3985409611	-0.100935
N	 0.0071932851	-0.1541734634	 0.0043830196	-0.127442
C	 1.5169183388	-1.3912965418	 1.4468206876	 0.303472
C	 2.0073592958	-2.4913265689	 0.5106046123	-0.139002
O	 2.3674115437	-3.3147090954	 1.6466900292	-0.277805
C	 1.9398349921	-2.3106483565	 2.5898284266	-0.155666
H	-0.2913782616	 1.8562453003	 0.8839466632	 0.114249
H	-0.266781503	 1.7461271319	-0.9478717653	 0.123463
H	 2.0048467663	 0.5830325663	-0.8306903168	 0.102955
H	 2.2016072004	 0.6507048645	 2.1845009133	 0.095735
H	-0.4991419846	-0.5861362165	 2.1452911954	 0.095873
H	 1.2395087833	-2.9599377002	-0.1152913245	 0.116831
H	 2.8800306905	-2.2433581722	-0.1068444173	 0.100073
H	 2.7699212083	-1.9491316159	 3.211908535	 0.101366
H	 1.1354445623	-2.6729633428	 3.243724972	 0.103712
