20
gdb 58919	2.80812	1.55819	1.20647	1.4529	77.93	-0.2341	0.0572	0.2913	1092.2771	0.169908	-403.037848	-403.02946	-403.028516	-403.070956	32.664	
C	-0.0382023737	 1.5557425953	-0.031314785	-0.39925
C	-0.0483979051	 0.0195589322	 0.0120412284	-0.126834
C	 0.7524914474	-0.5151519544	 1.2086236923	-0.388783
C	-1.4580114513	-0.5095535869	 0.0140113977	 0.355381
N	-2.4568508507	-0.2335145927	-1.0812326977	-0.393181
C	-3.2288870981	-1.0956149042	-0.1324298287	-0.078536
C	-1.9884085934	-1.9742154121	 0.1802417462	 0.041289
O	-2.1362697812	-1.8932732472	 1.6278988098	-0.328485
C	-2.5370815463	-0.5706357974	 1.1654282435	 0.025409
H	 0.9886561335	 1.9327870117	-0.0649576171	 0.117076
H	-0.5616144001	 1.9365806082	-0.913767491	 0.120523
H	-0.5179053124	 1.9768350284	 0.8599179958	 0.113537
H	 0.4178393388	-0.3473582687	-0.9130894397	 0.089676
H	 0.3270352575	-0.1679553846	 2.1557091604	 0.122876
H	 0.7610703754	-1.6077899688	 1.2344855826	 0.126855
H	 1.7880708682	-0.1646237248	 1.1563277932	 0.108595
H	-2.788036935	 0.7327276294	-1.0222848265	 0.209578
H	-4.2631733569	-1.4009397931	-0.2901529188	 0.091055
H	-1.6482667105	-2.9059024632	-0.2695738882	 0.101111
H	-2.8567823662	 0.170235303	 1.9005002827	 0.092106
