21
gdb 86914	4.45701	0.77872	0.74443	2.2926	80.22	-0.2248	0.0764	0.3011	1582.7178	0.18303	-420.340034	-420.33094	-420.329996	-420.374969	33.759	
O	-0.037885057	 1.5295502844	 0.2116290063	-0.436322
C	-0.0286318349	 0.1412422714	-0.0134990918	 0.146037
C	 0.2366695968	-0.7322168148	 1.2415947531	-0.204204
N	-1.2259396659	-0.8853390169	 1.3894388594	-0.081396
C	-1.7465410929	-2.1442345707	 1.8882196212	-0.186979
C	-3.257730885	-2.1615443679	 1.905952212	 0.034563
C	-3.9823522287	-2.7848193117	 3.0410213828	-0.247917
N	-3.9913228411	-1.3230182979	 2.8632068749	-0.305826
C	-1.4241949636	-0.5357293811	-0.0355702926	-0.205027
H	-0.6181025054	 1.6957325622	 0.9637484521	 0.288399
H	 0.616061481	-0.026277036	-0.876648304	 0.092692
H	 0.7525272633	-1.6746008951	 0.9907518717	 0.084303
H	 0.7480464003	-0.2540458384	 2.0844642233	 0.101363
H	-1.3802401339	-3.0025818782	 1.2875877298	 0.078703
H	-1.3665847499	-2.2860809563	 2.9089782445	 0.093991
H	-3.7238752109	-2.1955958069	 0.9223857819	 0.093831
H	-4.9394693915	-3.2722076169	 2.8784800056	 0.118815
H	-3.3900714244	-3.2133005166	 3.8462010814	 0.10881
H	-3.3286719384	-0.8860159111	 3.500086723	 0.230953
H	-2.2861401377	 0.104322266	-0.2498107349	 0.110997
H	-1.4486711902	-1.4150743276	-0.7015952997	 0.084214
