16
gdb 70237	4.1526	1.09324	0.95107	4.2561	77.69	-0.2648	-0.0568	0.208	1216.5982	0.124111	-400.763798	-400.755883	-400.754939	-400.796176	29.954	
C	-0.11355443	 1.5518624844	 0.0847068923	-0.496398
C	 0.1316367557	 0.0738980064	-0.0088597611	 0.395869
O	-0.7169114126	-0.7789579555	 0.8023433908	-0.286807
C	 0.6894614323	-0.7981214385	 1.0476117407	-0.034613
C	 1.4156441879	-1.9667906718	 0.3985977139	-0.344734
C	 1.1613989921	-1.7277128805	-1.0855882772	 0.183701
C	 0.4815245395	-0.5903615833	-1.3036090853	-0.222881
C	 1.587711345	-2.6432942926	-2.0842450669	 0.214076
N	 1.9592723833	-3.4038005819	-2.8755281571	-0.331842
H	 0.7440496135	 2.1139723077	-0.298946739	 0.132372
H	-0.9934891282	 1.8354263807	-0.5025032032	 0.137362
H	-0.2899833124	 1.8430994191	 1.1225483934	 0.139195
H	 1.0039541141	-0.4216094056	 2.0173864425	 0.104871
H	 2.4875297404	-1.9569835193	 0.6266312105	 0.133435
H	 1.0189032881	-2.9326246628	 0.7289325408	 0.147619
H	 0.1981190113	-0.2069642566	-2.2757187353	 0.128774
