19
gdb 85006	2.18025	1.68021	1.01544	4.8282	83.05	-0.206	0.0045	0.2105	1193.5572	0.159195	-419.253559	-419.244109	-419.243165	-419.287641	35.142	
C	-0.047798337	 1.5426983675	-0.0511116662	-0.402409
C	 0.0197831634	 0.0185726203	 0.0338437425	 0.040093
O	 0.7438732424	-0.4936803767	-1.088056135	-0.263
C	 1.8051967411	-1.260942428	-0.6464188683	 0.34039
N	 2.6295871717	-1.8455096553	-1.4132586601	-0.565418
C	 1.8110358397	-1.2661944038	 0.8131973214	 0.138913
C	 2.8350326624	-2.004196856	 1.6131592152	-0.509948
C	 0.7679982209	-0.5221318881	 1.2305894736	 0.215417
N	 0.3041474448	-0.294006038	 2.5061949808	-0.59493
H	 0.9564903614	 1.9726279316	-0.0018749559	 0.132325
H	-0.5114483663	 1.8420051355	-0.9944124121	 0.13846
H	-0.6516995083	 1.9570631517	 0.7638902133	 0.109646
H	-0.9986439121	-0.3956621213	 0.0026516009	 0.104473
H	 2.3981242371	-1.6665881874	-2.390653427	 0.214103
H	 3.7916150565	-2.0008190733	 1.0840726242	 0.156025
H	 2.9841706167	-1.5549082539	 2.6021828231	 0.099822
H	 2.5572696422	-3.0541761303	 1.765811029	 0.135556
H	 0.9454048485	-0.5195336432	 3.2530384555	 0.256826
H	-0.1719229952	 0.5828306787	 2.6588995952	 0.253658
