15
gdb 8866	3.8982	1.28687	1.08393	4.177	63.57	-0.2794	-0.0864	0.1931	1086.2459	0.115517	-399.802599	-399.79344	-399.792496	-399.837178	30.602	
C	 0.0344713476	 1.4194720655	 0.0292394864	-0.241787
O	-0.0971130384	 0.0152086648	-0.0598985491	-0.227905
C	 0.5870501188	-0.5675521709	-1.1312948734	 0.02478
C	 2.0944524435	-0.7459428289	-0.8676911601	-0.428011
C	-0.0655427125	-1.9214911021	-1.3992686579	 0.293294
O	-0.9157621274	-2.4356483175	-0.726974452	-0.246014
C	 0.4463230834	-2.6024770583	-2.6142823003	 0.220003
N	 0.8371786174	-3.1233015424	-3.5699084125	-0.304729
H	 1.0638215995	 1.7329942953	 0.2522899846	 0.115112
H	-0.2889743799	 1.914267595	-0.8989451212	 0.113926
H	-0.6130953553	 1.742707948	 0.8465529256	 0.143581
H	 0.4568559033	 0.0256824921	-2.0555360734	 0.101962
H	 2.5686997125	 0.2299864112	-0.7417051686	 0.137289
H	 2.2453252052	-1.3294236165	 0.0444973757	 0.146876
H	 2.5860749322	-1.2520314552	-1.7027715138	 0.151624
