15
gdb 6432	4.60631	1.34925	1.25025	1.5338	63.14	-0.2584	-0.0414	0.217	971.524	0.116833	-399.834367	-399.826323	-399.825378	-399.867141	28.953	
C	-0.0001067951	 1.6278803228	 0.055877551	-0.446434
C	-0.0037585379	 0.1078122555	 0.0633497293	 0.234758
C	 0.6409341734	-0.605040813	-1.1812210842	-0.444867
C	 1.7006797417	-1.1443551278	-0.1916322378	 0.44501
O	 2.6885190491	-1.8188483705	-0.2637867808	-0.347423
N	 1.05524771	-0.5364913354	 0.8624977244	-0.359581
C	-1.3682985184	-0.4778424296	 0.3990265887	 0.136588
O	-2.3811381455	 0.1604067101	 0.5110690828	-0.243332
H	 0.9861020805	 2.0070007776	-0.2243137577	 0.123181
H	-0.7439840088	 2.0037441635	-0.6507672457	 0.144848
H	-0.2609076929	 2.0224869789	 1.0423483289	 0.13225
H	 0.036651862	-1.3831123981	-1.653330662	 0.139962
H	 1.0208635945	 0.0791716648	-1.9409014466	 0.144971
H	 1.3060456214	-0.4423615704	 1.8368659216	 0.255446
H	-1.3480988341	-1.5831207683	 0.5396746782	 0.084622
