19
gdb 61997	3.63268	0.81494	0.79701	1.6422	78.45	-0.2379	-0.0196	0.2183	1504.5131	0.154032	-422.996733	-422.98599	-422.985046	-423.034077	37.542	
C	-1.2670714559	 0.7198712438	-0.8963341858	-0.409836
C	-0.2246791101	-0.0833434398	-0.1030412332	-0.04129
O	-0.8061904213	-1.0949296676	 0.7245792902	-0.254039
C	-1.4731246367	-0.6090649195	 1.8730984166	-0.164206
C	-2.9936618772	-0.4568552822	 1.7145651957	 0.36169
C	-3.6986147349	-1.512297988	 0.8901297216	-0.47104
O	-3.5753543776	 0.440397108	 2.279213242	-0.29713
C	 0.7270428769	-0.7435618347	-0.9951044781	 0.315325
C	 1.5059401931	-1.2544258282	-1.7529570142	-0.437296
H	-0.7661378822	 1.4791464153	-1.5030995109	 0.13413
H	-1.8290619279	 0.0607712225	-1.5626801791	 0.135468
H	-1.9612036066	 1.2272654375	-0.2203841582	 0.13657
H	 0.3329126592	 0.6142306581	 0.5435706105	 0.106076
H	-1.3077642128	-1.3488740593	 2.6695167827	 0.129124
H	-1.0674116527	 0.3496439507	 2.2199880042	 0.118828
H	-3.575871986	-2.4910122116	 1.3699682115	 0.14363
H	-4.7595161468	-1.2737848295	 0.810899224	 0.139349
H	-3.2427973386	-1.5984531041	-0.0991489039	 0.153014
H	 2.1999131183	-1.7132266614	-2.4132577156	 0.201632
