20
gdb 109857	2.51663	1.4249	1.07622	4.0864	74.37	-0.2338	0.0645	0.2983	1173.5458	0.171444	-440.239472	-440.230655	-440.229711	-440.272591	34.289	
C	-0.1281586845	 1.5056159484	 0.163430161	-0.511548
C	 0.1144255357	 0.0374513008	-0.0021906846	 0.330715
N	-0.7134340198	-0.9770782853	 0.7090855658	-0.39603
C	 0.7620986615	-0.9523251178	 0.9064041288	-0.146106
C	 1.2907825644	-1.7673592783	-0.2778140126	 0.122969
O	 0.7980174743	-3.0860001274	-0.385221841	-0.441382
C	 0.6647601159	-0.6827005254	-1.2475110952	-0.092936
C	-0.2935609972	-1.2000387902	-2.3166184689	-0.096335
O	 0.3336070223	-2.1803006102	-3.1276316304	-0.430578
H	 0.7299278551	 2.0838583354	-0.1950122921	 0.131132
H	-1.008035214	 1.8304115292	-0.4036724127	 0.134198
H	-0.2928286737	 1.7648003315	 1.215330936	 0.118328
H	-1.1375559493	-0.5212997063	 1.5156202014	 0.230817
H	 1.1848743846	-0.8339005043	 1.8972921629	 0.094402
H	 2.3783248017	-1.8206615621	-0.343417147	 0.094014
H	-0.1161182067	-3.0358249632	-0.0680884593	 0.297562
H	 1.4685897043	-0.1017191706	-1.7103140351	 0.07671
H	-1.204347929	-1.5895560031	-1.8401664885	 0.09346
H	-0.5987378576	-0.3876156309	-2.9856178744	 0.100367
H	 0.5665855619	-2.8987604402	-2.5241904642	 0.29024
