20
gdb 115740	2.904	1.1466	0.95504	1.3692	74.55	-0.2432	0.0666	0.3098	1279.941	0.171527	-440.22492	-440.215817	-440.214873	-440.259462	33.033	
O	-0.0638598852	 1.4172135988	-0.3821039594	-0.426541
C	 0.0170950827	 0.1108169397	 0.1730577667	-0.106934
C	-1.3673832866	-0.4987467771	 0.0479227973	-0.041078
C	-1.8152867077	-0.8622744894	-1.380550453	-0.07657
O	-1.8455891847	-2.2765764311	-1.0623062079	-0.298861
C	-1.5300607657	-2.0208642693	 0.3260725363	 0.080476
C	-0.3458784395	-2.8315809858	 0.7976685712	-0.009202
C	-0.1921800143	-4.2331738169	 0.3431953116	-0.248871
N	 0.7270904211	-3.1834036513	-0.1428808846	-0.320696
H	 0.8182339381	 1.8000760452	-0.3797057935	 0.289701
H	 0.7573309506	-0.5053205957	-0.3564600674	 0.109046
H	 0.3182255146	 0.1436045237	 1.2323062745	 0.090583
H	-2.0794560774	 0.1285462929	 0.5885026442	 0.087194
H	-2.8056216822	-0.496931468	-1.6740020298	 0.107559
H	-1.0980948942	-0.6351488001	-2.1772444517	 0.110397
H	-2.3944586077	-2.239437552	 0.9697228134	 0.081775
H	 0.0010794564	-2.569262564	 1.7960389751	 0.091994
H	 0.2548072472	-4.9729336651	 1.0007276305	 0.115885
H	-0.9322686903	-4.6154418941	-0.353817647	 0.128667
H	 0.4082886548	-2.9211515205	-1.0752548766	 0.235478
