14
gdb 26918	3.10943	1.40103	0.96585	2.9692	70.82	-0.1882	-0.0312	0.157	1114.1375	0.100366	-473.881499	-473.872879	-473.871934	-473.915848	30.642	
O	-0.0316202286	 1.3631308416	 0.0079368264	-0.40342
C	-0.0418531809	 0.0145343932	 0.0009089292	 0.436561
C	-1.2261944654	-0.6794344226	 0.0038393575	 0.214586
O	-2.4011307327	 0.0301899186	 0.014145572	-0.452951
C	-1.149307151	-2.0902283987	-0.0039810982	-0.146994
C	 0.0350377684	-2.7763342797	-0.0141746962	-0.271852
C	 1.2986054228	-2.0862991971	-0.0174976682	 0.418019
O	 2.4267919747	-2.554423018	-0.0262607439	-0.410062
N	 1.1357056516	-0.6736865014	-0.0091821294	-0.45682
H	 0.8708519301	 1.6989231584	 0.004403744	 0.305975
H	-3.1330945227	-0.5933524529	 0.0139440739	 0.297645
H	-2.0844034964	-2.6473783419	-0.0017119971	 0.102638
H	 0.0672781792	-3.8574497901	-0.0200618324	 0.115556
H	 2.015935691	-0.1749162593	-0.0113680275	 0.251119
