16
gdb 69152	2.941	1.69251	1.31027	4.1367	68.46	-0.2466	-0.0296	0.217	976.87	0.124141	-437.865855	-437.858464	-437.85752	-437.8975	28.719	
C	-0.1217010624	 1.4984234663	 0.0335994278	-0.49983
C	 0.1195558084	 0.0178479208	-0.0264552592	 0.418884
O	-0.4428517805	-0.785846007	 1.0172419431	-0.285933
C	 0.9966881237	-0.7496782249	 0.8743760495	-0.1692
C	 1.4494776667	-1.9910497267	 0.121345834	 0.414836
O	 2.1117807437	-2.8919745608	 0.5536195559	-0.310313
N	 0.9801410958	-1.9082097643	-1.2346524549	-0.145212
C	-0.4753542944	-2.0580541828	-1.4698340544	-0.252128
C	 0.1383259602	-0.7091388691	-1.3641702786	-0.100812
H	 0.606518167	 2.0327316355	-0.5846814464	 0.135419
H	-1.1232554282	 1.7398127883	-0.3376515368	 0.139421
H	-0.0410149303	 1.8572571847	 1.0619456799	 0.141705
H	 1.5557682462	-0.3607026159	 1.7199078567	 0.11871
H	-0.7291742873	-2.4588806714	-2.4466040706	 0.132837
H	-1.08407362	-2.399192637	-0.6405272598	 0.155759
H	 0.3050612615	-0.1079730858	-2.2536121163	 0.105854
