15
gdb 15961	3.10801	1.92704	1.36017	3.6939	65.52	-0.2786	0.0193	0.2979	895.7131	0.118988	-362.644555	-362.637363	-362.636419	-362.676259	26.566	
N	-0.3997432473	-0.9016832538	-0.7892572179	-0.330522
C	-0.242475939	 0.1770418797	-0.402928494	 0.275221
C	-0.0060045249	 1.5198574301	 0.0937661531	-0.228663
C	 0.0521394585	 1.7510580347	 1.6432977005	-0.235056
C	 1.2924677524	 2.6703698514	 1.4418694856	-0.321357
C	 1.4331288106	 2.0857251969	 0.0359801703	 0.449134
C	 2.597082466	 1.5050048897	-0.6296427262	-0.260448
O	 1.9853514681	 2.7302379779	-1.0798350438	-0.261454
H	-0.6989081147	 2.2186511	-0.3848744544	 0.137206
H	-0.8368606216	 2.1989033516	 2.0864900192	 0.125529
H	 0.2958892419	 0.830140714	 2.1744788585	 0.134108
H	 1.0243532932	 3.7300411799	 1.4045905588	 0.127335
H	 2.1326087857	 2.5392546377	 2.1257985724	 0.121509
H	 3.5829817739	 1.6168858147	-0.1818144511	 0.124297
H	 2.4690787272	 0.6512874255	-1.2922439111	 0.143161
