19
gdb 41809	2.38955	2.0254	1.52313	1.0041	75.52	-0.2376	0.0113	0.2489	948.9393	0.162601	-423.038325	-423.031192	-423.030248	-423.069787	28.611	
C	-0.0863577519	 1.4107240256	-0.3899503226	-0.087658
O	 1.0592751686	 1.9914834474	 0.2203257174	-0.274109
C	 2.011206064	 0.9545880027	 0.4472765675	 0.199094
C	 2.3246519117	 0.8284973385	 1.9375314987	-0.224113
C	 1.0970494599	 0.8636450708	 2.8619549245	-0.257029
C	-0.0834432301	-0.0206964134	 2.5342272186	-0.050482
C	-0.5475755763	-0.4066669528	 1.3439148558	-0.062491
C	 0.03888789	-0.0770532833	-0.0084519584	 0.012534
O	 1.456802625	-0.2377597562	-0.0690388464	-0.254042
H	-0.9821666778	 1.8938220779	 0.0072282483	 0.113719
H	-0.0534486714	 1.5366491076	-1.4815478746	 0.097363
H	 2.9254643771	 1.1581017777	-0.1267592435	 0.080683
H	 2.8759686419	-0.1096527567	 2.0626247026	 0.112378
H	 3.0011574005	 1.6410855027	 2.2270783205	 0.100978
H	 1.4336943523	 0.630324459	 3.8784509683	 0.101485
H	 0.7287503366	 1.8977399116	 2.9079717635	 0.129956
H	-0.6580944969	-0.3309002917	 3.4056488414	 0.090287
H	-1.4593485239	-0.9993606955	 1.3178912916	 0.084836
H	-0.3860839694	-0.7314355521	-0.7734165331	 0.086608
