18
gdb 52134	4.43574	0.81408	0.744	3.7764	76.95	-0.2356	0.0042	0.2398	1508.4516	0.147968	-439.109118	-439.100159	-439.099215	-439.144786	31.185	
O	 0.3257887939	 0.1775732058	-0.9755631644	-0.318823
C	 0.1701518175	 1.2261223366	-0.3873131861	 0.158107
N	 1.087900166	 1.8133518724	 0.4285694488	-0.272133
C	 2.4035140911	 1.2370727821	 0.6901209082	-0.279751
C	 3.5190006607	 2.1601211311	 0.3062374261	 0.298165
C	 4.4728251555	 2.6650837126	 1.0843137178	-0.215641
C	 5.4043999663	 3.5178302688	 0.2728055627	-0.099776
O	 4.8581441505	 3.5175656435	-1.043541037	-0.263999
C	 3.7376004844	 2.6417838252	-1.107771428	-0.144195
H	-0.758147031	 1.8268145981	-0.4564908578	 0.078838
H	 0.854172598	 2.6940612487	 0.8594033206	 0.250544
H	 2.4925055714	 0.9617294312	 1.7474003042	 0.116714
H	 2.4344739236	 0.3141640776	 0.1015312343	 0.158524
H	 4.5971037294	 2.4916423183	 2.1465248526	 0.102554
H	 5.4682032071	 4.5522253064	 0.6448129132	 0.107022
H	 6.4317384453	 3.1171540984	 0.2611390837	 0.106342
H	 3.9405065892	 1.8029958034	-1.7943337915	 0.11071
H	 2.8689076108	 3.1823268097	-1.5113805875	 0.106798
