20
gdb 79812	2.14368	1.91	1.64629	1.0009	76.87	-0.2348	0.0574	0.2921	972.2783	0.172155	-403.116462	-403.108499	-403.107555	-403.148291	32.048	
C	-0.0666170758	 1.5066202907	 0.0221102372	-0.498189
C	-0.0267780713	-0.0082356773	 0.027609424	 0.264058
C	-1.383539373	-0.7215976601	-0.0403819702	-0.267065
C	-1.0399084098	-2.1705430502	 0.3897378655	-0.180289
N	 0.3188124786	-2.1420486643	 0.9784664589	-0.097027
C	 1.4148384257	-1.6409965032	 0.1316089544	-0.12107
C	 0.7416438269	-0.766603934	 1.1517729548	-0.10018
C	 0.9643655537	-0.7015163008	-0.984954824	 0.114964
O	 0.5099602435	-1.1916388746	-2.2262680653	-0.442493
H	 0.9374985132	 1.9330785827	 0.1201537692	 0.116435
H	-0.496959023	 1.8835603535	-0.9120287869	 0.126768
H	-0.67558716	 1.8912629724	 0.848458485	 0.114694
H	-2.0980111717	-0.2610818594	 0.6504486508	 0.098145
H	-1.8091711853	-0.6684113184	-1.0468911716	 0.107112
H	-1.7270557589	-2.5413412541	 1.155960534	 0.112902
H	-1.072338422	-2.8921453342	-0.4349023126	 0.094511
H	 2.3564401169	-2.1784090086	 0.1797230056	 0.091605
H	 1.0945731629	-0.3929782504	 2.1055734448	 0.090775
H	 1.7760430425	-0.0065779046	-1.22302424	 0.089842
H	 0.0090120869	-1.998232435	-2.0753943535	 0.284504
