23
gdb 61651	3.98171	0.77493	0.68172	0.7745	92.46	-0.2553	0.0576	0.3129	1698.547	0.204425	-351.116946	-351.106823	-351.105879	-351.152603	37.86	
C	-0.0158963243	 1.5910630658	 0.2045752071	-0.382168
C	 0.0136504255	 0.0547376854	 0.0705899444	-0.165697
C	 0.6922052787	-0.4366272449	-1.2331442796	-0.207012
C	-0.0238900774	-0.0612391153	-2.5269055058	 0.055119
C	 0.1550913054	 1.3462341117	-3.175453279	-0.214202
C	 0.2038937151	 0.6616894659	-4.5664309363	-0.220246
C	 0.5183541976	-0.6775732781	-3.8491552066	-0.236132
C	 0.6647127058	-0.5453691669	 1.2352705659	 0.320978
C	 1.2222530709	-1.0305586369	 2.1839101552	-0.466457
H	 0.9999079178	 1.9981909503	 0.1931230643	 0.122891
H	-0.5782489603	 2.0428674035	-0.6158210624	 0.121009
H	-0.4857309378	 1.8855795709	 1.1466209573	 0.123
H	-1.0271165259	-0.3008083097	 0.051535763	 0.10223
H	 1.7257142654	-0.0666698806	-1.2582568745	 0.098533
H	 0.7617295415	-1.5302072541	-1.1814462517	 0.106742
H	-1.0939640716	-0.2875369139	-2.4335064859	 0.066307
H	-0.6218301503	 2.0958893903	-3.0053103051	 0.094958
H	 1.1221972184	 1.7839900665	-2.9069719829	 0.099106
H	-0.7801088903	 0.6440366747	-5.0440707299	 0.101067
H	 0.9321395977	 1.0335100464	-5.2909015659	 0.095938
H	 1.5973613586	-0.854737121	-3.7845348951	 0.098891
H	 0.0404997552	-1.5882174439	-4.219506202	 0.094474
H	 1.7030374542	-1.463813046	 3.0254940954	 0.190671
