15
gdb 48391	2.32184	1.72352	1.2419	3.4687	70.16	-0.2721	-0.0671	0.205	1007.3853	0.11176	-416.768992	-416.761028	-416.760084	-416.80178	29.164	
O	-0.1980056172	 0.0493717297	-0.2236224795	-0.238923
C	-0.0397030952	 1.1861023768	 0.1333883239	 0.131825
C	 1.300440518	 1.9158292484	 0.0305280499	 0.076192
C	 2.5277146213	 1.1177482383	-0.4923681299	-0.311885
C	 2.5102189076	 2.0457206037	-1.7041023759	 0.000127
C	 1.2099024576	 2.0173714521	-2.3872155416	-0.250189
N	 1.3370498949	 2.8706646611	-1.175143256	-0.167717
C	 1.5379422228	 2.6678550862	 1.256459781	 0.267549
N	 1.7063907733	 3.2287082773	 2.2527695282	-0.322686
H	-0.8717513645	 1.8104237892	 0.5172787842	 0.122089
H	 3.4013593249	 1.2353273257	 0.1472019897	 0.14403
H	 2.341270156	 0.059323626	-0.6818528624	 0.144593
H	 3.3819209355	 2.5378529077	-2.119799068	 0.116383
H	 1.0963014607	 2.6276944186	-3.2769208918	 0.141054
H	 0.5955997345	 1.1222030792	-2.3637917919	 0.147558
