16
gdb 41056	3.29447	2.18968	1.92682	2.6255	69.98	-0.2285	0.0428	0.2713	774.8419	0.126668	-400.592811	-400.587165	-400.586221	-400.622369	24.777	
C	 0.059277819	 1.4821561354	-0.1696987416	-0.147675
O	 1.4742306505	 1.5370367254	 0.2394479265	-0.321047
C	 1.411677276	 0.1885265777	 0.6558109532	 0.385154
C	 0.9782875681	-0.4267059735	 2.0155767932	-0.187409
C	 0.963072737	-1.7349413118	 1.2664198464	-0.069162
C	-0.2985774225	-0.8592719424	 1.3033629508	-0.144512
C	 0.027835905	-0.0408921086	 0.0370748822	 0.137372
N	 0.6407798899	-0.8650970692	-1.0429709661	-0.344063
C	 1.6782445368	-1.1906871068	-0.0391251252	-0.121883
H	-0.5669578478	 2.0669412627	 0.5125105084	 0.113057
H	-0.0706741787	 1.8203878161	-1.2003015291	 0.124711
H	 1.2015294244	-0.2128332415	 3.0510083489	 0.099184
H	 1.009720413	-2.7295065429	 1.6858524196	 0.09783
H	-1.2457482565	-1.1996654009	 1.7057404054	 0.087916
H	 0.0812754006	-1.6561930408	-1.3570065561	 0.214684
H	 2.6120389049	-1.652651879	-0.3652874865	 0.075843
