13
gdb 133249	2.60443	1.83163	1.08262	2.7773	63.93	-0.2549	-0.0767	0.1782	1003.8466	0.089537	-494.060659	-494.053203	-494.052259	-494.093095	26.694	
C	-0.0211200175	 1.4367948508	 0.0052714511	-0.322145
N	-0.0053163879	-0.0228501736	 0.0068355739	-0.048364
N	-0.0463095224	-0.6336976897	-1.1941232549	-0.206728
C	-0.0318922582	-1.9322868365	-1.1834573292	 0.07622
N	 0.0206465818	-2.7359703218	-0.0745337733	-0.302122
C	 0.0587287835	-2.130458457	 1.0512663239	 0.27226
F	 0.110137018	-2.8310398441	 2.1593729257	-0.023063
C	 0.0504073922	-0.6686281576	 1.2380875234	 0.300827
O	 0.0859814643	-0.0749324855	 2.297445859	-0.376882
H	 0.8792572105	 1.8178008829	 0.493495387	 0.161202
H	-0.0659217802	 1.7608804579	-1.0321263084	 0.15794
H	-0.8878102497	 1.7987398117	 0.5638826789	 0.161211
H	-0.0648893645	-2.4245199276	-2.146982537	 0.149642
