18
gdb 31124	2.13794	1.61676	0.96125	1.5724	75.9	-0.1801	0.0377	0.2178	1210.9794	0.147815	-439.113357	-439.104199	-439.103255	-439.147011	34.201	
C	-0.1596286792	 1.5666821746	-0.1253361539	-0.504772
C	-0.0708524736	 0.0756690978	-0.0256347279	 0.174549
C	-0.0676463117	-0.8086508605	-1.0523893667	-0.14396
O	 0.028499615	-2.1017489046	-0.5772328733	-0.182022
C	 0.0809329469	-2.0146564651	 0.7677759769	 0.310953
N	 0.1222852678	-3.2007319465	 1.4752468198	-0.598134
C	 0.0275554083	-0.7115151599	 1.184776295	 0.040075
C	 0.078485738	-0.2687517736	 2.6126283278	-0.194916
O	 1.055830823	-0.9943598256	 3.3761407173	-0.416798
H	 0.6990354082	 2.0564334208	 0.3496716115	 0.123567
H	-0.1874045306	 1.8886948157	-1.1699256362	 0.124645
H	-1.0595855811	 1.954259619	 0.3663270473	 0.128622
H	-0.1216468738	-0.7109246793	-2.1230126705	 0.127467
H	 0.5800656086	-3.9532010887	 0.9780369178	 0.251141
H	 0.5100869791	-3.0551694361	 2.4000131904	 0.262344
H	 0.263655655	 0.8136862809	 2.6706646037	 0.097678
H	-0.8650141321	-0.4579891449	 3.1390460149	 0.120092
H	 1.8995626022	-0.8734818842	 2.9260076462	 0.279468
