21
gdb 63483	3.10039	1.05182	0.92126	1.785	85.05	-0.2503	0.0593	0.3095	1353.706	0.178296	-387.048658	-387.038099	-387.037155	-387.083611	39.88	
C	-0.0172271185	 1.4731957721	-0.2851858357	-0.443116
C	 0.0514857423	-0.0052513556	 0.0299525726	 0.333775
O	-1.0891133658	-0.702946547	-0.417918566	-0.458702
C	 1.3667812104	-0.7532064372	 0.0014429356	-0.38362
C	 0.6397667933	-0.5361125061	 1.3195387992	 0.303827
C	 1.2412864064	 0.4108073235	 2.3409218871	-0.466027
C	-0.0448548174	-1.7542925774	 1.9483018458	-0.424825
C	 0.8912449201	-2.6441854234	 2.6291298656	 0.322136
C	 1.6741995948	-3.3678224882	 3.1853460459	-0.460832
H	 0.8669979295	 2.0142180672	 0.0573830131	 0.119536
H	-0.0912988847	 1.6215541235	-1.3697954965	 0.107626
H	-0.9025846857	 1.9239424103	 0.1746121265	 0.126335
H	-1.0530101923	-0.736030303	-1.3801614782	 0.282024
H	 1.3580215703	-1.7548812658	-0.4159889802	 0.113028
H	 2.2813493403	-0.1961044059	-0.1772352813	 0.105015
H	 1.8109337612	 1.218300893	 1.8757252715	 0.112575
H	 0.4646912032	 0.8644658223	 2.968293083	 0.115149
H	 1.9222314211	-0.1386403464	 2.9990441447	 0.134752
H	-0.8026866563	-1.4100842679	 2.665473709	 0.124546
H	-0.5889194071	-2.3039045879	 1.1762586756	 0.146061
H	 2.356402345	-4.0159295101	 3.6766864327	 0.190737
