20
gdb 102277	1.82539	1.30654	0.85854	1.5844	77.45	-0.2486	-0.0361	0.2125	1404.25	0.167908	-440.339229	-440.328482	-440.327538	-440.376377	36.934	
C	 0.021103441	 1.5526488796	-0.4073348068	-0.378059
C	 0.0565052408	 0.0438759714	-0.1574740249	-0.183725
C	 0.845408361	-0.7394855852	-1.2359723087	-0.064584
N	 2.2516374146	-0.4046360815	-1.2996678906	-0.313467
C	 2.745711378	 0.4143380978	-2.2815743021	 0.411734
C	 4.2612834106	 0.4398525418	-2.3904919264	-0.487741
O	 2.0231098058	 1.0691534265	-3.0116893124	-0.375045
C	 0.6968183037	-2.2241244841	-0.9676148066	 0.158398
O	 1.6194474563	-2.9635248293	-0.7302110434	-0.258116
H	 1.0279148811	 1.9770396474	-0.3981418484	 0.133818
H	-0.4218570673	 1.783169244	-1.3800141284	 0.134777
H	-0.5660914524	 2.0523802348	 0.3691522939	 0.110493
H	 0.5028972867	-0.1664604834	 0.8224829577	 0.106025
H	-0.9670623026	-0.3519941629	-0.1277473088	 0.101777
H	 0.3952696729	-0.5142168608	-2.2129379207	 0.129087
H	 2.8656437496	-1.0922196216	-0.8848059846	 0.252269
H	 4.7596819342	 0.1493388032	-1.4621255448	 0.123785
H	 4.5748797248	-0.2496682069	-3.1815229364	 0.151644
H	 4.5770441261	 1.4433756396	-2.6790629172	 0.1519
H	-0.3514622249	-2.5916084404	-0.9696489403	 0.09503
