15
gdb 132750	2.34239	1.79263	1.02187	1.9758	71.04	-0.2492	-0.0141	0.2351	1082.2914	0.112883	-461.976125	-461.968353	-461.967408	-462.008369	29.277	
C	-0.0110549786	 1.5369837344	 0.031993296	-0.492237
C	-0.0002429283	 0.0337684468	 0.0113444338	 0.167543
C	 0.0809447381	-0.6642598632	-1.196231759	 0.219411
O	 0.1516438218	 0.0038607255	-2.3699077353	-0.426821
C	 0.0865627524	-2.0566751194	-1.1492241803	 0.122689
F	 0.165667435	-2.7164677118	-2.3227403166	-0.096218
C	 0.0137097012	-2.7254316538	 0.0563208289	-0.097749
N	-0.0640998184	-2.0728847168	 1.2193021588	-0.286935
C	-0.0690160355	-0.7388760186	 1.1729117497	-0.057235
H	 0.8964520576	 1.9476832748	-0.4236332001	 0.140921
H	-0.8568903722	 1.9368682375	-0.5376272435	 0.140923
H	-0.0799982481	 1.9091991814	 1.0568808504	 0.128495
H	 0.2008953994	-0.6460744018	-3.0827865526	 0.308843
H	 0.0195059048	-3.8117469761	 0.0750295494	 0.122705
H	-0.1340288792	-0.2306415888	 2.1330034506	 0.105665
