17
gdb 57997	3.88541	0.84887	0.7059	3.8587	72.16	-0.2554	0.0056	0.2609	1541.2445	0.133976	-455.188708	-455.178342	-455.177398	-455.22647	33.935	
C	 0.0468599132	 1.3781323539	 0.0911005484	-0.342524
N	-0.0269835344	-0.0728413792	 0.0852768975	-0.152818
C	 1.2340600111	-0.7905145433	 0.1668968738	-0.345242
C	-1.2471744107	-0.6614548584	 0.0048003378	 0.552607
O	-2.3154893285	-0.0901891718	-0.0649786434	-0.420706
O	-1.1520450151	-2.0296882618	 0.0102385263	-0.266989
C	-2.418131638	-2.6774770538	-0.0734149583	-0.192929
C	-2.1807775267	-4.1210907355	-0.0669219246	 0.262656
N	-2.0305220473	-5.2656303417	-0.0641416231	-0.291812
H	 0.6388695311	 1.7356157207	-0.7604362303	 0.127384
H	-0.9617734094	 1.7814742716	 0.0254201422	 0.171877
H	 0.5229729222	 1.7343472714	 1.0129522697	 0.127378
H	 1.7633546653	-0.524309408	 1.0903965362	 0.129648
H	 1.0612266364	-1.862999552	 0.1558701138	 0.169884
H	 1.8780265196	-0.5245430664	-0.6807178914	 0.12967
H	-3.0555643984	-2.3979716919	 0.7715871636	 0.170801
H	-2.9446489003	-2.387322784	-0.9882547082	 0.171116
