19
gdb 35086	3.03667	1.44575	1.13706	0.7103	85.95	-0.2405	0.0164	0.2569	1110.6999	0.160283	-348.720224	-348.712383	-348.711439	-348.752534	31.232	
C	-0.0225728522	-1.2565766904	-0.0003336717	-0.479198
C	-0.0228864593	-0.0539292874	 0.001545026	 0.334106
C	-0.0300176552	 1.4061251698	 0.0051159961	-0.223633
C	-0.6777495543	 2.022083219	 1.2421710102	-0.068356
C	 0.0364981442	 3.0254605335	 1.7483950477	-0.086075
C	 1.3157679192	 3.2763101563	 0.9970524278	-0.063326
C	 2.6142425072	 2.7672338471	 1.6924511387	-0.227081
C	 2.4727389251	 1.4255554881	 0.9190350215	-0.221342
C	 1.379884569	 2.0629074864	 0.0119512817	-0.018499
H	-0.0225296357	-2.3182789654	-0.0058261094	 0.193156
H	-0.5835350159	 1.7334589233	-0.8885897368	 0.107381
H	-1.6267299966	 1.6604185495	 1.6209384744	 0.103345
H	-0.253419012	 3.6127359297	 2.6141054221	 0.095349
H	 1.3644554284	 4.2895758118	 0.5842860037	 0.071463
H	 3.495247434	 3.3399285205	 1.3903626025	 0.097924
H	 2.5940858845	 2.7124648022	 2.7841221473	 0.096827
H	 3.3675102029	 1.0661696472	 0.4066944504	 0.099435
H	 2.0812055102	 0.6110312307	 1.5313833434	 0.116766
H	 1.7333003066	 2.2868196383	-0.9953326756	 0.071759
