15
gdb 2159	3.66433	2.93351	1.74432	1.7816	56.75	-0.2424	-0.0247	0.2177	714.6572	0.125	-345.678211	-345.671405	-345.670461	-345.709025	24.636	
C	-0.207975814	 1.547265884	 0.0110733673	-0.40727
C	 0.0617031623	 0.0466612419	-0.0187619979	-0.099461
C	 0.8776192279	-0.5059918491	-1.1939366885	-0.098236
O	 1.4491832471	-1.7286339769	-0.7224760262	-0.248756
C	 1.8178565807	-1.5380216697	 0.6289605403	-0.180477
C	 0.8906939108	-0.4475665935	 1.1723498655	 0.365258
O	 0.8467956405	-0.0415475306	 2.3032443008	-0.306314
H	 0.7199127911	 2.1151052217	-0.1142509355	 0.122609
H	-0.8981667276	 1.8451951781	-0.7832875097	 0.119648
H	-0.6425973429	 1.8280336727	 0.9740172967	 0.143696
H	-0.8875533575	-0.5065275663	 0.0321875915	 0.11546
H	 0.2854521966	-0.7417070995	-2.0805075741	 0.118967
H	 1.6673939205	 0.2081741887	-1.4822175095	 0.094907
H	 1.7108710865	-2.4782669645	 1.1781094544	 0.139212
H	 2.8621050681	-1.1974665071	 0.7328970748	 0.120757
