23
gdb 1104	2.98694	2.14771	1.78753	0.0493	77.05	-0.2968	0.0736	0.3704	897.8057	0.215354	-276.202586	-276.192913	-276.191969	-276.235995	36.54	
C	 0.0824342392	 1.5577817565	-0.0070809987	-0.406978
C	-0.007567469	 0.0231242015	 0.0537922146	 0.053594
C	 0.8440130251	-0.4813685348	 1.2315990917	-0.406929
C	-1.4733986205	-0.5306741403	 0.0434161665	 0.287338
C	-2.2039742321	-0.0419771114	-1.2244314988	-0.410864
C	-1.4452793031	-2.0725126778	-0.0009294166	-0.410846
C	-2.274731134	-0.0841415579	 1.2812726153	-0.409395
H	 1.1307555281	 1.869384699	-0.063740784	 0.108437
H	-0.4287145581	 1.9747156924	-0.8782110557	 0.112205
H	-0.3433537426	 2.0232893767	 0.8885338383	 0.113615
H	 0.4564200277	-0.3623544736	-0.8662983806	 0.065117
H	 0.461032613	-0.118121029	 2.1915175104	 0.113653
H	 0.8916916467	-1.5719837537	 1.2794796226	 0.112136
H	 1.8710953545	-0.1137432063	 1.135500951	 0.108476
H	-1.6372392268	-0.2893357799	-2.1295358584	 0.105167
H	-3.1859750366	-0.5200392864	-1.3081559351	 0.105199
H	-2.3693619942	 1.038837631	-1.2162966114	 0.111223
H	-1.0422397184	-2.506073337	 0.9183889663	 0.111199
H	-2.4577917592	-2.4699110646	-0.1304267157	 0.105235
H	-0.8380211186	-2.4345349951	-0.8386226139	 0.105186
H	-2.3584615725	 1.0052538209	 1.3424609738	 0.110066
H	-3.2929360574	-0.4868135478	 1.2400785895	 0.107063
H	-1.8217546111	-0.4405754624	 2.2114650691	 0.110104
