12
gdb 2557	3.7201	2.5624	1.70134	1.5072	63.3	-0.2447	0.0101	0.2549	719.8233	0.087956	-286.13406	-286.127075	-286.12613	-286.164626	25.988	
C	 0.036873202	-1.1665564109	-0.0002045536	-0.46186
C	-0.0086827977	 0.0345343884	 0.0204071668	 0.274804
C	-0.0389752288	 1.4769554028	 0.0336091616	-0.002073
C	 0.5275316942	 2.1680478363	 1.2482269647	-0.254941
N	 1.2688409727	 2.2018263824	-0.0058933705	-0.333649
C	-1.1165017462	 2.0929512421	-0.7027505793	 0.3036
C	-2.0292881069	 2.5994193638	-1.2965609302	-0.44842
H	 0.0665867157	-2.2279956058	-0.0195887903	 0.203577
H	 0.0860252941	 3.1141158489	 1.5453290391	 0.139705
H	 0.8687367296	 1.5301665418	 2.0581970261	 0.131713
H	 2.0134714466	 1.5080108339	 0.0076085827	 0.24718
H	-2.8305073252	 3.0477022863	-1.8302309971	 0.200363
