25
gdb 93890	2.61484	1.36393	1.08648	0.2504	91.53	-0.2602	0.0785	0.3387	1264.435	0.23115	-352.370209	-352.361152	-352.360207	-352.403383	36.606	
C	-0.41643293	 1.4973119098	 0.0318397711	-0.383477
C	 0.0183309595	 0.0236053588	-0.0032585153	 0.014094
C	 0.7739830544	-0.328769175	-1.3058106887	-0.212305
C	 2.2835352699	-0.0742244599	-1.2252143805	-0.208353
C	 2.9415180299	-0.9780863036	-0.1691211593	 0.028196
C	 4.4434921411	-0.7016790414	-0.0280348378	-0.396538
C	 2.2279912773	-0.8847483333	 1.1728860513	-0.008646
C	 1.9393213533	 0.4580710039	 1.7945207613	-0.291166
C	 0.8018393719	-0.3824878999	 1.2537597479	-0.045159
H	 0.4391097357	 2.1759444612	-0.0506860997	 0.112001
H	-1.0973761493	 1.7206794931	-0.7967121101	 0.105351
H	-0.9327007054	 1.7340750125	 0.9677944742	 0.110344
H	-0.9012659254	-0.5742605645	-0.0003571629	 0.06889
H	 0.6224557709	-1.3927310648	-1.5299102207	 0.08902
H	 0.3362165049	 0.2281008651	-2.1426099465	 0.08485
H	 2.7479715467	-0.2663230869	-2.1994460005	 0.089552
H	 2.4856815794	 0.9816968215	-1.0005561442	 0.092285
H	 2.8226165771	-2.0133692388	-0.5235145315	 0.066263
H	 4.6205968731	 0.3204518839	 0.3243183759	 0.113168
H	 4.9077208742	-1.3848488625	 0.691415076	 0.10697
H	 4.9602081824	-0.8223244235	-0.9866125841	 0.105042
H	 2.4974779572	-1.6770331835	 1.867366596	 0.073096
H	 2.0329931241	 0.5626715798	 2.8701399029	 0.102382
H	 2.2256107184	 1.3490141236	 1.2458370606	 0.107277
H	 0.1866356888	-0.8470993055	 2.019311055	 0.076862
