19
gdb 62890	3.21537	1.50635	1.18537	2.2871	76.54	-0.2277	0.0704	0.2981	1072.9168	0.159024	-419.095955	-419.08771	-419.086766	-419.128043	33.045	
C	-0.0847492002	 1.5746356152	 0.0065685442	-0.488346
C	-0.0409216655	 0.0573610826	 0.0147344854	 0.493861
O	-1.3093367926	-0.5011071596	-0.2271093848	-0.48017
C	 1.1938472854	-0.659394276	-0.6524981956	-0.232397
N	 2.010826059	-0.110556497	 0.5148340901	-0.340391
C	 0.7402383649	-0.6730423032	 1.1462066685	-0.177602
C	 0.8551910367	-1.8889390576	 0.2058696932	 0.467346
C	 0.2011459124	-3.1815531784	 0.0168523162	-0.328184
N	 1.6317554852	-3.0916088517	 0.448251329	-0.41825
H	 0.8954351701	 1.9955452838	 0.2257682964	 0.156438
H	-0.4072326715	 1.9386392432	-0.9779768892	 0.102612
H	-0.8076078039	 1.9304293308	 0.7479251806	 0.12212
H	-1.75539808	 0.0481494892	-0.8788955515	 0.280614
H	 1.5489815588	-0.6054967257	-1.684366564	 0.071956
H	 2.7676290941	-0.7704338792	 0.7115745606	 0.221736
H	 0.5639615632	-0.6436302979	 2.2219949497	 0.083678
H	-0.4758934049	-3.5727836669	 0.7705490126	 0.124714
H	-0.012432373	-3.5094808087	-0.9973204168	 0.11204
H	 2.2389264219	-3.2945495427	-0.3433221945	 0.228224
