17
gdb 43099	3.17195	1.92949	1.6713	3.3318	70.75	-0.211	0.	0.211	848.4396	0.141248	-417.990829	-417.984963	-417.984019	-418.020813	25.433	
O	-0.0100196004	 0.0309699516	-0.0778250368	-0.345399
C	-0.027986604	 1.2244149225	 0.0156536816	 0.48428
C	-1.1696016325	 2.2625258089	 0.0607032096	-0.16015
N	-0.7502936667	 2.7039769135	 1.4174068602	-0.296386
C	 0.49213265	 3.3870384271	 0.9759043598	-0.020112
C	-0.071108168	 4.4511081785	 0.0048748619	-0.196894
C	-0.5956405583	 3.3699151682	-0.9521395045	-0.040349
N	 0.7436401931	 2.8339466498	-1.3455926844	-0.301264
C	 1.0864915931	 2.2815031592	 0.000443142	-0.127979
H	-2.1962065406	 1.9196127758	-0.0266619622	 0.08985
H	-1.4017516252	 3.366474787	 1.8309672094	 0.222788
H	 1.1378105506	 3.7010419206	 1.793557112	 0.083609
H	-0.8329240778	 5.0657421206	 0.49196028	 0.088493
H	 0.6653631543	 5.0836919035	-0.4910748533	 0.117451
H	-1.2202943695	 3.6569583675	-1.7951924461	 0.079665
H	 0.6740650014	 2.0768001237	-2.0249662263	 0.23038
H	 2.1205660303	 1.971631752	 0.1221600671	 0.092018
