21
gdb 63949	2.71748	1.67737	1.51584	2.3553	76.47	-0.2453	0.0827	0.328	1001.0829	0.183935	-424.244565	-424.236674	-424.23573	-424.276324	32.417	
C	-0.0731333697	 1.5330540135	-0.0732879125	-0.439283
C	-0.0160924421	 0.0067741932	 0.0337558938	 0.413434
C	-1.4383910781	-0.5569036466	 0.1026730665	-0.429706
O	 0.6388573396	-0.5075939717	-1.1699250217	-0.3118
C	 1.7909609524	-1.1927283049	-0.720633277	 0.212786
C	 1.3117609327	-1.9132851652	 0.5395587639	-0.265166
C	 0.9107027334	-0.5551279507	 1.1595873016	-0.114094
C	 2.2792183766	 0.1374571508	 1.0661089647	-0.089573
O	 2.7605758417	-0.2699185518	-0.2334310486	-0.275165
H	 0.9007233298	 1.9490175047	-0.3352399642	 0.137198
H	-0.7752617107	 1.8188196685	-0.862117588	 0.120879
H	-0.4170502763	 1.9841830338	 0.8638988266	 0.107952
H	-1.9581235076	-0.3476304204	-0.8367487652	 0.127566
H	-1.4494431855	-1.6378292093	 0.2593548644	 0.114094
H	-2.0006703447	-0.0867084905	 0.9163653489	 0.111835
H	 2.2212544078	-1.7507839968	-1.5504700333	 0.088527
H	 0.4886655912	-2.6024671944	 0.354843409	 0.109184
H	 2.113014915	-2.4193978061	 1.0823398758	 0.105675
H	 0.4619611285	-0.5605502424	 2.15302322	 0.073986
H	 2.2382242961	 1.2280052898	 1.1153502348	 0.106504
H	 2.9645108298	-0.2187058835	 1.8471056105	 0.095165
