19
gdb 103738	3.18903	1.07286	0.94731	3.3722	74.6	-0.2456	-0.0291	0.2165	1299.0532	0.155443	-460.160521	-460.150566	-460.149622	-460.195138	36.893	
C	-0.0128586745	 1.419793401	 0.2773179794	-0.400787
C	-0.1831516515	-0.0529987976	-0.1135627124	-0.216866
C	 0.6598558266	-0.4384156177	-1.3127570399	 0.314304
O	 0.3329801556	 0.2248847493	-2.5093314494	-0.470375
C	 2.096706833	-0.8496985206	-1.1390178852	-0.410265
C	 1.0351267774	-1.9002296205	-1.4897066394	 0.303873
O	 0.6657423615	-2.8056838275	-0.5082535053	-0.472972
C	 1.0546534073	-2.4882281563	-2.8484263644	 0.110263
O	 0.7695962229	-3.655179824	-3.0174436532	-0.299646
H	 1.0265650246	 1.646200184	 0.539338517	 0.117288
H	-0.3110929878	 2.0854908751	-0.5399274617	 0.112484
H	-0.6368115344	 1.6671002265	 1.1406499401	 0.123412
H	 0.0742067878	-0.7044191142	 0.7253490799	 0.124282
H	-1.2324344734	-0.2543845897	-0.3583969538	 0.112694
H	 0.7020589447	 1.1141742683	-2.4634148032	 0.287564
H	 2.8074790272	-0.5719756653	-1.9105533396	 0.121332
H	 2.4952251942	-0.9313177739	-0.1337961982	 0.136906
H	 0.4952972991	-3.6300881398	-0.9943847846	 0.296698
H	 1.3370707898	-1.820529327	-3.6790737461	 0.109813
