21
gdb 37791	2.41114	2.07226	1.59977	0.5007	86.12	-0.2164	0.0278	0.2443	953.1754	0.187848	-349.97571	-349.968997	-349.968053	-350.006333	29.002	
C	-0.1112668891	 1.4873787914	 0.110668329	-0.228077
C	 1.2293656197	 2.1968261565	 0.0374071592	-0.055238
C	 2.3146577611	 1.1949988031	 0.3289366539	-0.055237
C	 1.6663098073	-0.1534855558	 0.5881794707	-0.228077
C	 0.2122349363	-0.0317098031	 0.052971327	-0.028344
C	 0.0565886059	-0.6114689732	-1.3598460796	-0.259903
C	 0.9200999017	 0.0158991641	-2.4186935367	-0.070407
C	 1.8017140995	 1.0108334496	-2.2817146834	-0.049589
C	 2.186597665	 1.7797278081	-1.0722007661	-0.067599
H	-0.5956269461	 1.7412132215	 1.0609006841	 0.094153
H	-0.7977401071	 1.7848802438	-0.6898448273	 0.099812
H	 1.2949201035	 3.2197177406	 0.3936696713	 0.076202
H	 3.1940070081	 1.4666939347	 0.9037887544	 0.076202
H	 2.202265376	-0.9844000062	 0.1160505817	 0.099811
H	 1.6636022032	-0.3442545089	 1.6677992677	 0.094154
H	-0.4724160452	-0.5838632695	 0.7042855896	 0.068413
H	 0.2602681889	-1.6927508069	-1.3299335546	 0.098379
H	-0.9971967814	-0.5320453845	-1.6677065962	 0.098379
H	 0.79777097	-0.4064172773	-3.414665484	 0.07899
H	 2.3297925913	 1.3212110861	-3.1811624305	 0.079103
H	 2.9391508415	 2.5335153258	-1.2834374601	 0.078871
