17
gdb 38413	4.08522	1.35608	1.24319	2.8642	71.64	-0.2387	0.026	0.2647	1021.0644	0.138055	-417.971136	-417.964104	-417.963159	-418.002893	27.586	
C	 0.0917972802	 1.6752624917	 0.0662859017	-0.295573
C	 1.5989683734	 1.4732832476	-0.1275235526	-0.038897
N	 2.0472355584	 0.6569836658	 1.0275932515	-0.338435
C	 1.4387942863	-0.0034937644	-0.1546315309	-0.134146
C	-0.0763301794	 0.1187294177	 0.0696030958	 0.435252
C	-0.7500469144	-0.6349335001	 1.2361367614	-0.247957
N	-1.7416227897	-1.5253552454	 0.6064031876	-0.262936
C	-1.6882807593	-1.2646679628	-0.630272081	 0.100087
O	-0.8173782604	-0.3293676521	-1.0911207726	-0.268681
H	-0.2101930156	 2.2058252309	 0.9727891442	 0.108921
H	-0.4025256381	 2.1003479238	-0.8092952311	 0.122508
H	 2.2923043605	 2.1092740379	-0.6622316519	 0.099312
H	 3.0567138404	 0.5381477354	 0.945586252	 0.233724
H	 1.957414551	-0.772040353	-0.7142863138	 0.100181
H	-0.0249788888	-1.2108402213	 1.8182628944	 0.129953
H	-1.2558151285	 0.0436052471	 1.9316138579	 0.120116
H	-2.294612106	-1.7255981089	-1.4023130525	 0.136571
