23
gdb 68034	2.01902	1.65565	1.36074	1.2215	86.02	-0.2515	0.0782	0.3297	1132.9522	0.203606	-388.252157	-388.242077	-388.241133	-388.286387	38.938	
C	-0.1094501589	 1.5369233817	 0.1112509498	-0.475084
C	-0.0071767779	 0.0087716398	 0.024522546	 0.288156
C	-1.408966196	-0.5478776439	 0.3044474866	-0.475095
C	 0.8465906725	-0.6325179242	-1.1514401571	 0.305431
C	 0.5423727911	-0.5794477131	-2.6241670484	-0.51361
C	 2.1346355326	-0.1072637627	-0.4394832774	-0.348096
C	 1.221852609	-0.6963388057	 0.6814181955	 0.370441
O	 1.4298954608	-0.699024144	 2.0502339679	-0.478136
C	 1.0084969257	-1.9139079268	-0.2718951733	-0.347995
H	 0.8209174852	 2.0709787719	-0.0798623248	 0.113613
H	-0.8525237654	 1.9048026615	-0.6056007376	 0.110424
H	-0.4539044243	 1.8298411171	 1.1091146186	 0.123001
H	-2.1267060666	-0.1366329877	-0.4146469534	 0.110407
H	-1.4889953321	-1.6337099495	 0.2608560398	 0.113622
H	-1.7397162276	-0.2367933774	 1.3014536993	 0.12304
H	 0.5084326783	 0.4547032106	-2.9845508617	 0.119468
H	 1.3054230236	-1.1093762325	-3.2048320304	 0.118395
H	-0.4256140434	-1.0425800644	-2.8455428483	 0.119479
H	 3.0472281467	-0.6713762536	-0.6548544544	 0.078485
H	 2.3347214471	 0.962421565	-0.4443355879	 0.092353
H	 2.2415581739	-1.1831268886	 2.236259827	 0.28087
H	 0.1424209135	-2.5545870377	-0.1179150501	 0.09236
H	 1.8989851721	-2.513442876	-0.4840335859	 0.078469
