16
gdb 44591	3.42644	1.72397	1.40873	1.9336	74.48	-0.2477	-0.0444	0.2033	912.1648	0.12615	-400.699331	-400.69286	-400.691916	-400.730098	26.252	
O	 0.1474891083	 0.0617053382	 0.414688023	-0.300513
C	 0.1322439067	 1.1860296075	 0.0103886239	 0.361652
C	-1.0557188009	 2.2064920865	 0.1077582616	-0.341523
C	-0.7337950389	 3.3496835643	-0.8734702506	-0.024236
C	 0.5415358779	 3.0365205876	-1.5575508194	-0.104253
N	 0.4261374946	 4.3243469616	-0.882269164	-0.120044
C	 1.4465307832	 4.3162791821	 0.1865004316	-0.192883
C	 1.8065314815	 2.8531640989	 0.3876949295	-0.091806
C	 1.191059071	 2.1103075039	-0.5532010484	-0.044029
H	-2.0004651592	 1.7320020963	-0.1785111652	 0.134466
H	-1.1451320291	 2.5007858385	 1.1596489296	 0.135321
H	-1.5744113003	 3.7757579925	-1.4101843565	 0.109553
H	 0.7217872658	 2.9672951832	-2.6255053452	 0.099543
H	 2.2724503568	 4.9654661414	-0.1330260534	 0.128974
H	 1.0561474155	 4.7319288451	 1.1239319833	 0.125899
H	 2.1780193571	 2.4687155425	 1.3324081003	 0.123877
