19
gdb 1578	6.56616	1.16957	1.05454	2.2837	64.88	-0.2513	0.076	0.3273	1134.6836	0.169225	-348.040439	-348.031116	-348.030172	-348.074454	31.91	
C	-0.021606429	 1.3697579545	 0.0056713518	-0.226455
O	-0.0041340393	-0.0358848603	 0.0127441028	-0.232391
C	-1.2964119314	-0.6027428263	 0.0175126726	-0.056568
C	-1.1690789296	-2.1249379434	 0.0554308113	 0.017222
C	-0.4543318109	-2.6040696114	 1.3235943932	-0.38603
C	-2.547011731	-2.7695776801	-0.0961170053	-0.078399
O	-2.3701251744	-4.1745684276	-0.2019870017	-0.42231
H	 1.0165141845	 1.7112760339	 0.0018713617	 0.126261
H	-0.5297555129	 1.768988921	-0.8870558029	 0.101305
H	-0.5267304297	 1.7784461179	 0.8957793965	 0.101874
H	-1.865936732	-0.2441995461	 0.8946986094	 0.079052
H	-1.8532301737	-0.2834031149	-0.8812592643	 0.07907
H	-0.5751453829	-2.4237407318	-0.8181210197	 0.092672
H	-1.0202765287	-2.3169406093	 2.219124169	 0.099862
H	-0.3583654823	-3.691697556	 1.3199654784	 0.128761
H	 0.5391258641	-2.1566057866	 1.3956787483	 0.126579
H	-3.1733559949	-2.5139976045	 0.7754270183	 0.081785
H	-3.050234174	-2.3685712298	-0.9912020854	 0.081459
H	-3.2384868019	-4.5856459693	-0.2321321939	 0.286252
