22
gdb 7579	3.04565	1.49996	1.41362	1.9407	77.01	-0.2421	0.066	0.3082	1047.7314	0.198859	-350.192933	-350.183602	-350.182658	-350.226636	34.769	
C	-0.2310958907	 1.4815384315	 0.0240849072	-0.403985
C	 0.0766772188	-0.0225808075	-0.0174212499	-0.024402
C	 0.7968525475	-0.4019968934	-1.3198084102	-0.403985
C	 0.830678208	-0.5060225506	 1.2368855289	 0.327868
C	 2.215361231	 0.1162802571	 1.423826711	-0.46974
C	-0.006639433	-0.5068470145	 2.5452039733	-0.122671
O	 0.1880431068	-1.9220963656	 2.7300370594	-0.275144
C	 0.8327792401	-2.0449565792	 1.4477676074	-0.12267
H	 0.6811390219	 2.0826644443	-0.0518110058	 0.117465
H	-0.879200498	 1.7654336315	-0.8113221272	 0.113905
H	-0.7425375659	 1.7644380234	 0.9503912033	 0.114814
H	-0.887048948	-0.5519413054	-0.0126516666	 0.072973
H	 1.7387593696	 0.1447614772	-1.4344955302	 0.117465
H	 1.0241494189	-1.4727090417	-1.3592974071	 0.114814
H	 0.1738420468	-0.1640822248	-2.188022579	 0.113905
H	 2.1602579278	 1.2050304861	 1.5237384092	 0.117428
H	 2.6864810187	-0.2743093633	 2.3315607116	 0.123475
H	 2.8791457637	-0.1122009547	 0.5838369387	 0.117428
H	 0.395179603	 0.0768536956	 3.3827962425	 0.095586
H	-1.0685159024	-0.2550719611	 2.413360872	 0.089943
H	 0.2162309588	-2.6091788547	 0.7337109643	 0.089942
H	 1.8157254164	-2.5260842705	 1.5256037572	 0.095586
