21
gdb 77873	2.02223	1.60113	1.24687	2.9967	83.78	-0.2304	-0.0072	0.2232	1161.947	0.180626	-387.094649	-387.08487	-387.083926	-387.128841	36.216	
C	-0.2097908807	 1.2881580179	-0.5777533983	-0.422952
C	 0.166475663	-0.1819345559	-0.5455030661	-0.043626
C	 1.5346370831	-0.7906177716	-0.6081077303	-0.1511
C	 2.6078572227	 0.0248068195	 0.1337084795	-0.085098
C	 3.1902908601	 1.3265133973	-0.4055233737	-0.425189
C	 1.6844355706	-0.0466888823	 1.3805826015	 0.328555
O	 1.8182673205	 0.3130461574	 2.5179174618	-0.324357
C	 0.6728971341	-0.9236398297	 0.6863843472	 0.197825
C	-0.046308083	-2.0808823068	 1.32059756	-0.498043
H	-0.1356946795	 1.6935117842	-1.5930259992	 0.119766
H	-1.2460330856	 1.4139318218	-0.2458401336	 0.121304
H	 0.4133705451	 1.8979911396	 0.0789562769	 0.136241
H	-0.5586388186	-0.8005626843	-1.0746588604	 0.091978
H	 1.7601757666	-1.5905292542	-1.3039023828	 0.092657
H	 3.4387501495	-0.6502934972	 0.3865855613	 0.105492
H	 2.4211701905	 2.0209892808	-0.7484279442	 0.122794
H	 3.7742111003	 1.8253478904	 0.3748715706	 0.133006
H	 3.860304311	 1.1303918201	-1.2492680424	 0.117681
H	-0.8049585793	-1.7273738807	 2.0273661205	 0.136422
H	-0.5524330841	-2.6920824907	 0.5666570964	 0.119371
H	 0.6436821737	-2.7257781755	 1.8747736255	 0.127274
