17
gdb 68972	2.58704	1.63369	1.24034	1.2393	80.65	-0.2225	0.0089	0.2314	1039.732	0.134477	-384.65088	-384.642591	-384.641647	-384.683274	32.736	
O	 0.054406087	 1.3326076318	-0.2296622668	-0.458076
C	 0.0166073882	-0.0408081974	-0.0480433432	 0.359424
C	-0.3829441906	-0.8465432719	-1.2347132013	-0.343072
C	-1.3206335655	-0.8278013564	-0.0143041627	 0.077019
C	-1.0757752306	-1.9309138439	 0.9682640932	-0.146979
C	 0.1497161345	-1.871659534	 1.4939941315	-0.085238
C	 0.9365366859	-0.6825793149	 0.9923265149	-0.340304
C	-2.5874893058	-0.173390833	-0.0934887687	 0.199392
C	-3.6513135308	 0.3888141765	-0.1323009584	-0.425778
H	-0.3702171128	 1.7514064479	 0.5281038751	 0.288754
H	-0.7139507781	-0.2702007331	-2.0909820437	 0.13403
H	 0.124362906	-1.7800609894	-1.4545531115	 0.11825
H	-1.8289752998	-2.6779997631	 1.1877789949	 0.106299
H	 0.5605212832	-2.5857446689	 2.1979802747	 0.100793
H	 1.9029210772	-0.9650183336	 0.5574841046	 0.120507
H	 1.1576729008	 0.0300173127	 1.7997676463	 0.107329
H	-4.5933597389	 0.8757054206	-0.1803310889	 0.18765
