20
gdb 98605	4.20695	1.014	0.92985	3.2872	81.53	-0.238	0.0283	0.2663	1336.7745	0.172063	-403.127167	-403.118422	-403.117478	-403.161779	32.303	
C	 0.13909098	 1.4730411393	 0.0471595503	-0.333938
N	-0.0387828036	 0.0351889991	 0.0628942079	-0.314916
C	-1.2708365681	-0.558509656	 0.0959747949	 0.383961
O	-2.3102552893	 0.0816625773	 0.08641778	-0.3813
C	-1.2065514228	-2.0760018965	 0.1299490957	-0.0819
C	-1.2564236407	-2.8505312114	 1.4975876124	-0.055567
C	-2.7690480972	-2.494088937	 1.5847285731	-0.218225
C	-2.5172033962	-2.9129038404	 0.103639332	-0.039636
C	-1.674402746	-4.0968500291	 0.6670027218	-0.226293
H	 0.73100962	 1.7910675409	-0.818236508	 0.123123
H	-0.8542598019	 1.919071902	-0.0152033835	 0.171222
H	 0.6327530737	 1.8302250264	 0.9586788076	 0.123241
H	 0.7769594211	-0.5536429205	 0.0911289612	 0.243519
H	-0.4189153155	-2.4347214186	-0.5442809783	 0.066848
H	-0.5120804243	-2.8044779531	 2.294669932	 0.069153
H	-3.3812261112	-3.1803401338	 2.1763708436	 0.08453
H	-3.0363433339	-1.4539820955	 1.757134129	 0.129639
H	-3.2440682062	-2.9415438845	-0.7076656152	 0.07894
H	-0.9177596181	-4.5293433437	 0.005555952	 0.085247
H	-2.2281512098	-4.8706120846	 1.2047331415	 0.092353
