15
gdb 26908	3.19326	1.38695	0.97198	5.4198	73.36	-0.2003	-0.0243	0.1759	1130.5659	0.115282	-454.019225	-454.011688	-454.010744	-454.051028	29.483	
N	-0.4542949254	 1.356223113	 0.0420961067	-0.629663
C	-0.1773677571	-0.0520245286	-0.0017634631	 0.023576
C	-1.2789880381	-0.8753090196	 0.0647965189	 0.513166
O	-2.5251328389	-0.4047687829	 0.1638637021	-0.405111
N	-1.1443394304	-2.2187409865	 0.0317762477	-0.436649
C	 0.0893403882	-2.9211387472	-0.0701742775	 0.42208
O	 0.0794945296	-4.1399722789	-0.0897544026	-0.399412
C	 1.2320803658	-2.0380899798	-0.1390899616	-0.278059
C	 1.0889059585	-0.67865964	-0.1054705674	-0.093926
H	-0.0170584808	 1.8112161789	 0.8375190432	 0.248933
H	-0.1377811673	 1.8380163514	-0.7937631066	 0.248926
H	-2.4048251176	 0.565833716	 0.1709004176	 0.306561
H	-1.9728207427	-2.796801555	 0.0825707748	 0.267228
H	 2.201674806	-2.5115605202	-0.2183805041	 0.110911
H	 1.97144526	-0.0456028306	-0.1594793883	 0.101439
