20
gdb 52391	6.95237	0.53997	0.52227	3.0301	78.53	-0.2512	0.0187	0.2699	2061.7401	0.170093	-440.253368	-440.243479	-440.242535	-440.290906	33.239	
N	-0.118658773	 1.3051775113	 0.0414758865	-0.436758
C	-0.0677152005	 0.045283177	 0.0927890095	 0.12909
O	-1.1909048075	-0.6821428899	-0.0555722283	-0.181544
C	-1.0362175901	-2.1011829946	-0.0082299495	-0.073382
C	-2.4174827554	-2.7268023848	-0.1381798036	-0.227876
C	-2.3724189193	-4.2484873736	-0.091450511	-0.028769
C	-2.1356546999	-4.9320381247	 1.2777738146	-0.077283
O	-3.3699046873	-5.6670020253	 1.1776824035	-0.268315
C	-3.72309306	-4.9991171918	-0.0502182011	-0.091835
H	 0.8116302818	 1.695690292	 0.1758870472	 0.229256
H	 0.8329231965	-0.564413048	 0.2546562223	 0.082452
H	-0.3831465989	-2.4345819277	-0.8273194834	 0.108134
H	-0.5638244777	-2.3948631152	 0.9400993887	 0.109982
H	-3.0557066403	-2.3445571448	 0.6674861769	 0.119507
H	-2.8652041094	-2.3922485233	-1.0814859544	 0.119176
H	-1.7070148441	-4.6340749225	-0.8700633825	 0.081825
H	-1.2667118724	-5.5964023659	 1.3552711152	 0.103012
H	-2.1349679264	-4.246007661	 2.1372352705	 0.097323
H	-4.6023629831	-4.3517234689	 0.0720386741	 0.101566
H	-3.9147465131	-5.7081896782	-0.864013715	 0.104439
