19
gdb 40106	2.9296	1.64357	1.21849	1.4313	81.34	-0.236	0.005	0.2409	1052.5596	0.160457	-385.838308	-385.830867	-385.829923	-385.870097	29.858	
C	-0.0755647026	 1.4588104004	-0.0299064382	-0.292889
C	 1.284914075	 0.8039680371	 0.0300068641	-0.33351
C	 0.0425882335	-0.0408312514	 0.0167233171	 0.318468
C	-0.4558087252	-0.8449902305	 1.2465975808	-0.328579
C	-1.6652318712	-1.5944566389	 0.6863233384	-0.20105
C	-1.5582186113	-1.6518163447	-0.6360172574	 0.190059
C	-2.2832918785	-1.3974892939	-1.933520417	-0.15315
O	-1.2952130152	-0.3609035769	-2.2305040348	-0.310147
C	-0.4019291908	-0.8776237534	-1.1771963643	 0.029248
H	-0.4374226892	 1.9694803923	 0.8568026892	 0.108069
H	-0.3969628624	 1.8980268219	-0.9675996917	 0.131402
H	 1.9029788997	 0.8210823799	-0.8621999495	 0.113576
H	 1.8432654928	 0.8744487652	 0.95818969	 0.1082
H	 0.3226863725	-1.5172786328	 1.6340754447	 0.110048
H	-0.7420011477	-0.1896066709	 2.0773773123	 0.107542
H	-2.5122312983	-1.8906570345	 1.2937388199	 0.099901
H	-2.2434137175	-2.2005086478	-2.6812573204	 0.106848
H	-3.3035046446	-1.0050980675	-1.8684917788	 0.120007
H	 0.420835211	-1.4292954738	-1.6528403443	 0.075956
