18
gdb 41383	2.72022	1.93384	1.33387	3.8377	75.5	-0.2429	0.0146	0.2575	970.377	0.150139	-401.909168	-401.902161	-401.901217	-401.940707	27.842	
C	-0.010869417	 1.613772642	 0.2675403587	-0.217976
C	 1.4403640352	 1.6622133381	-0.2917541624	-0.291105
C	 1.3420678092	 0.1558763673	-0.6475691707	 0.199399
C	 2.1363060085	-0.4693029629	-1.8264269052	-0.190255
O	 2.9734796722	-1.2335377658	-0.8638636425	-0.277806
C	 2.0627806049	-0.8976299272	 0.1049556812	 0.39607
N	 1.5677282126	-1.4904253849	 1.1008016908	-0.308139
C	 0.2549601464	-0.8132004984	 1.3010587903	-0.173206
C	-0.0653940304	 0.0788787863	 0.0274417144	-0.13335
H	-0.1373271055	 1.9271236317	 1.3066304991	 0.106259
H	-0.7183612609	 2.1742705125	-0.3478790772	 0.106489
H	 1.5561407865	 2.3042241312	-1.1689768926	 0.107807
H	 2.2248562078	 1.9179596398	 0.4254276343	 0.116411
H	 1.5975823566	-1.1638590503	-2.475733597	 0.131118
H	 2.7481099154	 0.2263631347	-2.4047142652	 0.125808
H	-0.4978796235	-1.5946540085	 1.4420769676	 0.115799
H	 0.2595359207	-0.2068909263	 2.2154430275	 0.107944
H	-0.9270745688	-0.2964016394	-0.5274347113	 0.078734
