13
gdb 133408	3.25877	1.37462	0.96804	4.9643	67.34	-0.2156	-0.0366	0.179	1088.8605	0.089693	-494.032364	-494.024856	-494.023912	-494.064292	28.462	
O	 0.0404997782	 1.3265554635	 0.0689784388	-0.421991
C	-0.0380495022	-0.0235091253	 0.007052456	 0.480744
C	-1.216377947	-0.6866088873	 0.0124682488	-0.268879
C	-1.2312609018	-2.1330586966	 0.0013580403	 0.197717
N	-2.3080695275	-2.8357179949	 0.0098477919	-0.553945
C	 0.1361100311	-2.6887271648	-0.0354806224	 0.283593
F	 0.2234384362	-4.0127320617	-0.0479236762	-0.059905
N	 1.2445980885	-2.053819901	-0.0421293933	-0.258731
N	 1.1585481004	-0.6956137706	-0.0604377951	-0.329992
H	 0.787504674	 1.6401231233	-0.4549555384	 0.30748
H	-2.1479753975	-0.1387939539	 0.0061991245	 0.131557
H	-2.0744404024	-3.8289144846	-0.0167605078	 0.218702
H	 2.01391154	-0.2367219361	 0.2111482228	 0.273649
