19
gdb 110282	2.37647	1.44741	1.23462	3.3045	77.27	-0.2348	0.0021	0.2369	1128.6524	0.158244	-419.149598	-419.140485	-419.139541	-419.183704	33.259	
C	-0.0734642932	 1.4521053077	-0.0346633906	-0.246376
O	 0.2588085378	 0.0904639176	 0.1576222743	-0.238044
C	 0.7211294894	-0.5551010546	-0.9973031347	 0.034368
C	 1.3046552017	-1.9471209489	-0.8142205576	-0.100708
C	 0.2977778809	-2.9934076143	-0.551362194	 0.014612
C	-0.9616076295	-2.8484016389	 0.2700653346	-0.416762
N	 0.421071631	-2.4994687159	-1.9584269801	-0.162175
C	-0.252220961	-1.2194688904	-1.9973366805	 0.32476
N	-1.2359488298	-0.9252676645	-2.7232764207	-0.512778
H	 0.7731265234	 2.0162087369	-0.4543658203	 0.113253
H	-0.9400909219	 1.5798231471	-0.6979508913	 0.113796
H	-0.3228299954	 1.8619834207	 0.9463836496	 0.13709
H	 1.4259842823	 0.0893984628	-1.5466237628	 0.099115
H	 2.3687764752	-2.1537572723	-0.8027740336	 0.10622
H	 0.7322707933	-3.9901330774	-0.4999385081	 0.108134
H	-1.3164446228	-1.8190250106	 0.3148329493	 0.144023
H	-1.7546517131	-3.4787767315	-0.1447693492	 0.134102
H	-0.7645357602	-3.1810139069	 1.294410849	 0.123518
H	-1.500699438	 0.0532596834	-2.6018978332	 0.223851
