17
gdb 67088	2.56309	1.73068	1.43428	2.3452	72.57	-0.2289	-0.0362	0.1927	962.0403	0.135052	-421.775803	-421.767858	-421.766914	-421.808716	30.187	
O	 0.4076391088	 1.346075193	-0.288520168	-0.455751
C	 0.1806481749	 0.0113509352	-0.1098422187	 0.376732
C	-0.0427449831	-1.0966885059	-1.0875838325	-0.12592
C	 1.1478607674	-1.9035383657	-0.5661369823	-0.292666
C	 0.9919095106	-1.0558161627	 0.7345473276	 0.150438
C	-0.3820396086	-1.5421106303	 1.3255278977	-0.269732
C	-1.0212954205	-0.8725805543	 0.1159624864	-0.15342
C	 2.098084477	-0.6816346064	 1.642045189	 0.030873
O	 2.240167623	 0.4509656555	 2.0529873917	-0.270036
H	 0.737098676	 1.6844356826	 0.5553224122	 0.302903
H	-0.4073648654	-1.0194270271	-2.1031627318	 0.098231
H	 1.0572619852	-2.9906680669	-0.4663462371	 0.097307
H	 2.0644162726	-1.6553344146	-1.1087242817	 0.114331
H	-0.4903020186	-2.6234825646	 1.4617980486	 0.099492
H	-0.6234314363	-1.0207078735	 2.2553573921	 0.115547
H	-2.0677040202	-0.6672785781	-0.0668643135	 0.096223
H	 2.8009024772	-1.4883505161	 1.9481169102	 0.08545
