20
gdb 83154	3.18924	1.2569	1.09322	3.0495	79.18	-0.2207	-0.0078	0.2128	1173.9411	0.172214	-403.15599	-403.147647	-403.146703	-403.188977	32.509	
C	-0.6464484101	 1.1727868865	 0.4084746287	-0.412991
C	-0.0908459084	-0.1824774787	 0.0374336652	-0.030895
C	 0.726956318	-0.4317008288	-1.2156278095	-0.057067
C	 1.225655125	 0.6864019702	-2.1248817857	-0.329626
C	 2.7477621176	 0.7808509133	-2.064853347	 0.403391
O	 3.445357751	 0.9441979376	-3.0361762528	-0.310143
C	 3.3536987894	 0.6288194073	-0.6642410464	-0.263519
N	 2.3063281427	 0.5821956061	 0.3488508427	-0.298007
C	 1.3871427781	-0.5041257115	 0.1449864333	-0.032225
H	 0.121010306	 1.9464531325	 0.3410811977	 0.133328
H	-1.4860497324	 1.4520876881	-0.2377250144	 0.115116
H	-1.0129436177	 1.1644069992	 1.4407578049	 0.11383
H	-0.7412789438	-1.0147083685	 0.29514175	 0.083989
H	 0.5539905435	-1.3762427109	-1.720648058	 0.093902
H	 0.9322643153	 0.5354924911	-3.1658005059	 0.121141
H	 0.8244843781	 1.6571607394	-1.8110227555	 0.13139
H	 4.0070952329	-0.2624550518	-0.6905929041	 0.109884
H	 4.005040117	 1.4915272597	-0.4878916606	 0.129591
H	 2.6814051508	 0.6063359746	 1.2880447568	 0.226949
H	 1.6708777171	-1.4884624554	 0.5237483205	 0.071963
