19
gdb 31805	4.6067	0.98921	0.87158	0.0868	86.9	-0.2385	-0.0432	0.1953	1392.126	0.160085	-382.138621	-382.12973	-382.128786	-382.173232	32.148	
C	 0.203793912	 1.5250761003	 0.201111289	-0.370358
C	-0.0962303716	 0.0416212597	-0.0682403139	-0.27176
C	 0.6456805739	-0.4848650894	-1.2703623623	 0.312629
C	 1.6731402613	-1.4275439953	-1.1644860198	-0.072897
N	 2.3466502298	-1.8889903692	-2.2156504379	-0.293869
C	 2.0014599744	-1.4100855992	-3.4172322885	 0.313849
C	 2.7503020184	-1.9203785108	-4.61735692	-0.471928
C	 0.9731869599	-0.4684425622	-3.5243289991	-0.066253
N	 0.3005472231	-0.0074523081	-2.4726057866	-0.292101
H	 1.2629712825	 1.6777246936	 0.4325997147	 0.116652
H	-0.0402646467	 2.125253228	-0.6794796336	 0.13843
H	-0.3850451244	 1.893779825	 1.0461690281	 0.113936
H	 0.1588691185	-0.5605788212	 0.8104680535	 0.102339
H	-1.1710899523	-0.0814012941	-0.2434690102	 0.119708
H	 1.9574090056	-1.8227987723	-0.1912893975	 0.106663
H	 2.6453425639	-3.0067589266	-4.7014277314	 0.142763
H	 2.3870282411	-1.4629450423	-5.540995544	 0.123133
H	 3.8198905519	-1.7086640972	-4.5202276583	 0.142664
H	 0.6849649787	-0.0778286187	-4.4981202922	 0.106401
