19
gdb 71128	2.84676	1.9151	1.60921	1.1846	72.72	-0.221	0.0835	0.3046	920.7254	0.161156	-423.031654	-423.024464	-423.02352	-423.062919	29.484	
C	 0.0179599257	 1.4954753557	 0.1466561875	-0.449781
C	 0.0166644051	-0.0079127756	-0.018343535	 0.424032
C	 0.5986603856	-0.5132238612	-1.3453742697	-0.224451
C	 0.541715479	-2.066521235	-1.3947646382	-0.232833
C	-0.069925977	-2.6289627395	-0.1218211252	-0.126524
C	 0.1943039985	-1.901532559	 1.1837684565	 0.041213
O	 0.7497249377	-0.6136808156	 1.0539482243	-0.29148
C	-1.1666608421	-1.8319750895	 0.5604622772	 0.041204
O	-1.3207977852	-0.5078519973	 0.1056250774	-0.29148
H	 1.0401688248	 1.8779641815	 0.0943420037	 0.127466
H	-0.5736526677	 1.960610493	-0.6455495399	 0.127451
H	-0.4126523819	 1.7573582954	 1.1151492326	 0.132708
H	 0.0253180186	-0.0731545216	-2.166344269	 0.104744
H	 1.628595748	-0.1552734832	-1.431870305	 0.10475
H	-0.0460607695	-2.3987937555	-2.2566080954	 0.10787
H	 1.5465856287	-2.4803856288	-1.5274603727	 0.107866
H	-0.1543811129	-3.7099276455	-0.0580199704	 0.08661
H	 0.4564713626	-2.3906480027	 2.1126048938	 0.105318
H	-2.080003148	-2.2609698955	 0.9509384276	 0.105317
