16
gdb 5932	3.19806	1.32224	1.17855	2.4185	62.08	-0.2505	-0.0444	0.2061	1049.8235	0.125547	-420.890678	-420.881293	-420.880349	-420.925758	32.157	
C	 0.3118629234	 1.6234831151	 0.2097727161	-0.413888
C	 0.0585549321	 0.1251570234	 0.0326463594	 0.22655
O	 0.6071728022	-0.5022009433	 1.1980536862	-0.453173
C	-1.4320076843	-0.2075534145	-0.1522359833	-0.310249
C	-2.2776374484	 0.1993784381	 1.0359489208	 0.151537
O	-3.2824598679	 0.8588883445	 0.958490501	-0.239842
C	 0.8850518557	-0.3811090571	-1.1564758786	 0.13187
O	 0.4411839937	-0.9182528231	-2.1360416186	-0.244472
H	 1.3848750407	 1.8209149304	 0.2846303608	 0.133631
H	-0.0967917842	 2.1893554544	-0.6315571485	 0.138891
H	-0.1610140813	 1.9750910614	 1.1309677719	 0.145629
H	 0.4706785853	-1.4544497708	 1.1262812873	 0.289892
H	-1.8265749689	 0.2635121772	-1.0551383047	 0.138777
H	-1.5305148461	-1.2944338868	-0.2872544766	 0.12213
H	-1.9046449452	-0.1674547634	 2.0167535416	 0.087409
H	 1.9790057332	-0.2404591455	-1.0031423348	 0.095309
