21
gdb 92474	2.54816	1.62511	1.59117	1.0201	76.66	-0.2397	0.0762	0.316	1004.1881	0.185462	-424.238351	-424.230622	-424.229678	-424.270405	30.987	
C	-0.1858692847	 1.5481703102	 0.0301951394	-0.415527
C	 0.0125016302	 0.0320123058	-0.0102780956	 0.046514
C	 0.8018923418	-0.4468657945	-1.2672181291	-0.23398
C	 1.9631987831	-1.3301763141	-0.7919812845	 0.081577
C	 2.889670455	-0.5172792413	 0.1132132197	-0.076417
O	 2.1280273302	 0.0490184304	 1.1867545446	-0.283906
C	 0.7990391054	-0.4801562355	 1.2113874338	 0.076388
C	 0.8660647654	-2.0073293515	 1.1826162785	-0.085304
O	 1.446877642	-2.4398129411	-0.0531676144	-0.282431
H	 0.7798639966	 2.0569195858	 0.1075909241	 0.130003
H	-0.6898906335	 1.9028257186	-0.87480038	 0.110556
H	-0.7926132992	 1.847542074	 0.8919307076	 0.109128
H	-0.9714403583	-0.4524950628	 0.0050405981	 0.072472
H	 0.162540624	-1.0183114539	-1.9452808981	 0.10443
H	 1.1942377489	 0.408374914	-1.8296969473	 0.095826
H	 2.5217943516	-1.75694679	-1.6290757833	 0.078013
H	 3.6769414758	-1.1657895568	 0.5214245436	 0.101079
H	 3.3683342453	 0.2979703217	-0.4447976202	 0.098761
H	 0.3550624503	-0.1342333247	 2.1495172946	 0.074783
H	 1.4750096165	-2.3700250059	 2.0220874583	 0.099655
H	-0.1375167364	-2.4440119984	 1.2714729103	 0.098379
