18
gdb 7698	3.42212	2.08628	1.86631	1.6929	66.47	-0.2421	0.0742	0.3163	804.4157	0.1542	-384.921038	-384.913878	-384.912934	-384.951741	29.007	
C	-0.0599084728	 1.5106525859	 0.0060758798	-0.468548
C	 0.0230257873	-0.0105252567	-0.0026558381	 0.425725
O	-1.2708967076	-0.6020511805	-0.0392444755	-0.487587
C	 1.0051985259	-0.5919032423	-1.0846831172	-0.280142
C	 1.9677352594	-1.3033593883	-0.1157078404	 0.078604
C	 1.0352161242	-2.0485988978	 0.8646290885	-0.235255
C	 0.7652552842	-0.5780448284	 1.2355889443	 0.055484
O	 2.1560538729	-0.2723329635	 0.9131204449	-0.30408
H	 0.9309827085	 1.9418487399	 0.1677395148	 0.139666
H	-0.4407570976	 1.8883641475	-0.9510399969	 0.104104
H	-0.7313092061	 1.8517290566	 0.800865728	 0.118461
H	-1.7749740594	-0.1751355175	-0.7392870412	 0.277611
H	 0.4892937522	-1.2732974112	-1.7661604104	 0.098229
H	 1.5160929932	 0.1822687231	-1.6622518155	 0.10192
H	 2.8967418316	-1.7241287964	-0.500338066	 0.077683
H	 0.2155174012	-2.6524411769	 0.4740568844	 0.113745
H	 1.5950335133	-2.5654609343	 1.6444718604	 0.107426
H	 0.4413801196	-0.2428378493	 2.220942196	 0.076953
