18
gdb 125919	4.38188	1.16372	0.95802	2.3593	81.39	-0.1923	0.0349	0.2272	1235.9956	0.149726	-398.121873	-398.113716	-398.112772	-398.154547	31.296	
C	-0.4931165705	 1.5965575435	-0.2685580225	-0.404155
C	 0.1427640405	 0.2536731949	 0.0335368772	 0.068885
C	 0.812131727	-0.5704224225	-1.143919532	-0.392188
C	 2.0713501729	-0.5225190338	-0.2924297727	 0.370775
C	 3.253618671	-0.9794539056	 0.2477860082	-0.459121
C	 3.265471477	-0.3473296782	 1.5357786809	 0.388748
N	 4.3149752567	-0.3733952098	 2.4531427811	-0.580923
N	 2.1702230372	 0.3842744601	 1.7887423224	-0.381198
N	 1.5053852145	 0.2958150916	 0.6100801156	 0.062344
H	 0.1761218918	 2.2162072111	-0.8727036784	 0.12815
H	-1.4309227817	 1.4561984744	-0.816125911	 0.121739
H	-0.7176765371	 2.1348194032	 0.6572679639	 0.138658
H	-0.5257373403	-0.376390664	 0.6310331056	 0.101247
H	 0.3853786203	-1.5643027406	-1.2963661231	 0.126453
H	 0.8536651792	-0.0435368576	-2.100894036	 0.121998
H	 4.0105285053	-1.61990121	-0.1732634078	 0.095956
H	 4.7779299819	-1.2703934244	 2.5074656716	 0.243209
H	 4.0154531143	-0.0669027924	 3.3699372871	 0.249423
