18
gdb 30144	3.82697	1.06819	1.02813	1.1334	78.65	-0.216	0.0125	0.2285	1221.4211	0.148511	-401.937775	-401.929729	-401.928785	-401.971005	30.367	
C	-0.2533205291	 1.5179558669	-0.1811749428	-0.312296
N	-0.1418675845	 0.0840640992	 0.0430182961	-0.084576
C	 1.1320867758	-0.5501463624	-0.2543034109	-0.258544
C	 0.6854077769	-0.410690654	 1.1637610745	-0.118632
C	 1.3764341072	 0.4751676113	 2.1285742321	 0.263769
C	 1.0898827432	 0.544019553	 3.4604203393	-0.101564
O	 1.896187748	 1.4353334102	 4.0916899259	-0.141252
C	 2.7210317714	 1.9545100865	 3.1457844438	 0.00371
C	 2.456875778	 1.4093464946	 1.9317327448	-0.300354
H	 0.6745357536	 2.0844477518	-0.0131231854	 0.104984
H	-0.5715372372	 1.6814759047	-1.2157821666	 0.12184
H	-1.0233171711	 1.9268078012	 0.4805511396	 0.124523
H	 1.0869156951	-1.5157338303	-0.7523426263	 0.114149
H	 1.9565107225	 0.0841427661	-0.578808064	 0.105426
H	 0.2377812326	-1.2839490303	 1.6342187839	 0.088737
H	 0.3730436286	 0.0339753093	 4.0830854364	 0.138474
H	 3.4323847962	 2.6850463388	 3.4937568519	 0.138134
H	 2.975610443	 1.6265624535	 1.0117673479	 0.113471
