21
gdb 79834	2.49587	1.64743	1.39611	1.2776	80.89	-0.2337	0.0739	0.3076	1049.391	0.183939	-387.070879	-387.062778	-387.061834	-387.102841	32.941	
C	-0.2707303893	 1.5487598324	 0.0321101985	-0.42292
C	 0.061940027	 0.0600400997	 0.0029003646	 0.044534
C	 0.6530838537	-0.6046236639	-1.2454592857	-0.141943
C	 2.1850162598	-0.4492625941	-1.3259060083	-0.117354
C	 2.8919412344	 0.6643746379	-0.5575515138	-0.236672
C	 2.4592936654	 0.4288070601	 0.9202696003	-0.213615
C	 1.2642670491	-0.5331529347	 0.8270971937	-0.135302
C	 1.5682186754	-1.4532666084	-0.4006398948	 0.383015
O	 1.7149610949	-2.8261602931	-0.4135180293	-0.467937
H	 0.5754141658	 2.1792306409	-0.2516009471	 0.116521
H	-1.088137916	 1.768006711	-0.6642582747	 0.112609
H	-0.599777883	 1.8581769179	 1.0309210545	 0.111199
H	-0.837262735	-0.5019498474	 0.2811216316	 0.076296
H	 0.1028961594	-0.8893333066	-2.1358926615	 0.081465
H	 2.6042428211	-0.8139509839	-2.2580656865	 0.080797
H	 3.9781441878	 0.5849208314	-0.6743873271	 0.092431
H	 2.6131747148	 1.6598422116	-0.9166040284	 0.102463
H	 3.2707515347	-0.0460433961	 1.4843752758	 0.089563
H	 2.2117684033	 1.359380534	 1.4402994642	 0.09686
H	 0.9946856289	-1.0164597721	 1.7667835535	 0.064836
H	 2.6312702078	-3.0366577767	-0.2022473495	 0.283151
