21
gdb 115110	2.65257	1.24034	1.00435	0.1711	79.38	-0.2431	0.0232	0.2663	1251.6536	0.183408	-424.235757	-424.226635	-424.225691	-424.269391	34.962	
O	-0.0215330851	 1.4146441367	-0.0875257004	-0.42871
C	 0.0344092491	-0.0029189326	 0.0181391483	-0.104452
C	-1.3921195704	-0.5402941047	 0.00860186	 0.020754
C	-2.1579115947	-0.1196840898	-1.2593582352	-0.257159
C	-3.4375535363	-0.8920105527	-1.4461050363	-0.064513
C	-3.7568546609	-1.9802261325	-0.7431882299	-0.067605
C	-2.8552222659	-2.5731890187	 0.3126793867	-0.286201
C	-1.4128437424	-2.0724920044	 0.1636413309	 0.104757
O	-0.7533935242	-2.7189987069	-0.9261350697	-0.446674
H	 0.8772461453	 1.7437389827	-0.1764592933	 0.286233
H	 0.5922457379	-0.4492863644	-0.8177109593	 0.100131
H	 0.53562895	-0.30911207	 0.9511956694	 0.080515
H	-1.913694846	-0.1182664284	 0.8785763662	 0.08011
H	-2.3640944957	 0.9544335738	-1.2217861526	 0.125953
H	-1.5141128146	-0.2523140826	-2.1426205285	 0.104141
H	-4.1234323595	-0.524369661	-2.2063346794	 0.085614
H	-4.7046913399	-2.4813910227	-0.9242503821	 0.086227
H	-3.2357790633	-2.3313886448	 1.3151662833	 0.110038
H	-2.8542991246	-3.6678016371	 0.2449476318	 0.108538
H	-0.8323179644	-2.3595682568	 1.0479990308	 0.077646
H	-1.3512239042	-2.683523873	-1.6817049608	 0.284657
