15
gdb 70783	3.9855	1.33123	1.12806	2.7191	72.94	-0.2353	0.0295	0.2648	1048.1699	0.110054	-420.491807	-420.484107	-420.483162	-420.523655	30.286	
O	-0.0494706653	 1.3322051932	 0.0943443489	-0.459266
C	 0.0678691437	-0.0320475769	 0.0711833595	 0.345015
C	 0.7931908453	-0.9760519832	 1.0548851291	-0.392223
C	 0.1044188198	-1.9522164415	 0.0675187414	 0.237043
C	 0.1138086603	-3.3776955487	 0.0601279076	 0.078201
C	 0.1282084874	-4.5806387349	 0.062608537	-0.364613
C	-1.1394632432	-0.9962895687	-0.1146568677	-0.001369
O	-1.0827119846	-1.0052630743	-1.5645903404	-0.315387
C	 0.3110852567	-0.9884413908	-1.1618254022	-0.035477
H	 0.8300407673	 1.7245086018	 0.0642879015	 0.292126
H	 1.8866485022	-0.9714688171	 1.035272408	 0.105363
H	 0.4212785898	-0.9926024643	 2.0822852442	 0.115129
H	 0.1368244464	-5.6424321534	 0.0593353414	 0.182204
H	-2.1070859588	-1.0264764623	 0.3844169631	 0.109381
H	 1.087864973	-1.0086470588	-1.9258594313	 0.103872
