18
gdb 42983	2.75517	1.69322	1.27285	3.3316	76.17	-0.231	-0.0164	0.2146	1018.9692	0.149269	-401.942015	-401.93453	-401.933585	-401.974025	29.652	
O	 0.0740839281	 0.0832365858	 0.3181824908	-0.353232
C	 0.0246239663	 1.269034397	 0.0900369579	 0.408291
C	-1.2118027051	 2.0736426667	-0.2028320108	-0.172328
N	-1.3057496206	 3.2429410795	 0.7265163435	-0.330509
C	-0.7796044779	 3.4341470503	-0.6285460401	-0.040365
C	 0.7438153789	 3.510558228	-0.6525041257	-0.316558
C	 1.1991314041	 2.2072106444	 0.0055215551	 0.230707
C	 2.2117924948	 2.1382041422	 1.1374943786	-0.283526
C	 2.5668123964	 1.5948653973	-0.2068590257	-0.306047
H	-2.1153391688	 1.5804713634	-0.5398900811	 0.105646
H	-2.2816984537	 3.5313391407	 0.7551690258	 0.239767
H	-1.3592925754	 4.0040328445	-1.3472358713	 0.095593
H	 1.0914790029	 3.5669629296	-1.6906463631	 0.107144
H	 1.1035707734	 4.4017831477	-0.1286389311	 0.113154
H	 2.6495716095	 3.0785666839	 1.4549028274	 0.117921
H	 2.0028382559	 1.4330784466	 1.9343203475	 0.134414
H	 2.5862018008	 0.5168388877	-0.3270050459	 0.136268
H	 3.2632829105	 2.1503356747	-0.8260231618	 0.113659
