19
gdb 24635	4.25536	1.10136	0.93991	0.4876	90.87	-0.2251	0.0023	0.2274	1275.6169	0.162416	-348.812162	-348.804709	-348.803765	-348.844408	29.737	
C	-0.1465006112	 1.4248269706	-0.2201148917	-0.266991
C	 1.2671000421	 1.014747387	 0.0690118306	-0.267037
C	 0.1695617573	-0.0322807451	 0.0591729228	-0.094576
C	-0.2812815885	-0.7054919207	 1.3077607867	 0.369379
C	-0.3412750647	-0.0446183678	 2.5418650337	-0.225583
C	-0.7679761907	-0.706201123	 3.6884394873	-0.087551
C	-1.1458065822	-2.0462330774	 3.630388765	-0.128449
C	-1.0914522157	-2.7158353701	 2.4114965645	-0.087517
C	-0.6638956719	-2.0508496341	 1.2655552979	-0.212502
H	-0.6914540576	 1.9688017018	 0.5438444056	 0.118682
H	-0.4099647605	 1.6988553674	-1.2357806038	 0.114288
H	 1.9817423828	 1.0049700694	-0.7466326987	 0.114283
H	 1.6929623728	 1.2772234695	 1.0314388204	 0.118681
H	 0.1581840751	-0.6837550825	-0.8091581904	 0.081806
H	-0.0521039734	 0.9995495064	 2.6126967915	 0.089248
H	-0.8054416721	-0.1717513823	 4.6324106093	 0.092097
H	-1.4784131422	-2.5610979077	 4.525351156	 0.092368
H	-1.3822733868	-3.7596597816	 2.3492022037	 0.092254
H	-0.6249327527	-2.5821043996	 0.3188995193	 0.087121
