20
gdb 70448	2.62958	1.498	1.24721	1.6969	78.76	-0.2181	0.0789	0.297	1099.8708	0.170156	-403.078172	-403.069657	-403.068713	-403.11134	32.759	
C	 0.5488004286	 1.5049115111	-0.4295776225	-0.506528
C	 0.3609109878	 0.0328089486	-0.23894392	 0.378348
O	-0.9201625694	-0.424725056	 0.2325304132	-0.284165
C	 0.2460466637	-0.7899814288	 0.9821276912	-0.038584
C	 0.8416395541	-2.0283312254	 0.3099458376	-0.270126
C	 1.0533277749	-1.1604536041	-0.9781866443	-0.013913
N	 0.6141811787	-1.7282802828	-2.2322292048	-0.086675
C	-0.7855074219	-1.608346241	-2.6357903802	-0.226214
C	 0.2772415418	-0.8262303937	-3.3287474568	-0.229846
H	 1.6087112682	 1.7456563682	-0.5613277694	 0.125273
H	 0.0101528261	 1.8649506831	-1.3130682176	 0.132111
H	 0.1704958278	 2.0530305586	 0.4382113459	 0.13279
H	 0.2730851893	-0.4906305876	 2.0238297834	 0.101733
H	 1.7769731987	-2.3844948908	 0.7463685842	 0.106358
H	 0.1422347265	-2.8599963838	 0.2029664992	 0.116508
H	 2.1173632488	-0.9190104083	-1.0861942225	 0.084263
H	-1.2010421889	-2.4922921085	-3.1124788484	 0.111487
H	-1.4659594765	-1.0735917835	-1.9826141955	 0.143817
H	 0.3056110419	 0.2458611587	-3.1454380489	 0.109466
H	 0.6339983298	-1.125317354	-4.3108068036	 0.1139
