16
gdb 47398	2.87122	1.58043	1.2154	2.9421	65.51	-0.257	0.0053	0.2622	1015.2219	0.125003	-475.00597	-474.998302	-474.997357	-475.038868	27.888	
N	 0.0844600209	 1.2925802986	 0.0701492944	-0.530172
C	 0.0605841842	 0.0376327256	 0.1668643911	 0.33506
O	 1.1386482678	-0.792505882	 0.2673229516	-0.241892
C	 0.6645576197	-2.1377032316	 0.2654700924	 0.004372
O	-0.7016180868	-2.0922572681	 0.585279767	-0.283421
C	-1.1832567055	-0.8177754978	 0.1982710365	 0.252034
C	-2.4111821473	-0.3307452973	 0.9868198945	-0.11363
O	-3.2301407739	-0.3169816095	-0.198057681	-0.266734
C	-2.1412019964	-0.7623954759	-1.024048936	-0.111787
H	 1.0402167649	 1.6495955396	 0.0568100189	 0.232618
H	 0.8379401436	-2.5716132707	-0.7313338668	 0.112185
H	 1.1985669715	-2.7094615621	 1.0291744306	 0.135097
H	-2.7594037418	-1.0523387227	 1.7343325582	 0.115562
H	-2.3008314504	 0.6646368751	 1.4283899455	 0.130335
H	-1.8768048053	-0.0288647721	-1.7932581332	 0.120437
H	-2.3270920652	-1.7444487491	-1.4752468135	 0.109938
