18
gdb 63107	2.20852	1.7054	1.21136	4.6956	77.9	-0.2553	-0.0056	0.2497	1081.87	0.14634	-401.923848	-401.915079	-401.914135	-401.956834	33.03	
C	 0.0038993273	 1.5382494217	-0.0170240224	-0.466018
C	 0.0120389076	 0.0237819545	-0.0534040657	 0.236536
C	-1.2257080354	-0.6371036825	 0.5283471281	-0.465889
C	 0.6384860791	-0.7634263499	-1.1904835753	-0.215071
C	 1.925889192	-0.1117292975	-1.6783129943	-0.116407
O	 2.4418889363	-0.0084299588	-0.3197263812	-0.315549
C	 1.3121428442	-0.7255616619	 0.1820583374	 0.309544
C	 1.5252912419	-1.7264731684	 1.1779723961	 0.231967
N	 1.6763369506	-2.5319194896	 1.9953661704	-0.355848
H	 0.9796057326	 1.9551207346	-0.2709795851	 0.143271
H	-0.74248443	 1.9363874474	-0.7129171298	 0.121688
H	-0.2555730362	 1.8888366333	 0.9872549738	 0.128653
H	-2.1144420903	-0.336745982	-0.0368022352	 0.126783
H	-1.1618482671	-1.7286224052	 0.4999357846	 0.134938
H	-1.3704763331	-0.3382806018	 1.5712291863	 0.136089
H	 0.1304499715	-1.5897862828	-1.669669435	 0.119363
H	 2.5560939895	-0.7829436788	-2.2702052119	 0.127981
H	 1.8519145997	 0.8638190877	-2.1692365708	 0.117968
