19
gdb 82989	3.72156	1.56542	1.45987	1.8972	73.6	-0.2259	0.0857	0.3116	965.1169	0.161839	-423.007921	-423.001082	-423.000138	-423.038822	28.263	
C	-0.1358890127	 1.5936834961	-0.0383562499	-0.42464
C	 0.0314887811	 0.0848856904	 0.0108929418	 0.011244
C	 1.1957281759	-0.5905167971	-0.7625575269	 0.025796
O	 2.3541932762	 0.1011033077	-0.2643278569	-0.280975
C	 2.2076431542	-0.139852359	 1.1581743946	 0.050539
C	 2.9955801485	-1.4204533517	 1.420706981	-0.073934
O	 2.2811167012	-2.3998082358	 0.6452176349	-0.282048
C	 1.0787975915	-1.7849728485	 0.2505979993	 0.137749
C	 0.7284577531	-0.6129644744	 1.2101376854	-0.13094
H	 0.8290960137	 2.0975838948	 0.0551105242	 0.13318
H	-0.5863959522	 1.9055842958	-0.9868603605	 0.115888
H	-0.7894333418	 1.943723073	 0.7678874922	 0.113786
H	-0.9137672837	-0.4261984937	-0.2013467204	 0.076895
H	 1.2502717503	-0.6844079677	-1.8461424513	 0.077928
H	 2.5012618761	 0.7382910591	 1.7341132962	 0.081844
H	 4.0224361825	-1.3410618679	 1.052435857	 0.116017
H	 3.0092989556	-1.7111239639	 2.4819748427	 0.089134
H	 0.3142498188	-2.5303280432	 0.0377004239	 0.089421
H	 0.2713286517	-0.7512864041	 2.1889813328	 0.073115
