20
gdb 7592	2.66348	1.68284	1.43155	2.0303	71.04	-0.2437	0.0706	0.3143	1004.8214	0.174097	-386.124656	-386.1151	-386.114156	-386.158126	35.946	
C	-0.322144363	 1.4143580969	 0.0734871364	-0.414866
C	 0.0897414267	-0.0551800248	-0.0991122178	 0.004132
C	 0.9607040412	-0.2567905276	-1.3478040194	-0.396583
C	 0.8089085309	-0.5688453983	 1.1417271283	 0.40094
O	 2.0306383853	 0.0638534406	 1.4341700607	-0.477399
C	 0.0052451836	-1.0803372045	 2.3259420111	-0.403438
C	 0.8145372489	-2.0282289389	 1.4580088116	 0.05478
O	 0.1656632023	-2.8854292272	 0.5648776999	-0.421285
H	 0.5563782379	 2.0644888167	 0.164496425	 0.106958
H	-0.8904506532	 1.7639563771	-0.7939474584	 0.114583
H	-0.9449783893	 1.5563975255	 0.9634711196	 0.109141
H	-0.8166914401	-0.6589004877	-0.2127312932	 0.082127
H	 1.9223471196	 0.2521255336	-1.2310216626	 0.120645
H	 1.1555441268	-1.3198442643	-1.5130447254	 0.130592
H	 0.4661261985	 0.1442707961	-2.2385112397	 0.099623
H	 1.8312605619	 0.9400064224	 1.7814793422	 0.282386
H	 0.3754313034	-0.8718829236	 3.3239895585	 0.109739
H	-1.0748320347	-1.1120653852	 2.2231009667	 0.110894
H	 1.7404668842	-2.4100646087	 1.8862901199	 0.097751
H	-0.2689206408	-3.5751164881	 1.0770151965	 0.28928
