12
gdb 21390	5.63447	2.33202	1.64937	1.8035	60.56	-0.2122	-0.001	0.2113	699.8823	0.088352	-373.725805	-373.720385	-373.719441	-373.755095	21.1	
N	 0.0251128762	 1.3198414211	 0.05565366	-0.357491
N	 1.2987456262	 1.8153673879	 0.0329321514	-0.201129
C	 2.0818769163	 0.7695056187	-0.0060626554	 0.010922
N	 1.3551300942	-0.3982557113	-0.0091887167	-0.023968
C	 1.3724085409	-1.7889884227	-0.0350435242	-0.166892
C	 0.0430898222	-2.1410272331	-0.0078296064	-0.076495
N	-0.8123217059	-1.0525314327	 0.0338490671	-0.399552
C	 0.0218277599	-0.0414601856	 0.0311806649	 0.515115
H	-0.7576025356	 1.9470371929	 0.088613652	 0.289953
H	 3.1569167653	 0.8235642891	-0.0322083903	 0.15976
H	 2.2821943142	-2.3609687556	-0.0689839343	 0.134826
H	-0.3541423539	-3.1455645986	-0.0160498781	 0.114951
