23
gdb 114965	2.92953	1.2471	1.00263	0.4346	91.97	-0.2199	0.0266	0.2465	1295.687	0.207286	-351.145493	-351.136814	-351.13587	-351.178772	34.193	
C	-0.030157616	 1.6724504919	-0.0029785762	-0.387949
C	-0.0372948512	 0.1405147041	-0.0310550702	-0.17192
C	 0.7259760335	-0.4620899626	-1.2212690557	-0.006749
C	 2.2864451694	-0.3049080205	-1.0707624419	-0.256432
C	 2.752615353	-1.6514320372	-0.5254450147	-0.242838
C	 1.8222905196	-2.5664698812	-0.7694093772	 0.325931
C	 1.1418290321	-3.8135375991	-0.2543415026	-0.32412
C	-0.1962379339	-2.9939291892	-0.3961229462	-0.244576
C	 0.5619845798	-2.0013076832	-1.3581088303	-0.05383
H	 0.9857494121	 2.0764863461	 0.0557468404	 0.117569
H	-0.4960415539	 2.0837106675	-0.9056509294	 0.112559
H	-0.5847777379	 2.0532269202	 0.8605428894	 0.109846
H	 0.3846699752	-0.2482142505	 0.9050748322	 0.096485
H	-1.0773822687	-0.2070174854	-0.0652895674	 0.093812
H	 0.3813499053	 0.0431355374	-2.1309570677	 0.058822
H	 2.7579696945	-0.0622897591	-2.0333987166	 0.099085
H	 2.549467976	 0.5153374581	-0.3924879022	 0.096986
H	 3.6697531633	-1.7749353151	 0.039380083	 0.08606
H	 1.1717771084	-4.6492174323	-0.962008021	 0.109386
H	 1.4233763594	-4.181546284	 0.7353553774	 0.107761
H	-1.0578500315	-3.5248230715	-0.8082353411	 0.0955
H	-0.4764966621	-2.5272172133	 0.5499540207	 0.109436
H	 0.3887697036	-2.2997026011	-2.3997137926	 0.069178
