17
gdb 100577	2.53339	1.04362	0.78659	2.6216	71.29	-0.2631	-0.0317	0.2315	1412.8839	0.13194	-458.933605	-458.923543	-458.922599	-458.969315	35.89	
O	 0.4663335801	 0.1848737145	 1.0278648078	-0.400685
C	-0.0454062222	 0.1299818867	-0.2926058777	-0.108621
C	-1.4787665183	-0.4530527073	-0.3925549982	 0.020994
O	-1.9703745949	-0.2162630107	-1.6815309662	-0.432589
C	-1.5034724388	-1.9595561083	-0.1028756535	 0.362025
O	-1.7596800327	-2.7205099296	-1.0078367701	-0.308612
C	-1.2041291896	-2.4098642023	 1.3225141345	-0.49984
C	-1.1051497244	-3.8483089015	 1.4976737753	 0.325817
C	-1.0156048472	-5.0352343409	 1.6525606841	-0.422075
H	 0.011709704	 0.8907498059	 1.4988863897	 0.292148
H	-0.0739061509	 1.119031846	-0.7663827792	 0.122828
H	 0.6436734341	-0.4932527428	-0.8711510855	 0.130104
H	-2.1070059878	 0.0587524764	 0.3567092966	 0.079265
H	-2.0896179069	-1.0983960383	-2.0725327714	 0.297448
H	-0.2932149195	-1.8904922538	 1.6484555772	 0.18683
H	-2.0013363605	-1.9962467433	 1.9581643395	 0.154342
H	-0.9374937844	-6.0861067707	 1.7829774172	 0.200621
