15
gdb 52478	5.46168	0.52068	0.49391	3.0856	91.58	-0.2402	-0.0509	0.1893	2163.6867	0.108772	-420.585022	-420.574862	-420.573918	-420.62381	33.762	
C	 0.0360435967	 1.4942041371	-0.0125556763	-0.518681
C	 0.0281563808	 0.043194662	-0.0033799616	 0.249386
C	 0.0194366727	-1.1670931213	 0.0047125641	-0.185435
C	 0.0078740345	-2.5257814117	 0.0139128823	-0.30286
C	-0.0064036009	-3.7367651349	 0.0239653756	 0.404629
C	-0.0040393177	-5.2012888595	 0.0107746666	-0.169329
O	-1.277000248	-5.7701901421	 0.1457175875	-0.404154
C	 0.6448938951	-5.6526018162	-1.3065597701	 0.145147
O	 0.0471380867	-6.3520366568	-2.0821915572	-0.247257
H	 0.971839484	 1.8865183277	 0.4010059431	 0.159966
H	-0.0704520598	 1.8850703428	-1.0306263847	 0.16014
H	-0.7880903221	 1.8954724442	 0.5878370505	 0.161808
H	 0.6505893362	-5.5590553285	 0.8253216402	 0.129075
H	-1.457581759	-6.1991644943	-0.7067919901	 0.298569
H	 1.6701545109	-5.2835959584	-1.4964000099	 0.118995
