14
gdb 4359	4.17317	1.83212	1.28323	1.1739	66.24	-0.2563	-0.0246	0.2317	899.3134	0.109262	-378.800302	-378.793489	-378.792545	-378.831578	25.189	
C	-0.0596841446	 1.5088905482	-0.0352318688	-0.467577
C	 0.0168254999	 0.009648212	 0.0315351423	 0.346028
N	 0.1490662409	-0.6388559989	-1.1445334526	-0.315832
C	 0.2161698535	-1.9608566786	-1.0798060321	 0.066483
N	 0.1679054387	-2.7247771223	 0.01612053	-0.352796
C	 0.0375327834	-2.0693658366	 1.1648100991	 0.450562
O	-0.0157657938	-2.7915988191	 2.2940679242	-0.407816
C	-0.0445433227	-0.676852755	 1.2349604822	-0.269985
H	 0.8411178686	 1.9082913155	-0.5117499917	 0.147435
H	-0.9079563076	 1.8126401715	-0.6566660826	 0.147433
H	-0.166179318	 1.9564590234	 0.9552891547	 0.122756
H	 0.322820549	-2.4910731102	-2.0236752217	 0.118914
H	 0.0571946569	-3.7188768312	 2.0246032146	 0.302516
H	-0.150456294	-0.1746784889	 2.1879681424	 0.111878
