17
gdb 46103	3.06978	1.12293	0.90073	4.9887	73.84	-0.2712	0.014	0.2852	1271.4964	0.137304	-418.048908	-418.040624	-418.03968	-418.082707	30.233	
N	 0.0889848758	 1.1727297374	 0.1716775315	-0.533048
C	 0.0567825016	-0.0810975808	 0.0597595363	 0.418884
C	-1.0137454555	-0.888657025	-0.6428502639	-0.304356
C	-0.7922270862	-2.3102841064	-0.1078553026	-0.255504
C	 0.7027493892	-2.2995866194	 0.2674100312	 0.105132
C	 1.6117384421	-2.8007300237	-0.8731809727	-0.355657
C	 3.0323074366	-2.7098960466	-0.5453802082	 0.271364
N	 4.1549372314	-2.6531806036	-0.2799009285	-0.296499
O	 1.0084372578	-0.9325009906	 0.568324177	-0.236517
H	 0.9261037343	 1.4712932373	 0.6749662211	 0.230197
H	-2.004049451	-0.4814064989	-0.4395837792	 0.146547
H	-0.8540631175	-0.828924918	-1.725029995	 0.136658
H	-1.3910346458	-2.4800004786	 0.7907753825	 0.127515
H	-1.0379717528	-3.0951916528	-0.8263276837	 0.116071
H	 0.9134874994	-2.8795538027	 1.1694655692	 0.115003
H	 1.3687082683	-3.8468574282	-1.0917798873	 0.156876
H	 1.4192121424	-2.2247692696	-1.7854543479	 0.157334
