20
gdb 75881	2.4038	1.54271	1.19653	3.6407	74.63	-0.2521	0.0248	0.2769	1112.4028	0.170909	-440.339733	-440.330538	-440.329594	-440.372988	35.42	
C	 0.4935372983	 1.3262373683	-0.0803577074	-0.421451
C	-0.0756879801	-0.1000921221	-0.0192138785	 0.243428
C	-1.6052947539	-0.0690275623	-0.0187580563	-0.447413
C	 0.4922425361	-0.9546762825	-1.1943341501	-0.2
N	 1.7585329798	-1.4560109825	-0.6718198578	-0.313666
C	 1.8643761694	-1.3633698629	 0.6771021151	 0.379082
O	 2.8273916267	-1.5957785714	 1.381994461	-0.402804
C	 0.513009926	-0.8629818563	 1.1934778921	 0.022192
O	 0.6671714526	-0.1148723638	 2.3678149722	-0.441018
H	 1.5848982581	 1.3217976818	-0.1652504507	 0.120381
H	 0.0873177187	 1.8607560214	-0.9452824355	 0.106443
H	 0.2358746074	 1.8776940606	 0.8257965448	 0.139657
H	-1.9923755401	 0.401413244	-0.9296332683	 0.112218
H	-2.0251476308	-1.0786162532	 0.0443286943	 0.112486
H	-1.9762461866	 0.5044402097	 0.8362594011	 0.134271
H	-0.1881977748	-1.7780094304	-1.4518893852	 0.106721
H	 0.6493879929	-0.3532409288	-2.0953322282	 0.11532
H	 2.5128028608	-1.7987493998	-1.2449418798	 0.256343
H	-0.112101149	-1.7548906218	 1.3835508776	 0.084097
H	 1.5326593085	-0.3746294082	 2.7207105594	 0.293714
