20
gdb 53521	5.57503	0.56136	0.54535	3.1856	86.4	-0.2289	-0.0262	0.2027	2040.1344	0.166658	-403.112966	-403.101811	-403.100867	-403.151649	37.437	
C	 0.0852904672	 1.5049689788	 0.0914761153	-0.499993
C	 0.0365034883	 0.0513469839	 0.0271092209	 0.136881
C	-0.0040121243	-1.1509785093	-0.0175168241	 0.015722
C	-0.026870338	-2.610233108	-0.0775444587	-0.307804
N	-1.384776815	-3.161886176	-0.1404075988	-0.06955
C	-2.0948792067	-2.749516894	-1.3457573395	-0.332071
C	-1.3940212362	-4.6043385927	 0.0190360689	-0.226503
C	-2.7751120552	-5.1060721929	 0.4143836607	 0.150624
O	-3.2077018197	-6.1946999528	 0.1431286542	-0.239058
H	 0.8823629499	 1.8439437149	 0.7622837875	 0.151014
H	 0.2713501615	 1.9449322057	-0.8943616032	 0.148665
H	-0.8583288175	 1.915744367	 0.4668048281	 0.151772
H	 0.5902385329	-2.9453887794	-0.9353571919	 0.107798
H	 0.4539149202	-3.0150950691	 0.8217961748	 0.128122
H	-1.6239209771	-3.1326636594	-2.2707189563	 0.097939
H	-3.1245880292	-3.1191089298	-1.3155454695	 0.125836
H	-2.1231552937	-1.6592731003	-1.3980395559	 0.13932
H	-1.0485222323	-5.1695837059	-0.8655891842	 0.1063
H	-0.7274690992	-4.8720749704	 0.8519170732	 0.125862
H	-3.353582826	-4.3694913903	 1.0171083486	 0.089122
