20
gdb 66688	2.45946	1.97984	1.57874	2.0318	81.71	-0.2108	0.0796	0.2903	966.4394	0.171475	-365.934535	-365.926791	-365.925847	-365.966185	31.193	
C	-0.0509017181	 1.4567215623	-0.0201246795	-0.522102
C	 0.0339488153	-0.0368270336	 0.0529230232	 0.285024
C	-0.5498184943	-1.1128986713	-0.8233971104	-0.141478
N	 0.5016156554	-2.0925166357	-0.3241451597	-0.181601
C	 1.2503970867	-0.9295399683	 0.3609397297	-0.055394
C	 1.0470143782	-1.5969934861	 1.7319801934	-0.25538
C	-0.2119542753	-2.1513576239	 1.0432915171	-0.055394
C	-1.0871972957	-0.9735645769	 0.5760538061	 0.285025
C	-2.4217743824	-0.5241922894	 1.0861430704	-0.522102
H	 0.6601110786	 1.8593685613	-0.7505954527	 0.123448
H	-1.0501431582	 1.7874815618	-0.3216716962	 0.121737
H	 0.1703605523	 1.9196805283	 0.949225821	 0.119948
H	-1.0065603225	-1.1152493099	-1.806476427	 0.088268
H	 2.2319526799	-0.646264268	-0.023348427	 0.069545
H	 1.7863297132	-2.3828645685	 1.9092264366	 0.110852
H	 0.9343592289	-0.9671224101	 2.6183925923	 0.094929
H	-0.6893599457	-3.0870688598	 1.3397744416	 0.069544
H	-2.3631218185	-0.197125956	 2.1313778783	 0.119949
H	-2.8132478288	 0.3143833283	 0.5010312505	 0.121737
H	-3.1600455092	-1.3324401847	 1.0318963821	 0.123448
