21
gdb 111577	3.22454	1.35897	1.25456	1.6509	81.11	-0.2343	0.0728	0.3071	1119.1891	0.183849	-387.045963	-387.038158	-387.037214	-387.078458	31.056	
C	-0.000377587	 1.6483485459	 0.0514163876	-0.383766
C	-0.0993822004	 0.1186952367	 0.017286562	-0.200728
C	 0.6984257145	-0.552189302	 1.1266104147	 0.031604
C	 0.6814206285	-2.1009496985	 1.3127248733	-0.096818
C	 1.0011959487	-2.8919150996	 0.0133634463	-0.24419
C	 2.4810976825	-2.4691365582	 0.1428233415	 0.113058
O	 2.6860489404	-1.0947432149	-0.2601307817	-0.306767
C	 2.2466537792	-0.6081857252	 1.0309108985	 0.089112
C	 2.2295266512	-2.0451249334	 1.618348148	-0.098305
H	 1.0377833606	 1.9802756823	-0.0565216302	 0.121635
H	-0.5774711294	 2.1018808786	-0.7602297726	 0.11191
H	-0.3810370841	 2.0514144186	 0.9968077319	 0.109787
H	-1.1516220827	-0.1857558332	 0.0947717458	 0.089835
H	 0.2637367122	-0.2465630762	-0.9492061157	 0.111055
H	 0.4493551359	-0.1030080738	 2.0984717052	 0.066795
H	-0.0683938169	-2.516484601	 1.9861400349	 0.064639
H	 0.9007882491	-3.968253759	 0.1913849721	 0.099333
H	 0.4818540979	-2.6319517311	-0.9127053719	 0.103221
H	 3.2710455495	-3.1243167185	-0.230315999	 0.074446
H	 2.8485344155	 0.2369405681	 1.3718178825	 0.071947
H	 2.7418257247	-2.4029015355	 2.5070412269	 0.0722
