19
gdb 5220	6.3042	1.03742	0.9521	1.8671	78.86	-0.1933	0.0489	0.2422	1270.3901	0.166931	-327.973997	-327.965737	-327.964793	-328.007476	30.514	
C	-0.1312800308	 1.5757655906	-0.0449620729	-0.37954
C	-0.1188321865	 0.045827731	-0.0737189678	-0.15147
C	 0.8255321014	-0.5245071855	-1.151358138	-0.308166
C	 0.8723305779	-2.0188575	-1.1974639757	 0.307739
C	 1.849640379	-2.9096766572	-0.8078538217	-0.226287
C	 1.3661135979	-4.2275483313	-1.0452571659	-0.13571
C	 0.1040685443	-4.1092073927	-1.5751915387	-0.100197
N	-0.1855077283	-2.7689268944	-1.6614538192	-0.282638
H	 0.8680661949	 1.9749251902	 0.1616424946	 0.11608
H	-0.4576519054	 1.9893147688	-1.0060762976	 0.111871
H	-0.807301139	 1.9552450305	 0.7274412989	 0.112776
H	 0.1848552174	-0.3476108494	 0.9034305052	 0.106295
H	-1.1363262703	-0.3284621614	-0.2462334125	 0.086992
H	 0.5313955373	-0.1201518762	-2.1313517502	 0.095503
H	 1.8416372977	-0.1580767288	-0.9678615277	 0.111097
H	 2.8107828635	-2.6374977299	-0.397577979	 0.083752
H	 1.8871864599	-5.1530223297	-0.85371861	 0.088222
H	-0.6060401972	-4.8531204912	-1.898924399	 0.109777
H	-1.0421878836	-2.3871889032	-2.0228327527	 0.253903
