21
gdb 119806	4.25019	0.75893	0.67827	2.8886	86.24	-0.2381	-0.0139	0.2242	1702.6276	0.181542	-387.136546	-387.127071	-387.126126	-387.171837	34.746	
C	-0.0242211636	 1.5828245854	-0.0849857168	-0.378658
C	-0.0046017091	 0.0538838767	-0.151530958	-0.162263
C	-1.3835648236	-0.5694215445	 0.1408466119	-0.2942
C	-1.3973837708	-2.068162356	 0.0936994451	 0.33395
C	-1.6521977101	-2.8931124044	 1.1160780407	-0.185142
C	-1.5962536757	-4.3478410442	 0.7427280483	-0.365425
C	-1.2690046129	-4.3106862835	-0.7592617578	 0.396146
O	-1.15005485	-5.2645784296	-1.4813978198	-0.302839
C	-1.1216529609	-2.8390831857	-1.1770131473	-0.421065
H	 0.9645489487	 2.0026831823	-0.2935129558	 0.114447
H	-0.7253484294	 2.0021748458	-0.8151785415	 0.115558
H	-0.3325641674	 1.9321800872	 0.9066278559	 0.115895
H	 0.3394544891	-0.2641193304	-1.1432576718	 0.101108
H	 0.723566073	-0.341467847	 0.5673022881	 0.10174
H	-1.7279642653	-0.235940491	 1.127441286	 0.099843
H	-2.1048787889	-0.1746386546	-0.5903684753	 0.100963
H	-1.8851498499	-2.5579076181	 2.1213609995	 0.091271
H	-0.8232230851	-4.9165851459	 1.2768784449	 0.135051
H	-2.5370182039	-4.8894077212	 0.9080115878	 0.134642
H	-1.8227633298	-2.6055925169	-1.989727523	 0.132656
H	-0.1181008545	-2.6720325544	-1.5893159813	 0.136323
