21
gdb 100277	1.83596	1.37736	1.13786	2.6764	74.74	-0.2393	-0.0131	0.2262	1247.0845	0.178325	-461.382959	-461.371831	-461.370887	-461.419181	40.013	
C	-0.0367685913	 1.488181614	 0.3895863057	-0.397729
C	-0.1172109216	-0.0037541828	 0.0594288918	-0.199956
C	 0.644977293	-0.3896563782	-1.2283189089	 0.262028
O	 1.9903367303	 0.0663916705	-1.1963417675	-0.478421
C	 0.6507360657	-1.9197514186	-1.4159502549	-0.12012
O	 1.4840540043	-2.446313925	-0.3867894442	-0.436037
C	-0.0571592698	 0.2119336329	-2.4593048794	 0.361538
C	 0.7639784421	 1.0664709943	-3.3962839369	-0.474801
O	-1.2286445447	-0.0310584465	-2.6492562858	-0.325281
H	 1.0044759996	 1.8142544436	 0.454423037	 0.127035
H	-0.5354313038	 2.0951395697	-0.3741493981	 0.118279
H	-0.5244712329	 1.6995218916	 1.3456445442	 0.111524
H	 0.2992773735	-0.5956726812	 0.8814026947	 0.10558
H	-1.1602075242	-0.3100769076	-0.0693251502	 0.115894
H	 2.4676879086	-0.5836582875	-0.6636076646	 0.287969
H	-0.3735989508	-2.3056038143	-1.3540647837	 0.118693
H	 1.058195104	-2.1648600988	-2.4072914584	 0.0954
H	 1.7075426386	-3.3550698282	-0.6049716435	 0.298293
H	 1.1629889015	 1.9320426412	-2.857665886	 0.153892
H	 1.6362378663	 0.5096952239	-3.7515557753	 0.145267
H	 0.1431082318	 1.3891173267	-4.232681116	 0.130952
