17
gdb 65648	3.74153	1.21075	1.13032	1.9866	68.88	-0.2507	-0.0439	0.2068	1097.1153	0.134874	-458.931418	-458.92347	-458.922525	-458.964195	30.146	
O	 0.1220108237	 1.5142912745	-0.3443807926	-0.474406
C	 0.0062744318	 0.1569504794	-0.0658719618	 0.326475
C	 0.1362498104	-0.2694631879	 1.4458476285	-0.308546
C	-1.2796483961	-0.8853920476	 1.3978486842	 0.122249
O	-2.2964920892	 0.0344721977	 1.8270351482	-0.288151
C	-2.513732611	 0.4999699668	 0.4692722925	-0.086332
C	-1.4422400831	-0.4536262869	-0.084789199	-0.155609
C	 0.9315990615	-0.6335672378	-0.9581899278	 0.10679
O	 1.6206643816	-0.1029313454	-1.796224832	-0.278654
H	 0.7454172245	 1.5832959125	-1.086182972	 0.293673
H	 0.9486643675	-0.9727270728	 1.6521873473	 0.106221
H	 0.2143549429	 0.5885398543	 2.1149414168	 0.136205
H	-1.4276103006	-1.8944387992	 1.7890203512	 0.081111
H	-3.5334562912	 0.2781732393	 0.1344062052	 0.104956
H	-2.3062070184	 1.5672503767	 0.348814777	 0.131498
H	-1.7187336655	-1.1076139814	-0.9117769669	 0.081975
H	 0.9403915313	-1.7326102424	-0.807314219	 0.100545
