19
gdb 124766	2.63764	1.42884	1.01109	1.7622	78.31	-0.2368	0.0137	0.2505	1197.2361	0.159945	-419.230849	-419.22172	-419.220776	-419.264829	33.601	
C	 0.9513613094	-1.027960624	-1.0661761911	-0.399879
C	 0.1252251749	-0.4699118747	 0.0917491297	 0.004519
O	 0.2754331149	 0.9533626539	 0.1978774901	-0.423418
C	-1.3246360822	-0.8598156269	 0.0101662831	 0.356318
C	-2.0524044873	-1.5017559005	-0.9785107719	-0.324872
C	-3.3682261143	-1.5521098012	-0.4829954931	-0.008225
N	-3.4628197761	-0.9862472807	 0.7175166452	-0.264167
N	-2.2137516306	-0.5691548949	 1.0027996458	-0.01654
C	-1.9468385547	 0.069584589	 2.2776139838	-0.340567
H	 1.9869333048	-0.6950148712	-0.965910983	 0.1268
H	 0.9302929788	-2.1215816116	-1.0754516272	 0.126878
H	 0.5671473991	-0.6709623854	-2.0279195567	 0.117125
H	 0.5480981869	-0.8427266289	 1.0331744047	 0.10034
H	-0.1829598707	 1.3443110377	-0.5551957944	 0.281854
H	-1.681175248	-1.879119008	-1.9172899492	 0.102786
H	-4.2493835123	-1.9688335994	-0.9483867768	 0.109665
H	-1.5313252743	-0.6436707888	 2.9987801933	 0.134241
H	-1.2419193589	 0.8890709573	 2.13155592	 0.162013
H	-2.8943562394	 0.4466727285	 2.6613662578	 0.15513
