21
gdb 67288	2.99585	1.56926	1.30533	0.225	87.8	-0.2528	0.0917	0.3445	1071.7968	0.182571	-349.867457	-349.859595	-349.858651	-349.89926	32.259	
C	-0.0433295169	 1.4741967437	 0.0051056378	-0.530446
C	-0.0487508111	-0.0288633408	-0.0053442111	 0.26637
C	 0.8404135081	-0.9861311411	-0.8949169037	-0.068378
C	 1.9881387819	-0.9992338807	 0.1335363823	-0.291056
C	 0.7059849682	-0.9987234376	 0.9886664227	-0.068379
C	-0.0519222956	-1.9345532291	-0.018314873	-0.146131
C	-1.2395877084	-0.985795962	-0.0967451499	 0.377626
C	-2.5732502581	-0.9883710836	 0.57321323	-0.356332
C	-2.4644779395	-0.9781773969	-0.9494576125	-0.35632
H	 0.976470658	 1.8670257556	 0.0800346041	 0.122606
H	-0.489386618	 1.8768001393	-0.9114034702	 0.120452
H	-0.6146124742	 1.8649861033	 0.854789411	 0.120454
H	 0.885607457	-0.9806993599	-1.9855409927	 0.066705
H	 2.6021752159	-1.904777499	 0.1713012013	 0.089635
H	 2.6227701504	-0.1084987945	 0.1847843875	 0.089874
H	 0.5958489819	-1.0078393311	 2.0746315277	 0.066703
H	-0.0303607147	-3.025359902	-0.0240690541	 0.065506
H	-2.917508251	-1.9012972388	 1.049677485	 0.108568
H	-2.9175979049	-0.0801041795	 1.0589955864	 0.106988
H	-2.7371416114	-0.0631868333	-1.4671018894	 0.106987
H	-2.7366487574	-1.8843469521	-1.4821339594	 0.108567
