12
gdb 43552	2.53337	1.53214	1.09476	2.3061	60.15	-0.3014	-0.0444	0.257	1035.0006	0.076465	-472.61568	-472.608202	-472.607258	-472.648193	26.495	
O	-0.0170449161	 0.073258504	-0.6455450502	-0.30332
C	 0.0410511762	 1.1480785356	-0.1585835044	 0.435843
O	-0.9698427717	 1.8622172711	 0.474431688	-0.256786
C	-0.1326201649	 3.0419534641	 0.6735336838	-0.086121
C	-0.0294085642	 3.4332677282	 2.0721905987	 0.2942
N	 0.0921618205	 3.7624373104	 3.1727128278	-0.303799
C	 1.0519234657	 2.2608843669	 0.0686400145	 0.210078
C	 2.4719657383	 2.2079480805	 0.415507991	-0.239387
O	 1.9976919064	 2.7395362461	-0.8327725006	-0.234921
H	-0.47932629	 3.8744427026	 0.0565760922	 0.166582
H	 2.8671368875	 2.939850677	 1.1163405926	 0.158049
H	 2.9962995124	 1.2581184135	 0.3468964066	 0.159583
