15
gdb 49034	2.6172	1.41067	1.10028	1.652	74.15	-0.2504	-0.0435	0.2069	1095.8898	0.110159	-420.551526	-420.543335	-420.542391	-420.584478	30.134	
O	-0.2329925676	 0.2206674414	-0.6329627766	-0.269678
C	 0.0498456072	 1.0654261241	 0.1851038805	 0.060901
C	 1.268730056	 1.8845246639	 0.1408337732	 0.136278
C	 1.6756976219	 3.0340132905	 1.057848547	-0.155186
O	 2.1389835975	 3.8319405698	-0.0692175009	-0.269198
C	 1.734362695	 2.832803818	-0.9779721091	 0.075078
C	 2.4448253117	 1.5302382774	-0.7858108938	-0.320835
C	 3.7872787764	 1.4346965548	-0.2941540387	 0.331722
C	 4.9101967906	 1.3510783481	 0.1267962095	-0.410519
H	-0.6302690643	 1.2956137222	 1.0356210189	 0.078909
H	 0.8219908186	 3.5228762607	 1.539396123	 0.122282
H	 2.4720991599	 2.8411662909	 1.7822201231	 0.132347
H	 1.2407389105	 3.128939747	-1.8970337817	 0.134763
H	 2.1313258005	 0.7708042187	-1.4988890177	 0.150943
H	 5.907681556	 1.2798180025	 0.4842616132	 0.202194
