22
gdb 9412	5.83791	0.68028	0.6383	2.6318	75.34	-0.2622	0.0769	0.3391	1754.1957	0.197979	-387.33526	-387.324546	-387.323601	-387.371631	37.297	
C	-0.0694510651	 1.5889585563	-0.0957542874	-0.390859
C	 0.0249211287	 0.0595255764	-0.0196144186	 0.03906
C	 0.7243892308	-0.5010604769	-1.2596845143	-0.078651
O	-0.0385434532	-0.1549632474	-2.4072895095	-0.423714
C	 0.7362659822	-0.4369827623	 1.2512055875	-0.193985
C	 0.0134919871	-0.0941437032	 2.5580904829	-0.174435
C	 0.6986755231	-0.6913390246	 3.7803184259	-0.07249
O	-0.037045113	-0.3015907604	 4.9306703889	-0.421789
H	 0.9267125224	 2.0436967517	-0.0220320613	 0.102697
H	-0.5087005793	 1.892255948	-1.0485576897	 0.132887
H	-0.6839019395	 1.9990037799	 0.7102770331	 0.113903
H	-0.9950622682	-0.3502483214	-0.0252867111	 0.081333
H	 1.7457160547	-0.0882897728	-1.3231234452	 0.079772
H	 0.818046124	-1.5952236824	-1.1667518654	 0.079737
H	 0.4440866774	-0.4408874858	-3.1877735671	 0.28563
H	 0.8535186544	-1.528016837	 1.1872833015	 0.088021
H	 1.7548875197	-0.0229498896	 1.2777445641	 0.09045
H	-0.045292738	 0.9904383577	 2.6984398329	 0.110683
H	-1.0195169055	-0.4622592488	 2.525141655	 0.104334
H	 0.7380818496	-1.7893678128	 3.6857361336	 0.081539
H	 1.7406322612	-0.3338979451	 3.8340399105	 0.081692
H	 0.3929848264	-0.6770387896	 5.7043000038	 0.284187
