17
gdb 126336	2.90958	1.41485	1.02403	4.7508	80.72	-0.2203	-0.0517	0.1686	1156.9177	0.137438	-414.172517	-414.164243	-414.163298	-414.205711	30.851	
C	-0.1582560378	 1.5624244524	 0.0058086751	-0.376331
C	 0.075366331	 0.0410322482	 0.0379975641	-0.283055
C	 0.7512828495	-0.4784431442	-1.1976522521	 0.220527
C	 2.0286061343	-0.9074758813	-1.2153150315	-0.046619
N	 2.585361324	-1.361580752	-2.3858968714	-0.247886
N	 1.9276766563	-1.4193417026	-3.5636770511	-0.034253
N	 0.7260136749	-1.0415363811	-3.6124714357	-0.262725
C	 0.0253340538	-0.5472187778	-2.4642188367	 0.309559
N	-1.199785428	-0.1893583053	-2.566952378	-0.520656
H	 0.7899031494	 2.1049380205	-0.0674600421	 0.10758
H	-0.7817248574	 1.8301362094	-0.8491708054	 0.156463
H	-0.665143853	 1.8862922126	 0.9196891628	 0.113731
H	 0.6734331136	-0.2271758764	 0.9170036016	 0.09086
H	-0.894535782	-0.4601635698	 0.1300532724	 0.13304
H	 2.6758724169	-0.9237779284	-0.3456506341	 0.137494
H	 3.5353914686	-1.6890142152	-2.4423537259	 0.281355
H	-1.5039266243	-0.3306927091	-3.532857682	 0.220918
