15
gdb 46006	4.75846	1.021	0.87202	1.9743	76.2	-0.2734	-0.0597	0.2137	1251.0827	0.113811	-416.839454	-416.831492	-416.830548	-416.872982	28.684	
N	-0.1299597673	 1.3214037899	-0.2803907109	-0.506686
C	-0.0092157892	 0.1160257744	 0.0790929438	 0.395567
C	-1.1760455736	-0.8422290547	-0.0480564516	-0.347771
C	-1.1318482164	-1.9654942529	 0.9410026553	-0.138531
C	 0.0467455058	-2.4060732663	 1.3926859561	 0.138722
C	 1.319423595	-1.7432609654	 0.9144091765	-0.167123
O	 1.1516960627	-0.358946218	 0.6129973037	-0.241908
C	 0.1715743318	-3.5034852454	 2.2921425286	 0.218831
N	 0.3143386525	-4.3960432012	 3.0165711203	-0.323196
H	 0.7469280726	 1.8261654162	-0.1377360155	 0.226191
H	-2.0950018644	-0.2592166201	 0.0303989824	 0.161822
H	-1.173116628	-1.2609040917	-1.0666263753	 0.158296
H	-2.0608815636	-2.424011402	 1.2611942183	 0.134399
H	 2.0931841166	-1.785972324	 1.6843085608	 0.152131
H	 1.7062615354	-2.2657884488	 0.0274849276	 0.139257
