16
gdb 87340	2.08243	1.49274	1.05238	7.3829	71.57	-0.2564	0.0135	0.2699	1155.9716	0.124119	-434.077236	-434.06814	-434.067196	-434.111662	32.658	
N	-0.2536589754	 1.4054433084	 0.0899748413	-0.519381
C	-0.1124077111	-0.0236661803	 0.1060120153	-0.070514
C	-0.7335839157	-0.8069947027	 1.2193196068	-0.305448
C	-1.3919302378	-0.8379748166	-0.1544349744	 0.216342
N	-2.5786035596	-0.0701869369	-0.3535503008	-0.341474
C	-3.8052462405	-0.5045556935	 0.0632410645	 0.143195
O	-4.0289998698	-1.6016692357	 0.5194582115	-0.30464
C	-1.2605555489	-2.0333053811	-0.952540098	 0.279434
N	-1.1034084845	-2.9807394612	-1.5966175412	-0.346869
H	 0.1546216574	 1.8248223893	 0.918031059	 0.250729
H	 0.2070626245	 1.8072594896	-0.7188133519	 0.249481
H	 0.7830029275	-0.4543413443	-0.3372043482	 0.119752
H	-0.227120666	-1.6997630751	 1.5648512796	 0.149405
H	-1.2918957303	-0.2638360051	 1.9729025778	 0.140334
H	-2.4281103567	 0.9127656724	-0.5405586195	 0.256662
H	-4.5831349931	 0.269946603	-0.0864798418	 0.082993
