15
gdb 30501	4.14649	1.15318	0.90735	2.6708	75.67	-0.2156	-0.0452	0.1704	1222.2441	0.11279	-453.9841	-453.975906	-453.974962	-454.018144	29.446	
C	 0.0027832163	 1.4592432038	 0.0501011532	-0.320524
N	-0.009952249	 0.0096170946	-0.0215919028	-0.323334
C	 0.5364901346	-0.6731649277	 0.8862970218	 0.42072
O	 1.1695773336	-0.0056545565	 1.9884178723	-0.228464
C	 1.7497959184	-0.7154484806	 2.9528451528	 0.143943
N	 1.8246923049	-1.9892078901	 3.0365846388	-0.365805
C	 1.2312718206	-2.6972494518	 2.0006868386	 0.432393
O	 1.3237191726	-4.0309288297	 2.1122552088	-0.408215
C	 0.6064622735	-2.1070717095	 0.956076062	-0.296636
H	 1.0234830381	 1.8655527426	 0.0591567775	 0.118189
H	-0.5166320875	 1.8621246853	-0.8224724529	 0.12171
H	-0.5001244173	 1.8347186723	 0.9518249625	 0.118202
H	 2.1857313483	-0.0785769252	 3.7179478306	 0.150007
H	 1.8073582384	-4.2071311657	 2.9304932382	 0.306373
H	 0.1509592044	-2.6777101817	 0.1599923185	 0.13144
