21
gdb 41847	2.26923	2.0034	1.59274	1.1761	81.87	-0.2319	0.0244	0.2563	968.115	0.187184	-387.116244	-387.109229	-387.108285	-387.147147	29.83	
C	-0.0156293815	 1.3538964211	-0.1168359918	-0.064081
C	 1.371965572	 1.9882177298	 0.0185647766	-0.215118
C	 2.1115424915	 1.4098798263	 1.2519966159	-0.050024
C	 2.1516399112	-0.1204221793	 1.096395926	-0.226177
C	 0.7022351237	-0.6157215293	 1.0719005437	 0.11311
C	 0.0043175115	-0.3095971234	 2.4157415081	-0.27379
C	 0.4452111562	 0.984403566	 3.0526733196	-0.04983
C	 1.3977530491	 1.7626802265	 2.5381269108	-0.067049
O	 0.0177963728	-0.0674194079	-0.0567118255	-0.27205
H	-0.6838244128	 1.7541187369	 0.6595278229	 0.095199
H	-0.4584350005	 1.5947209022	-1.0881453982	 0.102543
H	 1.9640667116	 1.7767731251	-0.8802300346	 0.098148
H	 1.2662427456	 3.0766236004	 0.0951948171	 0.092009
H	 3.1288697665	 1.8154577576	 1.2759703082	 0.065095
H	 2.6501092166	-0.4031758347	 0.1632307302	 0.094235
H	 2.6951141462	-0.5803074754	 1.9288955826	 0.093544
H	 0.6650423948	-1.6950999237	 0.8959717906	 0.075785
H	-1.0810502752	-0.30730924	 2.2510301439	 0.116397
H	 0.19286409	-1.1386722801	 3.1131078604	 0.10693
H	-0.0502473421	 1.2661151081	 3.9793721538	 0.083319
H	 1.6654786627	 2.6961758541	 3.0270377096	 0.081805
