22
gdb 96499	2.11697	1.54265	1.15233	3.7238	82.09	-0.2316	0.0337	0.2653	1183.1709	0.197045	-404.401863	-404.392942	-404.391998	-404.435294	34.545	
C	-0.1656065888	 1.5198370134	 0.0578874787	-0.412802
C	 0.0038566675	-0.0107042877	 0.0014201981	-0.057247
C	 0.4971440318	-0.5368418327	-1.3637648283	-0.218253
C	 1.8137740803	 0.0281325983	-1.9130339659	-0.192912
C	 3.0593466664	-0.3193345047	-1.0913141928	-0.179603
C	 3.0573412658	 0.2574426295	 0.3284044483	-0.162112
N	 2.1415980525	-0.394848764	 1.2542374345	-0.291546
C	 0.7783515292	-0.5249901558	 1.2204015238	 0.357326
O	 0.1912559857	-1.0406988463	 2.1577716884	-0.376648
H	 0.7810420458	 2.0598696058	-0.0306955231	 0.119556
H	-0.8146298651	 1.8576668486	-0.7571464052	 0.116439
H	-0.629923309	 1.8138360938	 1.0034597601	 0.133389
H	-0.9873959781	-0.4444000862	 0.1612536566	 0.104137
H	 0.5711220326	-1.6307827635	-1.3084408929	 0.103352
H	-0.2946393087	-0.3241717773	-2.0929047077	 0.098051
H	 1.9489305249	-0.3514682007	-2.9326446754	 0.097794
H	 1.7403103926	 1.1193458709	-2.0082431186	 0.097601
H	 3.1800141188	-1.4081773153	-1.0278676422	 0.102491
H	 3.9453609639	 0.0694982696	-1.6081034897	 0.096564
H	 4.0546400268	 0.1383099048	 0.7612589969	 0.11123
H	 2.8719928932	 1.340580768	 0.2837211301	 0.110751
H	 2.528538152	-0.7364166785	 2.1215116163	 0.242442
