15
gdb 6659	6.95694	0.83686	0.76524	4.379	65.09	-0.2501	0.0171	0.2672	1409.2802	0.115495	-399.77244	-399.763124	-399.76218	-399.807993	31.594	
N	-0.0996940985	 1.3094006136	-0.17155675	-0.524764
C	 0.038743194	-0.0004481843	 0.2032533963	 0.375249
O	 1.0748858138	-0.4681902338	 0.6137891386	-0.324672
C	-1.2726340957	-0.7937143694	 0.1372211901	-0.144985
O	-0.9719464946	-2.1529918066	-0.0027375764	-0.219575
C	-2.1264859548	-2.9675008936	 0.0776989227	-0.202114
C	-1.7600767475	-4.3673942285	-0.0843757098	 0.281984
C	-1.4910773792	-5.5298419616	-0.2160263837	-0.407961
H	 0.7350396088	 1.8734667213	-0.1884857983	 0.264123
H	-0.8908099054	 1.6265269046	-0.7050283526	 0.257096
H	-1.8297191383	-0.5973132453	 1.0708471609	 0.117058
H	-1.9058815093	-0.4341489098	-0.6933790949	 0.088037
H	-2.6304144728	-2.8233375252	 1.0491112069	 0.121205
H	-2.8564227153	-2.6841663057	-0.7007028913	 0.116767
H	-1.2410126552	-6.5555278155	-0.3311021485	 0.20255
