19
gdb 114930	4.26329	0.89676	0.81567	1.6053	88.39	-0.2253	-0.0143	0.211	1447.4729	0.157826	-385.865369	-385.856203	-385.855259	-385.899692	33.994	
C	-0.1006815153	 1.4072096019	-0.1112816569	-0.237327
O	-0.0377091752	 0.0287585753	 0.1667857822	-0.243149
C	-1.2871878189	-0.6385224482	 0.0827908894	 0.118656
C	-1.6870320695	-0.9479747993	-1.3889099331	-0.273655
C	-1.2984874412	-2.3888390749	-1.5723203088	-0.169292
C	-0.9842681052	-2.9849639492	-0.4126396051	 0.217562
C	-1.111686599	-2.0185147018	 0.7528463057	-0.340202
C	-0.6062395449	-4.3363369222	-0.2297283153	 0.188083
C	-0.2807057622	-5.4780718919	-0.0218115392	-0.412658
H	 0.9042545807	 1.8114470876	 0.033258537	 0.128727
H	-0.4146781101	 1.6197720472	-1.1445221791	 0.103617
H	-0.7944875508	 1.9265107955	 0.5692507728	 0.103157
H	-2.0522628109	-0.0330361362	 0.5897792343	 0.0597
H	-2.7642780295	-0.8047322181	-1.553773626	 0.110307
H	-1.1761140904	-0.2778014226	-2.0895042575	 0.114515
H	-1.2951792538	-2.8840588359	-2.5360214261	 0.099081
H	-0.2283467246	-2.0108005444	 1.397306349	 0.130152
H	-1.97222979	-2.2800615465	 1.3800952755	 0.1131
H	 0.0066266407	-6.4864815164	 0.1442242912	 0.189624
