17
gdb 116827	14.43694	0.37689	0.36982	5.0526	104.62	-0.2553	-0.0789	0.1764	2837.7537	0.13308	-384.658589	-384.648144	-384.647199	-384.69681	34.501	
C	-0.0277745171	 1.5797067569	 0.0273976911	-0.382876
C	-0.0060440647	 0.0503511482	 0.0180092153	-0.161678
C	 0.7039937001	-0.512130393	-1.2328588314	-0.376864
C	 0.7432056735	-1.9634378612	-1.2749804598	 0.224355
C	 0.7665537742	-3.1754661255	-1.2939509468	-0.093517
C	 0.7940382116	-4.5289615891	-1.3176377974	-0.168086
C	 0.8199488424	-5.7438729955	-1.3414477169	 0.233591
C	 0.8299725027	-7.1801673168	-1.3335545992	-0.037315
O	 1.329424349	-7.8686838739	-2.195680716	-0.224331
H	 0.9869109437	 1.9926224652	 0.0197013414	 0.120595
H	-0.5546376717	 1.9760513804	-0.8475147334	 0.120592
H	-0.5340740236	 1.9575297126	 0.9201734996	 0.121774
H	 0.5019109694	-0.3272412859	 0.9119258805	 0.117266
H	-1.0274545214	-0.34371446	 0.0512469909	 0.117262
H	 0.2040684145	-0.1421697123	-2.1387125781	 0.143879
H	 1.7315688787	-0.1257426586	-1.2790534679	 0.143853
H	 0.3303904588	-7.6293269913	-0.4511213818	 0.101502
