18
gdb 47058	3.54007	1.37877	1.09667	3.7609	72.66	-0.2332	0.0284	0.2616	1098.3555	0.150072	-439.109546	-439.102054	-439.10111	-439.141702	29.286	
O	-0.0119603504	-0.068630224	-0.300723314	-0.370643
C	 0.003865819	 1.1337832912	-0.1196304542	 0.376053
C	-1.2863483787	 1.9511289094	-0.0407709487	-0.197329
O	-1.1559105444	 3.1739111515	 0.6606555019	-0.259224
C	-0.1606941752	 4.0013155968	 0.0944067702	 0.108529
C	 0.3532549718	 4.9785072701	 1.1727780834	-0.244001
C	 1.4801876664	 3.9623740136	 1.515401949	-0.245285
C	 1.2176580822	 3.2933218886	 0.1306126729	 0.034746
N	 1.1537132368	 1.8575553288	 0.0056777484	-0.321546
H	-1.6515418226	 2.1156661998	-1.068402884	 0.116046
H	-2.0281742835	 1.3485681098	 0.485883218	 0.143912
H	-0.4950054544	 4.4030221105	-0.8729765002	 0.067984
H	 0.7357314491	 5.903447921	 0.7346744586	 0.108651
H	-0.3676469933	 5.2183390218	 1.9550802384	 0.12173
H	 2.4824946104	 4.3540753435	 1.6982083244	 0.101876
H	 1.1939666464	 3.2968640653	 2.3316442192	 0.121704
H	 1.8863968201	 3.7097549255	-0.631200559	 0.08984
H	 2.0065327203	 1.3169095368	-0.0347294543	 0.246957
