12
gdb 5344	6.05518	1.60913	1.27129	0.0381	73.11	-0.2552	-0.0642	0.191	877.5856	0.085425	-340.395788	-340.389546	-340.388602	-340.426167	23.373	
C	 0.0329068557	-1.1924185349	-0.0037235734	-0.366699
C	-0.0228613871	 0.0094768705	 0.0033307155	 0.236229
C	-0.0403805046	 1.436410002	 0.011020421	 0.156756
N	-1.2266393427	 2.0675965598	 0.0301554367	-0.293091
C	-1.1851655548	 3.3975831285	 0.0365198603	-0.021605
C	 0.0144054484	 4.1072553868	 0.024174656	-0.002708
N	 1.1971713083	 3.4883278016	 0.0051402123	-0.230278
C	 1.1651228243	 2.1592490684	-0.0013454504	-0.052513
H	 0.0666300643	-2.2541694851	-0.0097603789	 0.204096
H	-2.1396623982	 3.9176399431	 0.0519922389	 0.12029
H	 0.0225611668	 5.1937680967	 0.0297170489	 0.122771
H	 2.1158265796	 1.6340311424	-0.0167987469	 0.12675
