19
gdb 71855	3.20632	1.59874	1.30002	1.227	79.09	-0.2324	0.0241	0.2565	1010.7886	0.161282	-385.868756	-385.861428	-385.860484	-385.900028	30.318	
O	-0.1663920419	 1.4584118522	-0.0438362006	-0.465392
C	-0.0228913917	 0.0792941951	-0.0505475374	 0.380541
C	 0.7462925821	-0.6838364865	-1.1285902487	-0.309108
C	-0.3121702537	-1.8489425949	-1.0031712708	-0.065156
C	 0.2087415599	-3.1023925038	-0.3559160182	-0.061084
C	 0.6152956708	-3.0970945001	 0.9128061624	-0.054699
C	 0.5443222547	-1.8662445105	 1.7809231382	-0.29355
C	-0.3067918354	-0.745350577	 1.1895153963	-0.094867
C	-1.1385282872	-0.9468785155	-0.055688748	-0.14413
H	 0.537074466	 1.8341047406	 0.4968045249	 0.28254
H	 0.6665398488	-0.1705094275	-2.0904180955	 0.107129
H	 1.7929894198	-0.9425007265	-0.9390760798	 0.088962
H	-0.8101328734	-2.056308121	-1.9507026469	 0.073038
H	 0.279120368	-4.0061006599	-0.9548237157	 0.08283
H	 1.0148270188	-3.9979626524	 1.3712644867	 0.083984
H	 0.128244919	-2.1473041823	 2.758108948	 0.106987
H	 1.5607318425	-1.5055938052	 1.9996409776	 0.106436
H	-0.81374958	-0.1307321765	 1.9293123663	 0.087352
H	-2.213609727	-0.8220078281	-0.0809786888	 0.088187
