21
gdb 26404	4.00465	0.91511	0.80943	3.4982	85.22	-0.2164	0.0342	0.2506	1480.6695	0.183707	-383.323085	-383.313837	-383.312893	-383.357795	34.593	
C	-0.0926557584	 1.4642914884	 0.3475594509	-0.376423
C	-0.0523864748	-0.0287551624	-0.0011607534	 0.055369
C	-1.4701545152	-0.6062873693	-0.099701957	-0.388361
C	 0.731188774	-0.3020722528	-1.3092609115	-0.307727
C	 2.2008724712	-0.0214583063	-1.2354002941	 0.283435
C	 3.2246663106	-0.9158554665	-1.0414659574	-0.185354
N	 4.3815019833	-0.165949064	-1.0333685809	-0.229367
C	 4.0176847688	 1.1320983302	-1.223372841	 0.004897
N	 2.7174500953	 1.2563678215	-1.3497300469	-0.295097
H	 0.9107195119	 1.8926442835	 0.3969035698	 0.136195
H	-0.6492630753	 2.0233598895	-0.4145860088	 0.106612
H	-0.59154266	 1.6260099363	 1.3094263308	 0.097395
H	 0.4746308869	-0.5554444586	 0.80709708	 0.065766
H	-2.0292577645	-0.1335980333	-0.9165141187	 0.11072
H	-1.4545041564	-1.6853036906	-0.2891065787	 0.102806
H	-2.0311865392	-0.4356781461	 0.8252340037	 0.10658
H	 0.5900839468	-1.3536591668	-1.5866919511	 0.089411
H	 0.2930833809	 0.299311653	-2.115885764	 0.106546
H	 3.2398336274	-1.986027813	-0.9169128428	 0.12377
H	 5.3179396187	-0.5165217834	-0.9242515021	 0.265306
H	 4.7401253681	 1.9337206507	-1.2659587867	 0.127521
