22
gdb 104790	2.20792	1.4773	1.07645	1.7834	81.08	-0.2282	0.0663	0.2945	1216.1841	0.193801	-404.295594	-404.286103	-404.285159	-404.330029	35.931	
C	 0.7091964082	-0.5864872257	 1.5095461678	-0.391673
C	 0.0828532009	-0.1248277949	 0.1886545092	-0.248584
C	-1.3399455463	-0.6444945002	-0.0525665807	 0.334688
C	-2.3495297405	-0.0351541555	 0.9190598888	-0.135002
O	-2.3589709114	 1.3716832216	 0.7192319514	-0.427071
C	-1.8962502701	-0.5939522879	-1.5080738764	-0.222748
N	-2.2317946872	-2.0645342728	-1.5060761902	-0.130141
C	-0.9408535721	-2.7556157832	-1.3507307423	-0.252195
C	-1.5536501023	-2.1626143765	-0.146751873	-0.083642
H	 1.743673683	-0.2388810463	 1.5894922056	 0.113783
H	 0.1686220342	-0.1988845853	 2.3787766783	 0.118583
H	 0.7206549688	-1.6798040527	 1.5822541469	 0.116686
H	 0.0579477748	 0.9695390485	 0.149489175	 0.118519
H	 0.7236344371	-0.4485815738	-0.6393297276	 0.087507
H	-3.3414193087	-0.4720915483	 0.7259322536	 0.096453
H	-2.0772215178	-0.2873783508	 1.9561511249	 0.086002
H	-3.0200721587	 1.7558567291	 1.3018324089	 0.289467
H	-2.7972565803	 0.0118412407	-1.614151505	 0.116408
H	-1.1844536261	-0.313983325	-2.2922048469	 0.09639
H	-1.0197099995	-3.8325267273	-1.4671165971	 0.119012
H	-0.0492433306	-2.3186636949	-1.7951186231	 0.110866
H	-1.9703183453	-2.7797624785	 0.6453362618	 0.08669
