17
gdb 126408	4.90708	0.88435	0.79268	1.3186	87.12	-0.2301	-0.018	0.2121	1448.4713	0.136321	-380.873053	-380.864265	-380.863321	-380.907307	32.315	
C	-0.0223893386	 1.4792805031	-0.4424610141	-0.370248
C	-0.0905951443	 0.1270678582	 0.2873542481	-0.29187
C	-1.4188990688	-0.5532040546	 0.1399336292	 0.353301
N	-2.3034985482	-0.5434140064	 1.1414154424	-0.269939
N	-3.3707708481	-1.2034545201	 0.6704505403	-0.282467
C	-3.2071345786	-1.6482254522	-0.6101822287	 0.257335
C	-1.9367690307	-1.2343996673	-0.9835229099	-0.407234
C	-4.2053803111	-2.3723295715	-1.2933477667	 0.278434
C	-5.0679126826	-2.9895916115	-1.86386827	-0.435506
H	 0.9619933237	 1.9404328137	-0.3154265938	 0.112457
H	-0.2037838885	 1.3601583353	-1.5154279591	 0.117502
H	-0.7761907207	 2.1690259359	-0.0512022375	 0.126802
H	 0.6992320632	-0.531587639	-0.092729624	 0.105632
H	 0.0999947498	 0.2726887626	 1.3548709276	 0.119267
H	-4.176320682	-1.3385473868	 1.2582377265	 0.277695
H	-1.4636975117	-1.4115190786	-1.9355018221	 0.111117
H	-5.8232815631	-3.5344031909	-2.3740604181	 0.197724
