13
gdb 133258	3.39973	1.45955	1.02769	2.0004	65.25	-0.26	-0.0953	0.1647	1048.1521	0.089592	-490.19362	-490.186319	-490.185375	-490.225699	26.673	
C	-0.0342908432	 1.4306850702	-0.0075157675	-0.310227
N	-0.0086972799	-0.0272160176	 0.029813885	-0.011868
N	-0.0442094798	-0.643497255	-1.1326043549	-0.034148
N	-0.0252189517	-1.9262757498	-1.1874099509	-0.268162
C	 0.0330670777	-2.5705663158	 0.027406411	 0.3872
F	 0.0495458789	-3.873603041	-0.1061604613	-0.034101
N	 0.0713262995	-2.077297763	 1.206046611	-0.360632
C	 0.0516779715	-0.6920440265	 1.2864012166	 0.454273
N	 0.0808852533	 0.02430433	 2.334235548	-0.555938
H	 0.8624587306	 1.8210884855	 0.4778580152	 0.168139
H	-0.0802483667	 1.7285242477	-1.0537289048	 0.158397
H	-0.9026935677	 1.7918980496	 0.5470736499	 0.168138
H	 0.1229521776	-0.5810159642	 3.1526529425	 0.238929
