16
gdb 62284	3.33936	1.56593	1.34631	4.4193	71.9	-0.2411	0.0273	0.2684	955.7507	0.126314	-396.85837	-396.851162	-396.850218	-396.889705	28.922	
N	-0.0635426382	 1.4581167566	-0.0318872275	-0.578451
C	-0.0337586978	 0.0158020546	-0.0576986023	 0.206317
C	 0.8173519388	-0.5013032233	 1.0158100737	 0.260351
N	 1.5131919092	-0.9069932587	 1.844557349	-0.340395
C	-1.380054473	-0.7205697106	-0.1014699475	-0.086384
C	-1.7564367378	-0.8150958153	-1.5801797123	-0.060274
N	-0.7083524926	-0.0725509883	-2.3245251924	-0.342202
C	 0.2577316275	-0.7670991721	-1.4088170093	-0.099779
C	-0.8262429074	-1.8294697894	-0.9860009367	-0.097127
H	 0.8708334774	 1.8410508717	 0.0754264789	 0.235415
H	-0.4303839196	 1.7663294817	-0.9301674873	 0.249762
H	-2.1124621462	-0.7884223081	 0.691488084	 0.111202
H	-2.784137464	-0.8889045939	-1.9102667307	 0.110226
H	-0.6206652728	-0.5030653283	-3.2438558315	 0.226707
H	 1.2733609832	-0.9299143373	-1.7610581651	 0.093447
H	-0.8364370366	-2.9035841094	-0.8719222829	 0.111186
