21
gdb 108088	2.5778	1.4639	1.20582	1.7448	82.63	-0.2209	0.0891	0.31	1161.0831	0.18171	-387.03932	-387.030484	-387.02954	-387.072756	33.872	
C	 0.2346043791	 1.4360479814	 0.146280433	-0.373745
C	-0.1103119394	-0.0169214912	-0.2084608136	-0.312547
C	 0.6825562171	-0.5274691795	-1.366814411	 0.457796
O	 0.5112636081	 0.0894714561	-2.6503096622	-0.336999
C	 1.2640833793	-1.0264678741	-3.1999017665	 0.024259
C	 2.708837374	-0.7767633265	-2.7002783671	-0.237472
C	 2.1344883103	-1.0641923187	-1.3147711212	-0.207256
C	 0.9820117233	-1.8885159455	-1.9037103857	 0.210386
C	 0.4691361485	-3.2676264937	-1.6485848276	-0.53282
H	 1.2836615568	 1.5281109781	 0.4445954397	 0.117497
H	 0.0739222322	 2.0891858764	-0.7159270857	 0.137716
H	-0.3881701462	 1.7966266366	 0.9702218072	 0.108274
H	 0.0726515748	-0.6721925334	 0.6519546202	 0.101721
H	-1.1785609601	-0.098611508	-0.4447842582	 0.108326
H	 1.0152322024	-1.2515480036	-4.2356120096	 0.081453
H	 3.393252096	-1.565767386	-3.024282286	 0.098885
H	 3.1307822775	 0.2105756749	-2.913898918	 0.097203
H	 2.6580227224	-1.2272201399	-0.3800929693	 0.083404
H	 0.3733277648	-3.449207758	-0.572460646	 0.124537
H	-0.5175574868	-3.4203919735	-2.1005324112	 0.126786
H	 1.1442428558	-4.0321323517	-2.0506341513	 0.122596
