14
gdb 127748	2.15329	1.89261	1.01373	2.6137	75.16	-0.2241	-0.0301	0.1941	1092.729	0.100456	-432.837783	-432.829431	-432.828487	-432.870877	30.276	
C	-0.0767847796	 1.4176368934	 0.0249130695	-0.336024
N	-0.0073811396	-0.0281725978	 0.0805240912	-0.046356
N	 0.0046676132	-0.750462644	-1.0375931586	-0.144134
N	 0.0717955497	-2.0192807294	-0.6975528109	-0.277221
C	 0.1027103203	-2.1036125328	 0.6455683605	 0.228314
O	 0.1711597859	-3.2682515644	 1.3039025303	-0.42152
C	 0.0532618232	-0.8290424056	 1.1955243814	 0.157099
C	 0.0571024816	-0.35420632	 2.5144326876	 0.309568
C	 0.0593417621	 0.0688002659	 3.6426573903	-0.463885
H	 0.8049970053	 1.8591299251	 0.4962622032	 0.155945
H	-0.1154221281	 1.6953006995	-1.0278109034	 0.170512
H	-0.9722627795	 1.7751802528	 0.5395207922	 0.156004
H	 0.1908549366	-3.9668071607	 0.6365183479	 0.31034
H	 0.0619135289	 0.4254557682	 4.6428671589	 0.201358
