16
gdb 54014	2.21326	1.60386	0.95975	2.4945	68.59	-0.2596	-0.0379	0.2217	1173.3989	0.123876	-471.270845	-471.261825	-471.260881	-471.305585	32.681	
C	-0.437091866	 1.124655293	-0.0862332173	-0.473222
C	-0.0743488898	-0.3450383052	-0.069581205	 0.370323
N	 0.1276586084	-0.909673713	 1.040126423	-0.458702
N	-0.0324734464	-1.0090996237	-1.3732891565	-0.248087
C	 0.214494839	-0.2288546042	-2.4944713198	 0.193092
O	 0.2280911272	-0.5936316432	-3.6531577073	-0.34107
C	-0.2143789738	-2.4517725849	-1.4489350421	 0.495928
N	-0.4060427651	-2.9342357736	-2.6921576753	-0.551755
O	-0.2156152508	-3.1435880405	-0.4509894526	-0.385082
H	 0.393799013	 1.7607297174	-0.40981012	 0.147383
H	-1.2945408678	 1.3342994941	-0.7329536403	 0.138574
H	-0.6797431399	 1.3956832554	 0.9405840909	 0.163093
H	 0.325661283	-1.9027011282	 0.9232399417	 0.260788
H	 0.4304088754	 0.8132910731	-2.2357724608	 0.122688
H	-0.2673646445	-2.3391587633	-3.4995379903	 0.295939
H	-0.4495509518	-3.9369612332	-2.7634019282	 0.27011
