19
gdb 81044	2.56175	1.53301	1.14367	3.0228	76.16	-0.2471	-0.0269	0.2201	1115.7863	0.158289	-422.996324	-422.987623	-422.986679	-423.030298	32.801	
C	-0.3614936958	 1.3284606681	 0.1281664805	-0.490063
C	 0.0519767909	-0.1172933235	-0.0276997985	 0.250509
O	 0.4347830094	-0.7919964437	 0.9099866472	-0.317013
C	 0.0062451606	-0.7336844908	-1.3917658488	 0.210396
C	-0.9711295238	-0.5788694802	-2.5927611819	-0.2925
C	 0.070005567	-1.6514421582	-3.0396485307	-0.088688
C	 1.1723411441	-0.7264175911	-2.4487490911	-0.256882
C	-0.0868074738	-2.2696891783	-1.6234642475	 0.150828
O	 0.9487521057	-3.0760959884	-1.1407824843	-0.454492
H	 0.2042311446	 1.9617312335	-0.5644747073	 0.142619
H	-1.4194481947	 1.4413010866	-0.1359014228	 0.146693
H	-0.2003784081	 1.6594007877	 1.1548925544	 0.143647
H	-1.9990667722	-0.9181265553	-2.4342640429	 0.098939
H	-0.938733791	 0.3697974484	-3.1323148552	 0.100242
H	 0.0942311388	-2.1810584606	-3.9918286245	 0.08206
H	 1.3455937939	 0.2215825624	-2.9640985186	 0.091143
H	 2.0960988293	-1.2094483694	-2.1355221544	 0.12318
H	-1.0738238787	-2.7046688916	-1.4113146726	 0.063984
H	 1.0315979137	-2.8660228358	-0.2014906212	 0.295399
