15
gdb 124430	3.43525	1.19988	1.02881	2.7217	71.13	-0.2733	-0.0191	0.2542	1145.2609	0.113595	-412.995521	-412.987479	-412.986535	-413.029258	28.506	
C	 0.0129550011	 1.5868398101	-0.0043797504	-0.389673
C	 0.0947873936	 0.0503519172	-0.001954534	-0.101614
C	 0.6911780151	-0.4553888458	-1.2457879479	 0.283353
N	 1.1664238987	-0.818062615	-2.2337292832	-0.30749
N	 0.8280721594	-0.4586367257	 1.1525394392	 0.061354
C	 2.1613869371	-0.5974547141	 1.357153103	-0.090709
C	 2.2523123454	-1.0250364607	 2.6587127379	-0.065149
N	 0.9962772562	-1.1188639938	 3.178109525	-0.185478
N	 0.1338062028	-0.7752689423	 2.2689110362	-0.138053
H	 1.0090035151	 2.0278536797	-0.0858644338	 0.147448
H	-0.5920296862	 1.9272030733	-0.8480001697	 0.150839
H	-0.4510720767	 1.916289567	 0.9273784261	 0.159329
H	-0.9118486322	-0.3678154322	 0.0944291822	 0.172155
H	 2.8901691759	-0.4088995274	 0.5871641965	 0.1677
H	 3.1263498349	-1.2734992801	 3.237989523	 0.135987
