21
gdb 56588	2.95323	1.04474	0.83577	1.236	84.68	-0.2584	0.0331	0.2915	1416.4893	0.179567	-387.038517	-387.028163	-387.027218	-387.074015	38.435	
C	-0.0837343652	 1.4030693169	-0.1432186292	-0.403176
C	 0.000792156	-0.1196782198	 0.0365490892	-0.018904
C	 0.8047004132	-0.4808579345	 1.3161304421	-0.04719
O	 0.8253517648	-1.8793659214	 1.5835232568	-0.415604
C	 2.1697770703	 0.0563467647	 1.2735287139	 0.292443
C	 3.3060221243	 0.4443364509	 1.2028148705	-0.445762
C	-1.3835514088	-0.7399044881	 0.0790643335	 0.058424
C	-2.1566191632	-0.9613267897	-1.1993587108	-0.290675
C	-1.6409501089	-2.138009762	-0.4095798506	-0.258241
H	 0.9081339034	 1.857289952	-0.2072117923	 0.127614
H	-0.6373486354	 1.6473876327	-1.0539816807	 0.11889
H	-0.6128303164	 1.8645638639	 0.6992478617	 0.113171
H	 0.5465518922	-0.5435851879	-0.8191059597	 0.067029
H	 0.2783194063	-0.0443007039	 2.1754313323	 0.114289
H	 1.4257735781	-2.2864533405	 0.949385577	 0.282091
H	 4.3069012017	 0.7975028039	 1.1619320159	 0.198012
H	-1.9755439244	-0.4227469856	 0.9357737015	 0.078256
H	-3.2225043471	-0.7617224386	-1.2012070575	 0.109856
H	-1.6625222271	-0.7252116188	-2.1369083209	 0.107618
H	-0.803425413	-2.6930673774	-0.8179734978	 0.099887
H	-2.3496562609	-2.7517811269	 0.1348095251	 0.111971
