19
gdb 117049	4.20103	0.79842	0.68041	1.6131	76.13	-0.2242	-0.0351	0.1891	1671.1144	0.157829	-456.386193	-456.375542	-456.374598	-456.423372	36.145	
C	 0.1242411165	 1.499506037	-0.0101365717	-0.406926
C	-0.0552353885	-0.0141967721	-0.0499759375	-0.094192
N	 0.6713327976	-0.5894335364	-1.1640874566	-0.305022
C	 0.7968667925	-1.9290295325	-1.3351947671	 0.236979
N	 0.3504074749	-2.7884858143	-0.4962908518	-0.543022
C	 1.5278527765	-2.2523185554	-2.6295971375	 0.430704
O	 1.885688172	-1.4164952284	-3.4257386202	-0.381236
O	 1.7182361921	-3.5670946619	-2.7817221929	-0.231261
C	 2.3948241006	-3.9576329318	-3.9849702237	-0.244643
H	 1.1793366963	 1.7687711072	 0.101402904	 0.126904
H	-0.253029921	 1.9682912181	-0.9259741989	 0.120857
H	-0.4272952088	 1.9247274886	 0.8323991622	 0.126505
H	 0.3095799534	-0.4766187185	 0.8740273658	 0.129426
H	-1.1213552599	-0.2750848438	-0.117011661	 0.112192
H	 0.9691758028	-0.0101963209	-1.9327515208	 0.2582
H	 0.579948175	-3.7269081697	-0.8142283134	 0.22846
H	 3.3916750303	-3.5118869626	-4.0232886163	 0.147351
H	 2.4606656175	-5.0443983723	-3.9475716677	 0.141455
H	 1.8290775	-3.6351896103	-4.8623287649	 0.147268
