20
gdb 113678	3.75172	0.87728	0.80694	1.1002	78.72	-0.2319	-0.0002	0.2318	1515.6439	0.169198	-440.288633	-440.278606	-440.277662	-440.324402	35.235	
C	 0.8430734667	 1.6585187604	 0.0746391299	-0.374279
C	 0.7385329303	 0.1587280826	-0.1899102159	-0.130575
N	 0.7297292735	-0.5602043143	 1.0888056069	-0.081963
C	-0.5362022809	-0.8171072289	 1.7339394132	-0.239771
C	 0.2674862254	-1.9529814908	 1.1728860049	-0.137025
C	-0.288853709	-2.6733902298	-0.0123318954	 0.456037
O	-1.0452004444	-2.2205543809	-0.8399326709	-0.375935
O	 0.1769855442	-3.938855871	-0.0446620064	-0.236669
C	-0.3030781697	-4.7393081997	-1.1318062831	-0.241366
H	 1.7307849669	 1.8885423459	 0.6706130005	 0.124053
H	 0.9033410349	 2.2077786536	-0.86982689	 0.113722
H	-0.0342999586	 2.0227978888	 0.6193460095	 0.117633
H	-0.1426929166	-0.0638996084	-0.8034380226	 0.127273
H	 1.6191377798	-0.184632076	-0.7454923743	 0.10163
H	-0.5720657801	-0.6763441847	 2.8111337622	 0.119527
H	-1.4488443533	-0.5750253664	 1.1916947023	 0.132369
H	 0.8592828647	-2.579827317	 1.8319925741	 0.107422
H	 0.1539032799	-5.7202721069	-1.0022107817	 0.134633
H	-1.3929156081	-4.8166431884	-1.1018999011	 0.141627
H	-0.0096526257	-4.303197708	-2.0899714922	 0.141656
