20
gdb 58406	1.71649	1.47323	0.89938	2.2895	77.06	-0.2561	-0.0413	0.2148	1337.3066	0.168535	-440.326796	-440.316488	-440.315544	-440.362814	36.484	
C	 0.1213614169	 1.4953428824	-0.2750140093	-0.387418
C	 0.0322260658	-0.0271551647	-0.1137036878	 0.021713
C	-1.4375002249	-0.4743827128	-0.0552220135	-0.402303
C	 0.8111466938	-0.753549605	-1.2577167027	-0.072262
N	 2.183070916	-0.3074904811	-1.4025190546	-0.278593
C	 2.5643549349	 0.5387728736	-2.3988403834	 0.151116
O	 1.8061055405	 1.1520627779	-3.120854046	-0.324888
C	 0.8261143509	-2.2554271294	-1.0253354771	 0.156326
O	 1.830276139	-2.8798257283	-0.7845466496	-0.258829
H	 1.1561456568	 1.8421346226	-0.2482962463	 0.127306
H	-0.3127498864	 1.816661243	-1.2265836598	 0.13654
H	-0.4227671304	 1.9875847143	 0.5375001197	 0.109326
H	 0.5198447218	-0.3019544688	 0.8319270003	 0.08295
H	-1.9394448393	-0.2984548175	-1.0138861927	 0.124452
H	-1.5551569767	-1.5316397937	 0.1983340933	 0.116346
H	-1.9729483386	 0.1020460275	 0.7049703161	 0.124533
H	 0.2853812831	-0.5475302382	-2.1999774105	 0.12778
H	 2.8768464606	-0.9290362453	-1.0080588494	 0.258004
H	 3.666193628	 0.6237689304	-2.4678543386	 0.083641
H	-0.159777392	-2.7576384468	-1.0695081879	 0.104259
