20
gdb 61518	2.53212	1.09712	0.93309	3.22	78.89	-0.2739	0.035	0.3089	1354.8821	0.168941	-403.154305	-403.144386	-403.143442	-403.189413	36.058	
C	 1.0494007521	-1.4160832584	-0.3026313562	-0.40313
C	-0.2094146163	-1.3407072375	 0.5846767233	-0.139362
C	-1.1180405653	-0.1535479271	 0.1925868959	-0.263382
C	-2.0731722697	 0.3451444972	 1.2688604035	 0.396433
C	-2.8738014036	 1.5645707987	 0.8642394267	-0.455216
C	-2.5857220825	-0.5225326822	 2.3397246512	-0.22977
O	-1.5184460719	 0.403436459	 2.592390347	-0.270277
C	-0.9344252304	-2.6148568814	 0.5234996885	 0.274895
N	-1.4998902145	-3.6214906705	 0.4587388834	-0.3391
H	 1.6760431981	-2.2657880714	-0.0215294715	 0.139483
H	 0.7791097204	-1.5257586095	-1.3568602641	 0.136521
H	 1.6350038872	-0.4998867858	-0.1883241057	 0.129076
H	 0.0989821801	-1.186667898	 1.6255369367	 0.148607
H	-0.4614208983	 0.6852014364	-0.0708710838	 0.112594
H	-1.6853079136	-0.3982788681	-0.7125055742	 0.123037
H	-3.529607241	 1.336036318	 0.017353875	 0.12623
H	-3.4886514615	 1.9127618921	 1.6972432105	 0.131836
H	-2.209367867	 2.3824023523	 0.5645319452	 0.125523
H	-3.5356484538	-0.27120076	 2.8098784568	 0.115593
H	-2.3179761587	-1.5745627237	 2.3887216818	 0.140411
