17
gdb 23481	3.58898	1.40402	1.21399	1.5279	75.77	-0.2288	-0.0045	0.2242	1038.0076	0.137585	-417.904149	-417.897045	-417.896101	-417.935666	28.258	
O	-0.104698787	 1.3376748375	 0.0346427956	-0.39309
N	 0.0447369734	-0.0616663522	 0.0393654414	-0.265325
C	-1.0787156926	-0.6374918072	-0.0624052262	 0.449888
C	-2.5310706404	-0.2395752129	-0.035425754	-0.09687
C	-3.2517679266	-0.426779605	-1.3919049864	-0.247345
C	-3.2604319062	-1.9404204974	-1.1004610759	 0.01682
C	-1.9272413437	-2.6761474852	-1.3379630809	-0.248714
C	-1.4405072848	-2.0940275157	 0.0118078332	-0.095871
N	-2.8879560409	-1.6859806468	 0.3705951431	-0.161641
H	 0.8010752667	 1.6386020789	 0.1657540027	 0.308803
H	-2.8185539441	 0.5921416007	 0.6085858457	 0.099539
H	-4.2618263725	-0.0114374904	-1.3516305077	 0.117745
H	-2.7538552281	-0.0658746073	-2.2949468879	 0.113104
H	-4.1803573941	-2.4875838095	-1.3133382143	 0.079305
H	-2.0568305342	-3.75888798	-1.2650146938	 0.117169
H	-1.349652658	-2.4456440766	-2.2364267824	 0.112052
H	-0.875237687	-2.7355871809	 0.6889957578	 0.094431
