18
gdb 116107	3.63087	1.06693	0.8616	1.5467	69.93	-0.268	0.0103	0.2783	1302.817	0.148812	-476.229606	-476.221191	-476.220247	-476.263024	31.342	
O	 0.0603553491	 1.4146869542	 0.133939775	-0.421267
C	 0.0415009284	 0.012933025	-0.0223234164	-0.07455
C	-1.3797010492	-0.5321325436	-0.0270345184	 0.070067
C	-1.4658145719	-2.0512454602	-0.177078656	-0.275981
C	-2.8492492164	-2.5718539754	 0.1408507037	 0.3672
N	-3.325402031	-3.5932033069	-0.4302707519	-0.497343
O	-3.5090891399	-1.9303695193	 1.158789577	-0.249149
C	-3.2916784615	-0.5256026241	 1.2968907501	 0.010291
O	-1.9511802768	-0.1703346972	 1.2375959198	-0.251157
H	-0.4578674935	 1.6052565222	 0.9244263809	 0.29156
H	 0.523217514	-0.2126354057	-0.9790854164	 0.117356
H	 0.6115486783	-0.4955225955	 0.7722518373	 0.096713
H	-1.9516702903	-0.0312795539	-0.8247755627	 0.087929
H	-1.1904756412	-2.3819013996	-1.1799020997	 0.138119
H	-0.7680696353	-2.5103590625	 0.5351320985	 0.134992
H	-4.2511501118	-3.8063220678	-0.0518132147	 0.222614
H	-3.8666652054	-0.0085604428	 0.5107549935	 0.101001
H	-3.6693045158	-0.2578510868	 2.2847634202	 0.131605
