21
gdb 64413	2.38649	1.66635	1.32286	1.0563	77.41	-0.2509	0.0798	0.3307	1072.6712	0.182509	-424.219285	-424.210641	-424.209697	-424.251929	33.933	
C	-0.0065250069	 1.5280280469	 0.0301126935	-0.430569
C	-0.006614355	-0.007897672	 0.0022991325	 0.224165
C	-1.4423423607	-0.558765498	 0.0187979796	-0.422402
C	 0.7335049957	-0.5018248098	-1.2589197752	-0.113652
O	 0.9083020235	-1.9089674626	-1.2466884604	-0.255259
C	 1.8383861892	-2.3401215561	-0.2697691143	-0.105323
C	 1.6396999763	-1.6925658336	 1.088877852	 0.013319
O	 2.1514495389	-0.3586025661	 1.2376305731	-0.270879
C	 0.7332007009	-0.542375831	 1.2203854273	 0.050901
H	 1.0143880268	 1.9177936839	 0.0844137365	 0.131554
H	-0.4828897033	 1.9351647323	-0.868664682	 0.112422
H	-0.5594867612	 1.9047978116	 0.8973659707	 0.113202
H	-2.029209789	-0.1268405333	-0.7988198534	 0.113466
H	-1.4409133332	-1.6452771296	-0.101597588	 0.129289
H	-1.9518297732	-0.3141286044	 0.9572640809	 0.109188
H	 0.1427106919	-0.2750197598	-2.1518682395	 0.103427
H	 1.7048470315	 0.0069807607	-1.3456053882	 0.10054
H	 1.7075162262	-3.423608289	-0.1846763453	 0.111208
H	 2.8710511374	-2.1468591834	-0.604656255	 0.104526
H	 1.8227915898	-2.3318840542	 1.9524602283	 0.09602
H	 0.2472919143	-0.3623835927	 2.1814610171	 0.084856
