19
gdb 60156	4.1445	0.76979	0.75811	3.9699	72.65	-0.2705	0.0153	0.2858	1560.3703	0.157569	-460.196556	-460.18713	-460.186186	-460.231524	34.27	
C	-0.2652902968	 1.5887674951	 0.0371842265	-0.402719
C	-0.0064509703	 0.083104423	 0.0126490089	 0.124112
O	-1.2071165971	-0.6540226893	 0.2456102412	-0.436833
C	 0.5216829406	-0.3929513305	-1.3420787064	-0.200413
C	 0.8716862334	-1.8664163172	-1.348256802	 0.136604
C	 1.641075304	-2.4279417587	-2.5575248613	-0.445298
C	 2.756469144	-2.6607571677	-1.5378350277	 0.447909
O	 3.8596185531	-3.1028515849	-1.5199462416	-0.317733
O	 2.0398955627	-2.1533279779	-0.4852535396	-0.256291
H	 0.6577272583	 2.1511764333	-0.1375698813	 0.119615
H	-0.9955945789	 1.8643174448	-0.7303386563	 0.124068
H	-0.6624595054	 1.8966256501	 1.0107574112	 0.108869
H	 0.7438122646	-0.1692538945	 0.7777229409	 0.091298
H	-1.5045091722	-0.4675937126	 1.1412552405	 0.285924
H	-0.2499263757	-0.2147287498	-2.1020198349	 0.113839
H	 1.4053531947	 0.192942282	-1.6196178452	 0.104237
H	 0.0281341623	-2.4706633334	-1.0119575151	 0.118742
H	 1.2478074554	-3.3401259777	-3.0087174091	 0.144426
H	 1.8932575632	-1.7101303439	-3.3409612487	 0.139644
