20
gdb 90623	4.05012	1.23208	1.15741	0.4879	78.69	-0.2267	0.0609	0.2877	1157.5981	0.170374	-403.080252	-403.071961	-403.071017	-403.112611	32.579	
C	 0.1197150164	 1.5685254098	 0.0627667898	-0.409483
C	-0.0432206624	 0.0607213327	 0.0885353236	 0.126786
O	 0.7898699967	-0.5891486787	-0.9260245796	-0.31771
C	 1.604797206	-1.2153474178	 0.0884998413	 0.041922
C	 0.7167678148	-0.6786219249	 1.2078600711	-0.034798
N	 0.3013219144	-2.0745239032	 1.6357822456	-0.20349
C	-0.2595111552	-2.7979468201	 0.4684981675	-0.297557
C	 1.2009735152	-2.6425930659	 0.5266462015	 0.341626
C	 2.1798390558	-3.7527692541	 0.7660992486	-0.499494
H	 1.1614131776	 1.8550340694	 0.2382623531	 0.121468
H	-0.1838205624	 1.9641448297	-0.9111053509	 0.129319
H	-0.5048006126	 2.0318668353	 0.8344939294	 0.11918
H	-1.0987784575	-0.2123351242	-0.0326097705	 0.083753
H	 2.6731428934	-1.024638846	-0.0363834739	 0.078128
H	 1.06477431	-0.1019839766	 2.0635956556	 0.087946
H	-0.6653679702	-3.7628259148	 0.7581034391	 0.118319
H	-0.8327884425	-2.2793162241	-0.2917463133	 0.134534
H	 2.4983729457	-4.1999964279	-0.1830839283	 0.126087
H	 3.0748972945	-3.3926649319	 1.2854484668	 0.121901
H	 1.7282062525	-4.5379038968	 1.3791477534	 0.131561
