18
gdb 12828	3.30733	2.01593	1.58243	2.0959	67.29	-0.2374	0.0794	0.3168	860.9429	0.154704	-384.926091	-384.91883	-384.917886	-384.957128	28.944	
O	-0.0491071733	 1.3757427662	 0.1095678402	-0.465201
C	 0.0261442765	-0.0221310374	-0.016963906	 0.361805
C	-0.531433345	-0.6118923466	-1.2945046625	-0.365327
C	-1.3105526344	-0.7047842778	 0.0043337577	 0.067992
O	-1.4639008682	-1.9653799091	 0.5886362263	-0.257637
C	-0.5186163378	-2.2707853171	 1.6054444711	-0.058335
C	 0.9127209917	-2.1287897351	 1.091737341	-0.222985
C	 1.1877146762	-0.6611937374	 0.7256110536	-0.276093
H	 0.6225693683	 1.7587646557	-0.4661372747	 0.280188
H	-0.8826241323	 0.0856041945	-2.0469743286	 0.110026
H	-0.1086023991	-1.5370277157	-1.67177874	 0.114795
H	-2.1834035135	-0.0663370124	 0.1155739682	 0.103172
H	-0.6699994241	-1.6201403305	 2.482348665	 0.091595
H	-0.7360989565	-3.2995832165	 1.905702502	 0.106599
H	 1.6229464852	-2.464231935	 1.8550964867	 0.100164
H	 1.0400041522	-2.7846196855	 0.2223934754	 0.107237
H	 2.1193168009	-0.5646064994	 0.1534705297	 0.090819
H	 1.3178973533	-0.0814634109	 1.6473800747	 0.111185
