20
gdb 95720	2.88991	1.1896	0.9227	4.5652	75.6	-0.2377	0.0335	0.2712	1270.9958	0.172971	-440.331341	-440.322627	-440.321683	-440.364727	33.543	
O	-0.0799341549	 1.4678187515	 0.0022209355	-0.434355
C	 0.0242220805	 0.0492110621	-0.0086551989	 0.127457
C	 0.8836323467	-0.4436450027	 1.1620762712	-0.208393
C	 1.0721591339	-1.9670662922	 1.2093753502	-0.183115
N	-0.086560099	-2.7027517389	 1.6882268406	-0.282978
C	-1.3272812696	-2.7914568651	 1.1162344067	 0.373968
O	-2.2079979463	-3.4613904223	 1.6250122849	-0.367695
C	-1.5447831439	-2.0003894368	-0.1684292011	-0.320316
C	-1.412209881	-0.4737216718	-0.0087584928	-0.190666
H	 0.8097034891	 1.8354943113	 0.0082590154	 0.279909
H	 0.5048192379	-0.2865931646	-0.9460119942	 0.06136
H	 1.8768138276	 0.0186490296	 1.0736388636	 0.085703
H	 0.4472488212	-0.0967449175	 2.1056386742	 0.113417
H	 1.3807696561	-2.331384068	 0.2186551912	 0.113352
H	 1.8939598562	-2.2058379014	 1.8892001281	 0.116164
H	 0.0012834277	-3.2302426515	 2.5435037656	 0.245847
H	-0.8547275107	-2.3550474571	-0.9461139775	 0.108604
H	-2.555106453	-2.253613375	-0.4922502762	 0.130405
H	-1.9154862961	-0.1438742718	 0.9075758596	 0.1163
H	-1.9282297824	 0.0163609723	-0.8401646859	 0.115033
