18
gdb 22981	2.41123	1.25925	0.92982	2.2225	76.96	-0.2388	-0.0204	0.2184	1275.1322	0.14488	-439.055381	-439.04585	-439.044906	-439.090758	34.067	
C	 0.1007430319	 1.305259672	 0.5274959415	-0.484886
C	 0.0753434586	-0.0818911896	-0.0779224671	 0.373675
O	 1.0554404267	-0.6172616513	-0.5388456404	-0.289912
C	-1.2839805148	-0.7868395677	-0.0449602269	-0.197006
C	-1.3274040123	-2.2401362308	-0.6019687936	-0.242044
C	-1.7109588778	-2.7840235479	 0.8118096872	-0.32006
C	-1.6453636521	-1.3613362919	 1.3223134004	 0.410888
N	-1.7930057595	-0.7640064865	 2.4286200275	-0.229133
O	-2.109561832	-1.6682880038	 3.456302717	-0.387437
H	 1.1241372507	 1.6804093994	 0.563828559	 0.138716
H	-0.5163622979	 1.9822366975	-0.0751949243	 0.13727
H	-0.3385241317	 1.2799139687	 1.5302294763	 0.166447
H	-2.0487328375	-0.1065208046	-0.4359023791	 0.104776
H	-2.0780054459	-2.4060901514	-1.3753585787	 0.107631
H	-0.3511542085	-2.5644264967	-0.9627010297	 0.137577
H	-2.7032525155	-3.2366738116	 0.8957498895	 0.129645
H	-0.9892356305	-3.4628452234	 1.2752689074	 0.135473
H	-2.1932105818	-1.0883667303	 4.2209677839	 0.308379
