18
gdb 8031	3.4387	1.89385	1.5021	3.0439	67.54	-0.2393	0.0589	0.2981	894.582	0.153093	-384.900171	-384.892313	-384.891368	-384.932218	29.721	
C	-0.2000462156	 1.5519189491	-0.0011298766	-0.50192
C	 0.0431306146	 0.0614499078	 0.0016264178	 0.300783
C	-1.1248168956	-0.9044226695	 0.2650183426	-0.110116
O	-0.3226924105	-1.7061393569	 1.160169211	-0.284166
C	 0.7574756351	-0.7569922267	 1.1319548122	 0.052226
C	 1.8889889061	-1.1281306194	 0.1583002167	 0.14869
O	 2.2426885738	-2.4840341586	 0.1565722101	-0.426943
C	 1.0587145617	-0.535191012	-1.0260577298	-0.344959
H	 0.7415216495	 2.1118952094	 0.0034101925	 0.117571
H	-0.7555412715	 1.8555786797	-0.8970021676	 0.121328
H	-0.7813174105	 1.8641012836	 0.8732334683	 0.120618
H	-1.9751072883	-0.4490815703	 0.7933805483	 0.091394
H	-1.5005246793	-1.4795484405	-0.5906454368	 0.099397
H	 1.017931782	-0.3949887398	 2.1314967268	 0.067824
H	 2.7558328879	-0.4801132256	 0.3666214121	 0.063567
H	 2.9553364308	-2.6097920231	-0.4777653198	 0.284547
H	 0.6262579362	-1.3003603318	-1.6761682016	 0.105162
H	 1.5873728235	 0.1987159747	-1.6397848462	 0.094998
