18
gdb 82105	2.96238	1.33503	1.07438	3.7579	71.68	-0.2388	0.0502	0.2891	1138.9666	0.147304	-438.997877	-438.989623	-438.988679	-439.031245	30.917	
O	-0.1454664999	 1.4668473858	 0.0333801983	-0.42612
C	-0.1154466116	 0.05498557	 0.0438506018	 0.071949
C	 0.3384143718	-0.6509606544	 1.3229809652	-0.068017
C	-0.5293752454	-0.2703208878	 2.4516907593	-0.246893
N	-1.0226707793	-1.3061079614	 1.5255537463	-0.136447
C	-1.5066110949	-0.5972895684	 0.277258239	-0.017948
C	-2.7203524046	 0.2785612846	 0.3934355185	 0.10461
C	-3.5636699983	 0.545294161	-0.7787844406	-0.178928
O	-3.9834519071	-0.3766991352	 0.2238212182	-0.235838
H	 0.7607256801	 1.7925426336	 0.0157092376	 0.285523
H	 0.3794365256	-0.3378943855	-0.8530864825	 0.077945
H	 1.2595409907	-1.2119545565	 1.4432419202	 0.093085
H	-0.284463434	-0.6762380275	 3.4278177942	 0.124775
H	-0.9802172298	 0.7171453115	 2.4699365995	 0.127572
H	-1.7159448155	-1.3666161118	-0.4699846177	 0.095451
H	-2.7162912801	 1.026156478	 1.1835575301	 0.101574
H	-4.125505199	 1.4764236608	-0.8325440976	 0.116616
H	-3.3039462788	 0.1051365334	-1.7410808998	 0.111093
