16
gdb 51446	2.8327	1.23841	1.0037	2.9438	70.74	-0.2414	-0.039	0.2024	1173.9586	0.122973	-437.876057	-437.867811	-437.866867	-437.910214	29.543	
O	 0.0463844737	-0.0764760531	-0.1928676828	-0.225305
C	 0.0726631397	 1.1151808881	-0.3444693992	 0.150309
C	 1.2941113961	 1.9858024717	-0.0650818654	-0.260641
N	 1.5610718796	 2.9759663944	-1.082223171	-0.106298
C	 1.8189531478	 2.8250654854	-2.5185579479	-0.002871
C	 0.5663183067	 2.995240608	-3.3231712608	-0.291691
C	 1.2727281259	 4.2216636718	-2.7427461075	-0.216995
C	 1.0163763358	 4.2554515102	-1.2354805527	 0.415079
O	 0.5384360733	 5.0131139866	-0.4377474096	-0.359137
H	-0.8191453933	 1.6817322189	-0.6991521207	 0.087804
H	 1.1030711815	 2.5405141912	 0.8634711941	 0.161287
H	 2.1599516645	 1.3366625016	 0.0963711589	 0.136481
H	 2.7478739621	 2.4007750847	-2.8753241852	 0.124467
H	 0.6647041621	 2.8858666831	-4.3999364323	 0.132622
H	-0.3915741452	 2.6776005429	-2.9230160081	 0.128949
H	 1.6643892695	 5.0194627545	-3.3559254597	 0.12594
