17
gdb 70160	2.65548	1.70761	1.18933	5.5751	75.57	-0.2388	-0.0531	0.1857	1044.4342	0.136641	-418.025741	-418.017639	-418.016695	-418.058192	31.111	
C	-0.096385379	 1.5302279612	 0.0087725143	-0.475871
C	 0.0790153534	 0.0330591717	 0.010828882	 0.207154
C	-0.769955394	-0.8541508386	 0.9339509648	-0.333478
C	 0.7183675085	-0.773278142	 1.1130273284	-0.059099
N	 1.5030769043	-1.8165662806	 0.4922013171	-0.337358
C	 1.2887290692	-1.8953032749	-0.8777768825	 0.254218
N	 1.6302690643	-2.7781357627	-1.7269692704	-0.50632
C	 0.5112707636	-0.6326675179	-1.2640556186	 0.327715
O	 0.3355299354	-0.2263613049	-2.3814135037	-0.299607
H	 0.8283168286	 2.0339096182	-0.2894065048	 0.134487
H	-0.8735222129	 1.8162472922	-0.7058484809	 0.146333
H	-0.3842684071	 1.8978652869	 0.9978288608	 0.11574
H	-1.4081476063	-0.3147768517	 1.6261581578	 0.12854
H	-1.1903150146	-1.7767918998	 0.5473551767	 0.13185
H	 1.1572039659	-0.2939845661	 1.9811392798	 0.112873
H	 1.6461715501	-2.6769593113	 1.0024005263	 0.24347
H	 2.1325493204	-3.5526319898	-1.2855998472	 0.209353
