15
gdb 45837	2.43086	1.7494	1.06929	1.7098	70.72	-0.2623	-0.0234	0.2389	1057.4642	0.116281	-450.180015	-450.172571	-450.171627	-450.212284	27.996	
N	-0.0967638663	 1.3887865097	-0.2686326567	-0.494079
C	-0.0321681077	 0.1535095079	 0.0237078162	 0.380254
C	-1.2957748842	-0.6714768945	 0.0830556914	-0.230333
N	-1.5537840875	-1.3099963476	 1.3691353913	-0.216159
C	-0.7522643559	-2.2029854305	 1.7668511748	 0.085634
N	 0.4483232763	-2.6132114442	 1.1793678918	-0.351864
C	 1.4526729135	-1.8492844695	 0.5870476971	 0.446533
O	 2.5632203596	-2.310039196	 0.4273488335	-0.379276
N	 1.1689334952	-0.5353761397	 0.2495770266	-0.386863
H	 0.8249406161	 1.8315249174	-0.285937548	 0.21115
H	-2.118808821	 0.0020037733	-0.1510329249	 0.147432
H	-1.2393044349	-1.4410868326	-0.7032796281	 0.125263
H	-0.995886515	-2.7700420115	 2.6663013492	 0.130923
H	 0.8368532973	-3.4859092241	 1.5101870896	 0.268834
H	 2.0143676244	-0.0561695379	-0.0306197639	 0.262552
