15
gdb 67228	2.69594	1.99561	1.47677	0.9099	64.	-0.2366	-0.0239	0.2128	879.0544	0.113081	-457.72421	-457.717405	-457.716461	-457.755227	27.168	
O	 0.1116361268	 1.4334776273	 0.0727463776	-0.471847
C	 0.0254064175	 0.0732104009	-0.0141696959	 0.292999
C	 0.3006325152	-0.7947773971	 1.2738157089	 0.015652
C	 0.6549935731	-2.1575825827	 0.6371979581	-0.221899
C	-0.2878156308	-1.9541506183	-0.5785418938	-0.223681
C	-1.2589524322	-0.8782546298	 0.1103329992	 0.017055
O	-1.1216082758	-0.9637413285	 1.5256836422	-0.280702
C	 0.3812056391	-0.742795714	-1.2389214203	 0.355478
O	 0.7466658267	-0.4324702289	-2.3392201961	-0.342036
H	 0.1568276912	 1.7806294604	-0.8277932358	 0.302842
H	 0.8617256972	-0.4051381414	 2.1211894937	 0.102353
H	 1.7032737331	-2.272069162	 0.3500749789	 0.118173
H	 0.3559981123	-2.9754322783	 1.2950462928	 0.12428
H	-0.6475554413	-2.8047704278	-1.1477705917	 0.100115
H	-2.2567977921	-0.6986792	-0.2806707075	 0.111215
