19
gdb 81736	3.04553	1.25251	1.05816	1.3864	83.31	-0.2323	0.0385	0.2708	1186.8031	0.157367	-385.830799	-385.821608	-385.820664	-385.864251	35.279	
C	-0.1260748519	 1.6010055729	 0.0730152327	-0.418179
C	 0.0298399893	 0.0880202444	 0.0280178497	-0.085975
C	 1.1227996066	-0.5413837266	-0.922212732	 0.087751
O	 2.0148919618	 0.3319559014	-1.5834452588	-0.425592
C	 1.759789909	-1.2468803329	 0.2650214505	-0.111266
C	 2.1642902599	-0.2531640553	 1.3079346186	-0.323835
C	 0.7018799605	-0.6313067886	 1.2187424873	 0.188554
C	-0.003504435	-1.2480730883	 2.2895241446	 0.168678
C	-0.6282517775	-1.7583532667	 3.1837920503	-0.409454
H	 0.8320920872	 2.1063438883	 0.2155000816	 0.127538
H	-0.5610611139	 1.9753055768	-0.8611022357	 0.10539
H	-0.7941729042	 1.8956064691	 0.8887397544	 0.125618
H	-0.9376720389	-0.3799712868	-0.1756566566	 0.078361
H	 0.6717802483	-1.2495020147	-1.6284693627	 0.072713
H	 1.5439956501	 0.7499393555	-2.311566635	 0.284843
H	 2.1350611602	-2.2622698756	 0.262514187	 0.099385
H	 2.6823370709	-0.6700197793	 2.164333707	 0.125605
H	 2.4941345213	 0.7386210896	 1.0178201494	 0.127906
H	-1.1722611437	-2.2107072133	 3.9750044478	 0.181958
