14
gdb 28394	3.19773	1.46739	1.00701	4.1852	73.58	-0.1937	-0.0391	0.1545	1089.8076	0.102005	-470.034083	-470.026365	-470.02542	-470.066229	29.656	
N	 0.029649752	 1.4000869527	 0.1598475419	-0.567508
C	-0.093877461	 0.0239971563	 0.1226905858	 0.389683
C	-1.196448222	-0.7089842424	-0.1426102056	-0.17559
N	-1.1815517679	-2.0878756384	-0.0327615097	-0.336748
C	-0.0899100407	-2.6694525425	 0.3059261671	 0.360984
O	-0.0211046366	-4.0067904736	 0.4270647183	-0.388607
C	 1.1688906344	-1.962583907	 0.5851312795	 0.322604
N	 2.2559911061	-2.528664836	 0.8972969241	-0.50748
O	 1.0715481649	-0.5820895313	 0.4749764062	-0.252157
H	 0.9490893319	 1.7314261807	-0.1009748702	 0.261379
H	-0.7057891283	 1.8908399345	-0.3278558313	 0.263197
H	-2.1275879636	-0.2426710393	-0.4355287834	 0.10403
H	-0.9068279939	-4.3358121185	 0.2171635613	 0.300184
H	 2.9938277947	-1.8389829953	 1.046766126	 0.22603
