18
gdb 26332	4.00754	0.98588	0.81852	2.2821	75.56	-0.1864	0.0365	0.2229	1382.6971	0.147244	-439.110111	-439.100925	-439.099981	-439.144144	34.409	
C	 0.1464340269	 1.3559262103	-0.4494026562	-0.394756
C	 0.0112605944	-0.020638461	 0.2107889415	 0.013466
O	 0.4322339536	 0.0173265523	 1.5721192169	-0.423589
C	-1.3772848628	-0.590332591	 0.0910483624	 0.263381
C	-2.0645293827	-1.2091834323	 1.0834615581	-0.146002
O	-3.3029851828	-1.607758116	 0.6292724869	-0.181105
C	-3.3824428034	-1.2363314174	-0.6680422063	 0.402299
N	-4.6013305916	-1.486614193	-1.2822786108	-0.593256
C	-2.2394578588	-0.6084010575	-1.0659582199	-0.41095
H	 1.1641118662	 1.7317038714	-0.3142006035	 0.121249
H	-0.0678610634	 1.3072697838	-1.5214751082	 0.11655
H	-0.5543733994	 2.0692272527	-0.0007072354	 0.112433
H	 0.724525393	-0.7041253273	-0.2688768189	 0.102136
H	-0.1891536632	 0.5869638033	 2.0407875505	 0.274635
H	-1.8326000111	-1.4660320558	 2.1011740563	 0.136958
H	-5.050991449	-2.3211256113	-0.9272127312	 0.255968
H	-4.532428516	-1.5181619135	-2.2898636631	 0.255575
H	-2.03513054	-0.2095824775	-2.046497049	 0.095007
