18
gdb 103523	2.44447	1.51544	1.23964	4.8813	74.38	-0.2373	-0.011	0.2263	1073.081	0.148305	-435.29062	-435.281775	-435.28083	-435.323909	33.263	
C	-0.0693666673	 1.5544511212	 0.0117180882	-0.410209
C	-0.028954016	 0.022981348	 0.0317225335	 0.168359
C	-1.4547861144	-0.5731720554	-0.0041972435	-0.060705
O	-2.1292714945	-0.2171137468	-1.1894293122	-0.423714
N	 0.6928894599	-0.4957516364	-1.1569349393	-0.2864
C	 1.6749380676	-1.1758998282	-0.71105614	 0.05221
N	 1.793311261	-1.233943106	 0.6696722161	-0.352716
C	 0.74532845	-0.5080046646	 1.2405241053	 0.359425
N	 0.4462222815	-0.3040935676	 2.4570846443	-0.545593
H	 0.9334168405	 1.9694118306	-0.1206078248	 0.113978
H	-0.7046458562	 1.8910595309	-0.8095869463	 0.136233
H	-0.4757842082	 1.9168281734	 0.9597734123	 0.139031
H	-1.3860176975	-1.6665016511	 0.1108412723	 0.083561
H	-2.0306711457	-0.1825952452	 0.839444235	 0.127641
H	-1.5283455454	-0.4389132759	-1.9125321724	 0.29341
H	 2.3976969911	-1.6974044538	-1.3312354901	 0.138013
H	 2.5072040826	-1.7275013443	 1.1794453391	 0.259048
H	 1.0970605011	-0.7565775187	 3.1008740225	 0.208427
