16
gdb 44313	3.37994	1.8584	1.40868	1.5087	72.47	-0.2198	-0.0186	0.2012	896.7525	0.126028	-400.649679	-400.643528	-400.642584	-400.680077	25.495	
O	-0.0664756621	 0.0292401497	-0.193312949	-0.310321
C	-0.0114353396	 1.2145948872	-0.0196145128	 0.303841
C	-1.2083033799	 2.2308251642	 0.0328403181	-0.350103
C	-0.4837878566	 3.5765127625	 0.2813863933	-0.089795
C	 0.7986202891	 3.4998431056	-0.5564731668	-0.005437
N	 1.7960202329	 4.0003638153	 0.5187154764	-0.186551
C	 2.5675219032	 2.6778776302	 0.3894576742	-0.274397
C	 1.1243267549	 2.1773933977	 0.2060285197	 0.147227
C	 0.658703374	 3.2418204398	 1.2484200965	-0.005436
H	-1.7637445714	 2.2001459713	-0.9100008679	 0.133218
H	-1.8990299127	 1.9507562467	 0.8346271758	 0.133217
H	-1.0810932893	 4.4854960377	 0.3650278807	 0.083416
H	 0.9676103029	 3.6905303068	-1.6179889776	 0.092979
H	 3.2334947956	 2.6427533998	-0.4769435528	 0.117581
H	 3.0955872404	 2.3884294197	 1.3020203133	 0.117582
H	 0.6612585284	 3.125569006	 2.3338758987	 0.092979
