18
gdb 9292	3.08973	1.28236	1.08615	4.7594	65.84	-0.2664	0.0158	0.2821	1151.2266	0.151017	-422.089784	-422.080308	-422.079364	-422.124809	32.232	
C	 0.3468221555	 0.862209177	-0.2196012951	-0.237578
O	-0.0384896255	-0.4406547231	 0.1595409119	-0.252495
C	-1.4195580933	-0.735283472	 0.0209659768	 0.137597
C	-1.8787787513	-0.8065156166	-1.4372448377	-0.406253
C	-1.6269959369	-2.0542549215	 0.7634247381	-0.104347
O	-0.9723655334	-3.1396441606	 0.1025707906	-0.18285
C	 0.3043011553	-3.4044563584	 0.4577104191	 0.182795
O	 0.9618137411	-4.2303372874	-0.0994964387	-0.280594
H	 1.3945530594	 0.9794051701	 0.0668822722	 0.134476
H	 0.2610773289	 1.0301106872	-1.3015061658	 0.116632
H	-0.2509011906	 1.6267943827	 0.300587018	 0.105491
H	-2.0122540888	 0.0296388233	 0.554077729	 0.068738
H	-1.7423950558	 0.151709079	-1.9442246767	 0.119915
H	-1.3180782098	-1.5743536477	-1.9749075862	 0.149828
H	-2.9434089119	-1.0565406682	-1.4848484503	 0.119543
H	-1.2558897846	-1.9555870616	 1.7902868447	 0.117995
H	-2.6882964798	-2.3123984747	 0.7953613898	 0.123277
H	 0.6474094416	-2.7943032074	 1.3118217702	 0.08783
