17
gdb 48726	3.03468	1.64752	1.34309	4.1234	72.28	-0.2476	-0.0199	0.2277	969.4624	0.137103	-421.783129	-421.776246	-421.775302	-421.814429	27.687	
O	-0.0298308828	-0.0006209188	 0.0085862592	-0.269284
C	 0.0728522595	 1.1928467758	-0.1421671025	 0.094188
C	 1.3288772122	 1.9481069907	 0.0002554569	 0.252723
C	 1.2805436941	 3.4411837861	 0.2974052394	-0.359795
C	 1.7679168517	 3.0022282037	-1.0398922507	-0.086475
C	 3.2227552827	 2.5083437122	-1.2101062171	 0.06701
C	 3.7653400191	 2.2612433317	 0.2147564285	-0.25465
C	 2.6649405824	 1.1842208595	 0.1064462896	 0.00366
O	 3.0320818423	 1.0565915144	-1.315945839	-0.296676
H	-0.8132051347	 1.8212360901	-0.3976425753	 0.062764
H	 0.2824134937	 3.8717680559	 0.3214343519	 0.126023
H	 1.9485045709	 3.8608274203	 1.038536321	 0.130824
H	 1.1759039444	 3.1915878453	-1.9276148207	 0.113233
H	 3.8126569842	 2.9392812201	-2.0181201439	 0.089371
H	 4.7519085641	 1.8024829553	 0.1688345252	 0.123909
H	 3.7345165446	 3.0347720864	 0.982744739	 0.099805
H	 2.6593912413	 0.2428942113	 0.6501837787	 0.103372
