15
gdb 84418	3.31697	1.29221	0.97446	1.9076	71.87	-0.236	-0.0379	0.1981	1151.1832	0.113195	-453.978711	-453.970606	-453.969662	-454.01167	29.723	
O	 0.1513213107	 1.4057817503	-0.2047608295	-0.407411
C	 0.0642363694	 0.01041535	-0.0132569104	-0.023438
C	 0.6569470861	-0.5383126594	 1.2617273174	-0.212046
C	-0.2510636242	-1.2832457947	 1.8947027247	 0.002708
N	-1.4815445923	-1.3084501747	 1.1986906368	-0.107729
C	-2.6353310451	-1.9551914454	 1.613660384	 0.08796
N	-2.6548741338	-2.6376050264	 2.684933127	-0.462327
C	-1.3993050507	-0.511561312	 0.0452893791	 0.374006
O	-2.3067977784	-0.284112917	-0.7118052831	-0.342812
H	-0.2266137888	 1.8376240383	 0.5698177846	 0.2879
H	 0.5371199326	-0.4306654166	-0.8999520593	 0.134595
H	 1.6735844126	-0.3650396266	 1.5808202707	 0.124923
H	-0.1894739179	-1.8469634367	 2.813050296	 0.16931
H	-3.455488646	-1.7895965777	 0.911114198	 0.137429
H	-3.5776220943	-3.0425236513	 2.8294751139	 0.236933
