17
gdb 90798	2.3751	2.00558	1.37661	4.6532	71.29	-0.2301	0.0042	0.2343	951.5456	0.13717	-421.821682	-421.814438	-421.813494	-421.853381	28.772	
O	-0.0387322006	 1.4565465175	-0.0202002741	-0.42612
C	 0.0370163682	 0.0465342985	 0.0192536278	 0.135603
C	 0.6710071285	-0.5383546302	 1.3152438061	-0.291196
C	-0.2311273292	-1.7151902872	 1.669923639	-0.039011
C	-1.2443536323	-1.9645775339	 0.6085435967	-0.09266
C	-1.7043722729	-1.4368670464	 1.9969664538	-0.195668
C	-2.167059028	-0.1949344871	 1.3064411671	 0.44258
O	-3.0196181726	 0.6098047762	 1.5562387052	-0.332057
C	-1.3823756442	-0.5389263992	 0.0098775091	-0.188425
H	 0.8562961038	 1.8088130162	-0.0408604861	 0.287058
H	 0.5801303084	-0.3374023834	-0.8592725602	 0.070533
H	 1.7016191046	-0.8682230771	 1.1511830683	 0.100242
H	 0.6804123149	 0.2265059794	 2.0984774423	 0.117496
H	 0.1760967582	-2.5591896352	 2.2163625253	 0.09896
H	-1.5120895245	-2.9039666015	 0.1475004891	 0.10931
H	-2.2068145494	-1.9588093478	 2.8025479194	 0.107345
H	-1.9349482629	-0.3878140589	-0.9162070387	 0.096011
