16
gdb 31672	4.43377	0.92841	0.81114	4.5668	75.01	-0.2534	-0.0515	0.2019	1397.9783	0.123999	-437.937081	-437.928661	-437.927717	-437.971166	29.694	
C	-0.2639905792	 1.512361865	-0.0698896661	-0.383283
C	 0.1039211928	 0.0211966706	 0.0191519862	-0.29105
C	 0.8722215826	-0.4626255298	-1.160397628	 0.39166
N	 2.0825783537	-0.9055184295	-1.2208595686	-0.325508
C	 2.289325265	-1.2052533493	-2.5671239588	 0.136144
C	 3.531968458	-1.7443080129	-3.1262204613	 0.076443
O	 4.5307129456	-1.9967875394	-2.4977378557	-0.257284
C	 1.1508242689	-0.9117349013	-3.2553820658	-0.078043
O	 0.2349300378	-0.4370811655	-2.3800237535	-0.172345
H	 0.6343953738	 2.1336810608	-0.1250651801	 0.135525
H	-0.8736899401	 1.7140312176	-0.9547925798	 0.133725
H	-0.8340902684	 1.8136497228	 0.8129222825	 0.125998
H	 0.7213756421	-0.1749877403	 0.8984813709	 0.146019
H	-0.8094853718	-0.5776378046	 0.1179545066	 0.129063
H	 3.4797992362	-1.9098876453	-4.2265211029	 0.068357
H	 0.8527645128	-0.9788373889	-4.2885261757	 0.16458
