20
gdb 117375	2.64397	0.97733	0.77234	2.2189	76.42	-0.2463	0.0106	0.257	1527.0506	0.169975	-440.295077	-440.28515	-440.284206	-440.331874	34.601	
C	 1.3408502365	 0.9236777431	-0.1017767815	-0.394787
C	 0.388560709	-0.2560429344	-0.1186111468	-0.04173
O	 0.6640182444	-1.0248458337	-1.3087399885	-0.242692
C	-0.079606925	-2.1401334124	-1.4758155206	 0.441807
O	-0.9519048485	-2.4848583467	-0.7205030427	-0.35763
C	 0.3738582991	-2.8976296208	-2.7107214902	-0.338244
C	 1.5943881517	-3.7501532718	-2.4017155305	 0.027865
C	 2.6872038915	-3.8778144782	-3.3968054212	-0.244733
N	 2.8948829272	-3.1127953644	-2.15522845	-0.30944
H	 2.3809193739	 0.5862568048	-0.0782964083	 0.133001
H	 1.2012211494	 1.5523032371	-0.9858532492	 0.128442
H	 1.1578242909	 1.5347246783	 0.7870229072	 0.125543
H	 0.5177496808	-0.901832698	 0.7551986908	 0.126927
H	-0.6587114005	 0.0610870441	-0.1402256763	 0.123235
H	-0.4547873508	-3.5299592386	-3.039352445	 0.132163
H	 0.6128771193	-2.1825989215	-3.5042557141	 0.115275
H	 1.3928190968	-4.589954809	-1.7399236923	 0.107695
H	 3.2576209857	-4.7994990876	-3.468372444	 0.121598
H	 2.5806708086	-3.3385271955	-4.3351156857	 0.110912
H	 2.82010995	-2.1142594547	-2.3352625014	 0.234793
