18
gdb 38490	3.35026	1.72151	1.60694	1.7451	73.19	-0.2134	0.0522	0.2656	902.6004	0.149367	-401.855323	-401.848695	-401.84775	-401.885837	28.041	
C	 0.0108846899	 1.4892102944	-0.0121923851	-0.254749
C	 1.2754683205	 0.709114652	 0.0044718474	-0.019438
C	 1.986602757	 0.4356338098	 1.3531210749	-0.338127
C	 0.9975302292	-0.4201952985	 2.1239451298	 0.367675
C	-0.3470174626	 0.0359208017	 2.5992850698	-0.377369
C	-0.2053408805	-0.6355378255	 1.2447789705	 0.170187
C	 0.1064602354	-2.1217453591	 1.4225771824	-0.133567
O	 1.2005464338	-1.8264127933	 2.3483458685	-0.322843
N	-0.0565690586	 0.0240889419	-0.0356210317	-0.145021
H	-0.2834460479	 2.027064628	 0.8845861734	 0.115307
H	-0.3192303347	 1.9672905465	-0.9310532052	 0.120626
H	 1.8746011243	 0.6561592639	-0.9003383022	 0.096979
H	 2.898783536	-0.1427890956	 1.1867824858	 0.131549
H	 2.268409632	 1.3604992732	 1.865814744	 0.116441
H	-0.8270480233	-0.514838936	 3.4030187511	 0.123688
H	-0.5341358241	 1.1022729511	 2.616010327	 0.125957
H	-0.6560093097	-2.762376215	 1.880272874	 0.10601
H	 0.4821319135	-2.5808377693	 0.5022553754	 0.116696
