14
gdb 15968	3.20174	1.93201	1.39067	2.9564	62.	-0.2729	-0.0123	0.2607	869.6519	0.107591	-378.672747	-378.665643	-378.664699	-378.704513	25.669	
N	-0.1021287528	-1.0828202055	-0.4875260312	-0.320454
C	-0.0548919134	 0.0326594835	-0.1887474894	 0.283487
C	 0.0330402844	 1.4560228881	 0.1471131276	-0.078647
O	 0.0113873941	 1.7128735555	 1.561214341	-0.279779
C	 1.2870700924	 2.4111643966	 1.5254534559	-0.12717
C	 1.4248441598	 2.1078953412	 0.0389887835	 0.270898
C	 2.5728457539	 1.6966676954	-0.7876724057	-0.295356
N	 1.9196865808	 3.0109047897	-0.9750836613	-0.352371
H	-0.7660329954	 1.998094106	-0.3776583512	 0.12858
H	 1.1782766855	 3.4735310221	 1.7688752182	 0.125855
H	 2.0208727163	 1.9450759082	 2.1910144878	 0.126657
H	 3.5784298588	 1.7413164099	-0.3791480563	 0.134919
H	 2.4098748854	 0.9136754142	-1.5239104373	 0.140642
H	 1.3231006504	 3.0074330552	-1.7992829018	 0.242738
