18
gdb 35087	3.11975	1.5148	1.17186	1.2861	82.38	-0.2173	0.011	0.2283	1067.5579	0.148543	-364.754388	-364.746708	-364.745764	-364.786494	30.325	
C	-0.0256300673	-1.2482707153	 0.0060664253	-0.467818
C	-0.0050515332	-0.0464599938	 0.0149089006	 0.336538
C	-0.019125374	 1.4145433181	 0.0174877258	-0.201856
C	-0.7162243667	 2.0312742148	 1.2314321808	-0.073444
C	 0.0155826746	 3.0160579241	 1.7440652648	-0.101421
C	 1.2939301388	 3.1972673846	 0.9673839214	-0.01734
C	 2.609836882	 2.7091699931	 1.624599496	-0.249376
C	 2.3706119487	 1.3758889628	 0.8757672658	-0.161815
N	 1.3306636518	 2.0312024458	 0.0267499585	-0.101928
H	-0.0388674273	-2.310103356	-0.0049181845	 0.198133
H	-0.5428368911	 1.7340050589	-0.8982710561	 0.115442
H	-1.6910360569	 1.7007393544	 1.5682540653	 0.110464
H	-0.2643455475	 3.6441587268	 2.5822479676	 0.103219
H	 1.3376482963	 4.1807583515	 0.4810269998	 0.081002
H	 3.4871838869	 3.2573537268	 1.2765289691	 0.109471
H	 2.6227197594	 2.6618827378	 2.7147270793	 0.103999
H	 3.2069327213	 0.9695376094	 0.3001065259	 0.105058
H	 1.9747301943	 0.5856651161	 1.5222366946	 0.111674
