16
gdb 12767	2.98021	1.97897	1.58448	1.594	64.62	-0.2423	-0.025	0.2173	854.8916	0.12914	-383.712436	-383.70485	-383.703906	-383.744427	28.331	
O	 0.0684173098	 1.402277635	 0.2371690415	-0.464487
C	 0.0400821079	 0.0256166053	 0.1433417165	 0.411073
C	-0.1808141113	-0.6984733457	-1.1540117411	-0.336779
C	-1.1742985133	-0.8777646363	-0.0287137284	-0.104149
C	-0.6113800272	-1.8760699117	 0.9924080164	-0.259427
C	 0.6135589031	-0.9066159347	 1.2133584803	-0.162081
C	 2.0124655452	-1.432768348	 1.0385453865	 0.138597
O	 2.8051331278	-1.0036584096	 0.2364181724	-0.250785
H	 0.8718741313	 1.7099273738	-0.1981932253	 0.293655
H	-0.5236892674	-0.048235944	-1.9524016729	 0.117284
H	 0.4608853366	-1.5148138952	-1.4755672593	 0.113509
H	-2.217995722	-0.611500525	-0.1344198877	 0.099227
H	-1.2199758237	-1.9922137657	 1.8904106648	 0.114616
H	-0.3711746873	-2.8676453648	 0.5952165932	 0.10554
H	 0.5430004365	-0.4578438819	 2.2116128139	 0.10964
H	 2.2877333539	-2.2731081514	 1.7188395293	 0.074566
