12
gdb 21691	3.49395	2.37972	1.41607	0.8246	60.44	-0.2374	-0.0552	0.1823	789.3527	0.084809	-414.66239	-414.655798	-414.654854	-414.692986	24.838	
N	 0.0401488906	 1.3240660504	 0.082506871	-0.539061
C	-0.0341116996	-0.0226481847	 0.0275812254	 0.313558
N	-1.2014642228	-0.6044912294	 0.0087736795	-0.198037
O	-1.1915023843	-2.0055039641	-0.0029888898	-0.215373
C	-0.052263229	-2.684187065	-0.0047427252	 0.124342
C	 1.1853188895	-2.1361131929	-0.0041194094	-0.290304
C	 1.3000749643	-0.7086360664	 0.0022027257	 0.356325
O	 2.3258933922	-0.0392814027	-0.0184247905	-0.38465
H	 0.9617980385	 1.7088956886	-0.057784029	 0.280925
H	-0.7805050891	 1.8856716025	-0.0611710446	 0.270607
H	-0.2486333934	-3.7517759044	-0.0102927462	 0.152032
H	 2.0696589633	-2.7590024219	-0.0136973669	 0.129636
