15
gdb 46218	3.21504	1.53288	1.22545	4.8638	65.4	-0.2507	0.0023	0.253	992.8602	0.112952	-457.727765	-457.720647	-457.719703	-457.759655	26.651	
O	 0.0112961905	 0.054686387	-0.2829764518	-0.338973
C	 0.0604223453	 1.2165457917	-0.0390969214	 0.445622
O	-0.9609611102	 2.0320443694	 0.4141015846	-0.254028
C	-0.0766012227	 3.1961421573	 0.4961159318	-0.164919
C	 1.0638560744	 2.3354840577	-0.0298044026	 0.104536
C	 2.5201050299	 2.3556246709	 0.3812584772	-0.226661
C	 3.2167920578	 1.1648060524	-0.2805906482	-0.088862
O	 2.7419646511	 1.5804334423	-1.5971335083	-0.272501
C	 2.1278443266	 2.7202666108	-1.0250192353	 0.035093
H	-0.4288615089	 3.9996948867	-0.1554064646	 0.130004
H	 0.0078333295	 3.5447996175	 1.5284920756	 0.128553
H	 2.881470577	 2.9504824628	 1.2093706263	 0.115813
H	 4.3084400779	 1.2227530928	-0.2369948159	 0.121642
H	 2.8683645816	 0.1635557939	-0.0150064413	 0.143667
H	 2.1130805402	 3.6480300169	-1.5863214462	 0.121015
