19
gdb 95672	2.73168	1.28389	0.98539	2.1267	79.28	-0.2456	-0.0581	0.1875	1215.1672	0.160564	-423.052105	-423.043623	-423.042679	-423.085721	32.266	
O	 0.3961743609	 0.8156995147	 0.9397840437	-0.430118
C	 0.012360471	-0.2722199058	 0.0874597185	 0.082997
C	-1.5067717759	-0.4450870094	 0.0400327746	-0.213635
C	-2.2737546098	 0.6160449943	-0.7538100337	-0.226125
C	-2.2597391815	 0.3865996892	-2.2683100797	-0.296967
C	-0.9511218133	 0.6002385201	-3.0151912798	 0.356769
O	-0.9746551056	 1.0527498203	-4.1452637609	-0.319873
C	 0.3756236919	 0.2472344123	-2.4417642596	-0.142921
C	 0.762548278	-0.1200881197	-1.2121198297	-0.082455
H	 0.255723461	 1.6336785913	 0.4505319901	 0.284412
H	 0.422746521	-1.1544712919	 0.5943585727	 0.097981
H	-1.7382044175	-1.4394090917	-0.3641083584	 0.097823
H	-1.8413526279	-0.4426031986	 1.082659971	 0.11168
H	-3.3190670113	 0.6103758439	-0.4275009139	 0.110707
H	-1.8972814775	 1.619422733	-0.5141249521	 0.092471
H	-2.563932941	-0.6518255637	-2.4690734481	 0.124992
H	-2.9936265456	 1.0221210131	-2.7711732734	 0.124867
H	 1.1497495451	 0.3664182268	-3.1965371589	 0.111604
H	 1.8342766682	-0.255935898	-1.0722929825	 0.11579
