15
gdb 32306	2.70961	1.57877	1.00392	1.9848	72.44	-0.2211	-0.0324	0.1887	1115.2255	0.114754	-453.99947	-453.991877	-453.990932	-454.031739	28.221	
C	 0.0579058959	 1.3926671805	 0.0070091005	-0.246502
O	-0.0131777337	-0.0226404624	 0.0033076726	-0.236591
C	-1.2361092167	-0.5851899686	 0.0112874958	 0.205723
C	-2.4383627367	 0.0642766846	 0.0227776876	-0.130139
N	-3.6599964693	-0.5717685609	 0.0302524391	-0.275802
C	-3.6381325051	-1.8617213168	 0.0257446854	 0.096531
N	-2.4892477629	-2.5951262343	 0.0144560916	-0.344515
C	-1.1950433268	-2.0518664015	 0.0066912887	 0.3836
O	-0.2088889139	-2.7589211403	-0.0043829441	-0.373263
H	 1.1194017452	 1.6418892992	-0.0005452201	 0.145248
H	-0.4246881735	 1.8193828573	-0.8816389721	 0.129877
H	-0.4107087602	 1.8140001645	 0.9056509099	 0.129872
H	-2.48761672	 1.1470294159	 0.0265416233	 0.113097
H	-4.5651338328	-2.4279439709	 0.0309022267	 0.134922
H	-2.5235772295	-3.6064195661	 0.0111512251	 0.267944
