18
gdb 81831	2.23198	1.66478	1.18231	0.6721	78.12	-0.2077	0.0295	0.2373	1091.3511	0.145222	-401.854444	-401.845515	-401.844571	-401.887531	34.366	
C	-0.2575143003	 1.4886702396	-0.0854342013	-0.323441
N	 0.0553451729	 0.0689321678	-0.0824090637	-0.087027
C	 0.6906433475	-0.5092234398	-1.2631538564	-0.101615
C	 2.1370699791	-0.0709185927	-1.4468825875	-0.335063
C	 1.8059455371	-1.1076444798	-0.4244468214	 0.383851
O	 2.4226146475	-2.3366973508	-0.4318708797	-0.456528
C	 1.1529186162	-0.4533807118	 0.8148297352	-0.239132
C	 1.9435371947	 0.5004443081	 1.5720055554	 0.350164
C	 2.5925697061	 1.2999107475	 2.1940166531	-0.475732
H	 0.5898151052	 2.1442025376	-0.3413445218	 0.106228
H	-1.056926414	 1.6623752645	-0.8131520232	 0.119392
H	-0.6268400048	 1.7832545859	 0.900933933	 0.12615
H	 0.0949545059	-0.926299605	-2.0676890709	 0.098863
H	 2.6136496118	-0.4820481632	-2.3313780282	 0.122258
H	 2.4794065051	 0.9185063941	-1.1577324078	 0.121566
H	 1.7957684709	-2.9968782553	-0.1140087977	 0.288463
H	 0.7329141703	-1.2050876718	 1.4970098741	 0.101093
H	 3.1724519587	 1.9971464549	 2.7468352587	 0.20051
