18
gdb 73598	2.25733	1.65295	1.31199	4.5164	76.01	-0.2466	0.0277	0.2743	1050.3484	0.148434	-401.957721	-401.949436	-401.948492	-401.990506	31.17	
C	 0.1011431511	 1.5673345065	-0.1187016116	-0.482686
C	-0.0233388606	 0.0753163368	 0.0702206287	 0.265425
C	-1.3897778247	-0.5831050447	-0.1030094298	-0.305428
C	-1.3292095482	-1.84728059	 0.7867270808	-0.102247
O	-0.1991130558	-1.6915206957	 1.6667352667	-0.253069
C	 0.6231781471	-0.6927260276	 1.1748077715	 0.085322
C	 1.1983030525	-0.8099486138	-0.248373452	-0.299931
C	 1.0988529916	-2.0083181331	-1.0243680571	 0.31973
N	 1.0121531711	-2.9717039037	-1.6610146617	-0.360065
H	 1.1019883896	 1.9224120031	 0.1454230532	 0.123381
H	-0.0880898935	 1.8524031617	-1.1593448113	 0.133378
H	-0.6205787242	 2.0981422138	 0.5119180007	 0.128191
H	-2.1546012436	 0.1166420863	 0.2482517503	 0.113686
H	-1.6180510193	-0.8346774779	-1.1424671384	 0.129072
H	-2.2177656538	-1.973362556	 1.4113011279	 0.115494
H	-1.1935140147	-2.7504022846	 0.1860964709	 0.14247
H	 1.2542794976	-0.2514689368	 1.9384440971	 0.117471
H	 2.1222249478	-0.2625880943	-0.410817386	 0.129806
