22
gdb 100839	2.73539	0.96763	0.80026	4.0538	80.54	-0.2487	0.0307	0.2793	1505.0527	0.191363	-441.508311	-441.497122	-441.496177	-441.545551	39.186	
C	-0.0183529715	 1.2959589637	-0.3138562539	-0.235944
O	-0.0222896563	-0.0396214941	 0.1322965056	-0.243672
C	-1.2890726376	-0.6836833346	 0.1000456454	 0.145025
C	-1.6863820182	-1.0871109924	-1.3207584163	-0.402986
C	-1.1583733657	-1.8938484145	 1.0527573009	 0.021013
C	-0.7587260923	-1.4712346032	 2.4680049991	-0.408506
N	-2.390871596	-2.6746743492	 1.0915906528	-0.281112
C	-2.5354418572	-3.8910956748	 0.5001284736	 0.153815
O	-1.7051232643	-4.4399920593	-0.1928285931	-0.324717
H	 0.9868365357	 1.6884122501	-0.1403901879	 0.128526
H	-0.24524046	 1.3868561038	-1.3855618389	 0.110809
H	-0.7403249421	 1.9125804462	 0.2446504335	 0.102093
H	-2.0521165732	 0.0028270417	 0.5123298916	 0.049687
H	-2.6740841417	-1.5537846437	-1.3278616991	 0.120747
H	-1.7278974775	-0.2145513579	-1.9785446629	 0.11097
H	-0.9659646264	-1.800864219	-1.72949282	 0.141419
H	-0.3983365338	-2.5598862519	 0.6344702062	 0.129883
H	-0.6024302395	-2.3487217353	 3.1012390003	 0.12105
H	 0.1593300517	-0.8837026216	 2.4373278733	 0.145076
H	-1.5399237417	-0.8522943149	 2.928197077	 0.102247
H	-3.1425421259	-2.3470012326	 1.6788865117	 0.242536
H	-3.5252493063	-4.3381543264	 0.723573911	 0.072042
