20
gdb 62228	3.87581	0.64554	0.59538	3.2334	83.45	-0.2525	0.0285	0.281	1855.2855	0.168758	-403.14554	-403.134913	-403.133969	-403.18283	37.378	
C	 0.1654964987	 1.4683409298	 0.2913224979	-0.387942
C	 0.0224958621	-0.0389459975	-0.0058080335	-0.159426
C	-1.4291386702	-0.5484503979	 0.1645598893	-0.183958
C	-1.9386929888	-0.4624155714	 1.6084358338	-0.171625
N	-3.2671575693	-1.0337020382	 1.75634751	-0.27872
C	-4.3554582048	-0.3037245829	 2.1226241535	 0.153982
O	-4.3496540137	 0.8779759358	 2.3948672453	-0.320731
C	 0.5084996117	-0.3477306174	-1.3499792817	 0.313125
C	 0.8898842274	-0.5909465669	-2.4639266764	-0.45463
H	 1.1976940564	 1.7927705083	 0.1385089559	 0.128603
H	-0.4760706736	 2.0532613763	-0.3745900774	 0.13158
H	-0.1130272428	 1.6939549264	 1.324135839	 0.125018
H	 0.6531348207	-0.5859389227	 0.710738612	 0.104596
H	-2.0953701247	 0.0210850277	-0.4930362451	 0.12137
H	-1.4714888218	-1.5912202984	-0.1721602972	 0.100831
H	-1.2389974289	-0.97428751	 2.2834219844	 0.107425
H	-2.0247466723	 0.5732324553	 1.9417734261	 0.155499
H	-3.4044444179	-2.0073177605	 1.5346607758	 0.246107
H	-5.2727206211	-0.9251214139	 2.1498657488	 0.074448
H	 1.236863313	-0.8089584019	-3.4434671304	 0.194447
