19
gdb 5947	2.92704	1.48232	1.27983	4.6585	71.71	-0.265	0.0346	0.2996	1054.5423	0.162559	-365.077244	-365.067559	-365.066614	-365.111484	34.682	
C	 0.1069778021	 1.3682340049	 0.0979833434	-0.245904
O	-0.0497888579	-0.0293475933	-0.0245694738	-0.270459
C	-1.3746777362	-0.561122446	 0.0068313301	 0.348739
C	-2.1537072724	-0.1236107555	 1.2548170774	-0.433046
C	-2.1396959803	-0.2040330773	-1.2773267955	-0.421888
C	-1.1288277147	-2.0909425615	 0.0209466752	-0.351904
C	-0.4332607622	-2.5551672111	 1.2191750026	 0.278437
N	 0.0988273836	-2.9341026691	 2.1721934535	-0.320677
H	 1.1749194401	 1.5653891777	-0.0211731367	 0.135588
H	-0.4354448905	 1.9265900295	-0.6778257422	 0.10612
H	-0.2057546175	 1.7418206916	 1.0817414092	 0.115557
H	-2.3823873954	 0.9448931605	 1.2253655625	 0.120641
H	-3.1055744344	-0.660308871	 1.3139402195	 0.120363
H	-1.5821595489	-0.3353735127	 2.1621127349	 0.150891
H	-1.5651917562	-0.5008942015	-2.1596030325	 0.125074
H	-3.1108186457	-0.7076617319	-1.305908801	 0.119239
H	-2.3283617891	 0.8710743478	-1.3364935722	 0.123386
H	-2.081613431	-2.623743187	-0.0615618353	 0.144358
H	-0.5252249334	-2.3512482243	-0.8543641493	 0.155485
