16
gdb 22538	2.04998	1.27259	0.89302	3.1735	70.13	-0.2504	-0.0459	0.2046	1285.2142	0.11929	-474.994766	-474.984624	-474.98368	-475.031256	34.166	
C	-0.1538907697	 1.5380120955	-0.0357408828	-0.49489
C	-0.0179754439	 0.0447871453	 0.0097374628	 0.326988
N	 0.3104422488	-0.6672045325	 1.0214872716	-0.151017
O	 0.5162825924	 0.0864196605	 2.1750741204	-0.390398
C	-0.2362933443	-0.7465893086	-1.2652722717	-0.254729
C	 1.0412198177	-0.6566518086	-2.1060210029	 0.169054
O	 1.249388298	 0.2260914293	-2.8957493111	-0.2505
C	-0.6341625306	-2.1900197391	-0.98383762	 0.167734
O	-0.1389279055	-3.1350729781	-1.5398437774	-0.247619
H	 0.3598814492	 2.0042579494	 0.8044223215	 0.160042
H	 0.2499042548	 1.9182394233	-0.9787734984	 0.158787
H	-1.2122654894	 1.8233500534	 0.0056424244	 0.144483
H	 0.7807049949	-0.5833696093	 2.8153881832	 0.313493
H	-1.0449150267	-0.272497267	-1.8383816945	 0.130257
H	 1.7839672629	-1.4484507435	-1.8898231341	 0.119232
H	-1.4461338685	-2.3065850399	-0.2376504908	 0.099084
