17
gdb 11802	3.5269	1.75912	1.34619	3.6133	69.55	-0.2387	0.0364	0.2751	938.6416	0.141408	-363.87197	-363.86397	-363.863026	-363.904303	29.86	
C	-0.0915093873	 1.5688225688	-0.0147074754	-0.402965
C	-0.0029819486	 0.0502305988	 0.0296685514	-0.262883
C	 1.1268997672	-0.5902067959	-0.8265819569	 0.449491
O	 1.4330785617	-0.5960848062	-1.9888355604	-0.370894
N	 1.6858558504	-1.1615916043	 0.2931863108	-0.397809
C	 0.7164421507	-0.6150701514	 1.224347971	 0.431903
C	 1.0106318235	-0.0618136003	 2.5811497676	-0.326516
C	 0.1490017033	-1.3096488028	 2.4185001546	-0.331224
H	 0.8746922023	 2.0288179963	 0.2137477834	 0.126035
H	-0.3946121786	 1.8970827718	-1.0131195036	 0.138519
H	-0.8270557588	 1.9461227496	 0.7034380527	 0.116669
H	-0.9721967164	-0.4105614003	-0.1845365549	 0.103582
H	 2.5084113508	-1.7328332595	 0.4201463477	 0.248204
H	 2.0109191129	-0.1894046587	 2.982582582	 0.116998
H	 0.5279019647	 0.863882488	 2.8778058012	 0.122293
H	-0.9168769549	-1.228877486	 2.606417939	 0.121661
H	 0.581199427	-2.2607600779	 2.7127825499	 0.116937
