16
gdb 79285	3.03103	1.66499	1.50225	2.7275	66.94	-0.2223	-0.0193	0.2029	907.7988	0.127547	-437.887876	-437.881363	-437.880418	-437.918624	26.84	
O	 0.0630329478	 1.4006540406	 0.118783711	-0.445209
C	 0.0394708977	 0.0017207306	 0.0328457745	 0.172665
C	-1.3586751014	-0.5736468771	-0.2379552194	-0.115417
C	-1.4880893489	-0.6074984394	-1.7226173235	-0.02574
N	-0.2486327677	-0.0301441175	-2.2678736613	-0.328174
C	 0.6968215186	-0.5673964837	-1.2562853909	-0.211493
C	 0.3040990071	-2.058339366	-1.1293192308	 0.449617
O	 0.9996728219	-3.0384003187	-1.1289350578	-0.339221
C	-1.1800998237	-1.9125815771	-0.9855509213	-0.216262
H	-0.1590445118	 1.720639706	-0.7671725585	 0.290801
H	 0.5025565616	-0.3924893968	 0.9408021297	 0.102375
H	-2.1973387362	-0.4018392373	 0.4224614139	 0.110503
H	-2.4137312076	-0.4414706683	-2.255800554	 0.112155
H	-0.0407697677	-0.4169157928	-3.1861663962	 0.232945
H	 1.7419162572	-0.3345037089	-1.4376722177	 0.097324
H	-1.8644416268	-2.7438028135	-0.9000696178	 0.113131
