23
gdb 120880	4.67071	0.78997	0.74463	0.79	87.52	-0.2435	0.0898	0.3333	1642.08	0.204706	-388.255764	-388.245946	-388.245002	-388.29071	36.475	
C	 0.0252686734	 1.380476592	 0.035194821	-0.22274
O	-0.0254400163	-0.021644197	 0.1186780853	-0.232528
C	-1.3185100318	-0.5432878819	-0.1137398971	-0.071166
C	-1.2522585467	-2.0525865488	 0.0235164274	 0.012318
C	-0.9911776437	-2.6772850086	 1.4347546382	-0.301344
C	-2.2657740001	-3.5269987264	 1.282026465	 0.375344
C	-2.3865447669	-4.9648187151	 1.6974192382	-0.4966
C	-3.444842009	-2.6100790878	 1.124955408	-0.32655
C	-2.5548430752	-2.8571648837	-0.0693571199	-0.127572
H	 1.0568341433	 1.6853349712	 0.2295222039	 0.124143
H	-0.2695584104	 1.7433472141	-0.9628862265	 0.100522
H	-0.6321036581	 1.860650126	 0.7782509237	 0.100347
H	-2.0367318079	-0.1116005734	 0.6038155243	 0.080283
H	-1.669744718	-0.2672963546	-1.1242288265	 0.080519
H	-0.5124762804	-2.4266412044	-0.6902321363	 0.079767
H	-0.0736670676	-3.2694774437	 1.4642581276	 0.100867
H	-0.979653608	-1.9799709133	 2.2792178233	 0.092986
H	-2.408733721	-5.0624326927	 2.7901125325	 0.118061
H	-3.3064891921	-5.4147268873	 1.3090495478	 0.114595
H	-1.5418521278	-5.5600377834	 1.3311153885	 0.114135
H	-4.410662756	-3.1044663996	 1.0749093094	 0.105299
H	-3.4750194756	-1.642856535	 1.6215722866	 0.101221
H	-2.9489743542	-3.3000408766	-0.9776127846	 0.078094
