17
gdb 48541	2.86181	1.50712	1.4817	2.8813	72.79	-0.245	-0.0355	0.2095	973.1772	0.136383	-421.782671	-421.775465	-421.774521	-421.814765	27.75	
O	-0.1247123172	-0.0376425587	-0.0291169121	-0.251409
C	-0.0303427909	 1.1657589491	-0.0765693457	-0.003778
C	 1.2451647853	 1.9086770758	-0.0380314094	 0.259037
C	 1.702932271	 2.9550892604	 1.0805997005	-0.114484
C	 2.9789797839	 2.0928857372	 1.2854637473	-0.238628
C	 2.6927802815	 1.3593924293	-0.0436258371	 0.048074
O	 3.0384947855	 2.182786008	-1.1849777521	-0.301301
C	 1.8078391546	 2.9244025996	-1.0952321899	 0.053613
C	 1.8721401074	 4.0316560604	-0.0217853578	-0.238251
H	-0.9388990632	 1.8085805176	-0.1453360111	 0.071309
H	 1.1025838211	 3.2011013354	 1.9557421568	 0.085019
H	 3.9381477618	 2.6104142291	 1.3673954955	 0.108813
H	 2.8538993065	 1.4110191676	 2.1325629761	 0.114632
H	 2.9857548577	 0.318380259	-0.178334655	 0.100091
H	 1.3781110395	 3.1351954195	-2.076678734	 0.090998
H	 0.9873441597	 4.6744127837	-0.0805989209	 0.106872
H	 2.7719198857	 4.6521257869	-0.0060212511	 0.109393
