18
gdb 12834	3.18398	2.2175	1.70066	1.5827	74.12	-0.2288	0.0163	0.2451	836.9001	0.154708	-347.785788	-347.778616	-347.777672	-347.816729	28.67	
O	 0.1112904397	 1.445882926	 0.0126243171	-0.491031
C	 0.0836255178	 0.0222188271	-0.018806826	 0.370729
C	 0.1970023435	-0.5896975635	 1.4286556831	-0.287967
C	-1.3791587335	-0.6110869101	 1.4945900537	-0.326091
C	-1.3282539443	-0.4982590972	-0.0116970994	 0.302421
C	-1.6868749344	-1.05215922	-1.1634231073	-0.229066
C	-0.5681145353	-0.8716205469	-2.1888390017	-0.243019
C	 0.6887066863	-0.5740397174	-1.3072048146	-0.288877
H	 1.0135731361	 1.7114970691	 0.221419661	 0.274494
H	 0.6186586169	-1.5975744584	 1.4280218322	 0.104067
H	 0.7084147019	 0.0290462634	 2.1712532145	 0.092267
H	-1.86613002	-1.488928864	 1.9248038104	 0.107336
H	-1.7616767767	 0.28945206	 1.9830591835	 0.122789
H	-2.5822969033	-1.6292129199	-1.3669736322	 0.091682
H	-0.4327092301	-1.7729395304	-2.7965291629	 0.10006
H	-0.7774691903	-0.05344881	-2.8904298547	 0.113552
H	 1.3980045996	 0.1059750704	-1.7880886635	 0.089216
H	 1.2104439861	-1.5125269882	-1.0924227332	 0.097439
