12
gdb 21472	8.34667	1.23962	1.08391	2.8862	59.03	-0.2519	-0.0205	0.2314	996.5791	0.085947	-410.831592	-410.824865	-410.82392	-410.863533	23.235	
N	-0.0656000604	 1.2637846001	 0.1799887247	-0.424235
C	-0.0174932376	 0.025267695	-0.0298728172	 0.111136
O	-1.1535139907	-0.7088739794	 0.1805468252	-0.217077
C	-1.0829334123	-2.0551551027	 0.0907156258	 0.403942
N	 0.0409609049	-2.7625148026	 0.1476149178	-0.301184
N	-0.4072858865	-4.0136428566	 0.0343613363	-0.070122
N	-1.7147758166	-4.1689870075	-0.0775644257	-0.181755
C	-2.1813149161	-2.9209961625	-0.0468403466	-0.138898
H	 0.8345635097	 1.6868953443	-0.0380326234	 0.239593
H	 0.8245892793	-0.5764913343	-0.3773477891	 0.137157
H	 0.2228121999	-4.7985480343	 0.0465448683	 0.299284
H	-3.2322348835	-2.6985352794	-0.1195023361	 0.142159
