22
gdb 88985	3.81306	0.78552	0.75461	2.7346	84.	-0.2236	0.0845	0.3081	1628.3638	0.192422	-404.295979	-404.286075	-404.285131	-404.331565	36.286	
C	 0.4704303899	 1.3355006649	-0.6925914622	-0.419336
C	-0.1535589156	 0.2209758745	 0.1080504112	 0.075858
O	 0.6560598573	-0.9261003633	 0.3928422356	-0.263691
C	 0.1965025982	-0.1319723074	 1.4950196917	 0.072061
C	 1.2519107232	 0.5591322908	 2.3304873081	-0.275274
C	 2.0092350684	-0.4255744806	 3.2052786506	 0.03583
C	 2.7188431114	 0.0197978832	 4.4382503088	-0.265172
N	 1.563091173	-0.8642228811	 4.5316086252	-0.076407
C	 0.3498024978	-0.323487666	 5.1227788792	-0.315789
H	 1.4808054027	 1.569738933	-0.3525897122	 0.1285
H	 0.5293849574	 1.0501260653	-1.7481841941	 0.131112
H	-0.1414608627	 2.2418108136	-0.6259335872	 0.121631
H	-1.1666161584	-0.0374201655	-0.2098758472	 0.085724
H	-0.581556587	-0.6245890795	 2.083156592	 0.089823
H	 1.9745830018	 1.0578233228	 1.6772890514	 0.10942
H	 0.7784398802	 1.3409291943	 2.9343399239	 0.10218
H	 2.4530794422	-1.2368506368	 2.6300033107	 0.105736
H	 3.6784567291	-0.4059873813	 4.7209180517	 0.113291
H	 2.5832148018	 1.0618495409	 4.7308846228	 0.09963
H	 0.1859704131	 0.7523535983	 4.9498063589	 0.096896
H	-0.5193751215	-0.8699066308	 4.7413464582	 0.122609
H	 0.3936328178	-0.4785077794	 6.2058129329	 0.125367
