18
gdb 82672	2.76277	1.59677	1.21804	1.9558	82.92	-0.2389	0.0232	0.2621	1062.8022	0.147461	-364.725276	-364.717335	-364.716391	-364.7574	31.365	
C	-0.0173342393	 1.6349897713	-0.0806065863	-0.433684
C	 0.1020173184	 0.1220623014	 0.0199047557	-0.03626
C	 1.1317846843	-0.6872503382	-0.798561454	-0.040915
C	 2.532465317	-0.146449437	-0.4518098767	-0.247011
C	 2.2353217641	-0.7209932192	 0.9188839031	-0.080218
N	 1.2529293457	-1.7145384449	 0.3786238934	-0.195882
C	 0.768944338	-0.5440039458	 1.2232536783	 0.193521
C	 0.2284704912	-0.6902907351	 2.5321999245	 0.15772
C	-0.2482845596	-0.7730077384	 3.6339291546	-0.379573
H	 0.9435109488	 2.1365203697	 0.0644887132	 0.120061
H	-0.4116155931	 1.9317652787	-1.0585529881	 0.119126
H	-0.7053534231	 2.0121629457	 0.6830430754	 0.13075
H	-0.8793226966	-0.3464502763	-0.1105490816	 0.095019
H	 0.8929235445	-1.0514462406	-1.7954535594	 0.087083
H	 3.3091855827	-0.7349281382	-0.9469378365	 0.117988
H	 2.7440236378	 0.9198234267	-0.5710440694	 0.102862
H	 2.9295296225	-0.9919662529	 1.7062492542	 0.10268
H	-0.6664942632	-0.858577357	 4.6061442195	 0.186732
