20
gdb 106917	3.90941	1.10025	0.9897	3.4887	81.	-0.2499	0.0284	0.2783	1266.2787	0.172042	-403.166407	-403.15788	-403.156935	-403.199633	32.628	
C	-0.3189772095	 1.5047586323	-0.0985505531	-0.380303
C	 0.1424499534	 0.0478626985	 0.041547407	-0.286064
C	 0.8268672693	-0.4838677984	-1.1972338055	 0.340002
C	 0.043234991	-1.0565392485	-2.3421297195	-0.330225
C	 0.952007842	-1.958919858	-1.5220852504	-0.189836
C	 2.3095008775	-2.1533199086	-2.0875268856	 0.427825
N	 2.8650656965	-3.259162446	-2.3397917038	-0.553882
O	 2.8857104531	-0.9242236106	-2.3055365883	-0.253833
C	 2.172028785	 0.106674507	-1.6032945317	-0.149883
H	 0.5262811805	 2.1784580692	-0.275930769	 0.120479
H	-1.0157344057	 1.6181966686	-0.9354002822	 0.122697
H	-0.8244698533	 1.843663321	 0.8104781293	 0.118679
H	 0.8234803185	-0.0419282557	 0.8982598757	 0.103951
H	-0.7210830739	-0.5884297406	 0.2684020473	 0.103689
H	-1.0222194811	-1.1953596403	-2.1937788791	 0.119691
H	 0.3342286202	-0.8244250585	-3.3618450935	 0.12639
H	 0.527956543	-2.7477584137	-0.9162703191	 0.112948
H	 3.8138687724	-3.1080663289	-2.6867317342	 0.220304
H	 2.0932403137	 0.9705883407	-2.2708585768	 0.117801
H	 2.7515822375	 0.4002448805	-0.7177276775	 0.109569
