25
gdb 101233	3.37673	0.77803	0.68659	1.3258	89.69	-0.2522	0.0781	0.3303	1748.5324	0.22758	-389.489679	-389.478975	-389.478031	-389.52568	40.02	
C	 0.0295199342	 1.5444692532	 0.1470223253	-0.391394
C	-0.0825744684	 0.0166554565	 0.1081055004	-0.16723
C	-1.5136278568	-0.5235953917	-0.0758244158	 0.026443
C	-2.1237520948	-0.1201423696	-1.4258872257	-0.398143
C	-1.5405286007	-2.0432502934	 0.0939999332	 0.055221
C	-1.1900170232	-2.6599137704	 1.4803187045	-0.26141
C	-2.297003417	-3.7053538006	 1.2515865759	 0.138771
O	-3.0441855163	-4.0131010127	 2.406238005	-0.432939
C	-2.9139683768	-2.7728047787	 0.1737148063	-0.292876
H	 1.0603768769	 1.8559898367	 0.3433519685	 0.110421
H	-0.2757792483	 2.0028534006	-0.7985309438	 0.116723
H	-0.6000699399	 1.9663351257	 0.93881381	 0.112722
H	 0.5519388869	-0.3771635393	-0.6985097978	 0.088562
H	 0.3271922742	-0.3901313724	 1.0408657961	 0.098315
H	-2.1387315623	-0.0937081521	 0.7224199403	 0.062373
H	-2.1899212595	 0.9659567575	-1.5358854838	 0.112862
H	-1.5188230758	-0.5034936505	-2.2569524053	 0.108311
H	-3.1350365525	-0.5237694513	-1.5379800488	 0.114786
H	-0.9203103816	-2.502965852	-0.6863617227	 0.062131
H	-0.174121809	-3.0175359639	 1.6609110665	 0.095672
H	-1.4853390501	-1.9902197331	 2.2950837029	 0.108145
H	-1.88774812	-4.6160541941	 0.7898691925	 0.062915
H	-3.7087526579	-4.6682460926	 2.1704890497	 0.279669
H	-3.6736304041	-2.1315609435	 0.633783544	 0.101372
H	-3.3229335674	-3.2242013284	-0.7339812473	 0.088579
