23
gdb 68779	2.31395	1.43514	1.29197	1.7749	85.87	-0.2357	0.0799	0.3157	1182.4148	0.202498	-388.283574	-388.273423	-388.272479	-388.317436	39.231	
C	-0.109590077	 1.545336256	 0.0720514206	-0.502376
C	 0.1732128351	 0.0797806208	-0.0021800849	 0.354268
C	 0.6900095499	-0.7336992273	-1.196888281	-0.352074
C	 1.3127277169	-1.7692061511	-0.1799993631	 0.281685
C	 0.7586519409	-3.1894673369	-0.2492675686	-0.451463
C	 2.840663586	-1.7503582572	-0.2072895629	-0.451598
C	 0.7288945331	-0.8898046912	 0.9645221006	 0.329835
C	 1.206385942	-0.7650162895	 2.3762392106	-0.515117
O	-0.6897514826	-0.8120683818	 0.7326481554	-0.337363
H	 0.7372327293	 2.1244869619	-0.310639963	 0.120833
H	-0.9895376554	 1.8012292279	-0.5295392413	 0.130033
H	-0.3069790083	 1.8510464441	 1.1031763937	 0.1296
H	-0.0912966475	-1.1124142211	-1.8616310233	 0.099918
H	 1.45175078	-0.2166073955	-1.787244849	 0.09592
H	 1.0297542985	-3.6697339513	-1.196473999	 0.108172
H	 1.1579663694	-3.8113281846	 0.5607739246	 0.105899
H	-0.3309358234	-3.1777414754	-0.1686234005	 0.131984
H	 3.2331376814	-0.7300146226	-0.1302063583	 0.108738
H	 3.2607203259	-2.3349014235	 0.6191838598	 0.113077
H	 3.2159849424	-2.1814571363	-1.1419807384	 0.11559
H	 2.2856327362	-0.5879010431	 2.4145973381	 0.124052
H	 0.6987204842	 0.0614722044	 2.8808739959	 0.130505
H	 0.9959080633	-1.6812725569	 2.9401765538	 0.129883
