21
gdb 97776	4.46701	0.64403	0.61023	1.9648	91.03	-0.2404	0.0322	0.2726	1944.8037	0.178931	-387.062058	-387.051237	-387.050292	-387.098944	38.424	
C	-0.0339244109	 1.6519190592	-0.0130245754	-0.364937
C	 0.0066226806	 0.11340014	-0.0581937857	-0.320198
C	-1.3181527411	-0.4963256199	-0.0284429553	 0.14991
C	-2.4214491561	-0.9821424315	-0.0112104533	 0.054967
C	-3.7502490276	-1.5291673156	 0.0326617687	-0.236305
O	-4.2232166472	-2.2550351753	-1.1203693153	-0.282547
C	-4.0393242111	-2.9848958362	 0.0988714392	 0.410965
C	-2.9110882776	-3.9904732568	 0.0834231369	-0.456655
C	-5.3222447908	-3.4416293139	 0.7595699253	-0.451968
H	 0.9807972672	 2.0600076845	-0.0374191013	 0.115686
H	-0.5875478923	 2.0509046123	-0.8671076543	 0.131726
H	-0.5240857496	 2.0012231638	 0.8997227076	 0.128362
H	 0.5312453719	-0.2140179371	-0.9649599343	 0.134379
H	 0.6002826108	-0.2639253502	 0.7846393965	 0.130215
H	-4.5002819684	-0.8611269868	 0.4585612807	 0.101661
H	-2.0212097102	-3.5704212016	-0.3877124191	 0.138299
H	-2.655364368	-4.2992455689	 1.1026599305	 0.118848
H	-3.2137265908	-4.88468144	-0.4721774691	 0.122752
H	-5.7095238177	-4.3346416675	 0.2567132794	 0.126095
H	-5.1510042013	-3.6967207031	 1.8106905103	 0.121826
H	-6.0871660498	-2.6630820254	 0.706883678	 0.12692
