20
gdb 40186	3.3313	1.41118	1.19175	2.6406	77.88	-0.2238	0.0683	0.2921	1093.5376	0.173267	-403.103044	-403.095425	-403.094481	-403.135082	30.806	
C	-0.0215856148	 1.512377148	-0.0029588053	-0.29533
N	 1.2535873761	 0.7722138471	 0.0675027687	-0.338991
C	-0.0191128334	 0.0317537414	 0.0023539097	 0.323608
C	-0.3472761262	-0.7258223815	 1.269453378	-0.1294
O	 0.3389175216	-1.9676603763	 1.338670788	-0.251133
C	 0.2723627402	-2.7742113968	 0.2005959878	 0.139023
C	-1.0227683558	-3.1542314208	-0.4639805709	-0.32953
C	-0.0515076097	-2.2099922498	-1.1605397575	-0.071309
C	-0.4004192751	-0.7240134988	-1.262209117	-0.31425
H	-0.2783344343	 2.0690278573	 0.8951056756	 0.115008
H	-0.2888171591	 2.0126917865	-0.931412893	 0.106738
H	 1.7039703132	 0.7752874991	-0.8449932185	 0.224622
H	-0.0168009528	-0.1603651111	 2.1432304265	 0.116871
H	-1.4369970756	-0.8756082327	 1.3473327757	 0.086673
H	 1.0431196795	-3.5345405083	 0.2690376983	 0.100956
H	-1.1313191898	-4.1667506763	-0.8372596635	 0.110008
H	-1.9436973711	-2.7200682545	-0.0873266421	 0.113721
H	 0.5024581972	-2.6165644202	-2.0001647644	 0.089042
H	-1.474878489	-0.5999032508	-1.4507885692	 0.10852
H	 0.113297449	-0.2747714417	-2.1195420769	 0.095154
