19
gdb 87646	2.66479	1.2641	1.08981	4.0193	76.25	-0.2681	0.0112	0.2793	1207.0596	0.157615	-423.047335	-423.038241	-423.037296	-423.08114	33.65	
C	 0.1377326616	 1.5974813379	 0.2392108113	-0.405877
C	-0.0170490372	 0.0953786638	 0.1435403756	-0.078204
C	 1.1426093976	-0.7697735517	-0.3500324756	-0.367895
C	 0.7175683762	-0.8073926366	 1.0748344567	 0.452582
O	 1.5730153745	-0.2672786158	 2.1191868878	-0.26948
C	 1.1653149402	-1.2411817582	 3.0018746946	 0.452319
O	 1.4863377456	-1.370499046	 4.1388030615	-0.326231
C	 0.2489624615	-1.9386419912	 1.9871987362	-0.292081
C	-1.2252220576	-2.0441457981	 2.357833094	-0.409249
H	 1.133206999	 1.8649916151	 0.6032860388	 0.137011
H	-0.0092741188	 2.0686793005	-0.7379275432	 0.121579
H	-0.5931786788	 2.0249534341	 0.9334668237	 0.124277
H	-1.0090245392	-0.2480608893	-0.1425039735	 0.094178
H	 0.9333265126	-1.6282486715	-0.9801191391	 0.119776
H	 2.0769028945	-0.2621672602	-0.5684043631	 0.131232
H	 0.6545156458	-2.914421923	 1.7013549763	 0.116662
H	-1.635056848	-1.0691445602	 2.6365082436	 0.132067
H	-1.8115610871	-2.4352047063	 1.5206094239	 0.124851
H	-1.3524184423	-2.7222003432	 3.2062665104	 0.142483
