23
gdb 94187	2.62351	1.23022	1.07764	1.3125	85.46	-0.2501	0.0779	0.328	1264.6733	0.20496	-388.26547	-388.255773	-388.254829	-388.300215	37.354	
C	 0.0640132963	 1.5620304392	-0.0615527684	-0.461062
C	 0.0104843121	 0.0325759817	-0.0557387384	 0.312656
C	 1.0639331545	-0.573787093	-1.0459853811	-0.261078
C	 2.0679079683	-0.7173950116	 0.1292886733	-0.27619
C	 0.870629296	-0.5672378268	 1.1031129782	 0.117627
O	 0.9968200845	 0.2619060611	 2.2356929672	-0.432389
C	-1.3867870017	-0.5474889686	-0.1643767025	-0.038906
C	-2.598661678	 0.0468084857	 0.5123102851	-0.273256
C	-2.4945504728	 0.0584792482	-0.9929841978	-0.283445
H	 1.0947003546	 1.9178603379	 0.0139993555	 0.117686
H	-0.3559545922	 1.9620197736	-0.9896753781	 0.109659
H	-0.4797758582	 1.9893419349	 0.7844960348	 0.129056
H	 0.7435427927	-1.5417738032	-1.4410169696	 0.09511
H	 1.3644657215	 0.0597803978	-1.8839724007	 0.097302
H	 2.6579571799	-1.6354678524	 0.1879679481	 0.089308
H	 2.7413033039	 0.1401915254	 0.2067481212	 0.106458
H	 0.4762413818	-1.5554857906	 1.383917375	 0.057607
H	 1.5409364265	-0.1934360715	 2.8856028142	 0.282268
H	-1.3725279757	-1.6359825394	-0.1746567117	 0.071556
H	-3.3060683589	-0.6306892608	 0.9779981907	 0.106366
H	-2.4885427889	 0.9921250103	 1.0307061465	 0.115952
H	-2.3206862337	 1.0129757584	-1.4764610028	 0.111198
H	-3.1290076126	-0.6124283763	-1.5620528892	 0.10652
