19
gdb 39505	2.47389	1.81698	1.25406	1.6862	71.26	-0.2281	0.0727	0.3008	1025.8826	0.160854	-460.115946	-460.108329	-460.107385	-460.147837	30.246	
C	 0.0442726193	 1.4703537042	 0.0501375534	-0.359501
C	 1.3379036377	 0.7005210305	-0.0726943394	 0.061025
O	 2.2002363387	 0.8476520371	 1.0108782156	-0.245324
C	 3.0490780865	-0.2659156501	 1.268300034	-0.080609
C	 2.300093638	-1.5650671224	 1.5559164028	-0.091232
O	 1.3744229032	-1.4801784612	 2.6237754498	-0.256933
C	 0.2504302638	-0.6438073918	 2.4305538484	 0.028404
O	-0.3725908328	-0.8102711508	 1.1828713646	-0.254255
C	 0.0230911185	-0.0377504048	 0.0815999018	 0.102195
H	-0.075092848	 1.9931929441	 0.9932835537	 0.133834
H	-0.3675664215	 1.9858834861	-0.8102780318	 0.118247
H	 1.8390757695	 0.641634719	-1.0412694521	 0.087792
H	 3.739051852	-0.432230661	 0.4235422268	 0.089779
H	 3.6389150942	 0.0303499061	 2.1405872389	 0.117835
H	 1.8040611204	-1.9343010315	 0.6497866223	 0.112627
H	 3.0326973496	-2.3212040432	 1.8579143605	 0.111915
H	-0.4762596983	-0.9790490637	 3.1757092833	 0.112499
H	 0.512035379	 0.4048042896	 2.6053806828	 0.104386
H	-0.3460015499	-0.5281111762	-0.8143419155	 0.107315
