18
gdb 105924	3.69829	1.43823	1.34002	0.3314	73.23	-0.2425	0.0608	0.3034	1019.6268	0.148305	-401.855439	-401.848266	-401.847322	-401.887257	28.397	
C	 0.376930188	 1.3736011193	 0.3373087417	-0.382303
C	-0.2264460521	 0.0934632464	-0.2549525502	-0.323811
C	 0.5069921254	-0.3953635558	-1.4657513069	 0.370969
C	 0.6532646747	-1.8071033381	-1.917447199	-0.135044
C	 0.9712610142	-1.5627512092	-3.4125848772	 0.059052
O	 0.1345506681	-0.4722809199	-3.8627620366	-0.292201
C	 0.784751581	 0.3043569846	-2.8304722083	-0.000437
C	 2.0452132982	-0.596050219	-2.8456638566	-0.034294
N	 1.8567690368	-1.0646920855	-1.3976962859	-0.223745
H	 1.4243396201	 1.2131562456	 0.6088325137	 0.13594
H	 0.336374443	 2.2025404466	-0.3774313706	 0.114716
H	-0.1670038828	 1.6833444158	 1.2343359519	 0.115006
H	-0.2170050532	-0.7016752914	 0.4999809826	 0.111344
H	-1.2784894396	 0.2574086176	-0.5229167863	 0.110059
H	 0.2408198314	-2.6702569093	-1.4102758896	 0.100107
H	 1.0867469565	-2.3760794739	-4.1253289401	 0.092665
H	 0.7107303481	 1.3825201929	-2.9556340884	 0.089573
H	 3.0301061322	-0.3713317466	-3.2479736642	 0.092403
