14
gdb 131698	2.97529	1.39548	0.95552	3.6599	70.01	-0.2656	-0.0993	0.1663	1139.4135	0.101647	-466.151378	-466.143616	-466.142672	-466.184201	28.276	
O	 0.1244916359	 1.3722477185	-0.0333811259	-0.420341
C	 0.0077856282	-0.0173544384	-0.0469919982	-0.103303
C	-1.4191018144	-0.4878891728	-0.0263515778	 0.359192
N	-2.3560604248	 0.3945523659	-0.000194583	-0.315249
C	-3.6738701403	-0.0467565531	 0.0187268984	 0.449581
N	-4.6546219497	 0.757592612	 0.044563706	-0.519968
N	-3.77130198	-1.460318745	 0.0057477603	-0.266823
N	-2.7602395771	-2.3289289429	-0.02176454	-0.016585
N	-1.5718146407	-1.8813686298	-0.0384425525	-0.237755
H	-0.7787747993	 1.7238402606	-0.0142014412	 0.303772
H	 0.4861187653	-0.4538326723	-0.939484689	 0.133169
H	 0.5182458158	-0.4734318832	 0.8173943817	 0.133225
H	-5.551957533	 0.2736110825	 0.0554943265	 0.216416
H	-4.6778998159	-1.907291522	 0.0173174647	 0.28467
