14
gdb 129925	2.47958	1.84065	1.05761	5.5877	71.45	-0.1923	-0.0308	0.1615	1038.3187	0.10316	-470.03579	-470.028168	-470.027224	-470.067549	29.707	
N	-0.0002798	 1.4015027007	 0.1380025096	-0.586606
C	-0.037823038	 0.0213625539	 0.051852149	 0.184652
C	-1.173942872	-0.7421974194	 0.0408159874	-0.069665
N	-1.0903683773	-2.0979261803	 0.0049897361	-0.229762
N	 0.0535897309	-2.7907641287	-0.0116406299	-0.305524
C	 1.1611112277	-2.0984695081	-0.0016982919	 0.329695
O	 2.3258079206	-2.7721944635	-0.028551169	-0.390121
C	 1.2597238409	-0.6380268678	 0.0208969149	 0.260947
O	 2.3184716643	-0.0091282598	 0.0051586408	-0.41048
H	 0.9333796484	 1.7382255816	-0.0717299925	 0.265999
H	-0.7329484883	 1.9100593264	-0.3327602537	 0.245573
H	-2.1772636601	-0.3334050669	 0.0611666796	 0.124916
H	-1.9193293918	-2.6674437537	-0.0042586673	 0.280234
H	 2.1077745346	-3.7138048343	-0.054309013	 0.300142
