15
gdb 68775	2.57109	1.75031	1.26792	2.0295	61.21	-0.2588	-0.004	0.2548	969.6404	0.111203	-494.915926	-494.907633	-494.906689	-494.948785	30.662	
O	 0.1177521725	 1.351559832	 0.224240511	-0.459381
C	 0.0294719543	-0.0210935395	 0.0815502504	 0.308777
C	-0.3033062843	-0.8676439881	 1.2771827911	-0.382057
C	-1.2637602471	-0.8007655142	 0.099252151	 0.197263
O	-2.5144530283	-0.2280274478	 0.2168380841	-0.466481
C	-1.1065484391	-1.8686797587	-0.9317603996	 0.399735
O	-1.9767861223	-2.5874015853	-1.3407203511	-0.36375
O	 0.1705363575	-1.8900155233	-1.3893755069	-0.227033
C	 0.8927114662	-0.7087147991	-0.9718354891	-0.144549
H	-0.5279390032	 1.762343236	-0.3627359521	 0.300769
H	 0.2590301119	-1.7721606342	 1.4890915847	 0.128848
H	-0.6534860302	-0.3090328012	 2.1382256938	 0.144694
H	-3.1385801826	-0.8875915937	-0.1184608744	 0.304403
H	 1.0341774862	-0.0603042984	-1.8432706295	 0.125512
H	 1.8692153586	-1.0275163944	-0.5976060634	 0.133249
