14
gdb 129073	3.27508	1.49076	1.02445	3.3081	74.6	-0.2361	-0.0834	0.1527	1062.415	0.102617	-432.905951	-432.898618	-432.897674	-432.937646	27.713	
N	 0.0137534097	 0.9980984691	 0.0068635811	-0.587294
H	 0.0226954922	-0.0113471215	-0.0613463684	 0.293761
H	 0.8695213892	 1.5207919642	 0.0733029431	 0.267736
C	-1.1768925473	 1.6208267535	 0.0138895049	 0.260684
C	-1.2956334369	 3.0332686705	 0.1090882893	-0.013919
N	-2.4364512836	 3.6871966941	 0.1190817434	-0.190726
N	-3.6100834072	 3.0296112475	 0.0361856716	-0.238349
C	-3.5670836487	 1.7098900854	-0.0546555661	-0.021789
C	-2.4031694942	 0.9289148056	-0.072728165	 0.120942
C	-2.4789241259	-0.5235344397	-0.175930813	 0.089457
O	-1.5148053853	-1.27180192	-0.1977015331	-0.313298
H	-0.3989868453	 3.6464588724	 0.1801765965	 0.112587
H	-4.5365506209	 1.2185872035	-0.1193339987	 0.122925
H	-3.5078005957	-0.9342731444	-0.2367414957	 0.097284
