17
gdb 130951	6.14278	0.72856	0.68936	2.0946	76.37	-0.2447	-0.0322	0.2126	1579.5143	0.136657	-418.033833	-418.025371	-418.024427	-418.069014	29.528	
O	-0.2568740768	 0.0486689146	-0.0643118607	-0.231239
C	 0.0065860759	 1.213891954	 0.0801165609	 0.155218
C	 1.3697552005	 1.8267662221	-0.1450700277	-0.270574
C	 1.3143733501	 2.9811025686	-1.1608225514	-0.171046
N	 2.5631543383	 3.7153707762	-1.2177255183	 0.066052
C	 3.4710935367	 3.7515136854	-2.2255229835	-0.032612
C	 4.5076490339	 4.5564219344	-1.800908727	-0.233795
C	 4.1263075161	 4.9598747206	-0.505615184	 0.003594
N	 2.9488648001	 4.4482849499	-0.1539010173	-0.271994
H	-0.7742741272	 1.9414092636	 0.4054298263	 0.077984
H	 1.7166560845	 2.2482983639	 0.8072878017	 0.155095
H	 2.0688863065	 1.049003878	-0.4620512872	 0.128682
H	 1.1053410027	 2.6052245539	-2.165647835	 0.133588
H	 0.5177816427	 3.6821610613	-0.8900689049	 0.136111
H	 3.3076215966	 3.2153580305	-3.1472078318	 0.132591
H	 5.3996220326	 4.8144690363	-2.3477449349	 0.107855
H	 4.6551562965	 5.6033339769	 0.182247655	 0.114491
