19
gdb 38612	2.64806	2.19817	1.62665	1.4454	77.49	-0.2288	0.0902	0.319	889.7344	0.162954	-385.85399	-385.847619	-385.846674	-385.884303	27.445	
C	-0.0590208634	 1.4506775944	-0.1075039729	-0.397462
C	 1.3035763744	 0.7967351773	 0.0061030673	-0.023594
C	 2.189420165	 0.3240288968	-1.1447634793	-0.259224
C	 1.4827053843	-0.9266546564	-1.656776476	-0.068712
C	 0.8819774256	-2.0118815105	-0.7393639194	 0.099519
O	 0.9611248938	-2.0114919877	 0.6753177479	-0.271631
C	-0.0098972814	-1.0508396546	 1.1533420811	-0.162481
C	 0.0361324136	-0.0369101905	 0.0340399127	 0.290979
C	 0.0292168358	-0.8937666017	-1.2283406009	-0.182241
H	-0.3758066109	 2.0537459209	 0.737941535	 0.115724
H	-0.4056561202	 1.8235781104	-1.0672446605	 0.114459
H	 1.7976950573	 0.9521550785	 0.9596928389	 0.08695
H	 2.2822310468	 1.0563854345	-1.9573483418	 0.097666
H	 3.2036591879	 0.1226126846	-0.7825991029	 0.106095
H	 1.7397648186	-1.2945597379	-2.6474018004	 0.077754
H	 0.8328012042	-3.0131827488	-1.1550760604	 0.095838
H	-0.9867050629	-1.5401649765	 1.2789680517	 0.090605
H	 0.3312397376	-0.6740519394	 2.1210845008	 0.107638
H	-0.838823236	-0.9756075134	-1.8728699608	 0.082118
