16
gdb 8855	3.94984	1.22159	1.02957	1.4766	67.85	-0.2627	-0.0582	0.2045	1127.8875	0.126961	-383.71415	-383.704768	-383.703824	-383.748578	32.656	
C	 0.1958752426	 1.4137944206	 0.1395970129	-0.402572
C	-0.0619011977	-0.0975185755	-0.0203210974	-0.085993
C	-1.5533501694	-0.4286822907	-0.046212439	-0.087502
O	-2.0944493619	-0.0283915139	 1.2049850787	-0.428958
C	 0.6248921039	-0.6335697002	-1.2669149447	 0.223361
O	 0.0224655057	-1.0854118486	-2.2183898254	-0.29969
C	 2.0801163547	-0.5730599405	-1.2614124585	 0.262957
C	 3.283247582	-0.5342542804	-1.2444286947	-0.395813
H	 1.2642415291	 1.6278860631	 0.2218468195	 0.127405
H	-0.2011463088	 1.9669117635	-0.7184391382	 0.123312
H	-0.3081597594	 1.7688244884	 1.0400337137	 0.146863
H	 0.3888734701	-0.6070973409	 0.8426869448	 0.110106
H	-2.0320135995	 0.0984874036	-0.8840697574	 0.10162
H	-1.6901434152	-1.5051022207	-0.2196818884	 0.10101
H	-3.0423841708	-0.1863038768	 1.1843861544	 0.289612
H	 4.3459860346	-0.5060987208	-1.2456637204	 0.214281
