20
gdb 103273	3.40493	1.12886	1.04704	3.2206	75.15	-0.2385	0.0527	0.2912	1217.2685	0.170344	-440.228149	-440.21898	-440.218036	-440.261736	35.029	
C	-0.2288954409	 1.6600797339	-0.1296852923	-0.474835
C	-0.1128567391	 0.1496142834	-0.155110091	 0.293977
C	-1.2682155864	-0.5573194015	 0.5469704103	-0.103739
O	-1.2325852004	-0.3213321516	 1.9423811203	-0.423217
C	 0.53944489	-0.6482043562	-1.2191945133	-0.099686
C	 1.78042061	-0.0040714071	-1.8182044347	 0.087094
O	 1.535383542	 1.1159988677	-2.6406527631	-0.425635
C	 2.3009709951	 0.1735802423	-0.3620251315	-0.217289
N	 1.1301531854	-0.5871818183	 0.1961388628	-0.186655
H	 0.5742761802	 2.1662148208	-0.660751748	 0.135815
H	-1.1670299796	 1.9533112642	-0.6125145115	 0.122138
H	-0.2689940891	 2.0069881778	 0.9075407023	 0.128274
H	-2.2277418447	-0.1702165522	 0.1886050394	 0.105843
H	-1.230106063	-1.6340868949	 0.3246647429	 0.086704
H	-0.3601510121	-0.6200292467	 2.2280048897	 0.289454
H	 0.0879664652	-1.5568160485	-1.607590217	 0.089774
H	 2.3785154849	-0.7538955685	-2.3509457101	 0.086244
H	 2.3642833648	 1.3738027457	-3.0564708982	 0.287169
H	 3.2260643465	-0.3686209239	-0.1543363903	 0.107959
H	 2.3937752814	 1.1993730039	 0.0029407033	 0.110609
