16
gdb 49641	3.26488	1.58739	1.45437	2.9138	67.44	-0.2277	-0.0346	0.1931	926.6187	0.124394	-437.805221	-437.798302	-437.797358	-437.837056	26.497	
O	-1.0254775217	 1.5793880042	-0.3911612018	-0.24004
C	 0.0480970835	 1.0428904084	-0.3073790618	 0.142712
C	 1.3332192098	 1.7822562386	-0.0248399271	-0.07688
C	 1.3900628407	 2.8932507686	 1.0430735104	 0.081577
O	 0.7992823143	 2.4668191038	 2.2897618859	-0.296706
C	 1.9773056843	 1.70208853	 2.6421131393	 0.097815
C	 2.0029799501	 0.3613291058	 1.8962452522	-0.1967
N	 2.4741314413	 1.0288012505	 0.6198636052	-0.193484
C	 2.7584277641	 2.2939936813	 1.4455921243	-0.044173
H	 0.1705775128	-0.052899829	-0.4700110179	 0.090156
H	 1.7018336335	 2.1670750659	-0.9875563872	 0.121004
H	 1.142925263	 3.9254444271	 0.7921512131	 0.094835
H	 2.2145129003	 1.769865136	 3.7054835708	 0.089027
H	 2.7933460428	-0.3076341232	 2.2511268723	 0.118997
H	 1.0613666489	-0.1921044033	 1.8353541196	 0.11985
H	 3.7427193123	 2.7554000653	 1.4185935827	 0.092008
