22
gdb 12373	2.77643	1.92759	1.23921	0.2159	84.48	-0.2249	0.034	0.2589	1060.084	0.201738	-313.103226	-313.09488	-313.093936	-313.135478	32.787	
C	-0.0139952293	 1.57407196	-0.0352514624	-0.403138
C	 0.0384391257	 0.0370115619	 0.0268014226	-0.051539
C	 0.6531759391	-0.5223009762	-1.2688473626	-0.189864
C	 0.9698554339	-2.0148419211	-1.1618066494	-0.214967
C	 1.986094036	-2.2587055371	-0.0399491694	-0.239778
C	 1.6282295972	-1.4948685427	 1.2072005472	-0.15414
C	 0.7574585373	-0.4819648884	 1.2657181314	 0.337515
C	 0.4127155648	 0.1651083411	 2.5837545134	-0.480966
H	 0.995406883	 2.0010241906	-0.0268574179	 0.114643
H	-0.5055097553	 1.8980705642	-0.9587049477	 0.109479
H	-0.5689002534	 2.0049201674	 0.8023141784	 0.113057
H	-1.0047979251	-0.3153715762	 0.0889857145	 0.075473
H	-0.0259632293	-0.3261051412	-2.1067831433	 0.086762
H	 1.5806031958	 0.0264588735	-1.4857167287	 0.091642
H	 0.0471358832	-2.5673869138	-0.9414982621	 0.095167
H	 1.3490138245	-2.3999146382	-2.114711589	 0.08742
H	 2.0512319557	-3.329568111	 0.1914851717	 0.096614
H	 2.9943704442	-1.972849476	-0.3774576077	 0.102138
H	 2.1125414578	-1.818829531	 2.1272479713	 0.069483
H	 0.8937595925	-0.3556521377	 3.4160494215	 0.115108
H	 0.7210930715	 1.2164894515	 2.6227485418	 0.123257
H	-0.6712732395	 0.1533454005	 2.7603608966	 0.116633
