18
gdb 68322	3.08823	1.17459	1.0044	1.9401	78.28	-0.2483	0.0526	0.3009	1218.2977	0.146549	-401.830824	-401.822279	-401.821335	-401.86432	32.886	
O	 0.1502729603	 1.2265412481	 0.129570876	-0.457895
C	 0.1398202163	-0.1531400799	 0.0722252842	 0.343456
C	 0.5231207856	-1.1227014797	-1.0785640021	-0.235791
N	-0.0014794883	-2.0681700258	 0.0121729087	-0.158009
C	 0.8237923439	-1.2070712406	 0.9821032631	-0.249083
C	-1.1282744847	-1.0223952141	 0.1827950497	 0.046481
C	-2.0001913288	-1.1172681819	 1.4367971351	-0.410538
C	-3.0683524499	-0.1243215681	 1.4233456176	 0.308004
C	-3.9479261801	 0.6935009705	 1.3899805382	-0.444711
H	 1.0585428885	 1.5359839897	 0.0399824356	 0.283491
H	-0.0863790449	-1.1173383597	-1.9854883959	 0.107654
H	 1.5832150508	-1.2713729126	-1.2994112294	 0.098265
H	 1.9013980887	-1.3547756926	 0.8704531688	 0.099003
H	 0.5298395204	-1.2910302929	 2.0282121262	 0.107134
H	-1.7777628102	-1.0028903056	-0.6973477399	 0.088093
H	-2.4330484475	-2.1260802889	 1.4660312488	 0.145389
H	-1.4161469506	-1.0072421399	 2.3554926105	 0.133035
H	-4.7219490596	 1.4198044238	 1.3704414547	 0.196021
