17
gdb 40206	3.12656	1.59348	1.27513	0.9895	67.26	-0.2488	0.0515	0.3003	994.7257	0.136658	-458.916142	-458.908914	-458.90797	-458.948072	27.785	
C	 0.2263190732	 1.4792465126	-0.024051709	-0.248254
O	 1.2123188735	 0.4466785093	 0.0956683558	-0.27173
C	-0.1627754441	 0.0718394638	-0.0303361686	 0.409776
C	-0.8123422276	-0.6734664578	 1.1239194719	-0.167489
O	-0.8640137446	-2.0396426093	 0.7050456939	-0.268096
C	-0.9893455959	-2.0828521045	-0.7021980533	 0.067881
C	-2.3726277443	-1.7238408069	-1.2881090529	-0.108303
O	-1.8966090406	-0.4229507041	-1.7120273701	-0.294867
C	-0.5514929364	-0.7087013999	-1.2660271818	-0.014004
H	 0.0653483381	 2.076247148	 0.8729101472	 0.119497
H	 0.2395979915	 2.039766462	-0.9573725384	 0.125601
H	-0.2216394897	-0.6142406336	 2.0405036703	 0.129067
H	-1.8227445776	-0.2846395206	 1.3184088526	 0.108207
H	-0.5196630564	-2.9990054961	-1.0600859152	 0.101103
H	-2.6925487285	-2.3343698642	-2.1409257918	 0.107202
H	-3.1862089039	-1.6584660361	-0.55699762	 0.112356
H	 0.1901765931	-0.6429897525	-2.0661841705	 0.092052
