17
gdb 20004	4.00368	1.32566	1.08816	2.8147	71.76	-0.2399	-0.0286	0.2112	1087.8598	0.141037	-363.819263	-363.811435	-363.810491	-363.852049	28.771	
O	-0.050283289	-0.020476046	-0.5657309024	-0.265867
C	-0.0316928155	 1.0933906298	-0.1020171915	 0.163502
C	 1.211696283	 1.8838275209	 0.0793504958	-0.088519
C	 1.1428967221	 3.3732740428	-0.1470955535	-0.253696
N	 1.3702385869	 2.8585281799	 1.1763256019	-0.081928
C	 0.3416335189	 3.0242158574	 2.1729967793	 0.062508
C	 0.5223033468	 2.2816009492	 3.4669355584	-0.274646
C	 0.7397671818	 3.7750988011	 3.4158726067	-0.272514
H	-0.970213486	 1.6025813612	 0.209186002	 0.071917
H	 2.1182183536	 1.3463675807	-0.1852249634	 0.114112
H	 1.978599651	 3.8659051057	-0.6367439262	 0.13251
H	 0.1630807384	 3.7940868335	-0.3754897069	 0.120022
H	-0.6785871144	 3.1762097696	 1.8207763415	 0.085485
H	-0.3607960276	 1.8969804374	 3.9640609496	 0.118407
H	 1.4017510322	 1.6536058237	 3.5483915895	 0.127709
H	 1.7625718044	 4.1301806829	 3.4592056791	 0.125994
H	 0.0054124636	 4.4257892101	 3.8769968199	 0.115001
