19
gdb 90786	3.91873	1.33889	1.2293	0.6101	74.07	-0.2192	0.0801	0.2993	1068.9872	0.159507	-422.997263	-422.989456	-422.988512	-423.029061	31.45	
C	-0.041644892	 1.5482722199	-0.0251784781	-0.403691
C	 0.0152773107	 0.0261706002	 0.0387611927	 0.135599
O	 0.7277883544	-0.5024016208	-1.1014498067	-0.28188
C	 2.0103934404	-0.8797022548	-0.6516445257	 0.028004
C	 2.2737643027	-0.486620927	 0.7663408657	-0.178185
C	 0.7925406135	-0.5308614335	 1.2386008444	-0.067676
C	 0.839522624	-2.0943312301	 1.1741653513	-0.310457
C	 2.1506578912	-1.9654491336	 0.4016770695	 0.341472
O	 3.1735882958	-2.8949127982	 0.3886498359	-0.460814
H	 0.9620027328	 1.9789612001	 0.0525269405	 0.121064
H	-0.477174096	 1.8692164276	-0.9754199066	 0.124692
H	-0.6548196525	 1.9497193955	 0.7889900761	 0.109707
H	-0.9986877091	-0.390031147	-0.0010635985	 0.08048
H	 2.7851699594	-0.8065560826	-1.4060686424	 0.102395
H	 3.0958205988	 0.1074489745	 1.1411432579	 0.095349
H	 0.5349924328	-0.0861567055	 2.1985966457	 0.077147
H	 1.014186709	-2.5301713798	 2.1609085933	 0.107153
H	-0.00140391	-2.6014234578	 0.6871877567	 0.092604
H	 3.014296034	-3.5107522073	-0.3355731316	 0.287038
