16
gdb 56560	2.94018	1.16346	0.8661	3.4803	67.91	-0.2601	0.008	0.268	1264.6982	0.121822	-475.013343	-475.003757	-475.002812	-475.047895	35.374	
N	 0.06544027	 1.2919658661	 0.0915286733	-0.513498
C	 0.0961577537	-0.054755164	 0.0007010183	 0.361776
O	 1.1160037937	-0.7140343561	-0.1369369346	-0.381032
C	-1.2637127768	-0.7902766219	 0.0306691446	 0.033339
O	-1.0180830826	-2.1618360947	 0.0016607359	-0.42699
C	-2.1054098074	-0.4248729132	 1.2880097504	-0.09079
O	-2.4668428278	 0.9659295104	 1.2735655397	-0.424918
C	-3.2931388255	-1.2652420056	 1.3889776658	 0.313294
C	-4.3131506155	-1.8980889589	 1.4415954598	-0.433221
H	 0.9453608162	 1.7781951935	 0.1614154542	 0.263558
H	-0.7842958123	 1.7354119457	 0.4121794689	 0.274358
H	-1.8462319593	-0.4704322805	-0.8499474817	 0.090548
H	-0.0488368446	-2.2292211198	-0.0858165534	 0.297917
H	-1.4772045863	-0.5643154519	 2.1752247892	 0.132474
H	-3.3039732092	 1.0389109737	 0.8014702713	 0.295964
H	-5.2002838964	-2.4798279127	 1.4974922282	 0.207223
