21
gdb 116515	2.91636	1.16259	0.90434	2.0286	74.71	-0.2585	0.0783	0.3368	1314.8142	0.184258	-461.358209	-461.349404	-461.348459	-461.392017	33.331	
O	 0.105995218	 1.4020560768	 0.279036471	-0.426556
C	 0.0757125483	 0.0100314244	 0.0546525719	-0.066968
C	-1.3568934314	-0.5103091811	-0.0632113604	 0.088673
C	-1.4096066475	-2.0355559615	-0.2036933423	-0.194919
C	-2.7368371794	-2.6268553918	-0.7276748977	-0.22418
C	-3.9996141757	-1.8345371849	-0.354148543	-0.075208
O	-3.9931335527	-1.3346307977	 0.9770995674	-0.228863
C	-3.4032998197	-0.0750587465	 1.1197513517	 0.00702
O	-2.0002361643	-0.0860782749	 1.1464088586	-0.262926
H	-0.5201569059	 1.5568027256	 0.9971093637	 0.285426
H	 0.6133726919	-0.1809747797	-0.8796705832	 0.1064
H	 0.5890326329	-0.5436950958	 0.8585246062	 0.089875
H	-1.8369826727	-0.0072749341	-0.9184045548	 0.071941
H	-0.5940413856	-2.3630301451	-0.8598650618	 0.099564
H	-1.1937188047	-2.4411818244	 0.7897407765	 0.120247
H	-2.7137129951	-2.6976379774	-1.8223939522	 0.101497
H	-2.8266695047	-3.6537001838	-0.3579718094	 0.109719
H	-4.142335262	-0.9961423488	-1.0527154941	 0.092995
H	-4.8804483532	-2.4788326006	-0.4408531803	 0.109176
H	-3.755917818	 0.5937125901	 0.3130087525	 0.081242
H	-3.7139029885	 0.3102583914	 2.0938280697	 0.115844
