22
gdb 98842	3.10717	1.0154	0.94378	3.324	83.92	-0.2401	0.0301	0.2702	1393.7891	0.193871	-404.378528	-404.368291	-404.367347	-404.414757	36.678	
C	-1.0395828302	 1.6100569317	-1.0380229384	-0.333929
N	-1.0190179697	 0.1711933265	-0.8655275253	-0.319462
C	-1.3579026524	-0.4393103341	 0.3092220376	 0.419273
O	-1.6895055779	 0.1864458467	 1.3046538392	-0.385726
C	-1.3311505293	-1.9560433406	 0.2720820842	-0.106387
C	-1.1324664283	-2.6767298657	 1.6287095383	-0.227358
C	-2.2704436611	-3.6637205997	 1.2623077241	-0.224982
C	-2.714590354	-2.7064926785	 0.1168357049	 0.014328
C	-3.9600264606	-1.8825927224	 0.4260693861	-0.396502
H	-0.0448260277	 1.9988952977	-1.2840268706	 0.12345
H	-1.7367875052	 1.9093835074	-1.8289548454	 0.122838
H	-1.3664706266	 2.0427423534	-0.0918349598	 0.171503
H	-0.7465184589	-0.4059683921	-1.6433681543	 0.242667
H	-0.6257398773	-2.309075254	-0.4872889056	 0.059
H	-0.1427181652	-3.0967879129	 1.8211655054	 0.093472
H	-1.4000246848	-2.0052619732	 2.4467956457	 0.131456
H	-1.8965068171	-4.6198947524	 0.8857986794	 0.094704
H	-3.0161597059	-3.8668652588	 2.0357183941	 0.097328
H	-2.8307612771	-3.1901311986	-0.8580134747	 0.064414
H	-3.8592113123	-1.3427945644	 1.3713483478	 0.143379
H	-4.1527629814	-1.1400400375	-0.3560370383	 0.109986
H	-4.8363370072	-2.5369168584	 0.4903709155	 0.106548
