16
gdb 55599	3.58844	0.94056	0.78513	5.0093	68.71	-0.248	-0.0187	0.2293	1392.9388	0.124716	-471.277098	-471.267945	-471.267001	-471.311933	32.412	
N	 0.8047443285	 0.7648145971	 0.0401657486	-0.507084
C	-0.0549699158	-0.1871447112	 0.4737424922	 0.419495
O	-0.0634070648	-0.5795063453	 1.6337758711	-0.378937
C	-1.0378610065	-0.7160411812	-0.567862721	-0.379768
C	-1.0757770663	-2.2338919458	-0.6844423159	 0.361685
N	-1.078398472	-2.7671071348	-1.8351628574	-0.498457
N	-1.1481203625	-2.88352706	 0.5601550849	-0.33331
C	-1.2591000895	-4.2339808845	 0.7596927994	 0.160164
O	-1.3771627056	-5.0749454795	-0.1056417841	-0.305739
H	 1.4792160151	 1.1340516817	 0.6913485358	 0.270388
H	 0.8579344764	 1.0409427725	-0.9242029336	 0.273449
H	-2.0298495064	-0.3687442218	-0.2505572842	 0.1564
H	-0.8497363726	-0.3251008281	-1.5677845303	 0.135225
H	-1.153225794	-3.7824519107	-1.7531154129	 0.252905
H	-0.9658084953	-2.284755914	 1.3639817991	 0.277696
H	-1.2362376688	-4.4852513444	 1.8369508484	 0.095887
