16
gdb 131790	5.06072	0.90325	0.77539	3.2409	72.98	-0.238	-0.0746	0.1634	1399.4979	0.124998	-434.068988	-434.060794	-434.05985	-434.10296	29.197	
O	 0.0179413009	 1.4748886061	 0.2408671758	-0.418023
C	-0.1121508359	 0.0930569097	 0.5369659356	-0.065413
C	-1.0189736749	-0.6103970657	-0.4762913111	-0.294279
C	-1.1725401697	-2.0951258129	-0.2817671721	 0.392284
N	-2.058143061	-2.7277792216	-1.0752129199	-0.262842
C	-2.1551078817	-4.0315958356	-0.8835600453	-0.00767
C	-1.3795376703	-4.6713365741	 0.0861145347	 0.015818
N	-0.5270000932	-3.993155524	 0.8442085875	-0.163733
N	-0.4206505494	-2.6795097999	 0.6565673394	-0.236892
H	-0.8357098492	 1.8934206288	 0.3902580796	 0.280991
H	 0.89601971	-0.3253046994	 0.4946248386	 0.132669
H	-0.4797827192	-0.0748232449	 1.5587811001	 0.103851
H	-2.0235212462	-0.1665240457	-0.4633845355	 0.118606
H	-0.6363236482	-0.4299904122	-1.4887065011	 0.140871
H	-2.8583079281	-4.5833621348	-1.5039973589	 0.13146
H	-1.4402349339	-5.7401801739	 0.2640479025	 0.132302
