21
gdb 78419	4.94519	1.21236	1.18935	0.1893	86.36	-0.2453	0.1065	0.3518	1140.7018	0.185235	-349.899415	-349.892401	-349.891457	-349.930368	29.844	
C	 0.0062127079	 1.5452979513	 0.0311697642	-0.426215
C	 0.0156329567	 0.0324065447	 0.0225147146	-0.013821
C	 1.3164559311	-0.6904663907	-0.2530085526	-0.075777
C	 0.7219974026	-0.7021398551	 1.1414813525	-0.075775
C	 0.4449372402	-2.1901748575	 1.3153520075	-0.017508
C	-0.0680993954	-2.7889055856	-0.0367976511	-0.063944
C	 0.674657401	-4.1091241574	 0.2687799338	-0.25723
C	 1.6502017109	-2.9930987793	 0.6939883283	-0.052718
C	 1.2590230907	-2.1741882556	-0.5943472542	-0.017507
H	 0.9432230603	 1.9450860825	 0.4338878164	 0.112718
H	-0.1176450195	 1.9474383523	-0.9805419656	 0.116027
H	-0.8117862291	 1.9337992328	 0.6480678737	 0.116027
H	-0.8945887113	-0.4130827359	-0.3692354492	 0.080588
H	 2.2007219256	-0.112906663	-0.5007530139	 0.076895
H	 1.1521004029	-0.1334973716	 1.959122056	 0.076895
H	-0.0014724344	-2.5430190758	 2.2471961203	 0.058672
H	-1.0675894037	-2.6824709492	-0.4619797016	 0.067143
H	 0.2581727635	-4.7322689826	 1.0655537238	 0.086851
H	 0.9648365492	-4.7183934512	-0.5921521376	 0.086851
H	 2.6507354555	-3.0980267757	 1.1196273254	 0.063155
H	 1.6242925944	-2.5110938073	-1.5665545588	 0.058672
