22
gdb 109859	2.28174	1.41147	1.03685	2.5373	81.84	-0.2234	0.0692	0.2926	1249.3689	0.192991	-404.304812	-404.294964	-404.29402	-404.339107	37.023	
C	-0.7864855666	 1.4640529545	 0.0350550688	-0.408057
C	-0.2484381951	 0.0488061125	-0.0883905929	 0.06704
C	 0.6041560706	-0.3940752147	-1.3199897131	-0.068336
C	 0.9257622864	 0.5720219488	-2.4462096343	-0.103294
O	-0.2717045436	 0.7719659339	-3.1883510281	-0.422009
C	 1.7023448138	-0.7566474241	-0.3141979321	 0.333462
C	 2.5071857043	-2.0229828789	-0.3546384881	-0.493233
C	 2.0464468662	 0.4057326874	 0.5311278143	-0.296107
N	 0.8387887801	-0.3696188829	 0.8806512154	-0.183406
H	-0.0111655087	 2.2286329653	-0.0694713576	 0.108468
H	-1.531909234	 1.643977403	-0.7449890258	 0.132426
H	-1.2597243275	 1.6017026049	 1.0126395265	 0.121265
H	-1.0760052726	-0.6500276507	 0.0590335875	 0.084553
H	 0.1735639422	-1.2923653651	-1.7725156531	 0.083278
H	 1.3075351107	 1.5252991921	-2.0525512945	 0.083389
H	 1.720541836	 0.1414292825	-3.0781510096	 0.08626
H	-0.0972002516	 1.423519197	-3.8737627283	 0.287186
H	 3.2635695544	-1.9824808025	-1.1477885188	 0.118037
H	 3.0235890804	-2.1839636993	 0.5961075522	 0.1282
H	 1.8678403188	-2.8919683455	-0.545107159	 0.121312
H	 2.8454237802	 0.2707420974	 1.2546108098	 0.115089
H	 1.9556732756	 1.4230984044	 0.1621047806	 0.104479
