21
gdb 109719	1.88058	1.18796	0.88056	1.845	88.4	-0.2336	0.047	0.2806	1446.7768	0.180477	-387.055372	-387.044565	-387.043621	-387.092502	38.027	
C	-0.0889846752	 1.4427276925	-0.2440250231	-0.499922
C	-0.1143732793	-0.0114582044	-0.160996911	 0.048376
C	-0.1157375168	-1.2159759629	-0.081978053	 0.080638
C	-0.127152974	-2.6507356673	-0.0230764504	-0.221253
C	-0.4736803589	-3.3975368215	 1.2649227064	-0.033322
C	-0.6949878355	-2.6693601774	 2.5725547581	-0.41284
C	-1.4569692171	-3.3947719966	 0.1229207071	-0.050164
C	-2.7511225508	-2.6095616763	 0.1369473914	-0.082671
O	-3.0788584974	-2.1065955078	-1.1492460782	-0.426041
H	 0.6707060221	 1.8685644135	 0.4210391482	 0.149188
H	 0.1368816715	 1.7788828035	-1.2621477444	 0.149724
H	-1.0555076573	 1.8746906814	 0.038216966	 0.149902
H	 0.6112557025	-3.1287596503	-0.660666128	 0.108057
H	 0.0727485944	-4.3305484269	 1.3782141565	 0.090783
H	-1.0931397553	-1.6639283996	 2.4217713603	 0.132472
H	-1.3873752188	-3.2200531201	 3.2184637809	 0.118042
H	 0.2525171842	-2.565396042	 3.1117468048	 0.120087
H	-1.5178091204	-4.3113793972	-0.4575287261	 0.093964
H	-3.5799038273	-3.2654202451	 0.4248100322	 0.106502
H	-2.7061703639	-1.7994259991	 0.8761354453	 0.092621
H	-2.3780744965	-1.4860462963	-1.382191843	 0.28586
