14
gdb 24033	4.15076	1.09442	1.01316	0.3824	73.4	-0.2681	-0.0547	0.2134	1164.9949	0.102142	-395.743162	-395.735533	-395.734589	-395.776783	27.357	
C	 0.0080544688	-1.1995709893	-0.0054076661	-0.454901
C	-0.006139432	 0.0012858982	 0.0018262559	 0.313333
C	-0.0025277718	 1.4611042506	 0.0104591663	-0.40709
C	 1.4138027465	 2.003468565	-0.0003740687	 0.356175
N	 2.0049849549	 2.2110869031	 1.1800444981	-0.261394
C	 3.2537444799	 2.6673612407	 1.1018773463	 0.084197
N	 3.9272418976	 2.9241197662	-0.0199061843	-0.236747
C	 3.2297925711	 2.6854214935	-1.130959748	 0.084225
N	 1.9795216001	 2.2302733227	-1.189688101	-0.261494
H	 0.0123258399	-2.2613868295	-0.0117845314	 0.203903
H	-0.5269213444	 1.8411797722	-0.8719375538	 0.153831
H	-0.5092843761	 1.8305413882	 0.907577555	 0.153828
H	 3.7704879067	 2.8500636876	 2.0416348418	 0.136067
H	 3.7262864287	 2.8833423907	-2.07851954	 0.136067
