17
gdb 18904	3.51735	2.71637	2.25578	1.5017	70.28	-0.2148	0.0874	0.3022	705.8737	0.14365	-326.637319	-326.631285	-326.630341	-326.666941	25.227	
C	 0.028032795	 1.5437485347	-0.0120139989	-0.526405
C	-0.0112286388	 0.0519817854	-0.0932478374	 0.391002
C	 0.6206345162	-0.8774847214	-1.1612146113	-0.178009
C	-0.4459798156	-1.8915591049	-0.779846826	-0.081901
C	 0.8749618868	-1.7995515019	-0.0084737755	-0.0153
N	 0.596418164	-0.7944203936	 1.0607521172	-0.190304
C	-0.8070151548	-1.1208281	 1.5152873418	-0.18863
C	-1.2648677463	-0.8890096231	 0.0646125792	-0.121973
H	 1.063214096	 1.9004987266	 0.0075757399	 0.131469
H	-0.4753376315	 1.9931334614	-0.8752442285	 0.12126
H	-0.4693168969	 1.9011949062	 0.8960905013	 0.125362
H	 1.1652483463	-0.6992907142	-2.078725732	 0.090605
H	-0.7728617723	-2.7746149747	-1.3113012335	 0.087739
H	 1.5818525403	-2.6103764461	 0.1093733348	 0.089411
H	-0.9329327693	-2.1116899917	 1.9620403863	 0.098414
H	-1.1524093009	-0.3506963944	 2.2113068838	 0.102965
H	-2.2806598082	-0.6341550881	-0.2384059311	 0.064297
