23
gdb 115642	2.62759	1.20181	0.97956	1.6855	85.44	-0.2357	0.0753	0.311	1339.7428	0.205717	-388.272008	-388.262705	-388.261761	-388.306635	35.166	
C	 0.0591036764	 1.5960145363	 0.06854088	-0.385734
C	-0.1936980039	 0.1099291742	-0.2087361968	-0.195472
C	 0.7631991402	-0.4647503488	-1.2463320935	-0.099211
C	 2.2227689957	-0.7043268628	-0.8038761356	-0.09245
O	 2.1275654748	-2.1115232451	-1.0968127424	-0.317487
C	 0.758723201	-1.9958119426	-1.5192800491	 0.449521
C	-0.2918340255	-2.9428756315	-0.8907359091	-0.287328
C	-0.9456412755	-3.0836506433	-2.2923159995	-0.213716
C	 0.3693044181	-2.5384281368	-2.9141162826	-0.287278
H	 1.0762284548	 1.7641332554	 0.4393690169	 0.11954
H	-0.0642353581	 2.1947203104	-0.8407141862	 0.115928
H	-0.6352654229	 1.9830004497	 0.8204042975	 0.11494
H	-0.1015016873	-0.4579927961	 0.7257236874	 0.102445
H	-1.2277004777	-0.0268120913	-0.5509626371	 0.098437
H	 0.6920523355	 0.1129734941	-2.174202825	 0.071829
H	 3.0020570674	-0.2125314471	-1.398317399	 0.098282
H	 2.4220832769	-0.5212314714	 0.2609411267	 0.09388
H	 0.1999666118	-3.8680696491	-0.5762987292	 0.111661
H	-0.901991628	-2.5698115512	-0.0650521257	 0.095319
H	-1.2666469227	-4.0814944533	-2.5967741789	 0.100802
H	-1.7834095607	-2.3942360552	-2.4279614871	 0.101791
H	 0.3017892966	-1.8210700636	-3.7370763702	 0.091951
H	 1.0499758332	-3.3453182105	-3.2012147915	 0.112351
