17
gdb 91442	2.27017	1.88277	1.35508	2.9567	67.84	-0.2511	-0.0396	0.2115	976.1892	0.135091	-458.924332	-458.916344	-458.9154	-458.957553	29.862	
O	 0.4183342551	 1.0308130751	-0.7619491519	-0.433767
C	 0.0915301321	-0.1231045396	-0.0396064168	 0.130608
C	 0.0543824389	-0.0873369518	 1.5227962287	-0.2902
C	-1.3435454045	-0.7424652047	 1.4876292943	 0.120979
O	-2.4014315301	 0.237272531	 1.5780685455	-0.286541
C	-2.5326464235	 0.3060661466	 0.1533467497	 0.037329
C	-2.3968207683	 1.69093279	-0.4373219603	 0.146698
O	-1.9947749103	 2.6568525615	 0.1625603042	-0.263427
C	-1.3654108781	-0.6966132493	-0.0692614872	-0.153619
H	 0.0511677947	 1.7969487712	-0.3066370655	 0.301528
H	 0.7738482953	-0.9015920342	-0.3941202335	 0.099815
H	 0.8467304604	-0.6581894089	 2.0120192834	 0.108671
H	 0.0125546492	 0.917373337	 1.9508984205	 0.127826
H	-1.540816015	-1.6278265844	 2.094377397	 0.086578
H	-3.4971675324	-0.1068082203	-0.1830715128	 0.096497
H	-2.7038793143	 1.7511251948	-1.5062142948	 0.086436
H	-1.5660478392	-1.541764254	-0.7253713806	 0.084591
