18
gdb 47735	2.5815	1.664	1.14321	2.3894	72.37	-0.2443	-0.033	0.2113	1068.5755	0.149292	-439.080992	-439.073235	-439.072291	-439.113341	29.923	
O	 0.0402276002	 0.0640899092	 0.4186888498	-0.330144
C	 0.0176358965	 1.2340135744	 0.098906599	 0.314479
C	-1.3000620056	 1.9670414119	-0.1476932499	-0.183503
O	-1.2064980913	 3.0517212457	-1.0443710819	-0.242098
C	-0.1761624788	 3.9652051752	-0.6957432319	-0.087754
C	 1.1928000511	 3.3059281783	-0.8586074944	-0.289039
C	 1.2731206791	 2.0546488153	-0.0037334676	 0.228609
C	 2.1258943141	 1.9903863922	 1.2344278927	-0.260048
N	 2.5364874858	 1.311305615	 0.0118766586	-0.351612
H	-2.0277051457	 1.2597666007	-0.5520067636	 0.142169
H	-1.6683729918	 2.2997864837	 0.8411519813	 0.11601
H	-0.2851339792	 4.8195153814	-1.3685019464	 0.116863
H	-0.3171019433	 4.3244537121	 0.3378265894	 0.090585
H	 1.3287178194	 3.034009091	-1.9115211165	 0.123522
H	 1.9962688061	 4.0015393611	-0.5953097201	 0.10802
H	 2.7088795818	 2.8683066396	 1.5012752619	 0.123805
H	 1.7655858039	 1.3928442186	 2.0671352992	 0.131278
H	 2.3020925876	 0.3208909647	 0.0956341503	 0.248858
