14
gdb 129618	3.30351	1.29457	0.96369	0.9531	68.27	-0.2247	-0.021	0.2038	1132.2386	0.10184	-432.86755	-432.859515	-432.858571	-432.900787	28.974	
N	-0.1635754614	 1.3187677824	-0.4694425325	-0.621234
C	-0.0669519571	-0.0393996693	-0.1737382295	 0.076023
C	-1.0398579535	-0.989081713	-0.0384509608	 0.379141
C	-2.5293134486	-0.9953878197	-0.1948923821	-0.459425
C	-2.9739904578	-0.0230882796	-1.1942937131	 0.274117
N	-3.2866913077	 0.7733767763	-1.9709232341	-0.310745
O	-0.4866567168	-2.1675842376	 0.3446066188	-0.221581
N	 0.8783789518	-2.0101029869	 0.4673645592	-0.133597
C	 1.1189777186	-0.7595325948	 0.1638137777	-0.003425
H	 0.6614655794	 1.6852546969	-0.9244766895	 0.25428
H	-0.9903682736	 1.5677616868	-0.9985167067	 0.269625
H	-2.8550281694	-1.9964917782	-0.4987461145	 0.185316
H	-3.0390274931	-0.7743658818	 0.7530615048	 0.178968
H	 2.1358707691	-0.3925406516	 0.1907224522	 0.132538
