17
gdb 63794	3.50459	1.26865	1.18154	3.9841	67.76	-0.2724	0.0053	0.2777	1077.4038	0.134719	-458.974426	-458.966225	-458.965281	-459.00709	31.341	
C	 0.3695326538	 1.4753473214	 0.0699163113	-0.454582
C	 0.0788784021	-0.0128055901	 0.0005721521	 0.37128
O	-1.3062761872	-0.2845735495	-0.1353735656	-0.472885
C	 0.9488403072	-0.8864046949	-0.9754504346	-0.302873
C	 1.3474921943	-1.8181806374	 0.2141019316	-0.229432
C	 0.5609652239	-0.9012682026	 1.1785763351	 0.092004
O	 1.8129938659	-0.4386565695	 1.7690287582	-0.256877
C	 2.5593180516	-1.2895263456	 0.9718453611	 0.450797
O	 3.7374981189	-1.4359809129	 0.9825910433	-0.32028
H	 1.4202871335	 1.6634826682	 0.3015742887	 0.141175
H	 0.1426335442	 1.9517222385	-0.8917770008	 0.110535
H	-0.2475785431	 1.944926759	 0.8415676922	 0.131813
H	-1.616044657	 0.1353691435	-0.9453869589	 0.282037
H	 0.3287950906	-1.3933123555	-1.7162914551	 0.117508
H	 1.7817894902	-0.3891566217	-1.4769015624	 0.120221
H	 1.2335520603	-2.8940879459	 0.111223764	 0.112897
H	-0.1639404491	-1.2108624151	 1.9286761898	 0.106662
