20
gdb 13531	2.76038	1.57462	1.13765	0.6065	80.72	-0.2555	0.0562	0.3117	1119.5846	0.174845	-311.829111	-311.819752	-311.818808	-311.863025	34.73	
C	-0.2142335539	 1.4398282823	 0.0865980703	-0.38771
C	 0.0809435939	-0.0602579447	-0.1231314143	-0.180569
C	 0.8269162782	-0.2769292086	-1.3648520329	 0.341351
C	 1.4573724941	-0.4376932875	-2.3761738751	-0.480516
C	 0.8301977023	-0.6429226647	 1.0718172255	 0.030293
C	 0.083027648	-1.0901585334	 2.3061909397	-0.315918
C	 0.7900825247	-2.1071757679	 1.4398473566	 0.006321
C	 0.0155313356	-3.1382379253	 0.6470877571	-0.409274
H	 0.7177127632	 2.0040650379	 0.1879044935	 0.124198
H	-0.7688638497	 1.8516864806	-0.7606179805	 0.121811
H	-0.8038659698	 1.5819423721	 0.9969165966	 0.117342
H	-0.8823377025	-0.578003393	-0.2147809581	 0.099867
H	 2.0065434351	-0.5885725111	-3.2722266252	 0.191974
H	 1.782707375	-0.1478971152	 1.2446243208	 0.086652
H	 0.4873542972	-0.8467053415	 3.2827128706	 0.108416
H	-1.0028604248	-1.0756037263	 2.2632498711	 0.106123
H	 1.7244826706	-2.4885123	 1.8442754424	 0.082676
H	-0.9536174238	-2.7571978357	 0.31187772	 0.114264
H	 0.5709064344	-3.4569248762	-0.2412634041	 0.127498
H	-0.1803812876	-4.0259516919	 1.2584583362	 0.1152
