14
gdb 7717	3.46873	1.98349	1.30597	0.8718	61.21	-0.2619	-0.0223	0.2397	874.9417	0.109267	-415.898851	-415.892088	-415.891144	-415.930076	25.192	
N	-0.1045229018	 1.3162874599	-0.1217362696	-0.505915
C	-0.0220992717	 0.0585385613	 0.0301217472	 0.37957
C	-1.2797988771	-0.7840980676	 0.1136204829	-0.141073
O	-1.1036078559	-1.9189292247	 0.9363942267	-0.234964
C	-0.089271468	-2.768011788	 0.4508364183	-0.194464
C	 1.2489792313	-2.0624425163	 0.2592671715	 0.385153
O	 2.3102033645	-2.6410460714	 0.2295093386	-0.340125
N	 1.1558242872	-0.6880784953	 0.1046811065	-0.368222
H	 0.8140596612	 1.7565465451	-0.2084965441	 0.213254
H	-2.0776474511	-0.1784707822	 0.5423099233	 0.153889
H	-1.5770751291	-1.0818266576	-0.9066175773	 0.117906
H	 0.0544422556	-3.569346845	 1.1775065362	 0.154115
H	-0.3707635725	-3.2268403137	-0.5128912809	 0.125643
H	 2.0433479374	-0.2074408247	 0.0169623407	 0.255233
