27
gdb 96346	1.99764	1.55098	1.13033	0.0853	94.8	-0.2824	0.0763	0.3587	1280.9422	0.253459	-353.593457	-353.5836	-353.582656	-353.626927	40.048	
C	-0.0285364858	 1.5770276545	-0.1045592589	-0.420903
C	 0.064000645	 0.0475376321	-0.004035426	 0.043393
C	 0.6611576804	-0.532048565	-1.3016738251	-0.197625
C	 0.7016833027	-2.0641124201	-1.3038746602	-0.198722
C	 1.4429780714	-2.5956306753	-0.0721882319	-0.207039
C	 0.8372971928	-2.0248055576	 1.2157152705	-0.201005
C	 0.7961417579	-0.4755104565	 1.2743295108	 0.284237
C	 2.2267058859	 0.0875028648	 1.4008620802	-0.419385
C	 0.0088251096	-0.0790048937	 2.5376081833	-0.426464
H	 0.9576296197	 2.0341156443	-0.2385150294	 0.114128
H	-0.6366160392	 1.8612050604	-0.9701424774	 0.108366
H	-0.4887972032	 2.0266431761	 0.7795044438	 0.111083
H	-0.9660331225	-0.3352572414	 0.0686524299	 0.061265
H	 0.0729620459	-0.1711204738	-2.1543920809	 0.085611
H	 1.6757510431	-0.1372315171	-1.449140618	 0.091263
H	-0.326677761	-2.4522856958	-1.3003175983	 0.089072
H	 1.1688503484	-2.4314597352	-2.2248778969	 0.085641
H	 1.4037676283	-3.6907959351	-0.0450313334	 0.087077
H	 2.5056523026	-2.329780817	-0.1399619442	 0.093813
H	-0.1913249432	-2.4002980176	 1.3129498088	 0.083818
H	 1.3832825196	-2.4006746123	 2.0902400167	 0.082428
H	 2.8489044836	-0.134695689	 0.5297624442	 0.111861
H	 2.2189706549	 1.1737774982	 1.531988378	 0.111178
H	 2.7252421782	-0.3423233719	 2.2769326829	 0.106894
H	 0.4564313518	-0.5362785605	 3.4274587466	 0.105371
H	 0.0021669587	 1.0032405064	 2.6977219726	 0.109312
H	-1.0318759457	-0.4177456219	 2.4791802922	 0.105331
