23
gdb 68383	2.41725	1.88738	1.38113	0.1241	88.05	-0.2519	0.0861	0.338	1052.4204	0.208799	-351.149227	-351.141579	-351.140635	-351.180519	32.865	
C	-0.0809604335	 1.5118792902	 0.0329583179	-0.484957
C	 0.0279657777	-0.0039282747	 0.0155352542	 0.335799
C	 0.9183763645	-0.7010444891	-1.0677765358	-0.247827
C	 1.20178642	-1.7942283944	 0.0044257652	-0.009187
C	 0.9552459812	-0.6894776551	 1.0644299853	-0.268123
C	 0.0778410972	-2.8454944688	 0.0296428447	-0.228975
C	-1.3083888858	-2.2006367886	-0.0477277865	-0.026689
C	-1.926145924	-1.4500684927	 1.1123806243	-0.315897
C	-1.3389676565	-0.6878961314	-0.0483975261	-0.041687
H	 0.9096887869	 1.9789353731	 0.051653208	 0.10516
H	-0.6090094065	 1.8825660703	-0.85365321	 0.110127
H	-0.633632362	 1.857606616	 0.9144097946	 0.114882
H	 0.4348619992	-1.0031499231	-2.0019412078	 0.084183
H	 1.8170987201	-0.1182333305	-1.2921323679	 0.086894
H	 2.1833451816	-2.2745589573	-0.0084208205	 0.054238
H	 1.8530295262	-0.0833407579	 1.2207266267	 0.089446
H	 0.5548310421	-0.9701774529	 2.0416281601	 0.088122
H	 0.2025805194	-3.5114904961	-0.8328266653	 0.094892
H	 0.1762892303	-3.4761549408	 0.9231045344	 0.093584
H	-2.0144344944	-2.7105650665	-0.6954065924	 0.078882
H	-3.007553761	-1.4765686046	 1.1989936003	 0.102936
H	-1.4155208916	-1.4453955972	 2.0684567146	 0.110933
H	-2.0415704412	-0.199469938	-0.719556728	 0.073264
