14
gdb 21320	7.26545	1.12777	1.0008	4.2018	59.71	-0.2775	-0.044	0.2334	1115.9177	0.106617	-415.802122	-415.794642	-415.793698	-415.835263	25.329	
C	 0.0931532729	 1.4045232155	-0.0282586278	-0.227751
O	 0.2070863024	-0.000473022	-0.095560454	-0.23778
C	 0.6043787025	-0.5727026427	 1.1288115577	-0.166545
C	 0.6377425997	-2.0565811428	 0.9481051149	 0.322834
N	 1.4619479421	-2.8351186787	 1.5943694508	-0.155328
O	 1.1702246857	-4.1073327735	 1.1872285268	-0.147042
N	 0.1600437404	-4.1161737416	 0.267938004	-0.060968
C	-0.1796912489	-2.8679695622	 0.1101958785	-0.092298
H	 1.0537352264	 1.8772508191	 0.2261778853	 0.115103
H	-0.2225644406	 1.7498901575	-1.0147095697	 0.137342
H	-0.6544333313	 1.7156927387	 0.7176635876	 0.111883
H	 1.5944518915	-0.2145592435	 1.4485689924	 0.125599
H	-0.109510135	-0.3097291553	 1.9288272544	 0.116565
H	-0.9580219177	-2.5740468986	-0.5747329009	 0.158388
