17
gdb 50992	2.0927	1.41115	1.03666	3.2992	72.85	-0.2636	0.0109	0.2745	1184.5415	0.135369	-418.034885	-418.025835	-418.024891	-418.06943	32.52	
O	 2.2648908588	 2.8454092595	 2.2253347023	-0.317672
C	 1.3810918273	 2.8613174689	 1.3964665887	 0.146678
N	 1.4312464393	 2.2108787534	 0.196477569	-0.332246
C	 2.5161129984	 1.3336953207	-0.1476621281	 0.361352
C	 2.5731675682	 0.0439496642	 0.6713796447	-0.402892
C	 1.3810393595	-0.7807659547	 0.4708426596	 0.255906
N	 0.4247329897	-1.404008123	 0.2907530051	-0.308048
C	 2.9331088788	 1.3164136719	-1.5940659517	-0.318017
C	 3.8171919855	 1.9694270664	-0.559764884	-0.284738
H	 0.4349778071	 3.4228147019	 1.5235097298	 0.087898
H	 0.5807417725	 2.1511300765	-0.3439411494	 0.26023
H	 3.4584302116	-0.5388833546	 0.3981292683	 0.148979
H	 2.6634730765	 0.3024814221	 1.7315930022	 0.183163
H	 3.2388969495	 0.3670116078	-2.0190855024	 0.130358
H	 2.3919768449	 1.9606083455	-2.277956428	 0.125333
H	 3.8623876651	 3.0507712333	-0.5355571267	 0.137742
H	 4.7366897772	 1.4721277002	-0.2729448195	 0.125975
