17
gdb 45660	3.06594	1.75446	1.40157	2.6597	79.11	-0.2248	-0.0272	0.1976	940.8493	0.137581	-384.645687	-384.639	-384.638056	-384.676622	27.594	
O	-0.0987786553	-0.0538769584	 0.0714468671	-0.309159
C	-0.0880307631	 1.1504961295	 0.0693390725	 0.370536
C	-1.3873505823	 2.0168226919	-0.0505835287	-0.345306
C	-1.2196166056	 2.9257641267	 1.1334860959	-0.137365
C	-0.0725844755	 3.611946049	 1.1949913811	 0.155338
C	 0.962859973	 3.4869963518	 2.3013084897	-0.282184
C	 1.8619139747	 2.8890120554	 1.1841611752	-0.057336
C	 0.9902940387	 3.4764780094	 0.1037215422	-0.172292
C	 1.1804100066	 1.9896811533	 0.1009832601	-0.114732
H	-1.3741919939	 2.5344338521	-1.0153971416	 0.128747
H	-2.2653067838	 1.3730670551	-0.0025294881	 0.123606
H	-1.7772129395	 2.7016032331	 2.0392315936	 0.105614
H	 1.4174661816	 4.43072748	 2.6239359175	 0.114547
H	 0.7001857575	 2.8811122562	 3.1729101391	 0.108208
H	 2.9467038265	 2.8852303099	 1.2187581901	 0.100324
H	 1.2294483449	 4.1604474986	-0.7002552098	 0.100747
H	 1.9403520555	 1.5694761365	-0.555291326	 0.110707
