21
gdb 41083	3.24398	1.81545	1.56255	0.1665	85.84	-0.2449	0.0953	0.3402	946.7552	0.186621	-349.886272	-349.879952	-349.879007	-349.916395	28.361	
C	-0.0492058226	 1.4397701988	-0.3116988485	-0.266295
C	 1.4365035498	 1.6562241373	 0.1687912606	-0.355366
C	 1.2584515406	 0.335231526	 0.9120051397	 0.39589
C	 1.9042532089	-0.876681625	 1.6862751643	-0.167088
C	 1.4354320819	-0.247100026	 3.0201515603	-0.246231
C	 0.2910031592	 0.3211152903	 2.1650527264	-0.052969
C	-0.4066837047	-0.8051306374	 1.3101123515	-0.084037
C	 0.7319872008	-1.8746828226	 1.4233919766	-0.197496
C	 0.0758573575	-0.0922414668	 0.0261816195	-0.020875
H	-0.7768158999	 1.9846349186	 0.2924506073	 0.107928
H	-0.2427809061	 1.6549068628	-1.3641592336	 0.097641
H	 2.1368822932	 1.5870289069	-0.670552015	 0.100431
H	 1.6671256052	 2.5541688286	 0.7500059156	 0.095278
H	 2.9206601474	-1.2367491239	 1.531094973	 0.058864
H	 1.2120303428	-0.9204232998	 3.8544340936	 0.084336
H	 2.0931984693	 0.5578584047	 3.3622140757	 0.093549
H	-0.2952299367	 1.1868315928	 2.4671720592	 0.064159
H	-1.4266701967	-1.1503951934	 1.4904284218	 0.053199
H	 0.8463929813	-2.4583875499	 0.5051222264	 0.09094
H	 0.5929264911	-2.5659894436	 2.2599205453	 0.090434
H	 0.2235540077	-0.7068372084	-0.8675324597	 0.057709
