19
gdb 63784	3.52626	1.26832	1.17942	3.5713	76.93	-0.2353	0.02	0.2552	1126.2697	0.158916	-419.181102	-419.172635	-419.171691	-419.213785	32.969	
C	 0.3393097469	 1.4400270099	 0.0339218375	-0.420725
C	 0.0737681257	-0.0580174269	 0.0220449304	 0.288745
C	-1.3984437528	-0.3878463146	-0.222707153	-0.444742
N	 0.9988712787	-0.8182044181	-0.8942861058	-0.357696
C	 1.368030637	-1.765129845	 0.1923674345	-0.150845
C	 0.6204463806	-0.8856892408	 1.2187904287	 0.06088
O	 1.8968487844	-0.4254679162	 1.7534722038	-0.274697
C	 2.6104664715	-1.284567475	 0.9209788682	 0.474446
N	 3.8352950402	-1.5308290737	 0.8645365055	-0.549625
H	 1.3883310968	 1.6408212368	 0.2574970059	 0.137485
H	 0.1076375226	 1.8713448408	-0.9454753055	 0.116837
H	-0.281371943	 1.9426138656	 0.7837129165	 0.112179
H	-1.7062695656	-0.0411399411	-1.2154100461	 0.124452
H	-1.5817263057	-1.4668475976	-0.1684740929	 0.116361
H	-2.0404278923	 0.1024550463	 0.5172025136	 0.124159
H	 0.516706486	-1.2689767592	-1.6640728098	 0.220789
H	 1.2363477876	-2.8318060484	 0.0182545623	 0.101083
H	-0.0540334005	-1.2071604627	 2.0118359996	 0.091664
H	 4.3624880718	-0.9721204502	 1.5382611564	 0.22925
