10
gdb 128866	10.16367	0.69551	0.65097	2.7704	78.95	-0.3	-0.1121	0.1879	1530.3227	0.05523	-430.442218	-430.435242	-430.434297	-430.474594	23.939	
N	 0.1114501437	-3.6925187947	-0.0190123329	-0.311001
C	 0.0617975599	-2.5321005419	-0.0119831508	 0.177238
C	 0.0042608436	-1.1694274821	-0.0037660355	 0.427622
C	-0.0512032951	 0.0374376964	 0.0035174295	-0.10574
C	-0.1032294001	 1.4446781682	 0.0118587218	 0.19854
N	-1.1576666869	 2.2130804415	 0.0297163734	-0.29409
C	-0.5888583048	 3.4581328055	 0.0291133964	 0.00335
N	 0.7190125976	 3.4728807876	 0.012221603	-0.073217
O	 1.0591067658	 2.1271191046	 0.0004832647	-0.185937
H	-1.1617445438	 4.3735840749	 0.0415259405	 0.163234
