19
gdb 68530	2.60931	1.95941	1.67653	1.6697	77.56	-0.2365	0.0175	0.254	915.3	0.16073	-385.865653	-385.858702	-385.857758	-385.896341	29.636	
C	-0.0492944758	 1.5084972843	 0.0196545975	-0.503634
C	 0.0342197427	-0.0082057742	 0.0234649026	 0.238618
C	 0.7296619063	-0.7121428095	-1.1866100548	-0.228299
C	 0.5308530122	-2.136702232	-0.5952517674	-0.135418
C	 1.1046706247	-1.9173616986	 0.795162863	-0.068348
C	 0.8057733649	-0.668890126	 1.1603114591	-0.090319
C	-1.0352036113	-2.1152621615	-0.4837395431	 0.031933
O	-1.5835338474	-1.8417711916	 0.8091267527	-0.237124
C	-1.355061509	-0.7467310493	-0.0824491643	 0.010927
H	 0.9475956401	 1.9580969842	-0.030951547	 0.119044
H	-0.6227507975	 1.8727517098	-0.8401311754	 0.113171
H	-0.5380472722	 1.8816213685	 0.9263636378	 0.121588
H	 0.1929831994	-0.5591112527	-2.1305977437	 0.085932
H	 1.7797122884	-0.4289528111	-1.3057154051	 0.094481
H	 0.9233919456	-2.9793604343	-1.1639298283	 0.060677
H	 1.5645571907	-2.6868772343	 1.4012545757	 0.099198
H	 0.97341479	-0.2067321295	 2.1252782006	 0.095328
H	-1.6429860065	-2.7334388133	-1.1372552356	 0.098437
H	-2.2368402153	-0.1916634789	-0.3913340444	 0.093808
