23
gdb 63746	3.52483	1.12275	1.01349	1.3944	85.86	-0.2347	0.0763	0.311	1310.3889	0.204361	-388.28547	-388.276098	-388.275154	-388.319595	36.542	
C	-0.6447282135	 1.5412751066	 0.0299049099	-0.427722
C	-0.0584131671	 0.1371977481	-0.0366436748	 0.422933
C	-1.0769570431	-0.9281505083	 0.3470815492	-0.427713
C	 0.796087429	-0.1736895369	-1.2923763639	-0.406525
C	 1.9800275098	-0.2546592246	-0.3083236124	 0.471053
C	 2.8766960689	-1.5138644325	-0.2618400843	-0.285903
C	 3.9901606068	-0.6915178248	-0.9675603679	-0.215598
C	 3.2474503701	 0.602418109	-0.5337292049	-0.285907
O	 1.1292928797	 0.0378446669	 0.8083206151	-0.354481
H	 0.1089489164	 2.289759087	-0.2301665102	 0.115899
H	-1.4883520088	 1.6434941658	-0.661700072	 0.111788
H	-1.0036603095	 1.7562857713	 1.0417449453	 0.121494
H	-1.9350422932	-0.90885537	-0.3339363742	 0.111788
H	-0.6287467135	-1.9250049998	 0.3112564497	 0.115901
H	-1.4433890534	-0.7555512652	 1.3643418731	 0.121491
H	 0.5474711317	-1.1072436459	-1.8023145865	 0.101794
H	 0.85239679	 0.6339326392	-2.0258261213	 0.101794
H	 3.1389288242	-1.7439067543	 0.7750977326	 0.111297
H	 2.5077519263	-2.4224729059	-0.745737038	 0.090936
H	 5.0133246006	-0.8250842545	-0.6119803241	 0.100664
H	 3.9784518432	-0.8288033658	-2.0521060347	 0.102784
H	 3.1833415299	 1.433838841	-1.2411719571	 0.090936
H	 3.6158568955	 0.9784143737	 0.4253482715	 0.111298
