23
gdb 93090	1.98407	1.61651	0.94343	0.7601	88.22	-0.2303	0.022	0.2523	1318.3783	0.205754	-388.3084	-388.298949	-388.298005	-388.342396	36.423	
C	 0.0253763752	 1.5261780096	 0.1651462769	-0.394967
C	 0.0293863323	 0.0064567971	 0.021093	 0.132395
C	 0.4598139222	-0.4243731895	-1.3894433498	-0.242221
C	 0.3924359751	-1.9016170338	-1.6904924527	-0.066483
C	 0.7592218802	-2.9152140076	-0.9052648431	-0.06648
C	 1.3364890363	-2.8470689615	 0.4874080458	-0.242223
C	 0.694450062	-1.8314552153	 1.4449137029	 0.132395
C	 1.2797272288	-1.9402700346	 2.8505922829	-0.394967
O	 0.899641507	-0.4886296865	 1.0289824708	-0.271307
H	 1.0292419299	 1.9276839848	-0.0066985352	 0.121579
H	-0.6592672835	 1.9861932194	-0.5536195608	 0.109794
H	-0.2849918512	 1.8083068647	 1.1744010899	 0.118117
H	-0.9873927208	-0.3783674225	 0.2064356143	 0.064605
H	-0.1664392806	 0.112769821	-2.1113453247	 0.096362
H	 1.485966154	-0.0607771216	-1.5505010731	 0.113741
H	 0.0299058489	-2.1524215068	-2.6855077541	 0.082733
H	 0.6689511209	-3.9183904744	-1.3174234524	 0.082733
H	 1.2633320121	-3.8384509659	 0.9496504844	 0.096362
H	 2.4115769169	-2.6187107496	 0.431118243	 0.11374
H	-0.3894200053	-2.0308783974	 1.4866132882	 0.064604
H	 2.355234793	-1.736734047	 2.8321456524	 0.121579
H	 0.8073654517	-1.2105492606	 3.5130897717	 0.118116
H	 1.1237872447	-2.941284092	 3.2636643027	 0.109793
