14
gdb 129743	3.34118	1.13273	0.8753	3.9854	66.	-0.221	-0.0043	0.2167	1229.8743	0.101898	-470.029742	-470.021484	-470.020539	-470.063426	29.23	
N	-0.1755828541	 1.3262655191	 0.2748483664	-0.610855
C	-0.1007156821	-0.0462940575	 0.0642139581	 0.308853
C	-1.0819079944	-0.9752518341	-0.2373648163	 0.174077
O	-2.3928135048	-0.6474244703	-0.5271000538	-0.234294
C	-3.3543517502	-1.1255635509	 0.3135323343	 0.149532
O	-4.5129436017	-0.9286886125	 0.1240230802	-0.258415
C	-0.4322885434	-2.2271552542	-0.266334562	-0.078498
N	 0.8605327351	-2.1028721682	 0.0023959573	-0.227857
N	 1.0359865162	-0.7700994116	 0.2022654302	-0.245548
H	 0.5104945094	 1.8578137891	-0.2485364175	 0.257794
H	-1.1023968719	 1.6731329047	 0.058880489	 0.267712
H	-2.9205549284	-1.6968373928	 1.1539370208	 0.096618
H	-0.8561577257	-3.1966735085	-0.4824919058	 0.124441
H	 1.946306506	-0.4302900023	 0.4620334391	 0.276441
