20
gdb 16699	3.50439	1.81574	1.59236	1.5712	74.47	-0.2313	0.097	0.3283	921.5576	0.178091	-348.989284	-348.981778	-348.980834	-349.020517	29.941	
C	-0.1257999885	 1.5870803508	-0.020652965	-0.43711
C	 0.0111075063	 0.0698188285	-0.0199844135	 0.04217
C	 1.1437283785	-0.5955639163	-0.8519031165	 0.104428
C	 2.1199205602	-0.2544485402	 0.2983850845	-0.251973
C	 0.8447060253	-0.5921411451	 1.1368520129	-0.082456
C	 0.7060146686	-2.0838156582	 0.7781054484	 0.153938
C	-0.5948855877	-2.7875760971	 1.1290834094	-0.414541
O	 0.8902521065	-1.9987446682	-0.6640716945	-0.301883
H	 0.8167699414	 2.1104022308	 0.1590953797	 0.117822
H	-0.5187986392	 1.9364206658	-0.9819038333	 0.118476
H	-0.8303809704	 1.9064507637	 0.7551626403	 0.118203
H	-0.968465635	-0.3799554501	-0.2052309836	 0.070734
H	 1.3327300941	-0.3934700765	-1.9060407318	 0.072622
H	 2.991512264	-0.9040492915	 0.4112559056	 0.097463
H	 2.4171028865	 0.7919451335	 0.3453567156	 0.101534
H	 0.732099612	-0.3114691827	 2.1845546162	 0.064988
H	 1.54220578	-2.6588368063	 1.2008297119	 0.068798
H	-1.4723499325	-2.2195918881	 0.8091975539	 0.118786
H	-0.630827865	-3.7661007659	 0.6410005354	 0.127797
H	-0.658863185	-2.9457070367	 2.2112854644	 0.110204
