21
gdb 38873	2.6465	2.07993	1.88874	1.4409	79.09	-0.2342	0.0877	0.3219	879.3118	0.189163	-387.100445	-387.094548	-387.093604	-387.130194	27.14	
C	-0.0132896939	 1.5976910247	 0.0162074025	-0.209066
C	 1.5280651809	 1.711995479	 0.0138043341	-0.029593
C	 1.7817482891	 1.0381190513	 1.3791510279	-0.223818
C	 1.1350749132	-0.3251495059	 1.0501486013	 0.114118
O	 2.1491217923	-1.1508069547	 0.460581502	-0.274745
C	 2.9026942561	-0.3989419069	-0.5003817191	-0.089023
C	 1.9689942828	 0.6614228228	-1.1026254284	-0.045244
C	 0.6634015977	-0.1344089404	-1.3880211783	-0.194835
C	 0.0046951403	 0.0504599352	-0.0103097936	-0.045658
H	-0.4621233274	 2.0414642752	 0.9087922017	 0.087772
H	-0.5082628551	 2.0182975382	-0.8631864154	 0.088884
H	 1.9544345567	 2.7080893315	-0.1125274857	 0.056821
H	 2.8250150914	 0.9178459142	 1.6767655655	 0.101281
H	 1.2659191989	 1.5745097059	 2.1806071863	 0.090496
H	 0.7543604764	-0.8830515206	 1.9063313771	 0.074098
H	 3.799708006	 0.0407068235	-0.0411395265	 0.087123
H	 3.2352738838	-1.1097622388	-1.2647363663	 0.100558
H	 2.4151638038	 1.1373454121	-1.9779010359	 0.06486
H	 0.0486601286	 0.3063651812	-2.1774728883	 0.086607
H	 0.8682109349	-1.1740408162	-1.6495058261	 0.102471
H	-0.9459890367	-0.4635434911	 0.1379842452	 0.056892
