17
gdb 45604	2.82632	1.58141	1.25486	4.5938	67.31	-0.2676	0.0108	0.2783	1015.6945	0.138548	-458.992819	-458.985615	-458.984671	-459.025087	27.422	
O	-0.3792634183	 0.3473593704	 0.725858221	-0.326151
C	-0.1443405546	 1.369518361	 0.1670808938	 0.458897
O	-1.0082091837	 2.1653766364	-0.5368048626	-0.25148
C	 0.0279095156	 3.1809991859	-0.7658533508	 0.106761
C	-0.3051613251	 4.4872430059	-0.065537438	-0.106877
O	-0.0677390451	 4.4235776407	 1.3243543296	-0.236689
C	 1.3085832862	 4.2151687242	 1.5964222001	-0.074604
C	 1.7561286058	 2.7902574124	 1.2359838887	-0.24671
C	 1.0689156972	 2.2799207775	-0.0467659106	-0.223405
H	 0.1708148504	 3.3218706441	-1.8399257076	 0.097806
H	 0.2885259714	 5.2987902995	-0.5204542677	 0.093758
H	-1.3657672473	 4.7172201418	-0.201479588	 0.132601
H	 1.9075914293	 4.9554936945	 1.0403325936	 0.090112
H	 1.4491727284	 4.4057036365	 2.6632133128	 0.119927
H	 2.8445858613	 2.7705754524	 1.1277065337	 0.109423
H	 1.5065422663	 2.1028259076	 2.0502626874	 0.138154
H	 1.779655022	 1.8180124691	-0.7347550255	 0.118477
