19
gdb 98225	3.08166	1.09642	0.82362	2.1181	76.08	-0.2572	-0.0194	0.2379	1372.7876	0.158029	-456.375538	-456.36554	-456.364596	-456.411467	35.706	
C	-1.4356519555	 0.9082337802	-0.2631037405	-0.333579
N	-0.3284391834	-0.0194993241	 0.0042790834	-0.143041
C	-0.1925624262	-0.4250915216	 1.3604483119	 0.355118
C	 0.9969905636	-1.2582391284	 1.7706638742	-0.441542
N	-1.104775919	-0.0198328421	 2.1542702507	-0.497923
C	 0.4212512214	-0.5321817986	-1.0323696422	 0.392395
O	 1.3142899586	-1.3541791694	-0.8960318664	-0.387237
C	 0.1224910029	-0.0521271467	-2.4643343044	-0.1528
O	 0.9581428082	-0.7155828731	-3.3608851769	-0.423644
H	-1.295710264	 1.3938339148	-1.2250811606	 0.137733
H	-2.3968851121	 0.3867007676	-0.2483072197	 0.145952
H	-1.4588173403	 1.6616457486	 0.5224773191	 0.163911
H	 1.9378407347	-0.8072522927	 1.450148299	 0.152031
H	 0.9897063303	-1.3514323461	 2.8594088816	 0.110996
H	 0.9661283708	-2.2514160873	 1.3203676603	 0.162462
H	-0.9101666804	-0.3366792701	 3.1017499407	 0.223925
H	-0.9354144943	-0.241076227	-2.7014649538	 0.120066
H	 0.2743144306	 1.037874468	-2.5207888775	 0.119496
H	 1.5168319841	-1.2826440023	-2.8019248588	 0.295681
