22
gdb 117669	2.97143	1.02579	0.97437	4.3052	78.2	-0.2298	0.05	0.2799	1344.358	0.193286	-441.456498	-441.446431	-441.445486	-441.491427	38.163	
C	 0.1307759819	 1.6323029469	 0.2488262753	-0.41543
C	-0.0460212723	 0.1315723729	-0.0348896874	 0.320331
O	 0.4556526618	-0.6299773322	 1.06225858	-0.483603
C	-1.5208843983	-0.2445004415	-0.323206838	-0.217041
C	-2.5160696662	 0.0604966392	 0.7916710465	-0.109872
O	-2.1413956935	-0.6911684544	 1.9534360922	-0.416969
C	 0.7899901724	-0.2538607143	-1.2549558431	 0.017372
C	 2.2171169124	-0.6184358829	-1.1121011197	-0.251508
N	 1.2081264484	-1.6481799969	-1.4417655694	-0.339338
H	 1.1877263971	 1.8451978866	 0.4265268931	 0.127246
H	-0.2085881756	 2.2439694366	-0.5946233258	 0.106824
H	-0.4254492353	 1.9384716469	 1.1400624261	 0.106059
H	-0.273669865	-0.7379155984	 1.6897921145	 0.291139
H	-1.8562968078	 0.2812326538	-1.2248957628	 0.102291
H	-1.5611008015	-1.3165221025	-0.5464098073	 0.121239
H	-2.5303386369	 1.135229146	 1.0181630572	 0.100884
H	-3.5277035437	-0.2234787837	 0.4686152553	 0.101086
H	-2.6588232031	-0.38620884	 2.7041394511	 0.296763
H	 0.4714086348	 0.2385498791	-2.1726041247	 0.076432
H	 2.9189200542	-0.3887127471	-1.9089924815	 0.106427
H	 2.6327402441	-0.6244146474	-0.1098033558	 0.125192
H	 0.9918530424	-2.1370914569	-0.5733400856	 0.234476
