20
gdb 61393	3.01046	0.93819	0.86097	6.676	75.85	-0.2811	0.0271	0.3082	1417.2077	0.167861	-440.302194	-440.291767	-440.290822	-440.337865	38.645	
C	 0.0733717535	 1.5478648003	 0.0068965883	-0.407218
C	-0.1122287345	 0.0285066346	-0.0704709253	 0.305147
C	 0.2949275767	-0.6451932778	 1.2456563456	-0.431199
O	-1.503718926	-0.2591203036	-0.3533529758	-0.456574
C	 0.6467608401	-0.5284724165	-1.2906331909	-0.230028
C	 0.6536563035	-2.0687366395	-1.3954827818	-0.017295
O	-0.6279872372	-2.6539388574	-1.3297379798	-0.436372
C	 1.3085087385	-2.4642342679	-2.6614208453	 0.277671
N	 1.8440684035	-2.7581055608	-3.641883127	-0.321422
H	 1.1162380688	 1.8084087264	 0.2122616491	 0.123521
H	-0.2268512983	 2.0195932886	-0.932539168	 0.132026
H	-0.5415746574	 1.9667253901	 0.811096228	 0.110833
H	-0.2379920155	-0.1874140769	 2.0870110407	 0.112413
H	 0.0546155734	-1.711146943	 1.2301487808	 0.144765
H	 1.3664188806	-0.5285254122	 1.4352873427	 0.128592
H	-2.0204398594	-0.0808771597	 0.4400384623	 0.288507
H	 0.1841984744	-0.1122845678	-2.1914206648	 0.135042
H	 1.6837539134	-0.180191067	-1.2645858045	 0.123182
H	 1.282503269	-2.4743091304	-0.5872943455	 0.11469
H	-1.2437927069	-1.9542629296	-1.0571107187	 0.303719
