17
gdb 113624	3.09839	1.11172	0.89634	4.9406	76.18	-0.2807	-0.0638	0.2169	1297.4207	0.134804	-418.014934	-418.005697	-418.004753	-418.049503	32.554	
C	-0.154794591	 1.3933231457	 0.466925296	-0.391621
C	-0.0988356394	-0.0983948379	 0.1158054974	-0.201576
C	-1.4613630417	-0.6968173568	-0.1568610903	 0.011433
C	-1.7173440635	-2.1760090048	-0.0164360858	-0.26738
N	-2.2887361052	-1.2234151122	 0.9129444141	-0.084171
C	-2.1297372966	-1.140849991	 2.2681438708	 0.306051
O	-1.8691792361	-0.1449210301	 2.9036412081	-0.320872
C	-2.4116779922	-2.4244990724	 2.9457104754	 0.240168
N	-2.59691708	-3.4202000321	 3.5023054024	-0.318711
H	 0.8530085446	 1.7903906215	 0.6175826842	 0.119557
H	-0.6215579855	 1.9689910119	-0.3397449957	 0.115771
H	-0.7304871514	 1.5505367339	 1.381458615	 0.160747
H	 0.5096084094	-0.2491887558	-0.785043759	 0.113086
H	 0.3895826722	-0.6592699819	 0.9209169248	 0.111772
H	-2.0431835724	-0.1790034736	-0.9188054288	 0.116757
H	-2.4200545391	-2.6752208273	-0.6771682589	 0.14256
H	-0.9000102622	-2.7952426172	 0.3456133504	 0.146429
