15
gdb 3486	4.82341	3.54392	3.09148	1.6181	59.06	-0.2387	0.0892	0.328	534.0677	0.128261	-308.47332	-308.468643	-308.467699	-308.501404	19.971	
C	-0.0397080133	 1.6070685739	 0.0559424044	-0.246287
C	 1.5009716638	 1.4308143644	-0.0070288239	-0.084106
C	 1.7926928443	 0.7798719226	 1.3613737779	-0.202152
C	 1.004739582	-0.5010075008	 1.0236609422	 0.072423
O	 1.796650281	-1.0316144637	-0.0835007355	-0.293011
C	 1.24028983	 0.0635959745	-0.8147910944	 0.116871
C	-0.065502656	 0.0704484419	 0.0060594656	-0.067438
H	-0.4571610933	 2.1287764536	 0.9222119331	 0.094758
H	-0.4573246456	 2.0286757832	-0.8630743197	 0.100818
H	 2.1609525792	 2.2166107179	-0.3690936272	 0.067919
H	 2.8433416904	 0.5440960804	 1.5414510552	 0.107021
H	 1.3928519113	 1.3596965404	 2.1978922542	 0.094447
H	 0.7797378264	-1.2351703768	 1.7957744626	 0.079482
H	 1.3475114635	 0.0224932113	-1.8976145351	 0.083528
H	-0.9356168936	-0.5408052627	-0.2261687093	 0.075729
