16
gdb 11253	4.81053	1.39007	1.22576	3.4247	70.91	-0.2409	-0.0066	0.2344	999.3772	0.131693	-342.798404	-342.790832	-342.789888	-342.830443	28.045	
C	 0.1330951671	 1.6509908012	-0.0194320981	-0.376784
C	-0.0017893573	 0.1282239987	 0.0763526864	-0.002115
N	 0.6089830722	-0.5373836263	-1.0937554586	-0.315737
C	 1.3129502092	-1.7521503194	-0.6628744029	-0.146534
C	 1.4927932996	-1.522335244	 0.8263081855	-0.07577
C	 0.7567261428	-0.4918197258	 1.2223608001	-0.04991
C	 0.5570498499	-2.9994605037	-0.923409605	 0.24912
N	-0.050589116	-3.9559629981	-1.154239517	-0.326061
H	 1.1863842376	 1.9340561873	-0.0962240417	 0.125433
H	-0.3878802762	 2.027413041	-0.9050937443	 0.118466
H	-0.3039863745	 2.1359522876	 0.8599913897	 0.112609
H	-1.0737650254	-0.1170813883	 0.1810335729	 0.08701
H	-0.0513886924	-0.714779824	-1.8392107339	 0.235543
H	 2.2755954667	-1.8512279491	-1.1845890379	 0.128875
H	 2.1203237549	-2.1603390633	 1.4336742142	 0.122406
H	 0.6818864819	-0.1163807139	 2.2355686605	 0.113449
