16
gdb 81162	2.7477	1.51067	1.31842	3.8141	69.16	-0.2724	-0.003	0.2694	1001.1602	0.125207	-437.87502	-437.867432	-437.866488	-437.906909	29.355	
O	 0.1558846064	 1.4914798089	 0.0952543212	-0.417985
C	 0.0421278304	 0.1071855168	 0.0373054212	 0.077928
C	 0.0533232516	-0.6571581457	 1.3746334648	 0.034487
C	-1.003573239	 0.0649535845	 2.2289619213	-0.22472
C	-2.1318152023	 0.1417169068	 1.1539918274	-0.260228
C	-1.3693240579	-0.5851234972	 0.0215254088	 0.270295
O	-0.7336167241	-1.7005840257	 0.7083961044	-0.317941
C	-2.0645158898	-0.9157401759	-1.2027305243	 0.171365
N	-2.6096594502	-1.1282917182	-2.1996215562	-0.333668
H	 0.2580383014	 1.8392024539	-0.7961537476	 0.303083
H	 0.6979566973	-0.3655776031	-0.6987869157	 0.109094
H	 0.9666187729	-1.0234082316	 1.8392708825	 0.095983
H	-1.2858039336	-0.5361291032	 3.0945494899	 0.11672
H	-0.66683384	 1.0481617898	 2.5621271356	 0.125353
H	-3.0343586638	-0.4044230265	 1.4299039193	 0.12564
H	-2.3918874194	 1.1637759565	 0.8746207275	 0.124594
