17
gdb 125676	3.08501	1.26635	0.90287	1.967	79.18	-0.1961	0.0232	0.2192	1247.6766	0.138058	-414.21702	-414.208353	-414.207409	-414.250617	31.805	
C	-0.0077697479	 1.4741302655	 0.0289122968	-0.518076
C	-0.0028369625	-0.0208847838	 0.0085358879	 0.278567
N	-0.0263799753	-0.6983498446	-1.1376936879	-0.282879
N	-0.0133711162	-1.9915177825	-0.7728750536	-0.194074
C	 0.0178480721	-2.1799018175	 0.5722644412	-0.097111
C	 0.0255237448	-0.9096429835	 1.1162019536	 0.211104
N	 0.0544814653	-0.519825458	 2.4568297372	-0.398923
C	 0.0814882543	-1.3446132327	 3.5463734077	 0.07478
N	 0.0837514789	-2.6199815892	 3.4605503587	-0.465648
H	 0.8876400629	 1.8804678792	 0.5161172258	 0.122643
H	-0.034863588	 1.8535532701	-0.9944533556	 0.148917
H	-0.8805522057	 1.8739166518	 0.5605538928	 0.122536
H	-0.0272424371	-2.698996962	-1.4863135196	 0.272469
H	 0.0321017877	-3.1441109589	 1.0453909487	 0.167451
H	 0.055456147	 0.4698205365	 2.6341284759	 0.25225
H	 0.1007223906	-0.7723769413	 4.4815019381	 0.086244
H	 0.1059893091	-3.030347459	 4.3905733023	 0.219746
