17
gdb 72597	2.204	1.70534	1.4808	4.4351	68.18	-0.2551	-0.0054	0.2497	1000.1275	0.133883	-458.975232	-458.966681	-458.965736	-459.008112	31.667	
C	-0.3605525101	 1.4524981233	 0.0037204807	-0.484409
C	 0.0456778608	 0.008870226	-0.0109259888	 0.347848
C	 1.1713151159	-0.5395804146	-0.8990070711	-0.127535
O	 1.6815055984	-1.356041405	 0.1848856607	-0.321356
C	 0.6976969305	-0.8388561522	 1.116546938	 0.181533
C	 1.252869302	-0.4355351602	 2.4488046672	-0.489142
C	-0.5966442621	-1.6717838751	 1.0079225723	 0.438808
O	-1.0920052478	-2.6228035319	 1.5172898929	-0.326699
O	-1.102919837	-0.9064416387	-0.0245608242	-0.299428
H	 0.5160352814	 2.0970849702	 0.1156119026	 0.132991
H	-0.8628237887	 1.7183609475	-0.9323766716	 0.144624
H	-1.0519144897	 1.6528761353	 0.8268836025	 0.139246
H	 0.8426295288	-1.1290772503	-1.7602752049	 0.125744
H	 1.913028045	 0.2050511901	-1.2101144985	 0.113499
H	 2.0740793607	 0.2758145462	 2.3261350461	 0.131916
H	 0.4770117618	 0.0141333786	 3.0756394664	 0.135387
H	 1.6357431201	-1.3204857594	 2.9667718597	 0.156973
