20
gdb 104490	2.61832	1.41417	1.10555	3.329	79.62	-0.241	-0.0239	0.2171	1164.8111	0.170166	-403.114324	-403.105463	-403.104519	-403.147751	33.435	
C	-0.7344127888	 1.3981278317	-0.2586615663	-0.385942
C	-0.0867906043	 0.0380207623	 0.0394175846	-0.291392
C	 0.5286036485	-0.6072701884	-1.1857485058	 0.224073
C	 1.7821976371	 0.050469353	-1.6860177824	 0.143431
O	 2.4005368767	 0.8909319305	-1.0822261552	-0.274793
C	 0.5211978663	-2.0692607527	-1.4959838498	-0.067663
C	-0.7476319654	-2.7702078362	-1.0187226442	-0.267401
C	-1.5164965192	-1.7182292647	-1.8546923189	-0.157359
N	-0.237852984	-1.1033067573	-2.3741484489	-0.182467
H	 0.0062330153	 2.1026954827	-0.6443279382	 0.142692
H	-1.5352054189	 1.3096229523	-0.9998530391	 0.120103
H	-1.164350282	 1.8254972218	 0.6519430516	 0.114254
H	 0.7230345019	 0.1774163031	 0.7631674784	 0.123681
H	-0.8132993012	-0.6292272303	 0.5102785444	 0.100156
H	 2.1068967032	-0.3156117279	-2.6843629895	 0.088508
H	 1.413759872	-2.5785123166	-1.8503551539	 0.099435
H	-0.8394250558	-3.7784309319	-1.4261949819	 0.119543
H	-0.9195135932	-2.8116521237	 0.0599763688	 0.114262
H	-2.0672228543	-2.143760697	-2.6951710383	 0.120875
H	-2.1671309538	-1.020313081	-1.3227786854	 0.116005
