16
gdb 125090	3.2478	1.25031	0.90905	3.1563	77.18	-0.2153	-0.0572	0.158	1219.3213	0.125121	-434.108954	-434.100149	-434.099205	-434.142492	31.736	
C	-0.0504985295	 1.5924711773	 0.0605698311	-0.528154
C	-0.0106612778	 0.0992239859	-0.0039528666	 0.060632
C	 0.00169409	-0.7417960264	-1.115972966	 0.22245
N	 0.017295519	-2.0142145931	-0.6405839138	-0.256686
N	 0.02920477	-2.0737443561	 0.6980402257	-0.284821
C	 0.0063247548	-0.7963973632	 1.092886016	 0.314446
N	-0.0705464594	-0.4622865253	 2.4435895838	-0.589031
C	-0.009358038	-0.4920878018	-2.5478115826	 0.083629
O	-0.0008066278	-1.3775260573	-3.3804604392	-0.300635
H	 0.8905247944	 2.0108799802	 0.4409414098	 0.130535
H	-0.229243962	 2.0397112276	-0.9201033085	 0.133898
H	-0.8469479747	 1.9311220515	 0.7330202279	 0.14417
H	 0.0224304544	-2.8511281951	-1.1996942333	 0.286355
H	 0.1176640695	-1.2603947804	 3.036833744	 0.254791
H	 0.5199520002	 0.3172321958	 2.7017288999	 0.248462
H	-0.0258963631	 0.5772323403	-2.8415294283	 0.079959
