19
gdb 55743	4.11879	1.04925	0.96401	4.0703	76.95	-0.2357	0.0236	0.2592	1279.7619	0.159235	-419.163326	-419.154425	-419.153481	-419.198787	32.318	
C	-0.0070901475	 1.5159203056	-0.1494107587	-0.496845
C	-0.4524054996	 0.083148388	-0.3981235192	 0.384918
O	-1.6222945936	-0.2500434136	-0.43178573	-0.36508
N	 0.5625230066	-0.8141172006	-0.6102527837	-0.4725
C	 0.3048156083	-2.1877972717	-0.9143821206	 0.400776
C	-0.4305656971	-3.2590667864	-0.0760408586	-0.196077
N	 0.0118008965	-4.047414052	-1.3215356027	-0.137987
C	-0.4516166768	-2.8112333126	-2.1117297674	-0.198212
C	 1.3442069971	-3.2906156166	-1.1679252978	-0.237307
H	 0.9565831222	 1.5771297797	 0.364439861	 0.120478
H	 0.0834494195	 2.040743547	-1.1066441048	 0.149605
H	-0.7705629031	 2.0215209022	 0.4424833265	 0.154275
H	 1.5188622845	-0.4991354244	-0.5853907103	 0.243927
H	 0.0440130865	-3.6036160917	 0.84689002	 0.097291
H	-1.5115832886	-3.1636966922	 0.0272580824	 0.12567
H	-1.534313243	-2.6871417876	-2.1445000732	 0.12513
H	 0.003172129	-2.7344335677	-3.1032594877	 0.096705
H	 1.9294971855	-3.2476613126	-2.0911305595	 0.102259
H	 1.9471027435	-3.6370704927	-0.3235184658	 0.102973
