21
gdb 119295	2.05117	1.30886	0.94585	1.3921	85.71	-0.2506	0.0533	0.3039	1348.5171	0.180342	-387.033491	-387.023531	-387.022587	-387.068561	36.585	
C	 0.3288694035	 1.3195412417	 0.0196692553	-0.22441
O	 0.2306190974	-0.0818477531	-0.0577776177	-0.232007
C	 0.5673816907	-0.7248151256	 1.1476910303	-0.098081
C	 0.3979408092	-2.237179133	 0.9723809591	 0.112242
C	 1.4401138649	-2.825023816	-0.0432818178	-0.242476
C	 2.3527023358	-3.2220725276	 1.1468828931	-0.219914
C	 1.1522156722	-3.0163981865	 2.1080989293	-0.263409
C	-0.9945043813	-2.5916382112	 0.7600995197	 0.269811
C	-2.1411990046	-2.9191783517	 0.6027589375	-0.449106
H	 1.3527817486	 1.6457765014	 0.2641608232	 0.101172
H	 0.0551237224	 1.7209488765	-0.958937501	 0.128884
H	-0.3526318498	 1.7356804384	 0.7782561629	 0.105996
H	 1.6124570873	-0.5004615331	 1.4238598066	 0.08047
H	-0.0746914962	-0.3743585077	 1.9728503422	 0.093612
H	 1.0346383963	-3.6929025004	-0.5662164463	 0.111946
H	 1.8249531804	-2.1155865496	-0.7775891433	 0.115106
H	 2.7905050767	-4.2217393721	 1.1189421416	 0.102451
H	 3.1577822399	-2.5033858186	 1.3196100378	 0.104722
H	 1.3266957122	-2.4638480285	 3.0357242381	 0.100166
H	 0.6409708699	-3.9502668218	 2.347750235	 0.115408
H	-3.1547809656	-3.1973797016	 0.4533761745	 0.187417
