19
gdb 41605	3.98862	1.34418	1.20239	1.2803	82.85	-0.2093	0.0169	0.2262	1086.716	0.160597	-385.860036	-385.852624	-385.85168	-385.891983	29.476	
C	-0.0268102826	 1.4662467976	-0.0114469635	-0.230142
C	 1.5182818225	 1.4918405204	-0.2468888417	-0.230139
C	 1.5707761679	-0.0254130378	-0.0286693282	-0.140839
C	 0.037204692	-0.0508105024	 0.2050447648	-0.140839
C	 0.650126507	-0.7138045306	-0.9947906856	 0.47148
O	 0.4428262459	-0.2002388199	-2.299102629	-0.322399
C	 0.3196663106	-1.2789603211	-3.2255138973	-0.132608
C	 0.4666451034	-2.5258177331	-2.3963131197	-0.118891
C	 0.6548550706	-2.1886938356	-1.1241765968	-0.162123
H	-0.315839763	 2.0079968534	 0.8914800457	 0.099519
H	-0.654645134	 1.7952364084	-0.843101305	 0.10991
H	 1.8590019663	 1.8368869136	-1.2261290336	 0.109906
H	 2.0453693485	 2.0471002917	 0.5316833453	 0.09952
H	 2.3615937821	-0.5625792487	 0.4843252577	 0.079571
H	-0.5471450893	-0.6107455752	 0.9276178074	 0.079572
H	-0.6551660272	-1.2222366128	-3.7352065719	 0.106295
H	 1.0962880274	-1.1931776848	-4.0019218998	 0.106291
H	 0.4205385084	-3.525402621	-2.8077907835	 0.106197
H	 0.7941963036	-2.8535318419	-0.2818977554	 0.109721
