25
gdb 117721	3.63795	0.70959	0.68542	2.0574	86.75	-0.2551	0.0758	0.3308	1830.0177	0.225513	-426.628618	-426.6168	-426.615856	-426.665919	42.546	
C	-0.0627066038	 1.6064740344	 0.1935301293	-0.381877
C	 0.010333724	 0.0827680075	 0.0593291004	-0.179719
C	-1.3729185231	-0.5534723697	-0.1243609851	-0.179507
C	-1.3849099166	-2.0897178171	-0.1177360257	 0.337656
C	-0.5382288708	-2.6950235474	-1.2503403857	-0.426169
O	-0.8709317803	-2.4994389483	 1.1503631787	-0.476645
C	-2.8363595684	-2.5841829509	-0.222458328	-0.090128
O	-2.8276875078	-3.9837278818	-0.002964887	-0.253493
C	-4.1144544329	-4.553710552	 0.0451312603	-0.228584
H	 0.9326870054	 2.0426213163	 0.3241795721	 0.109657
H	-0.5121702812	 2.0649273971	-0.6950204197	 0.108553
H	-0.6700520741	 1.8994108023	 1.0573683802	 0.113224
H	 0.6560399653	-0.1734515692	-0.7887350505	 0.093483
H	 0.4787952224	-0.3491865982	 0.9494991456	 0.120505
H	-2.0260569755	-0.2126911375	 0.6892176208	 0.094366
H	-1.8232713085	-0.1995933721	-1.0614846589	 0.085644
H	 0.5192491689	-2.472426475	-1.0941782386	 0.122793
H	-0.6629636943	-3.7808836882	-1.27118279	 0.121901
H	-0.8377315968	-2.3002512874	-2.2276205284	 0.103822
H	-1.132024901	-3.4230285329	 1.2527504481	 0.28244
H	-3.4510997722	-2.0880927622	 0.5451187307	 0.089036
H	-3.2645044941	-2.3501661436	-1.210600637	 0.086103
H	-3.9930148646	-5.6236697068	 0.2310055804	 0.128969
H	-4.7226220637	-4.1169283545	 0.852267291	 0.109282
H	-4.6538754963	-4.4167197527	-0.9045689932	 0.108685
