18
gdb 85185	2.48833	1.44656	1.04772	3.1695	73.2	-0.232	-0.028	0.204	1173.5478	0.145537	-439.044273	-439.035498	-439.034554	-439.078213	31.795	
C	-0.1677283109	 1.4365640881	-0.0572096708	-0.330186
N	 0.0612312421	 0.0169742326	 0.1058914707	-0.07873
C	-1.1119129475	-0.8424892909	 0.3816601438	-0.283549
C	-0.2996024538	-1.5116092731	 1.4934600683	 0.399518
O	-0.4425825011	-2.4565976288	 2.2083011583	-0.293991
C	 0.7919854587	-0.4347581873	 1.3185333145	-0.126377
C	 2.2116183514	-0.8845718311	 1.0998586584	 0.074249
C	 2.7616772761	-2.0504043368	 1.8050685353	-0.183394
O	 2.3841282825	-2.1284587898	 0.4268095723	-0.229424
H	 0.7881842809	 1.9558398221	-0.178059505	 0.126809
H	-0.7579552424	 1.6157072548	-0.9611849283	 0.130161
H	-0.7021779968	 1.8949773369	 0.7975517764	 0.093725
H	-1.987378809	-0.310705311	 0.7913042835	 0.115451
H	-1.436880451	-1.4737873138	-0.4519518826	 0.140256
H	 0.7529125602	 0.2942872776	 2.1485680817	 0.09007
H	 2.8980395636	-0.1004629607	 0.774906133	 0.097706
H	 3.8316943786	-2.0994073586	 2.0001121324	 0.116572
H	 2.1234247384	-2.6068201805	 2.4877879783	 0.141134
