19
gdb 34139	2.65289	1.70041	1.34872	0.6736	86.27	-0.2501	0.0455	0.2956	1020.8954	0.160997	-348.694002	-348.6867	-348.685756	-348.725484	30.112	
C	 0.0070273949	-1.1783813258	 0.019427262	-0.372685
C	-0.0190347126	 0.025081505	 0.0374305011	 0.06645
C	-0.0417526427	 1.4584444623	 0.0440553036	 0.260909
C	-0.673005769	 2.4120784334	 1.0957208362	-0.284555
C	-0.0579513338	 3.3465622512	 0.0294577913	-0.096133
C	 1.200986307	 2.4251940127	-0.0417700479	-0.032753
C	 1.7397825759	 2.4050955759	-1.4702785082	-0.244973
C	 0.3982849884	 2.3874984264	-2.2595230004	-0.244971
C	-0.5890035887	 2.4016979304	-1.0948766827	-0.032759
H	 0.0274804853	-2.2398284837	 0.0085379562	 0.175649
H	-1.7636718635	 2.3931247776	 1.1708291848	 0.095255
H	-0.2087196684	 2.4135337117	 2.0856647423	 0.095255
H	-0.0639776986	 4.4370313928	 0.0153730353	 0.070022
H	 1.9060459572	 2.4255819116	 0.7915769757	 0.067353
H	 2.3507126321	 3.2860387229	-1.691074805	 0.097855
H	 2.3532179325	 1.5198445929	-1.6630317158	 0.107434
H	 0.2774532471	 3.2588581224	-2.9108143965	 0.097856
H	 0.2861553125	 1.4927454565	-2.8791760707	 0.107435
H	-1.6596907056	 2.3787768338	-1.3062548613	 0.067356
