18
gdb 65012	2.24362	1.33777	1.06883	3.1803	77.86	-0.2433	-0.0254	0.2179	1197.3344	0.14426	-401.894077	-401.884359	-401.883414	-401.928996	35.175	
C	-0.2616660551	 1.4696337434	-0.4436780754	-0.476032
C	 0.0254177219	 0.0184731638	-0.1209619589	 0.311402
C	 1.0283573039	-0.7233924009	-0.9231032832	-0.278703
N	 1.3222007849	-0.3492759505	 0.4748467285	-0.350332
C	-1.1451755379	-0.7709823348	 0.4961698822	-0.348031
C	-1.4435624087	-0.2080028136	 1.8913275134	 0.153926
O	-2.5147350375	 0.1645806701	 2.2837400024	-0.236868
C	-2.3125521692	-0.8292696667	-0.3707739929	 0.353935
C	-3.2689038871	-0.8718445849	-1.0961674079	-0.434469
H	 0.6077577407	 1.9418401723	-0.9112114525	 0.115104
H	-1.1084222957	 1.5526612183	-1.1311125078	 0.148959
H	-0.5127860211	 2.0368410832	 0.4599765725	 0.133488
H	 0.9105676891	-1.7892349624	-1.0980076224	 0.123876
H	 1.5328414313	-0.1874553727	-1.7223632922	 0.117411
H	 1.9369958019	 0.4606713831	 0.4978275671	 0.232463
H	-0.7625410803	-1.7857016322	 0.6791003957	 0.131104
H	-0.5346454891	-0.1757416083	 2.5293506506	 0.103375
H	-4.121399442	-0.913510047	-1.7281033791	 0.199393
