18
gdb 19360	4.21855	1.63532	1.46359	2.9083	71.49	-0.1971	0.0713	0.2684	930.0108	0.153791	-343.874711	-343.867297	-343.866353	-343.906291	29.012	
C	-0.2651968702	 1.4976737685	-0.0557115811	-0.371469
C	 0.1029137174	 0.011947434	 0.0706405955	-0.315256
C	 0.8291769787	-0.5123233428	-1.1304391805	 0.373744
N	 0.1642869152	-0.8302248422	-2.4175480493	-0.349143
C	 0.9624541106	-1.8678399424	-1.7103715712	-0.143669
C	 2.4772258486	-1.6119331144	-1.991756279	-0.05495
N	 2.6092713723	-0.4308961641	-2.8794497068	-0.307521
C	 2.3523719905	-0.2499758635	-1.4304775581	-0.111556
H	 0.6291128327	 2.1135372915	-0.195914338	 0.12252
H	-0.9192678738	 1.6679460517	-0.916170271	 0.128424
H	-0.7804122047	 1.8525462371	 0.8419346026	 0.111345
H	 0.7273452789	-0.1379005809	 0.9617847071	 0.10176
H	-0.8038264994	-0.586773904	 0.2287440486	 0.095372
H	-0.812088775	-1.0269922311	-2.1897609726	 0.220902
H	 0.5252630523	-2.8091025372	-1.4016284069	 0.090819
H	 3.268824495	-2.3423510878	-1.8885958021	 0.092675
H	 3.6118338503	-0.2862831609	-3.0094008085	 0.226166
H	 3.0256553506	 0.3095917187	-0.7932439588	 0.089835
