15
gdb 32392	6.86437	0.87259	0.77802	1.5421	81.6	-0.2087	-0.0194	0.1893	1403.0537	0.111329	-420.607752	-420.599423	-420.598479	-420.64077	30.73	
C	-0.015358352	 1.4164902062	 0.007285023	-0.253429
O	 0.0246085953	-0.0002594881	 0.0026872669	-0.260322
C	-1.1798945561	-0.6084829485	 0.0105414241	 0.378427
C	-2.4404954508	-0.074562556	 0.0219643646	-0.193719
O	-3.3655796145	-1.0754585624	 0.0264937152	-0.182269
C	-2.6838423041	-2.259207073	 0.0178139254	 0.274813
C	-1.3356033748	-2.0261008624	 0.0078967836	-0.4518
C	-3.4321198678	-3.4494948496	 0.0204035192	 0.250641
C	-4.0614769378	-4.4765070953	 0.0225224255	-0.411011
H	 1.0198301447	 1.7597781448	 0.0003050529	 0.139469
H	-0.53443074	 1.7998050638	-0.8814219326	 0.124792
H	-0.5206007356	 1.7943842065	 0.9062209879	 0.124793
H	-2.8294036117	 0.9278624688	 0.0278470238	 0.136463
H	-0.5504475204	-2.7638572315	-0.0003055418	 0.12758
H	-4.6174926144	-5.3810325334	 0.0244023823	 0.195574
