13
gdb 4419	3.78204	2.01841	1.31605	3.0597	66.92	-0.1999	-0.0412	0.1587	852.7141	0.098025	-394.814053	-394.80759	-394.806646	-394.844522	25.079	
O	-0.1425667554	 1.3218350436	 0.01094641	-0.410991
C	 0.0442392148	-0.0118801786	 0.0026620149	 0.459315
C	 1.2395789933	-0.6734355759	-0.0076706344	-0.205846
N	 1.2720345386	-2.0420214125	-0.0152805483	-0.209157
C	 0.1635792428	-2.7112573863	-0.0126602988	-0.079149
C	-1.1720895093	-2.1127430247	-0.0018767748	 0.338688
N	-2.3263907503	-2.6706574126	 0.0016402926	-0.559759
N	-1.1150913196	-0.7124489755	 0.005391199	-0.354857
H	 0.7160910514	 1.7594854764	 0.0085693855	 0.31901
H	 2.1831059306	-0.1411900455	-0.0101071538	 0.100006
H	 0.2162522854	-3.7981438806	-0.0188516133	 0.112314
H	-2.223904412	-3.6839149911	-0.0044215387	 0.216454
H	-1.9967816203	-0.2172630567	 0.01307837	 0.273972
