21
gdb 71953	2.80929	1.84402	1.62673	1.6593	80.29	-0.23	0.0889	0.3189	951.4364	0.185797	-387.110555	-387.10361	-387.102666	-387.141282	29.967	
C	 0.0143277936	 1.5492404647	 0.0972341959	-0.484749
C	-0.0402100326	 0.04740793	-0.0304769857	 0.444037
C	 0.7299507165	-0.58724948	-1.2155752934	-0.254111
C	-0.0132563636	-1.9342056962	-1.3969531266	-0.032838
C	 0.0552657786	-2.7026972785	-0.0536203528	-0.223472
C	-0.5790367081	-1.679151333	 0.9100531825	 0.105981
O	 0.3764689637	-0.6296485869	 1.1913392051	-0.338847
C	-1.3901817014	-0.7467252888	-0.0378546324	-0.107491
C	-1.4846172665	-1.4581875829	-1.3866735138	-0.233779
H	 1.0502229705	 1.8874132947	 0.2117332214	 0.124844
H	-0.4026396412	 2.0298453554	-0.7939356658	 0.114387
H	-0.5506053714	 1.8818271889	 0.9726277535	 0.12164
H	 0.6401590616	 0.0245083142	-2.1208600443	 0.088858
H	 1.7905931773	-0.6915929854	-0.9710399633	 0.10136
H	 0.2992775191	-2.5117650534	-2.2686282896	 0.058645
H	-0.5383288233	-3.6228704452	-0.1052181445	 0.090298
H	 1.0690951022	-2.960265049	 0.2641140295	 0.102839
H	-1.0196595763	-2.091073668	 1.8204640771	 0.069476
H	-2.2637900221	-0.2432266169	 0.3724563301	 0.065715
H	-1.7251583256	-0.7823678649	-2.2139885195	 0.093365
H	-2.205254691	-2.2825608589	-1.3900772534	 0.093844
