19
gdb 97578	3.42529	0.67643	0.5866	1.3632	77.73	-0.2493	0.0243	0.2736	1876.576	0.15527	-460.116334	-460.104998	-460.104053	-460.154667	39.093	
C	-0.0276839279	 1.548666247	 0.0407435028	-0.410171
C	 0.005577981	 0.0237080523	 0.0619763152	 0.127916
O	 0.7122841372	-0.4832423684	 1.1822707407	-0.421382
C	-1.4283079571	-0.5727874655	 0.0013111222	-0.070729
O	-2.1481395341	-0.0713108127	-1.1239006633	-0.418272
C	-1.4001961838	-2.0344552393	 0.0193288324	 0.012284
C	-1.3649117485	-3.2373812272	-0.051785313	 0.100489
C	-1.3654800262	-4.699599924	-0.0751699214	-0.195738
O	-2.6641212701	-5.2670246706	-0.1722841092	-0.401065
H	 0.9901348743	 1.9471215816	 0.0397820434	 0.12233
H	-0.5607567199	 1.9125043365	-0.8399052169	 0.138232
H	-0.5466941831	 1.93446396	 0.9283995225	 0.104271
H	 0.5536150383	-0.3484311452	-0.8122392689	 0.090697
H	 0.3453688161	-0.0735935618	 1.9738197946	 0.27948
H	-1.9766184352	-0.2046135554	 0.880769683	 0.100655
H	-1.9275687977	-0.6309434049	-1.8764370994	 0.288671
H	-0.8157459891	-5.0638151993	-0.9501484121	 0.140694
H	-0.8275564079	-5.0709181286	 0.8119373106	 0.123273
H	-3.2033455062	-4.8727924645	 0.5212865368	 0.288364
