14
gdb 131436	3.46853	1.58345	1.09451	1.9983	69.42	-0.2212	-0.0201	0.2011	1019.1083	0.102807	-436.682194	-436.675594	-436.67465	-436.713062	26.19	
O	 0.0893815315	 1.3531926804	 0.0811704612	-0.416142
C	 0.0730661992	 0.0118037566	 0.0833016241	 0.294683
N	 0.0772568477	-0.6718098999	-1.0462248516	-0.264976
O	 0.0565388186	-2.0378313083	-0.6731798806	-0.23383
C	 0.0413938266	-2.0758103713	 0.6560984419	 0.39302
C	 0.0502049806	-0.8377741598	 1.2193238521	 0.117042
C	 0.0322243456	-0.9966161629	 2.6735757698	-0.218506
C	 0.0131137325	-2.3157268994	 2.9544006812	-0.089163
C	 0.0168840444	-3.1614940416	 1.6820985267	-0.418143
H	 0.1030921628	 1.6423396704	-0.8417675281	 0.311892
H	 0.0340532868	-0.1907224095	 3.3940985188	 0.115845
H	-0.0031545308	-2.7582794632	 3.941029707	 0.108085
H	-0.8709008993	-3.801301013	 1.6056493704	 0.150096
H	 0.8903556105	-3.8226732485	 1.6250889271	 0.150096
