15
gdb 78158	2.11561	1.76462	1.03463	1.1837	69.21	-0.2557	-0.018	0.2377	1093.2548	0.114004	-453.979031	-453.971515	-453.970571	-454.011009	29.046	
O	-0.0301545442	 1.307206735	 0.1188886807	-0.418054
C	-0.0071276665	-0.0758506474	 0.0151286806	 0.097453
C	-1.3608687493	-0.7220322355	 0.0113732077	-0.118613
C	-0.5402423741	-0.6983558139	-1.2701374756	-0.235492
C	-0.1059417043	-2.1119696408	-1.5148488417	 0.414745
O	 0.501725043	-2.5673031403	-2.4518532135	-0.36095
N	-0.5472131493	-2.8458180752	-0.4099990908	-0.375835
C	-1.3963123725	-2.1488506506	 0.4595839547	 0.38455
N	-2.0881322633	-2.5809139954	 1.4308518101	-0.537348
H	 0.7601818552	 1.6569564597	-0.3071433263	 0.298258
H	 0.8103021663	-0.5793081745	 0.5308651163	 0.112965
H	-2.2270554712	-0.0970575087	 0.1763158666	 0.135669
H	-0.7517451046	-0.0542055861	-2.112006903	 0.127276
H	-0.3720198545	-3.837475582	-0.3453801644	 0.261741
H	-1.9710575807	-3.5866832243	 1.5653464487	 0.213634
