21
gdb 66161	3.57016	0.79324	0.74277	3.5753	80.06	-0.246	-0.017	0.229	1586.0093	0.180122	-424.225841	-424.215918	-424.214974	-424.261883	35.396	
C	-0.0415895795	 1.7714285802	-0.1374752102	-0.438793
C	-0.0121158041	 0.2497192084	-0.1196173661	 0.438154
C	-1.3878243755	-0.3843071683	 0.11719999	-0.245925
C	-1.9673695273	-0.071653364	 1.5080425546	-0.279191
C	-3.1378608544	-0.9659393544	 1.8379517788	 0.157844
O	-4.2356549516	-0.5862470347	 2.1543905569	-0.239863
C	 0.8077338271	-0.4185643076	-1.2565820131	-0.33962
C	 1.710979682	-0.9328350434	-0.1208817416	-0.064601
O	 0.9370301094	-0.2367789573	 0.8777235407	-0.321235
H	 0.9609600007	 2.1679717373	-0.3195766381	 0.119512
H	-0.707942205	 2.1369987174	-0.9266037248	 0.11768
H	-0.3910218802	 2.1696244646	 0.8193707451	 0.130751
H	-2.0802650266	-0.05690844	-0.6684008319	 0.109336
H	-1.2826651079	-1.4717413438	 0.0135725836	 0.098646
H	-1.1774253325	-0.2668115368	 2.2471311852	 0.141862
H	-2.289244862	 0.9678775691	 1.6045611845	 0.120093
H	-2.9105760043	-2.0567754774	 1.7633927804	 0.067965
H	 0.2783512108	-1.1809127031	-1.8309424547	 0.108243
H	 1.2833053815	 0.2832766822	-1.9437631182	 0.110405
H	 1.7025901747	-2.0184534128	 0.0366449762	 0.102752
H	 2.751909265	-0.5899742757	-0.1406214475	 0.105987
