19
gdb 54101	2.78294	1.51475	1.36502	2.1738	75.6	-0.2392	0.0307	0.2699	1032.143	0.159917	-419.158437	-419.149964	-419.14902	-419.191274	32.928	
C	-0.1907767699	 1.561850811	-0.1055615296	-0.488591
C	-0.0298973349	 0.0435890466	-0.0827302222	 0.301688
C	 0.8754245068	-0.6961534683	-1.1086758279	-0.094047
C	 2.0582971011	-0.12426164	-0.2931777273	-0.187647
N	 1.0882451855	-0.5639281008	 0.8217080251	-0.204046
C	 0.9213346348	-1.8252001692	-0.0601485813	-0.180153
C	-1.4197303284	-0.5369960524	 0.2024619181	 0.292316
N	-1.6383821995	-0.7936504833	 1.5221199832	-0.511118
O	-2.2587052599	-0.6702014225	-0.6676321023	-0.375222
H	 0.6969889599	 2.0972561261	-0.4434022879	 0.120798
H	-1.0135781752	 1.8113221465	-0.7816288848	 0.150493
H	-0.4528573924	 1.9270585537	 0.8926911347	 0.131771
H	 0.7498701086	-0.76718909	-2.1926110066	 0.079437
H	 2.987270544	-0.6995820731	-0.2924086439	 0.104893
H	 2.2717834644	 0.9429537661	-0.3147854557	 0.106666
H	 0.0158011964	-2.3996462581	 0.138389031	 0.120813
H	 1.8038359215	-2.4689593754	-0.0451422165	 0.100419
H	-0.8639098716	-0.7888167796	 2.1672432268	 0.273079
H	-2.519346331	-1.1956606171	 1.7986399872	 0.258451
