18
gdb 70222	3.28659	1.36889	1.12207	3.5718	73.36	-0.2489	0.0304	0.2792	1097.8363	0.148306	-439.08394	-439.075985	-439.07504	-439.116357	31.394	
O	-0.1560149001	 1.3032945155	 0.3864767457	-0.465497
C	 0.0511483953	-0.0092770702	-0.0582347326	 0.355682
C	-0.5047250068	-0.4091380364	-1.4087139498	-0.370935
C	-1.1929981225	-0.8326041698	-0.1302016698	 0.059891
O	-1.1359041323	-2.1890529785	 0.2415681842	-0.249971
C	-0.2723112039	-2.5974909455	 1.2305386867	 0.40001
N	-0.3044002291	-3.7829452006	 1.6703296599	-0.515092
C	 0.7373182291	-1.5867756954	 1.7148247451	-0.281993
C	 1.2486278336	-0.7333792755	 0.5425354024	-0.28516
H	 0.4797145959	 1.8717378825	-0.0629792822	 0.285373
H	-0.9989864282	 0.3575319013	-1.9948329457	 0.120513
H	 0.0155234075	-1.1746416219	-1.9744881716	 0.124752
H	-2.1374238161	-0.3630225981	 0.1255006842	 0.117837
H	-1.0583516156	-4.3040860958	 1.2168969563	 0.217331
H	 0.2628808796	-0.922048702	 2.4478160897	 0.133935
H	 1.5289540038	-2.1345214698	 2.2269918139	 0.132428
H	 1.747371183	-1.367221782	-0.1974592218	 0.114625
H	 1.9792709168	 0.0024775724	 0.8901658454	 0.106271
