16
gdb 37539	4.1189	1.68952	1.44406	1.8159	73.7	-0.2152	-0.0019	0.2134	893.5341	0.124855	-400.607349	-400.601264	-400.60032	-400.637461	25.831	
C	-0.0208907906	 1.555160753	-0.2046923229	-0.237231
C	 1.4742748256	 1.8309886258	-0.0292058459	-0.061737
C	 2.0976380692	 0.8183128504	 0.5893600214	-0.249124
C	 1.0369578391	-0.1716312223	 0.9012036028	 0.344933
C	 0.5177273781	-1.6264586164	 1.168010762	-0.025107
O	 0.5092931004	-1.5297441702	 2.6098253995	-0.320767
C	 0.0802345216	-0.2029833237	 2.2011259221	 0.027332
C	-0.7532926205	-0.7032175932	 0.9827303522	-0.081258
N	-0.0464547685	 0.0876913833	-0.0687832987	-0.135921
H	-0.5878027196	 2.0959448998	 0.5751649547	 0.100956
H	-0.4127495674	 1.8753332093	-1.1754999053	 0.114089
H	 1.9338595046	 2.7639984682	-0.3343026338	 0.107453
H	 3.1341650687	 0.7742771117	 0.891872597	 0.117855
H	 0.7722700652	-2.5706605869	 0.6891164053	 0.106569
H	-0.1286682615	 0.529094928	 2.9815371265	 0.097821
H	-1.7997464344	-1.0046130068	 0.933984523	 0.094138
