19
gdb 77682	1.92794	1.63737	1.61424	2.488	70.74	-0.2392	0.0554	0.2946	1025.4825	0.158156	-460.142499	-460.133538	-460.132594	-460.175302	34.475	
C	-0.1598021233	 1.591949111	-0.0635155642	-0.434136
C	 0.0237332437	 0.0934828942	 0.0623366256	-0.142136
C	 1.3341469845	-0.6373275065	-0.1752656549	 0.244218
O	 1.3470322713	-1.8709234093	-0.8338030356	-0.470933
C	 2.6374652799	 0.1343962958	-0.0666887177	-0.140141
O	 2.5575170773	 0.8545587524	 1.1616682505	-0.257768
C	 1.6994788873	 0.1583875374	 2.0699849782	-0.138605
C	 0.7290364061	-0.6219816285	 1.2044027053	 0.346369
O	 0.1775404801	-1.7779602191	 1.7425275657	-0.481363
H	 0.7066263182	 2.1366182766	 0.316118125	 0.147287
H	-0.3134232644	 1.882040917	-1.1091325015	 0.11212
H	-1.0404964755	 1.917107183	 0.5004280433	 0.122239
H	-0.8265833052	-0.4965182031	-0.2760947073	 0.087879
H	 0.9734919309	-1.7613306109	-1.71387417	 0.29357
H	 3.4685881249	-0.5880517695	-0.0694379242	 0.103477
H	 2.8126193345	 0.8709669365	-0.858602548	 0.103075
H	 2.2555708824	-0.5551341925	 2.6963876166	 0.103852
H	 1.2417803652	 0.9120035277	 2.7183697704	 0.11125
H	 0.3778356722	-2.4912288923	 1.1199302429	 0.289745
