16
gdb 24694	3.81446	1.59396	1.14601	4.0109	77.75	-0.2209	-0.0179	0.203	1014.9378	0.129769	-397.002444	-396.995896	-396.994952	-397.033356	25.792	
C	-0.005125486	 1.4316217662	 0.0839564735	-0.169441
C	 1.4613134818	 1.9192361374	-0.1144342967	-0.347309
C	 2.2417858898	 0.6289632242	-0.0389518831	 0.22001
C	 3.5663653861	 0.2951352485	 0.0809705453	-0.110194
N	 3.9741688623	-0.9948556618	 0.0968956184	-0.275529
C	 3.0211957688	-1.9118811639	-0.0106022405	 0.064713
N	 1.6947029081	-1.7258472846	-0.1278276117	-0.366737
C	 1.3386943641	-0.4479181975	-0.1425193146	 0.399252
N	 0.0528784478	 0.0076651869	-0.2726454005	-0.3704
H	-0.3190451056	 1.565372053	 1.1289953934	 0.111726
H	-0.7133993356	 1.9671816553	-0.5530627642	 0.119339
H	 1.5789114878	 2.3887299812	-1.0985568319	 0.129011
H	 1.7498968325	 2.6600021338	 0.6351572248	 0.124427
H	 4.3458459851	 1.0484245063	 0.1765107461	 0.107694
H	 3.347931068	-2.9494816479	 0.0030622287	 0.111309
H	-0.7084218951	-0.612179397	-0.042546667	 0.252128
