16
gdb 61093	3.00255	0.86114	0.70005	5.2978	76.92	-0.2715	-0.0364	0.2352	1555.8745	0.123258	-434.109927	-434.10045	-434.099506	-434.145257	32.615	
C	-0.7291781664	 1.3996141039	 0.3493642313	-0.376
C	-0.2527716727	-0.0585736183	 0.2150982826	-0.063062
N	-0.2237391997	-0.4357632175	-1.1907292654	-0.273931
C	 0.8481643378	-0.8565419813	-1.7228314724	 0.136017
N	 0.8580915409	-1.1984554553	-3.0641757455	-0.319603
C	 1.9731022291	-1.66371058	-3.7325679051	 0.162297
O	 3.0574124922	-1.8232379085	-3.2306852554	-0.28214
C	 1.0193397685	-0.253474242	 0.9407121795	 0.249832
N	 2.0298349857	-0.4129695113	 1.4790151361	-0.323366
H	-0.0027459413	 2.0794548172	-0.1025122489	 0.139833
H	-1.6825138018	 1.5072186393	-0.172151069	 0.137931
H	-0.8581920812	 1.6690278344	 1.4004575211	 0.136551
H	-0.9959554546	-0.7032284702	 0.7030471396	 0.140573
H	 1.8141814187	-0.9928058977	-1.2322582553	 0.169883
H	-0.0137960646	-1.094354791	-3.5646070902	 0.267304
H	 1.7489882294	-1.8744707317	-4.794650783	 0.097881
