20
gdb 15907	2.91467	1.62845	1.39542	2.4605	70.97	-0.246	0.0597	0.3058	1009.1149	0.176556	-386.12797	-386.119246	-386.118302	-386.161025	33.108	
C	-0.2471559269	 1.7140323603	 0.162357554	-0.383578
C	-0.0923335631	 0.2074816022	 0.3958841654	-0.189125
C	-1.3367910823	-0.584091607	 0.0213841457	 0.002066
C	-1.7998558665	-0.6754280805	-1.4601098879	 0.084224
O	-0.6374848466	-0.6772404303	-2.291914108	-0.435818
C	-2.2981394695	-2.1149694626	-1.1654021573	-0.280615
C	-1.3165702681	-2.1494453998	 0.0442062007	 0.123431
O	-0.0626954913	-2.7221335774	-0.255264551	-0.438685
H	 0.6535087389	 2.2554735224	 0.4682527206	 0.110638
H	-0.4206780275	 1.9289148734	-0.896900294	 0.12372
H	-1.0900536539	 2.1237660733	 0.730830348	 0.106835
H	 0.7640761171	-0.1658801851	-0.1723798188	 0.104959
H	 0.1351624328	 0.0136825977	 1.4518216301	 0.095496
H	-2.1930115012	-0.2418704357	 0.6156537574	 0.071635
H	-2.5285723978	 0.0614877619	-1.8191061558	 0.064285
H	-0.9066703301	-0.9469624678	-3.1763944533	 0.287694
H	-3.3467701482	-2.131769088	-0.8544940458	 0.101579
H	-2.1371912426	-2.866320305	-1.9441424428	 0.092183
H	-1.6640022635	-2.6356658374	 0.9590502734	 0.07664
H	 0.2438401405	-2.2977815045	-1.0677474807	 0.282437
