16
gdb 105724	2.41015	1.46468	1.1828	3.4218	69.24	-0.2495	-0.0128	0.2367	1079.5246	0.125873	-434.080289	-434.071869	-434.070925	-434.113815	30.398	
N	 0.1231314742	 1.4410193068	-0.0163889566	-0.504056
C	-0.0229499051	 0.0066825068	 0.0974325156	-0.181927
C	-1.479185174	-0.5425299998	-0.0121079848	 0.086502
C	-1.5630813144	-2.0856187905	 0.2183248229	-0.151447
O	-2.4199667074	-2.2202109797	 1.3743332642	-0.210644
C	-2.7360067422	-0.9629263642	 1.7430734329	 0.131283
N	-2.3047835649	 0.0288673573	 1.0794320659	-0.285122
C	-2.0427281053	-0.1541685617	-1.3137972163	 0.281182
N	-2.4422124914	 0.1412400005	-2.3572462299	-0.3412
H	-0.1386823894	 1.7531192124	-0.9469119024	 0.244693
H	-0.5059766856	 1.899097058	 0.6366513272	 0.248562
H	 0.5899970647	-0.4827701045	-0.6681562632	 0.121319
H	 0.3511891853	-0.3176810721	 1.0758659488	 0.116739
H	-2.0109817484	-2.6313741448	-0.612989718	 0.150006
H	-0.5878578022	-2.5181273992	 0.4601433124	 0.134427
H	-3.3632849239	-0.8968597852	 2.6249335614	 0.15968
