13
gdb 11092	7.58576	1.0808	1.05476	1.4973	63.47	-0.2846	-0.0225	0.2621	1056.1518	0.096966	-357.639066	-357.63185	-357.630906	-357.671067	25.457	
N	-0.0892624305	-1.1965903421	-0.1371842123	-0.3117
C	-0.0378057292	-0.0451918362	-0.0438991712	 0.266615
C	 0.0722162308	 1.4125117436	 0.0689275695	-0.111335
C	-0.1663138244	 1.9449244929	 1.5155196188	-0.249862
C	 1.3852110799	 2.0162791888	 1.6267701599	-0.114424
N	 1.4615463197	 1.9258924491	 0.1495049645	-0.297379
C	 1.9754134792	 3.223028641	 2.2036171337	 0.29917
N	 2.4324411929	 4.1731820722	 2.6759475938	-0.309398
H	-0.5205199448	 1.8765122287	-0.7245274443	 0.140795
H	-0.6322227482	 2.9291886504	 1.5121874114	 0.152735
H	-0.675271551	 1.282476443	 2.2120828437	 0.149786
H	 1.7887415945	 1.1428188962	 2.1549688241	 0.135683
H	 2.1879675611	 1.3243984826	-0.2239504116	 0.249314
