21
gdb 57307	3.0829	0.95382	0.87723	2.7896	85.	-0.2423	-0.0144	0.2279	1440.3684	0.177513	-387.082225	-387.071245	-387.070301	-387.118545	40.179	
C	-0.0186451275	 1.546821215	 0.1236003996	-0.399557
C	-0.0143310606	 0.0149934349	 0.0020782381	 0.15398
C	 0.6314763252	-0.6093175442	 1.254997383	-0.420499
C	-1.46869778	-0.4939282124	-0.1446494622	-0.411323
C	 0.7416298707	-0.3814605988	-1.2839694395	 0.375901
O	 0.9576891548	 0.4101902701	-2.1662629889	-0.291759
C	 1.2058483874	-1.8502269343	-1.4028977036	-0.505193
C	 1.5969762584	-2.2416782815	-2.7459073306	 0.323111
C	 1.9149305672	-2.5805333493	-3.8529170559	-0.413194
H	 0.9974510993	 1.9361535197	 0.2368019331	 0.117503
H	-0.4490812153	 2.0093363187	-0.7663257844	 0.13379
H	-0.6022361452	 1.8519295495	 0.9980516321	 0.104307
H	 0.0950032414	-0.2759826724	 2.1492271324	 0.119453
H	 0.5969988664	-1.7026214046	 1.2446146574	 0.117904
H	 1.6766794423	-0.3006372308	 1.3638223791	 0.121637
H	-1.9471072607	-0.0656327808	-1.0305042356	 0.133089
H	-1.521611757	-1.5844828408	-0.2217582951	 0.115792
H	-2.0527771582	-0.1968488437	 0.7326584073	 0.12221
H	 2.051695954	-1.972509497	-0.711883501	 0.15883
H	 0.4243649845	-2.5164785471	-1.0192828786	 0.147469
H	 2.1974157531	-2.86968301	-4.8346177468	 0.19655
