16
gdb 132491	3.04146	1.29046	0.9112	2.2309	75.44	-0.2126	-0.0058	0.2069	1195.1312	0.123845	-445.926285	-445.918283	-445.917338	-445.958577	30.845	
C	 0.026666192	 1.5104874594	 0.0437366824	-0.536872
C	 0.0325659929	 0.0025160466	 0.0129815926	 0.219817
C	-0.0176196539	-0.6970714675	-1.1940609805	-0.347943
C	-0.0112437792	-2.0830442404	-1.2013452028	 0.303284
F	-0.0602367509	-2.7299728491	-2.375507293	-0.087944
C	 0.0445670839	-2.8112634731	-0.0226130971	-0.257963
C	 0.0948902503	-2.1260236009	 1.1855331881	-0.168326
C	 0.0891818467	-0.7323997881	 1.2076189495	 0.289968
O	 0.1407882986	-0.1302948351	 2.434044165	-0.442663
H	 0.9322648793	 1.9157359218	 0.5151760304	 0.1343
H	-0.0216396691	 1.9227298565	-0.9663499615	 0.138791
H	-0.835938588	 1.9071471127	 0.5961526389	 0.134242
H	-0.0621187854	-0.1641189019	-2.1376078253	 0.10349
H	 0.0481860289	-3.894125368	-0.0583290903	 0.110845
H	 0.139298843	-2.6591035797	 2.1281212328	 0.110396
H	 0.131525391	 0.8250043867	 2.3232995107	 0.296578
