21
gdb 89425	2.60226	1.535	1.25754	1.7526	83.53	-0.2364	0.0041	0.2404	1116.1136	0.18281	-387.100254	-387.091674	-387.09073	-387.132776	34.037	
C	-0.4623607748	 1.4788238242	 0.1157736145	-0.388996
C	 0.0029474722	 0.0106324882	 0.0082018721	-0.038822
C	 0.684730847	-0.2904989789	-1.34857472	-0.295017
C	 2.1656159878	 0.0454142019	-1.4163705677	 0.40078
C	 2.8483979024	-0.2306687982	-2.7361929047	-0.467402
O	 2.5726051836	 1.2549253856	-0.7675871544	-0.292367
C	 2.9238014659	-0.0132526553	-0.150301418	-0.056845
C	 2.2187111962	-0.3717307664	 1.1024317265	-0.040591
C	 0.8864506603	-0.364099992	 1.172269995	-0.092958
H	 0.3909734774	 2.1523479867	 0.0195735513	 0.148362
H	-1.1850547684	 1.7077146613	-0.6756491753	 0.10457
H	-0.9482545142	 1.6665991093	 1.0788904863	 0.106702
H	-0.8983357896	-0.6145159688	 0.0607530498	 0.075557
H	 0.5912084642	-1.3614398608	-1.5710694742	 0.102715
H	 0.1528607353	 0.2385363753	-2.1494350917	 0.100358
H	 2.3952050768	 0.366634627	-3.5354247824	 0.124207
H	 3.9094312841	 0.0251802901	-2.6809938479	 0.126472
H	 2.7553688958	-1.2861628385	-3.0131715374	 0.120244
H	 3.9909417536	-0.2250394657	-0.1930287237	 0.082983
H	 2.8246117285	-0.6378234966	 1.9633415377	 0.087889
H	 0.3917709161	-0.6057749483	 2.1099350141	 0.092158
