15
gdb 18197	4.36705	1.76013	1.4441	3.1157	66.89	-0.2441	0.0389	0.283	863.6329	0.119336	-362.592978	-362.586089	-362.585144	-362.624055	26.392	
C	 0.0770012616	-1.2361230055	 0.0550025592	-0.438066
C	 0.0487258298	-0.0358904483	 0.078897102	 0.325554
C	 0.0211249718	 1.4218529122	 0.0414908873	-0.036824
O	-0.6111481855	 1.9278373299	 1.2218130467	-0.265773
C	-0.0639393472	 3.2016244818	 1.55297997	-0.073908
C	 1.3257174029	 3.2243150289	 0.9519518344	-0.058754
N	 2.0958223571	 2.0102670185	 1.2891238758	-0.318571
C	 1.3899429994	 2.0946901668	 0.0010192722	-0.07367
H	 0.1051507763	-2.2976626806	 0.0532149072	 0.196649
H	-0.5367194769	 1.7436347304	-0.8552017153	 0.096078
H	-0.6658394437	 4.0202987217	 1.1269136045	 0.092446
H	-0.0741654158	 3.2852403484	 2.6441287236	 0.119492
H	 1.8313758773	 4.1674898202	 0.7753840179	 0.097399
H	 3.0861909358	 2.184463223	 1.1357544667	 0.235507
H	 1.9379602971	 2.1276502426	-0.9336729723	 0.102439
