17
gdb 12670	2.7253	2.24962	1.4935	3.6959	63.85	-0.2518	0.0247	0.2765	873.2346	0.143466	-401.048339	-401.040572	-401.039628	-401.080195	29.329	
C	-0.0723050267	 1.5406750454	 0.0316965519	-0.390073
C	-0.0218646344	 0.0106560723	 0.00866548	-0.035973
C	 0.8671215936	-0.5295699636	-1.1471275052	-0.181593
N	 2.1900617698	-0.6143633468	-0.5364759894	-0.307833
C	 2.1712890353	-0.5711671259	 0.8190400362	 0.384944
O	 3.1094683785	-0.5173596955	 1.5904140885	-0.401722
C	 0.6986429434	-0.57047784	 1.2441460482	 0.044081
O	 0.5238371771	 0.1391680645	 2.4394424977	-0.43761
H	 0.934501237	 1.9717281016	 0.0429852421	 0.123354
H	-0.5943889681	 1.9202866532	-0.852122316	 0.10857
H	-0.5905117145	 1.8926289061	 0.9253853623	 0.142084
H	-1.0361034911	-0.3869133543	-0.0816260282	 0.084374
H	 0.5246574917	-1.5129571087	-1.4962896818	 0.110938
H	 0.8758577917	 0.1479854974	-2.0065277009	 0.117143
H	 3.0512142758	-0.6602151142	-1.0570990842	 0.256672
H	 0.3983921428	-1.6260673714	 1.3716321145	 0.088889
H	 1.3995752979	 0.1492137498	 2.8563947043	 0.293755
