19
gdb 59419	3.11565	0.93232	0.88578	2.9539	73.83	-0.256	-0.0357	0.2203	1399.9118	0.154641	-460.155014	-460.144581	-460.143637	-460.191138	36.772	
C	 0.3663979642	 1.3865634987	 0.2411812319	-0.411965
C	-0.2355675001	 0.0429272258	-0.1675989644	 0.092042
O	-1.5770464171	 0.1633564188	-0.622381545	-0.422681
C	 0.608982826	-0.6237010973	-1.2416938003	-0.000478
O	 1.8650688271	-1.171188421	-0.8714159978	-0.285252
C	 0.839392109	-2.0865272113	-1.3266354604	 0.268228
C	 0.2904068319	-3.0946774308	-0.3520039699	-0.471944
C	 1.1371243554	-2.5927471506	-2.7089839373	 0.130044
O	 0.7863520952	-3.6647738674	-3.1289948975	-0.251261
H	 1.3786498413	 1.2515502981	 0.6329462969	 0.141461
H	 0.4270369093	 2.0649184276	-0.6196093255	 0.109866
H	-0.2521606003	 1.8586698504	 1.0089553078	 0.130503
H	-0.2850823489	-0.6080196078	 0.7089271317	 0.100087
H	-1.6105495507	 0.8755794122	-1.2707058285	 0.283053
H	 0.6322368008	-0.0589878632	-2.1807583008	 0.083682
H	 0.2134601817	-2.678283491	 0.6524013762	 0.131582
H	-0.6976336553	-3.4302050846	-0.678004355	 0.149291
H	 0.9424376931	-3.9717173321	-0.3162131349	 0.140548
H	 1.7314186674	-1.8773936845	-3.3206971874	 0.083192
