25
gdb 58459	2.88202	0.98888	0.95357	1.257	88.94	-0.2503	0.0667	0.317	1456.4813	0.226517	-389.496519	-389.485769	-389.484825	-389.531661	41.218	
C	-0.182451623	 1.5071470079	 0.0049015646	-0.417021
C	 0.0416191967	-0.0103026285	-0.0784719235	-0.007938
C	 0.834969369	-0.3879701319	-1.3361436978	-0.392459
C	 0.7221058613	-0.5476445931	 1.1889983177	 0.427645
O	 2.0329945792	-0.0074770649	 1.3544684753	-0.495254
C	-0.0811302987	-0.5071232104	 2.5259556782	-0.295375
C	 0.4613231115	-1.9263041132	 2.8594606654	 0.052499
C	-0.4836453893	-2.9397028864	 3.4848451093	-0.408823
C	 0.8438947604	-2.0843612743	 1.3605937765	-0.266204
H	 0.7709037506	 2.0492705071	 0.0121346982	 0.108307
H	-0.7466696039	 1.8671895934	-0.860870513	 0.115677
H	-0.7406487874	 1.7864901305	 0.9051534135	 0.114374
H	-0.94457326	-0.4919997963	-0.13069679	 0.063966
H	 1.8461164813	 0.0265145426	-1.2866808776	 0.125073
H	 0.9257684911	-1.4739749824	-1.4395019914	 0.113523
H	 0.347928922	-0.0050615929	-2.2387655791	 0.10293
H	 1.941604399	 0.9275251376	 1.5661905986	 0.275536
H	 0.1575260062	 0.3061174649	 3.2178973494	 0.085949
H	-1.1628807553	-0.5169437653	 2.352179235	 0.090177
H	 1.3707195005	-1.8393425525	 3.4609429432	 0.080136
H	-1.4019361637	-3.0398991039	 2.8939519028	 0.106905
H	-0.0199406999	-3.9307455085	 3.5477137568	 0.113464
H	-0.7725331168	-2.643468257	 4.4997513882	 0.111804
H	 0.0693226766	-2.6153890884	 0.7975449156	 0.089815
H	 1.8207387929	-2.509827094	 1.1227836341	 0.105293
