23
gdb 86667	2.47326	1.15953	1.00645	3.0222	86.57	-0.2408	-0.0226	0.2182	1326.8124	0.203055	-388.303266	-388.292937	-388.291992	-388.338461	38.609	
C	-0.0113508252	 1.6015281675	-0.065014026	-0.421271
C	 0.0600330545	 0.083156555	 0.0062639207	 0.022996
C	 1.030207505	-0.6779354734	-0.9306963452	-0.278303
C	 1.2832241093	-1.709933601	 0.2013168267	-0.092655
C	 2.6774272471	-2.2343004068	 0.3896611176	 0.147152
O	 2.9527277499	-3.3691877759	 0.6917505902	-0.259421
C	 0.7221615509	-0.6438367534	 1.2330776303	 0.293055
C	 1.8211542535	 0.1803446081	 1.9122751786	-0.448109
C	-0.2367049869	-1.2077826397	 2.2763652708	-0.452141
H	 0.9770411176	 2.0629817574	 0.0264454144	 0.114936
H	-0.435133135	 1.9202848949	-1.0238682305	 0.117603
H	-0.6477214176	 2.0127524448	 0.7267289626	 0.116528
H	-0.9490808602	-0.3268258562	-0.1202400668	 0.072155
H	 0.6389117321	-1.062911766	-1.8748736131	 0.106139
H	 1.9315926516	-0.0919600392	-1.1442224737	 0.100929
H	 0.6034029365	-2.5638049289	 0.1433784061	 0.087128
H	 3.4839743084	-1.4806653915	 0.2276892656	 0.064858
H	 2.5396203196	 0.5993980157	 1.2016314415	 0.115327
H	 1.382204905	 1.016264445	 2.4670184938	 0.118424
H	 2.3806848481	-0.4318467231	 2.6279623915	 0.123489
H	 0.2878449873	-1.856323006	 2.9872373885	 0.123533
H	-0.7081352572	-0.4003005914	 2.8495783795	 0.114096
H	-1.0325524043	-1.7969454057	 1.8092655469	 0.113552
