21
gdb 73989	2.8936	1.64491	1.23503	0.8971	90.69	-0.1957	-0.0226	0.1731	1092.8482	0.18174	-349.868143	-349.859849	-349.858905	-349.90029	33.415	
C	-0.1789000305	 1.2943685776	-0.2623866101	-0.471091
C	-0.0667002395	-0.0696780926	 0.3385566785	 0.2609
C	-1.100578926	-0.9352785107	 0.4813326828	-0.052069
C	-1.7606626619	-1.3568357695	-0.8492236312	-0.27028
C	-0.7020352658	-2.5116285255	-0.7605711869	-0.104827
C	-0.5959999948	-2.3660906129	 0.7337475249	-0.138158
C	 0.6863489226	-2.2689640246	-0.0116924445	 0.339446
C	 1.6602344291	-3.4225162474	-0.0928174336	-0.48774
C	 1.2368269721	-0.8577805736	 0.2738069683	-0.360472
H	 0.355097316	 1.3638605638	-1.220325663	 0.119757
H	-1.2239350478	 1.57641149	-0.418749038	 0.125327
H	 0.2705890887	 2.0516207924	 0.3940226684	 0.127988
H	-2.7662508183	-1.7903315311	-0.7882035609	 0.100909
H	-1.7188840732	-0.6382588881	-1.6739168927	 0.095931
H	-0.8019070265	-3.4494109628	-1.3038354071	 0.080872
H	-0.8848916227	-3.0479947295	 1.5242427977	 0.079961
H	 1.1463360543	-4.3865184333	-0.1546981314	 0.117308
H	 2.312142967	-3.3343586783	-0.9696806583	 0.117638
H	 2.3038764099	-3.4458417827	 0.7948482403	 0.115834
H	 1.8618070039	-0.4392066104	-0.5267359704	 0.101351
H	 1.8664361731	-0.880588551	 1.1769151372	 0.101416
