21
gdb 87233	4.51848	0.71138	0.68824	1.1914	85.89	-0.2516	0.0527	0.3043	1707.6128	0.179179	-387.046777	-387.036281	-387.035337	-387.08237	38.826	
C	-0.0596168928	 1.5109206975	-0.1560939601	-0.402668
C	 0.0373183714	 0.0105526711	 0.0015599209	-0.049835
C	 1.3841098745	-0.6886636269	-0.0826735271	-0.358666
C	 0.643337557	-0.6084266228	 1.2330381534	 0.410209
O	 1.1221235718	 0.3043349337	 2.19282396	-0.472948
C	 0.0163419869	-1.8532890927	 1.8293298455	-0.230742
C	 1.0224991753	-2.6869191558	 2.6526570168	-0.370899
C	 0.437443733	-3.8993636102	 3.2092003189	 0.293949
C	-0.0705487068	-4.8938915706	 3.6540044375	-0.435959
H	 0.7617878145	 2.0090971084	 0.3630542645	 0.127142
H	-0.0281996687	 1.7956729574	-1.213243246	 0.112164
H	-0.9960486676	 1.890947323	 0.2662970814	 0.118115
H	-0.7978233125	-0.5434585001	-0.4206479863	 0.085125
H	 1.4535489863	-1.6443378821	-0.5922452739	 0.109549
H	 2.256694094	-0.0519836819	-0.1931857168	 0.108293
H	 2.0159959457	 0.0437616919	 2.4359658532	 0.28513
H	-0.8184843153	-1.5624538514	 2.4766137978	 0.117005
H	-0.3971681841	-2.4754183985	 1.0289975536	 0.107059
H	 1.8802779184	-2.9510707	 2.0196341053	 0.127592
H	 1.4155285245	-2.0664001299	 3.4679189332	 0.127677
H	-0.5082393856	-5.7745656301	 4.0537612384	 0.192708
