16
gdb 17764	5.5021	1.23432	1.19465	1.6908	70.13	-0.2388	0.0507	0.2895	1027.7792	0.129521	-346.491624	-346.484404	-346.48346	-346.523556	27.617	
C	 0.0380477991	-1.2051037728	 0.0166397234	-0.451996
C	-0.0264014109	-0.0130336113	 0.1555014073	 0.307897
C	-0.0679338234	 1.4372718544	 0.3126921872	-0.407621
C	 1.3118867071	 2.0736067107	 0.1164413622	 0.052071
C	 1.9754256025	 2.2576351831	-1.2770468903	 0.051069
C	 1.0001355814	 3.4088494552	-1.6212390046	-0.231732
C	 1.5143685475	 3.5893722113	-0.1720300923	 0.020318
O	 2.8749406391	 3.2608595356	-0.6558722062	-0.308383
H	 0.0830339566	-2.2593317766	-0.1013260741	 0.198139
H	-0.804737575	 1.8567270525	-0.3807259419	 0.131706
H	-0.4272245327	 1.6841133495	 1.3205481419	 0.136199
H	 2.0268074089	 1.7005511361	 0.85288798	 0.096985
H	 2.4283981761	 1.5109076117	-1.9287593435	 0.099847
H	 1.3918436656	 4.1360027465	-2.3328409832	 0.11273
H	-0.0541119129	 3.1831639308	-1.7929500556	 0.098294
H	 1.4136020907	 4.4421569133	 0.5004361496	 0.094478
