19
gdb 71153	2.62073	1.85188	1.45946	1.6725	78.57	-0.2446	0.0923	0.3369	972.5455	0.159008	-385.818822	-385.811228	-385.810283	-385.850389	30.792	
C	 0.0154474618	 1.5578786507	-0.0059527747	-0.51279
C	 0.0368833681	 0.0568579022	 0.0658333964	 0.206824
C	-1.2526719236	-0.8021033123	 0.232459304	-0.272046
C	-0.345545508	-1.8651860625	 0.8528855007	-0.077682
C	 0.9804193511	-1.8541054658	 0.0736056027	-0.171385
C	 0.7178085449	-0.856924826	 1.1875585953	-0.126268
C	 0.8453057187	-0.7658129418	-0.9564292069	 0.486353
C	 0.9124440096	-0.7205507015	-2.4144497245	-0.292794
O	 1.9839501534	-0.2094240596	-1.5893065192	-0.299536
H	 1.0265312447	 1.9538773587	-0.1405660055	 0.137086
H	-0.59147604	 1.8968186548	-0.8541865256	 0.118118
H	-0.4131782264	 1.9939587729	 0.9021055768	 0.116898
H	-1.9295133121	-0.3737336357	 0.9780187256	 0.097623
H	-1.8123033593	-1.0443493461	-0.679190685	 0.087462
H	-0.633925492	-2.7386624098	 1.4240625852	 0.088953
H	 1.6571305637	-2.6980080712	 0.0753778651	 0.094238
H	 1.2691461359	-0.6372576265	 2.0897323002	 0.095366
H	 1.1545865639	-1.6197147291	-2.9797811374	 0.113245
H	 0.3566733855	 0.0358325386	-2.9680859733	 0.110333
