20
gdb 114439	3.86926	1.21543	1.13074	2.5429	76.92	-0.2228	0.0731	0.2959	1135.9266	0.173397	-403.103457	-403.095814	-403.09487	-403.135542	30.493	
O	-0.0843107305	 1.462918982	-0.0207148457	-0.420844
C	 0.0098407058	 0.0497922272	 0.0894558907	-0.097106
C	-1.3978485387	-0.5300623955	 0.0060415371	 0.028215
C	-2.0672814343	-0.2520810597	-1.3714912627	-0.254798
C	-1.9118237397	-1.5614605346	-2.1363336386	-0.011601
C	-1.1093101908	-2.5403546994	-1.3778391435	-0.057003
C	-1.3875079837	-2.0653041254	 0.0730319591	-0.073096
C	-2.8174167898	-2.6098327277	-0.1560104451	-0.169176
N	-2.5721210441	-2.8043203534	-1.6264808207	-0.153628
H	 0.8061920423	 1.824344496	-0.0459023978	 0.28733
H	 0.6293249141	-0.3716403562	-0.7196499634	 0.088156
H	 0.4724360536	-0.2433836008	 1.0455911296	 0.084458
H	-1.9887464609	-0.1071967653	 0.8266936843	 0.077578
H	-3.1189789123	 0.0337575342	-1.2674635944	 0.105474
H	-1.567494329	 0.570606103	-1.8894493984	 0.116777
H	-1.8798852216	-1.5491556268	-3.220536829	 0.091997
H	-0.3211520953	-3.1829709951	-1.7524521477	 0.087665
H	-0.8122760585	-2.4929452287	 0.8952885937	 0.065479
H	-2.9858829655	-3.5920092083	 0.2917485681	 0.107939
H	-3.6590713614	-1.9533269753	 0.0951005043	 0.096183
