20
gdb 81868	2.82361	1.43414	1.08969	4.0273	79.1	-0.2366	-0.0107	0.2259	1166.3475	0.170704	-403.170097	-403.161366	-403.160422	-403.203161	33.752	
C	 0.2179814868	 1.6424510979	-0.0196955886	-0.397134
C	 0.0988244	 0.118769199	-0.0266731125	-0.090931
C	 0.7503208812	-0.6018344776	-1.1884655023	-0.100115
N	 2.228535634	-0.5417555548	-1.1234492713	-0.369788
C	 1.5294350061	-1.7825064491	-0.7150019257	 0.327141
C	 1.6935263674	-3.0424061151	-1.523136041	-0.492392
C	 1.4231207166	-1.8569138842	 0.7970438981	-0.36532
C	 0.7613077133	-0.5325183219	 1.2069381499	 0.392188
O	 0.7489287428	-0.0709583276	 2.3172624863	-0.315269
H	 1.2591823523	 1.9357756268	-0.1791728637	 0.13691
H	-0.3947346265	 2.0928739421	-0.806352479	 0.106066
H	-0.1065316844	 2.0367916629	 0.9466381635	 0.135961
H	-0.9637821665	-0.1675061636	 0.0164722372	 0.097122
H	 0.2698338699	-0.6094220996	-2.1624651745	 0.084155
H	 2.616888961	-0.6607409203	-2.0562279603	 0.228545
H	 1.6477017916	-2.8304586585	-2.5969399207	 0.114825
H	 2.6562271371	-3.5238188823	-1.3155202275	 0.128741
H	 0.9054917253	-3.7671371589	-1.290723705	 0.125222
H	 0.7751723407	-2.6859508972	 1.1115585092	 0.120769
H	 2.3838337013	-1.9734125178	 1.305493208	 0.133307
