12
gdb 46466	4.22296	1.2051	1.08427	1.1737	60.03	-0.2916	-0.0492	0.2424	1043.9997	0.07767	-472.638336	-472.631309	-472.630365	-472.670131	25.57	
O	-0.0127168369	 0.0161554571	 0.2893102059	-0.320361
C	 0.0062495596	 1.1794224393	 0.0299201509	 0.50137
O	-1.1186467452	 1.9260440296	-0.1667421762	-0.231337
C	-0.8310398381	 3.2318924812	-0.6814135358	-0.14759
C	 0.6814521675	 3.3817051662	-0.5890037972	 0.284491
O	 1.1528820321	 3.205408706	 0.7453869392	-0.255999
C	 1.2095641105	 2.0801246767	-0.1418051971	-0.221477
C	 1.3854228152	 4.3066217701	-1.4370645211	 0.232306
N	 1.9122463054	 5.0612515008	-2.1353979363	-0.310318
H	-1.1750632617	 3.2953105342	-1.7182260733	 0.151681
H	-1.3523929548	 3.9735182876	-0.071370928	 0.158685
H	 2.1872462565	 1.6778838013	-0.378504491	 0.158549
