20
gdb 111984	4.05988	1.0671	0.94282	2.221	80.3	-0.2308	0.0089	0.2397	1292.2802	0.171372	-403.126571	-403.117779	-403.116835	-403.159816	33.857	
C	-0.0568974351	 1.5436743124	 0.0156239931	-0.497454
C	 0.0909668263	 0.0456168004	-0.0293087041	 0.30654
N	-0.7873868378	-0.8187165291	 0.816537706	-0.366937
C	 0.6788027444	-0.7898194641	 1.0542983469	-0.124281
C	 1.432214647	-1.9636474946	 0.4262402585	-0.049637
C	 0.9707373053	-3.3326381528	 0.9579916078	-0.079124
O	 1.6374899884	-4.4194753124	 0.3297948236	-0.423624
C	 1.1739181143	-1.7542474371	-1.0561338733	-0.098923
C	 0.4589910988	-0.6553661809	-1.3026450081	-0.111889
H	 0.8282524436	 2.0394127724	-0.3971925886	 0.128481
H	-0.92473843	 1.8729042251	-0.567768864	 0.126203
H	-0.191045194	 1.8964222711	 1.0435620981	 0.114675
H	-1.2286478163	-0.2321429915	 1.5246864195	 0.220912
H	 1.0406266807	-0.3492790195	 1.9779530465	 0.083988
H	 2.5078120055	-1.8786464385	 0.6353847052	 0.084058
H	 1.2144827003	-3.4079824386	 2.0234057314	 0.102705
H	-0.1187501016	-3.4071661165	 0.8572625409	 0.114426
H	 1.2430269375	-4.5406334921	-0.5387275353	 0.283901
H	 1.5310855963	-2.4487142302	-1.8090007633	 0.091649
H	 0.1519907964	-0.3004040238	-2.2801256107	 0.094331
