16
gdb 18566	3.76144	2.028	1.65968	4.1911	63.25	-0.2681	0.0117	0.2798	807.284	0.133162	-383.790362	-383.784021	-383.783076	-383.820903	24.652	
O	-0.2898618192	 0.2676865605	 0.6054373374	-0.329225
C	-0.0935703116	 1.3487385466	 0.1507364239	 0.45246
O	-1.0133214748	 2.2027462509	-0.4057060918	-0.262789
C	 0.0198643151	 3.2149910115	-0.6931689208	 0.125838
C	-0.1158872889	 4.4470167887	 0.191621529	-0.220592
C	 0.4025273705	 3.9880885286	 1.570965894	-0.223929
C	 1.5545567824	 3.0163622222	 1.2367122157	-0.220772
C	 1.0899833877	 2.3005517832	-0.0448897838	-0.218527
H	 0.0596584972	 3.4021641188	-1.7664348788	 0.095493
H	 0.529052685	 5.2353642705	-0.215800639	 0.107585
H	-1.1390645151	 4.8310612556	 0.209753127	 0.120799
H	 0.7229169357	 4.8210543919	 2.2008251137	 0.105277
H	-0.3907672273	 3.4601547985	 2.1103768173	 0.127352
H	 2.473171736	 3.5730294632	 1.0203220821	 0.108407
H	 1.7764244455	 2.3151602726	 2.0451633487	 0.12541
H	 1.8922350417	 1.9002447269	-0.6647145646	 0.107211
