15
gdb 33341	5.49384	0.7597	0.72749	1.8883	88.03	-0.2401	-0.03	0.2101	1525.9657	0.110809	-383.382061	-383.373965	-383.373021	-383.415263	30.408	
C	-0.0355684427	-3.8177540097	-0.0991694462	-0.560133
C	-0.0071389276	-2.6116509513	-0.0475172624	 0.30261
C	 0.0229361182	-1.2532428473	 0.0080238839	-0.269154
C	 0.0535644166	-0.04405765	 0.0605599723	 0.479839
C	 0.0833464006	 1.4051964122	 0.1011725776	-0.134623
O	-0.1258833032	 1.9742295836	 1.4335526506	-0.286715
C	 1.0737770167	 2.745871768	 1.3028673822	 0.108404
C	 2.2702826079	 1.8575927637	 1.1980364687	-0.298272
C	 1.4288391655	 2.1353306618	-0.0298612056	-0.128751
H	-0.0594334862	-4.87844088	-0.1416277132	 0.194947
H	-0.6686313278	 1.8189154853	-0.582116871	 0.117578
H	 1.0575188135	 3.7665458228	 1.6647429748	 0.111001
H	 3.2313468614	 2.3624776706	 1.1981084835	 0.11992
H	 2.2574945713	 0.8798006487	 1.670290303	 0.132494
H	 1.811737246	 2.5672132916	-0.9434734283	 0.110854
