23
gdb 84709	2.47131	1.67357	1.23319	0.1763	89.5	-0.2336	0.0292	0.2628	1124.3829	0.209302	-351.189494	-351.181487	-351.180543	-351.222044	32.724	
C	 0.2058771786	 1.6465539779	-0.1602057978	-0.402327
C	 0.0782443539	 0.1210335733	-0.0407564842	-0.019156
C	 0.5993699137	-0.6144136572	-1.2535652833	-0.069455
C	 1.3836008419	-1.6422742306	-0.9432250009	-0.08023
C	 1.5777179112	-1.8106906889	 0.5427220405	-0.050362
C	 3.0542728433	-1.6914690157	 0.9970153176	-0.20859
C	 3.2560933688	-0.1847040454	 1.2107297993	-0.196915
C	 1.9358881564	 0.2475506273	 1.8694110382	-0.209607
C	 0.8254361664	-0.570219631	 1.1576772773	-0.033638
H	 1.2429591148	 1.9590401061	-0.3175028425	 0.119788
H	-0.3775669826	 2.0068289051	-1.0145571033	 0.108114
H	-0.1716434753	 2.1548317685	 0.7330967393	 0.113413
H	-0.9966189316	-0.0925974722	 0.0603644426	 0.075562
H	 0.3231325437	-0.3200788069	-2.2618198504	 0.084299
H	 1.8489622813	-2.3122379421	-1.6599939981	 0.085731
H	 1.1525966976	-2.7652845934	 0.8761196166	 0.067802
H	 3.1965849261	-2.2216616934	 1.946497698	 0.089865
H	 3.7513290929	-2.1270686255	 0.2740955053	 0.088938
H	 4.1346738807	 0.0499647055	 1.8189642812	 0.088577
H	 3.3821147772	 0.3168311793	 0.2439684347	 0.101254
H	 1.9580386638	-0.0356088729	 2.9286905959	 0.089804
H	 1.7703581025	 1.326576313	 1.8389371751	 0.092605
H	 0.0826852846	-0.8854817407	 1.8940936689	 0.064527
