19
gdb 98203	2.19229	0.97518	0.69906	3.252	80.94	-0.2491	-0.0263	0.2228	1614.5961	0.155075	-423.021639	-423.010578	-423.009634	-423.060553	37.517	
C	 0.8122326131	 1.077234395	 0.3795896823	-0.498873
C	 0.3472229494	-0.2763378712	 0.1116225762	 0.052359
C	-0.0321130585	-1.3979472092	-0.1090479895	 0.079238
C	-0.5319963328	-2.744378348	-0.3791949392	-0.269445
C	-2.00126482	-2.7511882246	-0.8437306016	-0.38226
C	 0.3625594892	-3.5392565863	-1.3456028165	 0.367419
O	-0.077716762	-4.4541060115	-2.0071299863	-0.324891
C	 1.8425335536	-3.2053795355	-1.4312340281	-0.136224
O	 2.5232328382	-4.1210767584	-2.2361850711	-0.423691
H	 1.8641292076	 1.197830708	 0.0985609162	 0.153115
H	 0.2314805652	 1.8150268759	-0.1845095485	 0.152856
H	 0.7221947451	 1.3251274819	 1.442753571	 0.152183
H	-0.4714295257	-3.3241032014	 0.5574647576	 0.139144
H	-2.63963205	-2.3146389657	-0.0727664049	 0.125026
H	-2.1149531507	-2.1640091374	-1.7586030236	 0.13151
H	-2.3217788635	-3.7740127389	-1.0476546873	 0.141021
H	 1.9292366835	-2.1762885012	-1.8155151006	 0.128036
H	 2.2572033057	-3.1793091395	-0.4107754454	 0.12029
H	 1.8360329826	-4.7080609221	-2.5896459806	 0.293189
