14
gdb 17994	4.13689	1.82166	1.55944	5.5323	61.47	-0.2453	0.0004	0.2457	816.6892	0.108422	-378.672098	-378.665472	-378.664527	-378.703158	24.596	
N	 0.0896677623	-1.1226758395	 0.1517497421	-0.319787
C	 0.0763990739	 0.0306450419	 0.0880320584	 0.298072
C	 0.0348619276	 1.4855780745	-0.0422395416	-0.005186
O	-0.3286874177	 2.1748757499	 1.1782568356	-0.299231
C	 0.8264479927	 3.0411306259	 1.1017408165	 0.111724
C	 2.0441140415	 2.538163699	 1.9034443994	-0.182764
N	 2.4049393454	 1.6389083634	 0.7695501849	-0.302682
C	 1.388047216	 2.2470024508	-0.1022793673	-0.078237
H	-0.6546620914	 1.7525746962	-0.853927834	 0.123332
H	 0.5563356767	 4.09740658	 1.1316994509	 0.096408
H	 2.7719870188	 3.3357144096	 2.0990204343	 0.10436
H	 1.8161463129	 2.0148750084	 2.836541417	 0.128393
H	 3.3559955704	 1.7200594051	 0.4360617067	 0.233268
H	 1.704024271	 2.6481706348	-1.065157213	 0.092329
