17
gdb 44622	4.02967	1.41447	1.33068	2.6823	71.97	-0.2363	-0.0117	0.2247	977.1227	0.138693	-421.832398	-421.826048	-421.825103	-421.863025	26.257	
O	 0.0373290578	 0.0513779762	-0.0301137922	-0.333409
C	 0.0201222695	 1.2541598901	-0.0056479535	 0.416378
C	-1.2014154994	 2.1929855756	 0.0096849411	-0.359236
C	-0.4545665184	 3.5237019868	 0.062443338	-0.052171
C	 0.7402695344	 3.3765654495	-0.9442325739	-0.085008
C	 1.6635908592	 4.5203898546	-0.5385052656	-0.098838
O	 1.5992388361	 4.4109263995	 0.8986901533	-0.274058
C	 0.7149128193	 3.3170522898	 1.0682237719	 0.113452
C	 1.1764535598	 2.2177923815	 0.0364399389	-0.15455
H	-1.8143759278	 2.0639348287	-0.8881926947	 0.128715
H	-1.8352191801	 1.9974509355	 0.8809532645	 0.128152
H	-1.0312881874	 4.4487186151	 0.0943578991	 0.078931
H	 0.5828756707	 3.189415496	-2.0072194842	 0.085987
H	 2.6983531591	 4.3993074801	-0.8779791189	 0.111203
H	 1.2944214463	 5.5020558336	-0.8580984725	 0.109992
H	 0.5710514115	 3.1045566437	 2.127457282	 0.09672
H	 2.1871960393	 1.8144722338	 0.0476330367	 0.08774
