19
gdb 81424	2.37849	2.01105	1.48193	3.0823	74.87	-0.2107	0.067	0.2777	955.1826	0.160798	-419.127569	-419.119865	-419.11892	-419.159157	31.307	
C	-0.0061054884	 1.4810798656	 0.0228183439	-0.498617
C	 0.0445025204	-0.019288569	 0.0010100818	 0.374359
N	-0.855059933	-0.8530821759	 0.8355549325	-0.360098
C	 0.6150873787	-0.9020286441	 1.0419331344	-0.070072
C	 1.3412965801	-1.93816061	 0.1630746526	-0.103492
N	 0.3138743149	-2.204207827	-0.9044876195	-0.29292
C	 0.5609813656	-0.7611198995	-1.25956358	-0.122486
C	 2.0543956883	-0.9906649227	-0.8753199631	 0.129949
O	 2.807748112	 0.127859518	-0.4785522906	-0.430782
H	 0.9232085791	 1.9012231534	-0.3726231259	 0.143072
H	-0.8397634831	 1.8611698696	-0.5796850803	 0.1185
H	-0.1359268848	 1.8531366731	 1.0451123261	 0.1096
H	-1.236912009	-0.2413543069	 1.5576328164	 0.218763
H	 1.0630112674	-0.5376952021	 1.9581663472	 0.088024
H	 1.8240296243	-2.7956281543	 0.6327556709	 0.064495
H	 0.768804029	-2.7704267983	-1.6221953149	 0.214169
H	 0.2451000391	-0.4099774245	-2.2422067357	 0.06644
H	 2.5753267687	-1.5751972199	-1.6466385999	 0.065034
H	 3.7200493007	-0.1456968955	-0.3430410858	 0.286061
