19
gdb 88851	3.88113	1.03431	0.90384	1.128	78.25	-0.2365	0.0122	0.2487	1327.6772	0.15843	-423.006801	-422.998105	-422.997161	-423.041211	31.757	
C	 0.1613074465	 1.4543370537	-0.4679683339	-0.420054
C	-0.0992573517	 0.0746114272	 0.0780517064	 0.082318
O	 1.0087708455	-0.834236988	 0.158259497	-0.267998
C	 0.3731805471	-0.4332342859	 1.375853707	 0.046319
C	 1.222272271	 0.3572601614	 2.3544460447	 0.050891
O	 0.3654370329	 0.9639769723	 3.3263046373	-0.277752
C	 0.7478728775	 0.5705157065	 4.6438669083	-0.114937
C	 1.8822958793	-0.3956886107	 4.449499205	-0.098141
C	 2.1578903312	-0.5106775591	 3.1562520038	-0.092007
H	 1.0809260345	 1.8864120354	-0.0695167674	 0.129698
H	 0.2519430041	 1.4152125948	-1.5585279043	 0.127666
H	-0.6723319036	 2.1207948963	-0.2228314983	 0.129118
H	-1.0065674196	-0.3940175221	-0.3096055266	 0.088764
H	-0.2161017922	-1.215149749	 1.859706493	 0.087502
H	 1.7758992291	 1.1348795617	 1.8079082699	 0.08507
H	 1.0478659165	 1.4551131055	 5.2283212407	 0.1064
H	-0.1128670146	 0.1192163067	 5.1605928726	 0.108223
H	 2.3818116182	-0.8951592812	 5.2699189138	 0.108973
H	 2.9213464682	-1.1222608355	 2.6940834609	 0.119949
