20
gdb 120706	2.22355	1.2216	0.95289	2.648	76.32	-0.2386	0.027	0.2655	1331.0457	0.169288	-440.297464	-440.28735	-440.286406	-440.333468	36.38	
C	 0.1515136913	 1.526938509	-0.5418712803	-0.38645
C	 0.4477146911	 0.0567643414	-0.3088726345	-0.052958
O	 0.2048775592	-0.643133986	-1.5332435204	-0.249376
C	 0.4874557721	-1.9962174032	-1.4489824204	 0.148947
C	 0.7208685607	-2.7075314892	-2.7434364189	-0.354158
C	 1.8805521151	-2.49084128	-1.7881810458	-0.167078
C	 2.9791261106	-1.4855842987	-2.0401028855	 0.401453
N	 3.2887426632	-1.256018375	-3.3471393069	-0.51185
O	 3.5578189487	-0.926409858	-1.1257110125	-0.373426
H	 0.8151085467	 1.933363412	-1.310306967	 0.128179
H	-0.882767518	 1.6680521214	-0.8693366666	 0.121146
H	 0.3047069845	 2.0937788185	 0.3813013198	 0.115515
H	 1.4884759659	-0.0949349062	 0.0009693151	 0.133583
H	-0.2074771272	-0.351637313	 0.4776314104	 0.082355
H	-0.0425853067	-2.5243458674	-0.6546605141	 0.085699
H	 0.3285972396	-3.7094533171	-2.8765381321	 0.11773
H	 0.6730652472	-2.0780816998	-3.6259203183	 0.123971
H	 2.2327082843	-3.345848835	-1.2188596613	 0.115827
H	 2.9018561247	-1.8113106598	-4.0885857757	 0.26089
H	 4.0558402871	-0.6359660939	-3.5496787648	 0.260001
