21
gdb 82822	2.28628	1.95475	1.46953	1.7422	81.24	-0.2344	0.082	0.3164	1010.3824	0.182846	-387.052992	-387.044979	-387.044035	-387.084916	32.375	
C	-0.177974631	 1.5446985688	-0.0163496066	-0.422105
C	 0.0717257284	 0.045083484	 0.006527778	-0.019317
C	 1.1714596726	-0.5503543362	-0.9068521266	 0.085934
O	 2.4160577432	 0.1788480271	-0.7920397605	-0.305292
C	 2.7665705806	-0.5397642607	 0.4131748586	 0.109457
C	 2.0716286252	 0.0533855903	 1.6566653234	-0.290956
C	 0.7451815543	-0.6498091042	 1.2395200209	 0.312303
C	-0.1525516287	-1.1875766108	 2.3297689407	-0.499464
C	 1.5846561827	-1.5308256526	 0.2230315593	-0.146883
H	 0.7661440163	 2.0944226109	 0.0195711137	 0.132092
H	-0.698152917	 1.840944813	-0.9340784384	 0.11306
H	-0.7962208419	 1.8614489815	 0.8309626491	 0.110707
H	-0.8578414813	-0.503233478	-0.1993739184	 0.065985
H	 0.9389242995	-0.7957321899	-1.9456157787	 0.070562
H	 3.8304555652	-0.7828448164	 0.4481880258	 0.074681
H	 2.46801075	-0.4080574176	 2.5685902607	 0.095278
H	 2.0852672424	 1.14072783	 1.7705182875	 0.101134
H	-0.6233647246	-0.3699666288	 2.8897907598	 0.118796
H	-0.9548772583	-1.8102775082	 1.917676442	 0.112587
H	 0.4090412606	-1.7958311095	 3.0481193593	 0.112036
H	 1.6298553118	-2.6158982425	 0.1753577504	 0.069404
