13
gdb 132457	3.21773	1.39556	0.97424	5.1488	65.63	-0.2222	-0.0329	0.1893	1085.7816	0.090827	-494.099582	-494.092267	-494.091323	-494.13131	27.892	
N	 0.0144062559	 1.3763460194	 0.1443514664	-0.569193
C	-0.0387187723	 0.0064203662	 0.0441537706	 0.48824
N	-1.1929298304	-0.6000386905	 0.026724699	-0.342058
C	-1.159427612	-1.9670312601	-0.0004083844	-0.111837
C	-0.0199341308	-2.7027434649	-0.0357281375	 0.11345
F	-0.0441339947	-4.0333503371	-0.0724892285	-0.062462
C	 1.2833080399	-2.0718527694	-0.0243536431	 0.327615
O	 2.3778015053	-2.5950028815	-0.0417751267	-0.377607
N	 1.1504343059	-0.6630236357	 0.0220906544	-0.396585
H	 0.7841149966	 1.8491112044	-0.3047958358	 0.261698
H	-0.8834308647	 1.8103935075	-0.0125169135	 0.275343
H	-2.1207561895	-2.4725531909	-0.0025964553	 0.130113
H	 2.0304809307	-0.1675930675	 0.0874684445	 0.263284
