16
gdb 5385	4.77631	1.575	1.308	1.5542	72.71	-0.2443	-0.0357	0.2086	956.9461	0.132965	-342.848779	-342.841672	-342.840727	-342.880899	25.991	
C	-0.0116538031	 1.5383574691	 0.0099995898	-0.377486
C	-0.0157961895	-0.0004561765	 0.002484125	-0.248389
C	-1.4194611819	-0.5462239122	 0.0128394601	 0.350489
N	-1.9869590913	-0.7550672779	 1.2095286844	-0.275402
C	-3.24046488	-1.2092260889	 1.2054707496	 0.008921
C	-3.9414257309	-1.4588183104	 0.0318654849	-0.133751
C	-3.2601491157	-1.2040000805	-1.152133269	 0.008941
N	-2.0068258946	-0.749807234	-1.1751161431	-0.275466
H	 1.0129313396	 1.9213797923	 0.0026036608	 0.1158
H	-0.5298143062	 1.9312692043	-0.8701246725	 0.127771
H	-0.5137897268	 1.9224907394	 0.9031821588	 0.127889
H	 0.4933725272	-0.3664337396	-0.8932881123	 0.11479
H	 0.509862202	-0.3749408799	 0.8851498732	 0.114798
H	-3.6963331671	-1.3801421942	 2.1788513342	 0.11603
H	-4.9584900585	-1.8313325213	 0.039523483	 0.109034
H	-3.7322053132	-1.3705733297	-2.1185249769	 0.116031
