15
gdb 97495	4.1975	0.68743	0.59603	1.0438	74.45	-0.2514	-0.0988	0.1526	1785.4902	0.108196	-457.750853	-457.740525	-457.739581	-457.78833	33.927	
C	 0.4330846881	 1.3769114492	 0.0214281101	-0.483483
C	 0.3062922613	-0.1243375326	 0.0644912186	 0.308573
O	 0.1940178012	-0.777841664	 1.0722517354	-0.268715
C	 0.3246406039	-0.8298507343	-1.3147209249	 0.078946
O	 0.4118404163	-0.183151578	-2.338028688	-0.274195
C	 0.2297405247	-2.2654677428	-1.2817783026	 0.020414
C	 0.1621678712	-3.4718246389	-1.2737264575	 0.165301
C	 0.0457619568	-4.9268773871	-1.3017226538	-0.205869
O	 0.300758957	-5.5017922037	-2.569131091	-0.393182
H	 1.3707173709	 1.6594391323	-0.468083209	 0.158865
H	-0.3687364374	 1.8045649048	-0.5885537905	 0.158817
H	 0.3976660634	 1.7761141082	 1.0350786511	 0.142677
H	 0.7784799138	-5.364136872	-0.6140593318	 0.159724
H	-0.9492822062	-5.2009123742	-0.9140147001	 0.136824
H	-0.2762253052	-5.0748540266	-3.211414216	 0.295301
