18
gdb 126343	2.04716	1.58669	0.95502	2.0242	74.65	-0.2466	0.0046	0.2511	1247.91	0.147284	-439.080928	-439.071941	-439.070997	-439.115169	32.14	
C	-0.2670490087	 1.5195227185	 0.1331297013	-0.374654
C	 0.0734142318	 0.0256251194	-0.0023915963	-0.306616
C	 0.7839530263	-0.5270620744	 1.1942713885	 0.036923
C	 2.0577991373	-0.9664922989	 1.3424551253	 0.002494
O	 2.2998363024	-1.3781520344	 2.5988372889	-0.189503
N	 1.1357980691	-1.214322056	 3.3558826046	-0.252472
C	 0.2605850936	-0.715111805	 2.5151670877	 0.430905
O	-0.9975867994	-0.4146542867	 2.8545049883	-0.263837
C	-1.3540533217	-0.6767227766	 4.214734625	-0.243163
H	 0.6412647776	 2.1193750188	 0.2459041738	 0.119139
H	-0.8051021957	 1.8760210003	-0.7505106173	 0.113418
H	-0.8972766654	 1.6929738732	 1.0097701811	 0.135222
H	-0.853468155	-0.5384906333	-0.1624847043	 0.11784
H	 0.6915252273	-0.1363391319	-0.8921288456	 0.106038
H	 2.8873642419	-1.0483043505	 0.6560088843	 0.148513
H	-0.7282047197	-0.0936981906	 4.8972262638	 0.143391
H	-2.399354725	-0.3823344163	 4.3111428148	 0.132789
H	-1.2328511566	-1.7389957358	 4.4473968661	 0.143572
