20
gdb 84935	2.50825	1.55335	1.0286	2.909	83.79	-0.2134	0.0034	0.2168	1186.9754	0.172947	-403.196103	-403.187416	-403.186472	-403.229675	32.586	
C	 0.2645006404	 1.5066233642	-0.0583412724	-0.357835
N	-0.0266293361	 0.0754806548	 0.0349834669	-0.119234
C	-0.3191516944	-0.5557455001	-1.1862888391	 0.024177
C	-0.2624621387	-1.8334738193	-1.578245651	-0.092475
C	 0.1409092733	-3.0765193564	-0.8418362946	-0.260542
C	 0.6161073338	-2.8669673135	 0.5954522934	-0.217525
C	-0.351492207	-1.976035412	 1.3989719919	-0.305568
C	-0.0265562678	-0.4971533366	 1.2992726856	 0.398851
O	 0.2361364497	 0.1589756014	 2.2919532831	-0.369639
H	 1.1870015521	 1.6792903093	-0.6228739679	 0.128966
H	-0.5566056258	 2.027687064	-0.5630348475	 0.125448
H	 0.3792199429	 1.8936169013	 0.9515172112	 0.171963
H	-0.6383489576	 0.172913041	-1.926879866	 0.099482
H	-0.5839773986	-1.9981250836	-2.6037397118	 0.090063
H	-0.7179845306	-3.7650935773	-0.8361158395	 0.110513
H	 0.9164667947	-3.5974602458	-1.4205745787	 0.10944
H	 0.7061582105	-3.8410408663	 1.0864821428	 0.105487
H	 1.6182085469	-2.4232562928	 0.6074749313	 0.113097
H	-1.3812102017	-2.1526020933	 1.0630267995	 0.118477
H	-0.3050718161	-2.2025396292	 2.4649632628	 0.126854
