19
gdb 13090	4.31889	1.16292	1.00442	3.1302	72.86	-0.22	-0.0213	0.1988	1188.0966	0.163909	-365.045464	-365.036793	-365.035848	-365.079341	31.003	
C	-0.1657384207	 1.5758490393	-0.1880593807	-0.401573
C	-0.0038639724	 0.0676477229	-0.0033683263	 0.055282
C	 1.079124944	-0.5744558503	-0.9154974036	-0.239547
C	 1.988315476	-0.6070506442	 0.3358454674	-0.168289
N	 0.7933661609	-0.383405677	 1.1688345062	-0.07881
C	 0.8875870101	 0.3823796232	 2.3856958312	-0.245283
C	 1.4040284858	-0.4823549797	 3.5275752168	 0.162344
O	 2.1248449776	-0.0943961197	 4.4088098983	-0.238889
H	 0.8012844434	 2.09002195	-0.1980208406	 0.119296
H	-0.6648751631	 1.7799018575	-1.1413900525	 0.119251
H	-0.7777830272	 2.0179664167	 0.6050511874	 0.117889
H	-0.9916816033	-0.4089639708	-0.0384258703	 0.073239
H	 0.8062150724	-1.5682971961	-1.2733395215	 0.112203
H	 1.4213492413	 0.0321547547	-1.7553877189	 0.104485
H	 2.5303699405	-1.534969203	 0.5480242051	 0.105113
H	 2.7071855358	 0.2279151596	 0.3654525815	 0.090897
H	 1.5111746959	 1.2908214944	 2.3256847106	 0.10424
H	-0.124533675	 0.6981200882	 2.6806713441	 0.12708
H	 1.0388461579	-1.5333786958	 3.4781505058	 0.081072
