22
gdb 118351	2.77497	0.88305	0.73184	2.1075	82.97	-0.2485	-0.0391	0.2094	1628.3194	0.19234	-404.330349	-404.319936	-404.318992	-404.367017	36.811	
C	-0.0177765678	 1.6600565344	-0.0588499859	-0.381244
C	 0.0493616097	 0.1329150329	 0.0178580154	-0.180775
C	 0.6728933048	-0.5021067824	-1.2308740385	-0.191611
C	 0.7394834517	-2.0378193668	-1.172237494	-0.085973
C	-0.6600227094	-2.6372661187	-1.1784984753	 0.131616
O	-0.9565868844	-3.6981590458	-0.6908082176	-0.250418
C	 1.5730692	-2.6094780507	-2.3225606836	 0.0007
C	 1.5479417449	-4.0451335792	-2.6855161367	-0.25388
N	 0.9886124875	-3.0379574426	-3.6081521859	-0.324475
H	 0.9810432628	 2.0940009643	-0.1792595381	 0.117693
H	-0.6242070357	 1.9875922465	-0.910420869	 0.117397
H	-0.4589782961	 2.0851441624	 0.8476170845	 0.116965
H	 0.6294735481	-0.1686339117	 0.8998530969	 0.103261
H	-0.9614445547	-0.268198189	 0.1738699856	 0.10187
H	 0.1085531665	-0.1999364748	-2.1245429364	 0.103999
H	 1.6871523415	-0.1091635277	-1.3708909421	 0.103095
H	 1.2148253158	-2.3534113029	-0.2341103645	 0.105455
H	-1.4278387474	-2.0217907974	-1.7055917711	 0.08232
H	 2.51250181	-2.0745092819	-2.4538133036	 0.09558
H	 2.4557007559	-4.5284662579	-3.0352276192	 0.11898
H	 0.8630008648	-4.6897772164	-2.1422421783	 0.138308
H	-0.0275197185	-3.0561182249	-3.5589521627	 0.231137
