22
gdb 82509	2.68908	1.55855	1.34967	1.6679	84.91	-0.2176	0.0851	0.3027	1083.8738	0.195525	-367.189502	-367.18115	-367.180206	-367.22174	33.771	
C	-0.2090790425	 1.536130432	-0.0095737307	-0.429604
C	 0.0057171674	 0.0407434013	-0.0678720868	 0.012385
C	 0.6448809484	-0.6738608816	-1.2057159289	-0.062239
C	 1.4435501956	 0.1045474607	-2.2081025332	-0.099638
C	 2.8336666203	-0.4389082456	-2.4516465155	-0.342807
C	 2.6307532921	 0.6988768896	-1.47817661	 0.36803
C	 3.2038005733	 2.0616209568	-1.7859932802	-0.489424
C	 2.494899557	 0.2763225148	-0.0107593372	-0.239321
N	 1.3198208713	-0.6170680136	 0.1165558502	-0.121589
H	 0.4643593811	 2.0929606636	-0.662552523	 0.131735
H	-1.2352901006	 1.7688908698	-0.3135321366	 0.12074
H	-0.0802927719	 1.9091421061	 1.0130473354	 0.122959
H	-0.7732750258	-0.5139010096	 0.4543722842	 0.086838
H	 0.2693628544	-1.6519270545	-1.5021965101	 0.085146
H	 0.9387719497	 0.6434974231	-3.003672762	 0.084333
H	 3.0732588427	-1.425574386	-2.0654223543	 0.115704
H	 3.3039858039	-0.2011734281	-3.4001821564	 0.1058
H	 3.1808378088	 2.2710278573	-2.8601159496	 0.115924
H	 2.6477295936	 2.8585664918	-1.2773935404	 0.116002
H	 4.2485274677	 2.1328770772	-1.4606307095	 0.119985
H	 3.3758315994	-0.275508102	 0.3382228269	 0.102104
H	 2.3881060642	 1.1531085469	 0.6399288978	 0.096937
