22
gdb 121308	2.73218	1.03605	0.86161	2.8649	83.48	-0.2547	0.0295	0.2842	1451.8187	0.195334	-404.382488	-404.373051	-404.372107	-404.417408	34.748	
C	-0.051891129	 1.6323587818	 0.2956763648	-0.383203
C	 0.033357149	 0.1220030264	 0.0609386554	-0.168538
C	 0.7157322167	-0.6161445493	 1.2175763886	-0.180694
C	 0.7799652941	-2.1500278283	 1.0379964316	-0.089495
C	 1.5879790837	-2.8573539239	 2.1435572125	-0.25545
C	 0.5103830168	-3.1800855204	 3.1854573674	-0.08211
O	-0.7001464919	-3.3617707085	 2.432920762	-0.238935
C	-0.5878393259	-2.7936614376	 1.1938859267	 0.412905
N	-1.5055730427	-2.8085922137	 0.3244596526	-0.537906
H	 0.9417981566	 2.0755644611	 0.4296063599	 0.108165
H	-0.5294026502	 2.1379570209	-0.5492807482	 0.113663
H	-0.6381182042	 1.8618836509	 1.1928085404	 0.112193
H	-0.9661610288	-0.2954420582	-0.0946427724	 0.134399
H	 0.5906279124	-0.0765565353	-0.864189777	 0.092492
H	 1.7437457818	-0.2462542078	 1.3293429667	 0.092791
H	 0.202730998	-0.3772189471	 2.1596774349	 0.095884
H	 1.1674394811	-2.3702284047	 0.0403856096	 0.101094
H	 2.0282059159	-3.7838603841	 1.7627243016	 0.114179
H	 2.3932317634	-2.2419352733	 2.5515198782	 0.107593
H	 0.6973369078	-4.0984753137	 3.7470008064	 0.119125
H	 0.3652523594	-2.3598321636	 3.8991848927	 0.113242
H	-2.3324102438	-3.2863774916	 0.6885058355	 0.218604
