20
gdb 69455	3.549	1.18515	1.04906	2.8838	79.17	-0.2442	-0.0251	0.2191	1203.9522	0.171432	-403.155789	-403.147149	-403.146204	-403.189426	32.646	
C	 0.0449894677	 1.4250513683	-0.2826552218	-0.465809
C	-0.0345113802	-0.0500353339	 0.0205160349	 0.343982
C	-1.3472465032	-0.7842969717	-0.2303605962	-0.279517
C	-1.2349725512	-2.1197863913	 0.5363612608	-0.261295
C	-0.2225851143	-1.8684552845	 1.6774778544	-0.104924
C	 0.6570451059	-3.0595539319	 2.0032493253	 0.153925
O	 0.7997208026	-4.0214524377	 1.2903238247	-0.246953
C	 0.6425051594	-0.7005626539	 1.1797046728	-0.082344
N	 1.2099274203	-0.8150270993	-0.17103567	-0.366779
H	 1.0321416855	 1.8173077494	-0.0271134606	 0.129706
H	-0.1226806509	 1.611066567	-1.3497306171	 0.121368
H	-0.7129685768	 1.98378733	 0.2775858137	 0.112992
H	-2.1691324518	-0.1748423498	 0.1650542653	 0.102576
H	-1.5481592813	-0.9301363309	-1.2980137105	 0.104862
H	-2.199074641	-2.4607519296	 0.9204281843	 0.109155
H	-0.8563379752	-2.9225261198	-0.1009618967	 0.132596
H	-0.7150590399	-1.5485838874	 2.6056434452	 0.087506
H	 1.2250637392	-2.9714556363	 2.9569960517	 0.08182
H	 1.2483922633	-0.153712267	 1.8971146271	 0.091578
H	 1.045420142	-1.7391221098	-0.5649079474	 0.235556
