21
gdb 120861	4.11044	0.62207	0.57147	3.3514	77.89	-0.2577	0.0804	0.338	1990.4837	0.179023	-461.308655	-461.297928	-461.296984	-461.346006	36.361	
C	 0.2280722657	 1.3070099737	-0.3368618296	-0.22555
O	 0.2688731656	-0.0900422307	-0.1717738317	-0.232375
C	 0.4574038727	-0.4783045555	 1.1703192888	-0.085022
C	 0.4749734273	-1.9843988554	 1.2167052626	 0.043834
O	 1.7352300634	-2.64703239	 1.0934897403	-0.249724
C	 1.0286001005	-2.7684491507	 2.3297440126	 0.043817
C	 1.6476778451	-2.1642353896	 3.5637050123	-0.085067
O	 2.4303967732	-3.1587512891	 4.1848698424	-0.232418
C	 3.0571586971	-2.7067430946	 5.3611086504	-0.22557
H	 1.1694981118	 1.7840909705	-0.0216459954	 0.106517
H	 0.070637839	 1.505299488	-1.3995401089	 0.13109
H	-0.5953611677	 1.7629780229	 0.2365220964	 0.102313
H	 1.3993773681	-0.0716444718	 1.568420645	 0.096435
H	-0.3669235396	-0.0960984162	 1.7998227661	 0.087666
H	-0.3268243925	-2.4356002348	 0.6300724543	 0.099921
H	 0.6076240231	-3.7590330504	 2.5089666939	 0.099955
H	 2.2618078206	-1.2911662272	 3.2958263045	 0.09656
H	 0.8518989093	-1.818699732	 4.248685422	 0.087682
H	 3.7465539972	-1.8709978817	 5.1623414764	 0.106537
H	 2.3238697387	-2.3739053823	 6.1135879148	 0.102315
H	 3.6269087115	-3.5445432632	 5.7696008229	 0.131086
