17
gdb 63887	2.75102	1.59692	1.34404	3.3076	67.67	-0.2542	-0.0173	0.2369	991.2009	0.134483	-458.947642	-458.939553	-458.938609	-458.979885	31.405	
C	-0.0662359357	 1.5414224868	 0.0050140962	-0.464723
C	 0.0265793823	 0.0163478863	-0.0035640209	 0.421231
O	-1.2606131563	-0.5743454739	-0.0365605588	-0.481391
C	 0.9934726611	-0.570571075	-1.1038199484	-0.301307
C	 1.9907080435	-1.2923898115	-0.1808624535	-0.045375
O	 1.1114700032	-1.9136932897	 0.8112269053	-0.285704
C	 0.7556812196	-0.5586792342	 1.2301189261	-0.079505
C	 2.2435958079	-0.2448993305	 0.9290057105	 0.444579
O	 3.1567389544	 0.3263136927	 1.4335124753	-0.315923
H	 0.919597978	 2.0083611102	 0.0942046978	 0.135546
H	-0.5208841649	 1.902316864	-0.9249399552	 0.11525
H	-0.6878385038	 1.8789830051	 0.839657937	 0.132797
H	-1.7225785609	-0.2421644271	-0.8140877073	 0.277691
H	 0.4601245477	-1.2855941241	-1.7342052681	 0.120547
H	 1.4618609894	 0.1942554168	-1.7294641135	 0.111367
H	 2.7484911853	-1.9556951825	-0.5931325227	 0.106178
H	 0.2795255391	-0.4891718234	 2.2053570303	 0.108741
