25
gdb 91357	1.93018	1.90559	1.32986	0.1686	90.81	-0.273	0.0742	0.3472	1138.8409	0.232532	-352.384645	-352.376153	-352.375209	-352.417201	35.011	
C	-0.3395167064	 1.5152499079	 0.6548300436	-0.426861
C	-0.1985784734	-0.0039499757	 0.5440129732	 0.074295
C	 0.0601647949	-0.5444222164	-0.9021387947	-0.229974
C	 1.1540357731	-1.6189699926	-0.6926989587	 0.007178
C	 2.4998317224	-0.8972228963	-0.4417611416	-0.229987
C	 2.3619300883	-0.3727543567	 1.0267862132	 0.074112
C	 2.8618603726	 1.0545247286	 1.2570391162	-0.426721
C	 0.8910897343	-0.7382333161	 1.3763305984	-0.03996
C	 0.812188213	-2.1391958159	 0.7225016604	-0.224726
H	 0.4761932187	 2.052223929	 0.1656549064	 0.117134
H	-1.2698309651	 1.8412276411	 0.1760149093	 0.108596
H	-0.3774047841	 1.8411190408	 1.7001918371	 0.108046
H	-1.1502753083	-0.4251358822	 0.8930653198	 0.069391
H	-0.8491416628	-0.972888341	-1.3356997225	 0.088137
H	 0.397793686	 0.246577988	-1.5810007615	 0.087662
H	 1.1960322036	-2.3665941255	-1.4875805194	 0.050466
H	 3.3491865545	-1.5805277085	-0.5422883747	 0.088141
H	 2.6581173714	-0.0810542406	-1.1554718148	 0.087659
H	 2.9729084769	-1.0179934715	 1.6712561825	 0.069381
H	 2.4544829969	 1.7664304985	 0.5357587171	 0.117146
H	 2.6103573045	 1.4124381072	 2.2615584405	 0.108057
H	 3.9529026171	 1.0896131644	 1.160146436	 0.108594
H	 0.6936784901	-0.7006856016	 2.4516609073	 0.045615
H	-0.1805732819	-2.5953067329	 0.7894351655	 0.084314
H	 1.5505970437	-2.845124622	 1.1155879017	 0.084303
