18
gdb 77307	2.43725	1.46185	1.12162	3.7959	77.62	-0.2547	0.0042	0.2589	1136.6709	0.147719	-401.981904	-401.973049	-401.972105	-402.015584	32.849	
C	-0.209963459	 1.5270209252	 0.0644950967	-0.489402
C	-0.0487612536	 0.0439880264	-0.0236255292	 0.290413
C	-0.0328825875	-0.7263157136	-1.1115898607	-0.162005
C	 0.091924401	-2.1977324657	-0.7988855474	-0.274117
C	 0.5124581404	-2.1994885038	 0.7012422122	-0.202135
C	 1.9625199976	-2.3219466353	 0.8380664597	 0.273595
N	 3.1121272654	-2.3780516512	 0.9518140567	-0.332006
C	 0.0545196296	-0.7940162903	 1.2420633971	 0.045025
O	 0.8570403419	-0.2550514328	 2.2665624601	-0.420649
H	 0.5999260543	 1.973028245	 0.6513714008	 0.137339
H	-0.2242819243	 1.9905047146	-0.9249577029	 0.125509
H	-1.1423898777	 1.7895054491	 0.5807638354	 0.131895
H	-0.1419445754	-0.3651055536	-2.128560784	 0.099309
H	-0.8677998458	-2.7168104544	-0.9191802763	 0.119868
H	 0.8133027502	-2.7201926674	-1.4339055012	 0.130936
H	 0.0510550398	-3.0135840478	 1.2659191746	 0.127045
H	-0.9365722786	-0.8996321191	 1.7027865671	 0.10393
H	 1.7723385317	-0.2282454651	 1.958835381	 0.295451
