22
gdb 106701	2.40212	1.46272	1.18178	1.2488	86.48	-0.2253	0.0929	0.3182	1188.2246	0.194057	-367.162274	-367.153203	-367.152259	-367.195828	35.184	
C	 0.1472436519	 1.4848013158	 0.2289088967	-0.373472
C	-0.1186424931	 0.0088992864	-0.0998280073	-0.288382
C	 0.6193433954	-0.4665368969	-1.3217494334	 0.346261
C	 2.052287965	-0.9521247303	-1.3130480136	-0.393337
C	 0.9726741272	-1.9166084921	-1.7465180146	 0.296
C	 0.658085696	-3.2069280002	-1.0447325012	-0.494565
C	 0.5522840887	-1.5718247995	-3.1577726119	-0.123628
N	-0.86999721	-1.136074897	-3.1064162243	-0.343068
C	 0.2148062793	-0.1799978254	-2.7518667369	-0.129902
H	 1.2103900768	 1.6609694603	 0.4242003086	 0.114653
H	-0.148938869	 2.1338601501	-0.6022468872	 0.114923
H	-0.4156429068	 1.8002877787	 1.1130059261	 0.109418
H	 0.1631056786	-0.6111438125	 0.7605803664	 0.091899
H	-1.1926525218	-0.1485903329	-0.2567620933	 0.112885
H	 2.7761681832	-0.5686184754	-2.0281876737	 0.09866
H	 2.469518149	-1.1405316652	-0.3270955102	 0.107178
H	 0.7974848562	-3.1180569727	 0.0376970905	 0.114444
H	-0.3801899231	-3.5003718563	-1.2296443776	 0.133281
H	 1.3081592345	-4.019628476	-1.3912723454	 0.114773
H	 0.9900754469	-1.9182671574	-4.087678982	 0.086409
H	-1.1500185958	-0.9242715324	-4.0663198995	 0.218938
H	 0.3476049809	 0.737152001	-3.3150229461	 0.086632
