16
gdb 56380	2.07504	1.45983	1.24988	4.5954	74.72	-0.2904	-0.0121	0.2782	1102.7419	0.120845	-400.69376	-400.684083	-400.683139	-400.728788	34.494	
O	 0.0298001309	 1.4999580536	 0.0855724423	-0.432984
C	 0.0067162523	 0.0766938046	-0.030825405	 0.018551
C	 0.6757561719	-0.5496670462	 1.1206499758	 0.325685
C	 1.2824821197	-1.0189708041	 2.0446611423	-0.454569
C	-1.4279411838	-0.2992288078	-0.0179552537	 0.317381
N	-2.537849803	-0.6158381733	-0.0365038504	-0.34905
C	 0.6734613712	-0.3786869175	-1.3327541856	-0.000982
C	 0.2581322044	-1.6278776645	-2.0646328341	-0.272352
C	-0.0354513183	-0.2710320378	-2.6541319642	-0.285685
H	 0.9000065743	 1.7424166342	 0.4219835903	 0.29507
H	 1.8009747267	-1.4437308376	 2.8694101726	 0.215488
H	 1.7352892787	-0.1520169747	-1.3169377098	 0.097759
H	 1.0424075233	-2.2341228109	-2.5028671397	 0.119277
H	-0.5812992905	-2.1926357514	-1.6745527874	 0.142597
H	-1.0671303482	 0.0623919324	-2.650265573	 0.143446
H	 0.5432148703	 0.0680751909	-3.5055045102	 0.120368
