16
gdb 124809	4.1304	1.05174	0.8922	4.0185	67.28	-0.2501	0.0013	0.2515	1275.4861	0.123969	-471.21539	-471.206486	-471.205541	-471.249232	32.372	
C	 0.2430537837	 1.4927619559	 0.1328725067	-0.394077
C	-0.0848690561	-0.0022533193	 0.0060651726	 0.03563
O	-1.4790887546	-0.2348918363	-0.0272538057	-0.430259
C	 0.60417076	-0.5937585128	-1.192495146	 0.355595
N	-0.0829799543	-1.0448166743	-2.2062530424	-0.216993
O	 0.9245469432	-1.4568466961	-3.1188755318	-0.213527
C	 2.0865959172	-1.1956055642	-2.5103467941	 0.499842
N	 3.2270388733	-1.4598782108	-3.1926118325	-0.594826
N	 1.9699085638	-0.6648561831	-1.3225789537	-0.389119
H	 1.3221237268	 1.6485810679	 0.2163324772	 0.132996
H	-0.1229155875	 2.0375043943	-0.7433545412	 0.118288
H	-0.2488727723	 1.8943048007	 1.0221460869	 0.12658
H	 0.299412861	-0.5194035849	 0.8947795284	 0.110185
H	-1.755189938	-0.2517621931	-0.9512910889	 0.297079
H	 3.1670190303	-2.1237619025	-3.9476998131	 0.279245
H	 4.0668654735	-1.4907834414	-2.6377056825	 0.283361
