15
gdb 42268	2.7016	1.43917	1.17354	2.9728	71.28	-0.2544	-0.0601	0.1942	1058.281	0.110448	-420.553659	-420.545541	-420.544597	-420.587281	29.694	
O	 0.4463427533	 1.192036986	 1.9182106796	-0.292348
C	-0.0445708192	 1.401480517	 0.8276565704	 0.250991
C	 0.7712353502	 1.3904206276	-0.3735650864	 0.297373
C	 1.4809599022	 1.3998438526	-1.3457581303	-0.460239
C	-1.5273975275	 1.665749762	 0.6646727358	-0.114433
C	-2.0860725912	 2.5976682391	-0.4727015518	-0.299441
C	-2.929275695	 1.4143340469	-0.9695506626	 0.039285
O	-2.0194065201	 0.3634986356	-1.3109569883	-0.226733
C	-2.3797687023	 0.5177250273	 0.0589378659	 0.00156
H	 2.1050297952	 1.3968217252	-2.2062274119	 0.216411
H	-1.9115874637	 1.9472665	 1.6473160168	 0.110485
H	-2.6712844575	 3.4243008246	-0.0653401196	 0.117677
H	-1.3600404408	 2.974597021	-1.1951426741	 0.128434
H	-3.8929245309	 1.4152091565	-1.4639742822	 0.113159
H	-2.7920513626	-0.3423172412	 0.5728542485	 0.117821
