21
gdb 101599	4.52116	0.67362	0.64508	2.7216	76.2	-0.2664	0.017	0.2834	1790.7352	0.17944	-461.39681	-461.38566	-461.384716	-461.434491	38.278	
C	-0.1860333287	 1.3595951806	-0.0234451547	-0.239484
O	-0.1250139988	-0.0613639002	 0.1514662925	-0.232023
C	 0.7316543866	-0.4888435211	 1.1028036	 0.449335
O	 1.3952479104	 0.2555864181	 1.7803391105	-0.357348
C	 0.7540282885	-2.0037340393	 1.162061222	-0.344932
C	 1.3558941977	-2.5528570766	 2.4613458015	 0.048783
C	 0.4511857937	-2.2859843649	 3.6706218175	-0.398382
C	 1.6535795464	-4.0445016503	 2.3045473137	-0.083498
O	 2.3153609112	-4.4933369281	 3.4767580201	-0.422031
H	 0.7923684395	 1.7570302712	-0.3054256675	 0.139671
H	-0.9112553051	 1.5301242022	-0.819241939	 0.13186
H	-0.5084566166	 1.8485524134	 0.8993348409	 0.140674
H	-0.263869211	-2.3743842099	 0.9977159291	 0.124147
H	 1.3383262892	-2.337923991	 0.2931861762	 0.127042
H	 2.3122447074	-2.0440295679	 2.6278113178	 0.10565
H	-0.536470609	-2.74300477	 3.5281396465	 0.100154
H	 0.8916886245	-2.7125554354	 4.5739407207	 0.134944
H	 0.3140071336	-1.2127116943	 3.824051719	 0.127469
H	 0.7112908837	-4.5960485856	 2.1439319729	 0.080465
H	 2.281593464	-4.2034297711	 1.4122594857	 0.080488
H	 2.4316801528	-5.44530749	 3.4127727543	 0.287015
