16
gdb 33617	3.45544	1.66098	1.45755	2.0726	78.8	-0.234	0.0152	0.2492	922.6104	0.125245	-363.493109	-363.486539	-363.485595	-363.52384	27.236	
C	-0.01633245	-1.19719524	-0.0700824467	-0.306046
C	-0.0229685671	 0.0062928335	-0.0476775338	-0.031435
C	-0.0246204325	 1.4272720897	-0.0108909144	 0.388048
C	-0.5592504208	 2.3468948702	 1.1550618239	-0.132405
C	 0.8969535363	 2.6774628286	 1.5632328417	-0.252045
C	 1.2326749999	 2.3767518503	 0.0822632969	-0.132404
C	 0.3550509774	 3.3082285506	-0.7731495929	-0.048928
C	-0.9217068383	 3.2869528718	-0.0087767039	-0.048928
N	-0.6963528883	 2.2875057719	-1.1089678668	-0.212877
H	-0.0131205411	-2.2587261333	-0.0942497547	 0.182646
H	-1.3290774413	 2.0383624785	 1.8577741561	 0.08909
H	 1.1113088286	 3.6779142574	 1.9491195668	 0.100255
H	 1.3103085023	 1.9169238557	 2.2325031817	 0.113091
H	 2.22286831	 2.0975449481	-0.2687228126	 0.089091
H	 0.6501000793	 4.072526832	-1.4804615927	 0.101423
H	-1.7030422643	 4.0333138551	-0.0716766187	 0.101423
