15
gdb 127160	4.41554	1.1017	0.88663	3.4206	74.27	-0.2343	-0.0341	0.2002	1225.0065	0.112243	-450.10247	-450.093984	-450.09304	-450.136556	29.646	
C	-0.0121450614	 1.4640870796	-0.0669651429	-0.356058
N	-0.0084885584	 0.0007021925	 0.0206295121	-0.178962
C	-0.0219435607	-0.6307293325	 1.2576437835	 0.102801
N	-0.0377942428	 0.0222726149	 2.3459829264	-0.466904
C	 0.0082891243	-0.7372236567	-1.1314511939	 0.526368
C	 0.0158697777	-2.0936373947	-1.3912798076	-0.231118
N	 0.0333131603	-2.2205674396	-2.7481178792	-0.087316
N	 0.0372467862	-1.1247966839	-3.3413035844	-0.03514
O	 0.0204869622	-0.0753572278	-2.2737508415	-0.249631
H	 0.8815006405	 1.813041038	-0.5899257074	 0.15118
H	-0.8949595106	 1.8073105774	-0.6116661639	 0.151172
H	-0.0258442194	 1.8470494567	 0.9509077233	 0.18113
H	-0.0172304923	-1.7196479102	 1.1712612878	 0.120068
H	-0.045674696	-0.6107974769	 3.1417384062	 0.238629
H	 0.0103880604	-2.9471052367	-0.7387187785	 0.133779
