23
gdb 119087	1.93682	1.28739	0.9203	1.2327	82.11	-0.2469	0.0735	0.3204	1408.8365	0.20362	-425.402215	-425.391769	-425.390825	-425.438641	37.595	
C	-0.0272029968	 1.5812898254	-0.1243431352	-0.381515
C	 0.1865557237	 0.0964491359	 0.1233661126	-0.060833
O	 0.6300843705	-0.4838442199	-1.0928692638	-0.305256
C	 0.658670706	-1.8864149144	-1.2102501876	 0.374839
C	 1.3819307023	-2.1907157003	-2.5211277768	-0.219202
C	 2.8199004214	-1.6682634671	-2.5652772037	-0.390221
C	 1.1274017531	-2.7666731409	-0.0130941692	-0.136178
O	-0.0679857597	-3.5667206476	-0.0985585387	-0.274187
C	-0.6726211756	-2.6696516846	-1.0508682854	-0.133585
H	 0.8985038629	 2.0478682119	-0.4730127347	 0.127636
H	-0.7963955344	 1.7378675577	-0.885771081	 0.12558
H	-0.3413390518	 2.0793625216	 0.7978265543	 0.115417
H	 0.9351817694	-0.0509451977	 0.9156808205	 0.095643
H	-0.7476422016	-0.3689036553	 0.4688438317	 0.097618
H	 1.3642408025	-3.2760046009	-2.673784983	 0.105535
H	 0.7985118935	-1.7445885744	-3.3359532621	 0.102836
H	 2.8394425153	-0.5845836057	-2.4302785413	 0.132825
H	 3.4341732434	-2.117434049	-1.7768960107	 0.111998
H	 3.290089744	-1.9055168281	-3.524125137	 0.11199
H	 2.0350777147	-3.3608261714	-0.1703023618	 0.101959
H	 1.2055371224	-2.2490923714	 0.9504726368	 0.098408
H	-1.4975473761	-2.0934997315	-0.6126315106	 0.097721
H	-1.0383172393	-3.1922749122	-1.9427089332	 0.100972
