25
gdb 100315	1.92568	1.38936	0.99231	1.4109	88.47	-0.2611	0.0631	0.3242	1366.5516	0.226887	-389.486387	-389.475448	-389.474504	-389.521919	41.406	
C	-1.6734953544	-0.5959464922	-0.6737599535	-0.406248
C	-0.2210016555	-0.2024534078	-0.3788112024	-0.207139
C	 0.8054247906	-0.5539906188	-1.480069373	 0.313495
O	 0.508585506	 0.148335928	-2.6919427691	-0.466817
C	 2.2236675485	-0.0942799454	-1.0801783573	-0.166833
C	 2.3887765088	 1.4081775937	-0.8310279655	-0.399451
C	 0.8398118771	-2.0667740742	-1.7289094142	 0.018015
C	 0.0069620832	-2.7387289422	-2.7926906331	-0.286743
C	 1.5007976713	-2.6267442044	-2.9600942791	-0.274504
H	-2.0638457987	-0.0968214172	-1.5697219835	 0.102845
H	-1.7851309039	-1.6735578075	-0.8178614255	 0.130933
H	-2.3233765315	-0.2966669584	 0.1541183857	 0.117037
H	-0.1751050523	 0.8764419557	-0.2004838033	 0.103111
H	 0.0990752943	-0.6874893734	 0.551823697	 0.093804
H	-0.4317407026	 0.0526882134	-2.8704801164	 0.279812
H	 2.529605849	-0.6621101953	-0.1928344657	 0.086639
H	 2.8963782353	-0.3993597098	-1.8888143385	 0.103294
H	 2.0048560859	 1.9805002285	-1.6791710171	 0.132299
H	 1.8648682372	 1.7415635369	 0.0700592071	 0.110542
H	 3.4465735819	 1.6575456055	-0.7013009878	 0.105957
H	 0.9792423448	-2.6421694291	-0.8166717132	 0.076433
H	-0.4265644722	-3.7074915807	-2.5688379141	 0.106977
H	-0.6046561663	-2.1207128931	-3.4409371226	 0.097868
H	 1.8515311466	-1.9100737162	-3.6943661072	 0.123805
H	 2.1072194668	-3.5205986161	-2.8663107575	 0.104872
