15
gdb 80136	2.50333	1.89342	1.36589	3.0363	65.15	-0.2281	-0.0416	0.1865	928.8916	0.113968	-453.946167	-453.938811	-453.937867	-453.978214	27.893	
O	 0.2087388518	 1.4348309111	-0.0682254597	-0.417948
C	 0.1178610007	 0.0512064513	-0.0606322656	 0.053006
C	-1.2943636735	-0.6245284575	-0.0078009272	-0.059397
N	-2.3136499342	 0.1987933679	-0.6779596489	-0.263541
C	-2.5601870837	-0.3677700254	-1.8016559462	 0.062971
N	-1.9259962795	-1.567562675	-2.0761090102	-0.280618
C	-0.8671821569	-1.6850166681	-1.0764869441	-0.151521
C	 0.3720028779	-0.7708520003	-1.3619217406	 0.331427
O	 1.0703462252	-0.6359384134	-2.3212206689	-0.288763
H	-0.5805794976	 1.7571663223	-0.5259099565	 0.297377
H	 0.7636677099	-0.3346929495	 0.740014585	 0.115556
H	-1.6340490335	-0.95060438	 0.9761771422	 0.093334
H	-3.2745716342	 0.0245482144	-2.5199132279	 0.137225
H	-1.7127949572	-1.7951691884	-3.0375065286	 0.259888
H	-0.6681599154	-2.7136330391	-0.7740246428	 0.111004
