18
gdb 59750	2.55256	1.381	1.09822	2.7189	68.69	-0.2681	0.014	0.2821	1144.1763	0.147314	-476.233926	-476.225003	-476.224059	-476.26801	32.53	
C	 0.3522891719	 0.299057839	 0.9670583576	-0.42027
C	-0.4935688357	-0.1169370719	-0.2357578994	 0.123917
O	-1.2090115026	 0.9792049973	-0.7869744211	-0.436055
C	 0.3172558286	-0.7958758679	-1.3459369583	-0.00402
O	 1.3395266808	 0.0923704827	-1.8092475448	-0.268195
C	 2.4042955643	-0.714637085	-2.2257954914	 0.017089
O	 2.3606408504	-1.9023109586	-1.4330772988	-0.236167
C	 1.0944154475	-2.0311326528	-0.9380789914	 0.393263
N	 0.6492267351	-2.995529416	-0.2612791951	-0.537134
H	 0.7997380134	-0.573250799	 1.4512906852	 0.13451
H	 1.1550014288	 0.9771653202	 0.6609182908	 0.117459
H	-0.2819069096	 0.8139449174	 1.6924136054	 0.126882
H	-1.2520928738	-0.8399305982	 0.0805956098	 0.117173
H	-0.5543758899	 1.609830483	-1.109322512	 0.287176
H	-0.3684283046	-1.0436577007	-2.1702291369	 0.111818
H	 2.3126555504	-0.9978152462	-3.2864676776	 0.109185
H	 3.350447032	-0.1976740714	-2.0461984775	 0.132866
H	 1.3597545029	-3.716674812	-0.1305392944	 0.230502
