21
gdb 70074	2.50354	1.77196	1.33595	0.4235	87.39	-0.2194	0.0248	0.2443	1053.8042	0.184776	-349.949153	-349.941454	-349.94051	-349.98071	32.216	
C	-0.0626497946	 1.4735065868	-0.0046062469	-0.480346
C	-0.0314567946	-0.0432491427	 0.0489942896	 0.357639
C	-0.2610306492	-0.6899318344	 1.3889465377	-0.337287
C	 1.1357555902	-0.6933174443	 0.7784056907	-0.107308
C	 1.710436566	-1.9370252253	 0.2224387642	-0.069854
C	 1.2912684761	-2.5011863829	-0.9161342153	-0.086506
C	 0.2087439824	-1.9374816049	-1.7505154534	-0.065013
C	-1.241754559	-2.0075712263	-1.2973908518	-0.309926
C	-0.50234673	-0.6988299832	-1.2322804546	-0.097723
H	 0.5424607999	 1.8515696176	-0.8368534498	 0.117947
H	-1.0860968909	 1.8427316058	-0.1413506961	 0.116407
H	 0.3288924205	 1.9119722727	 0.9183793098	 0.111277
H	-0.4381903205	-0.0377552518	 2.2382980652	 0.105196
H	-0.7798459356	-1.6397432117	 1.4397629593	 0.111308
H	 1.8513600641	-0.027505987	 1.254380434	 0.079987
H	 2.5219348355	-2.3964575258	 0.7813655911	 0.084053
H	 1.7656172969	-3.4127159972	-1.2706891919	 0.083771
H	 0.3653946165	-2.0124728985	-2.8232271358	 0.083682
H	-2.0030513465	-2.1175847796	-2.0624744172	 0.1081
H	-1.4538420991	-2.5406801737	-0.3778611656	 0.115205
H	-0.782324198	 0.0230995766	-1.9929137334	 0.07939
