16
gdb 6196	3.78472	1.66204	1.55629	5.3093	60.5	-0.2871	0.0449	0.332	885.7893	0.129969	-420.943691	-420.93603	-420.935085	-420.975661	28.248	
C	 0.0662115303	 1.4636271674	 0.1109409633	-0.422931
C	-0.0460769841	-0.0537011454	-0.0353267192	 0.344987
C	-1.4904767729	-0.5333561291	-0.0577934854	-0.434015
C	 0.7979052344	-0.5932518901	-1.2111828618	-0.131294
O	 2.0289199126	-0.9837051803	-0.60338415	-0.24449
C	 1.854338083	-1.1044811369	 0.7403560345	 0.488371
O	 2.6710636189	-1.5331811458	 1.4907672625	-0.373445
O	 0.6225377734	-0.6669781114	 1.0956637832	-0.273215
H	 1.1144000921	 1.7771350547	 0.1025416752	 0.136261
H	-0.4510733834	 1.96593454	-0.7125882092	 0.123332
H	-0.3831205201	 1.7874286927	 1.0531651654	 0.138459
H	-2.0020272346	-0.1509247755	-0.946903577	 0.12661
H	-1.5335638036	-1.6255174694	-0.0734246751	 0.13347
H	-2.0282565389	-0.1776951976	 0.8249718384	 0.13878
H	 0.3377878792	-1.4675605072	-1.6851857123	 0.119388
H	 1.0046851937	 0.1631381939	-1.9711904823	 0.129733
