19
gdb 99644	2.36248	1.15366	0.84935	2.6194	76.86	-0.2459	0.023	0.2689	1365.9753	0.158096	-419.178232	-419.168428	-419.167484	-419.213455	35.028	
C	-0.4905533813	 1.3203517465	-0.0121633356	-0.323418
N	 0.0192103606	-0.0402833307	 0.0639371567	-0.083535
C	 1.4165638305	-0.2681713916	-0.2775046309	-0.253608
C	 0.9381681092	-0.4465424785	 1.1230920494	 0.009323
C	 1.3979456352	 0.493758718	 2.2345440294	-0.198766
C	 0.4048465466	 0.509787012	 3.4264848513	-0.069862
O	 0.8046681381	 1.3829896733	 4.4542675387	-0.415982
C	 2.7200563268	 0.0913199505	 2.7246995206	 0.267061
N	 3.7399824476	-0.2362831759	 3.1603294214	-0.32456
H	 0.2461929733	 2.1060099629	 0.2197080651	 0.106338
H	-0.846530992	 1.4952590105	-1.0318585867	 0.134824
H	-1.3433649199	 1.4318558096	 0.664937396	 0.130829
H	 1.6292781746	-1.1290861743	-0.905012641	 0.127092
H	 2.0414606316	 0.6035971505	-0.4734219953	 0.11424
H	 0.7599869654	-1.4604858425	 1.4789047588	 0.109497
H	 1.4899220558	 1.5188045711	 1.8620012138	 0.133252
H	-0.560603494	 0.8736530876	 3.0643572031	 0.128148
H	 0.2621347234	-0.5205183748	 3.7853374772	 0.109321
H	 1.6117583487	 1.0340543055	 4.8500868782	 0.299805
