17
gdb 47646	2.32128	1.84073	1.28609	1.8005	69.87	-0.2638	-0.0107	0.253	1001.3998	0.137605	-455.142205	-455.134494	-455.13355	-455.174499	29.367	
N	-0.000525791	 1.3427362791	-0.1932361199	-0.468568
C	-0.0227028265	 0.0915927106	-0.0324150513	 0.369986
C	-1.297925851	-0.7014161929	 0.0779099627	-0.251069
C	-1.2228550615	-1.7632484623	 1.1884249422	-0.170546
N	-0.9660061063	-1.1481337868	 2.4872829548	-0.194539
C	 0.2179278517	-1.0107022425	 2.8891315657	 0.09368
O	 1.3716233735	-1.4387574849	 2.2528660963	-0.225542
C	 1.8779598768	-0.6326990857	 1.2083273627	-0.000316
O	 1.1152959955	-0.7101679598	 0.0270907756	-0.244588
H	 0.9591681003	 1.6845327429	-0.2813350616	 0.223824
H	-2.118240192	-0.0006373816	 0.2440310776	 0.142088
H	-1.4798485686	-1.2143902329	-0.8749575549	 0.129328
H	-2.1873241096	-2.2751482542	 1.2477030156	 0.113144
H	-0.4514267502	-2.4966848807	 0.928853985	 0.121441
H	 0.4195953783	-0.5694276095	 3.8659169852	 0.123608
H	 1.9555351066	 0.4119382365	 1.5398731907	 0.103379
H	 2.8598458439	-1.0425791154	 0.9717511936	 0.134689
