18
gdb 37365	2.94925	1.88724	1.65726	2.0825	69.06	-0.2347	0.074	0.3087	876.1769	0.152274	-439.056988	-439.050751	-439.049807	-439.087202	26.696	
C	-0.0008213539	 1.535936267	-0.0112720976	-0.24608
C	 1.5124569225	 1.8138569939	-0.0091955417	 0.111041
O	 2.0186320291	 1.4432862361	 1.2834339216	-0.279591
C	 1.812913122	 0.0792956201	 1.5968083569	 0.03061
O	 0.5231476227	-0.4131370279	 1.2885767889	-0.279591
C	 0.0498111143	-0.0018027759	-0.0041664992	 0.111041
C	 1.1096170699	-0.3168631406	-1.0594871611	-0.062116
N	 1.1175346496	 0.6289638487	-2.1970948876	-0.350372
C	 2.043068011	 0.8418799117	-1.0626977015	-0.062116
H	-0.4785539244	 1.9232772597	 0.8888154157	 0.10724
H	-0.4892605479	 1.9269393531	-0.9030169871	 0.125612
H	 1.7953996288	 2.8574767069	-0.1567022523	 0.081424
H	 2.5777644656	-0.5382159721	 1.1026441215	 0.084432
H	 1.9239163767	-0.0071225986	 2.6805192723	 0.117386
H	-0.9100399044	-0.500929432	-0.1473988415	 0.081424
H	 1.4490006687	-1.3369462107	-1.2011969473	 0.096649
H	 1.6393759463	 0.2064632084	-2.9616929248	 0.236363
H	 3.1116319834	 0.7269676121	-1.2069148952	 0.096649
