12
gdb 129224	3.80043	1.3073	0.9727	0.9953	76.13	-0.2565	-0.1064	0.1501	1102.1496	0.078126	-427.784343	-427.777043	-427.776099	-427.816484	26.837	
N	-0.1346570009	 1.3403197844	 0.0081805924	-0.55461
C	 0.0257019508	 0.0815719873	 0.0009743929	 0.430741
N	-1.119843127	-0.7363668957	 0.0027638897	-0.199902
N	-1.1383690508	-2.0588212637	-0.003859937	-0.030718
N	-0.0341554693	-2.6941178406	-0.0127474938	-0.242768
C	 1.1432756487	-1.9193785359	-0.0146844084	 0.199249
N	 1.2237355053	-0.6256871112	-0.0086850544	-0.317059
C	 2.3391507554	-2.697909397	-0.0251821541	 0.279387
C	 3.3360905299	-3.3695344853	-0.0340229031	-0.314829
H	 0.7767827692	 1.7957584379	 0.005833616	 0.236686
H	-2.0296723775	-0.2941705444	 0.0096930457	 0.296791
H	 4.2217108662	-3.9572625858	-0.0418020558	 0.217033
