16
gdb 2262	3.71259	2.78216	2.14824	1.752	60.53	-0.23	0.0648	0.2949	682.7732	0.136497	-325.730097	-325.723075	-325.72213	-325.76065	26.439	
C	 0.0284108515	 1.5256599783	 0.0418620947	-0.499684
C	-0.0340485183	 0.0303295886	-0.0467877956	 0.356177
C	-0.8787771766	-0.8161562668	 0.8205439018	-0.27728
N	 0.5846890396	-0.9053241878	 0.9949152378	-0.168212
C	 1.0406953332	-1.7969233099	-0.1284136785	-0.197465
C	 0.5129666478	-0.8010172762	-1.1997735085	 0.042779
O	-0.4707322399	-1.2162152661	-2.12289721	-0.433946
H	 1.0183320228	 1.9014801657	-0.2390995102	 0.119074
H	-0.7092207698	 1.9813244759	-0.6288861605	 0.129061
H	-0.1847748701	 1.8630898887	 1.0601742883	 0.128817
H	-1.3749314478	-0.3230169749	 1.6511388812	 0.115699
H	-1.4164633947	-1.6645053437	 0.4042152504	 0.12058
H	 2.1271737176	-1.9083349655	-0.1128662013	 0.104776
H	 0.5682709363	-2.7850191327	-0.1277762999	 0.102861
H	 1.3382947016	-0.2842728206	-1.7076556543	 0.072484
H	-0.035747203	-1.6946980029	-2.8359049054	 0.28428
