23
gdb 122983	4.37796	0.59983	0.57452	2.3266	83.4	-0.2447	0.0782	0.3229	2007.8724	0.203016	-425.400801	-425.38992	-425.388975	-425.437809	39.101	
C	 0.1005381419	 1.591240513	 0.3618279378	-0.456516
C	-0.0386833054	 0.1174264317	 0.0451701598	 0.456356
C	 1.1351450843	-0.6540072662	-0.5116243881	-0.318072
C	 0.6493741266	-0.8975238395	 0.9054352102	-0.311785
O	-1.3144014577	-0.2860245252	-0.377107984	-0.290018
C	-1.6887997008	 0.1525727342	-1.6727496785	-0.076534
C	-2.9963422432	-0.5361816386	-2.0393050964	-0.179752
C	-3.5151599519	-0.1199910083	-3.4091124189	-0.072552
O	-4.7267746454	-0.8211921479	-3.6438254091	-0.419567
H	 1.0908460422	 1.8045824985	 0.7739301895	 0.116301
H	-0.0260253906	 2.2148780675	-0.5295971874	 0.116879
H	-0.6505281066	 1.8941673641	 1.0990700666	 0.12429
H	 0.9204933342	-1.4244204733	-1.2435931784	 0.11505
H	 2.0782073704	-0.1382180794	-0.6586377791	 0.108939
H	 1.2570747674	-0.5475431988	 1.7327601092	 0.108537
H	 0.1087091289	-1.8181414809	 1.0910751784	 0.122474
H	-1.8165675485	 1.2465126695	-1.6934615217	 0.087329
H	-0.8995843592	-0.0956946506	-2.4003319769	 0.086127
H	-2.8525672137	-1.6217168865	-2.0235374646	 0.113088
H	-3.7532008473	-0.3028446062	-1.2829130611	 0.11624
H	-3.6756793137	 0.9707135127	-3.4339571931	 0.084297
H	-2.7642325152	-0.3538698552	-4.1822078338	 0.08381
H	-5.0615093266	-0.5612671649	-4.5068806403	 0.285079
