15
gdb 61133	6.20143	0.59862	0.55741	1.4561	91.17	-0.2523	-0.0294	0.2229	1871.7051	0.108196	-383.392296	-383.382313	-383.381369	-383.427698	35.637	
O	-0.0859320026	 1.4513217393	 0.0179188603	-0.397932
C	-0.0017593331	 0.0370962184	 0.0161278517	-0.112439
C	 0.6692458966	-0.5129020613	-1.274973684	-0.36654
C	-0.0351779574	-0.112943066	-2.4839866828	 0.310811
C	-0.6303032146	 0.2092741692	-3.4764797773	-0.437149
C	 0.6896460157	-0.4737674192	 1.2017518101	 0.390556
C	 1.2977217395	-0.8732195886	 2.1694670811	-0.227752
C	 1.9745104693	-1.3226116674	 3.2608581527	 0.281976
C	 2.5768316106	-1.7212287727	 4.2283414859	-0.543585
H	 0.8050708544	 1.802423478	 0.1295561464	 0.288493
H	-1.0424472184	-0.3065848725	 0.0279488152	 0.138671
H	 1.7085361959	-0.1610325946	-1.3015424124	 0.133234
H	 0.7153892178	-1.6061736003	-1.2041746594	 0.14601
H	-1.1513200803	 0.4974709448	-4.3556609889	 0.199137
H	 3.1041581465	-2.0719011171	 5.0807190613	 0.19651
