12
gdb 43273	4.20515	1.22434	1.09396	2.4543	65.59	-0.2728	-0.1019	0.1709	1040.6528	0.077292	-435.485186	-435.478184	-435.47724	-435.516832	25.99	
O	 0.0351392568	-0.0221426546	 0.0149743013	-0.293877
C	-0.0191648881	 1.1794268468	 0.0282916155	 0.408118
C	-1.2339209953	 2.0462981622	 0.1057876535	-0.198156
C	-0.9030641987	 3.335767208	-0.025566082	-0.119812
C	 0.5938849617	 3.4903801103	-0.131536583	 0.271494
O	 1.2866454714	 3.019032018	 1.0434199603	-0.261366
C	 1.1749984193	 2.1367622657	-0.0803357283	-0.161479
C	 1.1824944356	 4.5986864492	-0.8364006427	 0.226099
N	 1.6175998633	 5.5010364432	-1.4121380102	-0.318097
H	-2.2238270236	 1.6396510016	 0.2638709277	 0.146865
H	-1.5710615742	 4.1870843832	-0.0205213739	 0.153058
H	 2.097550742	 1.8401515064	-0.5680078983	 0.147153
