16
gdb 44211	3.89279	1.1906	1.11103	2.9426	69.15	-0.2504	-0.0022	0.2481	1098.0459	0.124822	-437.843155	-437.835753	-437.834809	-437.875484	27.945	
O	 0.0554732223	 0.0843449867	-0.2354447669	-0.335181
C	 0.0651803725	 1.2667635815	-0.0547559394	 0.427437
N	-0.9802307899	 2.2126966926	 0.0279734595	-0.342361
C	-0.0430898591	 3.3338932429	 0.1490766441	-0.090967
C	 1.1220915781	 2.3498176001	 0.1376653094	-0.313266
C	 0.9260304748	 3.3632001137	-0.9806334085	 0.282142
C	 0.7142409841	 3.1910606034	-2.4834233257	-0.14364
O	 1.5763332245	 4.3221328969	-2.7449555194	-0.271906
C	 1.8848160946	 4.4946539016	-1.34677076	-0.151069
H	-1.776606109	 2.2069440169	-0.6000598348	 0.246123
H	-0.2329569708	 4.1483716365	 0.8366732438	 0.119114
H	 2.0154663704	 2.3135260629	 0.7454210467	 0.122883
H	 1.1088795985	 2.2629487011	-2.9145367064	 0.122461
H	-0.3064339736	 3.3575027448	-2.8497201573	 0.105857
H	 1.6159600336	 5.49390359	-0.9806568351	 0.11081
H	 2.944490129	 4.3053834383	-1.13223029	 0.111563
