20
gdb 100906	2.09818	1.24677	0.91391	3.7201	76.8	-0.2643	0.0205	0.2848	1368.0244	0.167324	-440.273212	-440.262238	-440.261293	-440.309886	37.478	
C	-0.0341677097	 1.3401588234	 0.1092449604	-0.23605
O	-0.0264615591	-0.064124146	-0.0237736726	-0.240255
C	 0.6970344186	-0.5487954692	-1.1348230956	 0.118062
C	 2.2022486712	-0.6188721423	-0.8702786998	-0.413325
C	 0.1229687643	-1.9385704056	-1.4688784123	-0.024071
O	 0.4106434073	-2.8220256281	-0.4172054117	-0.230506
C	 0.1019726866	-4.1768268443	-0.6933432526	-0.246887
C	-1.3340708033	-1.8477832345	-1.7275349054	 0.283391
N	-2.4653413221	-1.8112470841	-1.9585948254	-0.329982
H	 0.9655608953	 1.7490162054	 0.3151922323	 0.108468
H	-0.4322972326	 1.8292464148	-0.7928297567	 0.111864
H	-0.6859139639	 1.5744669754	 0.9536380001	 0.137157
H	 0.5023559736	 0.0874311541	-2.0142944627	 0.08085
H	 2.734515218	-0.9996496476	-1.7480624529	 0.114985
H	 2.5970290406	 0.3759383088	-0.6490307704	 0.122101
H	 2.40105588	-1.2771503908	-0.0231398589	 0.149811
H	 0.5937658131	-2.2848411242	-2.4052129555	 0.106978
H	 0.6518661117	-4.540966269	-1.5743345428	 0.110321
H	 0.4078287609	-4.7514722946	 0.1826447063	 0.139371
H	-0.9731501904	-4.3212672315	-0.8626509038	 0.137717
