15
gdb 15526	3.15686	1.81908	1.17221	5.4604	68.68	-0.2225	-0.0392	0.1833	963.7402	0.118814	-399.817095	-399.809212	-399.808268	-399.849663	27.984	
N	 0.0688169061	 1.3528963044	-0.0824356215	-0.581314
C	-0.0130427156	-0.0037777768	-0.0410329471	 0.225627
C	-1.0909456306	-0.8297099008	-0.0232582437	 0.124967
C	-0.6090584081	-2.2570624479	-0.0745080875	-0.157293
O	 0.8214741255	-2.1785951429	 0.0011996197	-0.264293
C	 1.2433493248	-0.8380334405	-0.10255047	-0.129058
C	-2.4831334546	-0.4676535214	 0.0307307873	 0.048703
O	-3.4059004868	-1.2625263197	 0.0313297584	-0.295701
H	 0.9335188887	 1.7881136797	 0.194690036	 0.266557
H	-0.7573956892	 1.8988569831	 0.1007678566	 0.270218
H	-0.9783864955	-2.8603585748	 0.7640213702	 0.121598
H	-0.9091235216	-2.7667194687	-1.0019559883	 0.113692
H	 1.7828575218	-0.6541421872	-1.0480024387	 0.115787
H	 1.9365408282	-0.5945509169	 0.7190762256	 0.10992
H	-2.6907809531	 0.6292126904	 0.0797144429	 0.030592
