21
gdb 57758	2.82711	0.71089	0.63671	0.6766	94.23	-0.246	0.0403	0.2863	1880.9196	0.178753	-349.903429	-349.892178	-349.891234	-349.941671	40.066	
C	-0.5656079138	 1.251336241	 0.0682689078	-0.373562
C	 0.1389208991	-0.1043934082	-0.1374958939	-0.123638
C	 1.0904071642	-0.0639729452	-1.3499324442	-0.372508
C	 0.8497496996	-0.5182509987	 1.073395946	 0.088552
C	 1.4528741135	-0.8375053944	 2.0656654346	 0.066089
C	 2.1633653118	-1.2537748462	 3.2809813638	-0.321872
C	 1.7410429629	-2.6779147273	 3.7227766536	-0.375425
C	 3.6189676436	-1.1671980849	 3.111561029	 0.347783
C	 4.8134414707	-1.118452174	 2.9943565449	-0.472328
H	 0.167215081	 2.0387986642	 0.2696053684	 0.124673
H	-1.1280922628	 1.5267580937	-0.8296694107	 0.111199
H	-1.2593994828	 1.2107862988	 0.9121133936	 0.121573
H	-0.6359562948	-0.8558136051	-0.3454011215	 0.102853
H	 1.8790137173	 0.6787319857	-1.1951119288	 0.125896
H	 1.5670876798	-1.0347241514	-1.5084406904	 0.124218
H	 0.5379993133	 0.2040393065	-2.2563463393	 0.110412
H	 1.8843274688	-0.5625980208	 4.0900165913	 0.133242
H	 2.0008975416	-3.4056393461	 2.9509071049	 0.136141
H	 2.2529720155	-2.9506928006	 4.6490872953	 0.125252
H	 0.6610153711	-2.7106289716	 3.8860389167	 0.12468
H	 5.8678580606	-1.0646617352	 2.8818524186	 0.196771
