18
gdb 73353	2.56911	2.02161	1.65873	2.3876	74.24	-0.2207	-0.0031	0.2177	891.7027	0.149695	-401.927046	-401.920084	-401.919139	-401.95786	29.11	
O	-0.0932643168	 1.4090521083	 0.026670657	-0.495309
C	 0.0276929486	 0.0029066275	 0.0210565633	 0.360315
C	 0.6961731989	-0.6053267781	-1.2393884976	-0.260177
C	 0.163914234	-2.054024163	-1.2263970368	-0.165128
N	-1.1870631346	-1.9987252693	-0.6078998103	-0.119585
C	-1.261946339	-1.8478190276	 0.8869291517	-0.070317
C	-0.0085517447	-1.6730897597	 1.6798998853	-0.074683
C	 0.6888779542	-0.6210103832	 1.2455559151	-0.168404
C	-1.3576889435	-0.6741946461	-0.0192439565	-0.085448
H	 0.7896652059	 1.7905606359	 0.0634350769	 0.278091
H	 0.3344070001	-0.0601387165	-2.1183121693	 0.109797
H	 1.7900357479	-0.5504028325	-1.2248481947	 0.090493
H	 0.0587252051	-2.4652556255	-2.2335026111	 0.110038
H	 0.8246149317	-2.7192425502	-0.6620076802	 0.106519
H	-2.1228746851	-2.3448100331	 1.3220244217	 0.0925
H	 0.286186521	-2.348725338	 2.4744085028	 0.102192
H	 1.672483901	-0.3176658926	 1.5909713272	 0.093382
H	-2.2485280146	-0.0899057465	-0.2274619246	 0.095722
