20
gdb 10960	5.13694	1.29759	1.17774	1.1506	76.08	-0.2403	0.0874	0.3277	1101.1524	0.176256	-348.971876	-348.963462	-348.962518	-349.004477	31.678	
C	-0.1797375994	 1.297463507	 0.0761684141	-0.235127
O	 0.3421027885	 0.0090944677	-0.1508811091	-0.242616
C	 0.8142629103	-0.6121112071	 1.0192863819	 0.153775
C	-0.2320860095	-1.2030549411	 2.0326037619	-0.331614
C	 0.400076201	-2.5881334286	 1.8234536679	 0.36488
C	 0.6331311156	-3.5923135905	 2.914711644	-0.494486
C	 0.2926429069	-2.9483947118	 0.3697142093	-0.317267
C	 1.3852054076	-2.0021299606	 0.7973810757	-0.13177
H	 0.5768945503	 1.9736896675	 0.5058616834	 0.10098
H	-0.4992950163	 1.6960991738	-0.8898649192	 0.124973
H	-1.0464814212	 1.2805496794	 0.7546387269	 0.105525
H	 1.5247577081	 0.0510307347	 1.5353581739	 0.062964
H	-0.10517363	-0.810731669	 3.0451489386	 0.096375
H	-1.2840904632	-1.110389503	 1.7426460168	 0.094989
H	-0.3111147921	-4.0352200698	 3.2549468138	 0.119219
H	 1.2742888776	-4.4104342364	 2.569962517	 0.116779
H	 1.1145242024	-3.1332731149	 3.7862378111	 0.113541
H	 0.635214353	-3.9461528033	 0.1125684685	 0.105064
H	-0.5300511281	-2.5856798614	-0.2403194835	 0.114193
H	 2.4330977285	-2.2283326825	 0.6387625271	 0.079624
