13
gdb 131432	7.49242	0.85178	0.76707	1.4337	65.72	-0.2474	-0.0202	0.2272	1366.19	0.088873	-489.868089	-489.860291	-489.859347	-489.901542	27.754	
O	-0.0288613706	 1.3143901177	 0.0756099254	-0.41245
C	 0.0475239709	-0.0212874977	 0.060389321	 0.506874
N	 0.1914568271	-0.685814899	-1.0636152649	-0.269516
O	 0.2341659184	-2.0448043861	-0.6600164659	-0.232928
C	 0.1008347067	-2.0885890135	 0.6700010708	 0.599028
O	 0.134122386	-3.2750075649	 1.2865884182	-0.223229
C	-0.0463213787	-4.4313786749	 0.5604754901	 0.104373
N	 0.0974964599	-5.5219293872	 1.1637122348	-0.412143
C	-0.020244696	-0.8495489005	 1.21235938	-0.513494
H	 0.0438849934	 1.6255082091	-0.8372297801	 0.314682
H	-0.3106291558	-4.252636127	-0.4818712024	 0.14969
H	-0.079097147	-6.298714444	 0.5296528579	 0.246681
H	-0.142422954	-0.5734518621	 2.243701915	 0.142431
