23
gdb 101720	2.24266	1.17069	0.89751	1.6887	82.71	-0.2258	0.0724	0.2981	1417.3386	0.202971	-425.403777	-425.393197	-425.392253	-425.439665	39.256	
C	 0.0664535537	 1.4230814259	 0.8540580028	-0.402769
C	-0.1143974787	 0.0548632031	 0.192663198	-0.17284
C	-1.5691024812	-0.4091483605	 0.0984231435	 0.137757
C	-1.6842196728	-1.7635109876	-0.6026139894	-0.401649
O	-2.074052607	-0.4752408484	 1.4452129834	-0.283395
C	-3.4679946148	-0.5096568009	 1.542872663	 0.071626
C	-4.0315163293	-0.0424002097	 2.8613488271	-0.363103
C	-4.1638278782	 0.8278358478	 1.6302296401	 0.117106
O	-3.406741966	 1.9925725056	 1.5039411885	-0.434443
H	 1.1139869123	 1.7376082864	 0.8263661394	 0.11374
H	-0.523135214	 2.1938642075	 0.3442270957	 0.12396
H	-0.2386715956	 1.392261974	 1.9042557452	 0.12794
H	 0.2955302584	 0.0757726387	-0.823958525	 0.098343
H	 0.4549050859	-0.7034466317	 0.7445853644	 0.104966
H	-2.1536273755	 0.34188815	-0.4543602084	 0.08377
H	-2.7239230262	-2.0889567053	-0.6953974156	 0.117843
H	-1.2674062725	-1.7034131184	-1.6129555599	 0.11665
H	-1.1333811318	-2.5276170285	-0.045001707	 0.124308
H	-3.9530155174	-1.3415002058	 1.0357929358	 0.088033
H	-4.9040852871	-0.546820733	 3.2619970045	 0.113767
H	-3.3060833956	 0.2772407737	 3.60249487	 0.122801
H	-5.1422796623	 0.9512269195	 1.1779682802	 0.102707
H	-2.4872102043	 1.7437988075	 1.6610717534	 0.29288
