14
gdb 15650	3.48677	1.81538	1.26337	4.0098	58.67	-0.255	-0.0266	0.2285	902.1657	0.108678	-415.899839	-415.892676	-415.891732	-415.931608	26.015	
O	 0.0922834283	 1.4042647992	-0.0542553118	-0.419721
C	 0.0855150638	 0.0023258243	 0.0662212687	-0.049532
C	-1.3522868191	-0.5415230564	 0.0433105365	-0.137752
N	-2.0041103006	-0.1842832508	-1.2266365062	-0.262838
C	-2.3799225894	-1.2867647208	-1.7508403181	 0.070256
N	-2.0990189513	-2.4318456287	-1.0185776572	-0.33696
C	-1.4240191242	-2.0694072766	 0.1488936188	 0.418819
O	-1.0059083755	-2.8134704068	 0.9992546184	-0.358346
H	-0.452301746	 1.6129387994	-0.8235837399	 0.29718
H	 0.663726607	-0.4827759678	-0.7365869794	 0.092762
H	 0.5537923083	-0.2543797958	 1.0205186875	 0.131738
H	-1.9021546508	-0.0861787689	 0.8754252573	 0.135207
H	-2.8870261966	-1.3701945332	-2.7067851563	 0.146292
H	-2.3059211338	-3.3821904371	-1.2811177082	 0.272894
