16
gdb 82730	2.77763	1.90332	1.42331	1.7021	67.58	-0.2554	-0.0348	0.2206	910.1886	0.125821	-437.863463	-437.856566	-437.855621	-437.894678	27.439	
O	 0.0742488649	 1.4220449412	 0.1731006809	-0.439934
C	-0.0070332045	 0.0306436664	 0.0401918657	 0.0609
C	-1.4189012914	-0.5312062992	-0.0891000415	-0.036101
C	-2.1361968791	-0.0512486375	-1.3738953345	-0.260297
C	-1.6301734822	-1.3439322554	-1.9970581062	-0.019257
C	-0.1832977414	-1.6256444258	-1.7032510668	-0.159626
N	-1.2320526584	-1.9407431258	-0.6862874193	-0.154013
C	 0.6386466443	-0.4724982046	-1.2514890221	 0.371905
O	 1.603793197	 0.0362911171	-1.7698635604	-0.344416
H	 0.8583674215	 1.6897958625	-0.3286574514	 0.295918
H	 0.4957608521	-0.4916569619	 0.8753881805	 0.104697
H	-1.9927408868	-0.5468896483	 0.8346761889	 0.099191
H	-3.2217621974	-0.069475468	-1.2645220291	 0.122708
H	-1.828414069	 0.9057418594	-1.8008298182	 0.124979
H	-2.1308116142	-1.9302543535	-2.7616022238	 0.110518
H	 0.2745326247	-2.4697166668	-2.2051773325	 0.122828
