19
gdb 73975	2.77371	1.97678	1.39525	0.7014	87.06	-0.1844	-0.0099	0.1744	971.6397	0.160398	-348.698707	-348.691388	-348.690443	-348.730081	29.905	
C	-0.1260771114	 1.3486249161	-0.2214207406	-0.478272
C	-0.0070752495	-0.0800380023	 0.20284507	 0.284203
C	-1.0339045618	-0.932975693	 0.4143899021	-0.047167
C	-2.1422264152	-0.9897325909	-0.6052016105	-0.1516
C	-1.7704156871	-1.9912274015	-1.4216774977	-0.077642
C	-0.631894834	-2.8005789892	-0.8311212005	-0.081378
C	 0.7449530815	-2.3020367768	-0.1660295589	-0.04799
C	 1.2740100997	-0.8700440997	-0.0690272993	-0.309367
C	-0.5303036008	-2.3634128717	 0.5905268125	-0.111403
H	 0.5286751413	 1.9951414668	 0.3772125348	 0.126337
H	 0.1819085754	 1.4797643226	-1.2681954875	 0.124206
H	-1.1483174088	 1.7203247704	-0.1136239034	 0.122423
H	-2.9071889754	-0.2480628232	-0.7900300658	 0.103498
H	-2.2426485994	-2.2479810581	-2.3629841624	 0.094728
H	-0.5791454556	-3.8540040971	-1.0907637529	 0.082925
H	 1.46382444	-3.1152983453	-0.1009492702	 0.079847
H	 1.7148068168	-0.4896311096	-1.0013835173	 0.107476
H	 2.0683635237	-0.7993671882	 0.6915055199	 0.099759
H	-0.7576395094	-2.9644513492	 1.4664160479	 0.079418
