21
gdb 40251	2.67306	1.56902	1.1848	2.0699	81.47	-0.252	0.0757	0.3277	1109.3422	0.184953	-387.075915	-387.068219	-387.067275	-387.107883	31.464	
C	-0.0660377373	 1.4869122031	 0.0343826014	-0.295621
C	 1.28060973	 0.809386736	 0.0126345164	-0.030484
C	 2.1781658951	 0.8432039918	 1.2523435182	-0.220965
C	 1.8694806497	-0.2744523294	 2.2630351287	-0.196027
C	 0.3604781255	-0.4028518343	 2.5145562903	-0.297443
C	-0.3443051973	-0.8146274113	 1.2361485725	 0.471754
C	-0.8023143326	-2.2048283575	 1.0805074532	-0.250208
O	-1.7331832441	-1.160283733	 1.3760215221	-0.299287
C	 0.0063347428	-0.0213357182	 0.0151408308	-0.085738
H	-0.3704319331	 1.9719621333	 0.9565732338	 0.114473
H	-0.4168903933	 1.9849115693	-0.8626321818	 0.110927
H	 1.8075050835	 0.8439124852	-0.9356962396	 0.085096
H	 3.2255832166	 0.7705211834	 0.9419529984	 0.098871
H	 2.0776483186	 1.8156127495	 1.7509571857	 0.101471
H	 2.2457857399	-1.2313871621	 1.8786763918	 0.097891
H	 2.398521179	-0.0833812889	 3.2028665645	 0.094031
H	 0.147087196	-1.136787571	 3.2972736739	 0.10228
H	-0.0440260292	 0.5554849808	 2.8666997891	 0.104894
H	-0.8894295542	-2.6394951795	 0.0846397256	 0.107035
H	-0.6340816254	-2.92537141	 1.8811116352	 0.106154
H	-0.27240171	-0.4980820773	-0.9193785304	 0.080895
