16
gdb 16005	3.98638	1.95378	1.57132	2.1685	64.89	-0.2465	0.0246	0.2711	825.3714	0.133321	-379.901813	-379.895147	-379.894202	-379.932665	25.493	
C	 0.0378599108	 1.5108687171	-0.0023488325	-0.294891
N	 1.2702730936	 0.7015943826	 0.0507608571	-0.341422
C	-0.0427513395	 0.0334331744	 0.0084796574	 0.273222
C	-0.3986183245	-0.7193209246	 1.2648250561	-0.111547
O	 0.0963363113	-2.0698667502	 1.2112095826	-0.224201
C	 0.1355281723	-2.646420397	-0.0118299262	 0.143309
N	-0.1109188221	-2.1551190257	-1.1513861377	-0.274148
C	-0.4659416238	-0.7393049697	-1.2242128461	-0.225914
H	-0.1744506244	 2.0827432446	 0.8976315285	 0.118702
H	-0.2171989334	 2.0211121797	-0.9285026987	 0.115496
H	 1.7062122077	 0.6717064915	-0.868404856	 0.233357
H	 0.059959981	-0.2625165022	 2.1431739102	 0.129641
H	-1.4873264473	-0.7583358427	 1.4021161536	 0.111286
H	 0.4384035761	-3.6874416884	 0.0865605947	 0.125884
H	-1.5519299107	-0.6574201415	-1.3749409747	 0.117309
H	-0.0017224171	-0.3106818978	-2.1213879081	 0.103918
