22
gdb 91377	3.05465	1.30247	1.11813	1.249	81.99	-0.2055	0.08	0.2855	1202.1265	0.195133	-404.336154	-404.327519	-404.326575	-404.369225	33.588	
C	-0.8986714159	 0.9780208779	 0.5052439589	-0.404131
C	-0.2409824955	-0.3432022454	 0.1468377817	 0.140499
C	 0.7670822794	-0.2943601496	-1.0186692503	-0.253794
C	 1.7848814755	-1.3995114593	-0.6880254436	-0.022262
C	 1.4954263968	-1.7010654303	 0.8139491661	 0.100699
C	 0.9829661635	-3.0948857102	 0.3527061492	-0.208261
N	 1.4689844599	-2.8083027664	-1.0074700539	-0.062478
C	 0.6781535083	-3.1763542453	-2.1558135586	-0.328637
O	 0.5217513286	-0.7943736445	 1.2726496734	-0.270596
H	-0.1395043233	 1.7327792224	 0.7326518241	 0.121229
H	-1.5129285821	 1.3379881762	-0.3260150722	 0.114369
H	-1.5417608582	 0.8620390924	 1.3821019246	 0.125915
H	-1.0242418176	-1.085052191	-0.0802941317	 0.068489
H	 0.2876518415	-0.4205558049	-1.9932594256	 0.103673
H	 1.2809146597	 0.6734313556	-1.0235724924	 0.100865
H	 2.7999295908	-1.1177206028	-0.9863869243	 0.071919
H	 2.324712122	-1.7037895737	 1.521995427	 0.084409
H	 1.4459236567	-3.9740311218	 0.816656618	 0.096526
H	-0.1101088045	-3.1850306679	 0.4493611498	 0.091138
H	-0.3581808211	-2.7875560882	-2.1418877242	 0.089319
H	 1.1599996581	-2.8168042219	-3.0715199325	 0.119882
H	 0.6172093774	-4.268496741	-2.2217769435	 0.121227
