17
gdb 84391	2.16323	1.76004	1.14143	0.9417	74.32	-0.2627	0.0015	0.2641	1073.2071	0.134887	-421.793007	-421.784384	-421.78344	-421.826036	33.283	
O	 0.1354913214	 1.414027601	-0.1375557408	-0.426392
C	 0.0473847945	 0.0134485037	-0.0177617667	 0.093986
C	 0.6745991358	-0.5704239617	 1.2290210134	-0.109565
C	-0.0372314307	-1.5753520016	 1.7316762876	-0.109598
C	-1.2815427423	-1.8628253598	 0.9206380967	 0.094002
O	-2.4248616476	-2.2012526504	 1.6703002286	-0.426372
C	-1.4152079291	-0.5687772782	 0.0327120497	-0.276381
C	-2.3161471871	 0.3857706211	 0.665224301	 0.310791
C	-3.029563964	 1.1747090259	 1.2299018943	-0.454745
H	-0.4337161894	 1.7986981429	 0.5413525521	 0.281234
H	 0.5495746802	-0.3733248481	-0.9133644946	 0.103257
H	 1.6248315865	-0.2025242679	 1.5993823879	 0.107627
H	 0.2210499427	-2.1844177393	 2.5906191522	 0.107626
H	-1.1163325987	-2.7254050994	 0.2629600143	 0.10325
H	-2.7044105066	-1.4079875968	 2.145134914	 0.281224
H	-1.7874815298	-0.805438606	-0.9678346681	 0.111825
H	-3.6839852458	 1.8712192345	 1.6942105383	 0.20823
