23
gdb 106771	1.99528	1.56074	1.11362	0.9938	86.11	-0.2376	0.0806	0.3182	1239.591	0.20444	-388.270557	-388.260702	-388.259758	-388.304754	38.032	
C	 0.3634296397	-1.4954232189	 1.096507406	-0.39736
C	-0.0376166429	-0.4998728885	 0.0004083164	-0.28928
C	 0.6729747045	-0.6762948624	-1.319163526	 0.305221
C	 2.1187243818	-1.1214482779	-1.4580939913	-0.405074
C	 1.0329559512	-1.9109954997	-2.1385361989	 0.358345
O	 0.7727622936	-3.2394089058	-1.8312601021	-0.46442
C	 0.6185520338	-1.2313821811	-3.4426703062	-0.306653
C	 0.2916726919	 0.0665508713	-2.6242082909	-0.020038
C	-1.1566015269	 0.5268150616	-2.7381111678	-0.415034
H	 0.2557059942	-2.5264823826	 0.7486898241	 0.139075
H	 1.4020146178	-1.3518580742	 1.4110582991	 0.113649
H	-0.2672327459	-1.3630359286	 1.9808853424	 0.107539
H	-1.1186177681	-0.5790906337	-0.1700481438	 0.101102
H	 0.1323906197	 0.5248245032	 0.3612295055	 0.095424
H	 2.8323879363	-0.5301677006	-2.0307131506	 0.094056
H	 2.5353700156	-1.6056228799	-0.5809721992	 0.108993
H	 1.5391682794	-3.7660820191	-2.0839164812	 0.283003
H	 1.379138795	-1.15843817	-4.2284792778	 0.083759
H	-0.2883893466	-1.6738972592	-3.8636632588	 0.102696
H	 0.9623478512	 0.9059685701	-2.8466811048	 0.060275
H	-1.8532231501	-0.2929975408	-2.5301111919	 0.118374
H	-1.3791010423	 1.3406641161	-2.039542237	 0.114021
H	-1.3645666431	 0.889654161	-3.7506222653	 0.112326
