22
gdb 107468	2.17349	1.5876	1.27062	2.5411	81.71	-0.224	0.0654	0.2894	1145.6897	0.19248	-404.309305	-404.299595	-404.298651	-404.343273	37.337	
C	 0.1787758442	 1.5953274834	 0.1622203507	-0.376234
C	-0.03054498	 0.0859194206	-0.0228532099	-0.297381
C	 0.6355869884	-0.48615765	-1.2530702236	 0.313068
C	 1.6799639544	-1.5345491872	-1.2158918836	-0.296387
N	 2.0790395329	-0.1839623871	-1.6496946222	-0.16386
C	 1.6256943487	-0.0953339294	-3.0816631584	-0.21521
C	 0.1301997964	-0.3082798049	-2.6971169408	 0.338139
C	-0.6564266256	-1.4424755936	-3.3432270039	-0.457117
O	-0.6203580004	 0.8978186282	-2.7610431667	-0.466643
H	 1.247272438	 1.8256712507	 0.2008149049	 0.12881
H	-0.2581926469	 2.1535589435	-0.6671913144	 0.137729
H	-0.2818566425	 1.9350004935	 1.0953124181	 0.099552
H	 0.3428734719	-0.4436443546	 0.8612663779	 0.096737
H	-1.1030180539	-0.1386021914	-0.0841444109	 0.104759
H	 2.0705754148	-1.8000661949	-0.2375284632	 0.118218
H	 1.6996148362	-2.3483164994	-1.9385581157	 0.103019
H	 1.8008750151	 0.9098776023	-3.4700449628	 0.108965
H	 2.0956304094	-0.836985777	-3.7384407457	 0.09214
H	-0.1292110303	-2.3978985937	-3.2859497955	 0.119664
H	-1.6307342311	-1.5509033671	-2.8565478938	 0.127937
H	-0.8301257567	-1.2290258899	-4.4060866087	 0.106654
H	-0.870675813	 1.0429740181	-3.6797235719	 0.277441
