17
gdb 78676	3.3246	1.47616	1.17301	3.8059	73.24	-0.2364	0.0116	0.248	1040.1267	0.134972	-421.773806	-421.765829	-421.764884	-421.806032	30.659	
C	-0.0908846143	 1.5250047929	 0.0123115398	-0.533544
C	-0.0738093463	 0.0243834398	 0.0018627444	 0.190969
C	 0.8123730665	-0.9572850058	-0.8836862061	-0.092108
C	 1.9484494668	-0.9838729585	 0.1416115242	 0.092389
O	 2.7830162523	 0.1475945235	 0.1268389296	-0.433694
C	 0.6652295814	-0.9709536127	 1.0009316348	-0.123462
C	-0.0496987797	-1.9486434045	-0.0100785164	-0.210038
C	-1.2209262832	-0.9791045026	-0.0903178449	 0.407374
O	-2.4124724898	-0.9917483178	-0.1728275723	-0.335821
H	 0.9211920757	 1.925464565	 0.0949407714	 0.146098
H	-0.5456536439	 1.9092875034	-0.9066534136	 0.13024
H	-0.6869337476	 1.8951649626	 0.8531560084	 0.127938
H	 0.860348536	-0.9554043114	-1.9725259532	 0.091954
H	 2.5353808411	-1.9124762484	 0.1815103131	 0.073325
H	 3.4448196939	 0.0502015998	 0.8183968981	 0.288062
H	 0.5370718396	-0.9868744731	 2.083940941	 0.087549
H	 0.0126694315	-3.0343297122	-0.0145218083	 0.09277
