21
gdb 90078	3.45066	1.42122	1.23851	1.4364	82.77	-0.2336	0.0913	0.3249	1099.5195	0.184156	-387.046442	-387.038982	-387.038038	-387.077862	31.236	
C	 0.1185939569	 1.6344103832	 0.0429238807	-0.41646
C	 0.0050282821	 0.1197615203	 0.0049414912	 0.014452
C	 0.9373156421	-0.68031308	-0.9919863781	-0.367028
C	 1.0179961891	-1.7489168083	 0.0961466181	 0.425427
C	 1.7817617345	-2.8574138228	 0.8348683878	-0.332416
C	 0.3360811872	-2.9819115234	 1.4293179622	 0.073555
C	 0.0251822062	-1.6693139147	 2.2147011368	-0.266527
C	 0.6499420249	-0.7096085885	 1.1702323127	-0.003818
O	-0.1689917613	-2.6135678138	 0.1150014437	-0.322159
H	 1.1556014258	 1.9514257699	 0.2045439403	 0.108417
H	-0.2229859017	 2.0833529355	-0.8963833625	 0.115035
H	-0.4879660368	 2.0552164955	 0.8527564734	 0.115934
H	-1.0312586598	-0.1880746734	-0.1497070255	 0.091901
H	 0.5346202218	-0.9876209752	-1.959453721	 0.109717
H	 1.8901847559	-0.1623053379	-1.1375826699	 0.104702
H	 2.0187026646	-3.7313368471	 0.2264485577	 0.110407
H	 2.6163165182	-2.5708754286	 1.4810080254	 0.092553
H	-0.0507515335	-3.9287884236	 1.8077843744	 0.078232
H	-1.0550611788	-1.5666109181	 2.346045537	 0.109137
H	 0.50355183	-1.6069365675	 3.1964167853	 0.09331
H	 1.5228740827	-0.1748881615	 1.5582303802	 0.065629
