21
gdb 65651	3.78463	0.96632	0.85557	2.3126	78.97	-0.2455	0.0701	0.3156	1406.9207	0.180777	-424.180012	-424.170722	-424.169778	-424.214881	34.464	
C	-0.1414979787	 1.547183006	-0.7552706156	-0.453599
C	-0.0206463577	 0.1699374298	-0.1408718124	 0.440324
C	 1.2994778404	-0.5350828379	-0.1242897688	-0.314689
C	 0.7023574032	-0.018183884	 1.1719094737	-0.315492
O	-1.1076431916	-0.689646518	-0.3868967402	-0.291331
C	-2.3041916935	-0.3511009019	 0.2648392877	 0.075919
C	-3.3609660718	 0.4836889283	-0.5017226536	-0.095651
O	-4.356452307	-0.5395897823	-0.2962225545	-0.274142
C	-3.3678549555	-1.4597546288	 0.2121421909	-0.102258
H	 0.7716844069	 2.1254005239	-0.588821943	 0.118575
H	-0.3076831186	 1.4716802051	-1.8348760676	 0.126991
H	-0.9733628443	 2.1118492357	-0.319326967	 0.120174
H	 1.2778378165	-1.606360574	-0.2860665466	 0.125017
H	 2.161882657	-0.0265364733	-0.5409661675	 0.111951
H	 1.1558088031	 0.8452825491	 1.6468240068	 0.112728
H	 0.3030355822	-0.7563260711	 1.8582808167	 0.117636
H	-2.103042903	 0.0244191365	 1.2749216102	 0.082537
H	-3.6638247955	 1.4451468642	-0.0709155067	 0.100047
H	-3.1113586618	 0.6147602254	-1.5629293375	 0.102449
H	-3.1135929162	-2.2440669347	-0.5127584268	 0.109125
H	-3.673941984	-1.916888678	 1.1593539519	 0.103689
