18
gdb 99351	5.24442	0.66455	0.62703	2.1296	75.41	-0.2334	0.0091	0.2425	1766.7649	0.144869	-439.065511	-439.055094	-439.05415	-439.102472	35.584	
C	 0.5176552756	 1.160391515	-0.152451893	-0.239738
O	 0.0882711909	-0.191071347	 0.0690806161	-0.226639
C	 0.509574833	-0.7527299249	 1.215827378	 0.430367
O	 1.2124287863	-0.1977084006	 2.0236688146	-0.359543
C	-0.0481037517	-2.1683167634	 1.3735261508	-0.287844
N	 0.5252349004	-2.9312197057	 2.4613007051	-0.275594
C	 1.9185896188	-3.331399472	 2.2187913015	-0.286073
C	 2.4696753355	-4.0465690044	 3.3642994589	 0.282153
C	 2.9311935771	-4.6156339945	 4.3162049508	-0.424303
H	 1.6084631022	 1.2154868924	-0.1877753695	 0.142933
H	 0.0885751317	 1.4551579499	-1.1098891722	 0.136175
H	 0.1584615179	 1.8138077693	 0.6464393332	 0.142786
H	-1.1311409014	-2.0719074522	 1.5223200505	 0.138019
H	 0.0786038169	-2.7058725571	 0.4274131818	 0.135124
H	 0.4968943428	-2.3751609527	 3.3104915467	 0.234198
H	 1.9290212317	-3.9903532087	 1.3397017406	 0.130494
H	 2.5756589649	-2.4775444458	 1.983865563	 0.130877
H	 3.3383761575	-5.1252209377	 5.153987853	 0.196608
