25
gdb 64477	2.41519	1.34429	1.1262	1.154	88.2	-0.2421	0.0737	0.3158	1260.2268	0.230175	-389.504072	-389.494495	-389.493551	-389.538007	37.699	
C	 0.3739001953	 1.5032453704	 0.3210889785	-0.418881
C	-0.1394810461	 0.0858407348	 0.0074471725	 0.265365
C	-1.6703272275	 0.05195674	 0.1708580405	-0.414633
C	 0.2781738964	-0.2745294472	-1.4431608266	-0.214701
C	-0.2559943678	-1.6027048139	-2.0084532278	-0.204229
C	 0.4725027023	-2.8889196983	-1.5622568654	-0.199187
C	 1.0613515681	-2.8594149729	-0.1444735495	-0.067908
O	 0.2240602795	-2.2453030573	 0.8208783988	-0.25036
C	 0.4937123799	-0.8725475319	 1.0365508166	-0.087551
H	 1.4560310885	 1.5802690039	 0.1656431362	 0.108222
H	-0.109510295	 2.2443650627	-0.3241580861	 0.111841
H	 0.1640665401	 1.7823120915	 1.3598796794	 0.109144
H	-2.1712032138	 0.6086222274	-0.6289230704	 0.104205
H	-2.0483121791	-0.9732687639	 0.1677483663	 0.129659
H	-1.9618754658	 0.5053964095	 1.1247313915	 0.105118
H	-0.0782714981	 0.5367317866	-2.0908823931	 0.089353
H	 1.374623868	-0.2504036161	-1.5169591034	 0.084645
H	-1.317845619	-1.6878819469	-1.7610143041	 0.105934
H	-0.2160564062	-1.5548285742	-3.1027505254	 0.09171
H	-0.223938106	-3.7303922631	-1.6497524476	 0.1006
H	 1.301717416	-3.1099282382	-2.2472697409	 0.092742
H	 1.2398563935	-3.8860991634	 0.1968303201	 0.098055
H	 2.0375181552	-2.3512097263	-0.1536788672	 0.085639
H	 1.583948971	-0.7096100399	 1.0696120363	 0.079226
H	 0.0977604205	-0.6407331832	 2.0327781608	 0.095992
