17
gdb 91254	3.77044	1.21042	1.01335	3.0546	76.58	-0.2426	-0.052	0.1906	1168.9887	0.135782	-421.823849	-421.816085	-421.815141	-421.856243	29.696	
C	 0.0608027581	 1.5062121988	 0.1709652715	-0.403778
C	 0.0061886906	-0.0007852266	 0.0475621703	 0.080819
O	 1.0309902558	-0.5562225459	-0.8565779273	-0.326452
C	 1.2944797286	-1.6604952122	 0.0743221861	 0.100067
C	 2.6751767027	-1.9563032886	 0.6527953038	-0.372722
C	 2.4701433329	-1.6923431276	 2.1789418431	 0.383243
O	 3.2284559203	-2.0230072614	 3.054191105	-0.315874
C	 1.2376161223	-0.8445318466	 2.3097749035	-0.325036
C	 0.6147900303	-0.8568646647	 1.1307953224	 0.19185
H	 1.0487534729	 1.8293669952	 0.507380562	 0.132428
H	-0.1501076894	 1.9682540351	-0.7978753803	 0.138166
H	-0.6914847274	 1.8536109361	 0.8864804369	 0.128321
H	-0.9884118765	-0.336313971	-0.2779181445	 0.094551
H	 0.7740609444	-2.561875463	-0.2716446718	 0.09651
H	 3.0711335506	-2.9551112622	 0.4612116647	 0.125778
H	 3.4003867798	-1.2192478736	 0.2907625975	 0.150347
H	 1.0411868439	-0.2428582719	 3.1872250972	 0.121784
