13
gdb 128450	4.81386	1.08088	0.88763	0.9525	61.01	-0.2924	-0.064	0.2284	1217.8538	0.089108	-489.900119	-489.892252	-489.891307	-489.933891	26.516	
C	 0.1429768044	 1.3678887179	 0.0831267168	-0.245422
O	 0.2143762353	-0.0650581212	 0.0382796219	-0.219454
C	 0.7378986927	-0.5715962592	-1.0831607116	 0.404043
O	 1.1366238249	 0.0666255101	-2.0201051584	-0.345257
C	 0.7698773969	-2.0657340233	-1.033446745	 0.251317
N	 0.3353992765	-2.7613285784	-0.0118582892	-0.149552
O	 0.5595910363	-4.0764044835	-0.4031567802	-0.142136
C	 1.1069456938	-4.0171028724	-1.6234646336	 0.112427
N	 1.2666738473	-2.8175073382	-2.0755497242	-0.282804
H	 1.1410237627	 1.8032816778	-0.0074720431	 0.14802
H	-0.4829474332	 1.7448231774	-0.7293575673	 0.147856
H	-0.2959432228	 1.6084507308	 1.0505316315	 0.143874
H	 1.3547504953	-4.9551387379	-2.0975985276	 0.177087
