19
gdb 63564	2.64149	1.46543	1.10698	3.7676	78.76	-0.2359	0.0157	0.2516	1150.9856	0.157507	-419.188876	-419.179627	-419.178683	-419.222353	34.829	
C	-0.0589393466	 1.5089588263	-0.0681369285	-0.454299
C	-0.0648095607	-0.0002754763	 0.0316353903	 0.277806
C	-1.1581953289	-0.7225271928	-0.7211329923	-0.463738
O	 1.2439767436	-0.6114423254	-0.0605918123	-0.311639
C	 0.5844622465	-0.6497515953	 1.1819412105	 0.317385
C	 1.135775353	-0.0705664952	 2.5024030838	-0.254197
N	 0.8088750102	-1.3775731228	 3.1056804301	-0.353831
C	 0.2140475896	-1.9025990432	 1.9548767121	 0.323466
N	-0.4022164956	-2.9609181542	 1.6390665426	-0.555948
H	 0.7946655246	 1.9374467582	 0.4623919638	 0.12605
H	 0.0015878531	 1.8175183943	-1.1174101215	 0.130458
H	-0.9805578871	 1.9280470363	 0.3498098029	 0.122452
H	-1.0597693236	-0.5318955169	-1.7955346532	 0.119877
H	-1.1089291921	-1.7965189367	-0.5363041174	 0.171262
H	-2.1418954149	-0.3588922202	-0.4051298102	 0.115483
H	 2.2048314942	 0.1604688439	 2.5012402353	 0.124401
H	 0.5693513017	 0.7774457287	 2.9037723547	 0.111842
H	 0.5013749441	-1.5316982019	 4.0545416481	 0.241979
H	-0.5082857512	-3.5942940169	 2.4332094813	 0.211191
