19
gdb 80657	2.53389	1.7524	1.27548	2.1278	74.	-0.2415	-0.0193	0.2222	1030.7955	0.160149	-423.043794	-423.035996	-423.035052	-423.076146	30.628	
C	 0.0845677404	 1.6041733794	 0.0218894456	-0.409872
C	 0.0916879388	 0.0747065005	-0.0216813412	-0.092468
C	 0.8009014304	-0.5230735557	-1.244317149	 0.080629
C	 2.32349809	-0.6612977522	-1.0319902236	-0.266413
C	 1.8931531989	-2.0009565211	-0.398303127	 0.084171
C	 1.507973683	-1.8288066657	 1.0701379235	-0.312639
C	 0.7088983772	-0.5311793919	 1.2554333011	 0.382752
O	 0.5853972875	-0.0083254932	 2.3368680328	-0.31652
O	 0.6643300895	-1.9698250915	-1.1779434378	-0.297172
H	 1.1014918929	 2.0081408632	-0.0292565622	 0.118631
H	-0.4855609816	 2.0147134617	-0.8168357185	 0.11419
H	-0.3620986934	 1.9498206322	 0.9559172001	 0.146127
H	-0.9445661363	-0.2914682921	-0.0557843985	 0.114062
H	 0.4310451329	-0.1136788282	-2.1883176875	 0.081658
H	 2.861110924	-0.8003865281	-1.9704206172	 0.117045
H	 2.8360368161	 0.0729735982	-0.405131077	 0.109151
H	 2.4860753573	-2.8983739283	-0.5906195156	 0.084313
H	 0.8786565102	-2.6713380274	 1.3813340244	 0.137795
H	 2.3729480622	-1.8004267197	 1.7409623777	 0.12456
