17
gdb 74625	3.04803	1.46068	1.40721	0.824	73.59	-0.2214	0.0061	0.2275	1008.7128	0.135451	-421.778621	-421.771048	-421.770103	-421.810235	30.301	
C	 0.0210790494	 1.5209794392	 0.0430470118	-0.50486
C	-0.0764247086	 0.0308089328	-0.0106147825	 0.326284
C	-0.0443654681	-0.7820221907	-1.0825765065	-0.163245
C	-0.081117329	-2.19658228	-0.6531064973	-0.171738
C	 0.8763314568	-2.5772795563	 0.577180034	-0.000433
O	 1.354679875	-1.42661203	 1.2227845937	-0.288884
C	-0.0231862388	-0.8506641281	 1.2098405408	-0.106383
C	-0.5652656931	-2.2626290263	 0.7621205412	 0.30433
O	-1.6848668261	-2.9460343936	 1.1647072948	-0.451071
H	 0.9438345353	 1.8436518855	 0.5415986231	 0.134875
H	 0.0122227987	 1.9554510198	-0.9603954522	 0.124916
H	-0.8120034464	 1.9582854434	 0.6081662189	 0.122793
H	 0.085882627	-0.4658591364	-2.1110185586	 0.096908
H	-0.3032963047	-3.0200640694	-1.3211498991	 0.093205
H	 1.4927998646	-3.4676844063	 0.5733368986	 0.116642
H	-0.2713457952	-0.4318759483	 2.1856902012	 0.075866
H	-1.5519347967	-3.2444780754	 2.0720979682	 0.290794
