16
gdb 78651	2.96896	1.58773	1.20248	3.1751	69.04	-0.2446	-0.0012	0.2434	1027.8786	0.123213	-437.831524	-437.823737	-437.822793	-437.863547	30.044	
C	-0.1902118928	 1.4549949117	 0.0077336744	-0.403944
C	 0.0752953023	-0.0366565276	-0.0025382665	 0.03011
C	 0.9385191516	-0.5620924564	-1.1508111719	-0.119154
C	 2.1420093708	-0.4501454773	-0.2797177305	-0.114937
N	 1.2261943831	-0.424782223	 0.9392324283	-0.229543
C	 1.184854978	-1.9192846215	 0.8179200422	 0.346597
O	 1.0706510686	-2.756445393	 1.6567209874	-0.324936
C	 1.5809021156	-1.8566224717	-0.6173119297	 0.254423
O	 2.0039070194	-2.8200419213	-1.4859714958	-0.453107
H	 0.7254181299	 2.0198517352	-0.1903733177	 0.124934
H	-0.9305605692	 1.7162639223	-0.7561717367	 0.119165
H	-0.5778013139	 1.7604741159	 0.9835305637	 0.135366
H	-0.8413669659	-0.5979099803	 0.2172404387	 0.09222
H	 0.8587641968	-0.4198323455	-2.2232489572	 0.111452
H	 3.1474195649	-0.0636569898	-0.3388922236	 0.125231
H	 2.6296422908	-3.3920360777	-1.0256137251	 0.306125
