21
gdb 70997	3.054	1.55887	1.4461	1.6332	83.59	-0.2196	0.0804	0.3	1029.4553	0.183473	-387.009152	-387.001604	-387.00066	-387.040396	31.901	
C	-0.1115695367	 1.5875697019	-0.0145883395	-0.49973
C	-0.0141260058	 0.0813238005	 0.0034062692	 0.237959
C	 1.0521791715	-0.7347570429	-0.9001673729	-0.364443
C	 0.680673242	-1.8223472512	 0.1378252286	 0.412557
C	 1.0374013907	-2.8755060228	 1.2123576628	-0.311388
C	 0.2893289897	-1.9002621808	 2.2268347555	-0.281045
C	 0.6171740655	-0.7548728989	 1.1983191667	-0.035374
O	-0.719617841	-2.0685908912	-0.1871477875	-0.310781
C	-1.2597868313	-0.7440549674	-0.2994450545	-0.108052
H	 0.8485492512	 2.0512308634	 0.2325156738	 0.11863
H	-0.414957947	 1.9543071687	-1.0020766403	 0.119325
H	-0.851230062	 1.939771065	 0.7135006816	 0.121846
H	 0.7973219429	-0.896283282	-1.9516972172	 0.097914
H	 2.0636705038	-0.3401851777	-0.7937408194	 0.102814
H	 0.6389239025	-3.8826117689	 1.0733852108	 0.109853
H	 2.107854961	-2.9215533588	 1.4247418422	 0.106044
H	-0.7661595129	-2.1520857002	 2.3156733308	 0.124932
H	 0.7279692754	-1.7881387112	 3.2204660997	 0.0953
H	 1.6123583866	-0.3594234337	 1.4162722057	 0.076956
H	-2.0659099373	-0.5928165295	 0.4307401354	 0.093113
H	-1.6602959486	-0.5722134024	-1.3070538616	 0.093572
