20
gdb 61817	3.15925	0.93706	0.817	4.0231	76.1	-0.2468	-0.015	0.2318	1441.2897	0.168116	-440.265414	-440.255282	-440.254337	-440.301244	36.493	
C	 0.5228570516	-0.6788105125	-1.2614921554	-0.466919
C	-0.005891871	 0.0743862853	-0.0570202384	 0.298104
C	 0.9449906151	 0.8999916842	 0.7381955011	-0.284651
N	-0.071552641	 1.5427085242	-0.117317236	-0.346558
C	-1.2015315355	-0.610911556	 0.6071356475	 0.061426
O	-0.8483066349	-1.9191720277	 1.0512045192	-0.425391
C	-1.8660482967	 0.1927764439	 1.7288603846	-0.313103
C	-3.1328207683	-0.478071341	 2.208950061	 0.170337
O	-3.41406689	-0.6691949808	 3.3630741932	-0.244228
H	 1.4330707321	-0.2130773778	-1.6521134556	 0.110154
H	 0.7472367468	-1.7152691625	-0.9972115256	 0.142825
H	-0.2238856671	-0.6953435012	-2.0644518584	 0.122455
H	 0.8056289638	 1.0578470643	 1.8037118409	 0.119576
H	 1.9831612538	 0.9170491702	 0.4168009984	 0.114884
H	 0.354683246	 1.8749619691	-0.9790964755	 0.231916
H	-1.9510960783	-0.7896473084	-0.1766837037	 0.092818
H	-0.2202642022	-1.8223565754	 1.7764976972	 0.283804
H	-1.2017931891	 0.3229281564	 2.5895581233	 0.110082
H	-2.1165412167	 1.189300263	 1.343059413	 0.151065
H	-3.8269000984	-0.7843672072	 1.3911380793	 0.071406
