21
gdb 75494	2.15128	1.77543	1.1978	1.1659	84.37	-0.2247	0.0235	0.2482	1126.4343	0.182828	-387.095535	-387.086741	-387.085796	-387.128383	34.743	
C	-0.1433053865	 1.5116363321	 0.0371514747	-0.503376
C	-0.0129103824	 0.0144739915	-0.0317624685	 0.278027
C	 0.003575214	-0.6705689721	-1.1781614996	-0.150697
C	 0.1099668113	-2.1761340494	-1.244591271	-0.256153
C	 0.9434531147	-2.7435112777	-0.0820103601	-0.230736
C	 0.5459060549	-2.1318880288	 1.2592762864	-0.068681
C	 1.401796626	-1.0471346432	 1.8923406028	-0.357441
C	 0.0609278242	-0.7142305113	 1.2742759406	 0.32101
O	-1.0023959879	-0.4548738143	 2.1633932555	-0.471061
H	 0.6996234663	 1.9607185227	 0.579152473	 0.118547
H	-0.1821107627	 1.9572533825	-0.960125277	 0.121497
H	-1.057032132	 1.8014826977	 0.5708033628	 0.124466
H	-0.0738200312	-0.1320922985	-2.1207313041	 0.077139
H	-0.8994182926	-2.6133141585	-1.2307407063	 0.112594
H	 0.5517700007	-2.4791550726	-2.2004454511	 0.096956
H	 0.8406151694	-3.8328180322	-0.0409100592	 0.097133
H	 2.0023829115	-2.5409235593	-0.2807869701	 0.099937
H	 0.0348526945	-2.7842749016	 1.9593360399	 0.094692
H	 1.4626021981	-1.0227514375	 2.9755935221	 0.106169
H	 2.3037074461	-0.7438143477	 1.3693772936	 0.108784
H	-0.8311509762	 0.3917968481	 2.5894367056	 0.281195
