15
gdb 43160	2.84843	1.53557	1.25464	2.431	71.56	-0.2339	-0.0278	0.2061	1005.0296	0.111927	-420.569039	-420.561582	-420.560638	-420.600981	28.738	
O	-0.0024231669	-0.0558352681	 0.190796261	-0.303311
C	-0.006329242	 1.1313478622	 0.1250568363	 0.440017
C	-1.0658783132	 2.2635344821	 0.020615064	-0.188455
C	-0.6823882122	 3.0447276825	 1.2838727912	-0.104151
O	 0.7730922582	 3.0356817308	 1.1833749364	-0.278689
C	 1.0073787062	 2.2953313091	-0.0151230471	-0.016282
C	-0.0489254951	 2.9066432591	-1.0094469682	-0.222838
C	-0.0685857109	 2.3484455165	-2.3416903338	 0.294017
C	-0.0740267976	 1.8699033811	-3.4445180641	-0.410315
H	-2.1145657398	 2.0934504561	-0.2060574851	 0.109312
H	-1.0396184567	 4.080097463	 1.2900418556	 0.117322
H	-0.9978143118	 2.5476812855	 2.2075856469	 0.126056
H	 2.068343271	 2.2063944705	-0.22910051	 0.114855
H	-0.0398246288	 3.9999114233	-1.0077889812	 0.119967
H	-0.0791481005	 1.4479628663	-4.4191834019	 0.202496
