20
gdb 57639	3.32717	0.97531	0.92793	2.6379	81.4	-0.2374	0.0304	0.2678	1354.2985	0.168351	-403.08215	-403.072104	-403.071159	-403.116992	37.668	
C	 0.2502822828	 1.3889649303	 0.2983071566	-0.40618
C	-0.10576112	-0.0638079319	-0.041505367	 0.167941
O	 0.3587122455	-0.850204327	 1.0729665361	-0.447735
C	-1.6359873088	-0.2744051945	-0.2248908003	-0.240737
C	-2.490637334	 0.3238604772	 0.8747356782	 0.004624
C	-3.538313444	-0.4927425031	 1.5404467744	-0.25012
N	-2.3282732135	-0.0998215556	 2.2751324531	-0.305038
C	 0.585116563	-0.4962985981	-1.2644857389	 0.310864
C	 1.1369284718	-0.8919800165	-2.2569057377	-0.476299
H	 1.3345592257	 1.4997657511	 0.359254086	 0.130934
H	-0.1319662189	 2.0695869197	-0.4669443934	 0.120592
H	-0.1854119608	 1.6515251308	 1.2648478624	 0.151012
H	 0.493076686	-1.7497387244	 0.7552553462	 0.284587
H	-1.9379141611	 0.1502621786	-1.1891659696	 0.113188
H	-1.8047571907	-1.3558759693	-0.2932366617	 0.093886
H	-2.6744962653	 1.3919931285	 0.7753621904	 0.092019
H	-4.4569962033	-0.027198641	 1.8869531726	 0.114854
H	-3.6512713564	-1.526661082	 1.2213222688	 0.105471
H	-1.6551901449	-0.860853161	 2.3097398554	 0.23456
H	 1.6338799171	-1.228032342	-3.1336270017	 0.201577
