18
gdb 35690	2.33358	1.56877	1.125	3.5328	76.14	-0.2585	0.0235	0.2819	1114.5794	0.148336	-401.940222	-401.932054	-401.93111	-401.973424	30.475	
N	-0.5251308977	-0.8494837797	-0.8206299138	-0.337243
C	-0.3654309826	 0.2045289615	-0.3706641613	 0.267168
C	-0.1021423076	 1.5117884832	 0.1974280467	-0.201312
C	 0.1670201841	 1.6394039637	 1.7293146413	-0.24003
C	 1.2501948884	 2.7013568476	 1.4056655298	-0.300057
C	 1.3002372169	 2.1764348913	-0.0451546101	 0.446308
C	 2.4836735335	 1.3356062999	-0.5663352956	-0.356927
C	 2.5094425889	 2.3617998306	-1.7159542432	-0.078034
O	 1.4165669549	 3.103480894	-1.1204534884	-0.308504
H	-0.8723603008	 2.2196337334	-0.122605269	 0.134668
H	-0.6801758505	 1.9441615232	 2.3437773313	 0.122494
H	 0.591319945	 0.7198685386	 2.1366740184	 0.128601
H	 0.8444791087	 3.7169170793	 1.4199814228	 0.124568
H	 2.1804480763	 2.6793401385	 1.9769217108	 0.109974
H	 3.3613561756	 1.3401455494	 0.0820551144	 0.115892
H	 2.2423052168	 0.3105988542	-0.8503930837	 0.142529
H	 3.4136937567	 2.9738028701	-1.7983736091	 0.111615
H	 2.2431291734	 1.974087811	-2.7049203712	 0.118288
