22
gdb 6157	3.99296	1.21136	1.18738	1.4723	78.6	-0.2381	0.0834	0.3215	1183.8171	0.198268	-350.212377	-350.202937	-350.201993	-350.246389	35.222	
C	 0.1073551908	 1.3927419962	 0.4322098709	-0.379611
C	 0.0304057548	-0.09569276	 0.0812485995	-0.189359
C	-1.3852379694	-0.5402996169	-0.2472248668	 0.175814
C	-1.677646494	-2.0510539677	-0.3367788463	-0.365095
C	-2.7005435945	-1.791871205	 0.8005625116	 0.446621
C	-4.1639127424	-1.8914228238	 0.3848786266	-0.424894
C	-2.432093455	-2.5018225896	 2.1201401957	-0.427341
O	-2.2890190655	-0.3928223457	 0.8757199113	-0.342524
H	 1.1253898965	 1.685648181	 0.7056742073	 0.108903
H	-0.204706494	 2.015567407	-0.4136261437	 0.111338
H	-0.5526852477	 1.6171322055	 1.2749017322	 0.136756
H	 0.6719962072	-0.3205546493	-0.7816874436	 0.091983
H	 0.402573435	-0.6976452552	 0.9196511199	 0.094255
H	-1.7585927045	 0.0301779713	-1.1112534467	 0.065068
H	-2.096259075	-2.4074623147	-1.2797931248	 0.101026
H	-0.837079619	-2.6892615339	-0.0527657035	 0.100217
H	-4.4617448246	-2.9373980077	 0.251813751	 0.111205
H	-4.807086672	-1.446124543	 1.1508051097	 0.121274
H	-4.3381180741	-1.3608590836	-0.5557142713	 0.115301
H	-1.3819809656	-2.4019088281	 2.4080606442	 0.115376
H	-3.0465688715	-2.069628364	 2.9168911695	 0.121599
H	-2.6716563955	-3.5682866029	 2.0437008674	 0.112086
