16
gdb 109647	2.94881	1.0784	0.99592	4.4859	66.68	-0.2618	0.0007	0.2625	1217.2064	0.122517	-474.99548	-474.986172	-474.985227	-475.029546	33.972	
O	 0.2091306598	 1.1139740174	-0.552486461	-0.420572
C	 0.0037925202	 0.0251414444	 0.33092396	-0.092292
C	-1.410814678	-0.5241184639	 0.2330469865	-0.135691
C	-1.8779600731	-1.1419849366	-1.0481327276	 0.000418
O	-0.911758392	-1.2628242403	-2.0598300597	-0.426109
C	-1.6400610977	-2.0430391065	 0.164487207	 0.210043
O	-0.5400407242	-2.8924288793	 0.106686718	-0.451765
C	-2.7792151521	-2.6027171296	 0.8478818463	 0.272251
N	-3.7161863339	-3.0150747594	 1.3865539731	-0.339254
H	 0.1425089727	 0.760976164	-1.4468454531	 0.292684
H	 0.7285757884	-0.7804538181	 0.1656660193	 0.107252
H	 0.1713028862	 0.4111590698	 1.3400447624	 0.12463
H	-2.1718489828	 0.0394291247	 0.7630018029	 0.124324
H	-2.8936894747	-0.9648522586	-1.3885015431	 0.128436
H	-1.2956413603	-1.7495701486	-2.7972258393	 0.311246
H	-0.2072902485	-2.8442188093	-0.8013331417	 0.2944
