20
gdb 60969	3.71008	0.85734	0.75551	2.651	77.08	-0.2397	0.0276	0.2673	1506.8969	0.170264	-440.291385	-440.281833	-440.280889	-440.326278	34.81	
C	 1.4611467716	 0.5207476042	 0.6030765823	-0.348374
N	 0.13290188	 0.1918646851	 0.1112793236	-0.058008
C	-0.9005869822	 1.0474745068	 0.3626730837	 0.147419
O	-0.8366008132	 2.0429885211	 1.0560661517	-0.346122
C	 0.032890441	-0.9094150781	-0.8230067108	 0.058755
C	 0.5350331317	-2.3082264234	-0.3643794934	-0.287978
C	-0.6195892792	-2.9192266235	-1.2024378443	 0.158281
O	-1.2669157812	-4.0841722622	-0.7721671471	-0.425919
C	-1.3480729979	-1.549623641	-1.1249721165	-0.303786
H	 1.8889676404	-0.3199183084	 1.1591827675	 0.127206
H	 2.1376068656	 0.7657193949	-0.2263631204	 0.122143
H	 1.3684062148	 1.3861909716	 1.2586489754	 0.169282
H	-1.8340494011	 0.7314215856	-0.1349308763	 0.080755
H	 0.5312392125	-0.6392003137	-1.7651872309	 0.089107
H	 1.5616344292	-2.6027119699	-0.5896256012	 0.109831
H	 0.3421284362	-2.4449193188	 0.7058585942	 0.103508
H	-0.2908252503	-3.1282432284	-2.2243693673	 0.101369
H	-1.5635282223	-3.9483329376	 0.13412267	 0.279437
H	-1.9917792084	-1.5275044268	-0.2393934016	 0.108462
H	-1.9144777871	-1.1996343376	-1.9897451387	 0.114631
