20
gdb 57638	3.14718	0.92621	0.8839	3.4956	79.56	-0.286	0.0193	0.3052	1410.4023	0.168984	-403.149843	-403.139938	-403.138994	-403.184674	36.701	
C	-0.0415776897	 1.578083891	-0.1134240412	-0.394816
C	-0.0185069442	 0.0497573163	-0.0029561148	 0.190898
O	 0.7285001949	-0.2450685391	 1.1737515186	-0.441138
C	-1.43255998	-0.5836336568	 0.0613147136	-0.235985
C	-2.2504579457	-0.1249785507	 1.2490973385	 0.020243
C	-3.2438684015	 1.0055345877	 1.1253379393	-0.254637
C	-3.7300328486	-0.411873835	 1.2895870829	-0.287489
C	 0.685714572	-0.5174522536	-1.1815108291	 0.250627
N	 1.2259720294	-0.9913476857	-2.0868039172	-0.337052
H	 0.9798775452	 1.9600386243	-0.165162656	 0.142774
H	-0.5843405117	 1.8931089193	-1.00754963	 0.130378
H	-0.5312997969	 1.9940295268	 0.7683393081	 0.143668
H	 0.8186579682	-1.2024498036	 1.2460454847	 0.29175
H	-1.9612602071	-0.3685741016	-0.8747352679	 0.114806
H	-1.3031364993	-1.6742857945	 0.0943510056	 0.10661
H	-1.7239416677	-0.1954332363	 2.1956587583	 0.097872
H	-3.3528356293	 1.6901791745	 1.9591872387	 0.117043
H	-3.3673298688	 1.4707571	 0.1527399668	 0.113301
H	-4.175871182	-0.8961811152	 0.4267101667	 0.11473
H	-4.1711157774	-0.7018662277	 2.2365963343	 0.11642
