18
gdb 105825	2.52257	1.44035	1.22815	2.7761	71.44	-0.2192	0.0558	0.275	1082.856	0.147671	-438.982764	-438.974744	-438.9738	-439.015358	31.609	
O	 0.0981322415	 1.3895628068	 0.0302190432	-0.415161
C	 0.0244752269	-0.0256881257	-0.0952419294	-0.16895
C	-1.3870071074	-0.5232099937	-0.0262497713	 0.234349
C	-2.0533233368	-1.0409119442	 1.2324265824	 0.078146
O	-3.2017662873	-0.5817492854	 1.848695486	-0.426912
C	-1.9310955016	-1.9826795287	 0.0564958528	-0.203419
C	-2.8753193858	-1.6540043472	-1.1248355045	-0.044677
N	-3.7762065025	-0.527338382	-0.7382322084	-0.372725
C	-2.3790104546	-0.2683836497	-1.1934818286	-0.106803
H	-0.3584033767	 1.6269626004	 0.844933981	 0.287226
H	 0.4760357984	-0.2520100137	-1.0690988726	 0.10518
H	 0.6314198157	-0.536624866	 0.6697641461	 0.088299
H	-1.3042722828	-1.2779535708	 1.988571363	 0.101827
H	-3.8206898513	-0.4088518899	 1.1160266424	 0.300263
H	-1.3612699572	-2.9036891378	 0.0975603423	 0.092698
H	-3.1624253248	-2.3405850774	-1.9099554657	 0.104445
H	-4.3950421551	-0.3429866831	-1.5263619778	 0.237922
H	-2.1830364787	 0.378342688	-2.0383568009	 0.108292
