14
gdb 78160	2.27424	1.89721	1.34851	3.2891	63.99	-0.2768	-0.027	0.2498	946.0208	0.101592	-473.854606	-473.847368	-473.846424	-473.88641	27.59	
O	-0.0889915999	 1.4008217522	 0.0613430675	-0.39881
C	-0.0452815313	 0.0168245839	-0.0092476819	 0.098706
C	-1.3393288843	-0.7344750995	 0.0375004438	-0.172481
C	-0.5141628711	-0.7370661092	-1.2431870887	-0.274196
C	-1.29677687	 0.0880467999	-2.213287302	 0.445772
O	-1.0681842292	 0.3184830371	-3.360341089	-0.325681
O	-2.4197578707	 0.5899039299	-1.5767749642	-0.217831
C	-2.5524538867	 0.0636721429	-0.2988182678	 0.442368
N	-3.5625046526	 0.2175237811	 0.4309647342	-0.529256
H	 0.6489210529	 1.7615524682	-0.4431304125	 0.303729
H	 0.7830555733	-0.4560344752	 0.5169686603	 0.117926
H	-1.4581570829	-1.5837234734	 0.6955671135	 0.136657
H	 0.0511155297	-1.5747562966	-1.6279069468	 0.133222
H	-4.2681469972	 0.7909743887	-0.0335896864	 0.239875
