16
gdb 7294	4.46336	1.11637	1.02465	4.9191	65.39	-0.2628	0.0112	0.274	1138.2771	0.129429	-379.980046	-379.970816	-379.969872	-380.014777	31.78	
C	-0.056682575	 1.6370993457	 0.1542758802	-0.39855
C	-0.0463184658	 0.1044632473	 0.0091818315	-0.098473
C	 0.7748241117	-0.5784509313	 1.1246587058	-0.335429
C	 2.1673840336	-0.1410740084	 1.1444010683	 0.25736
N	 3.2679479587	 0.2121720613	 1.1413729681	-0.315532
C	-1.4845676831	-0.4236044742	 0.086278118	 0.415269
N	-2.1383568871	-0.4898291642	-1.1064637965	-0.527941
O	-2.0064138105	-0.7321361973	 1.1408529906	-0.365001
H	 0.961823679	 2.0332543617	 0.1301082399	 0.150476
H	-0.6254185073	 2.1031037822	-0.6552804125	 0.120287
H	-0.5195889764	 1.9257606126	 1.1030206343	 0.141911
H	 0.3904067993	-0.1585592722	-0.961309266	 0.094198
H	 0.3038194783	-0.3690378086	 2.0897264978	 0.175495
H	 0.7510800389	-1.6661466653	 1.0006129846	 0.156217
H	-1.7089181705	-0.2243705356	-1.9749431363	 0.26346
H	-3.1070453938	-0.7653298338	-1.1074630078	 0.266252
