25
gdb 107656	2.90239	1.19705	1.00769	0.1802	92.07	-0.2517	0.0827	0.3344	1336.0186	0.231463	-352.3723	-352.363275	-352.362331	-352.405638	36.202	
C	 0.1461206897	 1.485594627	 0.3733170819	-0.380199
C	-0.0243450422	 0.0647909881	-0.1801246626	-0.253617
C	-1.4414830984	-0.4812840038	-0.0725649835	 0.37803
C	-1.8392374284	-1.0897963748	 1.2504067666	-0.326262
C	-1.5983310361	-1.988007974	 0.0546859246	-0.069553
C	-2.764918477	-2.7309733388	-0.5985993194	-0.222699
C	-3.5339589236	-1.8829762389	-1.6239770257	-0.180893
C	-3.8034270198	-0.4723864191	-1.0924284871	-0.214266
C	-2.4858866002	 0.28699882	-0.8771098186	-0.2614
H	 1.1911154768	 1.8058114083	 0.3137468555	 0.108351
H	-0.4526520176	 2.2119192924	-0.1849636308	 0.116762
H	-0.1621184415	 1.5377302261	 1.4231133419	 0.115705
H	 0.2905318875	 0.0439763585	-1.2329661408	 0.089537
H	 0.655900897	-0.6100015059	 0.3545202346	 0.088355
H	-1.1086138125	-1.0899941444	 2.0535950165	 0.09959
H	-2.8643963744	-0.9775797368	 1.5910756202	 0.101951
H	-0.6666313159	-2.5466610092	 0.0813932877	 0.074178
H	-2.388882483	-3.6368297168	-1.0861017941	 0.093652
H	-3.4610985345	-3.0746390845	 0.1777433865	 0.096203
H	-2.9472604322	-1.8031352667	-2.549282665	 0.091371
H	-4.4712994438	-2.3839868245	-1.8901952285	 0.087535
H	-4.4308686918	 0.0896522069	-1.7929105509	 0.090727
H	-4.3712712049	-0.5320332066	-0.1544584424	 0.094226
H	-2.6854649329	 1.2569774127	-0.4052810068	 0.093155
H	-2.0564863005	 0.510560635	-1.8648421599	 0.089562
