15
gdb 75129	3.30784	1.34036	1.05563	3.8274	63.63	-0.2421	0.001	0.2432	1091.2409	0.114197	-491.121482	-491.113666	-491.112722	-491.154123	29.165	
N	 0.2086423829	 1.3361743334	 0.5594505954	-0.537473
C	 0.0786222812	 0.0977143899	-0.0214552447	 0.44813
N	-0.9960275559	-0.5665538568	 0.0635281866	-0.333792
C	-1.2467875875	-1.874828305	-0.4977273392	-0.308887
C	-0.1080088081	-2.9012038621	-0.5099702612	 0.402239
O	-0.2084687957	-4.0119940064	-0.080090845	-0.300547
O	 1.0876411497	-2.5105879622	-1.0579539975	-0.212563
C	 1.1843623951	-1.2302014707	-1.6328593978	 0.008517
O	 1.2512470585	-0.2052286023	-0.6730209745	-0.243976
H	 1.1535063343	 1.6448407425	 0.7243211875	 0.263453
H	-0.4481671396	 1.5166457151	 1.3016449708	 0.267973
H	-2.0361994331	-2.3511882389	 0.0878694732	 0.146453
H	-1.6417276329	-1.7984601085	-1.5232638513	 0.13157
H	 2.1387380731	-1.2085866316	-2.1575167621	 0.143993
H	 0.3610679681	-1.0442343267	-2.3310679403	 0.124909
