16
gdb 124813	2.62891	1.48395	0.99479	3.6781	66.91	-0.2418	-0.0296	0.2122	1145.5036	0.124205	-471.168006	-471.159525	-471.158581	-471.201128	31.834	
C	-0.8476781971	 1.4062357489	-0.3226730107	-0.401355
C	 0.2900052284	 0.4401410679	-0.0143944582	 0.003746
O	-0.1112498078	-0.6044550642	 0.8852586382	-0.426451
C	 0.9093856523	-0.1742034658	-1.2393198399	 0.285429
N	 0.6724032377	 0.1925488643	-2.4659137003	-0.157817
O	 1.4276207296	-0.6105469408	-3.2622156747	-0.167649
N	 2.1527986441	-1.5245591567	-2.5135027815	-0.178175
C	 1.8480399388	-1.2620575436	-1.2686339638	 0.291682
N	 2.3873088551	-1.8900193719	-0.1728375319	-0.593861
H	-0.4961194577	 2.2327125001	-0.9449760407	 0.147199
H	-1.6490571669	 0.9003724505	-0.8713212263	 0.12589
H	-1.2515103846	 1.8054398194	 0.610713429	 0.127402
H	 1.0773368911	 0.9670343775	 0.5386967986	 0.121377
H	-0.8786457466	-1.0418631182	 0.4973126695	 0.288932
H	 2.8442977199	-2.7684795421	-0.369521527	 0.264016
H	 1.7565678636	-1.9149926154	 0.6174271497	 0.269634
