18
gdb 58976	3.63265	1.02257	0.8386	2.6929	77.98	-0.2439	-0.0323	0.2116	1357.5939	0.147624	-439.110098	-439.101322	-439.100378	-439.143967	32.659	
C	 0.3299766655	 1.0684024738	-0.7043668728	-0.410666
C	-0.0870652453	 0.1013935744	 0.401213554	 0.022046
O	-0.0395473376	 0.7152276986	 1.6930138006	-0.422832
C	-1.432640512	-0.5335932579	 0.1849753762	 0.283991
C	-2.2786462369	-0.458590134	-0.846619331	-0.308612
C	-3.4709951728	-1.2650333878	-0.5600496593	 0.426044
N	-4.477939279	-1.4293919691	-1.3102321773	-0.553753
O	-3.3124493156	-1.8232343566	 0.687285324	-0.251952
C	-2.0554114168	-1.4196151977	 1.2346046552	-0.164902
H	 1.3022522207	 1.5035418535	-0.461791404	 0.13154
H	 0.4067896326	 0.5573580845	-1.6686080411	 0.130383
H	-0.3983731827	 1.8804716303	-0.8085667539	 0.118666
H	 0.6603676188	-0.7011366393	 0.4693559393	 0.107119
H	-0.6432736444	 1.4671678521	 1.6778246106	 0.283698
H	-2.1647602725	 0.0820534125	-1.77415636	 0.126742
H	-5.1625542261	-2.039221227	-0.8605644843	 0.222199
H	-1.4475809601	-2.3101179706	 1.446188201	 0.126695
H	-2.2182673755	-0.8958360495	 2.1834124926	 0.133595
