22
gdb 117683	3.1311	0.96804	0.88441	2.618	79.04	-0.2367	0.0708	0.3076	1435.0054	0.192517	-441.448495	-441.438139	-441.437194	-441.483755	38.113	
C	-0.1184196375	 1.3139550496	 0.3712574478	-0.23146
O	-0.0587436261	-0.0800552568	 0.167626956	-0.25656
C	-1.3192970383	-0.6679337671	-0.1012476964	-0.092366
C	-1.1073310666	-2.1899539342	-0.1617044697	 0.308789
C	-0.2607212867	-2.5810938178	-1.3811184289	-0.418053
O	-0.4578940263	-2.593502314	 1.0426390724	-0.479052
C	-2.463294409	-2.8805624476	-0.204576207	-0.000618
C	-2.6383667446	-4.2421282774	 0.3495835028	-0.248037
N	-3.2307736665	-3.0731059518	 1.0328915789	-0.337466
H	 0.8959115143	 1.6564729669	 0.5889427604	 0.131469
H	-0.4867879925	 1.836469665	-0.5241402754	 0.112606
H	-0.7742456381	 1.5723641224	 1.2163945837	 0.112791
H	-2.0315475176	-0.424878691	 0.7021401838	 0.10193
H	-1.7316358133	-0.2907284825	-1.0502559457	 0.092601
H	 0.674363263	-2.0148182272	-1.3923795395	 0.123636
H	-0.0289342503	-3.6479991759	-1.3414600137	 0.124238
H	-0.7961657708	-2.3756615896	-2.3144191016	 0.108876
H	 0.1945835642	-1.906426493	 1.2288853465	 0.289884
H	-3.0700072081	-2.5881799323	-1.0601634036	 0.082916
H	-3.3537840657	-4.922887818	-0.1028424801	 0.110803
H	-1.7737711366	-4.7110561589	 0.8080394286	 0.127147
H	-2.613357457	-2.8335933187	 1.8078285207	 0.235926
