19
gdb 87516	3.40955	1.37954	1.27735	1.3277	79.59	-0.2187	0.0089	0.2276	1053.3697	0.159551	-385.823725	-385.815973	-385.815029	-385.855682	31.285	
O	 0.1476912537	 1.3542146407	-0.0878189262	-0.427084
C	 0.033718817	-0.039479798	-0.0012391828	 0.036303
C	-0.4241420173	-0.7437419954	 1.267679991	-0.43221
C	-1.2785730822	-0.7419621186	 0.0322916969	 0.394454
C	-2.6884241654	-0.1373811624	-0.2250522603	-0.162345
C	-2.5129470925	-0.7095750125	-1.675483026	-0.203984
C	-1.8208514257	-1.8749789254	-0.8816098877	-0.165809
C	-3.0056393131	-2.3661632472	-0.0322136401	-0.079795
C	-3.5693085051	-1.2342640432	 0.3986231602	-0.080485
H	-0.629919207	 1.7483095986	 0.3201732208	 0.283029
H	 0.8494569389	-0.4961824272	-0.5546474581	 0.105575
H	 0.0832558227	-1.6552747392	 1.5698667521	 0.112696
H	-0.7416197249	-0.117670891	 2.097903624	 0.10719
H	-2.9337174255	 0.9084725639	-0.0340741177	 0.053255
H	-3.4246304583	-0.9562573697	-2.2244763288	 0.091533
H	-1.8170137729	-0.1277987015	-2.2866294873	 0.10604
H	-1.1676046908	-2.604703456	-1.3593424142	 0.062434
H	-3.2791776808	-3.394847269	 0.1538639872	 0.100022
H	-4.4316528208	-1.0807121366	 1.0312916371	 0.09918
