20
gdb 78895	2.95205	1.94827	1.56235	1.8067	80.41	-0.2186	0.0771	0.2957	931.7485	0.173933	-365.961894	-365.955162	-365.954218	-365.99257	28.652	
C	-0.1381636028	 1.5390082616	 0.020192638	-0.409383
C	 0.0222782101	 0.0145717201	 0.0172534965	 0.009212
C	 0.9026961817	-0.4288350295	-1.139385767	-0.024222
C	 2.3271353533	-0.3773105662	-0.7688873692	-0.051476
C	 2.2976971444	-0.6900304524	 0.7364928811	-0.070841
C	 0.7917869563	-0.5237725107	 1.2340465447	-0.056053
C	 0.6601173556	-2.0721688394	 1.2795549846	-0.248425
C	 1.8855858172	-2.1309367248	 0.3619656411	 0.042368
N	 1.6744813942	-1.7096034216	-1.0874504589	-0.190611
H	 0.8335393423	 2.0360470563	 0.1152811457	 0.119168
H	-0.6049956309	 1.8934247232	-0.9050334439	 0.114077
H	-0.7655417317	 1.8617254036	 0.8575461089	 0.112802
H	-0.9708591799	-0.4490962499	-0.0313660111	 0.074488
H	 0.5950435564	-0.1985885806	-2.1554440384	 0.089907
H	 3.1415318795	 0.0280858244	-1.3588981019	 0.089211
H	 3.1167189878	-0.4346096047	 1.4042061394	 0.067596
H	 0.6028632719	 0.031567177	 2.1543325277	 0.063254
H	 0.9023020363	-2.4828829729	 2.2649351228	 0.098135
H	-0.279729087	-2.5092442482	 0.9279127515	 0.09673
H	 2.5643470354	-2.9846339154	 0.3842297483	 0.074064
