20
gdb 80010	2.46196	2.09861	1.65477	0.7398	81.55	-0.1948	0.02	0.2149	926.7939	0.173053	-365.964068	-365.956726	-365.955782	-365.995942	30.33	
C	-0.0389369458	 1.4527199588	-0.0130674356	-0.337954
N	-0.0339953012	-0.0004329589	 0.0089955124	-0.023562
C	-1.2610150653	-0.8045991956	 0.1106958613	-0.110167
C	-0.6570794635	-2.1860426716	-0.1826620392	-0.054309
C	 0.5649547706	-2.1737612946	 0.355096993	-0.054309
C	 0.7333243396	-0.7845463572	 0.9882819538	-0.110167
C	-0.1881502702	-0.8536250972	 2.2514801256	-0.017531
C	-1.1524507505	 0.2730113275	 2.5445556769	-0.32857
C	-1.5687396927	-0.867491655	 1.6439662633	-0.017535
H	 0.5669554777	 1.8808808791	 0.7945010027	 0.120261
H	 0.3743038029	 1.8249002396	-0.9614059832	 0.10733
H	-1.0506869101	 1.8646523315	 0.0832381363	 0.120256
H	-2.0700564391	-0.4670711128	-0.5377497253	 0.065436
H	-1.1800306161	-3.0055453903	-0.6562958618	 0.095792
H	 1.2811448853	-2.9808110694	 0.4267484067	 0.095793
H	 1.7521421766	-0.4286400148	 1.1441525429	 0.065435
H	 0.0851287936	-1.5401081749	 3.0455464019	 0.082211
H	-1.5900571301	 0.2685242271	 3.5391065129	 0.106492
H	-0.99185723	 1.2674893519	 2.1569569018	 0.112886
H	-2.3271894317	-1.5643235731	 1.9840559537	 0.082212
