19
gdb 90164	3.24199	1.48263	1.31215	2.3242	74.1	-0.214	0.0723	0.2863	1030.2072	0.16021	-422.978326	-422.970619	-422.969675	-423.010159	30.949	
O	-0.0420897995	 1.398686548	-0.1969583393	-0.431758
C	 0.0078008423	 0.0085504279	 0.0255706177	 0.047416
C	 0.2675575698	-0.5352058329	 1.4837248081	-0.339153
C	-1.0761983854	-1.2890763196	 1.4073340665	 0.209336
C	-2.2122579006	-0.3044952023	 1.2144829054	-0.393595
C	-1.3499111	-0.6755216305	 0.0472606659	 0.383112
O	-1.7727902746	-1.6235833521	-0.8799308714	-0.296834
C	-2.1069947783	-2.8124955307	-0.1401214013	-0.097012
C	-1.3264408793	-2.7683641937	 1.215357385	-0.321687
H	 0.8567256237	 1.7415740632	-0.1620102248	 0.283293
H	 0.6619199704	-0.4969885282	-0.6964706462	 0.080243
H	 1.1421219937	-1.1867216515	 1.5492835756	 0.100212
H	 0.3304387161	 0.2308919997	 2.2628085449	 0.100297
H	-3.2157651565	-0.7141617119	 1.198261487	 0.119823
H	-2.1372490913	 0.6855566646	 1.6531021403	 0.124614
H	-3.1894050673	-2.8396249099	 0.0437045347	 0.104445
H	-1.8512225438	-3.67661339	-0.7600749876	 0.112492
H	-0.368629028	-3.2919174471	 1.125323383	 0.107374
H	-1.8981420314	-3.260330423	 2.0085964266	 0.107382
