21
gdb 59685	2.14067	1.33951	0.98873	2.0267	84.41	-0.2483	0.0491	0.2974	1292.0017	0.180418	-387.046549	-387.036585	-387.035641	-387.081352	37.389	
C	-0.0325719976	 1.5746138089	-0.0150293299	-0.408974
C	 0.0223432803	 0.0531904865	 0.1343169666	 0.114164
O	 0.658313534	-0.3289635461	 1.3527815016	-0.434541
C	-1.3544973646	-0.5861923947	 0.0222441922	 0.030239
C	-2.1674804873	-0.4716791654	-1.2952497216	-0.239481
C	-2.6717798488	-1.9193881699	-1.0717953522	-0.224739
C	-1.4833772773	-2.1534863357	-0.0753397802	-0.201574
C	-0.3497215349	-2.8271511503	-0.6809896278	 0.358567
C	 0.5732544347	-3.3903131365	-1.2087890859	-0.491939
H	 0.9696966099	 1.998629994	 0.0898567248	 0.124515
H	-0.4335722619	 1.8668479856	-0.9907230695	 0.120552
H	-0.6747914639	 2.0203149306	 0.7558655395	 0.10187
H	 0.6650829189	-0.3651044122	-0.6484001188	 0.099443
H	 0.1610552319	 0.0678779854	 2.0769604156	 0.272327
H	-1.9709721921	-0.2499169095	 0.8667478102	 0.061475
H	-2.911815754	 0.3243508439	-1.3654743588	 0.098279
H	-1.5045210459	-0.4104174209	-2.1638628474	 0.112259
H	-3.629595969	-1.9444735423	-0.5456528309	 0.102976
H	-2.7201173384	-2.5826508225	-1.9362396759	 0.111344
H	-1.7465741962	-2.6509130812	 0.8620161179	 0.098725
H	 1.3954427924	-3.8917863377	-1.6556910997	 0.194516
