19
gdb 38388	4.23048	1.23604	1.19337	1.9066	78.96	-0.2469	0.0882	0.3351	1099.6163	0.160009	-385.812197	-385.804949	-385.804005	-385.843785	29.357	
C	-0.0031524941	 1.4708133586	-0.1079851517	-0.2346
C	 1.561559147	 1.4542913525	-0.0843590514	-0.230841
C	 1.5325037162	-0.0736376255	 0.0601112054	-0.122016
C	-0.0082674872	-0.0561680561	 0.0342510787	-0.13929
C	 0.7776888525	-0.6857329593	-1.0738539829	 0.390519
C	 0.7359277756	-0.3822004338	-2.5994401697	-0.355902
C	 0.6818735561	-1.9049870264	-2.8223576771	 0.037358
O	 1.8498755465	-2.4738636108	-2.221883378	-0.247885
C	 0.7267959346	-2.1727623589	-1.3759994931	-0.095536
H	-0.4215547678	 1.9792429563	 0.7632251037	 0.105011
H	-0.4830731931	 1.8725997559	-1.006664485	 0.095663
H	 2.0753589996	 1.8405050612	-0.9705071406	 0.098907
H	 1.9637016223	 1.9590998925	 0.7964501086	 0.105256
H	 2.2050520822	-0.6627612649	 0.6727931477	 0.087285
H	-0.7128139672	-0.631061616	 0.6255415568	 0.082293
H	-0.1807432943	 0.1316511531	-2.9024657516	 0.108203
H	 1.6045938208	 0.1160521067	-3.0370191977	 0.111491
H	 0.2147559469	-2.4587896495	-3.6280884684	 0.10344
H	 0.3187212435	-2.9837293154	-0.7831637838	 0.100644
