15
gdb 11934	3.2788	1.8279	1.48849	4.2714	67.68	-0.2448	0.0189	0.2637	871.2253	0.118902	-362.648614	-362.641226	-362.640282	-362.680096	27.805	
O	 0.0568164362	 1.4027419181	 0.120291148	-0.438042
C	 0.0053727589	 0.036039786	 0.0632320965	 0.384444
C	-0.2930544245	-0.769115151	-1.1486117431	-0.390529
C	-1.2042055694	-0.9731292467	 0.0626284173	 0.13612
C	-0.4721015233	-1.8245104751	 1.109468547	-0.284773
C	 0.698058538	-0.7885717104	 1.1390169384	-0.26768
C	-2.6024898253	-0.7375430593	-0.0058585119	 0.179526
N	-3.7406379563	-0.5225001824	-0.0493257528	-0.354929
H	-0.2049221118	 1.7766236147	-0.727386281	 0.298883
H	-0.7654035841	-0.2233493876	-1.961400308	 0.132074
H	 0.3521058494	-1.5836171464	-1.475327528	 0.123048
H	-1.0073234356	-1.8842481725	 2.0575034442	 0.13131
H	-0.2145115886	-2.8353790606	 0.7799134292	 0.111339
H	 1.7011725089	-1.1484152876	 0.8910104073	 0.109173
H	 0.7363772574	-0.2481529293	 2.0863940369	 0.130037
