11
gdb 20484	5.23598	2.19599	1.56378	3.5441	52.15	-0.2374	-0.0071	0.2303	718.7169	0.073792	-434.491703	-434.486033	-434.485089	-434.522208	20.563	
C	 0.0229530032	 1.3969851651	-0.1205759192	 0.005103
O	 1.367395448	 1.8769339012	 0.1045364214	-0.282231
C	 2.0230383282	 0.807661021	 0.6306025027	 0.177214
C	 3.1880047221	 0.3706261426	 1.1446451082	-0.061646
O	 3.037523007	-0.9583461757	 1.4434560827	-0.193436
N	 1.7324800047	-1.4001099928	 1.1139349201	-0.254826
C	 1.1893178902	-0.3202818335	 0.6421802778	 0.425324
O	-0.0257065666	-0.0254796491	 0.1337185066	-0.264442
H	-0.6608349157	 1.9036231068	 0.5697468953	 0.140367
H	-0.2524431256	 1.5802715995	-1.1623629578	 0.146911
H	 4.1522962043	 0.796954835	 1.3600650821	 0.16166
