21
gdb 80567	2.36099	1.45018	1.17995	1.9329	78.45	-0.2327	0.0795	0.3122	1167.8101	0.181444	-424.218008	-424.208804	-424.207859	-424.251454	35.574	
C	-0.055070194	 1.5707920767	 0.010339931	-0.419301
C	 0.048113018	 0.0653759685	 0.08408478	-0.10371
C	 1.3540530864	-0.6780583613	-0.1602463981	 0.022313
O	 2.5273976045	 0.0861001498	-0.1150979608	-0.275645
C	 2.9967769003	 0.1088469259	 1.2485938531	 0.16652
C	 3.872469904	 1.3316475629	 1.4470527643	-0.408551
C	 1.7183328466	 0.0339914395	 2.1148020511	-0.331283
C	 0.73233117	-0.704029803	 1.2026586584	 0.34074
O	 0.1503700513	-1.8860104773	 1.6686017006	-0.469175
H	 0.9161193404	 2.0414121551	 0.1776983919	 0.132458
H	-0.3978942597	 1.8796829102	-0.9826996997	 0.120414
H	-0.7644692335	 1.9677596969	 0.7450029118	 0.11007
H	-0.8121926067	-0.4775477939	-0.3030531082	 0.08572
H	 1.3828855389	-1.5504041066	-0.8061266487	 0.099963
H	 3.5919238903	-0.8020248033	 1.42161574	 0.075475
H	 3.2970022663	 2.2511300499	 1.2999634697	 0.121567
H	 4.2870703612	 1.3412041431	 2.460033141	 0.116145
H	 4.703238981	 1.3288227276	 0.7359351703	 0.127739
H	 1.8761832032	-0.5455182735	 3.0273787047	 0.109572
H	 1.3742297115	 1.0348764961	 2.3987814285	 0.09777
H	-0.6480164702	-1.6530968134	 2.154813089	 0.281198
