15
gdb 43907	2.94068	1.43381	1.12002	4.2015	73.06	-0.2283	0.01	0.2383	1066.1159	0.112299	-416.753649	-416.745775	-416.74483	-416.786019	30.145	
O	-0.0067935934	 0.0096044201	 0.0508929997	-0.354105
C	 0.0272048447	 1.2051274613	-0.0112276618	 0.472489
N	-0.96432458	 2.1708123278	-0.0407085418	-0.385159
C	-0.0766737701	 3.3356048911	-0.0564932725	 0.179699
C	 0.4417593687	 3.8077485826	 1.3412067853	-0.215154
N	 1.4354605643	 2.7031783764	 1.3765774116	-0.313935
C	 1.1225505065	 2.307675336	-0.0163487012	-0.248341
C	-0.3304276021	 4.3248214901	-1.0714983996	 0.242086
C	-0.5339010565	 5.1729713234	-1.8994253206	-0.405924
H	-1.9535164344	 2.1097175388	 0.1573120178	 0.253371
H	 0.8850894459	 4.8068285876	 1.2806184872	 0.117611
H	-0.2911912629	 3.7828233497	 2.1538800396	 0.113932
H	 2.3879650426	 3.0219816982	 1.4984076123	 0.234571
H	 1.9300831456	 2.2668732366	-0.7458335595	 0.108814
H	-0.7162286289	 5.9133109401	-2.6389861866	 0.200045
