21
gdb 104127	3.02767	1.10686	0.9855	2.961	78.21	-0.2355	-0.0119	0.2236	1298.0283	0.181045	-424.269671	-424.260199	-424.259254	-424.303961	36.1	
C	-0.2469748983	 1.5796321726	 0.0361902093	-0.410031
C	 0.000724916	 0.0683847866	-0.0154797829	-0.213272
C	 0.833613491	-0.480059013	 1.149720321	 0.373004
O	 0.190535395	-0.2270334603	 2.406738855	-0.48017
C	 0.9968170202	-2.0162865542	 1.1016580838	-0.237564
C	 2.1687811145	-2.3164325813	 2.0468805998	-0.322804
C	 3.0375847387	-1.0541130518	 2.01052251	 0.410979
O	 4.1209787326	-0.9240110675	 2.516651058	-0.314951
C	 2.2891064751	 0.019350163	 1.2096816858	-0.366462
H	 0.6887210568	 2.1482443749	 0.0059928333	 0.120198
H	-0.8550648563	 1.9023686042	-0.8136368864	 0.122187
H	-0.7891171043	 1.8628244781	 0.9448680186	 0.114689
H	-0.9617467736	-0.4574153929	-0.0150932763	 0.103783
H	 0.5018017177	-0.1905719052	-0.9563849971	 0.093381
H	 0.2466659235	 0.7160299223	 2.5909054134	 0.281275
H	 0.0647738411	-2.5053013899	 1.3931750939	 0.11457
H	 1.2343350145	-2.323228425	 0.0774110844	 0.099965
H	 1.8254267301	-2.4479687469	 3.0783603098	 0.145491
H	 2.7587233764	-3.1983021851	 1.7853804517	 0.124315
H	 2.7321664263	 0.0570893359	 0.2053167404	 0.125112
H	 2.4164182931	 1.0088265257	 1.6569077044	 0.116306
