17
gdb 77878	2.07266	1.75852	1.21841	1.9151	70.18	-0.2404	-0.0163	0.2241	1063.9738	0.133725	-458.943856	-458.934843	-458.933899	-458.977323	33.563	
C	-0.0713503563	 1.6560623951	 0.0207125674	-0.421452
C	 0.0570218076	 0.1377003724	-0.0661497333	-0.090762
C	 0.6784061643	-0.5479494755	-1.2946338106	-0.201781
C	 2.1296943501	-0.2795701347	-1.441451334	 0.058228
O	 2.6604792315	 0.9994256475	-1.2333332566	-0.41407
C	 1.8040698743	-1.2481756205	-0.3485633116	 0.236538
O	 2.4020373596	-2.4773447534	-0.3133557388	-0.445291
C	 1.0812329932	-0.6361034384	 0.7999293214	 0.310421
O	 1.0936718327	-0.9462405273	 1.9639986002	-0.344616
H	 0.8818865944	 2.1478244677	-0.1708046502	 0.147989
H	-0.8004382002	 2.0212370158	-0.7102130757	 0.11561
H	-0.4267271704	 1.9410603089	 1.0162634475	 0.125138
H	-0.9161029299	-0.3208089218	 0.1547814085	 0.103129
H	 0.105188724	-1.0161256258	-2.0851935123	 0.114344
H	 2.5731415907	-0.8090982764	-2.2886344914	 0.11061
H	 3.5657071529	 0.8989182012	-0.9189103036	 0.292582
H	 2.0087021316	-2.9683082249	 0.4202169831	 0.303382
