19
gdb 119210	2.0112	1.23799	0.86447	4.1326	77.91	-0.2342	0.0046	0.2387	1400.7729	0.157105	-419.186516	-419.176351	-419.175407	-419.222222	35.602	
C	-0.2284987807	 1.4700671981	-0.0606762641	-0.311734
N	-0.1816009685	 0.0182378022	-0.1682675795	-0.285684
C	 0.9125290522	-0.4532833124	-1.0000664688	-0.219522
C	 0.9033773406	-1.9686296002	-1.1057959145	 0.228098
O	 0.030142989	-2.5734949089	-2.0624182521	-0.2626
C	 1.4360729223	-2.7230792576	-2.2680843332	 0.037744
C	 2.0524411962	-2.0895217622	-3.4877296245	-0.431427
C	 0.935671747	-2.6424414797	 0.1869944157	 0.257696
N	 0.9796925472	-3.1355472238	 1.2318053321	-0.341021
H	 0.7116989708	 1.9286342653	 0.2954672003	 0.096914
H	-0.4572899236	 1.9033591746	-1.0411362713	 0.12478
H	-1.0303304754	 1.7570464983	 0.6246620354	 0.127714
H	-0.1070323014	-0.3905700345	 0.7580896676	 0.235635
H	 0.7816764837	-0.0398180384	-2.0038911631	 0.120047
H	 1.9127343939	-0.1357544307	-0.6439494138	 0.094045
H	 1.7984118697	-3.7287078428	-2.0483830808	 0.112218
H	 1.6555037965	-1.0923185679	-3.681916206	 0.137395
H	 3.1389540362	-2.0236655681	-3.3707093086	 0.136382
H	 1.8474327545	-2.7125694811	-4.364087391	 0.143318
