18
gdb 30856	2.8688	1.22615	0.91168	1.9188	76.84	-0.186	0.0372	0.2232	1300.7667	0.147965	-435.30362	-435.293996	-435.293052	-435.339072	34.256	
C	 0.4529002025	 0.9424702085	-0.4819934994	-0.324623
N	-0.3277245073	 0.4510070423	 0.6614253302	-0.400163
C	-1.3208862148	-0.4909328932	 0.351902307	 0.165467
C	-1.329939435	-1.7792085698	-0.1244803394	 0.290815
O	-0.2425895382	-2.5292874493	-0.4310873118	-0.448744
N	-2.5968507682	-2.2628982587	-0.2610060627	-0.380833
C	-3.3988243242	-1.2797887111	 0.1256148937	 0.337877
C	-4.8893190269	-1.3394996205	 0.1490408852	-0.496979
N	-2.67811329	-0.1952508798	 0.5013113209	-0.307616
H	 1.1956502715	 1.6618420698	-0.1229563194	 0.11321
H	 0.9707992041	 0.1466892932	-1.0358572989	 0.12431
H	-0.2140652178	 1.462226828	-1.1761650951	 0.12312
H	 0.2967095118	 0.0989922884	 1.3783382888	 0.233798
H	-0.5832556743	-3.3785742632	-0.7366936733	 0.296964
H	-5.2910408197	-1.175862757	 1.1559141467	 0.130011
H	-5.340858642	-0.590041139	-0.5116931997	 0.13058
H	-5.2035782662	-2.3278448978	-0.1891326665	 0.153815
H	-3.0245690951	 0.6829095392	 0.8506358936	 0.258992
