21
gdb 111630	2.13284	1.49677	1.21114	1.2487	83.83	-0.2233	0.0232	0.2465	1165.145	0.182577	-387.084691	-387.075681	-387.074737	-387.11829	34.607	
C	 0.215713954	 1.4471059901	-0.105922457	-0.487134
C	 0.0886075902	-0.0525609903	 0.0316172965	 0.319159
C	-1.1749167761	-0.7204421056	-0.407230316	-0.133177
C	-1.5288877953	-1.7247332528	 0.3977943725	-0.079853
C	-0.5582795222	-1.893772664	 1.5484481223	-0.282254
C	 0.5181311416	-0.8422343661	 1.2674947484	-0.127339
C	 1.3392999414	-0.9224203369	-0.0001957336	-0.036642
C	 1.4976524174	-2.1631481377	-0.8344539356	-0.108991
O	 1.8686569809	-1.7548383442	-2.1487162996	-0.425628
H	 1.151644531	 1.8049994198	 0.3346256939	 0.113884
H	 0.2133217769	 1.747514389	-1.160177576	 0.122614
H	-0.6109912233	 1.9662717216	 0.3924110415	 0.114418
H	-1.7118131685	-0.4080764309	-1.2966487243	 0.090632
H	-2.3849067788	-2.3750923216	 0.2545369799	 0.090401
H	-1.0454064803	-1.7109214672	 2.5157017478	 0.106386
H	-0.1562152756	-2.9145717696	 1.6022948043	 0.106223
H	 0.9684176781	-0.335229534	 2.1140186801	 0.079527
H	 2.2596090318	-0.3428354594	 0.0398808692	 0.085543
H	 2.2780762555	-2.8008013899	-0.3868857942	 0.079784
H	 0.5660936443	-2.7439857539	-0.8520652309	 0.089709
H	 1.999069497	-2.5473063464	-2.6779538391	 0.282738
