21
gdb 114233	3.27769	0.92694	0.8721	2.8142	79.24	-0.2538	0.073	0.3268	1430.9066	0.180582	-424.196707	-424.187092	-424.186148	-424.231518	35.728	
C	-0.346669868	 1.4387042611	 0.5510145066	-0.415437
C	-0.208993116	-0.0573574566	 0.4467175739	-0.025743
O	 0.9359334973	-0.5533740084	-0.2702753804	-0.297187
C	 0.850656018	-0.8177942769	 1.119293897	 0.458301
C	 1.8711866334	-0.3481268023	 2.1622071493	-0.34731
C	 1.5592372985	-1.6467353683	 2.9704541353	 0.019397
C	 0.6740637576	-1.4065901473	 4.1798401824	-0.079166
O	 0.2719729444	-2.6696639097	 4.6872610627	-0.420399
C	 0.7976398279	-2.218367836	 1.7341123709	-0.325405
H	 0.6067402211	 1.9019646983	 0.8174799547	 0.127153
H	-0.6764454808	 1.8623472009	-0.4034415698	 0.129814
H	-1.0907891056	 1.7050200228	 1.3101451246	 0.117388
H	-1.1313624118	-0.5941157838	 0.212964725	 0.086792
H	 2.886907421	-0.3331028921	 1.758388449	 0.114951
H	 1.6789194852	 0.6064418323	 2.6624187033	 0.098774
H	 2.4327652226	-2.2257053092	 3.2774746677	 0.080738
H	 1.2313965025	-0.8290465594	 4.9356672437	 0.085701
H	-0.1990701339	-0.8000328496	 3.8841998407	 0.081267
H	-0.3132465969	-2.5231244212	 5.4360156228	 0.2869
H	-0.1846302817	-2.6560526701	 1.9272044774	 0.11147
H	 1.3963274255	-2.9313007546	 1.1605545132	 0.112002
