15
gdb 97869	4.57333	0.48172	0.44761	1.626	91.92	-0.2447	-0.0159	0.2288	2316.7751	0.108908	-383.390917	-383.380653	-383.379709	-383.428438	34.888	
O	 0.1088132156	 1.069995309	 0.9266635584	-0.408437
C	-0.0337879533	 0.1943043068	-0.1845412052	-0.213641
C	-1.3707890866	-0.3859234569	-0.1817890641	 0.111518
C	-2.4672975397	-0.8781023758	-0.1964949306	 0.080734
C	-3.8071823201	-1.4676061395	-0.2059719987	-0.533316
C	-3.8087104107	-2.9216176155	-0.0558839531	 0.433445
C	-3.8200849511	-4.1243247136	 0.0647480629	-0.28254
C	-3.8319121197	-5.4783937576	 0.2011922282	 0.297014
C	-3.843787076	-6.6796299549	 0.3218909612	-0.546575
H	 1.0048011786	 1.421109262	 0.9015537568	 0.291073
H	 0.1245385114	 0.7272974836	-1.1363643643	 0.117727
H	 0.7066082275	-0.6214005586	-0.1498528015	 0.121693
H	-4.4050617127	-1.0200182663	 0.600832732	 0.172301
H	-4.3248594817	-1.2000824553	-1.1382229018	 0.166948
H	-3.8533463814	-7.7358132875	 0.4288312197	 0.192057
