16
gdb 41131	2.96769	2.30245	1.72771	1.3535	72.17	-0.2206	-0.017	0.2036	808.7807	0.125588	-400.579398	-400.573384	-400.572439	-400.609248	26.041	
C	 0.0428362064	 1.4795681377	-0.1762626775	-0.20098
O	 1.5083335157	 1.4662224944	 0.0567752739	-0.335197
C	 1.3581780433	 0.2452003743	 0.8234763314	 0.311805
C	 1.1685386069	 0.2718159735	 2.3179831965	-0.186394
C	 0.2625484398	-0.6914128729	 2.5219511209	-0.090082
C	-0.0355051837	-1.2479814782	 1.1374495316	-0.141525
C	 1.3457795588	-1.2725247712	 0.3238424925	-0.088504
N	 0.616055798	-0.924505641	-0.9296783199	-0.357737
C	 0.0247191196	-0.0265009415	 0.1344148877	 0.217484
H	-0.4565425939	 2.1156502762	 0.5612473587	 0.127276
H	-0.2053013965	 1.7890513033	-1.195005265	 0.127508
H	 1.6689791848	 0.9209437495	 3.022059237	 0.116388
H	-0.1583306768	-1.0537328816	 3.4490335864	 0.112587
H	-0.7367246839	-2.0682029764	 0.9912562633	 0.090027
H	 2.1238042431	-2.0455388873	 0.3581479615	 0.080667
H	 1.2410527482	-0.3601016886	-1.5141250491	 0.216678
