15
gdb 2880	6.59349	1.88541	1.58293	0.8494	68.09	-0.2439	0.0193	0.2632	782.1877	0.12556	-271.360631	-271.354023	-271.353079	-271.391083	25.015	
C	-0.0657027897	-1.2411070582	-0.0797093042	-0.469934
C	-0.0267013253	-0.0400257474	-0.0387972534	 0.315339
C	 0.0224186589	 1.4167781239	 0.0169640082	-0.184192
C	-0.6205302516	 2.0235329707	 1.3044930508	-0.215453
C	 0.2236174397	 3.2796954513	 1.628868169	-0.258118
C	 1.5265165545	 3.007592948	 0.9147039149	-0.067483
C	 1.428336778	 2.0025175872	 0.0495295316	-0.059582
H	-0.0999827476	-2.3016354074	-0.1169669474	 0.192881
H	-0.4980660035	 1.8027762113	-0.8736242522	 0.108136
H	-1.683991315	 2.2346891517	 1.1735218008	 0.104613
H	-0.5241611629	 1.2949717405	 2.1136921935	 0.119483
H	-0.2431397222	 4.1973422311	 1.2432833816	 0.107907
H	 0.3485179121	 3.42975916	 2.7068979504	 0.10682
H	 2.4179824579	 3.6040497169	 1.0752340015	 0.096141
H	 2.2120173368	 1.6362627004	-0.6025946552	 0.103442
