15
gdb 26786	3.64621	1.13326	0.86924	2.6553	83.26	-0.1937	-0.0157	0.1781	1268.09	0.112054	-416.825935	-416.81723	-416.816286	-416.859208	32.116	
C	-0.0286343332	 1.5320009778	 0.1402546522	-0.520509
C	 0.0133404304	 0.051218572	-0.0019935791	 0.218858
C	 0.0550306673	-0.770999601	-1.1093869478	 0.271072
O	 0.0672186862	-0.3591883785	-2.3975000645	-0.446553
N	 0.083940993	-2.0845185095	-0.7770694046	-0.392505
C	 0.0607396098	-2.1090486715	 0.5536041278	 0.177291
N	 0.0179193886	-0.8379700703	 1.0548303724	-0.351473
C	 0.076111037	-3.248018582	 1.3845815618	 0.265505
C	 0.0882962661	-4.2026805584	 2.1192232613	-0.408216
H	 0.8352955718	 1.9228589908	 0.692371698	 0.130786
H	-0.0206187764	 1.9854920448	-0.8531477352	 0.157734
H	-0.9334546847	 1.8762516513	 0.6567790565	 0.130852
H	 0.0983490997	-1.1584950097	-2.9369430664	 0.30245
H	-0.005952846	-0.60014429	 2.0326348855	 0.269196
H	 0.0995008206	-5.0533535457	 2.754480092	 0.195512
