17
gdb 69563	2.69925	1.58276	1.37523	0.7056	67.36	-0.2387	0.057	0.2957	988.039	0.13459	-458.886383	-458.878573	-458.877629	-458.918088	31.348	
O	-0.0655696985	 1.4301509206	 0.0717227428	-0.460851
C	-0.0087128972	 0.0500739926	 0.0504136539	 0.382744
C	-0.297533861	-0.7757861956	-1.1633118285	-0.364045
C	-1.1747368341	-0.9427198002	 0.0602593938	-0.154618
C	-0.4940034715	-1.7695751296	 1.1687785368	 0.377587
O	-1.3513892509	-1.9710334364	 2.2435195924	-0.474408
C	 0.5442192835	-2.8528243637	 0.7779889638	-0.16483
O	 1.5876375426	-1.8517289255	 0.6632428857	-0.295014
C	 0.7096325613	-0.7968511914	 1.1327216238	-0.057254
H	 0.6104480471	 1.7715582314	-0.5245803542	 0.288574
H	-0.783153666	-0.2206755212	-1.9602449826	 0.11685
H	 0.388237379	-1.5470869766	-1.4977200163	 0.128705
H	-2.2430810243	-0.7705718865	 0.0288205408	 0.106408
H	-0.8394577137	-2.3101905448	 2.9861849368	 0.284189
H	 0.755871947	-3.5574786196	 1.595065006	 0.091644
H	 0.3917134935	-3.4144785277	-0.1501077291	 0.109591
H	 1.0878391931	-0.2465354557	 1.9978608141	 0.084731
