16
gdb 28686	3.50262	1.03142	0.84011	2.9911	77.39	-0.192	0.027	0.219	1325.5929	0.125933	-396.977682	-396.969031	-396.968087	-397.011902	31.506	
N	 0.2833683606	 1.3266787586	-0.1833701496	-0.609649
C	 0.0005889098	-0.0438335908	-0.0454860271	 0.293676
C	-1.1360763191	-0.7318774666	 0.3190678951	-0.20846
C	-0.8004105975	-2.1174043833	 0.3478173078	-0.225197
C	 0.5214470949	-2.2365188587	-0.0025228364	 0.311052
C	 1.3976766022	-3.4487049415	-0.1057147498	-0.456384
C	 2.1707336036	-3.4954235607	-1.3529459638	 0.25523
N	 2.7958627476	-3.49275464	-2.324915202	-0.31229
N	 1.0040264736	-0.9620312556	-0.2268730586	-0.319705
H	 0.4567508258	 1.5943120016	-1.1480819188	 0.24797
H	-0.4873292106	 1.8857524611	 0.1602478989	 0.250035
H	-2.1008188588	-0.2930323709	 0.5220051649	 0.087018
H	-1.4617211875	-2.9368718972	 0.5864926853	 0.095157
H	 2.1136706779	-3.5164964381	 0.7265268901	 0.157665
H	 0.771162822	-4.3440320528	-0.0456072798	 0.167815
H	 1.9495209956	-0.7259922452	-0.4781430062	 0.266067
