15
gdb 12464	3.75108	1.98123	1.36756	3.1718	67.17	-0.2488	-0.0352	0.2136	868.6869	0.120979	-399.804128	-399.797389	-399.796445	-399.835282	25.3	
N	 0.0147264413	 0.9464369726	 1.0828010782	-0.507505
C	 0.0739305381	 0.1283941736	 0.1088159367	 0.355468
O	 1.2862281889	-0.3187776645	-0.337543207	-0.246103
C	 1.3969783818	-0.9989403037	-1.5754622024	 0.000712
O	 0.8119334901	-2.2595908199	-1.5565585624	-0.223415
C	-0.5299275956	-2.2897487401	-2.0008218956	-0.142136
C	-1.4565332322	-1.3107585342	-1.3522740558	-0.093255
C	-1.1923915935	-0.320265561	-0.4947401529	-0.084972
H	 0.9596891074	 1.1701387663	 1.4018635372	 0.222111
H	 0.9865805882	-0.3792886398	-2.3863098563	 0.103045
H	 2.471362589	-1.1355998253	-1.7109221704	 0.129212
H	-0.5737507311	-2.1457712142	-3.0957735942	 0.113581
H	-0.8837261574	-3.3104484537	-1.8122463672	 0.137
H	-2.4950345361	-1.4462659244	-1.650489295	 0.110624
H	-2.0213227587	 0.2706819485	-0.1209834728	 0.125633
