21
gdb 72685	2.23	1.47255	1.41965	2.8151	83.12	-0.2414	-0.0257	0.2157	1097.3322	0.181471	-387.086319	-387.077277	-387.076333	-387.120784	34.132	
C	-0.2464410619	 1.5116542335	 0.1798902007	-0.495651
C	-0.0081646666	 0.0260652272	 0.0292012627	 0.327814
C	-1.2404347694	-0.9136502744	 0.0696775858	-0.270449
C	-0.5409541907	-1.8301947776	 1.113626906	-0.293228
C	 0.6920692908	-0.897051412	 1.1588438218	 0.234598
C	 1.8206945668	-1.2181112915	 0.1502476309	-0.298042
C	 1.091149653	-0.4302279187	-0.9731494152	-0.274804
C	 1.0656304078	-0.3127504857	 2.4770329835	 0.062725
O	 0.3957750937	-0.3768604249	 3.4810439747	-0.261744
H	 0.6912103236	 2.0694400915	 0.2796550327	 0.114721
H	-0.7684317174	 1.9003721393	-0.703972	 0.120996
H	-0.8667628379	 1.7320815635	 1.0551708562	 0.12817
H	-2.1332168519	-0.4224537539	 0.4661468895	 0.105307
H	-1.5010166903	-1.3748052798	-0.8875486828	 0.096702
H	-1.0504014936	-1.873059567	 2.0775048449	 0.130082
H	-0.3228341421	-2.8487115684	 0.7820847512	 0.098049
H	 2.7732964489	-0.7594214405	 0.4350865457	 0.104002
H	 1.99665442	-2.282649583	-0.0261130386	 0.104776
H	 0.7176879654	-1.0344469264	-1.8046899387	 0.101119
H	 1.6768474434	 0.3932275149	-1.3902678138	 0.102361
H	 2.0295674383	 0.2503000639	 2.4764407429	 0.062494
