19
gdb 42888	2.23205	1.76219	1.52471	1.7662	74.29	-0.2488	-0.0263	0.2225	991.3772	0.16126	-423.043347	-423.035885	-423.03494	-423.075038	29.772	
O	-0.1268417295	 0.0112939209	 0.2523510434	-0.295157
C	-0.0364362671	 1.1913460503	 0.1006610611	 0.373216
C	-1.0116690504	 2.3679638103	-0.0482968568	-0.010364
C	-1.5801288554	 2.8867977252	 1.2802391113	-0.230434
C	-0.513561928	 3.5352770373	 2.184522112	-0.183239
C	 0.7572286183	 2.6951794036	 2.4240857629	-0.219716
C	 1.7390246104	 2.6361601956	 1.2348809867	-0.204368
C	 1.0954756009	 2.2116401689	-0.0859800383	-0.015742
O	 0.0965626469	 3.1718774106	-0.5312769766	-0.298816
H	-1.7901547538	 2.23916304	-0.8085926046	 0.103916
H	-2.3681630783	 3.6197531338	 1.0762005156	 0.110442
H	-2.0612719064	 2.0416777798	 1.7901033824	 0.116539
H	-0.226193707	 4.4991815374	 1.7514378324	 0.113433
H	-0.9821385534	 3.7527170713	 3.1506334603	 0.096619
H	 1.2959293967	 3.1114523335	 3.2822997927	 0.1006
H	 0.4729879442	 1.6750695503	 2.7150767175	 0.114092
H	 2.191358	 3.622400287	 1.0740949759	 0.115909
H	 2.5553018362	 1.9410964131	 1.4647769591	 0.110706
H	 1.8372529557	 2.004102231	-0.8645542569	 0.102365
