20
gdb 87789	4.08231	0.98466	0.92077	1.5717	80.34	-0.2421	0.0649	0.3071	1346.8078	0.169681	-403.093953	-403.085207	-403.084263	-403.127825	33.542	
C	 0.1760054149	 1.5155391583	-0.3205412567	-0.416714
C	 0.0724320117	 0.0358594391	-0.0613145914	-0.019352
O	 1.3105149125	-0.6944349285	 0.035145778	-0.294922
C	 0.4996448953	-0.5918689872	 1.1919312971	 0.435046
C	 0.9598141097	 0.0616095003	 2.5059225688	-0.398917
C	 0.1905554456	-1.0504907307	 3.2441499335	 0.346184
C	 0.4026555563	-1.5640338124	 4.6107629542	-0.306464
N	-0.8414241367	-0.8427598204	 4.2575006725	-0.353633
C	-0.0917287333	-1.8005588231	 1.9318644908	-0.373967
H	 0.939945924	 1.9723460255	 0.3138328825	 0.126536
H	 0.4427012143	 1.7051396004	-1.3655049727	 0.131046
H	-0.7833032059	 2.0075364653	-0.1251572551	 0.121651
H	-0.6927352872	-0.4859984516	-0.6402064294	 0.08991
H	 2.0451949556	 0.0184244855	 2.6390567863	 0.118884
H	 0.620423579	 1.0869532081	 2.6867627442	 0.104344
H	 0.2699357996	-2.6214928171	 4.8249217031	 0.119805
H	 1.1374912733	-1.0645461581	 5.2380996607	 0.111076
H	-0.7964373318	 0.1105968176	 4.6112775912	 0.227696
H	-1.1423257941	-2.0320459447	 1.7402337855	 0.116171
H	 0.511045487	-2.7043356064	 1.800086487	 0.115621
