11
gdb 4704	6.75649	1.39924	1.15918	0.4061	64.2	-0.2209	-0.0229	0.1979	931.4661	0.072311	-397.403167	-397.396604	-397.395659	-397.433838	24.435	
O	-0.17148933	 1.2538424443	 0.0118245356	-0.394957
C	 0.043354076	-0.055054194	 0.0026825425	 0.471128
N	 1.1786085742	-0.6838497052	-0.0069859844	-0.366939
C	 0.7981998107	-2.0167594635	-0.01338168	-0.200483
C	-0.5590117762	-2.1195443484	-0.0067952758	 0.181415
O	-1.0554340638	-0.8119261533	 0.0036320731	-0.195396
C	-1.466155504	-3.1848698786	-0.0086163168	 0.251954
C	-2.2360636356	-4.1117066004	-0.010324995	-0.410359
H	 0.6958407721	 1.6799190563	 0.0102324231	 0.326388
H	 1.520536638	-2.8168069016	-0.0220941449	 0.138154
H	-2.9144157015	-4.9285275057	-0.0118487275	 0.199096
