17
gdb 66601	3.00704	2.02044	1.8775	1.704	76.72	-0.1967	-0.0752	0.1215	822.7905	0.136335	-384.533214	-384.526788	-384.525844	-384.563307	27.995	
O	 0.2507441996	 1.3737358263	-0.1964748273	-0.487331
C	 0.0608791355	 0.0118525716	-0.0377487594	 0.413613
C	 1.0713079514	-0.9369496332	-0.6179875645	-0.10731
C	-0.3387762071	-0.9155113237	-1.1712131683	-0.166104
C	-0.7689070811	-2.1187102474	-0.3236962433	-0.095866
C	-1.366645179	-1.5812009679	 0.9440535868	-0.071389
C	-0.4603006145	-0.5959253434	 1.2781121056	-0.118557
C	 0.6952042377	-1.5350196248	 1.7478574688	-0.251407
C	 0.8118816468	-2.1655985626	 0.2763821853	-0.052195
H	-0.6068596081	 1.8004652675	-0.0892451328	 0.281506
H	 2.0063894145	-0.6172360759	-1.0601757049	 0.094315
H	-0.7057031182	-0.616861825	-2.1439351649	 0.090331
H	-1.1714758669	-3.0144760107	-0.794324908	 0.076459
H	-1.7460497782	-2.2768601783	 1.6921761955	 0.108078
H	 1.6260547037	-1.0320332752	 2.0315726105	 0.109256
H	 0.4144168586	-2.2551503837	 2.5187318138	 0.106794
H	 1.4376932053	-3.0484516936	 0.1173767773	 0.06981
