23
gdb 103956	2.46358	1.342	1.08005	1.2558	85.64	-0.2461	0.0733	0.3195	1243.7752	0.204938	-388.257436	-388.247752	-388.246808	-388.291338	37.575	
C	 0.21621879	 1.6609537154	-0.5148104189	-0.423692
C	 0.3080331853	 0.1715724919	-0.2441311961	-0.003185
C	 1.5385194326	-0.6778619818	-0.3822665925	-0.069032
C	 2.7842136299	 0.0152374405	 0.1926430543	-0.287571
C	 2.1170019978	 0.0140333971	 1.6128870976	 0.346553
C	 2.7643663544	-1.0436812761	 2.5142883287	-0.437251
C	 2.0160150628	 1.3385764224	 2.3622258257	-0.140296
O	 3.3368610942	 1.7643598348	 2.6842793349	-0.426994
C	 0.8289649594	-0.5491763476	 0.9779598242	-0.130849
H	 1.1579765453	 2.1852814697	-0.3419664258	 0.124258
H	-0.0584364422	 1.8311340826	-1.5620462799	 0.11152
H	-0.5509869124	 2.1349173954	 0.1078488129	 0.113528
H	-0.5682670046	-0.3568515476	-0.6199194159	 0.083511
H	 1.5681920039	-1.534242429	-1.0460064712	 0.078969
H	 3.6833471482	-0.6029984043	 0.1591803511	 0.100892
H	 3.0319581972	 0.9935920521	-0.2299849614	 0.096355
H	 3.7587879953	-0.7196370099	 2.8306070356	 0.13184
H	 2.1590916493	-1.2117303276	 3.4135577796	 0.101872
H	 2.8546465821	-1.9997330699	 1.989166491	 0.107403
H	 1.5039071293	 2.0947487228	 1.7555174153	 0.084585
H	 1.4131888788	 1.1879927374	 3.2741393275	 0.07812
H	 3.2769056786	 2.6032206454	 3.1497422419	 0.286104
H	 0.2077708149	-1.2856208335	 1.4789310114	 0.07336
