17
gdb 106270	3.03333	1.27385	1.09161	2.0401	68.77	-0.2432	0.0002	0.2434	1130.5116	0.134382	-458.923024	-458.914093	-458.913149	-458.957066	32.598	
O	-0.0412907853	 1.400699058	 0.0344517409	-0.41626
C	-0.0239667922	-0.0111444122	-0.1038710575	-0.201939
C	-1.4143651707	-0.5799085179	-0.0633683099	 0.172679
C	-2.6078292121	-0.3467091288	-1.0608009198	-0.302351
C	-3.2397222675	-1.2360295222	 0.0598038429	 0.279478
O	-4.5310604791	-1.6904437457	 0.0771505209	-0.460659
C	-1.8900856232	-2.0690053004	 0.0112121722	-0.350171
C	-2.4700971865	-0.3269695401	 1.0239813199	 0.35485
O	-2.6006074343	 0.2616963876	 2.0575020822	-0.357111
H	-0.4310992566	 1.6007723973	 0.8932063537	 0.299057
H	 0.4588724222	-0.219961568	-1.06419742	 0.118837
H	 0.5870694253	-0.4890626321	 0.6784088365	 0.099603
H	-2.9819496515	 0.6716458409	-1.1721920904	 0.123248
H	-2.4914632187	-0.8545607953	-2.0209933553	 0.113139
H	-4.8255608024	-1.745060164	 0.9934294579	 0.301644
H	-1.7588390617	-2.6345594928	-0.9138865813	 0.115112
H	-1.6110084658	-2.6475638842	 0.8943499069	 0.110843
