16
gdb 22189	1.98341	0.98387	0.69072	2.3332	82.27	-0.2361	-0.0429	0.1931	1598.5106	0.120057	-437.828935	-437.818585	-437.81764	-437.866722	34.583	
C	-0.414577537	 1.5847889791	-0.1558360762	-0.505269
C	-0.2600053112	 0.1401530659	-0.1276639766	 0.181218
C	-0.1112029641	-1.0568515127	-0.1043625256	-0.021808
C	-0.0286931225	-2.4751922565	-0.0672453931	 0.159943
C	-1.3109483997	-3.2693142479	 0.0917438782	-0.371634
C	-1.5350896431	-3.6809105866	 1.5428240188	 0.163456
O	-2.5708857027	-3.5226194382	 2.1318323113	-0.230587
N	 1.1434466834	-3.0055468794	-0.1479624945	-0.157122
O	 1.0759725683	-4.4002091975	-0.0811284925	-0.39497
H	 0.2646514279	 2.0672649791	 0.5554148566	 0.159224
H	-0.1930941797	 1.9853942498	-1.1513460106	 0.157841
H	-1.4372414293	 1.8781318089	 0.1036390673	 0.157972
H	-2.1738268683	-2.6959730822	-0.2475225841	 0.133037
H	-1.2218170281	-4.1913982295	-0.495231509	 0.15349
H	-0.6546425618	-4.1563551407	 2.0231918918	 0.099688
H	 1.9991063578	-4.6545377217	-0.1875166618	 0.315519
