18
gdb 91590	3.03618	1.17251	0.98885	3.4095	74.71	-0.2545	0.0246	0.2791	1232.4064	0.14656	-439.043784	-439.034961	-439.034017	-439.078001	32.479	
O	 0.0587926555	 1.4137342445	-0.1080964719	-0.43419
C	 0.1012600432	 0.0187860578	 0.0915357907	 0.036685
C	 0.1690214833	-0.5607588687	 1.5536448824	-0.27026
C	-1.1476309604	-1.2999384609	 1.2853858622	-0.141726
C	-2.2246685022	-0.2858958376	 0.9779679339	-0.334636
C	-1.240934415	-0.6656861074	-0.0925329882	 0.435058
O	-1.634087946	-1.2697972796	-1.2834019324	-0.230993
C	-2.224517989	-0.4496556874	-2.1901165109	 0.100389
N	-2.5789981097	-0.9131730252	-3.307578693	-0.443445
H	 0.9547780461	 1.7605052495	-0.0518310189	 0.288084
H	 0.8566750665	-0.4578287009	-0.5461618441	 0.088222
H	 1.0312465323	-1.2111107394	 1.7139014386	 0.107889
H	 0.1266014351	 0.1930500169	 2.3452874275	 0.103393
H	-1.3808121336	-2.3169018347	 1.5708837034	 0.107354
H	-3.2131796193	-0.7062444606	 0.8244252988	 0.126009
H	-2.2066487989	 0.7007247014	 1.4324333248	 0.123555
H	-2.3311579177	 0.5810443343	-1.8325547571	 0.108784
H	-3.0041447202	-0.1758557321	-3.8662950857	 0.229829
