22
gdb 11963	2.67558	1.90624	1.68392	0.1259	81.65	-0.2607	0.0851	0.3458	954.6655	0.199449	-313.055637	-313.047005	-313.04606	-313.088078	34.049	
C	-0.4500248635	 1.4532165112	 0.1892075842	-0.450469
C	-0.0158378149	 0.001391842	 0.0136566155	 0.26757
C	-1.1765710699	-0.8586209914	-0.4952682131	-0.43012
C	 1.2895767637	-0.2177401509	-0.8235434241	-0.253543
C	 1.8518240616	-1.1451346317	 0.290960667	-0.30509
C	 0.7247235457	-0.6584234517	 1.208915873	 0.366213
C	 0.9227842865	-0.0682503647	 2.5755342926	-0.328193
C	 0.1459297361	-1.3545057272	 2.4037482066	-0.330856
H	 0.3738406414	 2.0749466009	 0.553259463	 0.111389
H	-0.7934366316	 1.873064453	-0.7636329072	 0.109404
H	-1.2787047932	 1.5420204869	 0.9023638991	 0.107783
H	-1.544187814	-0.4853090122	-1.4582419538	 0.107051
H	-0.8726611013	-1.9014427003	-0.6328008956	 0.110996
H	-2.0163137045	-0.8487882294	 0.2088329678	 0.108189
H	 1.1561247951	-0.6631259596	-1.8129658757	 0.091134
H	 1.8689088905	 0.7030894581	-0.9326374422	 0.095437
H	 1.7764939604	-2.2083473022	 0.0415194126	 0.098635
H	 2.8739241214	-0.942968746	 0.6228974248	 0.095596
H	 1.915043186	-0.1212170758	 3.0136395854	 0.106113
H	 0.3683811675	 0.8259885136	 2.8422142692	 0.108958
H	-0.929182593	-1.319389337	 2.5524274638	 0.107204
H	 0.6063541597	-2.2831133756	 2.7276185972	 0.106601
