17
gdb 63620	2.66042	1.14577	0.96393	2.0438	71.6	-0.2535	-0.1038	0.1497	1269.061	0.131462	-458.966042	-458.956398	-458.955453	-459.001	33.981	
C	 0.5058327421	 1.4899193543	-0.4074172466	-0.468832
C	 0.0158361125	 0.1252083231	 0.017557244	 0.390712
C	-1.3380346899	-0.2891813263	-0.5186252449	-0.446455
O	 1.000225215	-0.9037417333	 0.0319625236	-0.267525
C	 0.4734977974	-0.5092587135	 1.2964634449	-0.116984
C	 1.3997407754	 0.177762863	 2.2414440677	 0.278532
O	 2.446845963	 0.7092173292	 1.9470675509	-0.286792
C	 0.9576680271	 0.2163144761	 3.7110370734	 0.088419
O	-0.0606042403	-0.2771657668	 4.1195308427	-0.22002
H	 1.4887381224	 1.7050835594	 0.0113885226	 0.162819
H	 0.5802443007	 1.5225486164	-1.4997268977	 0.131639
H	-0.2008095547	 2.2673385197	-0.0989767626	 0.122927
H	-1.3280273099	-0.265336469	-1.6136759034	 0.133442
H	-1.5939349346	-1.3016147173	-0.1988979478	 0.134173
H	-2.1178048957	 0.397928819	-0.1752337449	 0.130265
H	-0.2032427149	-1.2172576563	 1.7702161024	 0.119579
H	 1.6829942446	 0.7548818922	 4.3565622555	 0.114101
