14
gdb 61349	3.21864	0.93548	0.80619	4.0089	70.1	-0.317	-0.0739	0.243	1370.3953	0.099484	-432.884408	-432.875332	-432.874388	-432.919129	31.241	
C	-0.0189062757	 1.5673073512	 0.0149384326	-0.407793
C	-0.0097903598	 0.0385804311	 0.0083454326	-0.026293
O	 0.5973148558	-0.4670509262	-1.2047899067	-0.238255
C	-0.2225870138	-0.6393668758	-2.2532247658	 0.340322
N	-1.4586266845	-0.3661462384	-2.2398076236	-0.51647
C	 0.5022346858	-1.1753520312	-3.3906464034	 0.263688
N	 1.0150436306	-1.5969842455	-4.3362773643	-0.30446
C	 0.7761792731	-0.5145658275	 1.1171532022	 0.297206
N	 1.3679697738	-0.9225667534	 2.0204210664	-0.301983
H	 0.9952537764	 1.9540201708	-0.1055019897	 0.153425
H	-0.6509654093	 1.9266531949	-0.79876257	 0.155947
H	-0.4244858741	 1.9285133802	 0.9633518206	 0.151666
H	-1.0323019233	-0.3456339929	 0.0676806077	 0.170585
H	-1.908239075	-0.5813283872	-3.1259489387	 0.262415
