17
gdb 15882	2.8162	1.86948	1.24408	4.5353	64.89	-0.2553	0.026	0.2813	976.4901	0.142212	-401.020645	-401.012345	-401.011401	-401.053476	30.252	
C	-0.0833113442	 1.565726651	-0.2158584171	-0.400599
C	 0.0013800846	 0.0603692278	-0.0036197337	 0.038072
N	 1.0876282525	-0.620506338	-0.7361724127	-0.33887
C	 1.7395770281	-1.0802250483	 0.3744169182	 0.449768
O	 2.785943183	-1.6584374488	 0.550493064	-0.38716
C	 0.6639009236	-0.493358758	 1.3074973406	-0.192016
C	 1.2686251119	 0.4232498696	 2.3717993815	-0.07532
O	 2.0793492068	-0.3387685688	 3.2439245287	-0.424564
H	 0.8812433676	 2.0528783957	-0.0514995817	 0.129793
H	-0.4062137499	 1.7912992649	-1.2378091195	 0.121476
H	-0.8174875711	 2.0065398426	 0.4661396216	 0.130373
H	-0.9752478164	-0.3970734187	-0.1994182563	 0.090995
H	 1.3404034358	-0.6304791858	-1.7141403267	 0.249604
H	 0.0685417345	-1.2690658868	 1.7957884836	 0.110026
H	 1.8415789943	 1.2356328994	 1.8982119211	 0.089784
H	 0.4887420044	 0.8873551656	 2.9851207948	 0.10887
H	 2.6916866944	-0.8432373534	 2.6897277838	 0.299768
