18
gdb 33373	5.89559	0.6286	0.58307	1.4906	95.34	-0.2232	-0.0156	0.2076	1864.1253	0.146239	-364.727065	-364.717869	-364.716925	-364.762009	33.406	
C	 0.0580612804	-3.8055785421	-0.0982802436	-0.555133
C	 0.0403469874	-2.5982954975	-0.0794602256	 0.289295
C	 0.0181118422	-1.2378519713	-0.0566439687	-0.190082
C	 0.0020499694	-0.0282057756	-0.0390312395	 0.354783
C	-0.0257996408	 1.4287495214	 0.0096259957	-0.350555
N	 1.3057522973	 2.0011358896	 0.101207488	-0.059249
C	 2.0819270831	 1.8029594093	 1.3448130328	-0.154927
C	 2.6102330774	 3.2503147837	 1.1960758853	-0.226943
C	 1.4130556023	 3.4682931994	 0.2401577386	-0.15821
H	 0.0762165985	-4.866864663	-0.11561857	 0.190372
H	-0.5026082238	 1.8141507486	-0.9020922829	 0.138853
H	-0.6735178485	 1.7419156545	 0.8555837447	 0.107978
H	 1.4430934714	 1.6877097275	 2.2362091741	 0.087461
H	 2.7967537809	 0.9760704927	 1.3137516711	 0.113086
H	 2.6473745236	 3.8633187473	 2.0965000442	 0.106571
H	 3.5712317559	 3.2961326474	 0.6813910002	 0.117474
H	 1.5799105939	 4.0087245602	-0.6972857322	 0.105423
H	 0.5492460394	 3.916574378	 0.7602117178	 0.083802
