20
gdb 76480	3.14422	1.05878	0.9982	2.8781	80.8	-0.227	-0.0222	0.2048	1292.4909	0.167948	-403.127086	-403.117618	-403.116674	-403.161541	35.218	
C	-0.0700781804	 1.609996721	 0.0933487467	-0.418726
C	 0.0299682311	 0.1004016926	 0.083637323	-0.067603
N	 1.2836051196	-0.6259715063	-0.1706339386	-0.145171
C	 2.5179312735	 0.1052791006	-0.4147770953	-0.321024
C	 0.721565694	-0.652482454	 1.1657725907	 0.330921
C	 1.3295432548	-0.0693258796	 2.4619106493	-0.432492
C	 0.7965531198	-1.3245298002	 3.1848720221	 0.405322
O	 0.770653211	-1.661436901	 4.3317936606	-0.289171
C	 0.2854472302	-1.9479867454	 1.8739145079	-0.420098
H	 0.7385075429	 2.0846795057	 0.6538476459	 0.123162
H	-0.0558453491	 2.0108468537	-0.926100423	 0.127311
H	-1.015809047	 1.9164175233	 0.5530531473	 0.126171
H	-0.826288602	-0.3870319799	-0.3843544463	 0.090002
H	 2.6697624575	 0.9925987223	 0.2174279238	 0.104477
H	 3.3642566402	-0.5701905157	-0.2523924329	 0.125374
H	 2.5432257516	 0.4244564959	-1.4613758619	 0.126665
H	 2.4235963267	-0.0062182859	 2.4746653235	 0.133917
H	 0.9270926562	 0.8784158603	 2.8324295746	 0.131867
H	-0.7821387995	-2.1885287027	 1.8622191237	 0.131136
H	 0.8476372192	-2.8367953248	 1.5671943588	 0.137958
