19
gdb 37049	2.80604	1.72753	1.46053	2.1185	73.79	-0.2319	0.0609	0.2928	967.8043	0.161363	-422.978533	-422.971412	-422.970468	-423.009762	29.18	
C	 0.0154905081	 1.4894698134	 0.1706828347	-0.387506
C	 1.3559492198	 0.8159840074	-0.0563027425	 0.197191
C	 1.7102742649	 0.0040038689	 1.1909010215	-0.140285
O	 0.4203736052	-0.673045137	 1.1789469341	-0.326089
C	 0.0800906016	 0.0060217415	-0.0365376148	 0.396396
C	-0.3672275412	-0.7392630356	-1.2631587607	-0.18321
O	 0.712643763	-0.8929302227	-2.1866040876	-0.242608
C	 1.3319515936	 0.3414950228	-2.5060722697	-0.08028
C	 2.1615985245	 0.9085189593	-1.326940282	-0.311944
H	-0.2355349303	 1.8746135223	 1.1548271472	 0.116206
H	-0.3653390396	 2.0727343146	-0.662206139	 0.11657
H	 2.5221781795	-0.7125353346	 1.0188641912	 0.109558
H	 1.8851714013	 0.5459160809	 2.1283728137	 0.102609
H	-0.6905543349	-1.7475381344	-0.9936764394	 0.129205
H	-1.2031831039	-0.2214204371	-1.7588896147	 0.094711
H	 1.9818853192	 0.1453673262	-3.3629047339	 0.113287
H	 0.5713356929	 1.0744970282	-2.8262319488	 0.086859
H	 2.4895006576	 1.9280835411	-1.5627734691	 0.100338
H	 3.0633308989	 0.2955933846	-1.2166184302	 0.108993
