19
gdb 81216	2.9305	1.60433	1.45092	1.5124	80.37	-0.2417	0.0142	0.256	985.5937	0.16113	-385.819015	-385.811937	-385.810993	-385.849982	29.813	
O	 0.0661445374	 1.3891144092	-0.2232450404	-0.457139
C	 0.0450682788	 0.0067007823	 0.0011107706	 0.180718
C	 0.0287748248	-0.5921983203	 1.422619128	-0.147447
C	-1.4931016406	-0.1669790519	 1.512999669	-0.357807
C	-1.313658486	-0.7871140951	 0.0911751198	 0.286679
C	-1.9813394428	-1.3602738827	-1.1455597951	-0.411494
C	-0.9752055297	-2.4839521883	-1.4446825958	-0.03424
C	-0.1210493058	-2.7388182983	-0.4400896111	-0.158051
C	-0.5137097758	-1.9182756739	 0.7660082784	-0.006032
H	-0.5270336863	 1.8248364555	 0.3964772517	 0.27994
H	 0.7836293494	-0.4125737171	-0.6820090949	 0.087124
H	 0.7762504571	-0.482753115	 2.2108318816	 0.071191
H	-2.1130733365	-0.7315014303	 2.2141003679	 0.100484
H	-1.7153335532	 0.9011116339	 1.6024561924	 0.078343
H	-2.9853748169	-1.7686560002	-0.9652991595	 0.110005
H	-2.0652077404	-0.6430872533	-1.9697995613	 0.114101
H	-0.9836008433	-3.0121849995	-2.3930025993	 0.094396
H	 0.6347387846	-3.516236486	-0.4591433229	 0.092104
H	-1.0724033848	-2.5259845791	 1.4890796909	 0.077125
