16
gdb 18026	4.26926	1.59726	1.45621	2.4728	59.95	-0.2533	0.0478	0.3011	889.1554	0.130907	-420.819608	-420.812517	-420.811573	-420.851275	26.403	
O	 0.0509409892	 1.207980625	-0.4505373776	-0.423452
C	 0.0629712327	-0.1430428673	-0.0240802669	-0.078589
C	-1.3543084666	-0.6328448963	 0.2030937709	 0.100734
O	-2.1702429706	-0.4640056237	-1.0029368417	-0.330571
C	-2.5771719328	-1.8449969829	-0.979916751	 0.074824
C	-1.6384596746	-2.772659328	-1.7632314437	-0.095219
O	-0.7775902217	-2.9319432652	-0.6029208564	-0.288993
C	-1.6582517003	-2.1440939325	 0.2198636755	 0.032818
H	-0.5336433365	 1.2405999503	-1.2173595661	 0.292765
H	 0.5653220195	-0.7994853438	-0.746698721	 0.104312
H	 0.6269898842	-0.1790602188	 0.9144471212	 0.110889
H	-1.8229272961	-0.0914163401	 1.0354659036	 0.087135
H	-3.6580959165	-1.9745197177	-1.0472208326	 0.095264
H	-2.0770747449	-3.7331527169	-2.0611451911	 0.109598
H	-1.127040184	-2.310432863	-2.6138345107	 0.116372
H	-1.914898871	-2.6317790692	 1.1612328675	 0.092113
