12
gdb 1844	6.8213	2.12796	1.63992	6.8715	54.55	-0.2355	-0.0125	0.2229	698.584	0.091567	-360.567154	-360.561074	-360.56013	-360.596845	22.7	
N	 0.0659662435	 1.3517608447	 0.1353098687	-0.581909
C	-0.0454588365	-0.0016769485	 0.0398943284	 0.362932
C	-1.128547572	-0.8026179828	 0.022951689	-0.395987
C	-0.6865071432	-2.1951691211	-0.0263198719	 0.462571
O	-1.309324835	-3.218561436	-0.0576099603	-0.360846
O	 0.7089076129	-2.2023687255	-0.0401056717	-0.239601
C	 1.187967448	-0.8730727846	 0.0072657001	-0.150433
H	 0.9309551514	 1.7826617282	-0.1488052946	 0.263456
H	-0.7553545182	 1.9105075948	-0.0320666756	 0.269045
H	-2.1716339312	-0.5273814701	 0.0399168154	 0.111763
H	 1.8094983603	-0.6694824907	-0.8758187412	 0.12457
H	 1.80843497	-0.7289594784	 0.9015113137	 0.134439
