22
gdb 121643	4.86034	0.63798	0.58406	2.8971	84.9	-0.2444	0.0091	0.2535	1966.1409	0.192496	-404.358382	-404.347918	-404.346973	-404.395716	36.626	
C	 0.0296022947	 1.4972635264	 0.245914812	-0.37987
C	-0.0341611836	-0.0105199304	-0.0118546993	-0.171143
C	-1.4606093066	-0.5658119952	 0.0493377416	-0.148759
C	-1.5236746799	-2.07095874	-0.2087002782	-0.309899
C	-2.9338637205	-2.6363865549	-0.1307597413	 0.363711
O	-3.9098646483	-1.9802482335	 0.1574438373	-0.331823
N	-3.0307273199	-3.9805644804	-0.5088736438	-0.076432
C	-2.4711073482	-5.0943490082	 0.2379384168	-0.234164
C	-3.9532268548	-4.8928598579	 0.1222411927	-0.216231
H	 1.0579722732	 1.8686365416	 0.1964720816	 0.109827
H	-0.5606927263	 2.0494873836	-0.4935676019	 0.116309
H	-0.3680678469	 1.7461006684	 1.2359976907	 0.115391
H	 0.402711844	-0.232987702	-0.9948039325	 0.093071
H	 0.5935178661	-0.534778214	 0.7217496886	 0.090562
H	-1.9051458258	-0.3501946243	 1.0276700998	 0.108694
H	-2.0942831327	-0.0498542915	-0.6813249982	 0.109921
H	-1.1117574834	-2.3239884022	-1.1937921351	 0.127622
H	-0.8959970106	-2.6127869325	 0.5128948358	 0.114781
H	-1.9718096027	-5.8617119053	-0.3474862766	 0.127042
H	-2.0122835321	-4.8823067226	 1.2012570621	 0.12734
H	-4.4885273341	-4.525267478	 0.9935136395	 0.137387
H	-4.5323034015	-5.5225468771	-0.5469120016	 0.126665
