17
gdb 13121	3.59541	1.50375	1.12386	1.9151	65.84	-0.2529	0.0213	0.2742	1044.4146	0.141901	-400.979918	-400.971673	-400.970729	-401.013292	29.009	
C	 0.2832504279	 0.7633875224	 0.503297865	-0.25605
O	-0.2935847331	 0.3510028478	-0.7262906802	-0.233413
C	 0.5397867215	-0.4388187578	-1.5333486976	-0.087054
C	 0.5690314706	-1.9233529228	-1.1392588592	-0.146134
C	 1.296593641	-2.8818569549	-2.1087899241	-0.104133
O	 2.2143771099	-3.2786193902	-1.0437539014	-0.248957
C	 1.6103570107	-2.4214933348	-0.1488725518	 0.43746
N	 1.8828107233	-2.1825518961	 1.0517995296	-0.540301
H	 0.527789823	-0.0829497968	 1.1552070243	 0.155355
H	 1.2018936665	 1.3456377807	 0.3320326308	 0.101108
H	-0.4539655879	 1.405316792	 0.9914858432	 0.121602
H	 0.1264331892	-0.373233513	-2.5473781562	 0.109416
H	 1.5660129121	-0.0374191039	-1.5655645265	 0.094299
H	-0.4448245821	-2.2389040421	-0.8804876058	 0.120101
H	 0.725785227	-3.7373882138	-2.4761387912	 0.125611
H	 1.8388187489	-2.4056704648	-2.9311942317	 0.120978
H	 2.6817892214	-2.7319861317	 1.3723082629	 0.23011
