18
gdb 125195	3.11254	1.54429	1.05991	1.969	79.61	-0.1912	0.0253	0.2165	1124.9248	0.151109	-398.147479	-398.139473	-398.138528	-398.180147	30.195	
C	-0.0572092111	 1.524735953	 0.1035414942	-0.512602
C	 0.0129318636	 0.0439197602	-0.0640785886	 0.227868
C	 0.0024616422	-0.7798551014	-1.1674953964	 0.15016
N	-0.0078129923	-0.7018657325	-2.5815392849	-0.426571
C	 0.3010587391	-2.1002279979	-3.0202378729	-0.167834
C	 0.0742987844	-3.0730886287	-1.8098142483	-0.350832
C	 0.0957141195	-2.0909433619	-0.6757998964	 0.32872
N	 0.157392083	-2.1406772213	 0.6449228194	-0.337255
N	 0.0904872151	-0.8302121804	 0.995652268	-0.263951
H	 0.6478717866	 1.8788242405	 0.8638713534	 0.129472
H	 0.1972783875	 2.0136288536	-0.8402327173	 0.146487
H	-1.0571146711	 1.8682576641	 0.397132867	 0.133469
H	-0.9078917883	-0.4017396857	-2.9410733221	 0.226907
H	-0.2959688867	-2.3626616615	-3.896814888	 0.102837
H	 1.3553007808	-2.1355683724	-3.3159976628	 0.11764
H	-0.8899391139	-3.5934075613	-1.8737381719	 0.112404
H	 0.8542668108	-3.8371582295	-1.7606850791	 0.119712
H	 0.1481075308	-0.589431887	 1.9703717966	 0.263368
