15
gdb 42221	3.55513	1.2284	1.05317	4.3887	71.29	-0.2596	-0.0971	0.1625	1118.388	0.112933	-416.731127	-416.723526	-416.722581	-416.764433	27.644	
O	 0.8642467477	 1.09835249	-0.969744571	-0.262711
C	 0.0914866187	 1.1863659554	-0.0487487767	 0.270407
C	 0.4196916733	 0.5919094412	 1.2656703315	 0.238454
N	 0.6773913765	 0.1415947242	 2.2990020202	-0.2987
C	-1.2341282802	 1.9057904542	-0.0869083688	-0.04499
C	-1.9089617295	 2.2859725046	-1.4187150906	-0.076849
C	-2.1968872983	 0.7742666186	-1.5660757876	-0.179193
N	-2.5031992748	 1.0089214595	-0.068004596	-0.15156
C	-3.202675019	 2.2901253571	-0.5719724186	-0.170771
H	-1.255807055	 2.6406791079	 0.7272682013	 0.112681
H	-1.566485529	 3.0034453242	-2.1685861255	 0.089598
H	-3.0825865793	 0.4816694057	-2.1338431988	 0.114052
H	-1.3650365351	 0.0964821004	-1.7568415553	 0.130187
H	-3.3220225942	 3.0550000126	 0.1996606317	 0.113098
H	-4.1450892919	 2.0833168144	-1.0833884257	 0.116297
