20
gdb 41880	2.97105	1.56097	1.14557	2.2454	79.38	-0.2388	0.0216	0.2605	1096.7278	0.173643	-403.145141	-403.137463	-403.136518	-403.177391	30.229	
C	-0.0451327708	 1.5811499945	-0.1075836346	-0.249236
C	 1.4976202739	 1.5649474514	 0.0825879314	-0.238631
C	 1.3953150531	 0.1256603372	 0.631725501	 0.117468
O	 1.4677647738	 0.1693146413	 2.0631268091	-0.244915
C	 1.1839643104	-0.9587514852	 2.778657273	 0.116209
N	 0.3885867698	-1.914946927	 2.579755891	-0.248551
C	-0.5566508244	-2.0012667073	 1.473153052	-0.152215
C	-1.0829510463	-0.6646773711	 0.9259948171	-0.243201
C	-0.0445615144	 0.0330424778	 0.0591065995	 0.022811
H	-0.5577353161	 2.0790680132	 0.7200468012	 0.109333
H	-0.4295739551	 1.9822871202	-1.0475687547	 0.099787
H	 2.0418894624	 1.599138377	-0.8643790014	 0.106242
H	 1.9336176054	 2.2910878208	 0.7707687254	 0.114913
H	 2.1236225477	-0.610681956	 0.275270678	 0.079251
H	 1.7764984901	-0.9463228107	 3.6947109824	 0.11484
H	-0.1064937129	-2.5920850431	 0.6618865951	 0.106686
H	-1.3990950837	-2.6002109847	 1.837490453	 0.109403
H	-2.0009028477	-0.8394273392	 0.3514109828	 0.096331
H	-1.362689852	-0.0269590513	 1.7728234332	 0.108453
H	 0.0070215767	-0.4538308678	-0.9218617446	 0.075022
