19
gdb 37165	3.31686	1.75761	1.58741	1.6982	77.52	-0.2377	0.074	0.3117	914.6441	0.16237	-385.787385	-385.781216	-385.780272	-385.817391	27.569	
C	-0.017604506	 1.5621351128	-0.0675148016	-0.315959
C	 1.3079992534	 0.8351071527	-0.0874641787	-0.020523
C	-0.0221287248	 0.0542551733	-0.0705069702	-0.139561
C	 0.2255857329	-0.6368567083	-1.3991753069	 0.473841
C	 1.7058343698	-1.1911325257	-1.2085001074	-0.277565
C	 2.0095973893	 0.3183433356	-1.4024051086	-0.08998
C	 0.8172264496	 0.3826281877	-2.3812939833	-0.085444
C	 0.2775149013	-0.6740252771	-3.400337816	-0.161946
O	-0.5734134137	-1.2978310248	-2.3758203771	-0.359911
H	-0.2658927443	 2.0239478036	 0.8836919803	 0.112527
H	-0.3846099669	 2.1246708013	-0.9170276147	 0.118034
H	 1.9284055569	 0.8701247973	 0.8012482162	 0.093152
H	-0.3375068278	-0.5042536017	 0.8029826486	 0.094268
H	 1.9533693697	-1.6291264626	-0.2395399407	 0.090323
H	 2.045208981	-1.8394276681	-2.0173665859	 0.098545
H	 3.0085799259	 0.7094988632	-1.5987924793	 0.062708
H	 0.3430724222	 1.3479435022	-2.543584448	 0.08045
H	-0.3354844008	-0.2413120703	-4.194518048	 0.114082
H	 0.9835298123	-1.390876681	-3.8290716087	 0.112961
