18
gdb 30041	2.40719	1.81187	1.04706	3.3481	83.72	-0.2057	-0.027	0.1787	1132.6148	0.148635	-402.031637	-402.02304	-402.022096	-402.064993	31.806	
C	-0.0067936224	 1.447888172	 0.0130918315	-0.331493
N	-0.0085985545	-0.0110123423	-0.0334954427	-0.133656
C	-0.0750229795	-0.6801818037	-1.2201237961	 0.029882
C	-0.0771821391	-2.0388078833	-1.2672226378	-0.195062
C	-0.0081687373	-2.757530245	-0.0440585507	-0.141873
C	 0.0592359899	-2.1187358612	 1.1602115551	 0.114137
C	 0.133602993	-2.8269417275	 2.4808784358	-0.46787
C	 0.0617758037	-0.663828097	 1.2162389333	 0.387095
O	 0.1191147743	 0.0030891232	 2.2436439894	-0.416366
H	 0.9028664555	 1.8057901746	 0.5009896201	 0.155462
H	-0.0648171308	 1.8384942832	-1.0034557945	 0.123932
H	-0.8556502315	 1.8046910874	 0.601096999	 0.155514
H	-0.1250516729	-0.0607259578	-2.1074735566	 0.126209
H	-0.1305288006	-2.5480491087	-2.2198027776	 0.103453
H	-0.0092534744	-3.8440526653	-0.0699237972	 0.100099
H	 0.1264811614	-3.9119808073	 2.3498072265	 0.110027
H	 1.0398558136	-2.5402804442	 3.0254241098	 0.14025
H	-0.7060664783	-2.540645447	 3.1235180128	 0.14026
