15
gdb 47010	2.77387	1.8917	1.49437	4.6898	60.	-0.2547	-0.0044	0.2503	885.455	0.114939	-494.927674	-494.92097	-494.920026	-494.959015	25.507	
O	 0.0261307078	 0.0052608333	-0.2948374411	-0.319835
C	-0.0018367942	 1.1555793018	 0.0333743372	 0.451954
O	-1.1789173648	 1.7593357247	 0.3473707872	-0.245354
C	-1.1867135146	 3.0626058131	 0.9630702068	-0.075915
C	 0.1170083235	 3.8125305545	 0.7376306782	 0.023275
C	 0.4474876622	 4.0350650762	-0.7554553977	-0.098753
O	 1.2200558037	 2.8811582794	-1.1025191522	-0.253589
C	 1.2378315853	 2.0674603992	 0.0555676943	 0.011811
O	 1.1803928003	 2.9453654804	 1.153254036	-0.23735
H	-2.0398226307	 3.6023363143	 0.5408512363	 0.127772
H	-1.3537452811	 2.9228905703	 2.0367483478	 0.132016
H	 0.1497228278	 4.7241975865	 1.3367898332	 0.108904
H	-0.4494650643	 4.0977113722	-1.3805914117	 0.122125
H	 1.0584874919	 4.9294659707	-0.9091782227	 0.124574
H	 2.1483599971	 1.4693197333	 0.0830923583	 0.128365
