16
gdb 15115	8.53982	0.77696	0.74208	2.5979	68.54	-0.2601	0.0287	0.2888	1476.3076	0.127428	-383.65853	-383.64986	-383.648916	-383.692811	29.939	
C	 0.0240144428	-1.1655946208	 0.2176887007	-0.41128
C	 0.0470157305	 0.0309465159	 0.1221416433	 0.282468
C	 0.0385923413	 1.4826939838	 0.0053149609	-0.203553
O	 1.3646167707	 1.9736929426	-0.0286023624	-0.245906
C	 1.4146993946	 3.3768437229	-0.1797679916	-0.065948
C	 2.8568921839	 3.7996464456	-0.2029371724	 0.082199
C	 3.2534143589	 5.162174316	 0.1691882778	-0.182172
O	 3.4741515911	 4.0668696352	 1.0559574687	-0.223771
H	 0.0122694533	-2.2239876854	 0.3038813153	 0.201797
H	-0.5051078586	 1.7781158372	-0.9091550702	 0.117085
H	-0.5131546829	 1.9208012958	 0.8546681268	 0.121702
H	 0.9217182939	 3.6803200227	-1.1207535979	 0.09129
H	 0.8985953446	 3.8859668701	 0.6503485018	 0.098192
H	 3.4815980951	 3.2435444392	-0.9020608803	 0.105492
H	 4.1457926962	 5.60184497	-0.2734539554	 0.118879
H	 2.4956489345	 5.8772906794	 0.4886109149	 0.113527
