15
gdb 131231	3.22325	1.14869	0.89624	4.5155	68.43	-0.228	-0.0311	0.1969	1231.364	0.112077	-453.96363	-453.955139	-453.954195	-453.998574	29.684	
O	-0.1811480523	 1.3841106933	-0.1210679675	-0.431196
C	-0.0539320011	 0.0392853717	-0.1566001073	 0.451168
C	-0.0259368083	-0.8896439329	-1.1770591141	-0.382991
C	 0.1349015765	-2.119005898	-0.5001183936	 0.024797
N	 0.1994026239	-1.9731536198	 0.815960822	-0.280241
N	 0.0769331833	-0.6289270683	 1.0148032439	-0.027249
C	 0.1332360529	-0.0936155668	 2.3506885629	-0.251621
C	 1.4973726102	-0.3092994314	 3.0055447394	 0.159239
O	 1.6893224659	-0.1370517992	 4.1778386198	-0.230033
H	-0.2757967373	 1.7118704122	-1.0206083311	 0.317222
H	-0.1110208516	-0.7060188137	-2.2355100362	 0.10376
H	 0.2049313557	-3.1076027939	-0.930418737	 0.117128
H	-0.0646967101	 0.9813242901	 2.303098116	 0.167544
H	-0.6342994482	-0.552848213	 2.9806846393	 0.160066
H	 2.2996015205	-0.6277276803	 2.3054902933	 0.102407
