16
gdb 35346	3.73454	1.45225	1.29839	5.618	74.63	-0.2496	0.0268	0.2765	983.5108	0.124452	-400.630268	-400.62331	-400.622366	-400.661545	27.781	
N	-0.366825273	-1.1991997583	-0.383698074	-0.341719
C	-0.1902424282	-0.0746555536	-0.1804050771	 0.313773
C	-0.0276996444	 1.3516105414	 0.0298153374	-0.198975
C	-0.0970538443	 1.8679571863	 1.5449922696	-0.341911
C	 1.4233658026	 2.0108185799	 1.4400224203	 0.381565
C	 2.8635477521	 2.5788832632	 1.4738717553	-0.311591
C	 2.7506427985	 1.3922743982	 0.4204761723	 0.027052
O	 2.0123491689	 0.6337762431	 1.4244627446	-0.318823
C	 1.4180357456	 1.9976886533	-0.0895041534	-0.04695
H	-0.7333557467	 1.8754199459	-0.6188830752	 0.129611
H	-0.6281907389	 2.8202621487	 1.5980665837	 0.12656
H	-0.4719808382	 1.1744322118	 2.2985366134	 0.144857
H	 3.006528846	 3.5968482063	 1.1032318656	 0.109708
H	 3.4757191377	 2.3449203868	 2.3456388537	 0.124764
H	 3.5632761362	 0.8867730983	-0.1056909283	 0.110453
H	 1.4385518161	 2.9342921587	-0.6472060579	 0.091626
