10
gdb 128872	10.0875	0.68743	0.64357	4.6417	75.62	-0.2974	-0.097	0.2004	1542.9372	0.055274	-430.442569	-430.435601	-430.434657	-430.474941	23.953	
N	 0.06896379	-3.7001400305	-0.0185718315	-0.317434
C	 0.0436656399	-2.5389384391	-0.0118318473	 0.176342
C	 0.0146022285	-1.1749565953	-0.0039502576	 0.374887
C	-0.0099033201	 0.0323539531	 0.002941973	-0.060427
C	-0.0290964529	 1.4466266603	 0.0109105853	 0.145737
N	-1.1566069238	 2.1275807263	 0.0295861783	-0.154923
O	-0.7273390474	 3.4455410984	 0.0310558169	-0.134115
C	 0.609777174	 3.4148035936	 0.0131347302	 0.071605
N	 1.1142450178	 2.225027098	-0.000032376	-0.28518
H	 1.125422264	 4.3637311551	 0.0114530587	 0.183506
