20
gdb 72453	2.35263	2.12215	1.51227	1.935	76.77	-0.2276	0.0689	0.2965	947.2353	0.174206	-403.130016	-403.122972	-403.122028	-403.160807	30.313	
O	-0.0890073247	 1.3792291347	 0.064382725	-0.503876
C	 0.0335167984	-0.018795316	 0.0638757731	 0.418767
C	 0.7345303028	-0.6502437781	-1.1736773773	-0.262488
C	 0.9982512812	-2.1179298138	-0.7053530248	-0.198139
C	 0.4161304185	-2.1227649379	 0.7304957561	 0.014692
C	 0.8093450338	-0.7122347499	 1.2095984472	-0.318723
N	-1.0625605455	-2.1152240434	 0.5179148855	-0.102562
C	-1.8384438898	-1.245347725	 1.4158118084	-0.274358
C	-1.3300765375	-0.7045004728	 0.1319982224	-0.028374
H	 0.7756464082	 1.7563615794	-0.1290193027	 0.275869
H	 0.1091307724	-0.5883324411	-2.0680635497	 0.105186
H	 1.6692411748	-0.1176052531	-1.3861568098	 0.08178
H	 0.4910340854	-2.8570810712	-1.3283836457	 0.112938
H	 2.0660341438	-2.3534786894	-0.6954459387	 0.09467
H	 0.7200452761	-2.9701381555	 1.3466830955	 0.068508
H	 1.8875889296	-0.539217593	 1.144183292	 0.087875
H	 0.4784541149	-0.4316814835	 2.2091148795	 0.104705
H	-2.8869242521	-1.5230921937	 1.4693714399	 0.117159
H	-1.42272918	-0.9136464576	 2.3606170469	 0.116086
H	-2.0085556805	-0.535514219	-0.700330533	 0.090287
