19
gdb 82420	2.50525	1.73276	1.162	3.4221	75.89	-0.2065	0.0293	0.2359	1077.7192	0.161677	-419.215533	-419.207322	-419.206378	-419.248328	31.475	
C	-0.0662351528	 1.4145123255	-0.1188751811	-0.352025
N	 0.0212487902	-0.0272371583	 0.0602202113	-0.087382
C	-1.2173041376	-0.7612860245	 0.0870189666	 0.012865
C	-1.5077503109	-1.8271391974	-0.9598635652	-0.32507
C	-1.1516641506	-2.2207299246	 0.4515115027	-0.004502
N	 0.125024268	-2.8104318713	 0.7744323327	-0.297285
C	 1.2519056841	-2.1648566224	 0.0988258343	-0.306403
C	 1.2520393499	-0.6322694403	 0.0511479432	 0.387764
O	 2.3013306256	-0.0120449008	-0.0188994241	-0.389774
H	 0.9450435502	 1.8171049429	-0.0930649626	 0.169942
H	-0.5335337897	 1.6640435867	-1.079442568	 0.125052
H	-0.6625913615	 1.8638781453	 0.6835186037	 0.121174
H	-2.0421074649	-0.1553579339	 0.4479898609	 0.098106
H	-2.5336431029	-1.9729668185	-1.2797416869	 0.119545
H	-0.7737992984	-1.9599974474	-1.746213433	 0.126882
H	-1.9546506964	-2.6208790289	 1.0618672118	 0.101301
H	 0.259934774	-2.721814196	 1.7771422635	 0.227829
H	 2.1828087303	-2.4633020093	 0.5839198185	 0.136935
H	 1.3161631535	-2.5284490969	-0.9346581084	 0.135043
