18
gdb 35173	3.50361	1.2636	1.11103	4.3892	81.84	-0.2783	0.0321	0.3103	1126.0054	0.14902	-364.758525	-364.751077	-364.750132	-364.790548	29.449	
N	-0.0131503872	-1.1438472214	-0.0291101913	-0.344849
C	-0.0189574833	 0.0135177239	-0.0063338114	 0.29043
C	-0.0035310031	 1.448754448	 0.0170674524	-0.312972
C	 0.5058567938	 2.1721168146	 1.2830497864	-0.398228
C	 1.3105312456	 2.1870503577	 0.0429054045	 0.478201
C	 2.7411156044	 1.7323970467	-0.2894088411	-0.122245
C	 2.4431790548	 2.1738199528	-1.7564534904	-0.214331
C	 1.8550183996	 3.3077690561	-0.8596842029	-0.133496
C	 3.1639069304	 3.210568287	-0.0140454436	-0.218293
H	-0.8348856083	 1.9132227911	-0.5043559237	 0.131078
H	-0.0460843679	 3.0596295976	 1.5753100428	 0.128887
H	 0.8217464286	 1.5415895307	 2.1073433815	 0.141242
H	 3.2356557901	 0.8214251845	 0.0458607535	 0.094029
H	 3.31193229	 2.4434704017	-2.3616877133	 0.096638
H	 1.7296883936	 1.5661831905	-2.3167523993	 0.106967
H	 1.3323425494	 4.2101676157	-1.1786268072	 0.079943
H	 3.1103472895	 3.5552940979	 1.0209746387	 0.099634
H	 4.07855538	 3.5463469748	-0.5085728956	 0.097365
