15
gdb 127981	4.75526	1.08578	0.88881	2.1157	75.97	-0.2255	-0.0684	0.1572	1245.2595	0.111979	-453.9292	-453.92109	-453.920146	-453.962225	29.817	
C	-0.0375979195	 1.4257812185	-0.2560703788	-0.321123
N	-0.0150681776	-0.0273696859	-0.2697244402	-0.315722
C	-1.0319293862	-0.6523706198	 0.1634160874	 0.435081
O	-2.1362150701	 0.036519065	 0.63841766	-0.301483
N	-3.2843984186	-0.6080470999	 1.1262957603	-0.199786
C	-3.2730709289	-1.8946348021	 1.1170730625	 0.437569
O	-4.3615912393	-2.5398154438	 1.5796536854	-0.406201
C	-2.1859388541	-2.7249080977	 0.6501243516	-0.159464
C	-1.0946335692	-2.1011764603	 0.1858327288	-0.134373
H	 0.9043303279	 1.800168352	-0.6627189412	 0.118535
H	-0.8645739479	 1.8279589385	-0.8567436994	 0.127346
H	-0.1639989184	 1.8229686656	 0.760185821	 0.127361
H	-5.0005906332	-1.8660025797	 1.8548470787	 0.31154
H	-2.2931214833	-3.8013671458	 0.6925285191	 0.136496
H	-0.2224757517	-2.6218680447	-0.1884830353	 0.144224
