18
gdb 41544	4.21083	1.58882	1.4969	1.3586	74.04	-0.2323	0.0646	0.2969	918.9881	0.151298	-401.85647	-401.850426	-401.849482	-401.886721	25.487	
C	 0.014666114	 1.4998340313	 0.3408754795	-0.096695
O	 1.3473411552	 1.64528616	-0.2047932853	-0.302891
C	 1.4243285604	 0.2296966016	-0.5032136553	 0.1084
C	-0.0324717963	 0.0059582824	-0.0413008115	-0.09268
C	-0.6408482769	-0.3540691388	-1.3853849063	 0.005417
C	-0.0299331589	 0.4906969576	-2.5381241351	-0.073335
C	-0.1281933369	-0.7835165564	-3.3857502081	-0.180324
N	 0.3543611792	-1.352094013	-2.0482507652	-0.174043
C	 1.2862461139	-0.1051558751	-1.9793412193	 0.003523
H	 0.0028462347	 1.6944882355	 1.4200511155	 0.104395
H	-0.7099839679	 2.1598311653	-0.1512858655	 0.102449
H	 2.2559497747	-0.2608252732	 0.0097134625	 0.084004
H	-0.2448013942	-0.7118588028	 0.7501897457	 0.088924
H	-1.6877238094	-0.6598641328	-1.4323599918	 0.074567
H	-0.2401344139	 1.5297125833	-2.8114052294	 0.072634
H	-1.1211967117	-1.1385947437	-3.6769769577	 0.099347
H	 0.5878433034	-0.9186806499	-4.2013099667	 0.101435
H	 2.1772140705	-0.1626631313	-2.6063749761	 0.074874
