15
gdb 26885	3.12267	1.46589	1.00379	3.4897	74.98	-0.217	-0.051	0.166	1120.5253	0.112761	-453.988942	-453.980747	-453.979803	-454.022842	29.709	
C	-0.0200943144	 1.5550434088	 0.0095165811	-0.496789
C	-0.0081215893	 0.0510670206	 0.0011229752	 0.043646
C	-1.1433580122	-0.7015657964	 0.0040050025	 0.448387
O	-2.3654485694	-0.1763012686	 0.0145096889	-0.388622
O	-1.1452524904	-2.0282542804	-0.0033298365	-0.238339
C	 0.0821727533	-2.757023662	-0.0150027242	 0.425515
N	-0.0785208449	-4.0104774799	-0.0209662716	-0.531327
N	 1.2502066598	-2.0331333177	-0.0182330469	-0.332621
C	 1.1809324348	-0.7330066011	-0.0105975321	-0.013792
H	 1.0044770177	 1.9372708582	 0.0057043762	 0.129815
H	-0.5324212816	 1.9669433419	-0.8664841513	 0.139149
H	-0.5222263541	 1.9571667295	 0.8958970215	 0.139153
H	-3.0059845976	-0.9021264509	 0.0144876723	 0.319916
H	 0.8417395399	-4.4464536403	-0.029101736	 0.236887
H	 2.1348300185	-0.2028144315	-0.0135677791	 0.119021
