21
gdb 90066	2.46966	1.75643	1.46431	1.8361	83.68	-0.2239	0.075	0.2989	1030.0733	0.181073	-386.968167	-386.95984	-386.958896	-387.000211	33.884	
C	-0.3109515164	 1.3635285958	-0.3201411045	-0.407037
C	 0.2251666215	-0.0543489267	-0.1742834048	-0.030194
C	 1.6132450583	-0.4101881306	-0.8833175695	-0.352398
C	 2.1978534499	-0.4500005029	 0.5276745808	 0.356049
C	 2.9542122354	-0.8663953916	 1.8110485531	-0.328605
C	 1.7926111873	 0.1741057162	 2.150586356	-0.028209
O	 2.2585710672	 0.9696201071	 1.0261143846	-0.333076
C	 0.8224266935	-0.6016505615	 1.2033539266	 0.304565
C	 0.2093601191	-1.9134466598	 1.6578340424	-0.486447
H	 0.4473419996	 2.1028230143	-0.0646603176	 0.142834
H	-0.6481261451	 1.5426227229	-1.3480675964	 0.104819
H	-1.1748432725	 1.5135345607	 0.3374651805	 0.10864
H	-0.553118346	-0.7544437095	-0.4941255315	 0.072498
H	 1.5808570397	-1.3844815833	-1.3770134788	 0.108567
H	 2.0495053721	 0.3322805839	-1.5560000699	 0.115648
H	 2.8647792149	-1.9031480782	 2.1412477992	 0.102685
H	 3.9588730694	-0.4633840198	 1.9492300936	 0.111024
H	 1.6300629117	 0.6887625831	 3.1041246927	 0.083744
H	-0.8176541242	-1.7420724417	 2.0030505452	 0.122193
H	 0.1546891136	-2.6457052018	 0.8436091443	 0.11661
H	 0.7542573709	-2.3735196765	 2.4869894439	 0.116088
