16
gdb 11887	4.69105	1.57406	1.36265	1.9174	64.9	-0.2434	-0.0246	0.2188	913.892	0.130068	-383.74601	-383.738982	-383.738038	-383.777376	27.035	
O	-0.049052287	 0.0806670671	-0.3740202844	-0.295278
C	-0.0060968121	 1.2463209185	-0.089529473	 0.372078
C	-1.2063021144	 2.1532527908	 0.2102407809	-0.191324
O	-0.6651963055	 3.3811852295	 0.6617199773	-0.2863
C	 0.621306672	 3.5213108418	 0.0811703759	 0.446516
C	 0.7882089247	 4.5319494768	-1.0252753758	-0.325368
C	 1.3369134498	 4.7913868288	 0.3706481029	-0.336673
C	 1.234377405	 2.1373751732	 0.0355469146	-0.414432
H	-1.7988755493	 2.2713003307	-0.7116257995	 0.123574
H	-1.8524909935	 1.7300630468	 0.984300419	 0.138937
H	 1.4892060885	 4.3217583195	-1.8264011264	 0.11501
H	-0.0933356997	 5.0904680032	-1.3186764414	 0.125029
H	 0.812041846	 5.5158500204	 0.9832694345	 0.130565
H	 2.410038741	 4.7564124104	 0.5243556736	 0.119508
H	 1.7424005018	 1.8875840095	 0.9760166618	 0.140552
H	 1.9312308827	 1.9621894328	-0.7858078501	 0.137607
