19
gdb 69113	2.67042	1.56558	1.20239	2.5861	76.86	-0.2376	-0.023	0.2146	1074.9258	0.158732	-423.038234	-423.029832	-423.028888	-423.07081	32.345	
C	-0.0416439349	 1.5254206177	 0.2536969198	-0.472552
C	 0.1488100507	 0.046355448	 0.0859681408	 0.416807
C	-0.6891654925	-0.9586709076	 0.8011491518	-0.393369
C	 0.7971682361	-0.8945555765	 1.1447653166	 0.17861
C	 1.7240948754	-1.793849878	 0.3475756497	-0.326543
C	 1.2535511785	-1.5882871861	-1.1097859287	-0.098382
O	 0.6707487655	-0.2882416853	-1.1683213422	-0.283807
C	 1.2104137986	-0.3478825575	 2.4474519704	 0.064819
O	 0.4806870199	 0.239779564	 3.2163201253	-0.280476
H	 0.8714322392	 2.0621703568	-0.0196113304	 0.126364
H	-0.8502405667	 1.875222536	-0.3961134339	 0.130888
H	-0.299148841	 1.759633951	 1.2882832881	 0.15343
H	-1.3412279603	-0.5795383909	 1.5807678194	 0.143567
H	-1.051559773	-1.8363595623	 0.2767327192	 0.119039
H	 2.7607029189	-1.4632880348	 0.4803932578	 0.114033
H	 1.6698667713	-2.8479554299	 0.6363730127	 0.114027
H	 2.0635783002	-1.6218686237	-1.8424905363	 0.118314
H	 0.5139849399	-2.3507541651	-1.3887648838	 0.10601
H	 2.2896944742	-0.4877592459	 2.6844376137	 0.069221
