19
gdb 104754	2.72144	1.1873	0.95183	5.4114	77.1	-0.2341	0.0306	0.2647	1261.477	0.158178	-419.189828	-419.179826	-419.178882	-419.224962	35.84	
C	 0.3427481231	-0.6770642751	 1.7361160123	-0.335776
N	 0.0247046505	-0.368048925	 0.3435024466	-0.321769
C	-1.3132570463	-0.6671342897	-0.0778207769	 0.33395
C	-2.4592819022	 0.0346968594	 0.6294016471	-0.146737
O	-2.2597182045	 1.4291398291	 0.4459217347	-0.42366
C	-1.4666799761	-0.9624108423	-1.5400701534	-0.317947
C	-1.5802966794	-2.0997561286	-0.5344238431	-0.229893
C	-0.5499364032	-3.0949070576	-0.444985419	 0.310705
N	 0.2491911956	-3.9274506352	-0.3615907655	-0.351613
H	 1.3916109602	-0.4281168172	 1.9180924943	 0.127129
H	-0.266615788	-0.1372496212	 2.4789074203	 0.098219
H	 0.2249098751	-1.7508896748	 1.9067145903	 0.142401
H	 0.2052117652	 0.6117667722	 0.1526399994	 0.234572
H	-3.4214205414	-0.2952175238	 0.2072263649	 0.086275
H	-2.4595024149	-0.2301611809	 1.6969759731	 0.099932
H	-2.8593651572	 1.90282247	 1.0293861865	 0.293619
H	-2.378002719	-0.6636280518	-2.0448707404	 0.127975
H	-0.5640687888	-0.9330531413	-2.136775517	 0.144416
H	-2.5764347588	-2.4905103061	-0.3523710841	 0.128203
