15
gdb 44830	3.04128	1.2607	1.02273	4.0808	70.23	-0.2693	-0.003	0.2663	1145.3382	0.110751	-420.584004	-420.575865	-420.574921	-420.617464	30.069	
O	-0.468499031	 0.1433992185	-0.1499876723	-0.318016
C	-0.1926478196	 1.2874222011	-0.003787662	 0.437968
O	-1.057239139	 2.3365523817	 0.3030611299	-0.266546
C	 0.0200787031	 3.290729368	 0.0967172545	 0.03549
C	 1.0677788683	 3.0625285009	 1.1214115562	-0.322137
C	 1.018475462	 2.1820523803	-0.1378628857	 0.122545
C	 2.1710466195	 1.9989217361	-1.0963448969	-0.473526
C	 3.2044044127	 1.1055636722	-0.5792975762	 0.318847
C	 4.0501978847	 0.3747300472	-0.140337677	-0.443456
H	-0.2097149241	 4.1858195268	-0.4633922511	 0.135927
H	 1.9030800945	 3.7574262004	 1.1292250303	 0.135146
H	 0.7893428593	 2.6604512443	 2.0899293081	 0.143363
H	 1.7920384206	 1.6117947444	-2.0501878159	 0.152048
H	 2.6112384083	 2.9799973737	-1.31635153	 0.138666
H	 4.7942714606	-0.2799826756	 0.240900828	 0.203681
