17
gdb 34282	3.50574	1.45553	1.31557	1.0829	78.34	-0.2441	0.0013	0.2454	998.7959	0.137001	-384.650667	-384.643517	-384.642573	-384.681865	29.472	
C	-0.0005728206	-1.1722028161	 0.0220966347	-0.328596
C	 0.0071003135	 0.0297931126	-0.0022639752	 0.045106
C	 0.0050854699	 1.4742813322	-0.0162697117	 0.166468
C	-0.6281151313	 2.1578600816	 1.253680377	-0.099003
O	-0.1587956759	 3.5034634611	 1.1966399736	-0.275677
C	 0.6685540828	 3.5918787429	-0.0020095865	 0.027255
C	 1.3725948338	 2.2303679149	 0.0027318684	-0.249568
C	-0.2613676213	 3.4464154558	-1.1961306011	-0.091547
C	-0.6672398305	 2.1735114964	-1.1983868842	-0.117771
H	-0.0026714764	-2.2338661061	 0.0372874016	 0.182361
H	-1.7224780698	 2.1259816566	 1.2267619859	 0.106089
H	-0.2732340097	 1.674340927	 2.1711408056	 0.11034
H	 1.2695601304	 4.4957414879	 0.0744336286	 0.079068
H	 1.9562845922	 2.0502278241	 0.9087232703	 0.109856
H	 1.9654155813	 2.0288916739	-0.8894180292	 0.114644
H	-0.6159908145	 4.2560095867	-1.8200792318	 0.108133
H	-1.4148789039	 1.7006372285	-1.8211736362	 0.112844
