21
gdb 87481	3.87153	1.10713	1.02092	1.5468	84.08	-0.2434	0.0704	0.3138	1258.9594	0.182148	-387.011218	-387.002635	-387.001691	-387.044	34.032	
C	-0.2004148389	 1.5367209934	-0.0311749552	-0.447571
C	 0.0187758219	 0.0323423723	 0.0255328732	 0.076071
C	 1.1647919587	-0.6718042067	-0.7849601746	-0.145143
C	 2.1806455041	-0.1280175418	 0.2690489591	-0.232925
C	 0.9564174599	-0.6321815389	 1.0949670474	-0.150632
C	 0.9675938595	-1.8641269851	 0.1684538034	 0.44968
C	 0.1242549469	-3.0952633265	 0.074225009	-0.412872
C	 1.6322009855	-3.1928347141	 0.2336038123	-0.045184
O	 2.3278525815	-3.6816405431	-0.8826241097	-0.423278
H	 0.7196322291	 2.1193335734	 0.0594155673	 0.116764
H	-0.675742943	 1.8157389711	-0.9783076089	 0.117287
H	-0.8720950075	 1.8534100106	 0.7746760653	 0.116788
H	-0.9416705601	-0.4849362132	-0.0711166975	 0.069716
H	 1.2848221825	-0.7090018585	-1.8687517229	 0.072945
H	 3.1065716566	-0.6969638742	 0.3891914179	 0.081055
H	 2.3831037895	 0.9435934946	 0.2691578388	 0.091828
H	 0.8377294461	-0.6218159518	 2.1800410912	 0.067682
H	-0.4978237675	-3.3899287947	 0.9138822795	 0.109619
H	-0.2632623272	-3.3742697677	-0.900726607	 0.122397
H	 2.0067455845	-3.5464493501	 1.1960484822	 0.080215
H	 3.1516280379	-3.1886320091	-0.9549744008	 0.285559
