25
gdb 100675	2.71019	0.94064	0.86205	0.3919	84.84	-0.2561	0.0685	0.3246	1517.3052	0.225441	-426.62975	-426.6179	-426.616955	-426.666195	43.908	
C	 0.0851683239	 1.5523282241	-0.2249865864	-0.391659
C	-0.02872955	 0.0573585782	 0.0908424719	-0.206255
C	-1.4747282984	-0.4920752398	 0.1295574192	 0.335983
C	-2.2996280519	 0.1752103873	 1.2353447603	-0.410472
O	-2.1480587675	-0.1340985205	-1.0898132569	-0.46112
C	-1.4540323209	-2.045279205	 0.2471465082	 0.025822
C	-0.6970122026	-2.6016466084	 1.4625929952	-0.419943
C	-2.8608808515	-2.6511191266	 0.1786979181	-0.101716
O	-2.7120692747	-4.0368011936	-0.1204340534	-0.428004
H	 1.1323794107	 1.8330483731	-0.3734607999	 0.107338
H	-0.4710264269	 1.8012011419	-1.1322568753	 0.124779
H	-0.3060775404	 2.1721427653	 0.5872818486	 0.11637
H	 0.5244658437	-0.5135629278	-0.669048802	 0.082016
H	 0.4658045656	-0.1548093952	 1.0445751387	 0.100784
H	-2.3408038649	 1.2548378477	 1.0761337869	 0.124942
H	-3.3275602337	-0.1948568497	 1.2330045735	 0.121498
H	-1.8644282656	-0.0111304346	 2.2205239405	 0.114821
H	-1.6746549233	-0.5535011488	-1.8174333777	 0.273512
H	-0.9383966315	-2.4075641355	-0.656051277	 0.06736
H	-0.8036670613	-3.6889940569	 1.4817606786	 0.134669
H	 0.3701020641	-2.3687986939	 1.432046723	 0.112674
H	-1.1024443596	-2.2093852858	 2.402030121	 0.110941
H	-3.3780083939	-2.517627444	 1.1417889339	 0.081129
H	-3.445002857	-2.1369371671	-0.5946727852	 0.099936
H	-3.5854670824	-4.4382156144	-0.1113807835	 0.2846
