17
gdb 31757	4.85968	0.82417	0.71939	0.134	71.9	-0.2203	0.0119	0.2322	1514.9877	0.135712	-458.975834	-458.966875	-458.965931	-459.010427	32.118	
O	 0.1633868568	 1.2911575904	-0.4710650931	-0.404769
C	-0.0260294807	 0.1090518301	 0.2842005914	-0.162095
C	-1.3471354283	-0.5308470483	-0.0044328304	 0.329547
C	-2.1928362499	-0.4584312434	-1.0675517485	-0.398196
C	-3.3133217303	-1.3050806599	-0.7572819128	 0.216663
C	-4.5283726658	-1.5735625974	-1.5961685941	-0.168768
O	-5.2371778433	-2.7316651212	-1.1850095988	-0.409495
C	-3.0512988434	-1.8227010021	 0.4726435878	-0.116644
O	-1.8588701786	-1.3588446786	 0.9466183843	-0.183112
H	-0.5714991855	 1.8810335028	-0.2704385332	 0.285265
H	 0.8017408174	-0.5538371126	 0.0033457642	 0.131901
H	 0.0603459571	 0.2805532292	 1.3687094567	 0.110345
H	-2.0307869616	 0.1134707155	-1.9679067221	 0.118027
H	-5.2462185859	-0.7487433285	-1.5106956402	 0.127141
H	-4.2427788441	-1.6285258484	-2.6590289713	 0.098743
H	-4.6273684554	-3.474822164	-1.2467846601	 0.282635
H	-3.5909455684	-2.4920140636	 1.1203952601	 0.142813
