16
gdb 29557	2.36624	1.81413	1.03445	2.7307	76.18	-0.2087	-0.0305	0.1782	1102.511	0.125333	-437.940443	-437.932293	-437.931349	-437.972885	31.069	
C	-0.0366696471	 1.4798542383	 0.0451098426	-0.474895
C	-0.0241836945	-0.0200035726	-0.0061675398	 0.081179
C	-0.0139649112	-0.7055357282	-1.1713814866	-0.00319
O	 0.0093575101	-2.0432731982	-1.2640399822	-0.183109
C	 0.0098770917	-2.7806777369	-0.121262341	-0.03542
C	-0.0067549141	-2.2257401907	 1.1135462156	 0.124787
N	-0.0628607276	-2.9209328753	 2.3059350445	-0.580888
C	-0.0066976008	-0.7570384971	 1.2484416081	 0.298685
O	 0.0188568516	-0.2276295821	 2.3599298328	-0.401824
H	 0.8334592508	 1.8514202246	 0.5957645143	 0.144341
H	-0.0343303673	 1.9185516747	-0.9562205815	 0.113504
H	-0.9189922629	 1.8385336439	 0.5849715408	 0.144593
H	-0.0188268449	-0.2436826267	-2.1517042208	 0.133919
H	 0.0209790353	-3.8413604712	-0.3338406034	 0.126047
H	 0.3868431508	-3.8224793324	 2.3383149792	 0.247524
H	 0.1629680201	-2.3117188701	 3.0839619673	 0.264748
