20
gdb 11588	5.69867	0.84688	0.78734	2.5918	75.89	-0.2407	-0.0072	0.2336	1488.8657	0.174953	-349.01896	-349.009595	-349.008651	-349.054429	33.065	
C	 0.1945910062	 1.4797026081	-0.0741488551	-0.472473
C	-0.0060497473	-0.0204293524	 0.0660833441	 0.376049
O	-0.2020173493	-0.5387413009	 1.1417777301	-0.290884
C	 0.0550261169	-0.8309626121	-1.2222975583	-0.292158
C	-0.2404438729	-2.3204105204	-1.0337727469	-0.199039
C	-0.1194283483	-3.1086105113	-2.3201472436	 0.027479
C	 1.2253910401	-3.6197433337	-2.7780709699	-0.257455
C	 0.1741621195	-4.5856591519	-2.2861788637	-0.275852
H	 1.1306677049	 1.6986590494	-0.5995159647	 0.134734
H	-0.6139279033	 1.9125768186	-0.6745886306	 0.138179
H	 0.2044318949	 1.9467537129	 0.9113549689	 0.141537
H	-0.6378571412	-0.3784922974	-1.9461657191	 0.113447
H	 1.0523377853	-0.6872976303	-1.6628052873	 0.122242
H	 0.4452286011	-2.7271289633	-0.2821033311	 0.108909
H	-1.2449262541	-2.4368149121	-0.6101133794	 0.108784
H	-0.7898092071	-2.7819804522	-3.1125483945	 0.077067
H	 1.4573374523	-3.604750719	-3.8373485873	 0.10853
H	 2.0809128468	-3.4373027982	-2.135060497	 0.108446
H	 0.3267226087	-5.0473946215	-1.3160570289	 0.112818
H	-0.3141131231	-5.2282644723	-3.0104909958	 0.109638
