18
gdb 127047	3.09593	1.10134	0.82487	2.162	75.32	-0.2444	0.0069	0.2513	1394.0147	0.146648	-439.087113	-439.077959	-439.077015	-439.121763	32.427	
C	 0.0566246636	 1.5079809395	 0.0705227525	-0.393333
C	 0.0280170032	-0.006201249	 0.0061457079	-0.045671
O	 0.7111325901	-0.5039091425	 1.1712832975	-0.272031
C	 0.7859264991	-1.8320414586	 1.2876055881	 0.432334
N	 0.2791783817	-2.6687147866	 0.4116266477	-0.251946
O	 0.5813053361	-3.9372557412	 0.9178109908	-0.19184
C	 1.2541028464	-3.791753871	 2.0720621458	 0.012309
C	 1.4310025007	-2.485633706	 2.3871019714	 0.027884
C	 2.1086052363	-1.8462321676	 3.5541479426	-0.504888
H	 1.0856962654	 1.878056454	 0.0780432243	 0.129928
H	-0.4545347886	 1.9254475776	-0.8018464264	 0.124267
H	-0.4467854836	 1.8690969072	 0.9717263976	 0.129918
H	-0.9955611225	-0.3975162917	 0.0006732252	 0.124975
H	 0.5299684814	-0.3884077064	-0.8898731616	 0.124945
H	 1.5453426532	-4.708460849	 2.562785259	 0.147467
H	 2.9356422547	-1.2045378218	 3.2318145477	 0.139135
H	 1.4157641858	-1.213522772	 4.119233321	 0.139127
H	 2.5111002771	-2.599689715	 4.2358825289	 0.12742
