12
gdb 130564	3.67271	1.21917	0.91533	5.3919	68.43	-0.2847	-0.0927	0.192	1141.1362	0.079699	-431.70834	-431.701074	-431.70013	-431.74086	25.639	
O	 0.0498967615	-0.0719411506	 0.0028939249	-0.303344
C	-0.0336358518	 1.1379382323	 0.007366762	 0.218891
C	 1.1989323566	 1.9622247098	 0.0010389883	 0.229429
N	 2.1612127401	 2.6029507495	-0.0039078565	-0.324509
C	-1.2721608896	 1.896406181	 0.0187961984	 0.115319
C	-2.5541246602	 1.3554056827	 0.0263636373	-0.087444
N	-3.3936175167	 2.3994768816	 0.0359136898	-0.175868
N	-2.7691144762	 3.6045472374	 0.0352064814	-0.208284
C	-1.4821521032	 3.3029309445	 0.0247710308	-0.090579
H	-2.8862782155	 0.3300199819	 0.0254901927	 0.179438
H	-4.4008755338	 2.3787204651	 0.0432408157	 0.292573
H	-0.7386799512	 4.086246515	 0.0218427752	 0.15438
