21
gdb 92541	2.26324	1.76939	1.41145	0.8794	76.98	-0.2469	0.0719	0.3188	1044.5103	0.183457	-424.220434	-424.212077	-424.211133	-424.252974	32.742	
C	 0.4261929204	 1.4512113845	-0.3782628733	-0.405369
C	 0.0326978831	 0.0417198208	 0.0678214709	 0.101733
O	 0.2586427158	-0.9241847973	-0.9778597786	-0.278834
C	 1.4762057879	-1.6054456392	-0.769732912	 0.064571
C	 2.762782001	-0.8701271394	-1.2019075405	-0.106616
O	 3.0277521042	-0.4611737815	 0.1621730393	-0.29966
C	 1.9467492736	-1.2888235879	 0.6644793631	 0.085707
C	 0.7940688773	-0.5164994673	 1.3002957429	-0.016634
C	 1.2171146711	 0.4936622741	 2.3664125304	-0.414723
H	 1.5076330824	 1.5561669202	-0.4883595468	 0.13766
H	-0.0517100829	 1.6750423742	-1.3360375678	 0.119296
H	 0.0854595091	 2.193190591	 0.3511420959	 0.112325
H	-1.047857676	 0.0265623388	 0.2502579504	 0.080843
H	 1.359811591	-2.6387549688	-1.1018898563	 0.084862
H	 3.5559409271	-1.5262519395	-1.5828800935	 0.100215
H	 2.6231821368	-0.0228522253	-1.8805784924	 0.109519
H	 2.3279548159	-2.1045781952	 1.2880815926	 0.073067
H	 0.1462205583	-1.2740946443	 1.761299166	 0.080233
H	 1.9606205676	 1.1907416248	 1.973725201	 0.141119
H	 0.3608172613	 1.068851498	 2.7324317722	 0.115036
H	 1.661764125	-0.0190957508	 3.2252788164	 0.115653
