15
gdb 25501	4.44081	0.97636	0.87058	2.3811	75.63	-0.2493	-0.0607	0.1886	1283.0311	0.113635	-416.863073	-416.855449	-416.854505	-416.89655	27.183	
O	-0.4421182089	 0.7249105947	 0.9140296963	-0.229033
C	 0.0833427211	 1.029739704	-0.1225075812	 0.161615
C	 1.4072123753	 1.7834115627	-0.2204331377	-0.370638
C	 1.3533981905	 2.8733164166	-1.2592346759	 0.290177
N	 1.2196684337	 2.4943553799	-2.5361216062	-0.290317
C	 1.1529146992	 3.4657554293	-3.4467213215	-0.019699
C	 1.224342714	 4.8115425543	-3.0966701204	-0.009607
N	 1.3538851171	 5.199888116	-1.8267399185	-0.228383
C	 1.4115827602	 4.2287180796	-0.9170027878	-0.052751
H	-0.3603578086	 0.7721915893	-1.1080216285	 0.101913
H	 1.6709343908	 2.1633504597	 0.7686909969	 0.13183
H	 2.1612762389	 1.0458477972	-0.5261907487	 0.150072
H	 1.0435602628	 3.1627655741	-4.4849049872	 0.121638
H	 1.1765325345	 5.590644492	-3.8525547459	 0.12204
H	 1.5127924397	 4.5320288106	 0.1223601664	 0.121142
