20
gdb 79749	2.3476	1.73676	1.34382	2.7888	77.68	-0.2216	0.0743	0.2959	1042.6393	0.171663	-403.096826	-403.088669	-403.087725	-403.128874	32.9	
C	-0.0632066236	 1.5474724277	 0.0434850845	-0.436966
C	 0.0974030559	 0.0408346616	-0.0545107702	-0.074669
C	 0.6723143156	-0.8668910687	-1.1624034545	-0.0806
N	 1.5559227257	-0.4965473681	-2.2574888823	-0.099328
C	 1.9132064469	 0.9197632636	-2.4252013876	-0.254733
C	 2.8060996947	 0.0181252417	-1.6518910859	-0.00908
C	 2.7187991117	-0.0784354198	-0.1271969878	-0.335521
C	 1.362455834	-0.7469610784	 0.1697528387	 0.35866
O	 1.3677834066	-1.8173961667	 1.0701843264	-0.460942
H	 0.8854150937	 2.0877739221	 0.0068354208	 0.126312
H	-0.7094260712	 1.9450308227	-0.7463482466	 0.129798
H	-0.5331174572	 1.7980447486	 1.001037934	 0.11371
H	-0.7550284981	-0.4813225789	 0.3787771905	 0.092443
H	 0.0698549539	-1.7411153838	-1.3830479859	 0.103932
H	 2.1896556594	 1.1860311427	-3.4425899471	 0.112781
H	 1.341178258	 1.6796582629	-1.9125734244	 0.11795
H	 3.7299333187	-0.3182582555	-2.1159050353	 0.092537
H	 3.4970232181	-0.7466600343	 0.2500042899	 0.120552
H	 2.8491427161	 0.8885027529	 0.3717204815	 0.103398
H	 1.235377461	-1.4643374323	 1.9564029516	 0.279765
