13
gdb 128441	4.8069	1.07064	0.88048	3.0572	63.23	-0.2946	-0.0819	0.2127	1222.1443	0.08827	-489.882335	-489.874383	-489.873439	-489.91586	27.064	
C	-0.0587625118	 1.3210506711	 0.0878909683	-0.246121
O	 0.0226136529	-0.1096755975	-0.0278268207	-0.223578
C	 0.642928276	-0.5570831913	-1.1223328672	 0.375679
O	 1.1229572266	 0.1283523425	-1.9906958444	-0.358393
C	 0.684965463	-2.0357331128	-1.1676971487	 0.302443
C	 1.2234599366	-2.8579237083	-2.1096579695	-0.158908
N	 0.9990446122	-4.1430294462	-1.6850140285	-0.113348
N	 0.3817482147	-4.1423744521	-0.5858722841	 0.005934
O	 0.1526519452	-2.7895639191	-0.2052389902	-0.203013
H	 0.9422960785	 1.7575309561	 0.1141882347	 0.151214
H	-0.6086659245	 1.7398719299	-0.7579910118	 0.151223
H	-0.5862991166	 1.5075535641	 1.0222235808	 0.148109
H	 1.7355841171	-2.6226692065	-3.0258084287	 0.168758
