16
gdb 67119	2.82024	1.74421	1.45159	4.5989	77.27	-0.2357	-0.0861	0.1497	943.8474	0.12335	-400.656393	-400.649085	-400.648141	-400.687886	28.826	
C	-0.1651141846	 1.6439541659	-0.2505078328	-0.515417
C	-0.0151141015	 0.1732926102	-0.0257539178	 0.299813
C	 0.5123341863	-0.9470703736	-0.8100163978	-0.093073
C	 1.5232506021	-1.351966594	 0.3592811521	-0.279895
C	 0.5102818856	-0.5968630905	 1.200920403	 0.041482
C	-0.5014205215	-1.2623544795	 1.7986656395	-0.246835
C	-1.5435838721	-1.4205712201	 0.7253323403	 0.384256
O	-2.5419330663	-2.0815566536	 0.7422821028	-0.307016
N	-0.9987422284	-0.8156941705	-0.5005898003	-0.208299
H	 0.7909566497	 2.1613605238	-0.1220330512	 0.128945
H	-0.5314671458	 1.8302430616	-1.2630643023	 0.145038
H	-0.8807054862	 2.0722407138	 0.4588274533	 0.13999
H	 0.7431666235	-1.0191010707	-1.8680448936	 0.124552
H	 1.6992320205	-2.3996078066	 0.6113045635	 0.12736
H	 2.4637617001	-0.8410985754	 0.1293329567	 0.132159
H	-0.3888126514	-2.0708095408	 2.5130532947	 0.12694
