15
gdb 132622	3.12691	1.35382	0.94664	2.5236	74.9	-0.187	-0.0115	0.1754	1152.9857	0.114074	-458.151732	-458.143857	-458.142913	-458.183714	30.758	
N	 0.0006779071	 1.423155881	 0.130537989	-0.596021
C	 0.0150962948	 0.0225057877	 0.0486688958	 0.270439
C	-1.1602834753	-0.729844862	 0.0443872549	-0.071235
N	-1.1987671686	-2.0654311968	 0.0355691323	-0.328633
C	-0.0592665253	-2.748864981	 0.0340820357	 0.243826
N	-0.1035035298	-4.1361953071	 0.0924680482	-0.573823
C	 1.1675117416	-2.0691539437	 0.023313084	 0.230427
F	 2.2994696851	-2.7937777919	-0.0083369967	-0.091073
C	 1.2209238192	-0.6953286805	 0.0308475393	-0.278154
H	 0.7777228992	 1.8697369439	-0.3372351556	 0.245614
H	-0.8712030288	 1.833719239	-0.1752585635	 0.246618
H	-2.1243588725	-0.2243403815	 0.0462245893	 0.091747
H	-0.9892533797	-4.5104816429	-0.2162421725	 0.252414
H	 0.6953125454	-4.6032315808	-0.3101606697	 0.251555
H	 2.1842675576	-0.1966831034	 0.0279544494	 0.106298
