23
gdb 99029	3.27551	0.89852	0.84111	3.4304	84.24	-0.2362	0.0639	0.3001	1537.3355	0.203301	-421.659457	-421.647956	-421.647012	-421.695954	41.722	
C	 0.1563662074	 1.4323328688	 0.0312151718	-0.320421
N	-0.0046564224	-0.0041195169	-0.1021220185	-0.358111
C	-1.2649017152	-0.5665320825	 0.02407916	 0.498941
O	-2.282516971	 0.1086718488	 0.0670480847	-0.41446
N	-1.2464013836	-1.9446597552	 0.0878211628	-0.39458
C	-2.4611829516	-2.7848093984	 0.0184272495	 0.289727
C	-3.2443661931	-2.5219159737	-1.2822138014	-0.401481
C	-1.9721715933	-4.2402868257	 0.0501188562	-0.423798
C	-3.3482442986	-2.5111950216	 1.2452120759	-0.395235
H	 1.0103240847	 1.7682066816	-0.5642897739	 0.117056
H	-0.7520434147	 1.9055347861	-0.3415412546	 0.165612
H	 0.3044632563	 1.752218538	 1.0718243848	 0.116911
H	 0.7768102195	-0.570029275	 0.1895052661	 0.232474
H	-0.4096943005	-2.3880346614	-0.2598633571	 0.226154
H	-2.6221368889	-2.7365090878	-2.1579513029	 0.098096
H	-4.1306512166	-3.1631516181	-1.3313589646	 0.104685
H	-3.5616600602	-1.4790094928	-1.3273678439	 0.151737
H	-1.3961354266	-4.4412387411	 0.9592405335	 0.115933
H	-2.8235999427	-4.9256571584	 0.0268703835	 0.122998
H	-1.3407915695	-4.467153995	-0.8176740322	 0.106624
H	-3.6673225805	-1.4689167632	 1.2577992741	 0.15429
H	-4.2337437225	-3.1542877364	 1.2177497979	 0.102462
H	-2.7991817662	-2.7207948999	 2.1685647584	 0.104387
