15
gdb 33559	2.17023	1.66857	1.22096	1.8205	79.27	-0.2531	-0.0008	0.2523	1061.6498	0.109569	-383.405413	-383.396855	-383.395911	-383.438774	31.999	
C	 0.0202536597	-1.1148821883	 0.1657198026	-0.464246
C	-0.0372211958	 0.0793038237	 0.0517904669	 0.340434
C	-0.0695612297	 1.5457684967	-0.0837196765	-0.014756
O	-0.6919732594	 2.1325383131	 1.0728536879	-0.283564
C	 0.2170191882	 3.0057464221	 1.7435882891	-0.132565
C	 1.4843883369	 2.950446699	 0.9438498089	-0.091952
C	 1.3387478351	 2.1330693182	-0.0876246132	-0.113511
C	-0.8099650576	 1.9235681845	-1.2998786953	 0.340469
C	-1.3894568737	 2.2496444092	-2.2999930775	-0.464309
H	 0.0579462373	-2.1715572634	 0.2668886397	 0.201858
H	-0.2090454215	 4.0190383427	 1.7856114751	 0.117528
H	 0.358941181	 2.6641672626	 2.7795515257	 0.117539
H	 2.3730858727	 3.5121453003	 1.2018845525	 0.118
H	 2.0554961125	 1.8723945377	-0.8528457798	 0.127214
H	-1.9128073857	 2.5319215919	-3.180130356	 0.20186
