23
gdb 78261	2.41929	1.38858	1.10604	0.1757	90.27	-0.1977	0.0815	0.2792	1256.4799	0.204479	-351.087471	-351.077974	-351.07703	-351.121037	37.041	
C	 0.0925743965	 1.5420478978	-0.0119812975	-0.419398
C	 0.0768357358	 0.0255809931	-0.0293257566	-0.029598
C	 1.4082129602	-0.6450159575	-0.2314545218	-0.054151
C	 0.7512479133	-0.6476483857	 1.1419613392	-0.12167
C	 0.7796448594	-2.2075616337	 1.157460561	 0.311755
C	 1.2324111319	-2.9226851821	 2.3988026652	-0.487937
C	 0.0753203522	-2.8920360854	 0.0118223265	-0.065226
C	-1.31389787	-2.6713661246	-0.5888056921	-0.435495
C	 1.3990674193	-2.1945636032	-0.241851328	-0.149305
H	 1.0176922742	 1.9222298648	 0.434962311	 0.113355
H	 0.0216086987	 1.9481747664	-1.0268680083	 0.116381
H	-0.7464516996	 1.9401345505	 0.5690392792	 0.116217
H	-0.8182744235	-0.3896631937	-0.4694070328	 0.078145
H	 2.2782298579	-0.0815205206	-0.5466673404	 0.080308
H	 1.0418397797	-0.0777823461	 2.0170495719	 0.078005
H	 0.4621727526	-2.8938844252	 3.1807200975	 0.115389
H	 1.4549952044	-3.9743382493	 2.1906124365	 0.113433
H	 2.1379547864	-2.4646053975	 2.815322331	 0.114526
H	 0.2918540831	-3.9583675572	 0.0875401353	 0.083794
H	-1.2712157228	-2.2036078549	-1.5769284878	 0.127534
H	-1.8166253922	-3.6358709123	-0.712232026	 0.106536
H	-1.9540446431	-2.0584637788	 0.0512400736	 0.128459
H	 2.2581630155	-2.756491805	-0.5915067266	 0.078943
