19
gdb 87662	3.41044	1.13046	0.97462	4.0018	85.14	-0.2326	-0.041	0.1917	1256.5224	0.159342	-385.92183	-385.913523	-385.912578	-385.954805	32.147	
C	-0.0792642352	 1.522863538	-0.073291819	-0.411662
C	 0.0200381483	 0.0166495164	 0.0095837953	-0.039728
C	 1.3243246721	-0.6901136667	-0.2126239081	-0.339094
C	 0.7171633573	-0.6654644803	 1.1826634292	 0.313542
C	 1.3434435039	 0.0805368786	 2.3560955411	-0.435564
C	 1.0812950234	-0.8252653189	 3.5783588206	 0.371636
O	 1.4288705469	-0.5931028418	 4.7132608616	-0.332944
C	 0.3356849198	-2.0029872822	 3.085279633	-0.213603
C	 0.1451507272	-1.9021602816	 1.7606129554	-0.098335
H	 0.8416975149	 2.0062241962	 0.2660520037	 0.123014
H	-0.2563183173	 1.8399685185	-1.1066980599	 0.123307
H	-0.9037285205	 1.9050876212	 0.5384533616	 0.12435
H	-0.8622279063	-0.5059434069	-0.3532361168	 0.088
H	 1.3322555471	-1.6314631758	-0.7522336293	 0.115133
H	 2.210169014	-0.0808366413	-0.3642639922	 0.118866
H	 2.4209903187	 0.2360118587	 2.2469901366	 0.131876
H	 0.8938819736	 1.061358017	 2.5395720153	 0.133611
H	 0.0134218396	-2.8066714713	 3.7339185856	 0.113856
H	-0.3700485776	-2.6300311778	 1.1408504662	 0.113738
