22
gdb 117710	3.5203	0.79406	0.76188	2.8761	82.19	-0.2557	0.0289	0.2846	1615.3669	0.190448	-441.477286	-441.46609	-441.465145	-441.513915	39.485	
C	 0.0434034116	 1.3964979638	-0.1023866556	-0.226274
O	 0.0160139234	-0.0097760597	-0.0234913465	-0.239609
C	 0.6416294811	-0.6347163099	-1.1199106334	-0.078795
C	 0.5561262963	-2.158678772	-0.9373642343	 0.315877
C	 1.3091711865	-2.5829259766	 0.3269607488	-0.418453
C	-0.9077937637	-2.6083520053	-0.9229922819	-0.418405
O	 1.2344375883	-2.6269729765	-2.131032412	-0.233353
C	 1.3675626136	-3.9469539404	-2.3416403949	 0.120957
N	 1.9561672999	-4.3583783237	-3.3824944304	-0.446853
H	 1.074253928	 1.7824380676	-0.1235410218	 0.109647
H	-0.4791326287	 1.7635455201	-0.9992016835	 0.109652
H	-0.4619254968	 1.7830305622	 0.7857327049	 0.129
H	 0.1525973492	-0.3574776175	-2.0670474136	 0.099318
H	 1.7001949303	-0.3397210049	-1.194133592	 0.099295
H	 0.9033087852	-2.0432411971	 1.1854482934	 0.143117
H	 1.2146643577	-3.6551293293	 0.519907123	 0.112009
H	 2.3714128304	-2.3392407612	 0.2330449893	 0.128014
H	-1.3814982697	-2.3820180258	-1.8826437429	 0.12804
H	-1.0051351196	-3.6806793339	-0.7321283375	 0.111985
H	-1.4415824382	-2.0704426863	-0.1364138525	 0.143102
H	 0.9358538838	-4.5803412644	-1.5587874863	 0.087383
H	 1.9709944214	-5.3763008191	-3.3874439201	 0.224348
