15
gdb 48045	7.68602	0.46421	0.44018	3.5625	81.44	-0.2707	-0.0653	0.2053	2299.9492	0.107854	-420.542182	-420.532055	-420.53111	-420.579244	33.216	
O	-0.0101534672	-0.1030613898	 0.0013559827	-0.227527
C	 0.0270087469	 1.1056862173	 0.0068983419	 0.021819
C	 1.239801381	 1.8828565344	-0.0002625606	 0.092788
C	 2.233108569	 2.5685860572	-0.0058018616	 0.052404
C	 3.4579280036	 3.3498245517	-0.0128265981	-0.206513
O	 3.1542660338	 4.7299434018	-0.0029219385	-0.240251
C	 4.3307870333	 5.5245531538	-0.0094326617	-0.204521
C	 3.9713459254	 6.9340131513	 0.0015384733	 0.284396
C	 3.705338091	 8.1044834652	 0.0103454292	-0.404472
H	-0.8978608381	 1.7169205908	 0.0179579583	 0.106537
H	 4.0685866845	 3.073062975	 0.8647142776	 0.134396
H	 4.0525983555	 3.0822173638	-0.9040817012	 0.134388
H	 4.9562107531	 5.2907969373	 0.8690403394	 0.125087
H	 4.9399266506	 5.3004096953	-0.9017444076	 0.125094
H	 3.4624084476	 9.1385734848	 0.0181655969	 0.206375
