17
gdb 57175	2.80424	1.25551	0.90779	1.3199	73.93	-0.2587	-0.0818	0.1769	1251.1382	0.133791	-455.175892	-455.166044	-455.1651	-455.212329	33.85	
C	-1.5140762762	 0.5410833172	-0.4800561518	-0.330476
N	-0.2663758862	-0.0748288947	 0.0022073418	-0.150939
C	-0.2493185542	-0.3963995149	 1.388637797	 0.357632
C	 0.9342220481	-1.1366910968	 1.9626391798	-0.445464
N	-1.2853816798	-0.0539506269	 2.0475023735	-0.492988
C	 0.8218933604	-0.2339212798	-0.819450559	 0.32686
O	 1.9505075002	-0.5340324758	-0.4683340258	-0.351031
C	 0.6822811244	-0.1384006828	-2.3531580681	 0.089421
O	-0.2795102572	-0.420651113	-3.014690629	-0.234468
H	-1.4203321861	 0.794775558	-1.529184839	 0.154268
H	-2.3462058134	-0.1520843894	-0.3454456261	 0.149543
H	-1.7240993535	 1.43091014	 0.1147444625	 0.151712
H	 1.8334183491	-0.5191937226	 1.9591143616	 0.163628
H	 0.6921169477	-1.4252868767	 2.9882150926	 0.11327
H	 1.174375416	-2.0308239443	 1.3837973747	 0.151801
H	-1.1952371531	-0.3470305007	 3.0182597439	 0.225012
H	 1.6743678039	 0.0925804032	-2.7900253285	 0.122219
