21
gdb 109712	2.75444	1.13775	0.99811	2.8757	79.7	-0.2386	0.0709	0.3095	1305.5413	0.180796	-424.172938	-424.163247	-424.162302	-424.207689	34.932	
C	 0.0865043956	 1.1979891492	-0.456786726	-0.233128
O	-0.1182102616	 0.1018769561	 0.4149518874	-0.240441
C	-1.3474587518	-0.523974158	 0.2264448858	 0.046079
C	-1.4673578093	-1.6966863936	-0.7361815056	-0.130688
C	-0.2936363456	-2.1462507187	-1.5792101394	-0.414174
C	-1.4562427247	-1.9106854371	 0.7566478184	 0.228422
C	-0.4252530665	-2.6331407407	 1.6169470316	-0.129852
O	-1.4737352086	-3.1460094276	 2.4728019492	-0.278407
C	-2.5042550613	-2.5121924515	 1.6850763816	-0.144238
H	 1.0661062512	 1.6188653345	-0.2190201303	 0.129547
H	 0.0714832861	 0.8900901778	-1.5112252957	 0.112568
H	-0.6796758354	 1.9740102897	-0.3102232202	 0.109498
H	-2.2092976639	 0.1401171026	 0.3290780216	 0.081807
H	-2.4418260475	-1.8002578421	-1.210711485	 0.083232
H	 0.6538516702	-1.8943296928	-1.0956853924	 0.131996
H	-0.3139202787	-3.2294429718	-1.7408155532	 0.120032
H	-0.3067291319	-1.6647312333	-2.5627300585	 0.116546
H	 0.1329718828	-3.4415086304	 1.1266977161	 0.097977
H	 0.2739794772	-1.9850030772	 2.1572945827	 0.115657
H	-3.0958250176	-1.7984285973	 2.2743067332	 0.100155
H	-3.1808665291	-3.2465571379	 1.2263640686	 0.097413
