23
gdb 114358	2.85822	1.10246	1.06903	1.5141	85.44	-0.2362	0.0803	0.3165	1321.7852	0.205696	-388.269151	-388.259939	-388.258995	-388.30326	35.32	
C	 0.1419421337	 1.3531610473	-0.354025296	-0.381415
C	 0.0191203844	-0.1500417442	-0.0850465454	-0.188927
C	-1.4222242916	-0.6110201082	 0.0890746672	 0.032491
C	-2.4012312865	-0.5530409142	-1.1336672595	-0.266286
C	-2.7922459118	-2.0414769826	-0.8993792448	-0.107122
C	-1.9376904509	-3.0978056452	-1.6293716467	 0.167328
C	-1.4897235861	-2.9347143547	-3.0660007736	-0.411706
O	-0.860301109	-2.9321257423	-0.6654844138	-0.317128
C	-1.6965083638	-2.1289336633	 0.1988735135	 0.095102
H	 1.1870154073	 1.647508029	-0.4922289532	 0.111614
H	-0.4055427085	 1.6423920536	-1.2578904088	 0.114971
H	-0.2623563161	 1.9419364675	 0.4773397173	 0.110147
H	 0.4733316322	-0.7204936274	-0.9023459199	 0.108657
H	 0.588281904	-0.4092967612	 0.8176166569	 0.09314
H	-1.8745929873	-0.1033466247	 0.9505521301	 0.06491
H	-3.2305048823	 0.1476353512	-1.0167534896	 0.101051
H	-1.9234327999	-0.3482432879	-2.0954167336	 0.099607
H	-3.846739462	-2.2643694611	-0.7420402361	 0.070504
H	-2.3832638995	-4.096955983	-1.502431452	 0.070334
H	-1.0422250615	-1.954249253	-3.2466903132	 0.123025
H	-0.7417123377	-3.6960408474	-3.3096746248	 0.128314
H	-2.3386378236	-3.0638996017	-3.7463203263	 0.116164
H	-1.8150852334	-2.5800488965	 1.1890833324	 0.065225
