23
gdb 118253	5.15756	0.60175	0.56489	0.1388	82.75	-0.2548	0.0683	0.323	1993.544	0.203799	-425.405121	-425.394236	-425.393291	-425.442197	39.077	
O	-0.0772322888	 1.439885951	 0.0807241536	-0.424423
C	 0.0105336199	 0.0234281605	 0.1588643074	-0.077085
C	-1.3796239063	-0.5438340309	-0.0966941668	-0.186745
C	-1.4301530381	-2.0732830314	-0.0095702292	 0.116678
O	-0.9665545329	-2.5385653659	 1.2579474333	-0.425956
C	-2.8240641809	-2.6209131873	-0.3517626983	-0.230871
C	-2.9051625949	-4.1322391903	-0.355575657	 0.047798
C	-3.2367282449	-4.8960639234	 0.8985048598	-0.240758
C	-4.2372410662	-4.8297151204	-0.2290278132	-0.284315
H	 0.7878419112	 1.8038402782	 0.2895321344	 0.284446
H	 0.714443079	-0.3738666103	-0.5914655268	 0.081523
H	 0.3646275025	-0.3080904859	 1.144615245	 0.097664
H	-2.0769256799	-0.1102228418	 0.6338289669	 0.092954
H	-1.7214511546	-0.216404929	-1.085717741	 0.104094
H	-0.7083008565	-2.493180603	-0.7238094446	 0.084574
H	-1.5963898966	-2.241498096	 1.924365693	 0.27537
H	-3.5534613185	-2.2136666172	 0.3647908515	 0.081569
H	-3.1162090125	-2.229015925	-1.3353286355	 0.099176
H	-2.1864073111	-4.6095235822	-1.017923949	 0.079827
H	-2.7245405847	-5.8332280705	 1.0849482163	 0.111395
H	-3.4498882255	-4.3266430856	 1.7971192849	 0.097232
H	-5.1199908025	-4.2136895581	-0.0892946317	 0.106583
H	-4.4117314972	-5.7222580755	-0.819733943	 0.10927
