21
gdb 11674	3.35944	1.61761	1.35777	1.9426	78.71	-0.2204	0.0811	0.3015	1029.5731	0.189061	-329.057308	-329.049001	-329.048057	-329.089922	31.807	
C	 0.4215127788	 1.2979309183	 0.2743143945	-0.379767
C	 0.1687411895	-0.2063394603	 0.1178329626	-0.319934
C	-1.2975126912	-0.5597236836	 0.0091851414	 0.317373
C	-2.4458351266	-0.332322686	 1.0256553624	-0.203292
N	-3.1886871355	-1.023329175	-0.1296077057	-0.16096
C	-2.356135955	-0.0852009876	-1.0209522239	-0.218771
C	-1.956577034	-1.9615755073	-0.159310454	 0.044847
C	-1.754767555	-2.8563517514	-1.3678142421	-0.44351
H	 1.4913130717	 1.513457726	 0.3507131759	 0.114314
H	 0.0292466493	 1.8564390799	-0.582163678	 0.119018
H	-0.0629262213	 1.689703637	 1.1749564728	 0.119061
H	 0.690766694	-0.5780635363	-0.7739851279	 0.099222
H	 0.6006148348	-0.7460950099	 0.9712168792	 0.097916
H	-2.4383620263	-0.9149577401	 1.9521705051	 0.093391
H	-2.7849115665	 0.692076014	 1.2024660011	 0.094844
H	-2.6864323339	 0.9560719038	-0.9682881167	 0.096318
H	-2.2731357259	-0.404574618	-2.0605731404	 0.097223
H	-1.9335580565	-2.5787775588	 0.747655036	 0.064069
H	-1.6720844591	-2.3175990769	-2.3142532661	 0.11818
H	-0.8402439194	-3.4458453399	-1.240556621	 0.118883
H	-2.5917171718	-3.5575900879	-1.4523687654	 0.131577
