23
gdb 110110	2.13259	1.16724	0.91489	0.7473	92.35	-0.2373	0.0498	0.2871	1438.2645	0.203532	-351.122438	-351.111739	-351.110795	-351.158354	39.484	
C	-0.0239947575	 1.5316497143	 0.4245720307	-0.377594
C	 0.0126339994	 0.1360202098	-0.2096831358	-0.199365
C	-1.3409239248	-0.5433359677	-0.1778408851	-0.034422
C	-1.5335040339	-2.0298151504	-0.3007995734	-0.03442
C	-0.395616029	-3.0152680481	-0.4703618399	-0.199353
C	-0.7978742076	-4.4398730805	-0.0702500266	-0.377607
C	-1.8074474576	-1.3445639354	 1.0415404927	-0.218484
C	-0.9363728585	-1.5500352398	 2.1605010247	 0.351172
C	-0.21827981	-1.7216330415	 3.1120501635	-0.489779
H	 0.9549560032	 2.0174566461	 0.3666164751	 0.109256
H	-0.7483269024	 2.1792184393	-0.0822291814	 0.109556
H	-0.3091684872	 1.4702539677	 1.4793444794	 0.129189
H	 0.3482646199	 0.2115981951	-1.2522368318	 0.094934
H	 0.7543683679	-0.4753125914	 0.3121607979	 0.111549
H	-2.1311949967	 0.0580539551	-0.623186009	 0.084957
H	-2.4407766692	-2.3314503271	-0.8208005693	 0.084952
H	-0.0677992676	-3.0033244912	-1.5180592524	 0.094935
H	 0.4653434072	-2.7046152793	 0.1283565797	 0.111564
H	-1.0807967451	-4.4800790082	 0.9861509837	 0.129174
H	-1.6514665412	-4.7919850538	-0.6603745434	 0.109562
H	 0.027265694	-5.1416529188	-0.2263284811	 0.109261
H	-2.8533753107	-1.2314442228	 1.3121538007	 0.107413
H	 0.4112630472	-1.8727503616	 3.9533122712	 0.19355
