21
gdb 64132	3.22522	1.09022	1.01835	1.6942	83.96	-0.2522	0.0358	0.288	1287.8793	0.180947	-387.067544	-387.057996	-387.057052	-387.102179	36.428	
C	 0.1590518221	 1.3843649724	-0.2123925367	-0.427464
C	-0.0991723691	-0.1074791554	 0.0582002201	 0.301857
C	-1.6027272342	-0.3938467247	 0.1068063092	-0.446917
C	 0.6320084936	-0.9649738537	-0.9917996905	-0.110033
O	 1.9954618851	-0.9611294751	-0.5940575515	-0.251751
C	 2.0279961989	-1.0677449931	 0.8351762295	-0.069237
C	 0.6395302279	-0.5677295983	 1.3428464387	-0.29082
C	 2.3239002062	-2.4380019268	 1.2611639248	 0.344779
C	 2.561215233	-3.5620045741	 1.6155773083	-0.471029
H	 1.2297258871	 1.5858704539	-0.311896647	 0.128363
H	-0.3305175536	 1.7043675597	-1.1388347545	 0.110998
H	-0.2315553837	 2.0039696934	 0.6019683074	 0.110273
H	-2.0853207858	-0.1203005327	-0.8383094523	 0.114887
H	-1.8018135672	-1.4546296976	 0.2921737376	 0.115373
H	-2.0890904746	 0.1825878688	 0.9010385391	 0.117082
H	 0.2293502812	-1.9907099094	-1.0059587653	 0.08954
H	 0.5835952112	-0.5571262815	-2.0055546436	 0.106066
H	 2.8381759648	-0.4124412906	 1.1737224349	 0.108427
H	 0.7479779428	 0.2383543049	 2.0723091851	 0.10826
H	 0.1025291705	-1.3862703625	 1.8270693543	 0.113259
H	 2.7805775036	-4.5542528177	 1.9240220422	 0.198087
