13
gdb 26621	2.46167	1.91744	1.07918	3.2555	66.89	-0.2048	-0.044	0.1608	1004.1811	0.090516	-489.950456	-489.943008	-489.942064	-489.98219	28.403	
N	-0.0336126118	 1.4204003794	 0.1568322633	-0.589823
C	-0.047818898	 0.0369551574	 0.055102379	 0.047628
C	-1.1790912048	-0.730925897	 0.0332973827	 0.355836
O	-2.3894992169	-0.1331710228	 0.0420861665	-0.423096
N	-1.1682524012	-2.0977655844	 0.0002104238	-0.349379
C	-0.0193029847	-2.6658263245	-0.0189803438	 0.117857
O	 1.1604282433	-2.0368696697	-0.0200020658	-0.195175
C	 1.2292942705	-0.6309853391	 0.0022395099	 0.40935
O	 2.3133234118	-0.1071668156	-0.0306423883	-0.362259
H	 0.8442067076	 1.8205318601	-0.1460081713	 0.267046
H	-0.8461076881	 1.8818500389	-0.2251832027	 0.261124
H	-3.0507795005	-0.8370810783	 0.015493563	 0.306918
H	 0.0875529328	-3.7442555144	-0.0387921164	 0.153973
