24
gdb 100085	3.08057	0.92207	0.85119	3.4628	86.71	-0.236	0.037	0.273	1527.5765	0.21425	-405.600949	-405.589259	-405.588314	-405.638774	42.219	
C	-0.1356216118	 1.4557053079	 0.2257994705	-0.398123
C	 0.0383130308	-0.0386469338	-0.0563382521	-0.214682
C	 0.7773893935	-0.4065926449	-1.3654941814	 0.296549
C	 0.0144594009	 0.1084050871	-2.5996331206	-0.411247
C	 2.2201039707	 0.1310124193	-1.3609422647	-0.411363
N	 0.8030664638	-1.885998052	-1.3846969222	-0.345367
C	 1.3559580743	-2.6690537649	-2.352841441	 0.415382
C	 1.241865891	-4.1700963253	-2.1093419229	-0.476613
O	 1.90911136	-2.2302349486	-3.3490355162	-0.389402
H	 0.826038302	 1.9694776663	 0.3103385854	 0.125015
H	-0.7165840443	 1.9534188146	-0.5556478609	 0.125044
H	-0.6677690673	 1.5991863695	 1.1710765698	 0.116238
H	 0.583781466	-0.4974640507	 0.7797543273	 0.09413
H	-0.9520888653	-0.5134589045	-0.08296786	 0.09425
H	 0.0133148768	 1.2015571747	-2.6276063395	 0.1101
H	 0.4909818989	-0.2605814203	-3.5086183508	 0.15575
H	-1.0245914232	-0.2371528974	-2.5840680961	 0.102106
H	 2.7528484864	-0.1983395341	-0.4626008153	 0.102005
H	 2.7540341568	-0.2374350083	-2.2376856854	 0.15569
H	 2.2276645086	 1.2242502202	-1.3841933406	 0.110163
H	 0.372471935	-2.3524445186	-0.6035987773	 0.235711
H	 0.6978857778	-4.4360578606	-1.1989914786	 0.107542
H	 0.7424831788	-4.6252954389	-2.9684546355	 0.150668
H	 2.2488061897	-4.5929439666	-2.0569111418	 0.150453
