16
gdb 43299	3.07491	1.85298	1.40339	3.6942	74.24	-0.2371	-0.0622	0.1749	912.6992	0.127068	-400.732046	-400.72558	-400.724636	-400.76277	26.232	
O	 0.0174010998	-0.0301064922	 0.2427764207	-0.332255
C	-0.0397098611	 1.1627008423	 0.0223894367	 0.403934
C	-1.3055382053	 1.9090058824	-0.0879498088	-0.211322
C	-1.2810715058	 3.2091874005	-0.4148530241	-0.020676
C	-0.0368967785	 3.9172736484	-0.7756019177	-0.071322
C	 1.1491657973	 4.1280201129	 0.1137432498	-0.033222
C	 1.3398986774	 3.0278635378	 1.1429023519	-0.275235
C	 1.212766937	 2.0234924557	-0.0451884245	-0.102182
N	 1.2061761984	 3.1680185766	-1.0524200945	-0.157385
H	-2.2253502849	 1.3686400641	 0.1064770839	 0.115848
H	-2.2027326285	 3.7815704997	-0.4841039033	 0.115822
H	-0.1767329299	 4.7165634873	-1.4998185288	 0.108739
H	 1.6766957657	 5.0770371031	 0.099647181	 0.103609
H	 2.3475115369	 3.0246262707	 1.5606959438	 0.12966
H	 0.6135683692	 2.9587516682	 1.9575762475	 0.11783
H	 2.0824264721	 1.3873359924	-0.2011481537	 0.108158
