23
gdb 58325	3.72649	0.70508	0.62165	4.1903	84.15	-0.276	0.01	0.286	1826.5113	0.202827	-425.459419	-425.448232	-425.447288	-425.49708	39.444	
C	 0.1081129673	 1.5044624358	 0.067163394	-0.398114
C	-0.0520211191	-0.022041616	-0.0190899094	 0.039366
C	-1.5436444642	-0.3820571093	 0.0977475967	-0.400713
C	 0.6069816568	-0.5976216649	-1.3011531535	 0.034507
C	 2.0861223547	-0.2078688599	-1.4391497962	-0.419174
C	 0.4610892106	-2.1232464715	-1.3533348684	-0.095808
O	 0.9686815841	-2.6269542665	-2.5991225505	-0.180221
C	 1.8347207265	-3.6546345369	-2.5737187187	 0.171031
O	 2.2760178452	-4.1556116398	-3.5640732482	-0.27677
H	 1.1544534463	 1.8124654142	 0.1248956659	 0.119106
H	-0.3400850945	 1.9952611574	-0.8051876559	 0.115431
H	-0.3975472861	 1.8900045844	 0.9580828358	 0.113148
H	 0.4704240651	-0.460260793	 0.8451903368	 0.07148
H	-2.0978608683	-0.0504060786	-0.7884715659	 0.118149
H	-1.7165808992	-1.4546313776	 0.2187357071	 0.115216
H	-1.9867365396	 0.1138518347	 0.9670108265	 0.115212
H	 0.0617786136	-0.1957678799	-2.1671520845	 0.088117
H	 2.6564942325	-0.5076082128	-0.5509600385	 0.10936
H	 2.5328836623	-0.6939454612	-2.3095747108	 0.136289
H	 2.2101990678	 0.8689775563	-1.5682216476	 0.124032
H	 1.0021332646	-2.5894901324	-0.5172946224	 0.104578
H	-0.5857795718	-2.4289196349	-1.2954844448	 0.120794
H	 2.0898392954	-3.9752710375	-1.5439762975	 0.074985
