14
gdb 29427	6.49482	0.83984	0.76754	4.4944	67.22	-0.2071	-0.011	0.1961	1394.8404	0.100402	-473.856041	-473.847798	-473.846854	-473.889876	29.463	
N	 0.0068057878	 1.3442631364	 0.379191209	-0.60482
C	-0.0139937585	-0.0106791012	 0.0374802433	 0.251185
C	-1.0909535816	-0.8054392325	-0.2222775837	-0.096429
O	-0.6778083666	-2.1076874687	-0.4295778691	-0.180175
C	 0.6603250493	-2.10179548	-0.2947482367	 0.449176
O	 1.3033002139	-3.273064562	-0.5261719249	-0.217958
C	 0.9477426804	-4.3553935732	 0.2424419473	 0.160378
O	 1.4109799948	-5.4317314769	 0.0485059069	-0.245299
C	 1.1428871819	-0.8685593416	-0.0078743126	-0.38112
H	 0.811157303	 1.8333967285	 0.0093834263	 0.250359
H	-0.8380611877	 1.835919615	 0.1199229773	 0.24787
H	-2.1515883476	-0.6358628873	-0.2795901948	 0.130435
H	 0.2138410328	-4.0909537554	 1.0207205784	 0.113756
H	 2.1738250481	-0.6026076911	 0.1583462631	 0.122639
