18
gdb 96297	2.16639	1.9645	1.20676	3.6709	69.7	-0.2584	0.0375	0.2959	1051.1185	0.148221	-476.231522	-476.223302	-476.222358	-476.264522	31.032	
C	 0.3875151339	 1.3312209951	 0.3867524731	-0.394337
C	-0.182586719	 0.0345641183	-0.1504287546	 0.183129
O	 0.7788993147	-0.5575587072	-0.9666525531	-0.228546
C	 0.3933245036	-1.7635791975	-1.6094845052	-0.084896
C	-0.1113120337	-2.8257280993	-0.6173353061	-0.104315
O	 0.6208107235	-2.7712043561	 0.6065952002	-0.245971
C	 0.4041026665	-1.6809590039	 1.3966062234	 0.46806
N	 0.9803754973	-1.4911512312	 2.5006806494	-0.541866
O	-0.5603072172	-0.8398526003	 0.9403595457	-0.257202
H	 1.2889587576	 1.1224816751	 0.9675511077	 0.15425
H	 0.6365992794	 1.9996461162	-0.4413812012	 0.124852
H	-0.3460856358	 1.8143068172	 1.0350593422	 0.134848
H	-1.1270977913	 0.1892733283	-0.6921392539	 0.083767
H	-0.3797524993	-1.5786473719	-2.3709395766	 0.102953
H	 1.2992085504	-2.1080278033	-2.1139534854	 0.127052
H	-1.1792036467	-2.7071171805	-0.4174226114	 0.128893
H	 0.0605418641	-3.8261958962	-1.0217351429	 0.122149
H	 1.6043243819	-2.2725900327	 2.7014411388	 0.227179
