19
gdb 2104	4.4054	2.26935	1.64407	1.3076	67.21	-0.2418	0.0872	0.329	806.8068	0.17365	-310.937295	-310.930341	-310.929397	-310.967783	27.049	
C	-0.0272587361	 1.5518709081	 0.0301082503	-0.405656
C	 0.0179110623	 0.0228708682	-0.0067577409	 0.031685
C	 0.6979683786	-0.514304355	-1.2772575105	-0.19239
C	 0.8299559192	-2.0425796445	-1.2204358029	-0.209986
C	 1.491808919	-2.4638216135	 0.0930974612	-0.062181
O	 0.7931210108	-1.9588828681	 1.2184250098	-0.24692
C	 0.7385857997	-0.5433895761	 1.2243551469	-0.066529
H	 0.9831174496	 1.9778830143	 0.0243570241	 0.113584
H	-0.558530189	 1.9507460048	-0.8402221992	 0.114009
H	-0.5370998686	 1.9169074044	 0.9283710738	 0.112365
H	-1.0108876598	-0.3629428189	 0.0189389392	 0.076818
H	 0.1412566998	-0.2038677581	-2.169047843	 0.091226
H	 1.6986117219	-0.0651193343	-1.3617598897	 0.090211
H	-0.1632613181	-2.504513844	-1.2793246142	 0.102237
H	 1.4151018677	-2.4188947261	-2.0676652671	 0.091246
H	 1.5027970249	-3.5521563961	 0.2046224782	 0.102453
H	 2.5392116679	-2.1120350909	 0.1118249881	 0.079921
H	 1.761176018	-0.1248632953	 1.2740969039	 0.076752
H	 0.2191673821	-0.2623356991	 2.1462165222	 0.101156
