17
gdb 51030	2.0242	1.46422	1.02577	3.1863	72.95	-0.2526	-0.0414	0.2112	1181.8252	0.135445	-417.998531	-417.989557	-417.988613	-418.034015	31.493	
O	-0.6431239574	 1.4038864711	 0.9357367097	-0.235158
C	 0.0626284383	 1.1415802444	-0.0040684622	 0.149979
C	 1.3851097803	 1.8332290346	-0.279060719	-0.33188
C	 1.2604475104	 2.8654848207	-1.4237442832	 0.129663
C	 0.4664898201	 4.1469559879	-1.0007391121	-0.203824
N	 1.7562885838	 4.7851722683	-0.6603485061	-0.308505
C	 2.4946634252	 3.8237450364	-1.5038346138	-0.204831
C	 0.8621351154	 2.2393043124	-2.676428552	 0.235105
N	 0.5512467477	 1.7405870786	-3.6724301639	-0.340053
H	-0.2363558773	 0.3765551445	-0.7532762177	 0.106677
H	 1.7027356571	 2.3599853241	 0.6236126414	 0.14971
H	 2.1369902765	 1.0836481635	-0.553127933	 0.127988
H	-0.0632439385	 4.5924812083	-1.8521105435	 0.11692
H	-0.2247435804	 4.0254856141	-0.1617436202	 0.139484
H	 1.8455500368	 5.7583132551	-0.9278724699	 0.231906
H	 3.4266843055	 3.4470552385	-1.0700740451	 0.119462
H	 2.6804458066	 4.1521343376	-2.5346506294	 0.117357
