18
gdb 127404	2.99361	1.66761	1.10688	3.3377	79.18	-0.1842	0.042	0.2262	1078.3499	0.151412	-398.136807	-398.129129	-398.128185	-398.168835	29.41	
C	-0.132380222	 1.4921231569	-0.0189305711	-0.338938
N	 0.0796360265	 0.0582193571	 0.0404054987	-0.173333
C	 0.6838202725	-0.5656655319	-1.1702917059	-0.160932
C	 1.3534413387	-1.8960491003	-0.6944838052	-0.370639
C	 1.5611717781	-1.5976988911	 0.766641638	 0.15229
C	 0.8150815948	-0.4892804001	 1.0848728936	 0.471971
N	 0.9349662535	-0.2661903074	 2.4072337877	-0.354459
N	 1.7547372633	-1.1993876977	 2.993977778	-0.246768
C	 2.1143630862	-2.0073870727	 1.994502777	-0.152371
H	 0.8026244124	 2.0608541605	-0.1641388811	 0.110921
H	-0.8083010852	 1.7257150549	-0.8463566642	 0.131833
H	-0.6102994423	 1.8379469302	 0.9027238702	 0.123187
H	-0.0804070369	-0.7164964495	-1.9377155063	 0.110359
H	 1.451783996	 0.1096890592	-1.5807462841	 0.098168
H	 0.6779866426	-2.747273223	-0.8496924638	 0.114538
H	 2.2646168412	-2.0998235932	-1.2644204171	 0.112989
H	 0.5512838566	 0.4669109961	 2.9765040378	 0.266965
H	 2.7678309741	-2.8406089481	 2.2106314977	 0.104221
