20
gdb 116567	4.32271	0.8986	0.83947	2.5017	84.69	-0.2445	0.0258	0.2703	1481.9253	0.169408	-403.129331	-403.120029	-403.119084	-403.164165	34.391	
C	-0.5979197273	 0.229921529	 0.7766652885	-0.358875
C	 0.4699488517	 0.4956839915	-0.2863854076	-0.151347
N	 0.7400141736	-0.7210360984	-1.0480036257	-0.352656
C	 1.8955175198	-1.1958815685	-1.057447821	 0.482334
O	 3.0762611949	-0.724066096	-0.4569523393	-0.317596
C	 3.8390240999	-1.7577051602	-1.1492734751	 0.459889
C	 5.1494303891	-1.3580123441	-1.7358717993	-0.486485
C	 3.3921761733	-3.0846945272	-0.6474931996	-0.328355
C	 2.5638135308	-2.3529660488	-1.7147556095	-0.287031
H	-1.5026282803	-0.1792546709	 0.3180653536	 0.124636
H	-0.2385325215	-0.4917634217	 1.5169001302	 0.116417
H	-0.8587584256	 1.155467203	 1.299798156	 0.107842
H	 0.0934529812	 1.2468785455	-0.9921040092	 0.104611
H	 1.37388947	 0.9085053665	 0.179717505	 0.109568
H	 5.8607222688	-1.0951307955	-0.9453142489	 0.138697
H	 5.5742819912	-2.185044538	-2.3115563291	 0.130372
H	 5.0343723114	-0.4929045862	-2.3954083769	 0.13779
H	 3.9353501922	-3.9445464373	-1.028616503	 0.123302
H	 3.011621361	-3.1865842885	 0.364007551	 0.128215
H	 2.3282190556	-2.7791847143	-2.6789174802	 0.118674
