20
gdb 111622	2.95992	1.27218	1.19752	2.3133	77.88	-0.2327	0.0691	0.3017	1136.2685	0.172927	-403.100948	-403.092871	-403.091927	-403.133892	31.673	
O	-0.1717798197	 1.5216303133	 0.0899516978	-0.432292
C	 0.0885242501	 0.1160210467	 0.1192684815	-0.112627
C	-1.2610602477	-0.5531139242	-0.0173294699	 0.013295
C	-1.8352013923	-1.1746745944	-1.2662638714	-0.070561
C	-0.9273282182	-1.6934548874	-2.3917680429	-0.240097
C	-0.1787826791	-2.9025996914	-1.8281673258	-0.033268
N	 0.7847076611	-2.5908425035	-0.7512275108	-0.332441
C	-0.5683919562	-3.0851155536	-0.4047296352	-0.04526
C	-1.5861097811	-2.0335678258	-0.0289036099	-0.077141
H	 0.6763495034	 1.9739140695	 0.1136119279	 0.280486
H	 0.7740656305	-0.1836434384	-0.6766415129	 0.107811
H	 0.5557783924	-0.1760287517	 1.0727888122	 0.082382
H	-1.9999410373	 0.0206729605	 0.5396316333	 0.092787
H	-2.8412376685	-0.8827071255	-1.5493300861	 0.081409
H	-1.5498596689	-2.0175471308	-3.2323550657	 0.101415
H	-0.2390160683	-0.932872449	-2.7766095703	 0.113145
H	 0.0415780371	-3.7403645149	-2.4830716659	 0.083297
H	 1.4523867678	-3.3543963445	-0.6705712762	 0.226914
H	-0.656753246	-4.0679120536	 0.0459483445	 0.082365
H	-2.4059839293	-2.3681371814	 0.5975545157	 0.078384
