19
gdb 72662	2.05102	1.84538	1.6043	1.1034	69.86	-0.2487	0.0528	0.3015	973.7844	0.159025	-460.153506	-460.145068	-460.144124	-460.186915	32.759	
O	-0.0933888405	 1.3593716111	-0.1379855887	-0.488674
C	-0.0021736673	-0.036229604	 0.0294395522	 0.324891
C	 0.266482684	-0.4258801939	 1.5009816356	-0.256638
C	-1.1178406691	-1.1351641505	 1.5825985981	-0.281032
C	-1.3833671694	-0.802731632	 0.0853116056	 0.345218
O	-2.5176233093	-0.0398658368	-0.223571963	-0.494248
C	-1.187756547	-1.9461572776	-0.9101042038	-0.125893
O	 0.2270385866	-2.0980752774	-1.0505691387	-0.253787
C	 0.7885440807	-0.7948993635	-1.0371658535	-0.153938
H	-0.2720940253	 1.5377056678	-1.0692189649	 0.281972
H	 1.1300176498	-1.0807616277	 1.6354539913	 0.108108
H	 0.3761490632	 0.4462437518	 2.1480401628	 0.113026
H	-1.0895628626	-2.200359074	 1.8252594503	 0.103518
H	-1.8337182655	-0.6432704264	 2.2448474502	 0.103998
H	-2.3281297781	 0.8589246777	 0.0794900374	 0.277377
H	-1.5880610746	-2.9099617178	-0.5868449246	 0.110707
H	-1.6548265514	-1.662888949	-1.8658386221	 0.095898
H	 0.6637602563	-0.2955770072	-2.0171636094	 0.074648
H	 1.8578544695	-0.8894750907	-0.830532545	 0.114851
