12
gdb 33279	3.48323	0.84086	0.70897	3.9375	83.88	-0.2687	-0.0588	0.2098	1488.5126	0.074655	-398.267519	-398.258994	-398.25805	-398.301302	30.268	
C	 0.0541797338	-3.7456198411	-0.0515872655	-0.552444
C	 0.0360967746	-2.539058904	-0.0231266569	 0.290744
C	 0.0153431525	-1.1808112883	 0.0095531742	-0.178374
C	 0.0028706695	 0.0281786842	 0.0416664876	 0.406979
C	-0.031536125	 1.4635311451	 0.0751426019	 0.047857
C	 0.5445215295	 2.2151511017	 1.2253911088	-0.196042
O	 1.2275076775	 2.1540152665	-0.0134819386	-0.231643
C	-1.1166124243	 2.0838291508	-0.6696839462	 0.229203
N	-1.9876191122	 2.5720014839	-1.2503822451	-0.320201
H	 0.0696308227	-4.8075363232	-0.0795269501	 0.206306
H	 0.1114039167	 3.1792672423	 1.4841535155	 0.15085
H	 0.9795842247	 1.638676442	 2.0388094143	 0.146765
