19
gdb 80364	2.28254	1.66567	1.17618	1.0352	81.2	-0.2527	0.0336	0.2863	1103.8155	0.157072	-385.820666	-385.811631	-385.810687	-385.853781	35.209	
C	-0.1076585677	 1.4920181625	-0.1775300074	-0.421606
C	 0.0745260243	 0.0006245158	 0.0169861039	-0.006404
C	 1.3438522904	-0.7762614352	-0.1937014396	-0.075847
C	 2.5689044802	-0.0051910699	 0.3142663495	-0.300587
C	 1.9445545181	-0.0030774639	 1.7616831345	 0.244795
O	 2.5891004861	-0.9483294953	 2.6105447459	-0.465815
C	 1.8111719791	 1.2779912447	 2.4521654461	 0.291666
C	 1.7630941447	 2.3239318336	 3.045066079	-0.484918
C	 0.6970510819	-0.6992189347	 1.1971047071	-0.103891
H	 0.7553424839	 2.0728843705	 0.1516770353	 0.130572
H	-0.2824001199	 1.7160544871	-1.2357694218	 0.111696
H	-0.973705842	 1.8520041519	 0.3879436225	 0.119785
H	-0.7880782259	-0.5679188472	-0.329385863	 0.089565
H	 1.3932066337	-1.6253300083	-0.864301761	 0.085849
H	 3.4795752332	-0.606145527	 0.3279959005	 0.112185
H	 2.7747423031	 0.9641037019	-0.1482050956	 0.098654
H	 3.3563855356	-0.512195127	 2.9980705648	 0.280318
H	 1.6970424816	 3.2472860423	 3.5659577894	 0.19823
H	 0.1802018697	-1.4625708318	 1.7660357697	 0.095753
