17
gdb 70915	2.75647	1.7187	1.30778	1.3599	66.82	-0.2268	0.0664	0.2932	974.7714	0.135617	-458.919665	-458.912096	-458.911152	-458.951075	30.727	
O	-0.0786290583	 1.3781097787	-0.0991242779	-0.460762
C	 0.0568468181	 0.0032931582	-0.0562902952	 0.345251
C	 0.9223165297	-0.8324492553	-1.0026772494	-0.363693
C	-0.071497155	-2.0197343383	-0.7691246533	 0.380949
O	-0.4496601103	-2.8195735292	-1.8450533202	-0.489502
C	 0.39997794	-2.870318898	 0.4131920177	-0.098403
O	 0.4941111366	-1.94717446	 1.499883134	-0.26851
C	-0.3012431296	-0.8276386092	 1.1612198236	 0.037799
C	-1.0746268711	-1.0193197054	-0.1032348897	-0.273916
H	 0.6178716066	 1.7684036475	 0.4410823757	 0.288612
H	 0.8344800118	-0.4563508727	-2.0273035382	 0.099328
H	 1.9774570525	-0.9919415905	-0.7547085188	 0.098399
H	-0.7097604712	-2.2480393719	-2.5745824846	 0.283544
H	-0.3290486291	-3.6643053881	 0.6292577702	 0.101433
H	 1.3834583264	-3.3198155952	 0.2465744098	 0.111864
H	-0.7316899897	-0.3170501449	 2.0148986212	 0.107769
H	-2.1450170974	-0.9415441357	-0.2416655451	 0.099837
