23
gdb 56143	3.07551	0.84895	0.78786	1.9747	83.04	-0.2661	0.0187	0.2848	1604.8817	0.201493	-425.483149	-425.471642	-425.470698	-425.520986	40.773	
C	-0.1303209881	 1.4453207635	 0.0116559993	-0.47989
C	 0.07850279	-0.0506586071	 0.0012983888	 0.42999
O	 1.1450724421	-0.6109850849	-0.012050597	-0.349897
O	-1.106220687	-0.6967214208	 0.009061557	-0.249169
C	-1.0427253216	-2.1360174987	 0.0004152704	-0.058902
C	-2.4682063421	-2.6995908746	 0.0111318175	 0.228914
C	-3.2303408091	-2.2282852276	-1.2404418544	-0.401683
C	-2.353571251	-4.2346060706	 0.0021043248	-0.412161
C	-3.2061854162	-2.2413153725	 1.2818725588	-0.401672
H	 0.8367398199	 1.9465004404	 0.0053604201	 0.147753
H	-0.7140134799	 1.7491561168	-0.8619396947	 0.148306
H	-0.6974590278	 1.7392936829	 0.8994127262	 0.148303
H	-0.4934445336	-2.4595405246	-0.8903942777	 0.113604
H	-0.4762949833	-2.4693481347	 0.8767492753	 0.113603
H	-2.7289513397	-2.5612455323	-2.1561931661	 0.108108
H	-4.2467613816	-2.6353360382	-1.2494689627	 0.109603
H	-3.2994149771	-1.1378473472	-1.2713267378	 0.12287
H	-1.8119155961	-4.601342344	 0.8810101385	 0.113471
H	-3.347929954	-4.6926070934	 0.0092947616	 0.114803
H	-1.8289429851	-4.5921850545	-0.8907908324	 0.113469
H	-3.2745064616	-1.1512559393	 1.3253605188	 0.122879
H	-4.2223051969	-2.6484925842	 1.306139937	 0.109595
H	-2.6874068503	-2.5837067041	 2.1843639184	 0.108104
