15
gdb 10441	2.86148	1.70744	1.26554	4.1087	70.79	-0.2746	0.0259	0.3005	974.744	0.117536	-325.494011	-325.485925	-325.484981	-325.526723	29.554	
C	-0.1651252331	-1.1264067884	-0.4647881172	-0.436567
C	-0.0697499811	 0.0156838845	-0.1056672181	 0.319458
C	 0.0630435304	 1.4034418072	 0.322442579	-0.439338
C	 1.4662310831	 1.9774754936	 0.0981723349	 0.181857
C	 1.8422075916	 2.4650917564	-1.2901674877	-0.276728
C	 1.6031264327	 3.4639545978	-0.1972428619	-0.304523
C	 2.5080698414	 1.3708286343	 0.8889371761	 0.251062
N	 3.3418070519	 0.8930471504	 1.5329284766	-0.34194
H	-0.2493769775	-2.1389904852	-0.7736705153	 0.205037
H	-0.6509955742	 2.0294161172	-0.2262979589	 0.135259
H	-0.1991752524	 1.493449427	 1.3835495344	 0.150849
H	 2.8596026193	 2.2986757388	-1.6218985015	 0.14483
H	 1.0882177716	 2.3425098218	-2.059614862	 0.135578
H	 0.6844815374	 4.0400354096	-0.2091702291	 0.129979
H	 2.456811409	 3.980481985	 0.2242065408	 0.145189
