14
gdb 123583	3.97861	1.67144	1.28699	4.9569	66.47	-0.2646	-0.0447	0.2199	914.8826	0.103408	-432.792264	-432.786247	-432.785302	-432.82259	24.147	
C	 0.0341623724	 1.4634468432	-0.0063605254	-0.247896
C	 1.2770642465	 0.6598345717	 0.0389746946	-0.023661
C	 1.9742774682	 0.4049074001	 1.3969608317	-0.377034
C	 0.8875856539	-0.3294836863	 2.1242747667	 0.325762
N	 0.6428436899	-0.8517774819	 3.2835198403	-0.19487
O	-0.6283988039	-1.3942837326	 3.1498750261	-0.162986
N	-1.1573781759	-1.1894555588	 1.8821868337	-0.207487
C	-0.222276724	-0.5355159273	 1.2659128031	 0.366845
N	-0.0673851048	-0.0221216028	-0.0361994387	-0.177923
H	-0.294301141	 1.9656781867	 0.9001333934	 0.139305
H	-0.2655726146	 1.9441451611	-0.9316643733	 0.141649
H	 1.8777307321	 0.5723974508	-0.8593737083	 0.118917
H	 2.8666999868	-0.2144580949	 1.2647320962	 0.149914
H	 2.2840265043	 1.329444611	 1.8924931399	 0.149464
