21
gdb 92455	2.32747	1.76507	1.44787	2.3981	76.72	-0.2448	0.0852	0.33	1037.4168	0.184379	-424.242081	-424.234048	-424.233104	-424.274207	32.108	
C	-0.1154987757	 1.5832479732	-0.0738931861	-0.417241
C	 0.027010733	 0.0713043605	 0.0199548479	 0.154007
O	 0.6672322668	-0.4455853874	-1.1784358529	-0.287023
C	 1.7723332848	-1.2060234036	-0.7197067516	 0.208439
O	 2.7889261898	-0.345071876	-0.2301053281	-0.274419
C	 2.3085742916	 0.1164943008	 1.0531271406	-0.087864
C	 0.9114480737	-0.5145493196	 1.1479702856	-0.113654
C	 1.2434228973	-1.906705854	 0.5410705117	-0.004108
C	 0.110754213	-2.9080008527	 0.3432029822	-0.435336
H	 0.8474441259	 2.0742141437	-0.2317650715	 0.134794
H	-0.7598800035	 1.8385177734	-0.919943255	 0.127667
H	-0.5756029638	 1.9852092619	 0.8354769869	 0.109855
H	-0.9792819686	-0.3646846432	 0.0855748027	 0.073499
H	 2.1703487064	-1.7903234539	-1.5482686109	 0.086843
H	 2.9725332839	-0.2428893668	 1.850577721	 0.096502
H	 2.3113992587	 1.209947653	 1.0709735234	 0.105043
H	 0.45881889	-0.4938943829	 2.1400262754	 0.072071
H	 2.0672656489	-2.3756109369	 1.0885062437	 0.079483
H	-0.6581459885	-2.5316810409	-0.334657425	 0.137303
H	 0.4982839328	-3.8380415072	-0.0855936564	 0.119111
H	-0.3632489466	-3.1606254512	 1.2976038865	 0.115029
