19
gdb 82324	2.53966	1.78663	1.31642	1.3802	73.99	-0.2248	0.0723	0.2971	1013.4789	0.159626	-422.99241	-422.984596	-422.983652	-423.024428	31.671	
O	 0.4504140738	 0.8574489405	-0.7060404282	-0.426724
C	 0.2231784337	-0.33906423	 0.0132669724	 0.044717
C	 0.6003278006	-0.3186725182	 1.4851075772	-0.112372
C	-0.3367031773	 0.4482149741	 2.4144191894	-0.344186
C	-0.5120693176	-1.0288059492	 2.1939737504	 0.106373
O	-1.4893237025	-1.4558770172	 1.2755510451	-0.292076
C	-1.2540695567	-0.7828335362	 0.0548988033	 0.393447
C	-2.3558516358	 0.0772388893	-0.5102091431	-0.324527
C	-2.0132264174	-1.2653742847	-1.1317634721	-0.341954
H	 0.0962593671	 1.5811999554	-0.1770072405	 0.281458
H	 0.8257561644	-1.0936650341	-0.5044063416	 0.098117
H	 1.6410240475	-0.4377933203	 1.7598948724	 0.096165
H	 0.0746520741	 0.7680048899	 3.3654305192	 0.117543
H	-1.0765022169	 1.1222779543	 1.9945089354	 0.121046
H	-0.3687347018	-1.7417580341	 2.9964549214	 0.104072
H	-3.2701299449	 0.1399218452	 0.0689414269	 0.119013
H	-2.0822442035	 0.9705980488	-1.0598934182	 0.114909
H	-1.5056004271	-1.2684936822	-2.0908349875	 0.121488
H	-2.7038695996	-2.0857238216	-0.9724819118	 0.123491
