23
gdb 60020	2.94489	0.71966	0.66328	3.6564	83.51	-0.2455	-0.0166	0.2289	1789.9575	0.201813	-425.444362	-425.432966	-425.432021	-425.482261	40.313	
C	-1.7168055492	 1.6754711185	-1.2739967621	-0.403288
C	-1.8322550442	 0.1525079969	-1.3461063593	 0.124505
O	-1.0436230215	-0.3759324895	-2.4121086822	-0.425855
C	-1.4870763088	-0.5151320822	-0.0069952337	-0.202941
C	-1.5549700885	-2.0526742931	-0.0053655954	 0.023018
C	-0.8894506767	-2.6261206626	 1.253898416	-0.404528
C	-3.0056427583	-2.5656271986	-0.1378139665	-0.276867
C	-3.0682694863	-4.0571383638	-0.3712200286	 0.159366
O	-3.7098317456	-4.8393469336	 0.2821174145	-0.245101
H	-1.9474833881	 2.1195925128	-2.2459106881	 0.125776
H	-2.4027503358	 2.0909957229	-0.5287868695	 0.118577
H	-0.6993897298	 1.9752741055	-0.9920443541	 0.10709
H	-2.861095887	-0.1022799643	-1.6276415517	 0.091703
H	-0.1304645235	-0.1063526959	-2.2605563094	 0.276678
H	-0.4663446102	-0.2112990738	 0.2693311275	 0.082023
H	-2.1438237172	-0.1122986334	 0.7759402714	 0.096075
H	-0.9980405239	-2.3980154838	-0.8858655565	 0.090773
H	-0.9153197134	-3.7205938169	 1.2632250106	 0.125524
H	 0.158270916	-2.3158097211	 1.320929025	 0.111751
H	-1.3992846299	-2.2798138653	 2.1606403576	 0.119013
H	-3.6007540539	-2.3228417553	 0.749036515	 0.113516
H	-3.4838909466	-2.0970286115	-1.0091035564	 0.120526
H	-2.4529034677	-4.4048014221	-1.2355890844	 0.072665
