19
gdb 111081	3.21007	1.23202	1.08624	2.4074	76.22	-0.2329	-0.0084	0.2245	1173.8094	0.159782	-423.021443	-423.013418	-423.012474	-423.054168	30.879	
C	-0.1643035093	 1.3388096003	-0.0914629286	-0.248132
O	 0.2898485165	 0.0107998536	 0.0761762606	-0.256855
C	 0.7963201982	-0.560341518	-1.0948487734	 0.16424
C	 1.1467912449	-2.0566986702	-0.8969456534	-0.064327
C	-0.37219391	-2.3462145221	-1.0825029147	-0.242269
C	-0.2901243551	-1.1484628319	-2.0909546002	-0.173587
C	 0.6346505815	-1.7311000162	-3.1435816833	 0.430572
O	 0.5695291998	-1.660260607	-4.3414810512	-0.336271
C	 1.7145427028	-2.4251055951	-2.2795503262	-0.342138
H	 0.6357419316	 1.9914950538	-0.4719708873	 0.111867
H	-1.0180315116	 1.3987906346	-0.7810428754	 0.11464
H	-0.4771354329	 1.6970587289	 0.8916182649	 0.132505
H	 1.5652095963	 0.090857955	-1.5385785106	 0.069497
H	 1.6931077179	-2.3809356178	-0.0122928739	 0.078409
H	-0.6678693964	-3.3227806939	-1.4747622258	 0.101155
H	-0.9567783043	-2.0869820689	-0.2018573051	 0.127447
H	-1.1537498362	-0.5872494757	-2.4405264826	 0.080999
H	 2.706467053	-2.012214194	-2.4899235478	 0.124564
H	 1.7454845532	-3.5029130855	-2.4654157359	 0.127683
