17
gdb 16974	3.91653	2.34458	2.22667	0.7911	73.4	-0.2114	0.0063	0.2177	719.3959	0.143727	-326.606562	-326.60077	-326.599826	-326.635842	25.252	
C	-0.0014938129	 1.5174978594	-0.3241973267	-0.188186
C	 1.5325651721	 1.4134066036	 0.0693585483	-0.315205
C	 1.0196771218	 0.2452066498	 0.9559637563	 0.240723
C	 0.9022724903	-1.316965678	 1.2101547971	-0.279716
C	-0.636518075	-0.8584631307	 1.0797534983	-0.081332
C	-0.7695745856	 0.0129357654	 2.3342692204	-0.066545
C	 0.3361852766	 0.7526475403	 2.2772670956	-0.136911
N	-0.0722108295	 0.0610988761	 0.0128971981	-0.068789
H	-0.5343748614	 2.1912466058	 0.3600752813	 0.102896
H	-0.2604656785	 1.7442709676	-1.3606053866	 0.102761
H	 2.1436739751	 1.0942046697	-0.775981228	 0.116317
H	 1.9830573846	 2.2729258856	 0.5708783793	 0.096379
H	 1.2409174061	-1.924774994	 0.3692789279	 0.109924
H	 1.2088535565	-1.7223445573	 2.1766384431	 0.095454
H	-1.4284938745	-1.5550929077	 0.8048263876	 0.073406
H	-1.5605432043	-0.0262107402	 3.0696292877	 0.103108
H	 0.7301147387	 1.4888655845	 2.9646620502	 0.095717
