21
gdb 116552	2.27774	1.14391	0.80736	2.6912	84.76	-0.2165	0.0309	0.2474	1480.0097	0.180798	-420.391017	-420.380435	-420.37949	-420.427624	36.873	
C	-0.4589840076	 1.5929243496	-0.2411514393	-0.372277
C	 0.3722261141	 0.357347673	 0.0989806299	-0.129293
N	 1.067758606	-0.1235864231	-1.08809847	-0.363768
C	 1.927704751	-1.0473546057	-1.0253945326	 0.37432
C	 2.8348136188	-1.5780550468	-2.1344012758	 0.037204
O	 3.5888929237	-0.5948615606	-2.7941807254	-0.437852
C	 3.5743354369	-2.3488768917	-1.0033530289	-0.194025
N	 2.5198834139	-1.8829105609	-0.0912949373	-0.101838
C	 2.4917019993	-1.9812545144	 1.346585716	-0.339379
H	 0.1842216721	 2.3958376222	-0.6140657492	 0.116249
H	-1.1870242782	 1.3581653544	-1.0231269961	 0.121315
H	-0.9972898784	 1.9599316702	 0.638746653	 0.101458
H	 1.0784121789	 0.6062200202	 0.906804836	 0.090614
H	-0.2930374442	-0.4253157662	 0.4964844754	 0.095369
H	 2.3241724209	-2.2415532133	-2.8444518	 0.089625
H	 3.0291080255	 0.1916437439	-2.8206841962	 0.295143
H	 3.6400159879	-3.4379950664	-1.0993320374	 0.104371
H	 4.56411637	-1.9268905255	-0.7929990428	 0.11387
H	 1.5474496362	-1.5894190993	 1.7263801321	 0.146424
H	 2.5737051729	-3.0310071168	 1.6529397756	 0.129135
H	 3.3152525101	-1.4253664229	 1.8185824829	 0.123334
