15
gdb 52015	2.74997	0.83593	0.66242	2.5995	72.82	-0.2671	-0.0442	0.223	1578.6893	0.109453	-416.763285	-416.753555	-416.752611	-416.799322	33.03	
O	-0.1724340079	-0.0802083811	-0.4377152225	-0.228009
C	 0.233565744	 0.9808835875	-0.0468006138	 0.148378
C	 1.3894718821	 1.7344035758	-0.6898539619	-0.232997
N	 1.228772675	 3.1704040696	-0.4916108821	-0.291554
C	 2.4184441022	 3.9586725138	-0.8267911331	-0.291435
C	 2.8297662854	 3.8969943922	-2.2399168335	 0.341009
C	 3.1279775552	 3.7987547065	-3.3990385992	-0.440983
C	 2.1970109104	 5.3602907402	-0.4182528527	 0.302994
N	 2.0205433582	 6.4556467511	-0.0999921331	-0.308023
H	-0.198793276	 1.4953554043	 0.8398154387	 0.097245
H	 2.2989251202	 1.4168643987	-0.1577215531	 0.140768
H	 1.4972659551	 1.4111544251	-1.7346032456	 0.134955
H	 0.4436257959	 3.5165846574	-1.0353520386	 0.244529
H	 3.2409760951	 3.573549811	-0.2074198336	 0.164332
H	 3.3998689951	 3.723808728	-4.4237903959	 0.218791
