19
gdb 94075	4.45611	0.95757	0.82657	0.5921	78.09	-0.2472	0.0361	0.2833	1367.8621	0.158851	-422.993867	-422.985093	-422.984149	-423.027036	33.887	
O	-0.0613326275	 1.4449701098	-0.0438923218	-0.431204
C	 0.0097490313	 0.0279997063	 0.0013367286	 0.115342
C	-1.4166125327	-0.5123832445	 0.0517593457	-0.223756
C	-1.4156061153	-2.0418837347	-0.0677793564	-0.215603
C	-0.6019847468	-2.4810173403	-1.3010399775	-0.057249
O	 0.7210857248	-1.9483503259	-1.2509321297	-0.256727
C	 0.721573814	-0.5314355131	-1.2384853941	-0.098613
C	-0.5087643181	-3.9333416204	-1.4093048653	 0.294726
C	-0.4720201056	-5.131401875	-1.4841535691	-0.406435
H	 0.8329202247	 1.7949458166	 0.0236344037	 0.284647
H	 0.5553171355	-0.3122986591	 0.8961484161	 0.072882
H	-1.9078313566	-0.1912719079	 0.9753082018	 0.106589
H	-1.9768455043	-0.0670128511	-0.7808551945	 0.106999
H	-0.9618438743	-2.4991796946	 0.8183084067	 0.115567
H	-2.4361301527	-2.4287329794	-0.1492391893	 0.111259
H	-1.1054699487	-2.091552685	-2.2046935896	 0.094017
H	 0.2296594859	-0.1252836746	-2.1385900312	 0.094239
H	 1.7739338241	-0.2282069425	-1.2602500629	 0.097576
H	-0.4288219476	-6.1899517247	-1.5580610111	 0.195742
