19
gdb 86675	2.23543	1.42751	1.08647	1.329	76.37	-0.2504	-0.0277	0.2227	1181.1412	0.157061	-423.00647	-422.997443	-422.996499	-423.040846	33.056	
C	-0.5140803097	 1.0926157152	-1.2784715391	-0.417303
C	 0.2371886259	-0.1296557897	-0.7736357606	-0.050506
C	 1.7394503631	-0.3093678773	-1.1542635417	-0.264116
C	 2.0642651351	-0.735807068	 0.3002772663	-0.171614
C	 3.2389566554	-0.0966364893	 0.9877149597	 0.130417
O	 3.928849527	 0.7666450215	 0.5047515785	-0.243284
C	 0.6626882288	-0.1984500749	 0.6988758416	 0.420983
C	 0.2990163541	 0.6714477766	 1.8206396112	-0.260868
O	-0.1224797743	-0.701510288	 1.7529173229	-0.265908
H	 0.0281055857	 2.0144966203	-1.042886001	 0.120631
H	-0.6420570827	 1.0482922351	-2.3651228235	 0.122413
H	-1.5117650336	 1.1596858724	-0.8310907857	 0.123075
H	-0.3225703338	-1.0420855195	-1.0105759988	 0.089798
H	 1.9655921696	-1.0351573203	-1.936114817	 0.108672
H	 2.2305077811	 0.6375382337	-1.3903521141	 0.129044
H	 2.0941867624	-1.8206911658	 0.4509874048	 0.102919
H	 3.4247700712	-0.4597094218	 2.0244307917	 0.082089
H	 1.0269441939	 0.8981443203	 2.5984236731	 0.120917
H	-0.4937295593	 1.4077940194	 1.7014051418	 0.122639
