21
gdb 86107	2.41168	1.49764	1.03089	1.269	84.91	-0.2177	0.0243	0.242	1214.0427	0.183472	-387.097656	-387.089018	-387.088074	-387.130473	34.187	
C	 0.0779067421	 1.5496102671	-0.0055406076	-0.478379
C	-0.0449722512	 0.0516081038	-0.0096849375	 0.297265
C	 0.0240576471	-0.6803997089	-1.1264198939	-0.139153
C	-0.0455811614	-2.1625508613	-1.1394386687	-0.07724
C	 0.9427518549	-2.9600630074	-0.2981101732	-0.286451
C	-0.493335431	-2.8547838772	 0.1289621379	-0.017634
C	-0.936244968	-1.9806645415	 1.2772873958	 0.107148
O	-0.7467713902	-2.7186348446	 2.4834050781	-0.435433
C	-0.2055598979	-0.6261998421	 1.3343744505	-0.352344
H	 0.9260214462	 1.8792983396	 0.6096282294	 0.120951
H	 0.2201885525	 1.9464375544	-1.014477196	 0.119245
H	-0.8158725297	 2.0209469737	 0.424621408	 0.118321
H	 0.1631304931	-0.1855878408	-2.0847495869	 0.077402
H	-0.3460010657	-2.6103234136	-2.0811574684	 0.081029
H	 1.2864481297	-3.9152798172	-0.6798281364	 0.110045
H	 1.6940613036	-2.3978991263	 0.2444873966	 0.118288
H	-1.0959980273	-3.7500081985	 0.0112160652	 0.088596
H	-2.0107787933	-1.7805750772	 1.131100875	 0.06521
H	-1.1130200532	-2.1986594412	 3.206373697	 0.277526
H	 0.778843503	-0.7960728603	 1.7928150644	 0.118962
H	-0.7416512133	 0.0373498797	 2.0266626705	 0.086647
