19
gdb 69922	3.02992	1.75453	1.65082	1.6693	77.61	-0.2338	0.019	0.2528	925.7611	0.160986	-385.870162	-385.863182	-385.862237	-385.900974	29.445	
C	-0.0502272758	 1.5085000139	 0.0197833055	-0.491712
C	 0.0688933816	 0.011651026	 0.0287667316	 0.430787
O	-0.7691095852	-0.7035629125	 0.9483816077	-0.28212
C	 0.6520852303	-0.8312445636	 1.0756615239	-0.032385
C	 1.3204804466	-2.0314041271	 0.3177854652	-0.119042
C	 1.8412928152	-1.2442014856	-0.9213652695	-0.205193
C	 0.4130228589	-0.7583234404	-1.305781136	-0.154402
C	-0.3203401523	-2.0898528075	-1.3024987516	-0.057035
C	 0.2183497113	-2.8460510422	-0.3428231904	-0.05652
H	 0.8196695218	 1.9653919549	-0.464396843	 0.12187
H	-0.9422018681	 1.8231351381	-0.5338765996	 0.127123
H	-0.1283065384	 1.8970758721	 1.0384464015	 0.128974
H	 1.0795723857	-0.4621519857	 2.0037895537	 0.093513
H	 2.0516053864	-2.580094747	 0.9111409426	 0.059296
H	 2.5177509555	-0.4239048109	-0.6551568985	 0.089218
H	 2.3067810173	-1.8794645075	-1.6798057452	 0.096144
H	 0.3142463866	-0.1446400955	-2.2015318954	 0.056225
H	-1.187803378	-2.3160726122	-1.9084348695	 0.097362
H	-0.1191867694	-3.8154743373	-0.0008268727	 0.097896
