18
gdb 33997	3.35836	1.36073	1.14363	1.5912	83.81	-0.2303	0.0163	0.2467	1104.2706	0.147913	-364.758622	-364.750662	-364.749718	-364.790852	31.513	
C	 0.0651691796	-1.2319600587	-0.4081537197	-0.379869
C	 0.0525734425	-0.0495117521	-0.1907546201	 0.247818
C	-0.01719396	 1.3649271804	 0.0899638426	 0.089197
C	 0.2536772604	 2.3438421979	-1.0150715213	-0.272925
N	 1.2689564693	 2.0883941582	-0.0050374382	-0.124832
C	 1.5444797318	 3.1556092956	 0.962834219	-0.20101
C	 0.3546237386	 3.7328203335	 1.681409767	-0.068042
C	-0.8119304487	 3.0991461927	 1.763035842	-0.063578
C	-1.0434329688	 1.7419747159	 1.1616217691	-0.324596
H	 0.0951514756	-2.2742990922	-0.6080513784	 0.188882
H	 0.4845249779	 1.9805936956	-2.012249152	 0.120421
H	-0.2981498163	 3.2813851792	-0.9736689836	 0.115986
H	 2.2564641544	 2.7513302005	 1.6963651566	 0.12424
H	 2.084948265	 3.946207674	 0.4265134053	 0.115447
H	 0.4908797631	 4.7015805708	 2.1553105683	 0.091314
H	-1.6432537065	 3.5435535616	 2.3034270594	 0.091721
H	-2.0510249352	 1.6736986271	 0.732717159	 0.120795
H	-1.0108546227	 0.9815546401	 1.9535745948	 0.129029
