17
gdb 56388	3.14456	0.73327	0.61641	2.9808	85.77	-0.2575	-0.0497	0.2077	1778.2534	0.131408	-384.64648	-384.635885	-384.634941	-384.684392	36.302	
C	-0.1434949674	 1.6324158136	 0.3964563004	-0.380033
C	-0.0533783354	 0.1180640344	 0.0725820216	-0.335687
C	 0.7838399384	-0.5891085008	 1.0476340487	 0.340529
C	 1.4841498799	-1.1424160148	 1.8508688456	-0.458003
C	-1.3888892964	-0.4765156997	-0.0298116259	 0.110487
C	-2.5010786896	-0.9326719161	-0.13317861	 0.019011
C	-3.8375584759	-1.4888560313	-0.2538228282	 0.249296
C	-4.1154728623	-2.7020735995	 0.6096790871	-0.476868
O	-4.6623050699	-1.0039019721	-0.998626846	-0.275413
H	 0.8602306796	 2.0626873933	 0.4214776913	 0.134112
H	-0.7365776415	 2.1415079397	-0.3665592912	 0.137624
H	-0.6147171526	 1.7841534507	 1.3696838263	 0.142619
H	 0.4208480723	 0.0195238909	-0.9151012659	 0.149404
H	 2.0998573653	-1.6412375159	 2.5580369165	 0.204254
H	-3.413199622	-3.5060242024	 0.3640753092	 0.14826
H	-3.9597583459	-2.4552984454	 1.6654164705	 0.147816
H	-5.1410255467	-3.0378694948	 0.4496280101	 0.142594
