23
gdb 101459	3.79092	0.90611	0.86029	1.5551	87.9	-0.2434	0.0157	0.2591	1486.7977	0.205952	-388.309326	-388.299582	-388.298637	-388.344313	36.615	
C	 0.0034915508	 1.6373585258	 0.0045108003	-0.382111
C	 0.0378763474	 0.1076535281	-0.034951059	-0.186239
C	 0.6681080351	-0.50441586	 1.2248211939	 0.124648
O	-0.0290537514	-0.1039574926	 2.4027462679	-0.436203
C	 0.8046143715	-2.0409390332	 1.1543114756	-0.035851
C	 1.5512889869	-2.6330321078	 2.3851610871	-0.239894
C	 0.7760754367	-3.9113774446	 2.7974163835	-0.255175
C	-0.5397626706	-3.7664295193	 2.0742731678	-0.066212
C	-0.5208414884	-2.7781899847	 1.1804221972	-0.095386
H	 1.0168361103	 2.053017797	 0.0396780807	 0.110881
H	-0.4951582825	 2.0476547878	-0.8788804538	 0.105561
H	-0.5276620241	 1.9829638528	 0.8950433753	 0.13064
H	-0.9832215736	-0.2794618513	-0.1515320014	 0.088388
H	 0.6004457688	-0.2356589757	-0.9129385724	 0.090876
H	 1.6749241188	-0.0809424084	 1.3439390968	 0.080016
H	-0.8229539254	-0.649777427	 2.4616895547	 0.276417
H	 1.337988816	-2.2748596145	 0.2209663952	 0.07339
H	 2.6047401306	-2.8312397102	 2.1735011998	 0.09431
H	 1.5063931657	-1.9009552788	 3.1958070284	 0.12216
H	 1.2877830199	-4.8276611907	 2.4709461388	 0.106522
H	 0.6575740285	-4.0018142436	 3.8833891622	 0.105043
H	-1.3748735667	-4.4392353449	 2.2407405089	 0.093205
H	-1.3380203742	-2.5398923642	 0.5075704425	 0.095014
