18
gdb 107502	2.06573	1.85035	1.23649	1.4895	71.8	-0.2392	0.0502	0.2894	1054.7967	0.147286	-439.006331	-438.998085	-438.997141	-439.039073	31.704	
O	 0.3147348469	 1.2376635058	 0.441700717	-0.401914
C	 0.0242717481	-0.0484206106	-0.0949637346	-0.207949
C	-1.4363069466	-0.3766514056	-0.0204883213	 0.312126
O	-1.9032517245	-1.5140766016	-0.7647021647	-0.286216
C	-2.552030602	-0.2545059236	-0.9850506188	-0.061032
C	-3.5855161269	-0.0758023465	 0.1421946246	-0.328339
C	-2.4065437303	-0.184786013	 1.1408067908	 0.301381
C	-2.2931217466	-0.6821757357	 2.5244594158	-0.306634
N	-2.2239858683	 0.7664762891	 2.2313020196	-0.371768
H	-0.1552093653	 1.8907738972	-0.0881282959	 0.290357
H	 0.3668985705	-0.1580956899	-1.1335857578	 0.11442
H	 0.5984316981	-0.7564338164	 0.5134194326	 0.126604
H	-2.5706618264	 0.1213328469	-2.0021383089	 0.105752
H	-4.0408812529	 0.9169295056	 0.1732157793	 0.119156
H	-4.3559250613	-0.8489133224	 0.1821782951	 0.115701
H	-3.1836305157	-0.9934648824	 3.0637569503	 0.121765
H	-1.3847369493	-1.2072877111	 2.8109986912	 0.11344
H	-1.2566791677	 1.0845486544	 2.2374014557	 0.243148
