19
gdb 123861	3.41873	1.5636	1.12143	2.9538	81.45	-0.2247	0.0293	0.2539	1082.4478	0.164566	-382.119497	-382.112465	-382.11152	-382.150939	28.164	
C	-0.0205979872	 1.503538512	-0.0425578985	-0.217336
C	 1.3952218094	 2.0949041357	-0.0008518058	-0.20446
C	 2.0735215292	 1.7663947497	 1.33995412	-0.317858
C	 1.8932092262	 0.3221771505	 1.7053054005	 0.395932
C	 2.5361821801	-0.5097601364	 2.6049931198	-0.346749
C	 1.8618771493	-1.7413577986	 2.4989113035	 0.000911
N	 0.8762048683	-1.6938399815	 1.6055159555	-0.282833
N	 0.9069096707	-0.427119673	 1.1409100951	-0.009061
C	 0.0259360893	-0.0226806105	 0.0572733975	-0.133629
H	-0.611896184	 1.9093356307	 0.7878550241	 0.11057
H	-0.5343891205	 1.7806479638	-0.9681633154	 0.106898
H	 1.9862265505	 1.6796074059	-0.8271189507	 0.106917
H	 1.3631811555	 3.1790367915	-0.1460219962	 0.101236
H	 3.1401002875	 2.0110899657	 1.3074292693	 0.117427
H	 1.6395425632	 2.3993305761	 2.1267975101	 0.119205
H	 3.3640527464	-0.2529851228	 3.2465861247	 0.095914
H	 2.0503582082	-2.6595613315	 3.0363364454	 0.106392
H	-0.9611661025	-0.4507788583	 0.2484507233	 0.130264
H	 0.3945410802	-0.4539350189	-0.882786642	 0.120261
