16
gdb 88334	4.24943	0.83978	0.80945	1.6178	70.31	-0.2804	-0.0396	0.2408	1443.05	0.121962	-475.030848	-475.021748	-475.020804	-475.065717	31.583	
C	-0.0234542575	 1.365267007	-0.5463506211	-0.437104
C	-0.1240017678	 0.0033232332	 0.0853607617	 0.091481
O	 1.064908517	-0.767598134	 0.1984156587	-0.229242
C	 0.4472863217	-0.35798592	 1.4104246409	-0.087449
C	 1.1935941756	 0.6458921786	 2.2306207984	 0.463492
O	 2.0520380323	 1.3930127844	 1.8514035092	-0.340738
O	 0.7223701301	 0.589930736	 3.5194501207	-0.208281
C	 1.2664613993	 1.4502130015	 4.4441541471	 0.117595
N	 0.8131405425	 1.4117258193	 5.6155646473	-0.416277
H	 0.8525453901	 1.9036224056	-0.1837264343	 0.163803
H	 0.0546163831	 1.2585737335	-1.6331354969	 0.136172
H	-0.9250556085	 1.9485546457	-0.3317208754	 0.126894
H	-0.9981928944	-0.5837981026	-0.2039290102	 0.106775
H	-0.0338450247	-1.1411705344	 1.9920792824	 0.122908
H	 2.0534366754	 2.0783206171	 4.0269046969	 0.14719
H	 1.3015646359	 2.0911982393	 6.1972945946	 0.242779
