14
gdb 78801	2.2178	1.9265	1.66378	3.699	60.62	-0.2515	-0.0035	0.2479	878.2854	0.099774	-473.769612	-473.762093	-473.761149	-473.801391	28.704	
O	-0.1689492925	 1.4740327028	-0.0881777615	-0.432587
C	-0.0192582339	 0.0838499403	-0.0551947437	 0.095047
C	-1.305147808	-0.7389817073	-0.0875152032	-0.064792
C	-0.7049072453	-1.7791104891	-0.928836077	-0.141715
N	-1.7916339131	-0.8815016326	-1.5056052477	-0.201368
C	-0.7390971099	-0.2748066176	-2.3152657934	 0.389178
O	-0.766923223	 0.0942665627	-3.4478320462	-0.332462
C	 0.3742255085	-0.6531220864	-1.3574055241	 0.200325
O	 1.6851818692	-0.7260446894	-1.7330276005	-0.469431
H	 0.7049323775	 1.878314102	-0.1054805298	 0.297663
H	 0.6137852392	-0.2566155654	 0.7759910354	 0.095424
H	-2.067705738	-0.8144865485	 0.675311168	 0.123608
H	-0.7534740322	-2.855215667	-0.9878960621	 0.134731
H	 1.7197040716	-0.7870768644	-2.6968535641	 0.306378
