19
gdb 70888	2.3659	1.64454	1.44201	2.2755	75.92	-0.2248	0.0656	0.2904	1039.6075	0.156947	-422.970476	-422.96168	-422.960736	-423.003199	34.119	
C	-0.030496352	 1.3749316585	-0.0935737027	-0.510276
C	-0.0337722253	-0.1127923846	-0.0224500409	 0.423271
O	 0.926551866	-0.8620818482	-0.76723863	-0.353811
C	 0.1516937864	-2.0625891933	-0.4618728019	 0.341041
C	 0.2661613936	-3.1466860331	-1.4859069751	-0.504008
C	 0.4145673093	-2.2533688564	 1.059102072	-0.26396
C	-0.3749356369	-0.9620769614	 1.2494228523	-0.244984
C	-1.1012303391	-1.1374694037	-0.0812157846	 0.213607
O	-2.4099416711	-1.0584720439	-0.476383081	-0.449862
H	 0.8963752168	 1.7857097476	 0.3202577659	 0.130639
H	-0.1253124642	 1.7137212909	-1.1299282053	 0.133941
H	-0.8706607836	 1.7803056039	 0.4775572871	 0.129193
H	 1.3088488428	-3.4705049142	-1.578166704	 0.132682
H	-0.3373666118	-4.0137307271	-1.2003885838	 0.117436
H	-0.0711433205	-2.7930908723	-2.4642796299	 0.1355
H	-0.1159949047	-3.1211988233	 1.4624952953	 0.091739
H	 1.4680142685	-2.2766392301	 1.3547876946	 0.098749
H	-0.7286978543	-0.4956205179	 2.1606746188	 0.088533
H	-2.93236098	-1.6713736714	 0.0540786532	 0.290572
