15
gdb 47983	6.72868	0.66148	0.60828	3.22	84.97	-0.2359	-0.0875	0.1484	1736.3666	0.113063	-416.791794	-416.783238	-416.782293	-416.826628	29.273	
O	-0.8815403863	 1.274397828	 0.1978846797	-0.223737
C	 0.2160840888	 0.8861162649	-0.1292640014	 0.008153
C	 1.3970826439	 1.7137048089	-0.1374175037	 0.200107
C	 2.411009244	 2.3701792057	-0.1598715001	-0.006943
C	 3.5798817157	 3.1873300276	-0.1525444245	 0.196536
N	 4.7543070235	 2.7456642883	-0.4285992924	-0.293799
C	 5.6513439483	 3.9095370297	-0.3285993862	-0.17562
C	 4.8292099956	 5.0270271496	 0.3680933966	-0.191042
N	 3.4611674512	 4.5474555494	 0.1263460596	-0.354427
H	 0.3936978436	-0.1584018871	-0.4526894134	 0.112104
H	 6.5635872859	 3.6448489004	 0.2121850922	 0.121732
H	 5.9485117462	 4.2061642548	-1.3431357425	 0.124739
H	 5.0501721814	 5.0836031776	 1.4429224899	 0.110534
H	 4.9885431012	 6.0151419718	-0.0701199095	 0.12005
H	 2.7252685471	 4.8326938902	 0.7562172457	 0.251612
