18
gdb 32952	4.42185	0.85987	0.75703	2.0421	77.3	-0.2338	0.0026	0.2364	1533.0744	0.14678	-439.114509	-439.105269	-439.104325	-439.149623	31.98	
C	-0.2811771228	 1.2870348112	 0.137632799	-0.221764
O	-0.1341881893	-0.1117922722	 0.0624310074	-0.231136
C	 0.7490533275	-0.6140178253	 1.0482800781	-0.19339
C	 0.8210183883	-2.0908286598	 0.9587697084	 0.329061
C	 1.7688997446	-2.977537763	 0.5728797257	-0.195486
N	 1.2853055971	-4.2710301695	 0.7141076859	-0.30056
C	 0.080972964	-4.1165835581	 1.1713197651	 0.384316
C	-0.9211703243	-5.1610676584	 1.5059929739	-0.489687
O	-0.2751121249	-2.8194466132	 1.3524099098	-0.202037
H	 0.6750535402	 1.8096835195	-0.0256848109	 0.104125
H	-0.9826178528	 1.5819573006	-0.6460095781	 0.131451
H	-0.6821039053	 1.6049034175	 1.1134143224	 0.105167
H	 1.7641299614	-0.2073020511	 0.9118466142	 0.104476
H	 0.4063777684	-0.3092419726	 2.0518809977	 0.102419
H	 2.7629761802	-2.7784338701	 0.2041170108	 0.12303
H	-1.217031027	-5.1011710949	 2.5584752278	 0.144756
H	-1.8269818009	-5.0441029348	 0.9021615295	 0.148146
H	-0.4869081245	-6.1419229057	 1.3120852832	 0.157115
