23
gdb 88423	2.29337	1.23281	1.10312	1.7239	85.68	-0.2514	0.0875	0.3389	1292.491	0.203507	-388.266147	-388.255995	-388.255051	-388.301276	38.278	
C	-1.6713967457	-0.3739792903	 1.2531301237	-0.420851
C	-0.4211212734	-0.9572134058	 0.647750208	 0.081911
O	 0.3692854076	-0.079560399	-0.1550119559	-0.260466
C	 0.959976766	-0.6042680633	 1.0433259645	-0.02674
C	 1.3581091858	 0.3893823362	 2.1106990008	 0.298913
C	 1.8334786583	 1.7211957541	 1.5529812689	-0.446729
C	 0.6639397091	 0.396217363	 3.4593033796	-0.329982
C	 2.0686922624	-0.140311236	 3.3424055679	-0.035496
C	 2.3430338538	-1.614248619	 3.5516124685	-0.41311
H	-1.4782119055	 0.6012386136	 1.7028083329	 0.137925
H	-2.435064529	-0.2516240242	 0.477582622	 0.125433
H	-2.0801464217	-1.0415626295	 2.0195262579	 0.11676
H	-0.5564713617	-1.9463748514	 0.2021322805	 0.082477
H	 1.7238258977	-1.3552118908	 0.8274035336	 0.087671
H	 1.0461715906	 2.2014531317	 0.9657283885	 0.130521
H	 2.1272665572	 2.3974124755	 2.3617052351	 0.106292
H	 2.6992838885	 1.5876703874	 0.8942832047	 0.116968
H	 0.5021663523	 1.3534302424	 3.9450284809	 0.106794
H	-0.1249705303	-0.3274080637	 3.635156278	 0.108813
H	 2.8539087866	 0.5100243426	 3.7210272965	 0.080581
H	 1.5199781804	-2.2350825921	 3.1836649426	 0.117155
H	 3.2559688194	-1.9339886416	 3.0362355509	 0.1179
H	 2.4702895416	-1.8366737697	 4.61670324	 0.117259
