18
gdb 97173	2.36912	1.59868	1.01452	3.	76.35	-0.2541	-0.0008	0.2533	1172.3819	0.147238	-439.092722	-439.08388	-439.082936	-439.127094	32.168	
C	-0.1297987219	 1.3102204571	-0.2070625071	-0.32838
N	 0.0915348053	-0.1194779886	-0.0738440944	-0.330693
C	 0.491614476	-0.6062189295	 1.0221674598	 0.394128
O	 0.7631106839	 0.1378429631	 2.1153822098	-0.258054
C	 0.9711516425	-0.5034280274	 3.3901564733	-0.120814
C	 0.2873308056	-1.8333152387	 3.5148514082	-0.098902
C	 0.1290824858	-2.5936925689	 2.437618599	-0.079733
C	 0.6764014343	-2.1161027411	 1.1159326606	 0.012729
O	 0.0748182234	-2.7565912631	 0.026738682	-0.440926
H	 0.7791404965	 1.8004473386	-0.5779584998	 0.127597
H	-0.9177425318	 1.4819475462	-0.9455183455	 0.123488
H	-0.4096624077	 1.7924108135	 0.7365939515	 0.122092
H	 2.0558680919	-0.5978433327	 3.5470224452	 0.128998
H	 0.5976376463	 0.2098064616	 4.1304143687	 0.13225
H	-0.0546208301	-2.1312540487	 4.5004079319	 0.108778
H	-0.3660166998	-3.5583043264	 2.4487308666	 0.118482
H	 1.7685173432	-2.3063148217	 1.1092116686	 0.099418
H	-0.1491596034	-2.0300588334	-0.5828079583	 0.289542
