20
gdb 47515	2.56866	1.75967	1.29074	3.2057	80.01	-0.2513	0.0217	0.273	1036.2529	0.174699	-403.152839	-403.145466	-403.144522	-403.184484	30.011	
N	-0.0814921702	 1.313724958	-0.1230569998	-0.501871
C	-0.0115335776	 0.0588469964	 0.0452951398	 0.359647
O	 1.2092346801	-0.5674316193	 0.1176466779	-0.256932
C	 1.4083697369	-1.6611140718	 1.0239020554	-0.080724
C	 0.7296668422	-2.9774302624	 0.6392228194	-0.220114
C	-0.7793353378	-2.8763567161	 0.3814410052	-0.000305
C	-1.1121835597	-2.0428712033	-0.8875160956	-0.228923
C	-1.260162142	-0.7828631605	 0.0208885924	-0.051349
C	-1.4790801041	-1.7665279502	 1.21619531	-0.2554
H	 0.8607578438	 1.7119369986	-0.1080135634	 0.215186
H	 2.4923479432	-1.8012730069	 1.0436237794	 0.116376
H	 1.1051946173	-1.3501565853	 2.0311346127	 0.110333
H	 1.2188222185	-3.3973259393	-0.2482622388	 0.108429
H	 0.9224446412	-3.6749679492	 1.465054969	 0.101692
H	-1.2257329351	-3.8731860028	 0.4278436174	 0.067838
H	-0.3595970338	-2.0055023435	-1.6787931141	 0.107316
H	-2.0749090649	-2.3245508041	-1.3206407454	 0.102436
H	-2.0843878484	-0.1055481846	-0.1960906471	 0.09806
H	-2.5469904836	-1.9683141369	 1.3299339233	 0.106548
H	-1.0760408559	-1.505469637	 2.1974557724	 0.101757
