15
gdb 130218	3.06231	1.36879	1.03269	1.1868	68.81	-0.2141	-0.042	0.1721	1102.9188	0.114135	-450.140798	-450.132584	-450.13164	-450.174004	29.661	
N	 0.2024669407	 1.3707820678	-0.0957600889	-0.60478
C	 0.1407102145	-0.0089328335	-0.0687786094	 0.282977
N	-0.9992248139	-0.6999273835	-0.0554209127	-0.283319
N	-0.5774211689	-1.9678811302	 0.037880147	-0.090048
N	 0.7279738743	-2.1576429844	 0.0812549639	-0.262099
C	 1.224244432	-0.9202683298	 0.0220781072	 0.252711
C	 2.691450954	-0.6111373141	 0.0347223279	-0.388557
C	 3.0688487088	-0.0317898553	-1.320712383	 0.141972
O	 2.8713205133	 1.1197866637	-1.6283018146	-0.241841
H	 1.0106049296	 1.726758238	-0.5931159146	 0.270193
H	-0.6603153276	 1.8051038156	-0.3916062968	 0.255221
H	-1.2269256119	-2.734121854	 0.0880983102	 0.290925
H	 2.916477267	 0.1393540524	 0.8013516747	 0.140673
H	 3.2568949291	-1.5233757075	 0.2379341668	 0.13409
H	 3.4989593888	-0.7477416752	-2.0527438478	 0.101883
