23
gdb 119007	3.13555	0.9964	0.93848	2.0741	82.66	-0.2402	0.0779	0.3181	1414.8476	0.20468	-425.428545	-425.418523	-425.417579	-425.464112	36.685	
C	 0.1499058989	 1.2849894385	-0.0641530594	-0.223374
O	 0.0986782048	-0.104211919	 0.1430419908	-0.231768
C	-1.1679213773	-0.6534046271	-0.1226667768	-0.078479
C	-1.1406949338	-2.1698991851	 0.0946565426	 0.381237
C	-0.5322183367	-2.5291868384	 1.4505336995	-0.421534
C	-2.5648700361	-2.7579631655	-0.1099408025	-0.286162
C	-2.3347700155	-3.9563729441	-1.0435569571	-0.215228
C	-1.1295937947	-3.473083331	-1.8511288693	-0.071249
O	-0.3160366623	-2.7802507902	-0.9186056964	-0.292686
H	 1.165909983	 1.6142599707	 0.1671020428	 0.126776
H	-0.0808052386	 1.5520204803	-1.1079994308	 0.102825
H	-0.5559291147	 1.8238700018	 0.5890380995	 0.099566
H	-1.9317199179	-0.2030272516	 0.5377102941	 0.077416
H	-1.4721020184	-0.4457484711	-1.163148172	 0.080845
H	-1.073164709	-2.0357458698	 2.2647834076	 0.105014
H	-0.5759737212	-3.6108870729	 1.6072642199	 0.106813
H	 0.5104058642	-2.2097145696	 1.4860189697	 0.142283
H	-3.0320882341	-3.032028565	 0.8385586929	 0.105547
H	-3.2154233097	-2.0215897218	-0.5962569562	 0.098293
H	-2.0670419332	-4.8498430072	-0.4704861557	 0.108392
H	-3.2036959963	-4.1956799093	-1.6618067667	 0.098379
H	-0.5317543001	-4.2782019688	-2.2888412474	 0.104875
H	-1.4529132413	-2.8077691036	-2.6699650791	 0.082219
