18
gdb 67949	2.35436	1.85293	1.31165	2.9131	77.84	-0.2523	-0.0012	0.2512	1021.1944	0.148545	-401.971398	-401.963667	-401.962722	-402.003422	30.436	
C	 0.2171514207	 1.5905967567	-0.1086217635	-0.464569
C	 0.0304182534	 0.1023978448	 0.0747236537	 0.405817
O	-1.3078365711	-0.1828349467	 0.674546978	-0.298981
C	-0.7318202395	-0.9071420934	 1.6925049647	 0.424269
N	-1.2557273749	-1.5444809364	 2.638732587	-0.552146
C	 0.6980213001	-0.6650703066	 1.2520995504	-0.218676
C	 1.4516483277	-1.8680751828	 0.6507161069	-0.285206
C	 1.0473557171	-1.8282975766	-0.8064576388	-0.061361
C	 0.2940750102	-0.7733929612	-1.1182267673	-0.125747
H	 1.2327587401	 1.8063304322	-0.4549633967	 0.127997
H	-0.4861636091	 1.9763952407	-0.853707511	 0.132191
H	 0.0449155758	 2.122424204	 0.8311755363	 0.130099
H	-2.2753668894	-1.4920381826	 2.5975992396	 0.224245
H	 1.2824932948	-0.0744031816	 1.9581152098	 0.102285
H	 2.5377445063	-1.7663140235	 0.766780998	 0.114393
H	 1.172931663	-2.8098035713	 1.1358666736	 0.137396
H	 1.3537432785	-2.5982006708	-1.5069438206	 0.105798
H	-0.1048047936	-0.546589615	-2.1003940701	 0.102197
