18
gdb 73336	2.40992	1.90708	1.55422	2.754	75.15	-0.2382	-0.0141	0.2241	947.5832	0.148796	-401.94884	-401.941299	-401.940355	-401.980566	29.642	
C	-0.0235163733	 1.5138105601	 0.0147440701	-0.471968
C	-0.0442694209	 0.0026114992	 0.0170482423	 0.179103
C	-1.4160629442	-0.6786190951	-0.0085007196	-0.253344
C	-1.1094669147	-2.1361138432	 0.408122933	-0.261504
C	 0.2890127042	-2.0290502194	 1.0056634803	-0.008949
C	 1.4441315962	-1.5558065546	 0.1676829504	-0.198602
N	 0.7260165642	-0.6492259046	 1.187092223	-0.159446
C	 0.9545841904	-0.6862681287	-0.936274518	 0.423522
O	 1.3455012049	-0.4359766347	-2.0432051373	-0.337869
H	 0.9965883114	 1.8921658514	 0.1184207207	 0.134769
H	-0.4310098924	 1.8910290642	-0.9279048322	 0.135595
H	-0.6250644882	 1.9092343073	 0.8391496826	 0.124018
H	-2.0778122284	-0.1927695386	 0.7168494809	 0.111992
H	-1.8854081353	-0.602272574	-0.9927395284	 0.122021
H	-1.8164239718	-2.5024722049	 1.1571057758	 0.11499
H	-1.1379217389	-2.8315084263	-0.4353733161	 0.121829
H	 0.5698262383	-2.6990154291	 1.8138932333	 0.105863
H	 2.4536876984	-1.925940349	 0.3118123891	 0.117982
