19
gdb 75030	2.64496	1.63177	1.19581	1.6647	84.76	-0.2113	-0.0259	0.1854	1087.608	0.160219	-385.887579	-385.879635	-385.87869	-385.919862	31.172	
C	 0.271015375	 1.4818391505	 0.2465328479	-0.478142
C	-0.0055984756	 0.0290453288	-0.0219064272	 0.307758
C	 0.154463042	-0.5018626581	-1.2442968079	-0.143747
C	-0.0380247865	-1.8966419	-1.6190237428	-0.101752
C	 0.1454765925	-2.9884192292	-0.8568767866	-0.081285
C	 0.6515804278	-3.0383377772	 0.5335337891	 0.014375
O	 1.6646271476	-2.0966404274	 0.9506790179	-0.244056
C	 0.3741514074	-1.9828274872	 1.5295774269	 0.053118
C	-0.4964342905	-0.7831738298	 1.1594740552	-0.368692
H	 1.0634672225	 1.5900455735	 0.999296668	 0.132509
H	 0.5868830315	 2.0101254403	-0.6565702565	 0.121587
H	-0.6133011243	 1.9908533011	 0.6519566478	 0.122647
H	 0.4333001276	 0.1664110086	-2.0570672494	 0.079743
H	-0.3326466382	-2.063539209	-2.6537711293	 0.093023
H	-0.0576031091	-3.9607104145	-1.2975823818	 0.088818
H	 0.8318332772	-4.0439069736	 0.9126386143	 0.089441
H	 0.3323702017	-2.2736905656	 2.5820071837	 0.088088
H	-0.5843835722	-0.1312551489	 2.0347386323	 0.104495
H	-1.5070007165	-1.1656195921	 0.9536964884	 0.122074
