22
gdb 122065	3.22294	0.69325	0.59594	3.2243	84.07	-0.2602	0.0324	0.2926	1923.4025	0.192099	-404.362533	-404.351393	-404.350449	-404.399923	38.246	
C	 0.0973124972	 1.5386011851	 0.0371331994	-0.399704
C	 0.0004943875	 0.0126925179	-0.0036546277	-0.181045
C	-1.4499123529	-0.524629503	 0.0226187786	-0.139712
C	-1.497652923	-2.0595885053	-0.127265885	-0.210534
C	-2.9102948905	-2.6255502994	-0.2118108946	-0.068274
O	-2.8058823273	-4.0169516387	-0.40764001	-0.231485
C	-4.0579212029	-4.6593787071	-0.4574982881	-0.230691
C	-2.1356068287	-0.0959884993	 1.2485970235	 0.289999
N	-2.6644214629	 0.2374965096	 2.2213386137	-0.341463
H	 1.1424117049	 1.8593966115	 0.0056229438	 0.122061
H	-0.4167102845	 1.9921767313	-0.8174268101	 0.118198
H	-0.3509613232	 1.9411459719	 0.9503919344	 0.145274
H	 0.4700337794	-0.3693323685	-0.917161573	 0.107692
H	 0.5504858458	-0.4231841677	 0.8381721221	 0.118344
H	-1.9967513688	-0.0737051533	-0.8174791095	 0.123025
H	-0.9550475885	-2.3309995555	-1.0388319398	 0.115572
H	-0.9738314162	-2.5295397052	 0.7117616352	 0.124895
H	-3.4719518282	-2.4028713956	 0.7101093623	 0.111559
H	-3.4621970559	-2.1573968247	-1.047023149	 0.083817
H	-4.6751627294	-4.2880835075	-1.2911274061	 0.104132
H	-3.8721340002	-5.7260007242	-0.6041877028	 0.128668
H	-4.6251758018	-4.5211262927	 0.4762044025	 0.109672
