20
gdb 16159	4.15724	1.57698	1.35372	0.2037	79.89	-0.2228	0.025	0.2479	1000.0106	0.178109	-311.875064	-311.867367	-311.866423	-311.906847	30.282	
C	 0.1059201841	 1.4990727211	 0.3232740633	-0.374929
C	 0.0037845428	 0.0482670041	-0.1658143614	-0.279804
C	-1.4075372736	-0.5011907374	-0.1344312866	 0.358497
C	-1.9982271887	-1.0228344248	 1.1651357957	-0.316561
C	-1.7448637887	-1.9789461934	 0.0257667299	-0.103013
C	-2.9036841138	-2.3091126242	-0.9137914944	-0.276255
C	-3.2683168304	-0.9616601229	-1.5031286731	-0.08028
C	-2.44065747	 0.002864252	-1.0956982786	-0.13872
H	 1.1418480226	 1.8515304113	 0.2985900749	 0.109048
H	-0.4876408255	 2.1756404603	-0.3006017627	 0.115928
H	-0.2592988897	 1.5919868376	 1.3512657424	 0.117772
H	 0.401167914	-0.0238332542	-1.1868273335	 0.096102
H	 0.644598408	-0.5879291502	 0.4572770718	 0.092789
H	-1.3321853533	-1.0989031706	 2.0200058742	 0.102793
H	-3.020625903	-0.754178395	 1.4120944379	 0.106363
H	-0.9518445348	-2.7077485156	 0.1520822473	 0.080084
H	-2.6008924086	-3.0187638182	-1.6960556555	 0.104378
H	-3.7493461709	-2.7742126459	-0.3899478003	 0.106877
H	-4.1207961582	-0.8221024848	-2.1586275174	 0.089569
H	-2.5023949824	 1.0448868009	-1.3905051638	 0.089363
