12
gdb 129509	2.95393	1.65914	1.06241	3.7107	57.81	-0.2694	-0.0509	0.2185	1005.4489	0.078145	-502.153698	-502.145835	-502.144891	-502.186855	27.613	
N	-0.1267268741	 1.3615787392	 0.0105536787	-0.573628
C	 0.1068213702	 0.0280442102	 0.0020105186	 0.521962
O	 1.1784506316	-0.5166979736	-0.0118630976	-0.337092
N	-1.1128726534	-0.7331543657	 0.0093239314	-0.179544
N	-2.3381533629	-0.1131006241	 0.0218352416	-0.120026
N	-3.2439039513	-0.9968829444	 0.0262430325	-0.05271
N	-2.6485694277	-2.2088316159	 0.0167500734	-0.317067
C	-1.2568891614	-2.1358007967	 0.0050993992	 0.552357
O	-0.4523614601	-3.0252496085	-0.0043787804	-0.362438
H	 0.6742433345	 1.9678367133	 0.0010384319	 0.279655
H	-1.0595052399	 1.7369391675	 0.0169337599	 0.288751
H	-3.2017938057	-3.0496130613	 0.0192094707	 0.299779
