13
gdb 825	7.87938	1.89649	1.68418	0.9303	58.41	-0.2324	0.002	0.2344	719.4536	0.101956	-340.537496	-340.531385	-340.530441	-340.567299	22.984	
O	-0.1414023033	 1.3175641128	-0.0289352244	-0.393101
N	 0.0344565227	-0.0792165363	 0.0022053594	-0.25715
C	-1.0826220404	-0.6688183774	-0.0841039701	 0.439436
C	-2.5494414731	-0.2902202294	-0.0058231356	-0.259888
N	-2.9090426552	-1.7439557037	 0.2194058999	-0.120073
C	-2.4747078887	-2.4392820985	-0.9934116006	-0.233745
C	-1.4296959076	-2.105268276	 0.0124109921	-0.125636
H	 0.7614156975	 1.6375855776	 0.0724367064	 0.309264
H	-2.7784371374	 0.3127925752	 0.8762612233	 0.143164
H	-3.0212528764	 0.1562730857	-0.8862236742	 0.126225
H	-2.7967590008	-3.4756311285	-1.0326015278	 0.131727
H	-2.4954452854	-1.915589484	-1.9469913317	 0.122114
H	-0.9178797817	-2.8573333874	 0.6012728932	 0.117663
