14
gdb 10593	3.35827	1.70838	1.35665	2.2258	66.48	-0.2413	-0.0414	0.1999	904.6811	0.104364	-382.501034	-382.493208	-382.492264	-382.532788	29.42	
O	-0.1368437604	 1.3742938914	 0.0805281716	-0.40295
C	-0.0555054433	 0.0110735446	 0.0853099638	 0.12964
C	-0.4163340814	-0.8203831238	 1.242953482	-0.347887
C	-1.3875796967	-0.8808633781	 0.0371308772	-0.033962
C	-2.6228909395	-0.0843552862	 0.1594244409	 0.104686
O	-2.7050022613	 0.9313050161	 0.8277131885	-0.314101
C	-1.4159562816	-2.0471079595	-0.788093885	 0.215906
C	-1.4410971388	-3.0248152515	-1.4893276877	-0.396578
H	-0.9302116874	 1.6255206206	 0.5861859379	 0.312198
H	 0.7084337988	-0.3468254651	-0.595763234	 0.140321
H	 0.136435798	-1.7329193773	 1.4326722263	 0.143689
H	-0.8189244648	-0.3157315147	 2.1155600825	 0.145612
H	-3.48416066	-0.4500748727	-0.4309211533	 0.106727
H	-1.4643556218	-3.8874880538	-2.1081612705	 0.196699
