19
gdb 65071	2.0677	1.67975	1.25503	3.736	75.62	-0.2414	-0.0234	0.218	1090.5553	0.158126	-419.161028	-419.151973	-419.151028	-419.194968	33.872	
C	 0.1629144677	 0.7795983438	 1.2870847576	-0.478171
C	-0.0308077703	-0.0629527407	 0.0372031427	 0.229795
C	 0.701350826	 0.350968327	-1.192163063	-0.302963
N	 1.1015296379	-0.8600458506	-0.4601470496	-0.331527
C	-1.3663841092	-0.7648782114	-0.0417319306	 0.178237
C	-2.5602962839	-0.0057184662	-0.5466018294	-0.26876
N	-2.0164915043	-1.1097351131	-1.3224105121	-0.346125
C	-1.6401689284	-1.8184519858	 0.9905697715	 0.152947
O	-0.9732042473	-2.0258294381	 1.9721485273	-0.266812
H	 1.1399721539	 1.2735796911	 1.2685333574	 0.108581
H	-0.604428349	 1.558088223	 1.3593357562	 0.119288
H	 0.1023303609	 0.1539675565	 2.1797357876	 0.160916
H	 0.3135118041	 0.1742694157	-2.1925808287	 0.11073
H	 1.3149580462	 1.2456817619	-1.1173107591	 0.115207
H	 1.9305192393	-0.685050144	 0.1022983082	 0.234603
H	-3.5449390197	-0.1764100971	-0.1188959179	 0.127666
H	-2.3699023071	 1.0163806194	-0.8654160101	 0.125079
H	-1.4581572624	-0.7742291487	-2.1011681769	 0.242404
H	-2.5487908545	-2.4162552825	 0.7578749888	 0.088903
