20
gdb 52696	3.08622	0.73479	0.64492	3.7764	86.61	-0.2375	0.0317	0.2692	1811.5466	0.167309	-403.168546	-403.156872	-403.155928	-403.209374	38.803	
C	 0.0446481889	 1.4436932328	-0.0438311196	-0.498988
C	 0.0003028014	-0.0116303222	-0.0527415352	 0.088918
C	-0.0281979647	-1.2153987262	-0.0439904866	 0.034003
C	-0.0937743299	-2.6763671936	-0.0545357381	-0.11252
C	-1.5453803094	-3.1909735743	-0.012020757	-0.383067
N	 0.6294748275	-3.1966889391	-1.2178637509	-0.317121
C	 1.2862649955	-4.3908523704	-1.1755027499	 0.420038
C	 2.0351052095	-4.7695809775	-2.444035767	-0.482699
O	 1.2789798477	-5.1042127405	-0.1864750149	-0.382409
H	 0.9123826595	 1.817590845	-0.5982681636	 0.149663
H	-0.8529465489	 1.8752396285	-0.5000976202	 0.148961
H	 0.1156273127	 1.8296164415	 0.9789672623	 0.153103
H	 0.4298834766	-3.0796997511	 0.8197834592	 0.139445
H	-1.5385067137	-4.2832596193	 0.0096987422	 0.140343
H	-2.0520905179	-2.8213183131	 0.8836846812	 0.124244
H	-2.1018292109	-2.8508369068	-0.8900203733	 0.114833
H	 0.6714068758	-2.6200626087	-2.0412586635	 0.247255
H	 3.1025980747	-4.8322863191	-2.2148879714	 0.153003
H	 1.7102246151	-5.7639728155	-2.7597687361	 0.152276
H	 1.8901872106	-4.0665848405	-3.2683666978	 0.110719
