18
gdb 54709	4.24376	1.21628	1.12282	1.9258	76.69	-0.2411	-0.0204	0.2207	1131.5223	0.146698	-401.864114	-401.856187	-401.855243	-401.897343	29.836	
C	 0.2185261167	 0.9051983571	 0.9827765467	-0.484244
C	 0.0242836402	 0.2339105135	-0.3610338176	 0.370168
O	 0.8806289922	 0.21226913	-1.2174667414	-0.303658
C	-1.3129982189	-0.4539578856	-0.5633718226	-0.064049
C	-1.5296690693	-1.3725708803	-1.7568790417	-0.071235
C	-0.6860160728	-2.4852437939	-1.0636513412	 0.000511
C	-1.7799156347	-3.5486644092	-1.1847456996	-0.258587
C	-2.5008274707	-2.2315653178	-0.8903057852	-0.003357
N	-1.4169983973	-1.818788569	 0.1465657098	-0.185107
H	 1.2450504816	 1.2593271415	 1.0831677803	 0.140108
H	-0.4715926866	 1.7513762677	 1.0827384368	 0.138788
H	-0.0237393633	 0.2007091834	 1.7860421818	 0.158411
H	-2.1411745281	 0.2061229568	-0.2729613442	 0.080732
H	-1.5940139714	-1.1431084642	-2.8234781999	 0.077834
H	 0.397586145	-2.5913310921	-1.0658670705	 0.102823
H	-1.9345955496	-3.9852986076	-2.1742783999	 0.104725
H	-1.8112524767	-4.3044709529	-0.3956518849	 0.111592
H	-3.5536629062	-2.0340854175	-0.6796063168	 0.084547
