16
gdb 42733	2.68858	1.8421	1.43026	2.8401	69.03	-0.234	-0.0316	0.2024	929.9138	0.125775	-437.840579	-437.833637	-437.832693	-437.871901	27.284	
O	 0.064136945	 0.0652226402	-0.0171724572	-0.343034
C	-0.004602977	 1.2630791517	 0.0408921593	 0.390744
C	-1.2098348374	 2.2229901457	 0.0233072733	-0.051661
C	-0.8196315949	 3.2694431454	 1.0969541929	-0.251639
C	 0.2595145651	 3.5405316374	 0.0204662095	-0.024625
O	-0.7314842988	 3.1572500318	-1.003402532	-0.294962
C	 1.1173061984	 2.2861594688	 0.0667782366	 0.288316
C	 2.4055800391	 2.0241988119	 0.7516711626	-0.30699
N	 2.3391742384	 2.1187820097	-0.7132849116	-0.367229
H	-2.2090474595	 1.8233750088	-0.1334565449	 0.10543
H	-1.5570596015	 4.0707843871	 1.1534002662	 0.128128
H	-0.5085615487	 2.9325348348	 2.0891674783	 0.113616
H	 0.7352992291	 4.5042978107	-0.1483861054	 0.103276
H	 2.9292429143	 2.8415919861	 1.2401195813	 0.127965
H	 2.5332594222	 1.0458142863	 1.2083236709	 0.133931
H	 2.3418792862	 1.1820920435	-1.1171626596	 0.248732
