18
gdb 105156	2.04332	1.34872	0.95099	3.1037	78.38	-0.2724	-0.0525	0.2198	1266.2355	0.145683	-401.970094	-401.960588	-401.959644	-402.004802	33.887	
C	 0.5258106605	 1.5132390166	 0.4902908194	-0.384577
C	-0.0973124094	 0.1731846059	 0.0782738458	-0.291659
C	 0.4788097472	-0.3685692465	-1.2172845729	 0.232609
C	 1.8501671549	-1.0038725538	-1.244211169	-0.306735
C	 0.6505160511	-1.8901384681	-1.439164542	-0.216855
C	 0.2440629308	-2.8028018649	-0.4098539098	 0.300503
N	-0.0881618733	-3.5344154805	 0.422787005	-0.33725
C	 0.0757193402	 0.3397551376	-2.4743318378	 0.09954
O	 0.4999872652	 0.0695080255	-3.5714015395	-0.262203
H	 1.6035138074	 1.4132855173	 0.6537530863	 0.125676
H	 0.3777251264	 2.2820231105	-0.2756930473	 0.122106
H	 0.0762349068	 1.8789764624	 1.4176146318	 0.127687
H	 0.0438424622	-0.5623973086	 0.8757651794	 0.132833
H	-1.1828883141	 0.2868256001	-0.0372771612	 0.114544
H	 2.4569548791	-0.8240218504	-2.1239520265	 0.152787
H	 2.3792249927	-1.0752519212	-0.3011254161	 0.143739
H	 0.4605399663	-2.2236297538	-2.4539050252	 0.156274
H	-0.674733864	 1.1472827118	-2.3314492607	 0.090981
