20
gdb 14372	3.69363	2.23829	1.88902	0.0236	78.74	-0.2567	0.0937	0.3504	806.0854	0.180891	-311.825974	-311.819898	-311.818954	-311.855592	26.663	
C	-0.0137079193	 1.5093421522	-0.2348384057	-0.273877
C	 1.529124928	 1.5513045853	 0.0890095304	-0.349154
C	 1.2787796801	 0.3052692571	 0.9639929347	 0.360445
C	 1.7587865499	-1.1044690515	 1.3905580259	-0.325219
C	 0.3814615317	-1.067592021	 2.1705308888	-0.01032
C	 0.6899309988	 0.4340099149	 2.3975152086	-0.24802
C	-0.7352281252	-0.9506522216	 1.085618863	-0.269153
C	 0.0368661812	-0.0108944213	 0.1216546817	 0.050129
H	-0.5912598066	 2.104936242	 0.4758174267	 0.105382
H	-0.3199941805	 1.7753860956	-1.2489775823	 0.093343
H	 2.1221862797	 1.3333473754	-0.8046118602	 0.102735
H	 1.9320842101	 2.44365388	 0.5745869997	 0.094552
H	 1.8966884079	-1.8487976442	 0.6004021727	 0.086569
H	 2.5997775391	-1.1291152925	 2.0887251548	 0.093284
H	 0.2026170783	-1.7474635794	 3.0047689933	 0.058496
H	 1.4705042729	 0.6072403331	 3.1433479594	 0.089303
H	-0.152411753	 1.1095602328	 2.573335868	 0.085475
H	-0.9963037713	-1.9050655107	 0.6190623978	 0.090042
H	-1.6493671489	-0.5257153814	 1.5124531145	 0.097777
H	 0.3268001371	-0.5512122549	-0.7867491218	 0.068213
