21
gdb 119834	4.29308	0.85762	0.79039	1.5963	81.02	-0.2124	0.0651	0.2774	1555.4479	0.183319	-420.436482	-420.426988	-420.426044	-420.471357	34.781	
C	-0.2011750059	 1.4542643427	 0.1136357404	-0.391836
C	-0.0488532846	-0.0542782793	 0.0985070255	-0.036309
O	-1.3589951966	-0.6203780437	-0.0842556567	-0.274036
C	-1.4085768619	-1.9525700536	-0.1344801226	 0.477125
N	-0.4210188436	-2.7575679405	-0.0332169263	-0.366563
C	-1.0047978894	-4.0991206305	-0.1661244183	-0.167572
C	-2.549307266	-3.9199218102	-0.0162796676	 0.02691
C	-3.0572002962	-4.2413174373	 1.390937813	-0.396742
N	-2.6718110556	-2.4903260424	-0.351893165	-0.367413
H	 0.7769541213	 1.9239945684	 0.2530543417	 0.121688
H	-0.6254030902	 1.8132704848	-0.8283635754	 0.129114
H	-0.8561037402	 1.7735534307	 0.9295475786	 0.125872
H	 0.5996493158	-0.3953531387	-0.7146799345	 0.123813
H	 0.3742212944	-0.4354711963	 1.0337824725	 0.119899
H	-0.7521287525	-4.5196244113	-1.1484281485	 0.102312
H	-0.6005127124	-4.779961227	 0.5911371786	 0.099801
H	-3.0943028496	-4.5223368848	-0.7498793048	 0.080249
H	-2.4880133052	-3.684328419	 2.1429072717	 0.127685
H	-4.1174882011	-3.9874046852	 1.5014574541	 0.110206
H	-2.9471502665	-5.3101275743	 1.6021998628	 0.120313
H	-3.4489287841	-1.9759887728	 0.0409990609	 0.235483
