20
gdb 97749	3.67141	0.83496	0.77898	2.0345	88.82	-0.2211	0.0389	0.26	1570.2597	0.170899	-365.942535	-365.933354	-365.932409	-365.978662	33.488	
C	 0.4694496349	 1.0763914122	 0.4157299862	-0.364453
C	-0.4463528743	 0.2428581832	-0.4993423434	-0.317352
C	 0.2781688686	-0.4725174418	-1.5446128156	 0.078828
C	 0.8941998392	-1.0490561245	-2.4069000653	 0.100468
C	 1.5989623693	-1.7316239756	-3.4546254003	-0.210007
C	 3.0541001355	-2.0377736326	-3.412050354	-0.022264
C	 3.5453095603	-2.297914659	-1.991817985	-0.255132
C	 2.445124553	-3.3890837723	-1.9243139269	-0.150141
N	 2.0386618246	-3.158155105	-3.359852134	-0.151818
H	 1.1999219214	 0.4378978819	 0.9200858959	 0.126806
H	 1.0180996998	 1.8251843313	-0.1618517467	 0.129003
H	-0.1212556382	 1.5927611694	 1.1782559582	 0.115491
H	-1.0147465094	-0.4752712525	 0.1057766723	 0.131253
H	-1.1937110418	 0.8979115085	-0.9653878583	 0.132392
H	 1.2120987363	-1.5400234915	-4.4530625906	 0.11357
H	 3.6827082295	-1.8738719789	-4.2827011505	 0.094676
H	 4.5552077729	-2.7099721233	-1.9588104484	 0.109937
H	 3.4745730481	-1.4586394934	-1.295143555	 0.111819
H	 2.8339443419	-4.4037113731	-1.8236425726	 0.110652
H	 1.6331614381	-3.2350900629	-1.209494476	 0.116272
