22
gdb 123187	12.72316	0.38135	0.37457	2.004	85.54	-0.2457	0.0273	0.273	2860.5491	0.191239	-441.474534	-441.462971	-441.462027	-441.513598	38.591	
C	-0.0163932947	 1.3929688615	 0.0097332717	-0.314127
N	 0.0574817262	-0.050138984	 0.0905006464	-0.205641
C	 0.519588338	-0.6613552523	-0.9068021673	 0.133402
O	 0.6191480473	-2.0046902185	-0.9079923869	-0.206656
C	 1.1593339324	-2.5909564748	-2.0942618573	-0.074741
C	 1.1863257238	-4.0989764448	-1.9010079625	-0.202455
C	 1.7517703864	-4.828227492	-3.1224522866	-0.171182
C	 1.7833840097	-6.34010955	-2.9392382595	-0.074595
O	 2.321191128	-6.9094387909	-4.1223608791	-0.421286
H	 0.5656765537	 1.8383425673	 0.8248882205	 0.126653
H	 0.350611548	 1.8098412381	-0.9431214582	 0.09369
H	-1.0542306839	 1.7176035475	 0.1481290246	 0.126664
H	 0.8699377361	-0.176274517	-1.8325706537	 0.069771
H	 0.5384531293	-2.3231317929	-2.9608906935	 0.106888
H	 2.1730169619	-2.2059067988	-2.27440491	 0.106916
H	 1.7835529343	-4.3247107335	-1.0095732257	 0.114346
H	 0.1662568241	-4.440735147	-1.6889794782	 0.114316
H	 1.154322558	-4.6012460865	-4.0140321663	 0.10825
H	 2.7718870112	-4.4850769778	-3.3345613288	 0.10826
H	 2.3957158958	-6.5940259623	-2.0584458617	 0.087345
H	 0.7639136896	-6.7112095153	-2.7438194999	 0.08734
H	 2.3442419948	-7.864512426	-4.0139210381	 0.286843
