19
gdb 51189	4.16459	1.0741	1.01672	2.8318	79.12	-0.2456	-0.0223	0.2233	1211.0387	0.159033	-385.847847	-385.839942	-385.838998	-385.881262	30.348	
O	-0.0250736081	-0.1257097863	-0.2273799702	-0.24006
C	 0.023125621	 1.0720466449	-0.1137794669	 0.165196
C	 1.2997570954	 1.885601762	-0.0687396851	-0.404134
C	 1.3498334074	 2.9211608765	-1.1748943689	 0.315323
C	 1.4885327873	 2.4982170013	-2.6692616416	-0.267835
C	 2.160928278	 3.8507990888	-2.8812533718	-0.059452
C	 1.4418809313	 4.8663234184	-1.9791004943	-0.060843
C	 0.3446737837	 4.1144194412	-1.2334115728	-0.273731
C	 2.5198957968	 3.9698830466	-1.4205200801	-0.138711
H	-0.9112116231	 1.6752619861	-0.0376604925	 0.077245
H	 1.3354399438	 2.3956218364	 0.9053480737	 0.116342
H	 2.1491661934	 1.1978866343	-0.1268153912	 0.120206
H	 2.200978412	 1.6763383508	-2.7859077352	 0.104156
H	 0.567128124	 2.2656921269	-3.2166210709	 0.09248
H	 2.7453161302	 4.1807837361	-3.7303079925	 0.087694
H	 1.505956706	 5.9283227318	-2.1776521521	 0.087495
H	-0.6175838293	 3.9436712313	-1.7308910196	 0.091857
H	 0.1737253245	 4.5442420567	-0.2413755436	 0.096598
H	 3.4501478557	 4.1747274362	-0.9107303544	 0.090174
