21
gdb 115464	3.70253	0.85928	0.72604	3.5927	89.06	-0.2463	-0.0529	0.1934	1585.0524	0.182309	-387.129286	-387.119935	-387.118991	-387.164003	34.242	
C	-0.1469049057	 1.5772201343	-0.0424044334	-0.389349
C	-0.0200894396	 0.0515319303	-0.0094723993	-0.182359
C	 0.7791016031	-0.4903508804	 1.188006819	-0.007287
C	 0.775930906	-2.0419328276	 1.296292401	-0.243114
C	 2.1631972884	-2.4349271693	 1.8611221423	-0.31886
C	 3.0087037763	-1.2238079472	 1.536600218	 0.235858
C	 4.4682446374	-1.1940254408	 1.6420189864	 0.069577
O	 5.14699555	-2.1331615913	 1.9976149009	-0.272143
C	 2.2552371587	-0.1735875696	 1.1779531264	-0.150475
H	 0.8295598676	 2.0662816137	-0.1227550274	 0.117881
H	-0.746313487	 1.9026217458	-0.8979925593	 0.117861
H	-0.6314629714	 1.9536183385	 0.8653660257	 0.117398
H	-1.0224321404	-0.393981523	 0.0208099102	 0.101619
H	 0.4449856868	-0.3060862547	-0.9371882115	 0.099174
H	 0.3441347323	-0.0507442221	 2.1011331439	 0.086951
H	-0.0544158774	-2.4163192357	 1.9001122326	 0.101917
H	 0.6587707139	-2.4623880433	 0.2907662096	 0.105729
H	 2.1370252245	-2.5956750126	 2.9465813896	 0.116999
H	 2.5663705028	-3.3537043923	 1.4263459169	 0.122668
H	 4.9334789101	-0.2215335171	 1.3624431468	 0.063313
H	 2.6529010236	 0.8075344944	 0.9366782018	 0.106643
