17
gdb 16147	3.94029	1.74082	1.45079	3.0613	68.66	-0.2431	-0.0242	0.2189	893.1718	0.143368	-363.860605	-363.853539	-363.852595	-363.891868	27.034	
O	-0.2790582192	 0.1304979139	 0.2012626022	-0.262874
C	-0.0491090113	 1.284941832	-0.063132527	 0.095627
C	 1.3060584712	 1.891845152	-0.0339346528	 0.246389
C	 1.4484005312	 3.3365857434	 0.3443359975	-0.286954
N	 1.5574631188	 2.9551848278	-1.053810159	-0.129263
C	 2.9446949365	 2.7465096924	-1.5229777395	-0.149536
C	 3.6695454931	 1.8300176523	-0.5099253518	-0.246261
C	 2.5289791407	 1.004165141	 0.123212337	-0.284549
H	-0.8550065752	 1.9926067714	-0.3587247986	 0.079905
H	 0.56429287	 3.9194187986	 0.5893435839	 0.124073
H	 2.340194945	 3.6117460282	 0.9029737239	 0.120918
H	 2.8764197789	 2.2659403279	-2.5042555701	 0.116817
H	 3.4369080741	 3.7140461751	-1.6602160244	 0.112807
H	 4.424157225	 1.203838366	-0.9913460719	 0.110621
H	 4.1886042933	 2.4208263816	 0.2503512543	 0.109967
H	 2.72605406	 0.7376498271	 1.1647959589	 0.115863
H	 2.352286788	 0.0701097994	-0.4186630127	 0.12645
