14
gdb 373	6.84522	2.20034	1.78254	2.8538	54.01	-0.2695	0.0286	0.298	689.9612	0.119956	-266.626759	-266.619585	-266.618641	-266.657544	24.891	
C	-0.0628133228	 1.551901673	 0.024297862	-0.38775
C	 0.0144910829	 0.0244307983	 0.0057547873	-0.160829
C	 0.7679106791	-0.5153539053	-1.2269201525	-0.113333
N	 2.1605135026	-0.0602105833	-1.2283120454	-0.491556
C	 0.6448277739	-1.9888165982	-1.2983067395	 0.25175
N	 0.5933208911	-3.1431432547	-1.3476824393	-0.322986
H	 0.9355771986	 1.9932338942	-0.006284549	 0.141562
H	-0.6231572818	 1.9277767604	-0.8388545804	 0.116997
H	-0.5708683227	 1.8993708956	 0.9283035094	 0.118216
H	 0.5188134311	-0.345201593	 0.9073731717	 0.111212
H	-0.9898957014	-0.4116590455	 0.0143741539	 0.120512
H	 0.2907935509	-0.1090715454	-2.1275756369	 0.130504
H	 2.6613353923	-0.4906634236	-0.4552769351	 0.240665
H	 2.6282433461	-0.3625286124	-2.0774324962	 0.245035
