22
gdb 88557	3.37739	1.15225	1.0773	1.2082	86.61	-0.2179	0.0895	0.3074	1245.8863	0.194742	-367.148737	-367.14003	-367.139086	-367.182276	33.867	
C	 3.0548739926	-0.7504239343	 0.373931512	-0.315238
N	 1.6536172552	-1.1484062969	 0.3269963178	-0.085747
C	 1.2067398072	-2.1149840758	 1.3210023013	-0.261184
C	 0.7506505834	-0.6963297909	 1.4015299595	-0.127983
C	 1.1626655023	 0.241425307	 2.4820658459	 0.394423
C	 1.9911022377	-0.093412875	 3.6939452277	-0.323039
C	 0.5887110703	 0.4049885294	 3.9025905852	-0.114324
C	 0.5382764015	 1.9266814553	 3.743443047	-0.221226
C	 1.1336597149	 1.7744397702	 2.306603088	-0.290602
H	 3.4882359556	-0.7188265205	 1.3841653715	 0.110156
H	 3.6372624268	-1.4576406698	-0.2257845463	 0.118856
H	 3.1628178297	 0.2415974242	-0.0768836317	 0.1208
H	 0.5309647021	-2.8900452031	 0.9670540981	 0.110658
H	 1.9307521832	-2.4534736745	 2.0603281766	 0.103211
H	-0.2456638322	-0.479454753	 1.0137836257	 0.083673
H	 2.1363131411	-1.1494784409	 3.8930273681	 0.111453
H	 2.8423135688	 0.5299203045	 3.9634978881	 0.100968
H	-0.154395886	-0.2072518747	 4.400291655	 0.086482
H	-0.477766271	 2.3271139602	 3.7285640754	 0.103246
H	 1.1267607395	 2.5015088815	 4.466485647	 0.09508
H	 2.1004420325	 2.251248557	 2.1132474405	 0.094325
H	 0.4312822545	 2.0928465801	 1.5323017077	 0.106012
