20
gdb 63152	2.29677	1.67346	1.33885	1.8578	78.98	-0.2252	-0.0244	0.2007	1070.3601	0.169709	-403.127068	-403.118088	-403.117144	-403.16089	33.802	
C	 0.1384610736	 1.5524871044	 0.0886581862	-0.446976
C	 0.0492540575	 0.0317383612	 0.0482105356	 0.175541
C	-1.4000252699	-0.4410608434	 0.2152015405	-0.40854
N	 0.6603037562	-0.7035382919	-1.1343327539	-0.165785
C	 1.9073192745	-0.1081430291	-1.7242731422	-0.171815
C	 2.822731819	-1.0167086719	-0.8608910045	-0.254097
C	 1.5215485051	-1.5514437903	-0.2133398215	-0.103281
C	 1.0021388634	-0.7477150728	 0.9859383249	 0.359853
O	 1.2618485225	-0.7013770794	 2.1526251756	-0.302774
H	 1.167011102	 1.9197780129	 0.1217034561	 0.123638
H	-0.3587538816	 1.98692552	-0.7855974142	 0.127848
H	-0.3667252644	 1.9225147541	 0.9852026775	 0.136135
H	-2.0201031329	-0.0123648529	-0.5783105927	 0.124199
H	-1.4700366521	-1.5297176109	 0.1425743482	 0.123001
H	-1.796618293	-0.1295059899	 1.1865510761	 0.124233
H	 1.9593650573	-0.3023321346	-2.7991490405	 0.112751
H	 2.024725049	 0.9674890457	-1.5714724704	 0.106413
H	 3.3750215883	-1.7705603442	-1.4242981906	 0.11808
H	 3.513287446	-0.5148519277	-0.1796222866	 0.120396
H	 1.3614497295	-2.6328754993	-0.1895639836	 0.10118
