19
gdb 73821	3.04787	1.49621	1.13947	2.2304	81.4	-0.2127	0.009	0.2216	1114.1209	0.158351	-385.825418	-385.817398	-385.816454	-385.85766	31.392	
C	-0.0281030138	 1.5262658217	 0.0577973295	-0.50652
C	 0.0113468819	 0.0368454077	-0.0197176307	 0.19074
C	-0.0032551438	-0.7965724715	-1.0741100737	 0.19074
C	-0.0640992686	-0.5273452573	-2.5403138191	-0.50652
C	 0.0588089031	-2.1839764352	-0.4511415283	-0.13743
C	-0.7871250018	-2.1552793628	 0.8673348143	 0.077601
O	 0.1561062966	-3.0446175804	 1.5572676708	-0.327324
C	 0.9949663845	-2.1046317593	 0.8027032498	 0.077593
C	 0.0813978247	-0.8905858412	 1.1851872845	-0.13743
H	 0.859153567	 1.9248489622	 0.5669005934	 0.127596
H	-0.0779056854	 1.9849410891	-0.9334895779	 0.124249
H	-0.8963979302	 1.8749362939	 0.6320395634	 0.127583
H	-0.1031268822	 0.5436726857	-2.756902556	 0.124249
H	 0.8088733317	-0.9425352174	-3.060710755	 0.127595
H	-0.9467033677	-0.9937053454	-2.9972396734	 0.127584
H	 0.0621965669	-3.0850856719	-1.0637369911	 0.071124
H	-1.8563215333	-2.3260468494	 1.0170716269	 0.088724
H	 2.0801553252	-2.214180537	 0.8743138058	 0.088722
H	 0.1072975852	-0.5028545714	 2.203163797	 0.071124
