19
gdb 79762	2.73756	1.96578	1.83156	1.3247	75.67	-0.2174	0.0827	0.3001	881.1251	0.162441	-385.880056	-385.87355	-385.872606	-385.910552	27.834	
C	-0.2792570619	 1.5537811136	 0.0055848403	-0.394633
C	 0.0250176961	 0.0490258482	 0.004439312	 0.003915
C	 0.878987292	-0.4088435205	-1.177024458	-0.119848
C	 2.3527149519	-0.1116678176	-1.0773749471	 0.085504
O	 2.80642832	 0.5702852176	 0.0666225365	-0.249238
C	 2.3043355048	-0.1231816869	 1.1831587186	 0.085504
C	 1.8191300865	-1.5020182188	 0.7917016694	-0.125161
C	 1.8515089316	-1.494313611	-0.7210928729	-0.125161
C	 0.8277585967	-0.4210321187	 1.2166352479	-0.11985
H	 0.6474650976	 2.1327298028	 0.0283645894	 0.137023
H	-0.8421798683	 1.8407199747	-0.8889516487	 0.106934
H	-0.8799986497	 1.8317316274	 0.8780896939	 0.106934
H	-0.9238150858	-0.5050021965	-0.0186892939	 0.07194
H	 0.4337950872	-0.4438436124	-2.1660907171	 0.081192
H	 2.9438931611	 0.1149887071	-1.9564058657	 0.098845
H	 2.8573172195	 0.0943811623	 2.0889389174	 0.098846
H	 2.0265851559	-2.397161447	 1.3616343678	 0.08803
H	 2.0833506325	-2.3836525237	-1.2907138516	 0.08803
H	 0.3406635022	-0.4659995106	 2.1853402917	 0.081192
