20
gdb 73365	2.43097	1.93388	1.56976	2.438	76.17	-0.2232	0.07	0.2932	951.4857	0.173855	-403.140228	-403.132921	-403.131977	-403.171575	30.397	
O	-0.0638439948	 1.3789145557	-0.0337206363	-0.493619
C	 0.0433285752	-0.0324710737	-0.0004321843	 0.382253
C	 0.7210458192	-0.6253917731	-1.2616206486	-0.258922
C	 0.0857318529	-2.0208054838	-1.4749246642	-0.25302
C	-1.2425116915	-1.9635496557	-0.7259342604	-0.019561
C	-1.3571233813	-0.6770741547	 0.0073775222	-0.085506
N	-1.2667904087	-1.9342081897	 0.7554568116	-0.10889
C	 0.0364402557	-1.9771432726	 1.4582221355	-0.175199
C	 0.6645379496	-0.5773456857	 1.3067745889	-0.26273
H	 0.8257807675	 1.7461537106	-0.0442123988	 0.276896
H	 0.462639002	 0.0283834977	-2.1008385129	 0.109494
H	 1.8137359859	-0.6540883976	-1.1827651539	 0.085977
H	-0.0928318432	-2.2205511469	-2.5352162275	 0.105134
H	 0.7261241326	-2.8334216505	-1.1129969124	 0.106388
H	-2.1012006124	-2.4708101593	-1.1570852417	 0.089226
H	-2.2426072993	-0.0565111267	 0.0997345743	 0.091464
H	-0.1506820186	-2.228702088	 2.5057906442	 0.10957
H	 0.6759418322	-2.7677520806	 1.0502584296	 0.102318
H	 1.759433323	-0.5930820346	 1.2916075622	 0.088893
H	 0.344559864	 0.0737021893	 2.1267152524	 0.109833
