16
gdb 124351	2.62385	1.68859	1.04049	1.6672	72.83	-0.264	-0.0577	0.2062	1102.1504	0.123758	-434.104119	-434.095631	-434.094687	-434.137626	30.311	
C	-0.114055129	 1.5116922858	-0.0260035547	-0.480008
C	 0.078178988	 0.018005631	-0.0205930627	 0.426822
O	 1.1448738396	-0.5417969247	-0.0383513117	-0.30637
N	-1.1217932381	-0.7457087791	 0.007984391	-0.0915
N	-2.3439665897	-0.1190951745	 0.0287683655	-0.137981
N	-3.2470645032	-1.0347725517	 0.0518956858	-0.18175
C	-2.6426036478	-2.2651807615	 0.0471979562	-0.145899
C	-1.2824365907	-2.1133490414	 0.019483748	 0.329339
C	-0.1835481574	-3.1182392808	 0.0038286305	-0.475857
H	 0.870680921	 1.9771288538	-0.0467248967	 0.146977
H	-0.703149191	 1.8194798618	-0.8933493087	 0.169057
H	-0.6717248276	 1.8302288284	 0.8580206946	 0.169116
H	-3.2187072726	-3.1764205518	 0.0639817166	 0.132557
H	 0.4434093692	-3.012931677	-0.8854340787	 0.1568
H	 0.4773178878	-3.0031359749	 0.8669559916	 0.15677
H	-0.6144589385	-4.1219754333	 0.0178136734	 0.131928
