18
gdb 90304	3.55998	1.47224	1.18784	2.1659	78.76	-0.2207	-0.008	0.2127	1061.0282	0.148268	-401.876824	-401.869485	-401.86854	-401.90841	29.091	
C	-0.0928914702	 1.4767302918	-0.091012506	-0.324019
N	-0.0205354191	 0.0412193442	 0.0995576074	-0.085009
C	-1.233426161	-0.6400995621	 0.660766182	-0.24864
C	-0.2626660821	-1.4877178877	 1.4506152436	 0.21803
C	 0.1945747549	-2.7299543937	 1.5988258097	-0.230379
C	 1.6950146513	-2.6790925344	 1.5065688237	 0.009138
O	 2.098881554	-2.3339980171	 0.1605452571	-0.243254
C	 2.0866359882	-1.2932733653	 1.1259046363	 0.003927
C	 0.8139254191	-0.4599222258	 1.2334765596	-0.023552
H	 0.8838417767	 1.8509398154	-0.4142161076	 0.126252
H	-0.8174470899	 1.7082384047	-0.8784392043	 0.124397
H	-0.3899157847	 2.0267116776	 0.8221765953	 0.090517
H	-1.8476599711	 0.0325346679	 1.2817455573	 0.095886
H	-1.8695390322	-1.137085841	-0.0776942667	 0.12149
H	-0.369745626	-3.6535055589	 1.560582807	 0.10734
H	 2.3588403593	-3.3694635534	 2.0183950379	 0.099493
H	 3.0583257124	-0.8762173786	 1.3771102543	 0.092832
H	 0.9208326604	 0.2898330964	 2.0353019033	 0.065553
