25
gdb 123020	5.10723	0.53775	0.51396	0.8425	91.65	-0.2461	0.0902	0.3363	2284.4736	0.226977	-389.477675	-389.466456	-389.465512	-389.515511	39.797	
C	 0.0987274099	 1.4503626696	 0.187926194	-0.382088
C	-0.0418228611	-0.0725399509	 0.2443257784	-0.180996
C	-1.4485504098	-0.5423175787	-0.1011749588	-0.025993
O	-1.4908076169	-1.949638571	-0.0227222164	-0.247103
C	-2.7568422012	-2.4903521959	-0.3466186916	-0.075373
C	-2.6673937391	-3.9911205295	-0.2733328482	-0.00895
C	-2.8374298368	-4.7105167429	 1.0431523514	-0.283796
C	-3.8750254401	-4.8737479797	-0.0401860192	 0.000718
C	-5.2830416793	-4.3413289903	 0.1278497348	-0.406178
H	 1.1162701375	 1.7613496432	 0.4415808871	 0.116134
H	-0.1258744149	 1.8360824919	-0.8127979403	 0.115163
H	-0.5829738685	 1.9410051628	 0.8916414808	 0.115101
H	 0.6622262832	-0.546135296	-0.4494722262	 0.105331
H	 0.2112149001	-0.441492353	 1.2449141343	 0.106054
H	-2.1823841558	-0.0952538051	 0.5937221315	 0.077993
H	-1.7268273329	-0.2039503192	-1.1156836708	 0.078701
H	-3.5219176476	-2.1043818869	 0.346686749	 0.07905
H	-3.053865687	-2.1692384358	-1.3608848523	 0.081213
H	-1.9134309071	-4.3958304875	-0.9430554039	 0.086847
H	-2.1773766626	-5.5386715871	 1.2763514534	 0.108492
H	-3.107678644	-4.1042904787	 1.9029097307	 0.108107
H	-3.8373538416	-5.8195400549	-0.5753769372	 0.082532
H	-5.3087430627	-3.4234133553	 0.7218114934	 0.116639
H	-5.7509233739	-4.1255756792	-0.8394832676	 0.115377
H	-5.9114896676	-5.07717943	 0.6418042839	 0.117026
