21
gdb 115396	3.12808	1.07554	0.94628	1.4936	74.3	-0.2554	0.0694	0.3248	1306.5446	0.183797	-461.368752	-461.359889	-461.358945	-461.402184	34.42	
O	 0.0263021332	 1.3881949403	 0.1793062918	-0.425428
C	 0.0406927015	-0.0153227675	 0.0295350755	-0.067377
C	-1.3697791338	-0.5900070273	-0.0170168577	 0.107943
C	-1.4222645304	-2.1123447623	-0.1597133769	-0.22395
C	-2.862302127	-2.6263666307	 0.0063031824	-0.230701
C	-3.4981105456	-2.051021314	 1.2836970444	 0.142565
O	-2.8894791014	-2.5784835337	 2.4556470866	-0.445759
C	-3.3675933587	-0.527093584	 1.2715721806	-0.11115
O	-1.9892883395	-0.1741399298	 1.2101785528	-0.291603
H	-0.5839141865	 1.5652133672	 0.9053626298	 0.289075
H	 0.5606134829	-0.2375410949	-0.9081513674	 0.108621
H	 0.5965228689	-0.5051501797	 0.8466568872	 0.085815
H	-1.9144585637	-0.116992009	-0.8519356362	 0.074885
H	-1.0151424047	-2.4071577418	-1.1330007873	 0.103015
H	-0.780457257	-2.5652637899	 0.6061398236	 0.105242
H	-3.4681525474	-2.3251293655	-0.858480659	 0.094243
H	-2.8792328062	-3.7190718471	 0.0525967173	 0.108962
H	-4.5567618967	-2.3296250212	 1.3341155294	 0.081613
H	-2.0875690757	-2.0621262205	 2.6010435863	 0.284514
H	-3.9155546997	-0.09019455	 0.4219886535	 0.094218
H	-3.7550409924	-0.1002406187	 2.2007444834	 0.115257
