22
gdb 87564	2.41933	1.44601	1.23873	1.4613	86.51	-0.2219	0.0827	0.3046	1165.4463	0.193939	-367.157136	-367.148138	-367.147193	-367.190384	35.18	
C	 0.0254806314	 1.5936483555	 0.0332495452	-0.401611
C	 0.0209750785	 0.0814919742	 0.0549113938	-0.046973
C	 1.2883810645	-0.7061576438	-0.211473146	-0.378885
C	 0.6842372947	-0.6794005023	 1.1625950962	 0.402932
C	 1.3307218067	-0.1280786084	 2.4163812061	-0.163715
N	 0.2266422417	 0.0629898556	 3.3983420184	-0.338945
C	 0.8263986901	-1.2814329796	 3.2089321436	-0.049465
C	 0.1613588779	-1.9088004286	 1.9667137574	-0.075168
C	-1.3346969268	-2.18142325	 2.0194222164	-0.407664
H	 0.968873486	 1.9909172255	 0.4222013699	 0.107957
H	-0.1001298487	 1.9777796697	-0.985280104	 0.111227
H	-0.781958871	 1.9993641315	 0.6516712477	 0.126646
H	-0.8907389242	-0.3710188749	-0.3296622839	 0.080084
H	 1.2229384764	-1.6251414261	-0.7866205288	 0.105255
H	 2.2059784638	-0.1468033554	-0.3740449913	 0.104152
H	 2.2590316578	 0.4234635841	 2.5060418351	 0.088686
H	 0.6452651594	 0.4525909265	 4.2433797409	 0.224161
H	 1.2846175944	-1.8033920808	 4.0403628858	 0.087202
H	 0.7122837754	-2.8067299049	 1.6648864211	 0.071869
H	-1.8663075364	-1.3005910645	 2.387767867	 0.137779
H	-1.7278125831	-2.4341468797	 1.028322853	 0.107794
H	-1.5561705385	-3.0232458736	 2.6850528764	 0.10668
