18
gdb 26286	3.64081	1.2849	0.96238	2.3715	85.59	-0.2054	-0.0315	0.1739	1211.5334	0.149331	-398.173595	-398.164974	-398.16403	-398.207534	30.892	
C	 0.1307854535	 1.4203481255	 0.038172328	-0.335889
N	-0.0923446043	-0.0113856893	-0.0046727767	-0.131321
C	-0.0061197014	-0.7370715701	 1.2527795963	-0.342665
C	-0.0324398171	-0.6835243857	-1.2001573551	 0.419666
C	 0.1115628051	-0.0081248132	-2.4419683169	-0.098841
N	 0.1245503813	-0.652942528	-3.5974012682	-0.230503
C	 0.0055141095	-1.9863493294	-3.5609735868	-0.048417
C	-0.1110748573	-2.6541076515	-2.3504755187	-0.010212
N	-0.1255228685	-2.0220712172	-1.1783194841	-0.335532
H	 1.1630757628	 1.7017500586	-0.2201075202	 0.12459
H	-0.5466249276	 1.9481656046	-0.6411059101	 0.138911
H	-0.0724817823	 1.7755038838	 1.0501701357	 0.130241
H	-0.615662782	-0.2306150954	 2.0076185045	 0.120251
H	-0.3764699663	-1.7497024413	 1.1074953091	 0.167242
H	 1.0273467509	-0.7966049717	 1.6260029876	 0.11711
H	 0.2234936741	 1.0695523322	-2.4888559571	 0.102239
H	 0.0166446557	-2.5177680276	-4.5071929547	 0.105182
H	-0.190786186	-3.7386636142	-2.3164557227	 0.107948
