18
gdb 118620	1.66482	1.23331	0.76458	2.2999	75.86	-0.2566	0.0166	0.2732	1464.2441	0.144953	-439.065485	-439.055049	-439.054105	-439.101951	36.274	
O	 0.1433932675	 1.1341228383	-0.071268354	-0.425316
C	 0.0680725227	-0.2838734013	-0.0422049276	-0.088251
C	-1.4107089674	-0.6462515655	 0.0346017728	-0.163202
C	-1.6679271055	-2.1681461227	 0.0405669033	-0.180315
N	-1.128086333	-2.8308982364	 1.2323695098	-0.273217
C	 0.0426898176	-3.5202625325	 1.2133737629	 0.159203
O	 0.7975139685	-3.5808703011	 0.2647594609	-0.328676
C	-3.0958356621	-2.4614660063	-0.0786377256	 0.297855
C	-4.2758340447	-2.6767153205	-0.1487765835	-0.410709
H	 1.0716645783	 1.3819224581	-0.1092410086	 0.287411
H	 0.5150649944	-0.7322000684	-0.9425933209	 0.102743
H	 0.60699842	-0.6947494727	 0.8234870428	 0.098366
H	-1.8525279053	-0.195804664	 0.9301598976	 0.110015
H	-1.9259013671	-0.2113736361	-0.8280350723	 0.123966
H	-1.13041532	-2.6160864412	-0.803716772	 0.147577
H	-1.7145952722	-2.8829248599	 2.0505064233	 0.255858
H	 0.2422586659	-4.0219848572	 2.1801993934	 0.084519
H	-5.3155599876	-2.8779350507	-0.2306768224	 0.202172
