17
gdb 75073	2.16018	1.65814	1.06403	2.4733	75.62	-0.2436	-0.0431	0.2005	1134.0325	0.133821	-421.873629	-421.864892	-421.863948	-421.907574	31.594	
C	-0.146797642	 1.4847885481	 0.2292634371	-0.500565
C	-0.0462009969	-0.0003127236	 0.0879547566	 0.343518
C	 0.0082401586	-0.700925162	-1.0499364825	-0.179423
C	 0.0912990084	-2.1874799977	-0.8461694104	-0.370107
C	 0.0371840261	-2.3375330091	 0.6770999721	 0.384331
O	 0.0407156832	-3.3603062118	 1.3074646967	-0.302704
C	-0.0052215244	-0.9144919074	 1.289603446	-0.319962
C	 1.1704510245	-0.7407839663	 2.2455806388	 0.151744
O	 1.9970807414	 0.1294898754	 2.1695312252	-0.236888
H	 0.7155123525	 1.8745701405	 0.7787392936	 0.159823
H	-0.194351033	 1.9732145991	-0.7477553926	 0.123469
H	-1.0435029247	 1.7676637311	 0.7957446238	 0.122593
H	-0.0124913226	-0.2527334503	-2.0371644658	 0.100554
H	-0.7312636922	-2.7508586466	-1.3056793551	 0.140563
H	 1.0175075332	-2.6395583794	-1.2261812298	 0.144777
H	-0.9062080798	-0.8552025802	 1.9213824827	 0.12875
H	 1.2072478279	-1.51867002	 3.0374662137	 0.109525
