19
gdb 81872	2.92197	1.4753	1.13301	3.822	76.45	-0.2214	0.0579	0.2793	1125.3394	0.159811	-419.247195	-419.238431	-419.237487	-419.280279	33.222	
C	-0.0933010594	 1.3938462296	-0.1607309794	-0.340262
N	-0.0395809247	-0.0160279429	 0.1466390585	-0.093245
C	-1.1699505472	-0.8883646858	 0.0567620502	-0.047085
C	-1.3036830988	-1.746549025	-1.1927286827	-0.358623
C	-0.6106050127	-2.2871149926	 0.052431497	 0.333602
C	-1.183766464	-3.43654562	 0.8405111049	-0.462887
N	 0.8097112058	-2.0798279401	 0.154125286	-0.407535
C	 1.1469038382	-0.7313507694	 0.0521639864	 0.429991
O	 2.2600462915	-0.2726851379	-0.0916428833	-0.418301
H	 0.9277328089	 1.7769378373	-0.1195616556	 0.164105
H	-0.5027315268	 1.5787318647	-1.1637213604	 0.116916
H	-0.7101633251	 1.9301393254	 0.5689868183	 0.120162
H	-2.0463001965	-0.6166062788	 0.6366201328	 0.102892
H	-2.2893969587	-2.1418446088	-1.4140446144	 0.115689
H	-0.7016885588	-1.4889611008	-2.0577313455	 0.119023
H	-2.2769176853	-3.4222929869	 0.8085651889	 0.121463
H	-0.8552055442	-4.3979936506	 0.42886999	 0.121956
H	-0.8636920718	-3.3870729264	 1.8857612428	 0.131952
H	 1.4739354898	-2.7446244309	-0.2097202446	 0.250188
