19
gdb 86121	2.9845	1.33966	0.94081	3.2887	80.56	-0.2021	0.0187	0.2207	1247.8178	0.15998	-419.270145	-419.260797	-419.259852	-419.304906	33.641	
C	-0.0769147876	 1.3792934004	 0.0043177214	-0.335555
N	 0.0092414776	-0.066562986	 0.0007169928	-0.147598
C	-1.2664582511	-0.7755298588	 0.0096952556	-0.227867
C	-1.1260789812	-2.2721610997	 0.0062271329	 0.22268
C	-2.3889642374	-3.0780667584	 0.0156938575	-0.474497
C	 0.0936244281	-2.8115891435	-0.0046174596	-0.057012
N	 1.2458797188	-2.0365838839	-0.0128991251	-0.3921
C	 1.2525298055	-0.6507936854	-0.0103044581	 0.488947
O	 2.3025431123	-0.028624818	-0.0175443742	-0.4242
H	 0.9331066905	 1.7848516099	-0.0033090857	 0.169813
H	-0.6233049629	 1.7373560213	-0.878777721	 0.116003
H	-0.6084443971	 1.7338857367	 0.897833937	 0.116003
H	-1.8504072461	-0.4531661513	 0.8916760814	 0.104151
H	-1.8643624261	-0.4503211942	-0.8618234617	 0.104159
H	-3.0168166705	-2.8559265586	-0.8580502274	 0.122674
H	-2.1770386985	-4.1507438949	 0.0111751137	 0.122905
H	-3.0009604622	-2.8601906417	 0.9016878196	 0.122697
H	 0.2579273937	-3.8832990176	-0.007534573	 0.109208
H	 2.1595622741	-2.4552259962	-0.0211066963	 0.25959
