18
gdb 87515	3.53332	1.44837	1.32623	2.1776	76.71	-0.2267	-0.0005	0.2262	1021.7861	0.147386	-401.855126	-401.847603	-401.846659	-401.886832	30.024	
C	-0.1538273812	 1.4346273706	-0.0635728272	-0.319906
N	 0.0844037623	 0.001113421	 0.0169424154	-0.151467
C	 1.4574517229	-0.4941311897	-0.2066773555	-0.352804
C	 0.8145030489	-0.5240398995	 1.1195017657	 0.454432
C	 1.1509011274	 0.1295130137	 2.4953641365	-0.083623
O	-0.0890102381	-0.4764887875	 2.984464273	-0.285327
C	 0.308385355	-1.5992197712	 2.1266194117	-0.081588
C	 1.6313835327	-2.0318594907	 2.7665818776	-0.080313
C	 2.2111036245	-0.8514715103	 3.0116156339	-0.082565
H	 0.7041806281	 2.040914303	 0.2710048771	 0.097731
H	-0.3797554958	 1.7052319662	-1.0992044444	 0.124832
H	-1.0182198404	 1.6877895308	 0.5573295001	 0.137188
H	 1.5463412717	-1.3856134447	-0.8222799707	 0.118268
H	 2.2454794787	 0.2448266398	-0.3565132052	 0.10668
H	 1.2418561565	 1.1989844848	 2.6764387766	 0.085407
H	-0.4826761428	-2.3128200298	 1.9057323652	 0.088981
H	 1.9868575337	-3.0399280262	 2.919051517	 0.11278
H	 3.1782225658	-0.6087930103	 3.4261164533	 0.111294
