21
gdb 113002	2.22326	1.21348	1.17451	2.991	78.58	-0.2504	-0.0377	0.2127	1239.833	0.18147	-424.229818	-424.220267	-424.219322	-424.264453	35.274	
C	 0.2783823988	 1.0330016439	-0.643633564	-0.386985
C	-0.0897212914	-0.4306914312	-0.3827619282	-0.194074
C	-1.4979233028	-0.5955676971	 0.1889803772	-0.014734
C	-2.6641213368	-0.4395955376	-0.8328019939	-0.259678
C	-2.8828344537	-2.0012074923	-0.8188073381	-0.15239
C	-2.3706760383	-2.6366113964	-2.0751671752	 0.156511
O	-1.2620146622	-3.1031288382	-2.2312995718	-0.267595
C	-1.9589517991	-2.0731317268	 0.4387778163	 0.126325
O	-1.0183643338	-3.0993457427	 0.545840614	-0.431365
H	 1.2897612001	 1.1197136531	-1.0525127005	 0.115067
H	-0.4075347365	 1.5004859002	-1.3590777022	 0.112166
H	 0.2397972934	 1.6208724492	 0.2803009471	 0.114043
H	 0.0103507806	-1.0068918416	-1.309797443	 0.10734
H	 0.6206787582	-0.872970318	 0.3253274992	 0.111059
H	-1.5981922192	 0.042736859	 1.0733215504	 0.068183
H	-3.5334083404	 0.0938135313	-0.4443419981	 0.11338
H	-2.3984139969	-0.0050199905	-1.8005656667	 0.110313
H	-3.9238980127	-2.3112401137	-0.6813707158	 0.089789
H	-3.0901217642	-2.6318078309	-2.924144447	 0.09578
H	-2.576461289	-2.1225313765	 1.3414844083	 0.087912
H	-0.6658325341	-3.2525985032	-0.3427758881	 0.298954
