19
gdb 53058	5.10757	0.72268	0.66163	1.9223	93.76	-0.22	-0.016	0.2041	1742.0953	0.157578	-385.883524	-385.873701	-385.872757	-385.92021	34.282	
C	-0.1003142557	 1.467498536	-0.0237489788	-0.507864
C	-0.015891194	 0.0160143636	-0.0097798909	 0.199301
C	 0.0723046115	-1.1882309659	-0.0011452055	-0.127478
C	 0.1040535972	-2.5996182556	 0.0274247274	 0.194072
C	 1.1334615529	-3.4263850102	-0.1871078941	-0.240234
C	 0.6982133441	-4.8582951049	-0.0504831103	 0.103013
C	 1.4706214125	-5.6661371934	 0.9934788884	-0.386574
O	-0.6830405413	-4.7795429444	 0.3226308609	-0.279467
C	-1.1309949665	-3.433010217	 0.3133378628	-0.175255
H	 0.477120294	 1.9063184938	 0.7979999459	 0.152851
H	 0.2925448094	 1.8796007797	-0.9600994933	 0.15263
H	-1.1366592777	 1.8067757408	 0.0805418769	 0.151943
H	 2.146344412	-3.1336437562	-0.430089004	 0.104883
H	 0.7747899692	-5.3802119561	-1.0210483846	 0.081211
H	 1.4414453677	-5.1634862861	 1.9644312418	 0.120105
H	 1.0255515831	-6.6593777293	 1.1001444333	 0.126703
H	 2.5159188752	-5.7877832799	 0.6904554968	 0.111142
H	-1.5855062032	-3.1804107948	 1.2818967345	 0.111604
H	-1.9009160207	-3.2836718602	-0.4601649273	 0.107415
