16
gdb 33689	4.05885	1.44926	1.36346	1.177	79.28	-0.2216	0.0316	0.2532	964.7252	0.125373	-363.521517	-363.514888	-363.513944	-363.552289	27.535	
C	 0.1170616603	-1.1844373141	-0.0309092349	-0.35908
C	 0.0411443115	 0.0170344739	 0.006186262	 0.041906
C	-0.0679579965	 1.4273888351	 0.0262171681	 0.292377
C	 0.0950676301	 2.3338258293	 1.2422799663	-0.150171
C	-0.9791352151	 3.4016842382	 1.178123297	-0.173794
N	-1.1209318923	 3.6028342904	-0.2706087909	-0.116753
C	 0.1810209769	 3.367004665	-0.9206652053	-0.062744
C	 1.0179723133	 2.5103958738	 0.0675947629	-0.154675
C	-0.8824897724	 2.3301186756	-0.9611635691	-0.144536
H	 0.1886582391	-2.2430379635	-0.0602657757	 0.177592
H	 0.460599535	 1.9071392816	 2.1673433214	 0.108382
H	-1.9337220796	 3.0763055214	 1.6022821584	 0.1162
H	-0.6758192279	 4.3396071481	 1.6540127941	 0.113004
H	 0.5489722542	 4.0580613702	-1.6669920581	 0.101838
H	 2.0894713587	 2.3767639982	 0.0808705707	 0.107702
H	-1.5483339053	 1.9870156569	-1.741847617	 0.10275
