21
gdb 103149	1.88671	1.53327	1.17998	2.8389	78.79	-0.2334	-0.018	0.2155	1192.4223	0.179443	-424.239072	-424.228796	-424.227852	-424.274099	37.822	
C	-0.308791646	 1.4427412456	-0.0174875943	-0.403191
C	-0.0739177776	-0.0681793567	-0.1177179979	-0.204745
C	 0.8194772106	-0.4904861708	-1.3066509404	 0.168669
C	 2.2024959769	 0.1574384058	-1.2740852459	-0.457881
C	 0.7880413811	-2.0415696361	-1.5553681631	 0.069291
O	 0.3656752451	-2.7863007381	-0.4379181507	-0.42766
C	-0.2228054064	-1.8541144135	-2.7296040915	-0.3984
C	 0.0641336986	-0.3486295387	-2.6431814086	 0.390194
O	-0.1464493556	 0.5796750134	-3.3722891536	-0.313067
H	 0.6130870149	 1.9848827251	 0.2120498773	 0.117723
H	-0.7083892409	 1.8456055817	-0.9530971248	 0.138432
H	-1.025017031	 1.6620198604	 0.7803094085	 0.112472
H	 0.3890514433	-0.4472484626	 0.8004376329	 0.111261
H	-1.037693305	-0.5828577698	-0.193660273	 0.103461
H	 2.7017085842	-0.0397127983	-0.3188081408	 0.12037
H	 2.8396449174	-0.2302249059	-2.075529306	 0.113522
H	 2.1312326656	 1.2397048614	-1.4087181021	 0.138001
H	 1.7621471325	-2.3944961605	-1.9207717233	 0.074069
H	 0.3331328799	-3.7149781792	-0.6873065231	 0.288807
H	-0.0176789813	-2.3392865129	-3.6868938188	 0.123477
H	-1.2471722463	-2.0880104504	-2.4194614609	 0.135197
