21
gdb 122816	4.35828	0.62383	0.57141	2.4713	77.56	-0.2598	0.0213	0.2811	2009.309	0.179246	-461.391999	-461.380916	-461.379972	-461.430665	37.168	
C	-0.1482500016	 1.4491067072	-0.0505493386	-0.370207
C	 0.0344799145	-0.0592571363	 0.0970851934	-0.301298
C	 0.7262134235	-0.4429626711	 1.3895989323	 0.451519
O	 1.1339571172	 0.3258371242	 2.2244205608	-0.356284
O	 0.8340062026	-1.7837453388	 1.4938652561	-0.244131
C	 1.4980717194	-2.2665230915	 2.6719711103	-0.072974
C	 1.5503534683	-3.7756002262	 2.5966019334	-0.067356
O	 2.4532931309	-4.1550552254	 1.58627297	-0.226616
C	 2.5310113425	-5.5498194129	 1.4166498862	-0.225801
H	 0.8155826857	 1.9635580253	-0.0268536046	 0.13318
H	-0.6436759247	 1.6837925496	-0.9967260652	 0.110686
H	-0.7527413216	 1.8524822067	 0.765864147	 0.130624
H	-0.9254349712	-0.5877456817	 0.0619670994	 0.129503
H	 0.6243749051	-0.4753237122	-0.7283893476	 0.134836
H	 2.5067325193	-1.8466345898	 2.7228903305	 0.131623
H	 0.9484530948	-1.9434017589	 3.5619665498	 0.118071
H	 1.8705321364	-4.1666562365	 3.5781492244	 0.089523
H	 0.542270409	-4.1744519765	 2.3947648412	 0.095982
H	 3.2504849561	-5.7420311403	 0.6172968387	 0.129853
H	 2.8747603244	-6.0558365572	 2.3332613629	 0.103429
H	 1.5586401794	-5.9819139078	 1.1317810895	 0.105838
