17
gdb 106724	2.51455	1.46437	1.18106	1.5237	67.56	-0.2452	0.0596	0.3048	1077.7005	0.134564	-458.886799	-458.878451	-458.877507	-458.919969	31.726	
O	 0.2762429456	 1.2134848497	-0.4806732213	-0.411776
C	 0.0229189004	-0.0329474342	 0.1602200432	-0.179609
C	-1.412958825	-0.4643833471	 0.1221566903	 0.183494
C	-2.1021402693	-0.9609432338	-1.1391078119	-0.368851
C	-1.9687245898	-1.9171369833	 0.0022232853	 0.36246
O	-1.2783896271	-3.0969781048	-0.1604437875	-0.455819
C	-2.9710919563	-1.6040602694	 1.0894913074	-0.080481
O	-2.2606369349	-1.1573254334	 2.2630312584	-0.253536
C	-2.4622741921	-0.2241562807	 1.1900201795	-0.05034
H	-0.2088136818	 1.8931036388	-0.0022055891	 0.280182
H	 0.6333439984	-0.7659928768	-0.378525283	 0.115904
H	 0.3706365457	-0.022433352	 1.2044602959	 0.099382
H	-3.0710920859	-0.5699173312	-1.436906998	 0.112389
H	-1.4291358369	-1.1611228586	-1.9676068699	 0.135311
H	-0.9173605743	-3.3467598602	 0.6987817613	 0.295833
H	-3.9737191033	-1.9869302638	 1.2397224268	 0.110081
H	-3.0260921535	 0.6733445408	 1.4183118426	 0.105376
