21
gdb 122316	4.8503	0.66335	0.6396	2.732	79.08	-0.2295	0.0741	0.3036	1772.6627	0.181474	-424.173182	-424.163695	-424.16275	-424.208475	34.662	
O	-0.0158399314	 1.4470170093	 0.2266093425	-0.421663
C	 0.0595359849	 0.0466824438	 0.0082092641	-0.075617
C	-1.3537811269	-0.5158421094	 0.0730211487	-0.15742
C	-1.4028911098	-2.0333071048	-0.1591059917	-0.334542
C	-2.7970472603	-2.589334048	-0.0938646773	 0.304813
C	-3.5009687362	-2.9941237183	 1.1913974533	-0.339727
C	-3.3419178559	-3.9885219784	 0.0821036095	 0.036534
O	-4.3618415243	-3.8094891502	-0.9037129984	-0.287806
C	-3.8562714516	-2.477809767	-1.1927258434	-0.125641
H	 0.8747413292	 1.8070442507	 0.1845349395	 0.285431
H	 0.505774422	-0.1807627088	-0.974354669	 0.083476
H	 0.6890311913	-0.4432133222	 0.7699438186	 0.083047
H	-1.7854550654	-0.2734525064	 1.0509565015	 0.111249
H	-1.9666920795	 0.0009775729	-0.6755220693	 0.107769
H	-0.9601190084	-2.2699954027	-1.1368853645	 0.098517
H	-0.778936719	-2.5390604915	 0.589513319	 0.098116
H	-2.8368019722	-3.1284619488	 2.0406401891	 0.110658
H	-4.4931897661	-2.6228771065	 1.4348193362	 0.113231
H	-2.8735263606	-4.9635447753	 0.1601028714	 0.102215
H	-4.6286191696	-1.7060835648	-1.0903413063	 0.104472
H	-3.4289704602	-2.4416274435	-2.2026731535	 0.102888
