17
gdb 65695	3.10719	0.97	0.92258	0.9098	76.31	-0.2769	0.0013	0.2783	1321.3431	0.134213	-418.007316	-417.998069	-417.997125	-418.041742	33.202	
C	 0.0022282688	 1.5494477279	-0.3922153102	-0.456522
C	-0.0144666491	 0.0785120857	-0.054049949	 0.40298
C	 1.2211901325	-0.7461999711	-0.1468902538	-0.325524
C	 0.6299604966	-0.4546027689	 1.2321141216	-0.247708
C	 1.2960656218	 0.4350173642	 2.1377902298	 0.293974
N	 1.8251204356	 1.1677430523	 2.8607100108	-0.337857
O	-1.1738262564	-0.6067341417	-0.4652491285	-0.22193
C	-2.3079600007	-0.3756339878	 0.2451168141	 0.10829
N	-3.396069289	-0.8697939362	-0.1515353935	-0.430405
H	 0.9399894833	 2.0119844579	-0.0771824974	 0.149503
H	-0.1097094687	 1.6771030893	-1.4728129007	 0.145425
H	-0.8167293672	 2.0802648926	 0.1029833645	 0.134299
H	 1.1155675904	-1.7641122312	-0.5013329531	 0.150886
H	 2.1465629635	-0.2488501685	-0.4106850641	 0.145595
H	 0.1130496778	-1.2815775683	 1.7065092721	 0.147678
H	-2.145359513	 0.2316765331	 1.1439293267	 0.104904
H	-4.1454888361	-0.6285369794	 0.4937785306	 0.236413
