18
gdb 83980	2.40777	1.80125	1.3211	2.3755	71.29	-0.2414	0.0016	0.2429	1004.6829	0.149839	-439.108054	-439.100131	-439.099187	-439.140801	29.857	
O	 0.0763801128	 1.391078881	 0.3387483134	-0.426675
C	 0.0687308705	 0.0030733276	 0.1095943504	-0.020252
C	-1.3442138293	-0.6539200347	 0.0359771675	-0.008492
C	-2.589570073	 0.2453634236	-0.1113997577	-0.230284
C	-2.8359762468	 0.3617065254	-1.6409338836	-0.217692
C	-2.1376955196	-0.8732080246	-2.2619949696	-0.191732
N	-1.0177038869	-1.1080277374	-1.3505563904	-0.100705
C	 0.1511185918	-0.3538800461	-1.3935105443	 0.360252
O	 0.8487822404	 0.013859193	-2.3018516947	-0.361066
H	 0.7154875209	 1.7749148762	-0.2740234186	 0.302201
H	 0.7717720821	-0.5219648431	 0.7688136951	 0.092112
H	-1.4970947492	-1.4779612186	 0.7361119167	 0.085679
H	-3.4425786983	-0.2251620248	 0.3851201007	 0.104986
H	-2.4290120497	 1.2218670152	 0.3486753616	 0.133318
H	-3.8986470663	 0.4147827336	-1.8897334807	 0.104992
H	-2.359389127	 1.2678837869	-2.0279282107	 0.121855
H	-2.79235388	-1.7508451526	-2.2805371812	 0.11312
H	-1.7592863522	-0.6991487606	-3.2712464539	 0.138383
