21
gdb 40226	2.05549	2.00346	1.26365	1.5891	81.42	-0.2366	0.0577	0.2943	1072.9055	0.185182	-383.230083	-383.22204	-383.221096	-383.262739	32.184	
C	-0.4296411457	 1.501036839	 0.092131206	-0.288472
N	 0.9759888472	 1.081040065	-0.0996412053	-0.386189
C	-0.0709946067	 0.0644425453	-0.0372205954	 0.296218
C	-0.1376646406	-0.8926952532	 1.1415652781	-0.28171
C	-1.4283281074	-1.6830896796	 0.8508682747	-0.213784
C	-1.4813209617	-1.8167861459	-0.6970520843	-0.283335
C	-0.5079144921	-0.759406162	-1.2328601126	 0.304364
C	-0.5124494956	-0.2371326877	-2.6151757612	-0.319211
N	 0.4984584276	-1.2324817365	-2.2081183823	-0.355663
H	-0.6466312596	 1.9224265372	 1.0706440685	 0.116657
H	-0.945543202	 1.9806025484	-0.7353042104	 0.111002
H	 1.2599303252	 1.2541560433	-1.0632151655	 0.221159
H	 0.7359908162	-1.5558256259	 1.1210739313	 0.107411
H	-0.1439523972	-0.3804176486	 2.1064416719	 0.101234
H	-1.4528099109	-2.6522839938	 1.3544621355	 0.100861
H	-2.2931681346	-1.1134337724	 1.2072016244	 0.101836
H	-1.1490343288	-2.8019371512	-1.0342621706	 0.120133
H	-2.4957928374	-1.6659817087	-1.0777379051	 0.101505
H	-1.2501551204	-0.5967550926	-3.3279240676	 0.119938
H	-0.1949606989	 0.7903542133	-2.789097648	 0.100124
H	 1.3911350133	-0.7695685235	-2.0441883019	 0.225922
