13
gdb 21651	7.55374	1.28097	1.09674	2.8827	65.58	-0.2185	-0.0612	0.1572	996.1112	0.097576	-394.814767	-394.807756	-394.806811	-394.845923	25.739	
N	-0.0802665632	 1.379521792	 0.1529245399	-0.589429
C	 0.0560703418	-0.0002799407	 0.0469116268	 0.395879
N	-1.0264955935	-0.789761884	 0.019661785	-0.280293
N	-0.5375917762	-2.0386519564	-0.0045372061	-0.241305
C	 0.8170054426	-2.079664744	-0.0076290334	 0.316551
C	 1.5329575794	-3.3470437248	-0.0392898366	 0.081678
O	 0.9783914646	-4.4267140935	-0.0645208924	-0.294788
C	 1.2462930297	-0.7584935304	 0.0284901447	-0.383428
H	 0.6106935584	 1.8999295308	-0.3689935257	 0.250456
H	-1.0159505882	 1.6865425234	-0.0783777903	 0.255726
H	-1.152974405	-2.8352193727	-0.0256476579	 0.288618
H	 2.6385661707	-3.2576257795	-0.0392272078	 0.086439
H	 2.2647639289	-0.4053246203	 0.0495815338	 0.113895
