18
gdb 100177	2.07957	1.56248	1.14584	1.8267	69.27	-0.243	-0.0481	0.1949	1132.3786	0.144157	-476.252105	-476.241952	-476.241008	-476.287004	36.473	
C	 0.0629862871	 0.6319014109	-0.9320246508	-0.256279
O	-0.4016585586	 0.3644266895	 0.384823889	-0.280878
C	 0.4620381334	-0.2934179933	 1.2775551551	 0.160069
C	 1.8685136399	 0.3435355148	 1.3760693532	-0.434239
C	-0.2306353717	-0.1225352793	 2.6339686722	 0.14365
O	 0.1493628418	-0.6182751693	 3.6663169641	-0.272405
C	 0.6033794736	-1.8110579688	 0.9202912788	 0.354524
N	 1.2072823499	-2.5605314674	 1.8826058079	-0.515295
O	 0.2520477379	-2.244206945	-0.1570324007	-0.356166
H	 0.3830543327	-0.2809388887	-1.438172453	 0.148612
H	-0.7898588734	 1.059527339	-1.463789093	 0.129934
H	 0.8767132592	 1.3693575611	-0.933971866	 0.104272
H	 1.7784074816	 1.4245305594	 1.5187380848	 0.133824
H	 2.4115313378	-0.0791415984	 2.2229014758	 0.141835
H	 2.4458037306	 0.154913047	 0.4680004628	 0.140759
H	-1.1252390712	 0.5289540961	 2.5809519018	 0.120375
H	 1.2168227402	-2.2179589752	 2.8336572184	 0.276113
H	 1.2244034493	-3.5572909323	 1.7293682797	 0.261294
