13
gdb 43557	2.19941	1.63904	1.06303	3.9713	70.11	-0.2918	-0.014	0.2777	1079.6753	0.088002	-415.570912	-415.56279	-415.561846	-415.604191	29.156	
N	-0.1265946262	 1.2141277519	-0.5594241686	-0.519174
C	-0.0382858653	 0.0586617473	-0.1003107264	 0.454858
O	 1.029139156	-0.6624932144	 0.3840303864	-0.243744
C	 0.1924996444	-1.8322155536	 0.6932860221	-0.083371
C	 0.1837748234	-2.1756395044	 2.0940131137	 0.365792
C	 0.1618487347	-2.47522535	 3.2563655465	-0.424248
C	-1.0485818456	-1.0704625591	 0.1025183521	-0.327385
C	-2.1814916213	-0.8154643916	 0.9706748448	 0.319011
N	-3.0878124779	-0.6249054161	 1.6605362134	-0.313905
H	 0.7697412725	 1.7024816784	-0.5582818652	 0.245426
H	 0.5053588957	-2.6760294951	 0.0730068021	 0.138404
H	 0.1372664951	-2.7330409886	 4.2872159379	 0.22298
H	-1.3904579756	-1.4966460146	-0.8437743188	 0.165356
