23
gdb 59867	3.00795	0.92013	0.78793	3.4871	85.19	-0.2255	0.0657	0.2912	1584.9212	0.203682	-421.651807	-421.640234	-421.63929	-421.688993	40.631	
C	 0.0362617484	 1.498432292	 0.0021121255	-0.385872
C	-0.0303715102	-0.0347026125	 0.0238686636	 0.083627
C	-1.469821323	-0.5523718878	 0.0394818931	-0.401891
N	 0.6797043646	-0.635486622	-1.1072248112	-0.384358
C	 2.0627630143	-0.6780018932	-1.0978001148	 0.510712
O	 2.7144570297	-0.3431023672	-0.1171501058	-0.433724
N	 2.6488457334	-1.1646572067	-2.2513125848	-0.124116
C	 4.0904457421	-1.0774505001	-2.389096104	-0.341181
C	 1.8973209204	-1.6591131512	-3.3853494255	-0.349237
H	 1.0783032993	 1.8251761	 0.010114206	 0.141908
H	-0.4545502757	 1.9000357903	-0.892889008	 0.097563
H	-0.4657965061	 1.921707484	 0.8784713147	 0.110704
H	 0.4930794477	-0.3856527606	 0.916813518	 0.115726
H	-2.014105594	-0.2345535799	-0.8590782101	 0.105215
H	-1.4940447732	-1.6448396753	 0.0831340837	 0.120596
H	-2.0102646573	-0.1577616443	 0.9047727639	 0.120042
H	 0.2189498227	-0.5471598749	-1.999546869	 0.231914
H	 4.5213868205	-2.0641271748	-2.6011197264	 0.115189
H	 4.3750152431	-0.3981412572	-3.2046707507	 0.111581
H	 4.4964174199	-0.7030911139	-1.4508563945	 0.170408
H	 1.5867034617	-0.864463879	-4.0828821383	 0.115074
H	 2.5200178079	-2.3614207086	-3.9474191325	 0.132136
H	 1.0087748639	-2.2031924173	-3.0539047829	 0.137984
