16
gdb 1983	5.81495	1.59429	1.35508	2.5275	61.14	-0.2427	-0.0164	0.2263	887.9112	0.135744	-325.766945	-325.759193	-325.758249	-325.799808	27.055	
C	-0.133876927	 0.6955376311	-0.9129579391	-0.48577
C	 0.0980406349	-0.0286611817	 0.4012941783	 0.383935
O	 1.0410335209	 0.223098715	 1.1139990757	-0.291557
C	-0.9208979417	-1.1046186909	 0.7917806438	-0.313407
C	-0.9625993993	-2.2631259509	-0.1866678104	 0.023202
C	-2.1777656962	-3.1009002188	-0.324688437	-0.245009
N	-1.7697466178	-2.1991116533	-1.4190127475	-0.312326
H	 0.6654716564	 1.4178822322	-1.0811116184	 0.143233
H	-0.1758064015	-0.0174729274	-1.7430660505	 0.163172
H	-1.0985247532	 1.2168480315	-0.891711709	 0.131498
H	-0.6465024553	-1.4577335976	 1.7903686266	 0.12825
H	-1.9195963855	-0.6498572051	 0.8533045515	 0.102424
H	-0.0002312848	-2.7481342111	-0.3412590026	 0.106504
H	-2.0881988453	-4.1604603464	-0.5455422092	 0.12493
H	-3.0476853347	-2.8349200308	 0.2708103667	 0.113906
H	-2.3555307	-1.367084146	-1.402397169	 0.227015
