21
gdb 75542	2.20595	1.66622	1.19568	1.6982	80.61	-0.238	0.0185	0.2565	1133.3526	0.181858	-424.240208	-424.231004	-424.230059	-424.273394	35.892	
C	-0.0620168767	 1.533766824	 0.0333645765	-0.492171
C	 0.0234257438	 0.0323837874	 0.000432727	 0.297078
C	-0.0501650452	-0.6653537854	-1.1354982975	-0.184386
C	-0.0685033493	-2.1672024966	-1.1800512137	-0.135586
O	-0.3146515403	-2.7463921557	 0.0898980186	-0.260758
C	 0.5148035086	-2.1652619623	 1.081381708	-0.122336
C	 0.1045481214	-0.7086201109	 1.3359388776	 0.265232
C	 1.0648457574	-0.0626721715	 2.332351221	-0.426268
O	-1.1879767471	-0.6833517201	 1.958164161	-0.46915
H	 0.8616846447	 1.9897122682	 0.4083585548	 0.125052
H	-0.2583560153	 1.9401596175	-0.9623483983	 0.116097
H	-0.8695428772	 1.8532290723	 0.7020302234	 0.140361
H	-0.1209372966	-0.1543658453	-2.0937534591	 0.085982
H	-0.868070584	-2.5225444783	-1.8403154829	 0.11757
H	 0.8820672499	-2.5534263958	-1.5942059567	 0.099146
H	 0.3677040433	-2.748105957	 1.9948933042	 0.111095
H	 1.575112316	-2.2256212831	 0.7859874466	 0.085097
H	 2.0690675444	 0.0317481673	 1.9087236466	 0.11609
H	 0.7117880731	 0.9296753048	 2.6208666633	 0.130406
H	 1.1220223122	-0.6730558905	 3.2386795108	 0.122183
H	-1.7576410633	-1.2246001792	 1.3971097388	 0.279269
