17
gdb 98649	4.78887	0.85225	0.73831	2.1965	72.56	-0.2468	-0.0499	0.1969	1453.1309	0.134422	-455.138073	-455.129127	-455.128182	-455.172585	32.064	
O	 0.1357237047	 1.3265727337	-0.070451523	-0.422612
C	 0.0471298254	-0.0637294771	-0.0202541356	-0.092192
C	-1.403873315	-0.5259743755	-0.0509401067	 0.344196
N	-2.3005450315	 0.3859048113	-0.0818139404	-0.561232
N	-1.6059034457	-1.8763048542	-0.0765873984	-0.103933
C	-0.7059844181	-2.9740914472	 0.3190877563	-0.302539
C	-1.980452768	-3.8193211303	 0.5304455489	 0.393422
O	-2.1971640848	-4.9489707395	 0.8333421131	-0.258585
C	-2.8576533586	-2.5955979073	 0.1886154621	-0.310685
H	-0.7906262197	 1.6288836059	-0.0949292224	 0.296793
H	 0.5806974144	-0.5263005874	-0.8669282438	 0.107317
H	 0.5224075508	-0.4542406358	 0.8965321781	 0.100142
H	-3.2526427477	 0.0263902644	-0.1091845076	 0.217135
H	-0.0293255296	-3.3325238901	-0.4649526006	 0.150462
H	-0.1320069863	-2.8040536435	 1.2396562793	 0.148126
H	-3.4363793228	-2.209884105	 1.0400228271	 0.144603
H	-3.5231264875	-2.7171314826	-0.6740571565	 0.149582
