18
gdb 36128	4.036	1.10755	0.99278	1.6745	82.52	-0.2335	0.0149	0.2484	1223.2504	0.147612	-364.759034	-364.750903	-364.749959	-364.791946	31.751	
C	-0.1180971666	-1.1581361845	 0.4756264754	-0.450273
C	-0.0846705468	-0.0009174576	 0.1537752692	 0.315339
C	-0.0224850631	 1.4038339859	-0.2436784464	-0.472581
C	 1.3876823348	 1.9644073669	-0.240068272	 0.324943
N	 2.0369983099	 2.3481502336	 1.0441763467	-0.360138
C	 1.7167125743	 3.3897256059	 0.0401326803	-0.110453
C	 2.9025850823	 3.7890257934	-0.8322938162	-0.264028
C	 3.2362219083	 2.4998851449	-1.5591053086	-0.073392
C	 2.3971813204	 1.5103577676	-1.2491539842	-0.108866
H	-0.1507946511	-2.1792292867	 0.7650595874	 0.198428
H	-0.4528655235	 1.5159313014	-1.2477255625	 0.138399
H	-0.6521565675	 2.003711653	 0.4264679034	 0.12517
H	 1.3255611268	 2.3775845648	 1.774512618	 0.22367
H	 0.9461469949	 4.116850257	 0.276070308	 0.08482
H	 2.6390486791	 4.5954219802	-1.5293950651	 0.105052
H	 3.7448787883	 4.1486963804	-0.2291752958	 0.121875
H	 4.0893566976	 2.4135094399	-2.2226365593	 0.096664
H	 2.4328013417	 0.4951726339	-1.6253540983	 0.105371
