16
gdb 6676	4.72354	0.97616	0.85159	2.0381	62.35	-0.248	0.0255	0.2734	1287.8394	0.129928	-417.120882	-417.111618	-417.110673	-417.156457	31.25	
N	-0.0916796259	 1.0996575314	-0.5853832206	-0.52081
C	-0.1123092885	 0.0629047728	 0.3000171221	 0.415517
O	 0.6968419936	-0.0424904895	 1.203359255	-0.366458
C	-1.2520811126	-0.9333066324	 0.1029752426	-0.304141
C	-0.8168814179	-2.3445953084	 0.5180045959	-0.155167
N	-1.9201017529	-3.2946079397	 0.5468543543	-0.27057
C	-2.4937165385	-3.7728178278	-0.584931073	 0.148917
O	-2.1780342901	-3.4436268438	-1.7109880337	-0.32893
H	 0.659738426	 1.7670025288	-0.5181577903	 0.261046
H	-0.6841732333	 1.1193969762	-1.3965126755	 0.261888
H	-2.0883627265	-0.6080214803	 0.7345858157	 0.126457
H	-1.6111794327	-0.9472791097	-0.9293350707	 0.131922
H	-0.060801353	-2.7112683298	-0.1831723697	 0.137227
H	-0.3604682227	-2.3021389412	 1.5075710063	 0.136175
H	-2.2571741488	-3.6293077827	 1.4344738372	 0.251822
H	-3.2938577561	-4.509391504	-0.3703802957	 0.075105
