17
gdb 55433	2.69155	1.49915	1.00336	6.3881	70.24	-0.2407	-0.0027	0.238	1148.7138	0.137701	-455.227359	-455.218996	-455.218052	-455.260847	30.971	
N	 1.1607042055	-0.7463790218	-0.0648038272	-0.565136
C	 0.0334734307	 0.0429660765	 0.1072115033	 0.449791
O	 0.090007755	 1.2127994932	 0.3945429804	-0.343003
N	-1.1713511741	-0.6795792486	-0.0187677174	-0.171708
C	-1.2406741197	-2.1437663193	-0.0516397477	-0.179283
C	-2.7113959033	-2.4469686476	 0.2856677879	-0.23269
C	-3.4567914398	-1.2212963394	-0.248553256	-0.331208
C	-2.4402768948	-0.0796180671	-0.1628298526	 0.420919
O	-2.6758616102	 1.0945374544	-0.2400215501	-0.32514
H	 2.0064521774	-0.1986508529	-0.1174009404	 0.266055
H	 1.1247096337	-1.5316956991	-0.6957945714	 0.254504
H	-0.9814374128	-2.5278911976	-1.0500285283	 0.107689
H	-0.5431728525	-2.5757994044	 0.6692164249	 0.135677
H	-3.0431498791	-3.3915156925	-0.1492259771	 0.11453
H	-2.829012005	-2.5164854591	 1.3711339286	 0.125501
H	-3.7383110077	-1.3389702186	-1.3020245663	 0.133971
H	-4.3600791333	-0.9564072461	 0.3024021093	 0.139532
