16
gdb 19048	4.19222	2.0793	1.85873	0.6404	71.45	-0.2112	-0.0306	0.1806	760.2856	0.131213	-346.49222	-346.485953	-346.485009	-346.522253	25.697	
O	 0.0226147194	 1.4440194459	 0.281410882	-0.428209
C	 0.0475503054	 0.0471213296	 0.0365210707	 0.089107
C	 0.6149201744	-0.681485815	 1.274126628	-0.145662
C	-0.2211283984	-1.6760851423	 1.6223167123	 0.049401
C	-1.3195581291	-1.348230491	 2.63790822	-0.258251
C	-2.1323802475	-1.0523559183	 1.3191980328	-0.057414
C	-1.3648261099	-0.5435146562	 0.0346976227	-0.048151
C	-1.248737965	-1.9514142197	 0.5089002962	-0.123624
H	 0.8922035014	 1.8014097984	 0.0750114504	 0.285859
H	 0.5302625428	-0.1590204947	-0.9323898409	 0.068535
H	 1.1453812705	-0.0753606679	 2.0044059814	 0.093775
H	-1.7918561946	-2.1927622449	 3.1532279715	 0.104354
H	-1.1144189744	-0.5378631355	 3.3426932454	 0.106455
H	-3.2189566244	-1.0151584845	 1.2890426423	 0.091752
H	-2.0395054621	-0.2899045359	-0.7809794983	 0.081552
H	-1.4580272786	-2.874833608	-0.0139576664	 0.090521
