19
gdb 40786	3.78175	1.19155	1.00982	1.8183	75.75	-0.2347	0.0759	0.3106	1202.4362	0.16171	-419.149604	-419.141865	-419.140921	-419.1824	29.766	
C	 0.1674219973	 1.5299501795	 0.0492243969	-0.237066
N	 1.1756411634	 0.4833591152	-0.2003132414	-0.329018
C	-0.226331989	 0.1026452701	 0.0468983916	-0.018408
C	-0.4640935287	-0.6548711246	 1.3276038891	 0.152248
O	-1.8396129021	-0.5031442876	 1.6924965424	-0.279475
C	-2.3200052884	-1.6852054139	 2.323463564	-0.075244
C	-1.4158921868	-2.8028994773	 1.8492200087	-0.054792
N	-1.2603965836	-2.8115781829	 0.3795165525	-0.335869
C	-0.2423344026	-2.1541270496	 1.2289414536	-0.082325
H	 0.2834717973	 2.0562278095	 0.9929139867	 0.118692
H	-0.159577454	 2.1525594868	-0.7789876202	 0.111642
H	 1.3769340001	 0.4266978228	-1.1946456074	 0.232161
H	-0.8212546151	-0.2596107049	-0.7871820428	 0.100445
H	 0.1994445111	-0.2516507931	 2.1098316884	 0.069957
H	-2.264499219	-1.606164965	 3.4213493615	 0.089446
H	-3.3683075804	-1.8130722666	 2.0335755519	 0.112169
H	-1.3482657868	-3.7286367525	 2.4103834671	 0.093465
H	-0.9086464657	-3.7214049481	 0.0904360997	 0.231832
H	 0.762739013	-2.5548621076	 1.2907473775	 0.10014
