22
gdb 91908	2.39781	1.46913	1.02291	2.2552	81.85	-0.2179	0.0678	0.2857	1229.1979	0.195462	-404.329355	-404.320544	-404.3196	-404.362443	34.67	
C	-0.0293991976	 1.5739909123	 0.0184970087	-0.402717
C	 0.0181217954	 0.0441614069	-0.0165584382	 0.023236
C	 0.7349868623	-0.499389325	-1.2583718157	-0.242263
C	 0.5770151764	-2.0207340063	-1.3383573422	 0.092366
O	 1.4161649099	-2.6121113718	-2.326747521	-0.436798
C	 0.8868931311	-2.7092126122	-0.0231268828	 0.007033
C	 2.1710571326	-2.4626465964	 0.6793385112	-0.237282
N	 0.9197746931	-1.9703482957	 1.2493181923	-0.111364
C	 0.692906464	-0.5139492215	 1.2458908598	-0.146649
H	 0.9805167577	 2.0000241462	 0.0024723808	 0.115124
H	-0.5723678568	 1.9724100421	-0.8448377209	 0.111721
H	-0.5289139507	 1.9356154427	 0.9236631676	 0.115254
H	-1.0166092869	-0.3292385696	-0.0370908481	 0.076906
H	 0.3267645302	-0.0458479368	-2.1710139165	 0.082861
H	 1.8009857197	-0.2402784614	-1.228692514	 0.102723
H	-0.4791537987	-2.2336261337	-1.5754337321	 0.065529
H	 1.1418211972	-2.2732500884	-3.1856401033	 0.27816
H	 0.4425332424	-3.6987165526	 0.0645833441	 0.089886
H	 2.6579773578	-3.2658197521	 1.2270403393	 0.10978
H	 2.8567937874	-1.7408604693	 0.2390416289	 0.109529
H	 1.6523000632	 0.0012136547	 1.3938507958	 0.094946
H	 0.0740072105	-0.2769739421	 2.1196964264	 0.10202
