21
gdb 93874	2.07484	1.6302	1.11071	1.4512	83.91	-0.2412	0.0452	0.2864	1191.1139	0.181282	-387.071422	-387.061808	-387.060864	-387.105592	36.166	
C	-0.702143905	 1.3035078125	-0.0491636096	-0.423936
C	 0.123365021	 0.0220711788	-0.0181670258	-0.000022
C	 1.2615007307	-0.0319764031	-1.0523854214	-0.068388
O	 2.2645110515	-0.8988930976	-0.528413633	-0.275775
C	 1.8895752576	-1.35756048	 0.7691250467	 0.148621
C	 3.140900509	-1.6112355713	 1.5893229217	-0.409168
C	 0.8904212588	-0.2932352657	 1.2986992036	-0.230343
C	 1.5414852674	 0.8753922593	 1.8785528036	 0.373123
C	 2.0735051196	 1.8428288825	 2.3560158742	-0.498077
H	-0.0794616379	 2.1763356528	 0.1657090157	 0.134633
H	-1.1600143068	 1.4429503918	-1.0342383211	 0.11546
H	-1.5091306476	 1.2741078433	 0.6898146517	 0.117275
H	-0.5411010563	-0.8331956408	-0.1922947028	 0.08236
H	 0.9149797598	-0.4075702896	-2.0233675373	 0.097724
H	 1.6978351902	 0.9644435827	-1.2094974894	 0.101998
H	 1.3240542413	-2.3007979404	 0.6744598299	 0.064568
H	 3.7028278026	-0.6855512242	 1.7319537588	 0.135615
H	 2.8804555812	-2.0206189151	 2.5706022971	 0.111471
H	 3.7791773449	-2.3339421616	 1.0736851543	 0.124159
H	 0.2206516283	-0.7373132375	 2.0435295767	 0.100681
H	 2.5444443596	 2.6930068234	 2.7840378665	 0.198021
