20
gdb 107225	3.72388	1.24005	1.10174	0.9067	77.74	-0.2276	0.0676	0.2952	1155.6301	0.172132	-403.101631	-403.093547	-403.092603	-403.134191	32.039	
O	 0.012119486	 1.3448219919	 0.3630532505	-0.424427
C	-0.0478279309	-0.0169290946	-0.0436081158	-0.168969
C	-1.484456599	-0.4630385343	 0.0527777139	 0.359336
C	-1.9792025783	-1.1409026077	 1.2783659533	-0.28964
N	-1.7170278765	-1.9235468442	 0.0603739534	-0.150257
C	-2.843856708	-2.1994166006	-0.8301786454	 0.00573
C	-4.2435535297	-1.7039071622	-0.5548827941	-0.302141
C	-3.3342489079	-0.9210574609	-1.4710621477	-0.030758
C	-2.5003803001	 0.2174929389	-0.8760798297	-0.316014
H	 0.9071414375	 1.6623713775	 0.2126306518	 0.288484
H	 0.3004372297	-0.1373048261	-1.0827383345	 0.084432
H	 0.5754620045	-0.6629371079	 0.5918955662	 0.093511
H	-1.2908087763	-1.342437189	 2.0957865789	 0.111131
H	-3.0015756636	-0.9704812009	 1.5984908349	 0.11228
H	-2.7250869726	-3.1180282129	-1.3932607256	 0.093851
H	-5.0478257429	-2.2655645993	-1.0193720851	 0.110674
H	-4.5094584249	-1.295242356	 0.4129626253	 0.114092
H	-3.5838396227	-0.8726811341	-2.5252552139	 0.085731
H	-3.1052574735	 0.9644234946	-0.35257838	 0.114086
H	-1.9668776909	 0.7474526177	-1.6707251364	 0.108868
