17
gdb 42374	2.08883	1.42372	0.95719	3.6934	73.14	-0.2564	-0.043	0.2134	1227.5886	0.13441	-417.998152	-417.989017	-417.988072	-418.033421	32.026	
O	 0.7306579177	 2.3429146301	 2.0101959616	-0.27321
C	 0.1875492417	 2.0999934901	 0.9655737673	 0.370706
C	 1.0149281524	 1.8286900414	-0.3148211374	-0.405119
C	 1.0384414906	 0.410195698	-0.6532058585	 0.278054
N	 1.0605476876	-0.7191834545	-0.8984432516	-0.318625
C	-1.3329461387	 2.1190970613	 0.8248853317	-0.249204
N	-1.8025492948	 1.4172041235	-0.3531644186	-0.080779
C	-2.2646703297	 0.0418708623	-0.1628119794	-0.214436
C	-3.2353750239	 1.1392939146	-0.4195110108	-0.225407
H	 0.5819235184	 2.3784960386	-1.1560507127	 0.172867
H	 2.0333245099	 2.1765322867	-0.1243161929	 0.16756
H	-1.7606882713	 1.7606485148	 1.7752262394	 0.124145
H	-1.6096812449	 3.1799928439	 0.7345156674	 0.141701
H	-1.9858423508	-0.6543341374	-0.9461327447	 0.145977
H	-2.2287709101	-0.3665762151	 0.8454762566	 0.12238
H	-3.8553007876	 1.4637990938	 0.4144057931	 0.116184
H	-3.6896468867	 1.2585617479	-1.3985577605	 0.127207
