15
gdb 125139	2.62824	1.58425	0.99453	0.3752	70.09	-0.2623	-0.0493	0.2131	1119.1637	0.11255	-453.983686	-453.975104	-453.97416	-454.017453	30.505	
C	-0.003300919	 1.5448781475	 0.1137781066	-0.522889
C	 0.0214222854	 0.0537329604	 0.0109666185	 0.072266
C	 0.0135909061	-0.7397118604	-1.1005649554	 0.284688
O	 0.0439082479	-2.0457589426	-0.7444904992	-0.23784
N	 0.0727960313	-2.1407463535	 0.6370176642	-0.136392
C	 0.0591080883	-0.9032728913	 1.0672134387	-0.021703
C	-0.0202909162	-0.415798928	-2.5501580453	 0.321887
N	-0.0162217912	-1.4993205473	-3.3707138646	-0.533013
O	-0.0485820168	 0.7364670986	-2.9476434128	-0.363453
H	 0.8794983913	 1.9147973351	 0.6467194512	 0.13527
H	-0.0255377101	 1.9874846059	-0.8815305204	 0.177561
H	-0.8831972043	 1.8837713667	 0.6716480461	 0.135475
H	 0.0768941552	-0.7210189112	 2.1331065076	 0.138789
H	 0.0071600765	-2.4368893624	-3.0084403388	 0.280254
H	-0.0385105143	-1.3438937875	-4.3643464363	 0.2691
