18
gdb 50784	4.77781	0.59207	0.57681	1.7544	82.03	-0.242	-0.033	0.209	1911.3145	0.145075	-401.890115	-401.880316	-401.879371	-401.92795	33.472	
O	-0.210804412	 0.3145601989	 0.0250644929	-0.228098
C	 0.2647986244	 1.0455093876	-0.7993700367	 0.172507
C	 1.487106802	 1.9314614359	-0.5423419724	-0.415349
C	 1.3838093488	 3.2256703127	-1.2008853703	 0.006512
C	 1.2331180005	 4.2902627978	-1.7465636219	 0.09495
C	 1.0917573673	 5.5852424543	-2.4225634285	-0.281617
N	 1.9789306009	 5.8549004964	-3.5603506941	-0.072493
C	 3.3452323876	 5.3471299774	-3.5184115758	-0.217539
C	 2.3397724791	 4.7522443606	-4.4435967832	-0.217033
H	-0.1455746806	 1.1223770088	-1.829673763	 0.093895
H	 1.623215539	 2.0221856379	 0.5403014842	 0.157189
H	 2.3596986879	 1.3811145365	-0.9268588755	 0.157459
H	 0.0613299897	 5.6910450823	-2.7836222643	 0.139265
H	 1.2478258282	 6.3890085442	-1.6925572291	 0.139983
H	 4.1050673726	 6.0300197991	-3.8873098357	 0.11736
H	 3.6412141076	 4.7389234253	-2.6665479489	 0.11947
H	 1.980497206	 3.7562350732	-4.1944050517	 0.11615
H	 2.3487308513	 4.9904314611	-5.503297996	 0.117388
