16
gdb 127844	3.61272	1.24715	0.96684	2.5119	87.44	-0.2321	-0.0983	0.1338	1189.2903	0.124462	-396.885337	-396.877286	-396.876342	-396.918533	29.389	
C	 0.0139010481	 1.3941660966	 0.3927337065	-0.329533
N	-0.0252140162	-0.0499308383	 0.2688247508	-0.27944
C	-1.1265789711	-0.636004231	-0.0311998879	 0.248759
C	-2.3863137914	 0.0180150736	-0.4190128207	-0.135496
C	-3.6282528823	-0.5074052529	-0.3918290134	 0.015808
N	-4.1149076738	-1.6891635894	 0.1765263018	-0.163643
N	-3.4595670597	-2.761402267	 0.2954546761	-0.158954
C	-2.1360823417	-2.9543987495	-0.1081633867	 0.006123
C	-1.0993471915	-2.0916829841	-0.1782145176	-0.082325
H	 0.198396973	 1.8584256322	-0.587397728	 0.128496
H	-0.8991326291	 1.8401844629	 0.8108171093	 0.113985
H	 0.8536227084	 1.6697382888	 1.0367438351	 0.132795
H	-2.3053834255	 1.0375655125	-0.786549369	 0.119669
H	-4.4536013414	 0.1149838388	-0.728534584	 0.12755
H	-1.9241237302	-4.0146631285	-0.2141162458	 0.127499
H	-0.1045044957	-2.5081889846	-0.3158375965	 0.128708
