16
gdb 27409	2.43559	1.61874	0.97828	2.8397	84.3	-0.2458	-0.0935	0.1522	1158.9481	0.125169	-400.788666	-400.780707	-400.779763	-400.822104	29.274	
C	 0.0212333131	 1.5206813859	-0.0020079601	-0.440615
C	-0.0217544987	 0.0107368283	-0.0003081847	 0.28344
C	-1.2254923672	-0.6182093263	-0.1093903439	-0.172907
C	-1.6027957046	-2.0322238276	-0.1389713339	 0.329057
O	-2.7813852744	-2.3537394423	-0.2469863421	-0.363747
C	-0.5805033329	-3.0880643009	-0.0401608808	-0.15097
C	 0.7582209452	-2.9691680814	 0.0832434641	-0.07967
C	 1.5605211368	-1.772058244	 0.152898557	 0.017667
N	 1.2496640148	-0.5203267612	 0.1193893867	-0.310532
H	 0.6512938304	 1.8716615707	-0.8260990684	 0.142731
H	-0.9706249514	 1.9655199892	-0.0954989661	 0.125899
H	 0.4895783445	 1.8782291228	 0.921084132	 0.14273
H	-2.1019259838	 0.0189970739	-0.1929722566	 0.113337
H	-1.0137680473	-4.0846169503	-0.0763380606	 0.130096
H	 1.335544529	-3.8893877575	 0.1402459701	 0.11488
H	 2.6317974963	-1.9647054295	 0.2527620572	 0.118603
