17
gdb 32143	2.78183	1.42002	0.95127	2.0263	79.92	-0.2345	-0.0382	0.1964	1214.8257	0.136624	-418.065642	-418.057214	-418.05627	-418.099011	30.463	
C	-0.0114883994	 1.3996893521	-0.163188814	-0.232984
O	-0.028802073	-0.0239499033	-0.0588197444	-0.26079
C	-1.2316267179	-0.6173425286	 0.0155134654	 0.406546
C	-1.2515888124	-2.0228516893	 0.118627595	-0.084143
N	-2.3947653541	-2.6789894902	 0.1960063434	-0.229826
C	-3.5213191767	-1.9497059173	 0.1718227191	-0.077349
C	-3.5056239777	-0.5637436494	 0.0702461276	 0.31182
C	-4.7651253084	 0.2558582458	 0.0429000991	-0.469411
N	-2.3381990348	 0.1029089837	-0.0085286242	-0.399803
H	 1.0426084152	 1.6752793924	-0.2104777398	 0.131539
H	-0.5331746567	 1.7344478413	-1.0644014354	 0.135455
H	-0.4875542444	 1.863642534	 0.7054379066	 0.135455
H	-0.3223083336	-2.5844788782	 0.1356600599	 0.120557
H	-4.4593290922	-2.4930337833	 0.2356767078	 0.10559
H	-5.6541202011	-0.3752716616	 0.1118490281	 0.126148
H	-4.7763937064	 0.9686107216	 0.8739448658	 0.140598
H	-4.8215933464	 0.8405651503	-0.8810643399	 0.140598
