18
gdb 112093	3.19285	1.33237	1.0422	2.9711	71.98	-0.243	0.0131	0.2561	1139.5258	0.14953	-439.075199	-439.067426	-439.066482	-439.107728	30.03	
O	 0.1173048834	 1.3380916733	-0.1575248132	-0.425265
C	 0.0548020402	-0.0691962759	-0.1257831913	-0.04702
C	-1.3856095298	-0.5510146799	 0.1113303236	-0.008097
N	-2.2225379158	 0.0730200486	-0.914035656	-0.296167
C	-3.1355914505	-0.5857094823	-1.486587488	 0.123614
O	-3.488086519	-1.8834129178	-1.3374576299	-0.222801
C	-2.6609206134	-2.6922037514	-0.5254043323	 0.104319
C	-1.2546191373	-2.9578076093	-0.978661797	-0.323033
C	-1.5237784796	-2.0593084431	 0.2163208231	-0.083063
H	-0.6315889836	 1.6094033844	-0.7062930221	 0.290569
H	 0.432754218	-0.5152956936	-1.0606831328	 0.081349
H	 0.7014512715	-0.4116709571	 0.6899151493	 0.099456
H	-1.7070913318	-0.1176085477	 1.0684816795	 0.10171
H	-3.7816476815	-0.1166338624	-2.2260234465	 0.130644
H	-3.2526602679	-3.480418098	-0.0770629235	 0.115034
H	-0.8342948419	-3.9417402402	-0.8045128707	 0.124152
H	-0.944361066	-2.4916718982	-1.9078360734	 0.134834
H	-1.293148145	-2.4716390395	 1.193837071	 0.099768
