18
gdb 108388	2.33531	1.43498	1.10357	5.6067	77.45	-0.2302	0.036	0.2662	1155.8123	0.148237	-398.075768	-398.066962	-398.066018	-398.109613	32.461	
C	 0.2331757049	 1.4633871243	 0.1898565972	-0.334565
N	-0.1918422035	 0.1042229399	-0.1485824564	-0.371064
C	 0.5140259703	-0.4849566883	-1.2247885399	 0.317463
C	 0.1027252928	-0.3533713195	-2.7006062395	-0.223523
N	 0.6135285017	-1.7446765393	-2.9785203691	-0.313306
C	 0.8937646423	-1.9062195454	-1.5435707337	-0.105714
C	 1.9965223515	-0.9350935638	-1.1538067495	-0.239788
C	 3.0143133215	-0.4991560388	-2.067304349	 0.30986
N	 3.832402522	-0.1126358044	-2.7889973044	-0.352331
H	 1.2983852822	 1.5411768879	 0.4600370274	 0.11218
H	 0.0567423428	 2.1221258436	-0.6660769594	 0.137608
H	-0.369173618	 1.8312062176	 1.0244318275	 0.124623
H	-0.1698120119	-0.4933108505	 0.6695640549	 0.226432
H	-0.9836817524	-0.271198403	-2.784068981	 0.119867
H	 0.5881407397	 0.4191089459	-3.3033096518	 0.129054
H	-0.1480780546	-2.3494830737	-3.2669872035	 0.231389
H	 0.7466871206	-2.8408409546	-1.0134038361	 0.107801
H	 2.335307398	-1.052452778	-0.1280750237	 0.124016
