15
gdb 116825	16.96055	0.38844	0.38155	1.7655	110.76	-0.2329	-0.0476	0.1853	2665.39	0.109977	-383.414341	-383.404414	-383.403469	-383.45007	34.275	
O	-0.1103479666	 1.4635658263	 0.0107296039	-0.410285
C	 0.0393612808	 0.0561690969	 0.0016088647	-0.066971
C	-1.3789769617	-0.5320966357	 0.0131491917	-0.36125
C	-1.3881581013	-1.9833389127	 0.0054902793	 0.157958
C	-1.3827091288	-3.1965053784	-0.0011489237	-0.356111
C	-1.3750419759	-4.5477998067	-0.0085588246	 0.580362
C	-1.3692824944	-5.7663388997	-0.0153245166	-0.012314
C	-1.3627837106	-7.1192679406	-0.0228772801	 0.175145
C	-1.3571907071	-8.3290365505	-0.029561278	-0.702749
H	 0.7646683821	 1.8620452095	 0.00373962	 0.292774
H	 0.5729171021	-0.2946778524	-0.8938990688	 0.105253
H	 0.591320688	-0.3042231881	 0.882045139	 0.105253
H	-1.9041804168	-0.1543779473	 0.8995028002	 0.150383
H	-1.9223728821	-0.1449729934	-0.8580515337	 0.150385
H	-1.3531364278	-9.3907558274	-0.0355214734	 0.192168
