21
gdb 60843	1.95489	1.40289	1.18193	1.315	78.68	-0.2513	-0.0274	0.2239	1217.4179	0.178126	-424.229652	-424.219013	-424.218068	-424.265509	38.012	
C	-0.4007056133	 1.4484894811	 0.2215238753	-0.425217
C	 0.0906623641	 0.0143177288	-0.06404833	-0.159376
C	 0.8158813284	-0.0377146237	-1.3950980576	 0.161901
O	 1.8978784811	-0.5316627249	-1.5883011732	-0.250732
C	 0.8942550547	-0.5933547287	 1.0797231276	 0.426356
C	 2.1167466608	 0.1758420516	 1.5354068353	-0.482029
O	 0.0796436072	-1.1085422496	 2.151927769	-0.320974
C	 0.8322871852	-2.0400537154	 1.3598688206	 0.034764
C	 0.0758879227	-3.0773005316	 0.5695118857	-0.433229
H	 0.4300282202	 2.1524441871	 0.3214818814	 0.131933
H	-1.0464582418	 1.8048101572	-0.587170642	 0.121261
H	-0.978078598	 1.4626961474	 1.1492199729	 0.146356
H	-0.8120633358	-0.5943180723	-0.2067385274	 0.107074
H	 0.2462642034	 0.4302329205	-2.2325972799	 0.079932
H	 1.8474472452	 1.1727043984	 1.8983732476	 0.121461
H	 2.6079498972	-0.3537528821	 2.3549693866	 0.125838
H	 2.826467128	 0.2843015075	 0.7108968422	 0.143457
H	 1.6981576535	-2.4473077125	 1.8872468893	 0.084862
H	-0.8077304822	-2.6675265514	 0.0768546304	 0.121739
H	 0.7285221091	-3.5183670248	-0.1912050719	 0.134699
H	-0.2582462997	-3.8813204627	 1.2336292883	 0.129923
