18
gdb 101424	3.14953	1.05412	0.94737	2.3938	68.79	-0.261	0.0114	0.2723	1271.307	0.147514	-476.210106	-476.201141	-476.200197	-476.244401	32.856	
O	 0.1634107781	 1.404990277	 0.0351201353	-0.424733
C	 0.1124712398	-0.0018153389	 0.1357086669	-0.080204
C	-1.3307174959	-0.49782221	 0.0002136453	 0.069769
O	-1.8970032569	-0.0002185904	-1.2124999541	-0.445853
C	-1.4465563112	-2.0196942255	 0.0893458405	-0.153263
C	-2.8461897114	-2.6670980421	-0.0100312901	-0.109783
O	-2.4198680419	-3.412024925	-1.1992445533	-0.244398
C	-1.2015383378	-2.7815251846	-1.2018790907	 0.418496
N	-0.2707367815	-2.7903823295	-2.0459178397	-0.547169
H	-0.4164827555	 1.6343202428	-0.7023087078	 0.285728
H	 0.734098321	-0.4942998685	-0.6306168088	 0.114862
H	 0.5160722095	-0.274084621	 1.1175641434	 0.10451
H	-1.9297709004	-0.0408092947	 0.7967487602	 0.103132
H	-1.4147991033	-0.4182163469	-1.9402242754	 0.295395
H	-0.8534971981	-2.4041951787	 0.9238038796	 0.115852
H	-3.1413655222	-3.3448629047	 0.7927275797	 0.124924
H	-3.6539815626	-1.9778030785	-0.2645750835	 0.1387
H	-0.4838227894	-3.4018231011	-2.8362177277	 0.234036
