23
gdb 80425	2.44389	1.67498	1.25019	1.2021	85.	-0.2561	0.0699	0.3261	1119.6212	0.206434	-388.291104	-388.282145	-388.281201	-388.323813	36.07	
C	-0.1654457344	 1.5342091842	-0.030149798	-0.421018
C	 0.0583797966	 0.0235167825	-0.0436501054	-0.002211
C	 0.9842209839	-0.507882016	-1.1599974051	-0.023839
C	 1.1978517171	-1.9767519434	-0.7005638463	-0.279856
C	 1.9854763149	-1.2997648647	 0.4631796688	 0.352866
C	 2.9813776733	-2.041600329	 1.323641148	-0.505427
C	 2.4081421227	-0.2347983086	-0.5985431007	-0.264354
C	 0.8509713119	-0.554007189	 1.1930804518	 0.077871
O	 1.4240859314	 0.4208124902	 2.0518814171	-0.436177
H	 0.7728038432	 2.0879213685	 0.0518853342	 0.129577
H	-0.67083881	 1.8521751069	-0.9481430905	 0.111526
H	-0.8027229261	 1.8384728383	 0.8088737646	 0.097972
H	-0.9185604335	-0.4702561663	-0.1150350863	 0.061171
H	 0.712997805	-0.2596112269	-2.187451545	 0.052843
H	 0.3137153261	-2.5747812956	-0.4521684226	 0.081115
H	 1.8581194245	-2.5423006278	-1.3630603642	 0.092352
H	 3.7678538049	-2.5018818325	 0.7165531624	 0.106748
H	 3.4531187508	-1.3615392096	 2.0393631252	 0.131968
H	 2.4909421862	-2.8387904942	 1.8954258163	 0.108152
H	 3.19349282	-0.6100874015	-1.259674565	 0.088311
H	 2.6589887029	 0.7669283702	-0.2446575811	 0.103449
H	 0.2337366577	-1.2510835331	 1.779217039	 0.054243
H	 0.7132307208	 0.8715476173	 2.5167565428	 0.282718
