23
gdb 86569	2.72708	1.05232	0.90971	2.5144	86.54	-0.2375	-0.0085	0.2291	1427.9619	0.203393	-388.314365	-388.303821	-388.302877	-388.35085	38.269	
C	-0.1867914586	 1.531541475	-0.0941180831	-0.395033
C	 0.0356455222	 0.0214308905	-0.0606722797	-0.00283
C	 1.2767226704	-0.4421751805	-0.8772097135	-0.247134
C	 2.0777127232	-0.5696832637	 0.4660518342	-0.091315
C	 0.7260085914	-0.5475369591	 1.224213281	 0.032229
C	 0.639231409	 0.195171566	 2.5488408487	-0.422131
C	 2.9471607478	-1.804596016	 0.58736701	 0.369217
C	 4.3823883528	-1.6680907116	 0.110331943	-0.481118
O	 2.5121749487	-2.8537439276	 1.009455844	-0.306388
H	 0.7314145292	 2.086570904	 0.1290306771	 0.111671
H	-0.5262353687	 1.8463963008	-1.0869541909	 0.11296
H	-0.9458052963	 1.8425733259	 0.6313434463	 0.1165
H	-0.8979899901	-0.4833112566	-0.3275883296	 0.067878
H	 1.1273781748	-1.4172915825	-1.3482250919	 0.11173
H	 1.6706488565	 0.2557746992	-1.6206723136	 0.097665
H	 2.6743535535	 0.3317684413	 0.6416819979	 0.068891
H	 0.4182295249	-1.5878281514	 1.3661722197	 0.09645
H	 0.9638956565	 1.2370623177	 2.4581508967	 0.109439
H	-0.3858011261	 0.1989154887	 2.9362152054	 0.115525
H	 1.2725859782	-0.2868582779	 3.3017361536	 0.119823
H	 4.9308986091	-0.9966140351	 0.7818057774	 0.139807
H	 4.8703917853	-2.6434219143	 0.0955928646	 0.139365
H	 4.4174069962	-1.2143125128	-0.8864781072	 0.136803
