18
gdb 11968	2.89022	1.9358	1.74717	1.6694	67.37	-0.2496	0.0803	0.3299	873.1768	0.151351	-384.907018	-384.898721	-384.897777	-384.939408	30.955	
C	-0.2215721321	 1.5628539278	 0.0880064828	-0.427677
C	 0.011185864	 0.0596085355	 0.0545545778	 0.324448
C	-1.2178293674	-0.7226539159	-0.3867347087	-0.416015
O	 1.171244228	-0.2625952301	-0.7805915124	-0.331527
C	 1.8752851386	-0.9051449912	 0.3018460903	-0.154233
C	 0.7500622213	-0.5463933538	 1.2600836898	 0.334902
C	 0.7422951634	-0.2043471217	 2.6788755911	-0.262017
O	 0.1720648225	-1.4329904195	 2.1921659431	-0.260432
H	 0.6782298255	 2.0894957093	 0.4174839188	 0.117941
H	-0.4821306976	 1.9232019723	-0.9122894031	 0.127875
H	-1.0440680894	 1.8157990958	 0.7654734005	 0.116906
H	-1.5210931494	-0.4054845597	-1.389326491	 0.121952
H	-1.0098083745	-1.7950666081	-0.4087555565	 0.126811
H	-2.0522860675	-0.5514546941	 0.3003096353	 0.12135
H	 2.0042805904	-1.9833689851	 0.1428871977	 0.113509
H	 2.8530898498	-0.4467022317	 0.4936666948	 0.106824
H	 1.6517200536	-0.3149647022	 3.2682216595	 0.119439
H	 0.0258434907	 0.5207983024	 3.0622389202	 0.119944
