21
gdb 40235	2.74958	1.57024	1.20074	1.2901	82.15	-0.2341	0.0837	0.3177	1099.6676	0.184609	-387.066141	-387.058434	-387.05749	-387.098082	31.695	
C	 0.0108755375	 1.5326321506	 0.01348877	-0.317912
C	 1.301775185	 0.7475114754	-0.0064481109	-0.314752
C	-0.0289375041	 0.0259273798	 0.0143426622	 0.383433
C	-0.4176641188	-0.705209637	 1.2919073529	-0.299142
C	-0.159781704	-2.202020749	 1.1247894317	-0.068414
O	-0.9910303203	-2.7472291929	 0.10740218	-0.263188
C	-0.8522194016	-2.1444443107	-1.1491886833	 0.097437
C	-1.86862227	-1.0997373095	-1.5315211214	-0.326171
C	-0.4341151529	-0.6965400545	-1.2426364462	-0.116667
H	-0.2578104207	 2.05104927	 0.9286412545	 0.107525
H	-0.2858053363	 2.0499523973	-0.892991668	 0.110778
H	 1.8781474277	 0.7384072754	-0.9259611754	 0.109534
H	 1.9079767197	 0.7342230803	 0.8935933914	 0.108
H	 0.1506620233	-0.312077942	 2.1421873853	 0.09382
H	-1.4815724165	-0.5611123213	 1.5196321593	 0.104466
H	 0.9033135455	-2.3795476758	 0.8966667273	 0.089159
H	-0.4105668031	-2.7549804829	 2.0343580602	 0.104085
H	-0.501803483	-2.8397266736	-1.9092199705	 0.088762
H	-2.216851362	-1.0509932592	-2.5576059386	 0.107224
H	-2.6227598336	-0.8799177288	-0.7838655093	 0.118509
H	 0.1550712183	-0.4342766814	-2.1170782811	 0.083513
