18
gdb 18875	3.08408	2.42668	2.05242	1.7347	69.31	-0.2494	0.0677	0.3171	762.2454	0.156748	-347.78611	-347.779664	-347.77872	-347.816275	26.6	
O	 0.242419844	 1.3766889002	 0.2218454163	-0.442242
C	 0.0122025844	 0.0045846235	-0.0098949484	 0.159373
C	-1.3974681422	-0.5701234765	-0.004354046	-0.128741
C	-2.0878390318	-0.4092398382	-1.3525655004	-0.030737
C	-1.6331911186	 0.6794472192	-2.3244856098	-0.252438
C	-0.1196323508	 0.3897456621	-2.5402960373	-0.213035
C	 0.2375507203	-0.6153860142	-1.4364577609	-0.091721
C	-1.0371763825	-1.4651805274	-1.1915072198	-0.078671
H	-0.4415438338	 1.8778890491	-0.2316932937	 0.282564
H	 0.634047784	-0.5216638168	 0.7197539909	 0.088452
H	-1.9722288568	-0.8209722439	 0.8806414412	 0.080596
H	-3.1295735704	-0.7121217172	-1.3554904334	 0.083505
H	-2.192164829	 0.6106766617	-3.2631794549	 0.101739
H	-1.8171982188	 1.689062331	-1.9358680096	 0.087807
H	 0.0510462865	-0.0532166336	-3.5267349554	 0.09812
H	 0.4966322395	 1.2912071663	-2.4727665641	 0.104172
H	 1.188881631	-1.1269996788	-1.5819190657	 0.064789
H	-1.1667728351	-2.5314182165	-1.3130280789	 0.086468
