14
gdb 43509	2.50422	1.47085	1.04363	1.351	69.88	-0.2632	-0.0512	0.212	1108.0502	0.099063	-436.677983	-436.669825	-436.668881	-436.711791	29.656	
N	 0.0368487718	 1.1445614917	 0.4351576166	-0.52343
C	 0.0063543186	-0.036067594	 0.0019837414	 0.412896
C	-1.2199431923	-0.9067336549	-0.0982859275	-0.42875
C	-0.7475002203	-2.144072237	-0.8359496125	 0.383901
O	-1.3960594348	-3.0274417755	-1.3145795938	-0.281731
C	 0.8050734458	-2.0493601589	-0.8844067424	-0.179301
O	 1.1111808497	-0.7098393295	-0.4699758434	-0.233046
C	 1.4265522933	-3.0378725068	-0.0168714486	 0.341677
C	 1.9130440267	-3.8601904856	 0.7106579014	-0.445907
H	 0.9861669775	 1.5203050307	 0.3981188868	 0.231173
H	-1.5820823927	-1.1898778746	 0.8965189	 0.180724
H	-2.0443077626	-0.4098473481	-0.6133688311	 0.175961
H	 1.1397770989	-2.1766442403	-1.92024548	 0.14995
H	 2.3519309605	-4.5883536372	 1.3480096631	 0.215883
