20
gdb 71063	2.34413	1.79962	1.5821	0.7779	86.3	-0.2034	-0.04	0.1634	1002.4179	0.169754	-365.902078	-365.893681	-365.892736	-365.934305	33.155	
C	-0.2113673156	 1.400070069	-0.0913672371	-0.470295
C	-0.0190093757	-0.0903970562	-0.0838228183	 0.266821
C	 0.7767010794	-0.8596210653	-1.2281018984	-0.316585
C	 0.1111518304	-2.0840915741	-0.5913835538	-0.013477
C	 0.827384725	-2.6741076625	 0.3852141522	-0.115062
C	 0.446795624	-1.9938957971	 1.6953727206	-0.189152
N	-0.3156859828	-0.7896819302	 1.2583593538	-0.199149
C	-0.9967738285	-1.1974921679	 0.0406939478	 0.267039
C	-2.4823909096	-1.2927589759	-0.1187970988	-0.519627
H	 0.7059181936	 1.9156734301	 0.2146553016	 0.123353
H	-0.4697848263	 1.749376881	-1.0974733241	 0.116025
H	-1.0069055046	 1.6914130268	 0.5980217005	 0.134955
H	 0.3821300537	-0.5105962143	-2.1903459565	 0.105818
H	 1.8701212002	-0.8425670043	-1.2433871041	 0.101848
H	 1.838969698	-3.0407879675	 0.2327306212	 0.099205
H	-0.1898791865	-2.5419810448	 2.4028892402	 0.115188
H	 1.3668229906	-1.7233252549	 2.2276703216	 0.115287
H	-2.9737565977	-0.4360770875	 0.3510113378	 0.129595
H	-2.7630407528	-1.3184488585	-1.1771532108	 0.122282
H	-2.8714057648	-2.2043619359	 0.3487178445	 0.125931
