13
gdb 9865	5.95149	0.93683	0.8599	4.8184	73.67	-0.2839	-0.055	0.2289	1267.881	0.093895	-361.427874	-361.419953	-361.419009	-361.460574	27.763	
C	-0.0285348764	 1.5121553621	 0.0217515802	-0.470603
C	-0.0168516841	-0.0000580035	-0.0561353853	 0.175077
C	 0.7646872494	-0.7058506233	-1.0977696315	-0.202881
O	 1.2378359269	-0.6365733248	 0.2416184162	-0.241972
C	-1.1725901934	-0.6671121434	 0.4941819896	 0.096467
C	-2.1547464156	-1.1916809226	 0.9639856858	 0.078643
C	-3.2619909329	-1.7937568875	 1.4878774252	 0.200417
N	-4.2064441179	-2.3045577351	 1.9314702058	-0.331031
H	 0.8891953189	 1.909544994	-0.4175058084	 0.140021
H	-0.8892201386	 1.9194330134	-0.5165344605	 0.142528
H	-0.0886674369	 1.8393776557	 1.0633558779	 0.148887
H	 0.447296747	-1.6901639987	-1.4353917526	 0.134897
H	 1.3105792634	-0.1061503162	-1.8248268323	 0.129551
