18
gdb 49246	2.95216	1.48119	1.08795	2.949	79.6	-0.2225	-0.06	0.1625	1107.3204	0.149026	-401.945385	-401.937744	-401.9368	-401.977889	28.934	
O	-0.0224620414	 0.1293213996	 0.4473695504	-0.269335
C	 0.070239116	 1.3329901359	 0.3410103244	 0.06748
C	 1.3217107584	 2.0328673732	 0.0457021283	 0.233926
C	 1.4536872618	 3.3596181028	-0.1000932012	-0.165663
C	 2.8772213659	 3.7279337763	-0.4451053247	-0.224726
N	 3.6263020904	 2.4695964667	-0.3278674104	-0.097491
C	 4.1721728297	 2.1636429036	 1.0255653374	-0.167461
C	 3.4139924238	 0.8139912049	 1.0431898099	-0.239465
C	 2.644766949	 1.343046087	-0.1930279016	-0.082825
H	-0.8174551496	 1.992369211	 0.4673662155	 0.069913
H	 0.6473852535	 4.0815617436	-0.0175894131	 0.114506
H	 2.9341719075	 4.1449452858	-1.4624059857	 0.12072
H	 3.2927833849	 4.4928197809	 0.2246927226	 0.117008
H	 5.2651548528	 2.1213863682	 1.0585026842	 0.106518
H	 3.8274078633	 2.8618701277	 1.8010911884	 0.092373
H	 4.0431098443	-0.047046754	 0.8126093153	 0.115253
H	 2.8163682157	 0.5931690299	 1.9277150581	 0.116079
H	 2.591363564	 0.6618704465	-1.0497847778	 0.09319
