14
gdb 48062	1.99889	1.80403	1.09746	0.5863	70.12	-0.2587	-0.1044	0.1543	1073.311	0.09768	-436.6303	-436.621463	-436.620519	-436.664483	31.224	
O	 0.6208184082	 1.3465086576	 1.9849244792	-0.207185
C	 0.7819770217	 1.0198227395	 0.8419583983	 0.080116
C	 1.2856329875	 1.9603496939	-0.2601382649	 0.241949
O	 1.7974037116	 1.4509093434	-1.23427545	-0.301373
C	 1.2211732952	 3.4527388423	-0.0855317362	 0.038313
C	 2.5850213941	 4.117064426	-0.145123914	-0.239594
N	 1.6732754185	 4.2303644127	-1.2626852026	-0.328117
C	 0.15997257	 4.020760745	 0.6990360076	 0.250611
C	-0.7339985827	 4.5117449678	 1.332913954	-0.39315
H	 0.6642613818	-0.0207070024	 0.474059485	 0.116305
H	 2.7194098391	 5.0153516602	 0.4490651398	 0.148618
H	 3.4487551449	 3.4619944244	-0.2247801348	 0.136779
H	 1.9321383625	 3.5500022023	-1.9794047675	 0.256049
H	-1.5212408424	 4.9381632074	 1.9042148561	 0.200678
