22
gdb 63799	2.89514	1.62858	1.456	1.4706	83.71	-0.2322	0.0811	0.3133	1028.1173	0.195759	-367.1846	-367.176697	-367.175753	-367.216202	32.931	
C	-0.1121835563	 1.57430065	-0.0045665007	-0.448114
C	-0.0027184926	 0.0452095492	 0.0082978919	 0.316991
C	-1.4112869412	-0.5723832067	-0.0439885504	-0.433826
C	 0.8770220959	-0.5118781419	-1.1540137359	-0.204508
N	 1.5938504596	-1.6978680812	-0.6322065249	-0.096935
C	 2.5621012881	-1.4435651172	 0.4481272784	-0.041132
C	 2.2849606517	-0.1310264072	 1.1899853952	-0.273597
C	 0.7690450613	-0.5238830011	 1.2174075711	-0.064046
C	 1.1886147936	-1.9462740932	 0.7468648478	-0.068534
H	 0.8661693109	 2.0587259847	 0.0640556197	 0.113299
H	-0.5884826339	 1.9209335113	-0.9284128006	 0.113905
H	-0.7232432473	 1.9330798936	 0.8312164385	 0.110684
H	-1.952805563	-0.2351951514	-0.9346604781	 0.1108
H	-1.3691631973	-1.6657633279	-0.0758286136	 0.121252
H	-2.0003918275	-0.2833090989	 0.8336056879	 0.108173
H	 0.2692192172	-0.8215716595	-2.010239158	 0.101164
H	 1.5972598978	 0.2293783955	-1.5161243617	 0.097723
H	 3.5076135377	-1.9723625031	 0.397739335	 0.087967
H	 2.7195868716	-0.1543860063	 2.1926317809	 0.104412
H	 2.572157021	 0.8077392287	 0.706147505	 0.093412
H	 0.2609408704	-0.4110844936	 2.1759035033	 0.063577
H	 0.8204406524	-2.9163865437	 1.0580105993	 0.087334
