23
gdb 121087	3.59732	0.75352	0.65392	1.4265	89.72	-0.2265	0.0314	0.2578	1770.0212	0.205387	-388.309092	-388.29897	-388.298026	-388.344702	37.109	
C	-0.046688805	 1.556744589	 0.1752762255	-0.489903
C	 0.0374745809	 0.0683844014	 0.0509262419	 0.326974
C	 0.0248328891	-0.6545034255	-1.0712046494	-0.168085
C	 0.07840311	-2.1474619475	-0.8189227311	-0.018494
C	 1.0321893118	-2.9412798568	-1.7236750539	-0.17538
C	 0.5704125358	-3.0438700834	-3.171784039	-0.080335
O	 1.5145051866	-3.8399921494	-3.8743783174	-0.421329
C	 0.4739691855	-2.2082469846	 0.6820539136	-0.231038
C	 0.096896476	-0.8299530118	 1.270739562	-0.301187
H	 0.8238387022	 1.9601644543	 0.7085455717	 0.123168
H	-0.1025107337	 2.0435186947	-0.802369243	 0.120218
H	-0.9293682944	 1.8569636157	 0.7552114459	 0.122802
H	-0.0567636672	-0.2304887546	-2.0672947523	 0.079364
H	-0.9322412058	-2.5695136752	-0.9497280841	 0.069043
H	 2.0300138803	-2.4863645183	-1.7007671819	 0.101117
H	 1.1417237757	-3.9610387287	-1.333831595	 0.101398
H	-0.4352215841	-3.4955497259	-3.2075501648	 0.081714
H	 0.4907481698	-2.0405701895	-3.6197854279	 0.084974
H	 1.2384382165	-3.8913336532	-4.7939517477	 0.283654
H	 0.0054325968	-3.0449444654	 1.2073224458	 0.093186
H	 1.5585662195	-2.3489006262	 0.7534817617	 0.101373
H	 0.8150071478	-0.4781817045	 2.0215698356	 0.09674
H	-0.8815177442	-0.8509734144	 1.7735217541	 0.100027
