17
gdb 68527	2.96023	1.61398	1.37101	2.2742	71.95	-0.2296	-0.0226	0.207	964.7503	0.136823	-421.849689	-421.842452	-421.841508	-421.880951	29.645	
O	-0.0693091192	 1.3906351293	-0.0170827247	-0.499289
C	 0.0188431247	-0.0088148955	-0.02181132	 0.384397
C	-1.3599608909	-0.7044532041	-0.0133883902	-0.253734
C	-0.7696086615	-2.1305770994	-0.1297618335	-0.170955
C	 0.189805968	-1.9345859828	-1.3023355621	-0.088288
C	 0.6528501793	-0.6832464865	-1.2435443136	-0.143186
C	 0.1775878529	-2.1295592838	 1.0989311488	 0.430975
O	 0.4624175631	-3.0594667923	 1.8015805987	-0.323763
C	 0.6780888587	-0.671531392	 1.2235583891	-0.389248
H	 0.815328895	 1.7542024168	 0.0927258931	 0.280238
H	-1.9172823732	-0.523647011	 0.9113726225	 0.106191
H	-1.9656389188	-0.4285622695	-0.8789084485	 0.115259
H	-1.439978395	-2.9861795694	-0.1712466392	 0.084828
H	 0.4990241613	-2.7295408204	-1.9681857048	 0.113894
H	 1.4121315928	-0.2223567197	-1.8636533355	 0.101596
H	 1.7694378718	-0.6201912942	 1.2430881553	 0.119737
H	 0.293638571	-0.2372208855	 2.1529971948	 0.131348
