19
gdb 37194	2.68636	2.01435	1.70867	1.7219	76.89	-0.2233	0.059	0.2823	895.9766	0.16077	-385.791082	-385.784316	-385.783372	-385.821651	28.858	
C	 0.0197344356	 1.4412070216	-0.0458780901	-0.296137
C	 1.3624931242	 0.7752046582	 0.0613211851	-0.125076
C	 0.0354481379	-0.0549141824	 0.0767984699	-0.132016
C	 0.4561481855	-0.6794845313	-1.2533006155	 0.41122
C	 0.080346945	-0.18924486	-2.6832779246	-0.30523
C	 1.4114705483	 0.6643896842	-2.6911355271	-0.305012
C	 1.7504370268	 0.1154880957	-1.2673595027	 0.190292
C	 2.4172969154	-1.2712449625	-1.1705296571	-0.14081
O	 1.1253382733	-1.9497970059	-1.1586365579	-0.337324
H	-0.2971455734	 1.9609038625	 0.8528614565	 0.118229
H	-0.3003289347	 1.9339764976	-0.960041896	 0.110127
H	 2.0376919661	 1.0086811344	 0.878227879	 0.083361
H	-0.4534781636	-0.5727583096	 0.893802846	 0.092534
H	 0.0479955368	-1.0000515338	-3.4132883973	 0.114728
H	-0.8422843316	 0.3911540643	-2.7585241138	 0.10618
H	 2.1313915467	 0.3996839237	-3.4699008407	 0.102086
H	 1.2495402515	 1.7438627716	-2.7299282524	 0.108846
H	 3.0204503417	-1.5655900868	-2.0387553943	 0.100577
H	 2.9882656887	-1.4692735213	-0.255425087	 0.103425
