17
gdb 31491	3.21918	1.14104	0.85237	3.2227	73.11	-0.1993	0.0086	0.2079	1322.6186	0.135319	-455.179833	-455.17022	-455.169275	-455.214974	33.519	
C	 0.0712668689	 1.4891394407	 0.331344218	-0.502126
C	-0.0093551886	 0.0309872921	 0.0775902378	 0.267878
C	-1.0124464466	-0.8641844507	-0.131820924	 0.176857
N	-2.3958179207	-0.6933617024	-0.1285076467	-0.601477
N	-0.4701818374	-2.1331121818	-0.3033209508	-0.374589
C	 0.8095151752	-1.9573622489	-0.1960478781	 0.363751
C	 1.8376356379	-3.0396718325	-0.2914501254	-0.142724
O	 1.2387335264	-4.2729381404	-0.6014329061	-0.421795
O	 1.1808569406	-0.69070152	 0.030244342	-0.215663
H	 0.6020981923	 1.7099360223	 1.26491681	 0.141711
H	 0.5854156589	 2.0274738898	-0.4745279848	 0.136108
H	-0.9368687411	 1.9028785685	 0.4221597742	 0.131415
H	-2.699667766	 0.1919336287	-0.5103406109	 0.246963
H	-2.857579746	-1.4580566566	-0.6029957113	 0.254496
H	 2.5766499842	-2.7752238151	-1.0624616948	 0.121637
H	 2.3883834946	-3.0967951024	 0.6619170049	 0.117726
H	 0.2828364373	-4.1328717612	-0.5586183142	 0.299834
