14
gdb 128447	4.75918	1.08918	0.8913	4.0609	65.4	-0.2726	-0.0345	0.2382	1230.1038	0.102448	-470.051926	-470.04398	-470.043036	-470.085525	27.337	
C	 0.114683389	 1.3410537683	 0.0538778546	-0.241269
O	 0.1294723819	-0.0885225922	-0.0312278645	-0.22369
C	 0.7886877485	-0.5838733195	-1.0920603587	 0.409032
O	 1.3381766083	 0.0833609025	-1.9295989849	-0.357404
C	 0.7545886641	-2.0712324125	-1.102618226	 0.217496
N	 0.1436885349	-2.7953157328	-0.1704521169	-0.244501
N	 0.3781069179	-4.0495596498	-0.5946003459	-0.169821
C	 1.1029595178	-4.0368439483	-1.7370288146	 0.02286
N	 1.3597788185	-2.7973705153	-2.0885150015	-0.277034
H	 1.1322765963	 1.7339051803	 0.1244576661	 0.142056
H	-0.3674411123	 1.7749381183	-0.8259593683	 0.142041
H	-0.4502950616	 1.5765021149	 0.9555363042	 0.134984
H	 0.0225080925	-4.8306204539	-0.0661414699	 0.289629
H	 1.4074365543	-4.9329163999	-2.2564460037	 0.155622
