18
gdb 60334	3.11547	0.82574	0.6734	3.1286	71.66	-0.2478	-0.0721	0.1757	1627.1241	0.145139	-476.260546	-476.250409	-476.249465	-476.296889	35.311	
C	 0.1462816719	 1.3534398651	 0.0359330748	-0.409517
C	-0.1320904221	-0.1450961182	 0.0876420503	 0.122428
O	 0.6055147342	-0.7921203246	 1.1255440508	-0.430978
C	-1.6269867186	-0.4515967398	 0.237979195	-0.161673
N	-1.838930667	-1.8788086629	 0.3441563953	-0.30853
C	-2.8294557299	-2.5397303538	-0.2868066283	 0.304166
O	-3.6973114994	-2.0551093941	-0.993983896	-0.366605
C	-2.7944063428	-4.0513360682	-0.0410614138	 0.102069
O	-1.9750963093	-4.5993094899	 0.6500040791	-0.245522
H	 1.220530332	 1.5348053859	-0.0503640049	 0.133731
H	-0.3551893283	 1.8187429918	-0.8183405278	 0.129701
H	-0.2150477284	 1.8500316937	 0.9452779192	 0.113061
H	 0.2250977594	-0.6196329815	-0.8335992332	 0.10426
H	 0.457626519	-0.3028454368	 1.9433621211	 0.28254
H	-2.014114376	 0.0631203366	 1.1314287467	 0.102482
H	-2.1999989696	-0.0905568395	-0.6202085646	 0.143984
H	-1.1730832962	-2.4215460929	 0.8783508696	 0.269616
H	-3.6089984689	-4.5860939409	-0.5687668431	 0.114789
