17
gdb 34453	3.65769	1.45901	1.23924	1.3789	78.43	-0.2232	0.0434	0.2666	1019.0425	0.136493	-384.624472	-384.617267	-384.616323	-384.655836	29.281	
C	 0.0929012614	-1.1337225038	-0.0010547288	-0.365872
C	 0.0160241934	 0.0676766581	-0.0107100558	 0.125667
C	-0.0720999338	 1.4931336409	-0.0072973383	 0.175686
C	-1.2283578496	 2.2088237849	 0.7131627216	-0.299811
C	-1.3702874573	 3.5632094695	-0.0327811464	-0.213039
C	-0.0361312764	 3.6934386094	-0.7543979326	 0.066575
O	 1.0288105156	 3.6442485928	 0.2618279014	-0.312864
C	 1.2500253672	 2.282137821	-0.0723015503	 0.068815
C	 0.3469662613	 2.2842211645	-1.2530981841	-0.191292
H	 0.1582804415	-2.1931706564	 0.0075732533	 0.18201
H	-2.139500702	 1.6090391922	 0.6587601509	 0.112995
H	-0.9904857271	 2.3579058245	 1.7695320438	 0.119563
H	-2.1867943442	 3.5347228389	-0.7635612553	 0.104413
H	-1.5465175754	 4.4035255363	 0.644064001	 0.112868
H	 0.0918766576	 4.5463226223	-1.4223052532	 0.087661
H	 2.2194848863	 1.8417897251	 0.1261810371	 0.116594
H	 0.4342413115	 1.8974602497	-2.2579819343	 0.11003
