16
gdb 87070	2.52746	1.34898	1.09545	4.0505	69.83	-0.2717	0.0239	0.2957	1132.4059	0.122806	-437.850343	-437.841647	-437.840703	-437.884108	31.573	
O	 0.0026348669	 1.3714110398	 0.1624356149	-0.400035
C	-0.0231239461	-0.0085055259	 0.0667478535	 0.08482
C	-0.3704167188	-0.7430804067	 1.3106038388	-0.336986
C	-1.3707345863	-0.7501158781	 0.149864726	 0.096337
C	-2.5450887913	 0.0703433785	 0.2731167384	 0.242238
N	-3.4975759332	 0.7220548327	 0.351343396	-0.355007
C	-1.5224351037	-2.0150839768	-0.6469456241	 0.028134
C	-2.8158271242	-2.6563822459	-0.9110679654	-0.197384
O	-2.1368879715	-1.9061148819	-1.9257493435	-0.231271
H	-0.3325563837	 1.7480116394	-0.6594906281	 0.304697
H	 0.7032625653	-0.4563712513	-0.6114868425	 0.110413
H	 0.1287868973	-1.6798528367	 1.5313505952	 0.133929
H	-0.6328721033	-0.1387759021	 2.1701169721	 0.157052
H	-0.6302438945	-2.6435476356	-0.6261599284	 0.096817
H	-2.8568863466	-3.7321033719	-1.0735228071	 0.122981
H	-3.7262067963	-2.1987266775	-0.5302016558	 0.143266
