20
gdb 13935	3.19137	1.85049	1.48264	1.6463	74.4	-0.2361	0.0774	0.3135	947.7923	0.177119	-348.983979	-348.975975	-348.975031	-349.016823	30.352	
C	-0.3619777222	 1.4225405518	 0.2590706476	-0.410766
C	 0.008782395	-0.038465025	 0.0529617409	-0.10129
C	 1.1718575742	-0.336464753	-0.9166080559	-0.088926
O	 1.9296530186	-0.988856281	 0.1203389262	-0.31749
C	 0.9089992042	-0.7500602515	 1.1035449779	 0.463616
C	 1.3071589161	-0.0771027656	 2.4385817452	-0.286958
C	 0.3407238497	-1.0483835856	 3.1697919179	-0.214083
C	 0.3627488847	-1.9529512267	 1.9070510512	-0.286115
H	 0.5232647894	 2.0364519559	 0.4556019647	 0.122781
H	-0.8524482355	 1.8245924067	-0.6341985269	 0.116983
H	-1.0528130683	 1.5487533572	 1.0997275749	 0.118648
H	-0.8879629904	-0.6243434389	-0.1705075532	 0.076483
H	 0.9498576453	-1.0118671105	-1.7517598272	 0.098004
H	 1.6897279765	 0.550472189	-1.3056702087	 0.094588
H	 2.3545861438	-0.3031873268	 2.6588566024	 0.11249
H	 1.1487441592	 0.9983855654	 2.5482383352	 0.094804
H	 0.6872922898	-1.4881531882	 4.1067284855	 0.101022
H	-0.6422949638	-0.6010095904	 3.3399581521	 0.101823
H	-0.5741449723	-2.4058931612	 1.5700650828	 0.092013
H	 1.1285538559	-2.7310266916	 1.9768653275	 0.112373
