25
gdb 93855	1.84526	1.69556	1.273	0.1843	91.47	-0.2592	0.078	0.3373	1201.174	0.229929	-352.366851	-352.357423	-352.356479	-352.401189	37.455	
C	 0.4816355075	 1.6622052106	-0.0528706033	-0.392261
C	 0.0710431062	 0.1886328096	 0.0897416508	-0.058745
C	 0.5776709799	-0.6743791762	-1.0843872332	-0.21921
C	 2.0356311576	-0.9854215097	-0.7078581439	-0.216017
C	 2.032447595	-1.1755690324	 0.833385265	-0.041001
C	 3.3069036521	-0.6394976485	 1.4927144523	-0.399922
C	 0.7097948379	-0.5120313674	 1.2990918277	 0.397629
C	 0.5086326944	 0.0188550601	 2.6948278763	-0.332956
C	-0.1833155442	-1.2511917065	 2.2692877512	-0.318432
H	 1.5656217051	 1.7764522505	-0.1538340972	 0.115325
H	 0.016539508	 2.1091858546	-0.9383379105	 0.107239
H	 0.1717734285	 2.2471896101	 0.8184626012	 0.111266
H	-1.0219101656	 0.1486008768	 0.1617790747	 0.058961
H	-0.0028192859	-1.6033379486	-1.132721763	 0.093636
H	 0.4815256669	-0.1772661476	-2.0548726027	 0.086624
H	 2.4341191131	-1.8591530825	-1.23168911	 0.091236
H	 2.6806050497	-0.1399372187	-0.9748679775	 0.095633
H	 1.9706544331	-2.2488191628	 1.0512656038	 0.068204
H	 3.3993473042	 0.4432092358	 1.3537212722	 0.114688
H	 3.3296066337	-0.8400542104	 2.5688214592	 0.109343
H	 4.1937600993	-1.1106559195	 1.0543353276	 0.108423
H	 1.3246438187	-0.056150827	 3.4056898362	 0.107553
H	-0.0958044865	 0.9120241939	 2.8201564619	 0.105829
H	-1.2568925592	-1.2228591732	 2.1097066155	 0.103916
H	 0.1796557106	-2.1883627013	 2.6810914458	 0.103038
