16
gdb 67884	2.88678	2.11713	1.42039	0.9287	67.5	-0.2401	0.0018	0.2419	890.5281	0.125336	-437.830766	-437.824134	-437.82319	-437.861407	27.069	
C	 0.0014696713	 1.5269564391	-0.0785073888	-0.473056
C	 0.0038938307	 0.0160994888	-0.029074157	 0.346469
N	 0.339950382	-0.562728887	-1.3239277241	-0.335334
C	 0.3634542155	-1.8269758314	-1.3667588174	 0.118314
O	 0.1069583885	-2.6573808019	-0.3288098609	-0.23094
C	-0.2033309725	-1.9534189376	 0.8601499414	 0.102372
C	 0.622039149	-0.6922990699	 1.2261373623	-0.03337
O	-0.5215689672	-0.2573021972	 2.0415535848	-0.301232
C	-1.1265689296	-0.7097030963	 0.7800977411	-0.033372
H	 0.9863349657	 1.8914974226	-0.3861385746	 0.124638
H	-0.7222787363	 1.8744896706	-0.8220757335	 0.124639
H	-0.251526678	 1.945429703	 0.8967821361	 0.134405
H	 0.599792503	-2.3797407159	-2.2716775137	 0.136985
H	-0.399282236	-2.6674894795	 1.6562025557	 0.115534
H	 1.6223802403	-0.6117324741	 1.6494145513	 0.101974
H	-2.2087452063	-0.6498643033	 0.6721600271	 0.101974
