16
gdb 98039	5.65878	0.58221	0.53138	4.0345	83.44	-0.2538	-0.0187	0.235	2006.2953	0.121241	-400.710578	-400.700084	-400.69914	-400.749977	35.064	
C	-0.079311346	 1.4545940493	-0.0812053158	-0.339194
N	-0.0179684879	 0.0161295956	 0.0811622325	-0.310587
C	 0.7417419012	-0.581640616	 1.0461897973	 0.261902
O	 1.4284867594	 0.0247949419	 1.8488586834	-0.355791
C	 0.655123471	-2.0362743348	 1.0286749578	-0.03184
C	 0.6172817625	-3.2396828179	 1.0555247358	 0.166541
C	 0.5689105614	-4.701828032	 1.0852255681	-0.506181
C	 1.3975330888	-5.2973506191	 2.1340323359	 0.317952
C	 2.0731114689	-5.7979981615	 2.990044704	-0.429686
H	 0.5651734046	 1.895608867	 0.6797501857	 0.174989
H	 0.2765518938	 1.7589825659	-1.0718287317	 0.128479
H	-1.1006293066	 1.8274399238	 0.0548939902	 0.128479
H	-0.5500984785	-0.5776738044	-0.5332507784	 0.252581
H	-0.4736986703	-5.0247536072	 1.2132717131	 0.168116
H	 0.8795230522	-5.092017805	 0.1059491353	 0.168115
H	 2.6739555155	-6.2318126356	 3.7506677768	 0.206127
