20
gdb 61617	3.33948	0.81942	0.71651	3.7061	80.08	-0.278	0.0144	0.2923	1595.1396	0.169444	-403.145525	-403.135465	-403.134521	-403.181449	36.214	
C	 0.013194431	 1.5366574261	-0.1997565312	-0.405743
C	 0.0345863166	 0.033435994	-0.0213892819	-0.017162
C	 1.3270586454	-0.7430763114	-0.0666061242	-0.278464
C	 0.5580599229	-0.6440367992	 1.2287626728	 0.01311
C	 1.0965098951	 0.1285104732	 2.4132448915	-0.235851
C	 1.9758607777	-0.7498325365	 3.3278386966	-0.021155
O	 3.0991689708	-1.3112979642	 2.6783806373	-0.400082
C	 2.3866634777	 0.0143046898	 4.5269842501	 0.255599
N	 2.7246659936	 0.6366918306	 5.4402136794	-0.316907
H	 0.9107569313	 2.0128536715	 0.2054012018	 0.114606
H	-0.0379491563	 1.7958251679	-1.2627730816	 0.121803
H	-0.8546623479	 1.9885345363	 0.2935495139	 0.119982
H	-0.821456542	-0.4659240679	-0.4683314221	 0.087672
H	 1.3616893558	-1.6958048886	-0.5828468006	 0.115214
H	 2.2457421899	-0.1688757682	-0.1438299215	 0.09978
H	 0.0179387843	-1.5428726677	 1.5193836661	 0.084919
H	 1.6896021616	 0.9913809966	 2.0892290312	 0.106714
H	 0.2760624679	 0.5296596236	 3.0216918899	 0.122861
H	 1.3871777303	-1.6092923047	 3.6691874332	 0.139671
H	 3.6589125944	-0.5914041313	 2.3653870795	 0.293435
