16
gdb 57122	3.19368	0.7914	0.66759	3.5707	84.6	-0.265	-0.0525	0.2124	1612.1901	0.121138	-400.761984	-400.751942	-400.750998	-400.79841	34.228	
C	 0.6882660182	 1.9702163271	-0.0729530743	-0.385288
C	 0.3893865119	 0.4678397925	 0.0734230804	-0.282747
C	 0.8263122796	-0.2959092818	-1.0833989068	 0.148644
C	 1.2092516734	-0.9161090558	-2.0483005377	-0.022421
C	 1.6378444162	-1.6198793445	-3.1364215232	 0.209646
N	 2.0021026548	-2.2216542779	-4.0611971539	-0.334202
C	 0.969121969	-0.1082337266	 1.403836275	 0.391617
C	 0.9001726672	-1.6069339026	 1.589994257	-0.481211
O	 1.4109050847	 0.6394588436	 2.2371214817	-0.273797
H	 1.7624440835	 2.1395323888	-0.172130624	 0.144894
H	 0.1850787455	 2.3737408681	-0.9540360168	 0.13078
H	 0.3434703208	 2.4972002788	 0.8177572994	 0.145908
H	-0.700080101	 0.3269089387	 0.1646174119	 0.145596
H	 1.6136481588	-2.0944940806	 0.9172718781	 0.166173
H	 1.1444841248	-1.8581761856	 2.6223280054	 0.152293
H	-0.0917396172	-1.9909594823	 1.3300484878	 0.144117
