16
gdb 107907	3.55352	1.24185	1.16071	4.1527	68.72	-0.2323	-0.0001	0.2321	1079.4824	0.124349	-437.817604	-437.80996	-437.809016	-437.850088	29.202	
O	-0.0148367739	 1.3373656075	-0.302092791	-0.409105
C	-0.0730048202	 0.0113516192	 0.186957396	-0.181987
C	-1.4534874298	-0.558273483	 0.0844760729	 0.334368
N	-2.5684307627	-0.0102013056	 0.910213914	-0.374602
C	-3.3410290462	-1.2251519209	 0.4594219775	-0.188439
C	-2.0065891608	-1.937291502	-0.0113974273	-0.178637
C	-2.0762107772	-0.9784395259	-1.2486503648	-0.244876
C	-3.5546382784	-0.9058266489	-1.0387293419	 0.50498
O	-4.5127262674	-0.8611817829	-1.7536428849	-0.336874
H	-0.7663321464	 1.8127909028	 0.0710175618	 0.298
H	 0.6264482476	-0.5830930146	-0.4103312373	 0.120159
H	 0.2619629752	-0.046853629	 1.2367688337	 0.09306
H	-2.304100482	-0.1729993215	 1.8838558302	 0.219371
H	-4.1306665732	-1.6108521932	 1.097570546	 0.101047
H	-1.6223769985	-2.9474435879	 0.0181314258	 0.122347
H	-1.5002709061	-1.0246588441	-2.1624223506	 0.121188
