17
gdb 83981	2.49835	1.73652	1.35877	1.993	66.94	-0.2382	-0.0439	0.1943	977.1399	0.136534	-458.961211	-458.953354	-458.95241	-458.993917	29.512	
O	 0.4894768978	 1.0103597764	 0.763011361	-0.432614
C	 0.0874821514	-0.186644354	 0.1594179794	 0.043509
C	-1.4320526974	-0.5719901864	 0.1130729945	-0.106318
C	-2.4412084468	 0.5889071064	 0.1016177624	-0.239294
C	-2.6277768113	 0.9245379771	-1.3968066274	-0.097244
O	-2.3350630854	-0.2786177845	-2.1159410455	-0.242934
C	-1.3172260423	-0.9317869708	-1.412328488	 0.002
C	 0.0499939934	-0.1806234616	-1.3724339902	 0.307061
O	 0.6448128976	 0.5085995454	-2.1530933232	-0.301809
H	 0.883816299	 1.5537576182	 0.0676648637	 0.298648
H	 0.6668029541	-1.0349446279	 0.552207261	 0.102172
H	-1.707422182	-1.3757616689	 0.7936089516	 0.086971
H	-3.3859382849	 0.2591911527	 0.539695884	 0.113769
H	-2.0779966567	 1.4465033336	 0.6722883324	 0.127954
H	-3.6462014032	 1.2204528487	-1.6563683631	 0.116049
H	-1.9432117316	 1.7245053727	-1.7103603333	 0.113014
H	-1.2813801515	-1.9830128872	-1.703521659	 0.109065
