19
gdb 90449	2.9072	1.34579	1.14835	0.8809	77.68	-0.2393	0.0056	0.2449	1122.1164	0.159914	-423.001267	-422.993145	-422.992201	-423.033788	32.217	
O	-0.0571233063	 1.4132242533	-0.115147592	-0.421296
C	 0.017746006	 0.0167594388	-0.0465189684	 0.064436
C	 0.3761527995	-0.7155440886	 1.3106515738	-0.299345
C	-0.6746786539	-1.8145683702	 0.9495680135	-0.060848
C	-1.9103404732	-2.1930860992	 1.8177074071	 0.094136
O	-2.0299319074	-1.4216716374	 3.0008205392	-0.423242
C	-3.0994102857	-1.9144352012	 0.8379389806	-0.270458
C	-2.571580545	-0.7771984708	-0.0356707786	-0.279179
C	-1.2403931104	-0.8224587363	-0.0327639072	 0.250551
H	-0.74846844	 1.6978685525	 0.4928279234	 0.274706
H	 0.7189136706	-0.2860099198	-0.8313246676	 0.106089
H	 1.4150707815	-1.0231024773	 1.4455764304	 0.106576
H	 0.0565168124	-0.124916061	 2.1736091091	 0.102108
H	-0.2107156077	-2.699974558	 0.5025771627	 0.078398
H	-1.8837853321	-3.2315748688	 2.1582539037	 0.084453
H	-2.2197110293	-0.5142516864	 2.7361501715	 0.274849
H	-3.3430705308	-2.8078858607	 0.246948082	 0.111788
H	-4.002385041	-1.6517769044	 1.3999553337	 0.1072
H	-3.2060213171	-0.0376470041	-0.5101813667	 0.099079
