16
gdb 123809	5.38483	0.95908	0.85478	3.7538	70.56	-0.2331	-0.0087	0.2244	1310.5682	0.124431	-437.842802	-437.835219	-437.834275	-437.875863	28.262	
C	-0.353357769	 1.0442409936	-0.2349988348	-0.287591
C	 1.075699075	 1.111025995	 0.2683061112	-0.290371
C	 0.4356759657	-0.2114800125	 0.0193911927	 0.121644
O	 0.1425795886	-0.9747159294	 1.1628052674	-0.267549
C	-0.8875321621	-1.839661863	 1.0270449537	 0.213843
C	-1.759722626	-2.0682507104	 0.0056571566	-0.046701
O	-2.6135696598	-3.0533983231	 0.3585516473	-0.168752
N	-2.3105296544	-3.4883073021	 1.6371546306	-0.123863
C	-1.2888543673	-2.7684579894	 2.0276064465	-0.056997
H	-1.1375474536	 1.2818827031	 0.4744143622	 0.134158
H	-0.5636264611	 1.3249978794	-1.2610965933	 0.121372
H	 1.8584512213	 1.4379297375	-0.4061534276	 0.123708
H	 1.2203258454	 1.3892099924	 1.3057543312	 0.134865
H	 0.758907404	-0.8147286904	-0.8270166929	 0.104824
H	-1.8978299857	-1.6395502628	-0.9716781774	 0.148645
H	-0.8584049309	-2.9214508177	 3.0063479967	 0.138766
