21
gdb 111873	2.72759	1.28452	1.18075	0.8039	78.48	-0.225	0.0757	0.3006	1188.9645	0.183244	-424.198655	-424.189872	-424.188928	-424.232999	32.872	
C	-0.1669039839	 1.662695144	 0.0620032129	-0.376426
C	-0.0481268612	 0.175800431	 0.4165368208	-0.189885
C	-1.3529457256	-0.568144633	 0.2275122827	-0.080305
C	-1.7513685548	-1.1453136041	-1.1185042855	 0.031137
O	-0.8204400874	-1.0965699408	-2.1625704563	-0.250586
C	-0.3140642764	-2.3982117141	-2.4363334333	-0.097016
C	 0.4753027123	-2.9023380888	-1.2398103319	-0.061457
O	-0.2680135663	-2.8624579524	-0.0224026346	-0.267895
C	-1.4202514961	-2.0689976181	 0.0246942341	 0.052549
H	 0.7794328784	 2.1860325642	 0.2318179705	 0.108184
H	-0.4398903234	 1.7886418546	-0.9903551235	 0.127785
H	-0.9341272656	 2.1570429451	 0.6684532462	 0.109329
H	 0.7312885341	-0.2793376338	-0.1991251222	 0.106476
H	 0.2763102299	 0.0633386853	 1.45834588	 0.098561
H	-2.1853823652	-0.1606745629	 0.7984772647	 0.081108
H	-2.7835743298	-1.0556181376	-1.4558020986	 0.086609
H	-1.1381919424	-3.0841422101	-2.6828029502	 0.099318
H	 0.3403691357	-2.3123160288	-3.3082678309	 0.113318
H	 0.7858447194	-3.942450989	-1.3947411847	 0.105446
H	 1.3819412797	-2.2905632684	-1.1279447375	 0.105494
H	-2.2314156613	-2.6073511822	 0.5071284672	 0.098256
