19
gdb 108284	2.88384	1.27944	1.03688	3.9425	75.47	-0.2337	-0.0345	0.1991	1201.3574	0.15789	-423.007993	-422.999318	-422.998373	-423.041645	32.354	
C	-0.0344847236	 1.6494643061	 0.1576570188	-0.382328
C	 0.0430700803	 0.1174983793	 0.132259173	-0.297193
C	-1.3091488288	-0.5383778747	-0.0542819084	 0.31467
C	-2.323998852	-0.5317725604	 1.1064123168	-0.118969
O	-2.593390714	-1.9465276781	 0.9516891631	-0.287176
C	-1.5647036186	-2.0884583573	-0.0536501086	-0.076317
C	-2.1965174692	-1.9553107385	-1.4572008262	 0.425632
O	-2.6327470496	-2.7314250674	-2.2534869395	-0.289641
C	-2.0041603868	-0.4223459456	-1.4476354819	-0.427387
H	 0.956766762	 2.0905967473	 0.2961493717	 0.121092
H	-0.4475505151	 2.0417650991	-0.7775933704	 0.123298
H	-0.6719264828	 2.0023958156	 0.9757736601	 0.121633
H	 0.7144369809	-0.2027780848	-0.675174057	 0.101755
H	 0.4924361731	-0.2437052791	 1.0659445293	 0.105005
H	-1.8842211441	-0.3237955533	 2.0908909692	 0.103911
H	-3.225194528	 0.0791638718	 0.9784674446	 0.107661
H	-0.8450756804	-2.8821684972	 0.1665698753	 0.088816
H	-2.9161973876	 0.1781275472	-1.5076357334	 0.131469
H	-1.3289466455	-0.1054736399	-2.2503489764	 0.13407
