16
gdb 25833	3.75996	1.23259	0.93365	0.8141	79.4	-0.2518	-0.0647	0.1871	1199.6282	0.125974	-400.831617	-400.82393	-400.822986	-400.864221	28.596	
C	 0.0116201169	 1.5118494597	 0.008138703	-0.496194
C	 0.033842061	-0.0051458042	 0.0025281326	 0.326229
O	 1.0824007363	-0.6169570173	-0.0084236218	-0.303345
C	-1.2708987978	-0.7432376563	 0.0105924595	 0.127272
C	-2.5178089188	-0.1095083817	 0.0225639752	-0.059545
N	-3.6860236835	-0.7549237053	 0.0297292389	-0.270066
C	-3.6436901185	-2.0897460424	 0.0250784647	 0.014039
C	-2.4599039197	-2.8277478365	 0.0132983564	-0.121219
C	-1.2560593364	-2.142117953	 0.0059255692	-0.12883
H	 1.0383137546	 1.8778876927	 0.0014534338	 0.14487
H	-0.5205294119	 1.8978751957	-0.8678717138	 0.145513
H	-0.5069155087	 1.8916173326	 0.8949729226	 0.145486
H	-2.5841392856	 0.9754289935	 0.0265964138	 0.109979
H	-4.6058215634	-2.5968959647	 0.0310949793	 0.117732
H	-2.4909085368	-3.9115651095	 0.0100601244	 0.110603
H	-0.2991478676	-2.6516215735	-0.0033780278	 0.137477
