21
gdb 62082	3.45381	0.66372	0.62382	3.5091	80.72	-0.2452	-0.0227	0.2225	1832.9372	0.178249	-424.262902	-424.251778	-424.250834	-424.301056	37.911	
C	-0.0830159581	 1.5330780402	 0.059958208	-0.398519
C	 0.0107546516	-0.0070253995	 0.0395682807	-0.084321
C	 0.6551279053	-0.5551786206	-1.2451948436	-0.188812
C	-0.1299668769	-0.2358424756	-2.5287409374	-0.293135
C	 0.5581370923	-0.8038654284	-3.7495839517	 0.162244
O	 0.0487700756	-1.5467882963	-4.5480273873	-0.23787
C	 0.8238873171	-0.444253225	 1.2652490176	 0.387441
C	 0.0432159541	-0.7170567817	 2.5374687063	-0.48196
O	 2.0278410287	-0.5517345578	 1.2169297588	-0.308153
H	 0.9094001558	 1.9766677401	-0.0688935058	 0.136423
H	-0.7338708821	 1.9015348902	-0.7372546145	 0.126661
H	-0.4934321311	 1.896248566	 1.0073878785	 0.121984
H	-1.0049065468	-0.4121383713	 0.1394824732	 0.080399
H	 1.6765654582	-0.1662367385	-1.3158294406	 0.12602
H	 0.7536959214	-1.6430836169	-1.1503315426	 0.11319
H	-1.1508666713	-0.6289108485	-2.4923952588	 0.118301
H	-0.1878870943	 0.8522506378	-2.6702998406	 0.12055
H	 1.6193928919	-0.4792113901	-3.8658884761	 0.073344
H	-0.536096351	-1.6402405933	 2.412704473	 0.145577
H	 0.725600577	-0.8333008167	 3.3802163466	 0.144137
H	-0.6778725674	 0.0812667757	 2.7416024663	 0.136502
