17
gdb 68466	2.4611	2.02992	1.35661	3.8294	67.64	-0.2694	0.0062	0.2757	946.5899	0.137789	-458.997121	-458.989973	-458.989029	-459.028401	28.832	
O	 0.0281727414	 1.4007626365	-0.0101535835	-0.484913
C	-0.0093838027	 0.0212093365	 0.0451607448	 0.296614
C	 0.2750758894	-0.7247958859	 1.383273536	-0.286506
C	-0.6401746593	-1.8368568115	 0.8068145445	-0.051706
C	-1.3704154959	-0.7357375677	-0.0061753197	-0.28651
C	 0.1680642856	-2.7095766409	-0.1434953399	-0.075916
O	 0.9521043539	-1.9280451829	-1.078174983	-0.232574
C	 0.89579562	-0.5858092725	-1.0220587322	 0.396662
O	 1.5336749474	 0.0969536951	-1.7829689024	-0.366512
H	 0.6373827844	 1.6210571903	-0.7334728564	 0.294861
H	 1.309486554	-0.9711920307	 1.6380150703	 0.109356
H	-0.1982533711	-0.1930325496	 2.2112607068	 0.119803
H	-1.217389651	-2.4559997491	 1.4952721781	 0.08637
H	-2.1115226676	-0.2057563259	 0.5957013846	 0.119804
H	-1.7929052179	-0.9918212409	-0.981640991	 0.109357
H	 0.8769861516	-3.343708371	 0.3992567912	 0.125904
H	-0.4808342423	-3.3527350297	-0.7472762982	 0.125905
