12
gdb 130834	4.67909	1.09852	0.88965	2.1533	62.28	-0.2874	-0.1278	0.1596	1166.8652	0.077075	-468.821128	-468.813518	-468.812574	-468.85567	25.6	
O	-0.0261764541	-0.0578377353	 0.006151115	-0.182258
C	-0.0263412665	 1.1380724968	 0.0062209805	 0.083016
C	 1.3114298916	 1.9109436957	-0.0009020667	 0.345594
O	 2.3700434128	 1.3482816826	-0.0147680883	-0.270152
N	 1.2214536651	 3.3192100205	 0.0086511122	-0.13149
C	 0.1351276246	 4.1864019571	 0.0283904052	 0.035799
N	 0.5303158576	 5.4203340722	 0.0301845401	-0.204482
N	 1.9271574817	 5.4141116126	 0.0131133816	-0.212984
C	 2.3111819781	 4.1763881436	 0.000958074	 0.068103
H	-0.9611225143	 1.7311496937	 0.0103518313	 0.114791
H	-0.8929493317	 3.8655917551	 0.0397861722	 0.167712
H	 3.3238141052	 3.8087044754	-0.0138443372	 0.186351
