13
gdb 128725	2.36175	1.56299	0.94618	2.6855	67.32	-0.2779	-0.0485	0.2295	1144.1937	0.089689	-452.743217	-452.735465	-452.734521	-452.776011	27.336	
C	-0.0303132779	 1.3390481836	 0.0396536044	-0.250188
O	 0.0118596948	-0.0950393637	-0.0145785566	-0.252025
C	 0.6141514161	-0.6205221421	-1.069280563	 0.435744
N	 1.157053594	 0.0805644127	-2.0359661946	-0.240208
O	 1.671789168	-0.8716567235	-2.9304982945	-0.169002
C	 1.4207058752	-2.0924758296	-2.4713563326	 0.025531
C	 0.7480667764	-2.03610468	-1.2864251137	-0.066108
C	 0.2929923083	-3.0947507561	-0.4700313932	 0.216655
N	-0.0824163611	-3.9580537027	 0.2033415333	-0.338434
H	 0.9829140427	 1.750099295	 0.0542532115	 0.151702
H	-0.5672407448	 1.7377764198	-0.8255202282	 0.151709
H	-0.5559576847	 1.5807503816	 0.9624789237	 0.148758
H	 1.7675618031	-2.9194195748	-3.0716679765	 0.185866
