21
gdb 97920	3.13309	0.62384	0.55756	1.9357	84.75	-0.2455	0.0386	0.2841	2037.934	0.178916	-424.183535	-424.172022	-424.171077	-424.222679	39.144	
C	 0.1091013612	 1.5351818019	 0.2906600108	-0.236201
O	 0.1042445193	 0.146161508	 0.0594530609	-0.238318
C	 0.7186468418	-0.6284243604	 1.0763847704	 0.147799
C	-0.2253147804	-0.8631041798	 2.2585696489	-0.402736
C	 1.1325403696	-1.9566954258	 0.417061048	-0.366657
C	 2.1679670521	-1.8045554119	-0.597350536	 0.017825
C	 3.0312198005	-1.6612652416	-1.4255079467	 0.103784
C	 4.0974462096	-1.5361761617	-2.4172313649	-0.192504
O	 5.3933894933	-1.815095507	-1.9002051683	-0.404614
H	 1.1319961411	 1.9206958806	 0.4214025552	 0.10885
H	-0.3344127636	 2.0077028342	-0.5893251313	 0.128361
H	-0.4826732064	 1.8221435636	 1.1727415122	 0.103421
H	 1.6283266153	-0.1160078292	 1.428078536	 0.075355
H	 0.2693056871	-1.4462827595	 3.0419565917	 0.115358
H	-0.5452050151	 0.0835704307	 2.7024554142	 0.118899
H	-1.118318734	-1.4049864886	 1.9307945622	 0.124001
H	 1.4779670176	-2.6470036057	 1.1966517829	 0.124064
H	 0.2347069493	-2.4065575015	-0.0257499099	 0.135977
H	 3.8678048758	-2.1787964379	-3.2826747303	 0.114805
H	 4.1447118394	-0.5083408046	-2.7943057914	 0.137572
H	 5.3410461765	-2.6611653337	-1.4437458943	 0.284962
