25
gdb 84124	2.28394	1.31858	1.0507	0.2568	94.89	-0.2234	0.0329	0.2564	1333.005	0.227702	-352.389949	-352.379752	-352.378808	-352.424029	40.023	
C	-0.1987469039	 1.5790511912	-0.0122987316	-0.411701
C	 0.0298884012	 0.0628843877	-0.0136154154	-0.028008
C	 0.8588305104	-0.4474109054	-1.1705231617	-0.173465
C	 1.6521889813	-1.4640091786	-0.8287790933	 0.319127
C	 2.5653717784	-2.2505507557	-1.7146610783	-0.493506
C	 1.4803643168	-1.7948465292	 0.6387378731	-0.333003
C	 0.7633063141	-0.5472990101	 1.2368373517	 0.299936
C	 1.8316068572	 0.4134100287	 1.7890463319	-0.420669
C	-0.2194248775	-0.9157450573	 2.3544108845	-0.442503
H	 0.7423429466	 2.1360208312	-0.0389159554	 0.117296
H	-0.7804962179	 1.8737879175	-0.8923395812	 0.10898
H	-0.7595286845	 1.9014306634	 0.8717868875	 0.11088
H	-0.966527219	-0.4059495078	-0.0706890948	 0.069707
H	 0.7685940142	-0.0409315769	-2.1738592816	 0.077054
H	 2.5482750214	-1.881831402	-2.744170445	 0.120239
H	 3.6015103636	-2.2101794462	-1.3542248084	 0.121882
H	 2.286215232	-3.3123739028	-1.7300684123	 0.122354
H	 0.8666436911	-2.7014354222	 0.7524694358	 0.093483
H	 2.4319482143	-2.0070371243	 1.1434452409	 0.089248
H	 2.5530020217	 0.6939343544	 1.0149057744	 0.114247
H	 1.38942578	 1.3310733747	 2.1886269755	 0.109386
H	 2.3842790301	-0.0668034123	 2.603932356	 0.105076
H	 0.2992760661	-1.3761766304	 3.2030387298	 0.107423
H	-0.7424719189	-0.0297170205	 2.7327210953	 0.109132
H	-0.9760279286	-1.6246762371	 2.0009728727	 0.107405
