18
gdb 85553	2.85652	1.32831	1.02631	3.4345	76.21	-0.2199	-0.0122	0.2078	1177.8246	0.148188	-439.13915	-439.130366	-439.129422	-439.172528	33.083	
C	 0.0470040002	 1.5441106668	 0.0560930552	-0.486677
C	-0.0398820175	 0.0467176365	 0.0079332371	 0.223185
C	-0.0580524097	-0.6463156107	-1.1367221797	-0.071492
N	-0.1075857237	-2.0440018812	-1.1926291851	-0.328242
C	-0.2794842842	-2.8637390747	-0.0965548505	 0.377896
O	-0.1993198515	-4.0715279888	-0.1805137238	-0.359684
C	-0.6362823821	-2.110086488	 1.1749304573	-0.343278
C	-0.0029764514	-0.7151926858	 1.3139801661	 0.019097
O	 1.3295327853	-0.7707478681	 1.8343538902	-0.430169
H	 0.9143202901	 1.858453566	 0.6486660674	 0.139152
H	 0.1389418441	 1.9790696919	-0.9432833759	 0.117709
H	-0.8380980627	 1.9840787708	 0.5337781535	 0.124868
H	-0.0266349202	-0.1627339119	-2.1073632248	 0.113453
H	 0.0595298259	-2.516503404	-2.0681485065	 0.25529
H	-1.7291780535	-1.996261317	 1.1612030544	 0.132775
H	-0.3812065102	-2.7360183794	 2.031565947	 0.139074
H	-0.5585080378	-0.1664035807	 2.0823208346	 0.093975
H	 1.9053275088	-1.0902883018	 1.1304938335	 0.283067
