16
gdb 64804	3.51711	1.01751	0.95552	4.3833	71.2	-0.2993	-0.0683	0.231	1267.9543	0.121936	-437.905393	-437.896403	-437.895459	-437.939564	32.251	
C	-0.0801777479	 1.6538473205	-0.620480976	-0.468434
C	-0.0487614896	 0.2202219145	-0.157131157	 0.445608
C	 1.1641326179	-0.6424015054	-0.312698354	-0.316988
C	 0.6957973397	-0.2203149881	 1.0665691545	-0.300203
O	-1.2667600877	-0.4970432932	-0.4419029263	-0.268504
C	-2.3332288909	-0.207798855	 0.3060125537	 0.349453
O	-2.414786998	 0.5888129343	 1.1991851612	-0.330083
C	-3.4700504828	-1.0371128089	-0.1224044596	 0.25217
N	-4.3961544008	-1.6619379727	-0.4148488211	-0.305536
H	 0.9012804278	 2.1106894843	-0.4687569699	 0.129356
H	-0.3195566383	 1.7086159396	-1.6872183783	 0.133703
H	-0.8180520658	 2.2324305239	-0.0596999666	 0.15312
H	 1.0019931572	-1.6750132202	-0.5987019533	 0.136163
H	 2.0555940988	-0.1875773767	-0.7293574033	 0.125681
H	 1.2572601475	 0.5316141009	 1.6092963938	 0.130856
H	 0.2362126127	-0.9769785776	 1.6911077522	 0.133639
