16
gdb 39729	3.43069	1.70787	1.67163	0.9267	66.16	-0.2358	0.0732	0.309	863.8723	0.126892	-437.829076	-437.822982	-437.822038	-437.859397	25.48	
C	 0.0086065744	 1.5096737614	-0.0195894873	-0.314071
N	 1.2486361123	 0.7002342268	 0.0541648951	-0.375871
C	-0.0475622999	 0.038946125	 0.0375415091	 0.455252
C	-0.5101806748	-0.8626498649	 1.1498580293	-0.28643
C	-1.7381999283	-1.5425793439	 0.5519276808	 0.043467
O	-1.9251136573	-1.0419819033	-0.7646056685	-0.245523
C	-0.5535541096	-0.856013336	-1.0978625543	 0.007617
O	 0.0629723314	-2.1059912164	-0.8087628411	-0.247064
C	-0.4095501786	-2.2525773593	 0.5217715557	 0.04413
H	-0.2018629392	 2.1009020808	 0.8669718603	 0.124234
H	-0.2463081279	 1.9970817823	-0.9579659354	 0.115914
H	 1.6950739036	 0.6419426313	-0.8588867138	 0.234134
H	-0.3694187009	-0.6574641629	 2.2003437494	 0.107153
H	-2.6388266707	-1.8422861973	 1.0658827501	 0.118991
H	-0.4219805758	-0.5690890475	-2.1380802469	 0.098828
H	-0.1381231788	-3.1745958763	 1.0124948877	 0.119237
