19
gdb 30657	3.99439	1.01313	0.83445	2.3619	77.89	-0.2182	0.0299	0.2481	1385.7141	0.160448	-419.252142	-419.243204	-419.24226	-419.286274	33.152	
C	 0.0612674017	 1.550154212	-0.3002705745	-0.389708
C	-0.0306203487	 0.0317234667	-0.4581452374	-0.1812
C	-1.2345643409	-0.5698595863	 0.2700065522	 0.001334
O	-2.4882476564	-0.0826790604	-0.2233571474	-0.438325
C	-1.2257506048	-2.0758150187	 0.2387463419	 0.334129
N	-0.1798248917	-2.8748522936	 0.231267283	-0.318108
C	-0.6930091766	-4.1521681541	 0.252627988	-0.091698
C	-2.0626281434	-4.1218353035	 0.2706383484	-0.113836
N	-2.3900278305	-2.7850535242	 0.2626679691	-0.270269
H	 0.8979027452	 1.9550202704	-0.8768378028	 0.113441
H	-0.8571668679	 2.0370923697	-0.6410544123	 0.121436
H	 0.2129395014	 1.8281836415	 0.7485502475	 0.117141
H	-0.097494608	-0.2423752769	-1.520548953	 0.090272
H	 0.8696310079	-0.4629698436	-0.0813608337	 0.136071
H	-1.2175026262	-0.2339589567	 1.3161643517	 0.109852
H	-2.4833690818	-0.2057702925	-1.1802100755	 0.28051
H	-0.0476555773	-5.017493048	 0.2487929767	 0.105351
H	-2.8116489271	-4.8959103969	 0.2779354367	 0.126173
H	-3.305329315	-2.3663601348	 0.2640020614	 0.267433
