12
gdb 130807	8.11467	0.65034	0.60208	1.3279	79.23	-0.2675	-0.0838	0.1837	1669.5506	0.077093	-435.454833	-435.44714	-435.446196	-435.488472	26.15	
O	-0.0957514254	-0.0334956156	-0.0009279873	-0.228419
C	-0.0142350548	 1.1741057787	 0.0078310308	-0.00422
C	 1.2238601826	 1.9047349432	-0.0000789437	 0.174803
C	 2.2558166506	 2.5382274104	-0.0065407722	-0.063692
C	 3.4532124934	 3.2716567638	-0.0143311204	 0.039089
C	 4.7425874179	 2.8057136761	-0.0324812426	-0.021977
O	 5.6057099061	 3.8150170522	-0.0343645647	-0.148071
N	 4.9026665717	 5.0259727337	-0.0170113295	-0.107075
C	 3.6418435138	 4.6932491421	-0.0053251245	-0.076471
H	-0.9167826632	 1.8179981963	 0.0228436661	 0.103152
H	 5.1574741273	 1.809946504	-0.0449222876	 0.179246
H	 2.8853686298	 5.4643146552	 0.0092194956	 0.153634
