16
gdb 56875	3.34592	1.01424	0.82024	4.1359	71.82	-0.2525	0.0143	0.2667	1333.9313	0.122118	-437.863455	-437.854283	-437.853339	-437.898033	33.262	
O	 0.1279509313	 1.5604359147	-0.0433789838	-0.411953
C	 0.0542275723	 0.1418515719	-0.0033804142	-0.051743
C	 0.6149018369	-0.4815867172	-1.2049505828	 0.27173
C	 1.1321768435	-0.9806767813	-2.1690016586	-0.435001
C	 0.7393331171	-0.4023393508	 1.2623619532	 0.039915
C	 0.0206169398	-0.0946355241	 2.6062118411	-0.407612
C	-0.145780418	-1.6303864203	 2.7368370287	 0.42926
O	-0.6140907877	-2.3903666881	 3.5381222917	-0.352046
N	 0.4939647453	-1.8193318611	 1.5302145979	-0.324481
H	 1.0128661877	 1.8022863297	-0.3385740394	 0.290505
H	-1.0143302089	-0.0968857421	 0.0631612884	 0.125252
H	 1.563612069	-1.4199193014	-3.0349904543	 0.207842
H	 1.8026088049	-0.1340061964	 1.242604314	 0.086243
H	 0.6434686595	 0.3539690358	 3.3811391425	 0.134529
H	-0.9118105707	 0.464981907	 2.5156285832	 0.141465
H	 0.7565955081	-2.6523169963	 1.0242122226	 0.256093
