19
gdb 92858	2.92526	1.65471	1.19948	4.2577	75.84	-0.2115	0.0619	0.2735	1060.8161	0.162645	-419.230899	-419.223257	-419.222313	-419.262981	29.486	
C	 0.0161478143	 1.482495995	 0.1208631716	-0.403842
C	-0.0467983111	-0.0457748033	 0.0497162872	 0.000093
C	 0.8305174568	-0.6369133821	-1.1131039551	-0.170468
N	 2.114894463	-1.052002669	-0.5122106011	-0.383029
C	 1.8703536685	-1.0574992533	 0.7328743096	 0.4908
O	 2.7041288641	-1.3120145958	 1.7567968637	-0.260878
C	 1.9493876314	-1.1382841152	 2.9752428714	-0.09465
C	 0.7139851559	-0.3038656938	 2.5704795568	-0.202196
N	 0.5979299006	-0.722583563	 1.1853106378	-0.118483
H	 1.0531064842	 1.8315359513	 0.1705148766	 0.131797
H	-0.4406434517	 1.9094167982	-0.7773377274	 0.124149
H	-0.525588227	 1.8771420404	 0.9866441101	 0.115026
H	-1.0900761698	-0.3656615846	-0.0358667076	 0.081181
H	 0.3357156037	-1.5025150927	-1.572337174	 0.105174
H	 0.9951270412	 0.1025060584	-1.903627198	 0.104709
H	 1.6593065664	-2.1251042514	 3.3517585379	 0.125785
H	 2.5916624001	-0.645534866	 3.7068081012	 0.128699
H	-0.1660341368	-0.5631959332	 3.1663084502	 0.117582
H	 0.906028956	 0.7734643101	 2.6822575691	 0.108552
