13
gdb 131090	5.76741	0.79741	0.71947	2.7796	61.41	-0.3006	-0.0606	0.24	1432.1624	0.088369	-489.851765	-489.84394	-489.842996	-489.886548	26.177	
O	 0.0272610151	 0.0657901473	 0.3877377936	-0.256574
C	 0.1384141992	 1.1951096222	 0.0281747634	 0.179442
O	 0.8913951696	 2.0995689623	 0.697651027	-0.178525
C	 0.9339581797	 3.4376116311	 0.1981304149	-0.195029
C	 2.3592856322	 3.8790754707	 0.1033229441	 0.331707
N	 2.7276277284	 5.0954436824	 0.4027584832	-0.142895
O	 4.0705094906	 5.1450891019	 0.1727929932	-0.141167
N	 4.5471088384	 3.9414071322	-0.2620271085	-0.050533
C	 3.5113663047	 3.1519345571	-0.3119761716	-0.099154
H	-0.3436045621	 1.6233277023	-0.8726154029	 0.088487
H	 0.4507255587	 3.4868924907	-0.7871498717	 0.138581
H	 0.3877378841	 4.0960952208	 0.8785300008	 0.160661
H	 3.6059080412	 2.1216531292	-0.6160185855	 0.164999
