16
gdb 38018	3.51535	2.19959	1.83892	1.8003	73.3	-0.2091	-0.034	0.1751	774.0677	0.126755	-400.602695	-400.597164	-400.59622	-400.632122	24.446	
C	-0.1576167947	 1.4564589029	 0.1316937265	-0.191713
N	 1.3529369374	 1.3004002319	-0.0481813277	-0.109629
C	 2.1427640299	 0.3038719701	 0.7362369273	-0.095934
C	 1.3730247134	-1.1468937878	 1.1485251881	 0.050558
O	 2.0960065086	-1.8025300891	 0.0844198148	-0.285048
C	 2.3826474379	-0.553607668	-0.5178314188	 0.1092
C	 1.1294312639	 0.1935718518	-1.0586448693	-0.054424
C	-0.1531243239	-0.0338019484	-0.235860563	 0.004165
C	-0.042266466	-0.8316060812	 0.8584659664	-0.116473
H	-0.5173554883	 1.7320614928	 1.1246792959	 0.120044
H	-0.4917568946	 2.1765148001	-0.6208395628	 0.12066
H	 2.8794544965	 0.6916925461	 1.4348936118	 0.100331
H	 1.5979312563	-1.5935740055	 2.1191863916	 0.086064
H	 3.2812996847	-0.5479742439	-1.13520686	 0.09269
H	 1.0307186404	 0.4863028601	-2.1051476601	 0.083246
H	-0.6825702214	-0.6335730421	 1.7166077393	 0.086263
