23
gdb 113773	2.28759	1.30294	0.9809	1.4329	85.94	-0.2529	0.0728	0.3257	1314.8107	0.20511	-388.25716	-388.247398	-388.246454	-388.291774	37.662	
C	-1.6796222843	 1.9769994916	 2.5843568398	-0.44432
C	-1.2765210825	 1.1254245252	 1.3908562381	 0.336503
C	-0.2433972696	 1.7077773032	 0.4456199861	-0.314182
C	 0.1440163901	 0.6043900837	 1.3961062082	-0.299344
C	-2.353172876	 0.1771172104	 0.9087834802	-0.075685
C	-3.7781822869	 0.6164431788	 0.658413159	-0.320139
C	-2.9537972916	 0.0838722591	-0.4846707236	 0.005018
C	-2.628059268	 1.0109639738	-1.6233038872	-0.115783
O	-1.485859712	 0.5141729765	-2.318454223	-0.407389
H	-0.8352037599	 2.5738950438	 2.9440187339	 0.107019
H	-2.4919201209	 2.6681572749	 2.3333156206	 0.108512
H	-2.0254280957	 1.351671332	 3.4159766212	 0.111295
H	-0.294264823	 1.4475214132	-0.6038935223	 0.138456
H	 0.1127052529	 2.7119823237	 0.6550687202	 0.096254
H	 0.7707513837	 0.8420364109	 2.2496095833	 0.100105
H	 0.3241674534	-0.3765630946	 0.9681474459	 0.110125
H	-2.2882426885	-0.7947105166	 1.3952159661	 0.085372
H	-4.5930653769	 0.0204619976	 1.0542515787	 0.108289
H	-3.9760744046	 1.684303509	 0.6533196759	 0.109134
H	-3.1760773254	-0.9267600333	-0.8170618344	 0.087969
H	-3.4953191374	 1.0571594249	-2.3005701805	 0.092553
H	-2.4516527639	 2.0284800119	-1.2451918959	 0.094363
H	-1.3611454228	 1.0500236102	-3.1079119402	 0.285876
