22
gdb 107481	2.10343	1.64506	1.21712	1.7382	86.25	-0.218	0.0789	0.2969	1160.4015	0.194238	-367.156581	-367.147666	-367.146721	-367.189923	34.897	
C	 0.2069672408	 1.5763859972	-0.1596226455	-0.377804
C	 0.0121061486	 0.0583729664	-0.0329799541	-0.310382
C	-1.4271888854	-0.371147396	 0.031743794	 0.257762
N	-1.9038416212	-1.6514538474	-0.5683706512	-0.381554
C	-2.5098689272	-0.3618512562	-0.995611886	-0.103685
C	-3.5773562702	-0.0135815916	 0.0491597632	-0.311382
C	-2.4582821792	-0.0704994152	 1.1180282564	 0.378037
C	-2.5282942786	-0.6614957485	 2.4915429404	-0.313455
C	-2.3165814429	 0.8264545894	 2.3116862339	-0.345936
H	 1.2709358119	 1.8299408948	-0.1982185927	 0.111907
H	-0.2638447275	 1.9527147855	-1.0733341194	 0.117476
H	-0.2354063703	 2.1129810926	 0.6837646743	 0.127359
H	 0.4878017211	-0.4357413626	-0.8900535958	 0.095252
H	 0.5412611526	-0.3131376391	 0.8553656229	 0.105264
H	-1.2263403964	-1.9044234225	-1.2893870685	 0.216935
H	-2.4792633275	-0.0569983899	-2.035034651	 0.088115
H	-3.9848305976	 0.9933542989	-0.0794903167	 0.099423
H	-4.3926151909	-0.7359113409	 0.1486400358	 0.103986
H	-3.4944950304	-1.0027266369	 2.8486199002	 0.111788
H	-1.6908796897	-1.259695382	 2.836206863	 0.110975
H	-1.3368650411	 1.2277056694	 2.5499155017	 0.110349
H	-3.137070009	 1.4985897947	 2.5443009049	 0.109566
