23
gdb 115820	4.20734	0.88578	0.80333	1.8603	85.79	-0.2534	0.0748	0.3282	1519.951	0.206018	-388.295331	-388.286105	-388.285161	-388.329943	35.312	
C	 0.0135691683	 1.5784344308	 0.0370080724	-0.386503
C	-0.0046037192	 0.0466696822	 0.0604166816	-0.187784
C	-1.404262047	-0.5638773059	-0.0484362383	 0.05354
C	-2.1410732167	-0.3063654614	-1.3817600579	-0.221244
C	-3.2825010356	-1.3363338632	-1.368386072	-0.292311
C	-2.6619291505	-2.5637934685	-0.7019003084	 0.448974
C	-3.4231618467	-3.7783404895	-0.3943199385	-0.255942
O	-2.5180636412	-3.747235485	-1.5010554721	-0.27494
C	-1.4216243271	-2.1051492045	 0.0713516511	-0.318152
H	 1.0318919628	 1.9626284862	 0.1515564436	 0.112227
H	-0.3838629691	 1.9723699781	-0.9038973102	 0.118739
H	-0.5912088321	 1.9933832816	 0.8514344876	 0.112387
H	 0.6156566185	-0.3426251556	-0.7587287703	 0.094466
H	 0.4650099017	-0.3046800164	 0.9885351762	 0.093444
H	-2.0249323471	-0.1486037016	 0.759729132	 0.065745
H	-2.4952863753	 0.7221622865	-1.488509832	 0.096025
H	-1.4608781754	-0.5095993514	-2.2196994188	 0.101362
H	-4.1138149987	-0.962910344	-0.757216258	 0.100905
H	-3.6788651224	-1.5838893612	-2.3560439945	 0.111185
H	-3.1215144074	-4.4112502343	 0.4404773438	 0.106873
H	-4.4803856603	-3.837823178	-0.6555436116	 0.106159
H	-0.5396051771	-2.5353242079	-0.4181080465	 0.11486
H	-1.4150269125	-2.4484512068	 1.1099938108	 0.099985
