18
gdb 103009	2.08802	1.4152	1.17666	2.9834	73.97	-0.2526	0.0064	0.259	1157.9354	0.144789	-439.065301	-439.055212	-439.054268	-439.10031	35.629	
C	-0.0412933668	 1.3439117393	 0.3870311407	-0.27618
O	-0.0541239753	-0.0243809581	-0.0338751748	-0.297988
C	-1.3234997603	-0.6066588423	-0.0216214619	 0.207157
C	-2.337834754	 0.0574164578	-0.8024761245	 0.251241
N	-3.1647722686	 0.591106791	-1.4119465583	-0.352199
C	-1.3381345253	-2.1332303288	 0.0736522443	-0.136303
C	-0.0574542392	-2.9287826867	-0.040264598	-0.408152
C	-1.6880973773	-1.3172149021	 1.2905999	 0.071821
O	-0.8070586517	-1.1758627333	 2.3526212491	-0.422302
H	 1.0041596608	 1.6564426513	 0.3718133394	 0.139458
H	-0.618585779	 1.9711452024	-0.3016743555	 0.148645
H	-0.4472053549	 1.4509390862	 1.3998815729	 0.134447
H	-2.1943507917	-2.5798154632	-0.4242255745	 0.11751
H	 0.7819248463	-2.4353199036	 0.4513982594	 0.125562
H	-0.1897814576	-3.9123777388	 0.4206334034	 0.13357
H	 0.2143318329	-3.0764211484	-1.0893115969	 0.135477
H	-2.7182000083	-1.2953306182	 1.628129456	 0.129205
H	 0.0453242501	-0.9081720845	 1.9858362592	 0.29903
