19
gdb 80343	2.16664	1.50546	1.29559	2.4595	79.69	-0.2468	0.0196	0.2664	1106.5769	0.159015	-382.048423	-382.039475	-382.038531	-382.081747	33.501	
C	-0.1266766787	 1.5381241167	-0.1108523202	-0.43945
C	 0.0391505989	 0.0480846999	 0.0847674801	-0.023551
N	 1.2480657753	-0.7349723114	-0.2749809938	-0.184952
C	 2.437541762	 0.0847726191	 0.1252450088	-0.181143
C	 2.028506097	 0.0560520275	 1.6291145137	-0.215805
C	 1.9239287877	 1.2892725488	 2.396043269	 0.276618
N	 1.8446063358	 2.2743334098	 2.997155343	-0.33915
C	 0.7466365455	-0.6681703858	 1.1707255373	 0.309149
C	 0.1848555126	-1.8451226061	 1.9112866082	-0.493512
H	 0.6604995148	 2.1414304475	 0.3416866891	 0.145451
H	-0.1701233252	 1.7721865278	-1.1802110363	 0.129212
H	-1.0722199631	 1.8580261864	 0.3380757874	 0.134138
H	-0.8341883253	-0.5065962982	-0.2559117258	 0.101514
H	 3.3574509334	-0.4669653257	-0.0704580769	 0.125463
H	 2.5018752677	 1.0673954561	-0.346871435	 0.125495
H	 2.6718267427	-0.6342099035	 2.1812351464	 0.132904
H	-0.314280019	-1.5186474979	 2.831147998	 0.13567
H	-0.5485729648	-2.3734558215	 1.2963170958	 0.136642
H	 0.9718059027	-2.5556030296	 2.1869761111	 0.125306
