18
gdb 42421	2.95798	1.01657	0.88459	3.0106	79.64	-0.225	-0.0573	0.1677	1359.5609	0.145707	-401.892874	-401.883667	-401.882723	-401.928282	32.819	
O	-1.0346637001	 1.2964976696	 1.8859010019	-0.278732
C	-0.2656210103	 1.5787169546	 0.9935410117	 0.235151
C	 1.1700278644	 2.0241212191	 1.2677183502	-0.2637
N	 2.1120548501	 1.4946043355	 0.3162481559	-0.067235
C	 2.554015607	 0.0882139749	 0.4370078081	-0.163047
C	 3.9651558857	 0.5319150851	-0.0177698816	-0.225882
C	 3.5112843938	 1.9666044868	 0.3474172056	-0.157934
C	-0.6752764718	 1.5421961989	-0.4006917499	 0.312888
C	-1.0642951585	 1.5179612218	-1.5395515761	-0.462014
H	 1.1772726287	 3.12089136	 1.1864859007	 0.131348
H	 1.3913908249	 1.7685660644	 2.3197337093	 0.103643
H	 2.5467792765	-0.2748940298	 1.4780198932	 0.091799
H	 2.0042433989	-0.6217350989	-0.188582615	 0.110647
H	 4.8152656101	 0.1253663364	 0.5296877179	 0.108256
H	 4.1232753029	 0.400572168	-1.0893414841	 0.116887
H	 3.7364738326	 2.7795353583	-0.3509185736	 0.105259
H	 3.8474187238	 2.2605899713	 1.3551513378	 0.087988
H	-1.4054879887	 1.4955784943	-2.5459209622	 0.214678
