16
gdb 60751	4.66455	0.85853	0.73169	4.7073	74.08	-0.2693	-0.0341	0.2352	1459.4993	0.123379	-434.108157	-434.098634	-434.097689	-434.143715	32.591	
C	-0.0169673589	 1.4892082155	-0.0107383486	-0.355026
N	-0.0053523688	 0.0268276385	 0.0142517887	-0.129848
C	-0.001095228	-0.6288455135	 1.2527877043	 0.103153
N	-0.0070756455	 0.0193106536	 2.3435587063	-0.469978
C	 0.0016998148	-0.7577143147	-1.1322382556	 0.455155
O	 0.0111206419	-1.9670086169	-1.1103427322	-0.326385
C	-0.0036304818	 0.0295271267	-2.4527386857	-0.507249
C	 0.0044071088	-0.8503892389	-3.6156641221	 0.300279
N	 0.01046362	-1.5044000119	-4.5663340625	-0.290373
H	 0.8723161523	 1.8869510326	-0.5082648322	 0.138124
H	-0.9115313296	 1.8727445034	-0.5099469434	 0.138117
H	-0.0206011389	 1.8234375216	 1.0255521096	 0.189746
H	 0.0075919662	-1.7107768742	 1.1287965076	 0.154282
H	-0.0025810578	-0.6221842218	 3.1338186786	 0.239989
H	-0.8848433365	 0.6795473701	-2.5001998139	 0.180015
H	 0.866966192	 0.6937840599	-2.4988494789	 0.179999
