22
gdb 113357	2.15994	1.12922	0.8476	2.2333	84.89	-0.2545	-0.0325	0.222	1474.2075	0.192267	-404.349954	-404.33949	-404.338545	-404.385901	37.578	
C	 0.4703360348	 1.4295543517	 0.1008553525	-0.379381
C	-0.1934028576	 0.0815501141	-0.210210964	-0.195392
C	 0.4980132654	-0.6182974009	-1.3575648829	-0.027844
N	 1.6931957702	-1.3987924727	-1.0647315657	-0.362712
C	 0.5060242822	-2.1192025478	-1.5606029928	 0.215012
C	-0.1699214744	-3.1123427034	-0.6353610954	-0.273494
C	 0.6895670627	-4.3600163772	-0.3948432529	-0.380053
C	 0.5613951675	-2.5074428031	-3.0031812949	 0.101133
O	 1.367389103	-2.0630223407	-3.7883479298	-0.277026
H	 1.5203594865	 1.2863448432	 0.3731606861	 0.13328
H	 0.435138431	 2.1001527459	-0.7646736447	 0.116189
H	-0.032394842	 1.9314794808	 0.9327687903	 0.114625
H	-0.1623475699	-0.5511284377	 0.6812139046	 0.109809
H	-1.2499505571	 0.2336950747	-0.4645559147	 0.100117
H	 0.5151403388	-0.0473331719	-2.28641093	 0.099348
H	 2.3480491249	-1.320931279	-1.8440105408	 0.244115
H	-0.3934596804	-2.635167318	 0.3214552879	 0.111494
H	-1.1364299947	-3.3970755486	-1.0726816696	 0.099042
H	 0.1944430262	-5.0516896984	 0.2929469224	 0.115065
H	 0.8847447604	-4.9018136839	-1.3271929103	 0.115739
H	 1.6541277411	-4.0762624998	 0.0353803254	 0.13958
H	-0.2066139287	-3.2439371173	-3.3258227408	 0.081353
