19
gdb 93381	2.72141	1.52297	1.15858	3.4693	75.23	-0.2319	-0.0069	0.225	1083.135	0.160784	-423.045879	-423.037917	-423.036973	-423.078316	31.507	
O	 0.0319995098	 1.4531408445	-0.0560466556	-0.430673
C	 0.0252183122	 0.0253341242	-0.0119163995	 0.095527
C	 0.8225831206	-0.493504825	 1.1932379472	-0.234996
C	 0.0888495106	-0.2114240629	 2.5153325295	-0.31262
C	-1.2146863728	-0.998797875	 2.5571643448	 0.400827
O	-1.5369521578	-1.6698462928	 3.5137553347	-0.335532
C	-2.0442484462	-0.950790412	 1.3190935651	-0.121474
C	-2.4486074715	 0.3954491475	 0.7349624193	-0.276446
C	-1.4344120937	-0.4328923709	 0.0164849908	-0.045419
H	 0.9501353599	 1.7398417179	-0.1035038462	 0.282063
H	 0.4820865732	-0.371165767	-0.9302085819	 0.070537
H	 0.9793136969	-1.5733480499	 1.078763041	 0.110241
H	 1.8187391651	-0.0330249945	 1.2003000657	 0.090088
H	 0.6799934858	-0.495696555	 3.3881913691	 0.118092
H	-0.1191795462	 0.8632370059	 2.5830983816	 0.127109
H	-2.7784089955	-1.7464015766	 1.2621101101	 0.102818
H	-3.4487876373	 0.463603468	 0.3234357065	 0.122399
H	-2.0997016619	 1.2962141623	 1.2234581016	 0.141195
H	-1.7726274312	-0.9381761587	-0.8814341335	 0.096264
