23
gdb 64253	3.16676	1.15148	1.13251	1.3829	85.54	-0.2264	0.0807	0.3071	1256.1495	0.20519	-388.292114	-388.282901	-388.281957	-388.326308	36.402	
C	 0.2587424276	 1.4518495589	 0.1292282735	-0.426428
C	-0.0620091089	-0.0466659174	 0.0002588157	 0.309699
C	-1.5674510431	-0.2635683231	-0.1710206102	-0.44712
C	 0.7572244509	-0.6543510608	-1.1585368301	-0.118816
O	 2.0609433994	-0.8466664822	-0.6326010533	-0.28811
C	 1.892115203	-1.3227198723	 0.6881387441	 0.468214
C	 2.4415282851	-2.6873555273	 1.0105480186	-0.328876
C	 3.1343655447	-1.4270228669	 1.5080081527	-0.339234
C	 0.5341623867	-0.8344725959	 1.2021743381	-0.355377
H	 1.3385111918	 1.6138270122	 0.1978476349	 0.12936
H	-0.1127038009	 2.0097838416	-0.7377997862	 0.107816
H	-0.2076567151	 1.8771367309	 1.0244676656	 0.108472
H	-1.9408087871	 0.2468508419	-1.0662524147	 0.11299
H	-1.8087150154	-1.32775113	-0.2659469327	 0.111384
H	-2.1233153546	 0.1311464923	 0.6862609297	 0.115699
H	 0.3178023096	-1.612929603	-1.4820157655	 0.079892
H	 0.8398831448	 0.002209655	-2.0295128041	 0.101123
H	 1.9138157525	-3.3066919415	 1.7293292891	 0.105965
H	 2.9221817893	-3.2277944392	 0.2027142632	 0.11843
H	 4.0650082493	-1.1486527949	 1.0257662095	 0.122301
H	 3.0779368813	-1.1845585614	 2.5641882672	 0.110497
H	 0.6298909146	-0.2025319069	 2.0901195393	 0.10346
H	-0.1068929653	-1.6808520801	 1.4686051155	 0.098661
