17
gdb 120126	3.59838	0.95337	0.88563	3.4378	69.43	-0.264	-0.0024	0.2616	1350.3771	0.134706	-458.939975	-458.931474	-458.930529	-458.974156	30.419	
C	-0.059002931	 1.3416593954	 0.192912972	-0.228555
O	-0.1047625881	-0.066160157	 0.2377227039	-0.234682
C	-1.35556037	-0.5837620145	-0.1584407644	-0.091929
C	-1.2655934309	-2.0871659192	-0.0836957377	-0.053054
C	-1.575339294	-2.889529557	 1.1248171369	 0.09056
O	-2.6288716442	-2.2576343488	 1.9006673345	-0.260337
C	-3.5266874317	-2.4587354785	 0.8537103137	 0.463421
O	-4.6952892408	-2.2546323756	 0.859852376	-0.320418
C	-2.4850738899	-3.0268164245	-0.0761195623	-0.308525
H	 0.9401902855	 1.6448730641	 0.5137443664	 0.1304
H	-0.2380523962	 1.723601194	-0.8246807571	 0.105864
H	-0.8028687621	 1.7953530934	 0.865902391	 0.112443
H	-2.1591296754	-0.208963227	 0.4923699359	 0.116515
H	-1.5948743486	-0.276700841	-1.1905194435	 0.095036
H	-0.4517854028	-2.5018694687	-0.6756078774	 0.119007
H	-0.9520216958	-3.6080682209	 1.6368847176	 0.133351
H	-2.6298475142	-3.8180412543	-0.7967553254	 0.130903
