23
gdb 95762	2.32534	1.43139	1.14138	0.2353	82.06	-0.2304	0.0852	0.3156	1222.8162	0.204738	-425.442263	-425.43266	-425.431716	-425.475768	37.429	
C	 0.0564453623	 1.5315720366	 0.0750591889	-0.403223
C	 0.0124123826	 0.014751782	-0.0307782973	 0.120961
C	 0.7584848716	-0.513498399	-1.2551769887	-0.083837
O	 0.8204578412	-1.9298130196	-1.238085892	-0.256015
C	 1.4827319857	-2.3869607095	-0.0717449573	-0.098123
C	 0.7527784084	-1.9355261874	 1.203781421	 0.350642
C	-0.6147628459	-2.625298046	 1.3267161806	-0.423896
C	 1.6135396301	-2.2031172587	 2.4358767541	-0.421537
O	 0.6049140576	-0.5045295893	 1.1574366759	-0.309606
H	 1.0915525476	 1.8830208343	 0.127933525	 0.122517
H	-0.4280149315	 1.9950641223	-0.7901015915	 0.114159
H	-0.4611121083	 1.8605771827	 0.9798274872	 0.126738
H	-1.0356985083	-0.3165439074	-0.0996134827	 0.071341
H	 0.2440824897	-0.2308971138	-2.1787473448	 0.104295
H	 1.7770527592	-0.0887169137	-1.2736229	 0.085324
H	 1.5147791185	-3.4788192335	-0.1371770845	 0.103437
H	 2.5168498649	-2.0050698681	-0.0507225831	 0.084621
H	-0.4856504833	-3.6868856348	 1.5606305023	 0.111388
H	-1.1952877765	-2.163775165	 2.1306091801	 0.117851
H	-1.1822132743	-2.5588681785	 0.3956937733	 0.128125
H	 2.5586832667	-1.6574328482	 2.3665724268	 0.119767
H	 1.0935451929	-1.8693284022	 3.3383049419	 0.123017
H	 1.8295060792	-3.2713374432	 2.536821345	 0.112054
