21
gdb 76145	2.18849	1.40868	1.15042	3.1835	80.25	-0.2367	0.0458	0.2825	1206.8829	0.180509	-420.437605	-420.427178	-420.426234	-420.472464	38.645	
C	 0.1744267602	 1.4009113876	-0.2640596426	-0.410271
C	-0.0264901371	-0.0714615378	 0.0100837487	-0.053292
N	 1.0123655985	-1.0657229219	-0.2685418105	-0.154857
C	 2.2686396119	-0.8287959875	-0.8275324326	 0.402265
N	 2.198676375	-0.3197212852	-2.1130761383	-0.538266
O	 3.3192415529	-1.0790420673	-0.2711701056	-0.383514
C	 0.6593959344	-0.8270552101	 1.1248006486	 0.296368
C	 1.6375901423	-0.132914011	 2.0538609939	-0.443637
C	-0.0929046298	-1.9733424304	 1.7765186419	-0.441629
H	 1.1712519626	 1.7486115668	 0.0117388383	 0.135527
H	 0.0350497243	 1.62042221	-1.3275068763	 0.122878
H	-0.5632072703	 1.9848885394	 0.2966883462	 0.12375
H	-1.0246001296	-0.4239927862	-0.2549336728	 0.085598
H	 1.3571577097	-0.5004787649	-2.637715351	 0.25491
H	 3.0586144715	-0.4091757949	-2.6323032517	 0.259134
H	 2.1666728961	 0.6931551799	 1.5792098521	 0.128853
H	 1.1030162728	 0.2510394063	 2.9296214608	 0.10954
H	 2.3950896713	-0.8427682805	 2.3955020888	 0.143517
H	 0.607203331	-2.7301465042	 2.1459565101	 0.128394
H	-0.6818432793	-1.6145819095	 2.6277433357	 0.114877
H	-0.7668696484	-2.4545107485	 1.0633193663	 0.119855
