19
gdb 50566	3.18139	1.3678	1.19499	2.7611	74.81	-0.2401	-0.0278	0.2123	1080.3132	0.160721	-423.018183	-423.01058	-423.009636	-423.050676	29.607	
O	-0.3742344927	 0.354893497	-0.4505544969	-0.241736
C	 0.4988921215	 0.7354558365	 0.2869845493	 0.143059
C	 1.3006557793	 2.0118008811	 0.1251291643	-0.117429
C	 0.9349813969	 2.7744271795	-1.1670916176	-0.084396
O	 1.132949086	 4.1847106246	-1.0730541288	-0.280071
C	 0.9352667341	 4.713277472	 0.2281382889	 0.139488
C	 2.0212499644	 4.1668466681	 1.1937305732	-0.241134
C	 1.086415592	 2.9357008263	 1.3504522271	-0.036824
C	-0.1023963905	 3.8983328247	 1.0518928435	-0.261048
H	 0.7772719001	 0.1459432194	 1.1918837912	 0.080532
H	 2.357563569	 1.7060664452	 0.1272468468	 0.097467
H	 1.5395079718	 2.4333435022	-2.0113119281	 0.114107
H	-0.1113523381	 2.5565696279	-1.4099805177	 0.123784
H	 0.81005151	 5.7909502339	 0.1103420075	 0.078394
H	 3.0192325023	 4.0116975847	 0.7757763043	 0.097926
H	 2.0850636597	 4.7504923497	 2.1159340572	 0.100182
H	 1.0982216521	 2.3776613433	 2.2908582009	 0.066957
H	-0.4062212781	 4.4472179443	 1.9459507629	 0.106379
H	-0.9888806296	 3.5124741198	 0.5440157919	 0.114361
