18
gdb 106337	4.61752	0.98082	0.93854	4.9294	78.33	-0.26	-0.0025	0.2575	1294.8721	0.146513	-401.90256	-401.893991	-401.893047	-401.935906	32.228	
C	 0.1032649998	 1.5347175299	 0.0537485042	-0.385484
C	 0.0974856056	 0.0020968114	 0.0675091858	-0.318362
C	 0.6637612778	-0.5748766817	 1.3274760897	 0.403819
C	 0.2994981328	-0.298339182	 2.8160159604	-0.291098
C	 1.6092782588	-1.1226355632	 2.7551767367	 0.321053
C	 0.972166372	-2.053495727	 1.6930643031	-0.299586
O	 2.0904778207	-0.2463816991	 1.6717345902	-0.359041
C	 2.5117757584	-1.4619210821	 3.8291081984	 0.177473
N	 3.2075498109	-1.7544977004	 4.7040961406	-0.344147
H	 1.1166876884	 1.9175593945	 0.200264265	 0.144773
H	-0.2731065475	 1.9136686548	-0.9001573278	 0.120334
H	-0.5288262823	 1.9416528784	 0.8493940179	 0.121619
H	-0.9233758149	-0.3819545634	-0.0520775876	 0.11339
H	 0.6802660518	-0.3881076317	-0.7755044183	 0.120978
H	 0.42959111	 0.7308205451	 3.1493343008	 0.126942
H	-0.5876615995	-0.7822994228	 3.2300794803	 0.111055
H	 0.1447942381	-2.6932918279	 2.007191805	 0.11099
H	 1.6884998393	-2.5546721127	 1.0420031657	 0.125291
