15
gdb 16928	3.78553	2.21959	2.02119	3.4535	61.59	-0.2544	0.0182	0.2726	724.8931	0.122002	-399.809689	-399.803892	-399.802948	-399.839453	23.358	
N	-0.0649696393	 1.2852122634	-0.0866834996	-0.563416
C	-0.0342304554	 0.0291255535	-0.020781093	 0.455951
O	 1.0986162919	-0.7600825338	 0.0427208964	-0.265325
C	 0.6252548872	-2.1317071814	 0.1101391578	 0.060449
C	-0.0302767588	-2.2915808099	 1.4851715201	-0.07845
O	-1.2225110873	-1.4927443004	 1.3621934189	-0.278351
C	-1.1972020109	-0.9461304874	 0.0274691984	 0.011719
C	-0.6120770464	-2.0970293595	-0.8037557411	-0.252222
H	 0.8811665688	 1.6728676289	-0.0795822849	 0.224496
H	 1.4492672447	-2.8009180552	-0.1271918668	 0.099952
H	-0.2960493983	-3.3319573957	 1.7087671786	 0.108808
H	 0.6076289192	-1.8982504573	 2.2833003342	 0.12042
H	-2.1702901536	-0.5289435207	-0.213032688	 0.110531
H	-0.3675259157	-1.8283897087	-1.8327973535	 0.125938
H	-1.2203347163	-3.0022041358	-0.7681702576	 0.1195
