19
gdb 26353	2.43413	1.39772	0.94911	1.7129	77.23	-0.2179	0.0243	0.2422	1246.931	0.158492	-423.057488	-423.048268	-423.047324	-423.091671	34.336	
C	 0.1344005959	 1.4312344177	-0.2756929621	-0.404117
C	 0.0171188624	-0.0342565284	 0.1593874127	 0.005334
O	 0.5333062349	-0.2075920456	 1.4769797541	-0.420635
C	-1.3850797429	-0.5801150378	 0.0539661531	 0.147306
C	-2.0810390962	-1.1461048167	 1.076375613	-0.108577
O	-3.3100194707	-1.5548095432	 0.6650566468	-0.150938
C	-3.3935443826	-1.2505305185	-0.6561524548	-0.087037
C	-2.2558085818	-0.653157532	-1.1008783973	 0.133896
C	-1.9871071575	-0.2022192333	-2.5047402755	-0.507221
H	 1.1624647616	 1.7747007149	-0.1310957933	 0.124166
H	-0.1313090137	 1.5647266912	-1.3274607381	 0.122756
H	-0.5351497388	 2.0623523842	 0.3205830294	 0.111283
H	 0.6841033702	-0.6365198022	-0.4720118722	 0.100845
H	 0.0553798147	 0.4012340403	 2.0518344282	 0.277639
H	-1.8329683011	-1.3505695687	 2.1035368901	 0.137923
H	-4.3156324569	-1.5214315702	-1.1451767274	 0.132018
H	-1.9425979725	 0.8896044789	-2.588737695	 0.132227
H	-1.0348400133	-0.5933782954	-2.8807150142	 0.128561
H	-2.7749312917	-0.5490961753	-3.1794358874	 0.124571
