18
gdb 24147	5.15313	0.8974	0.79862	1.3938	76.5	-0.2376	0.0087	0.2463	1415.2704	0.149241	-401.967361	-401.959461	-401.958517	-402.000911	29.449	
C	-0.0058764202	 1.5394276606	 0.5552924053	-0.335414
C	-0.4269847645	 0.3789853638	-0.3209996223	 0.031451
C	-0.0835200235	-1.0391564058	 0.0693574591	-0.255894
C	-1.5128743845	-0.5597906675	 0.1338338382	-0.282209
C	 1.393779915	 2.0091130528	 0.3064732269	 0.253406
C	 2.3823371901	 1.4624700699	-0.4435312417	-0.10058
O	 3.4881661969	 2.2675711663	-0.3554888213	-0.144295
C	 3.0979686472	 3.2719013441	 0.4576543068	 0.069552
N	 1.8817126083	 3.1849255529	 0.8821113875	-0.30761
H	-0.6857490413	 2.3895199289	 0.4146331115	 0.122091
H	-0.1055965826	 1.2574191637	 1.6125141818	 0.115084
H	-0.4033336499	 0.5955345005	-1.3860611724	 0.087391
H	 0.1893071781	-1.7421892874	-0.7101128294	 0.110186
H	 0.4414191646	-1.1914648209	 1.0068664798	 0.115305
H	-1.9469200376	-0.3938758982	 1.1145305205	 0.113454
H	-2.2152429491	-0.9313033704	-0.6038549741	 0.112371
H	 2.4766648255	 0.5816929194	-1.0529195148	 0.147215
H	 3.8283279173	 4.0376638072	 0.6679799986	 0.148496
