15
gdb 125261	3.05665	1.42247	0.9765	2.366	73.74	-0.23	-0.0646	0.1655	1139.7231	0.112391	-453.944369	-453.936425	-453.935481	-453.976861	30.039	
C	-0.0103434984	 1.4746958696	-0.1367850446	-0.473438
C	-0.0268851199	-0.0182538414	-0.0653442006	 0.252271
C	-1.1389569334	-0.7706467582	-0.1345356559	-0.262969
C	-1.0119417903	-2.2034513388	-0.052345771	 0.441498
O	-2.1568120612	-2.9111596144	-0.1266966779	-0.40734
N	 0.0906977955	-2.8529436394	 0.0846503163	-0.207012
O	 1.2572485179	-2.0789962459	 0.1581459725	-0.289974
C	 1.2610994552	-0.7020890496	 0.0911466962	 0.366435
N	 2.3561286321	-0.059347397	 0.1643016319	-0.527466
H	 0.6150101255	 1.8055913484	-0.9716614519	 0.15885
H	-1.01896355	 1.877057844	-0.2529524542	 0.121813
H	 0.4487200245	 1.8905187105	 0.765361862	 0.15885
H	-2.1294166535	-0.3463803653	-0.2497803487	 0.128965
H	-1.9208071121	-3.8478564927	-0.0583258158	 0.310726
H	 3.1440597283	-0.7000841997	 0.2709794916	 0.228791
