15
gdb 67909	2.49497	1.98863	1.4002	5.3993	63.98	-0.2664	0.0032	0.2696	924.5574	0.111417	-457.735112	-457.727927	-457.726983	-457.766577	27.875	
C	-0.0889957373	 1.5183631292	-0.006889927	-0.49183
C	 0.0340250842	 0.026224737	 0.0834834618	 0.439682
O	-1.2471705559	-0.6809430227	 0.0670181293	-0.279243
C	-0.9112742045	-1.4335866751	 1.1758994815	 0.468566
O	-1.5804532386	-2.2377123005	 1.7341574164	-0.323013
C	 0.4752288617	-0.7859880311	 1.3243777828	-0.356658
C	 1.5834975023	-1.4404873372	 0.4515012245	 0.033802
O	 0.943644403	-2.0978414621	-0.6398316313	-0.217129
C	 1.1522876	-0.6924458513	-0.743455662	-0.051548
H	 0.8947324402	 1.9883448189	 0.0920700404	 0.132277
H	-0.5076094073	 1.8068110939	-0.9768798659	 0.144751
H	-0.7425335213	 1.9049187301	 0.7795511999	 0.141357
H	 0.7557385638	-0.3354211975	 2.2735234784	 0.116676
H	 2.5552359028	-1.8001923322	 0.7646827008	 0.125603
H	 1.694483817	-0.3230077195	-1.6065640896	 0.116708
