19
gdb 84240	2.50066	1.91796	1.35815	1.679	81.98	-0.2112	-0.0287	0.1826	996.0416	0.158517	-385.786941	-385.779116	-385.778172	-385.818588	32.013	
C	-0.0146503533	 1.5526925396	-0.0995823438	-0.415457
C	-0.0303648598	 0.0228519292	-0.0309213567	-0.071123
C	 0.8410931403	-0.6012262692	-1.1156311477	-0.114576
C	 1.5669058985	-1.6115854497	-0.5961182319	 0.042949
C	 2.9940699248	-1.2823205865	-0.1360514883	-0.268696
C	 2.2381796927	-1.0293330351	 1.2169234835	-0.127181
C	 1.114881298	-1.9600015815	 0.8323526836	-0.163078
C	 0.6846443999	-0.597237987	 1.1971861365	 0.395625
O	 0.1464716758	-0.3888161315	 2.4627164749	-0.481084
H	 1.0105481998	 1.936907584	-0.1397319547	 0.117581
H	-0.5487556223	 1.9169542185	-0.9825320984	 0.121667
H	-0.5057861658	 1.9807638718	 0.7816820374	 0.110363
H	-1.0772671371	-0.3130559994	 0.0018027581	 0.085764
H	 1.2226887906	 0.0228924742	-1.9205784567	 0.091026
H	 3.6822789419	-2.1274186257	-0.0131356543	 0.104481
H	 3.4981459233	-0.4546195405	-0.6436831533	 0.098055
H	 2.7203630154	-0.995847975	 2.1912598086	 0.090333
H	 0.8117553279	-2.913692645	 1.2437174018	 0.096128
H	 0.3370377794	 0.5178478689	 2.7263438513	 0.287224
