19
gdb 78291	2.78552	1.31343	1.08271	1.5803	75.69	-0.2021	0.0678	0.27	1183.8781	0.156882	-422.943049	-422.934196	-422.933252	-422.975781	34.937	
C	-0.0094856621	 1.4021799226	 0.0179520487	-0.423262
C	 0.0517902082	-0.1122266417	 0.0161053969	-0.019519
C	 1.4039293102	-0.7496027679	-0.1927504839	-0.137392
C	 0.7507309628	-0.7743734073	 1.1800837849	-0.147801
C	 0.7640887909	-2.334206712	 1.1560257494	 0.343249
O	 0.9667340046	-3.0988263626	 2.2864303097	-0.449011
C	 0.0445819426	-2.9313803943	-0.0220799316	-0.415156
C	 1.4151381557	-2.3106678729	-0.2167239852	 0.29114
O	 2.5021207637	-3.0185462705	-0.6910478597	-0.455161
H	 0.8959759459	 1.8353912336	 0.456150786	 0.115908
H	-0.1067305445	 1.7926999469	-1.0007095966	 0.118846
H	-0.8660896114	 1.7597698916	 0.5991662747	 0.120757
H	-0.8304689001	-0.5773211908	-0.4116669991	 0.082278
H	 2.2762891466	-0.1807859374	-0.4921414096	 0.087569
H	 1.0466152	-0.2170578397	 2.0618640852	 0.082451
H	 1.8310756798	-2.874225606	 2.6500950546	 0.28908
H	 0.1102582492	-4.0160777746	 0.0037996154	 0.120785
H	-0.8819957391	-2.551813433	-0.441478212	 0.109332
H	 2.3441925072	-3.2390281841	-1.6163156176	 0.285906
