19
gdb 17675	4.20654	1.34582	1.29975	1.684	72.02	-0.2326	0.0554	0.288	1042.4224	0.164818	-365.018716	-365.010172	-365.009228	-365.051515	32.207	
C	 0.074602957	 1.5281559124	-0.0553919654	-0.429881
C	 0.0756118568	 0.0169490337	 0.0136971128	-0.056376
C	 1.3588265285	-0.7646478345	-0.189303517	-0.325448
C	 0.718379724	-0.7166550554	 1.1721754811	 0.364807
O	 1.4078677018	 0.0396173618	 2.139207675	-0.466805
C	 0.0720865388	-1.9605526054	 1.7152488855	-0.026243
C	 0.7309102665	-2.7479526791	 2.7832887528	-0.245191
N	-0.4996450592	-1.9793677094	 3.0706188249	-0.332354
H	 0.9832338991	 1.9450279428	 0.3883510276	 0.125383
H	 0.0255249261	 1.8712114691	-1.0940908642	 0.125297
H	-0.7879032267	 1.9542076489	 0.4709787085	 0.11548
H	-0.8248268348	-0.451826621	-0.3764393149	 0.090066
H	 1.3282491144	-1.6954091988	-0.7455702519	 0.113571
H	 2.2742307685	-0.1938153865	-0.3020603598	 0.120289
H	 0.8068243769	 0.7093251448	 2.4826609967	 0.28978
H	-0.5326073416	-2.4909211229	 0.9818930209	 0.085664
H	 0.6160356107	-3.8275301562	 2.8160282846	 0.113057
H	 1.6695422717	-2.3667349079	 3.1736936128	 0.123203
H	-0.2223854085	-1.1240358163	 3.5486503398	 0.215701
