13
gdb 29075	2.55618	1.84885	1.24639	4.386	70.77	-0.2517	-0.0754	0.1763	955.8755	0.090817	-452.78545	-452.778414	-452.77747	-452.817098	26.26	
O	-0.0838879528	 1.2141028202	-0.6447536316	-0.361845
C	 0.0193488828	-0.0082923651	-0.1368653663	 0.348053
N	 1.175125218	-0.5283780259	 0.0811516912	-0.323121
C	 1.3887916832	-1.835252745	 0.4128311149	 0.008545
C	 0.5979952159	-2.9145418274	 0.1496329374	-0.121732
C	-0.6970039335	-2.8344552142	-0.4613502846	 0.003222
N	-1.5263161497	-1.842891088	-0.4474558633	-0.239384
C	-1.2993525056	-0.6601108038	 0.2248663304	 0.315033
O	-2.0695079716	-0.1403552491	 0.9943056602	-0.30727
H	 0.8174233765	 1.5294654589	-0.8198141435	 0.311791
H	 2.3708620703	-2.0114384099	 0.8452724951	 0.126866
H	 1.0149577632	-3.9029594602	 0.3125498297	 0.111364
H	-1.0337448766	-3.7197656504	-1.0054094094	 0.128478
