21
gdb 103329	3.63028	1.1327	1.01473	2.1663	79.54	-0.2471	0.0604	0.3074	1256.5487	0.182337	-424.164948	-424.156034	-424.15509	-424.198025	35.281	
C	-0.3726575547	 1.5187307664	 0.3157358578	-0.449323
C	-0.0111091986	 0.0435087243	 0.2309404214	 0.058256
C	 1.2918701258	-0.4509014913	-0.5005215569	-0.130252
C	 2.0949733812	 0.0604871266	 0.7321315231	-0.257162
C	 0.856973478	-0.6674786816	 1.3280841601	-0.132321
C	 1.0978861753	-1.7972754516	 0.2528714237	 0.501266
O	-0.0175616661	-2.5475870031	-0.1708315348	-0.501726
C	 2.258362863	-2.7765471382	 0.4120800753	-0.185172
O	 1.7830892603	-3.8088142853	 1.2852343015	-0.435443
H	 0.4609659673	 2.1768134009	 0.5730332022	 0.11295
H	-0.7773369007	 1.8619229011	-0.6431865045	 0.116059
H	-1.1548768479	 1.6707027518	 1.0681803878	 0.116131
H	-0.8942352924	-0.5312670082	-0.0444748505	 0.096595
H	 1.5443212942	-0.3304338675	-1.5566336876	 0.062303
H	 3.0828898643	-0.3621605445	 0.9153461364	 0.087798
H	 2.1306703636	 1.1401288827	 0.8651122629	 0.097703
H	 0.6114479042	-0.8031578996	 2.3830533223	 0.06632
H	 0.019817452	-3.3660448967	 0.3416781498	 0.284779
H	 2.4997144779	-3.1901048949	-0.5777117546	 0.098021
H	 3.1607798471	-2.3167952314	 0.8249209111	 0.098563
H	 2.3634582762	-4.5701440501	 1.2018630733	 0.294655
