16
gdb 16045	3.51924	1.7285	1.43639	1.8572	72.65	-0.2319	0.0356	0.2675	906.6655	0.129568	-346.537451	-346.529789	-346.528845	-346.568962	29.56	
O	-0.2677701772	 1.4414544834	-0.027205752	-0.418532
C	-0.1490827351	 0.050465083	 0.0302058481	 0.051888
C	-0.4722087079	-0.7444213986	 1.2566023518	-0.172605
C	-1.592520665	-0.073904644	 2.0570396608	-0.223241
C	-2.5131529294	-0.0949776171	 0.7999734855	-0.284386
C	-1.3971556618	-0.7847379659	-0.0115928515	 0.171487
C	-1.5987579655	-1.817927894	-0.9686523391	 0.174039
C	-1.7868381959	-2.6956823917	-1.7713045032	-0.402211
H	 0.4421001951	 1.823161337	 0.5004423918	 0.289465
H	 0.6610529849	-0.362259509	-0.5709004621	 0.098105
H	 0.1901492916	-1.521771216	 1.620069544	 0.097275
H	-1.9713066022	-0.7087433071	 2.8596446496	 0.107444
H	-1.353716321	 0.9111563575	 2.4673582712	 0.097824
H	-3.3801471176	-0.7440353146	 0.9279959139	 0.114008
H	-2.8340440541	 0.8719878719	 0.4084819288	 0.116552
H	-1.9501490988	-3.4656875048	-2.4835017677	 0.182887
