17
gdb 14685	9.10266	0.6161	0.60132	3.6682	71.77	-0.2451	-0.0213	0.2239	1798.1295	0.138843	-400.997497	-400.987821	-400.986877	-401.034272	31.207	
C	 0.0368502157	 1.3816381245	 0.0637430278	-0.250765
O	 0.0669843635	-0.038689731	-0.0270306773	-0.190266
C	-1.1302348935	-0.6496579202	 0.0003446746	 0.132445
N	-1.2135166159	-1.9028787529	-0.0889548051	-0.208963
C	-2.5386483071	-2.4866233793	-0.0542257087	-0.165897
C	-2.8205860484	-3.2494951666	-1.3619500919	-0.255959
C	-4.0750097191	-4.0843447708	-1.2691717134	 0.155108
O	-5.0108337762	-4.0171325813	-2.0237105056	-0.236433
H	 1.0762179877	 1.7110080236	 0.0538464446	 0.149824
H	-0.4890620081	 1.8269247976	-0.7892626854	 0.130421
H	-0.4362224849	 1.7142407428	 0.9954799859	 0.129479
H	-1.9906607501	 0.0301754307	 0.1094262041	 0.076817
H	-2.5796207917	-3.1956074083	 0.7837443982	 0.112854
H	-3.3331388873	-1.7395587932	 0.1161674563	 0.094694
H	-2.9034586501	-2.5664108636	-2.2113145462	 0.120072
H	-1.972609795	-3.9240289314	-1.542573991	 0.136133
H	-4.0824028295	-4.8024881206	-0.414192007	 0.070436
