15
gdb 55231	3.55429	1.10324	1.02998	2.1613	62.05	-0.2647	-0.045	0.2197	1167.3567	0.110499	-494.949474	-494.940878	-494.939934	-494.984299	29.591	
C	-0.8894832622	 1.0368991781	 0.1787160099	-0.492276
C	 0.2007423711	 0.0203302916	-0.0511074663	 0.380256
O	 1.1940825551	-0.0861794813	 0.6222704085	-0.281588
C	-0.005031067	-0.9479861753	-1.2356512774	 0.129756
O	-1.1777851891	-1.7072396374	-1.0296687416	-0.260883
C	-1.7802454715	-1.8964145013	-2.2966385125	-0.225848
C	-1.2214891932	-0.7700667268	-3.1563011589	 0.406008
O	-1.5578197367	-0.3968754968	-4.2361144437	-0.309072
O	-0.195485671	-0.2138890331	-2.4445122807	-0.230531
H	-0.9760691793	 1.6915752749	-0.6946915652	 0.162981
H	-1.8508320783	 0.5277042891	 0.2979746155	 0.155594
H	-0.6611376085	 1.6274565545	 1.0656659267	 0.149427
H	 0.8855800684	-1.5832632345	-1.3366107156	 0.112575
H	-1.5187472911	-2.867449105	-2.7416225205	 0.145173
H	-2.8663580464	-1.8266632666	-2.2080676182	 0.158428
