21
gdb 78758	2.90379	1.47455	1.16481	1.769	82.64	-0.2393	0.0789	0.3182	1138.1152	0.181559	-387.050288	-387.041532	-387.040588	-387.082789	34.987	
C	 0.0641018169	 1.4414731695	 0.0932164682	-0.503805
C	-0.0046384969	-0.0546190008	 0.0055898696	 0.349855
C	-1.2515258985	-0.9092027594	-0.2354295887	-0.329755
C	-0.4020255192	-2.1205103916	 0.2344874764	 0.285252
C	-1.017878438	-3.3514794791	 0.8395569192	-0.506827
C	 0.584319791	-1.0835476567	 0.9414503183	-0.212322
C	 1.1939403789	-0.9001954163	-0.4413113745	-0.157226
C	 0.6665283142	-2.2546684925	-0.9005224682	 0.117948
O	 1.5798462812	-3.3170621322	-0.7217815855	-0.446022
H	 1.0510709079	 1.7754461837	 0.4311092749	 0.117754
H	-0.1278351796	 1.907183045	-0.8806137381	 0.120837
H	-0.6786446882	 1.829340609	 0.7997159382	 0.117814
H	-2.0427603553	-0.6616483463	 0.4806426902	 0.091127
H	-1.6772438876	-0.9550581724	-1.2465654028	 0.083452
H	-1.7222868259	-3.8137988395	 0.1375764113	 0.119388
H	-0.2510060603	-4.096943025	 1.0728138876	 0.119269
H	-1.5667117127	-3.1185112791	 1.7581475526	 0.113027
H	 0.9963051699	-0.9902874609	 1.9368389462	 0.085387
H	 2.1403178429	-0.4394290252	-0.6997232042	 0.083132
H	 0.2864785685	-2.3621930967	-1.9229929553	 0.074135
H	 2.0539330608	-3.1509367036	 0.1022155746	 0.277579
