21
gdb 107680	3.03882	1.23919	1.04157	0.6298	77.91	-0.241	0.0737	0.3147	1213.0216	0.183856	-424.211926	-424.203389	-424.202445	-424.244945	33.427	
O	 0.1650257296	 1.3459392336	 0.2816696414	-0.416334
C	 0.0043566393	 0.0200408835	-0.2025845343	-0.131047
C	-1.417429596	-0.4838314047	-0.0574879931	 0.259288
C	-1.7725966755	-1.115669193	 1.2802119071	-0.358741
C	-1.6133413076	-1.9775761263	 0.0511837919	 0.064658
O	-2.7523285073	-2.5963289059	-0.4730512964	-0.25933
C	-3.3995050367	-1.8863355306	-1.5212789819	-0.058416
C	-3.7477465908	-0.4641243841	-1.0916429437	-0.229484
C	-2.457421988	 0.3249431152	-0.824975326	-0.25732
H	-0.1197885777	 1.3499922854	 1.2020436979	 0.283029
H	 0.2865321546	 0.0618343198	-1.2611376821	 0.108285
H	 0.70144416	-0.6732739561	 0.2955199376	 0.081727
H	-1.0086548399	-1.1617211939	 2.0510147767	 0.103474
H	-2.7845034469	-1.0027043676	 1.6533339094	 0.117888
H	-0.7344539156	-2.6167321329	-0.0137962858	 0.089436
H	-2.7637095819	-1.8623548626	-2.4222310346	 0.086176
H	-4.2946930833	-2.4688941052	-1.7557839743	 0.107112
H	-4.3363893507	 0.0323466095	-1.8706913689	 0.09911
H	-4.3770441188	-0.5134973829	-0.1951973102	 0.105846
H	-2.6659898969	 1.2676357601	-0.3090366663	 0.104144
H	-2.0143648098	 0.5993818887	-1.7918611843	 0.1005
