19
gdb 46048	3.63518	1.03655	0.92206	4.4094	75.05	-0.2616	0.0163	0.2778	1302.8014	0.160492	-423.062064	-423.05392	-423.052976	-423.095571	30.7	
O	-0.4687418163	 0.3820400108	-0.9157233397	-0.335774
C	-0.2780543756	 1.4173999639	-0.3486042551	 0.431198
C	-1.1749918718	 2.137441774	 0.6533257838	-0.371977
C	-0.6146863324	 3.56828849	 0.692087643	-0.04583
C	 0.8606668466	 3.3108486749	 0.3162392651	-0.091058
O	 0.8579474	 2.1494684106	-0.5301639829	-0.219627
C	-1.3022448175	 4.4872879593	-0.2983895737	 0.036708
C	-2.5531182194	 5.2302171954	 0.0930671908	-0.278575
C	-1.258827884	 5.9819531048	-0.1085716705	-0.279148
H	-2.2203714562	 2.0688397244	 0.349536556	 0.141291
H	-1.0738564367	 1.628879008	 1.6189112117	 0.134474
H	-0.6814746855	 4.0066302641	 1.6924362237	 0.078839
H	 1.309828268	 4.1330399106	-0.2449298666	 0.126748
H	 1.4801503352	 3.1009530966	 1.1964205023	 0.111011
H	-1.2593498834	 4.1382320878	-1.3279724256	 0.098282
H	-3.3386301884	 5.3465787549	-0.644922224	 0.119226
H	-2.9149690796	 5.1135521365	 1.1097846193	 0.113574
H	-0.7581731402	 6.3679709428	 0.7738703712	 0.112031
H	-1.1588192129	 6.6126149906	-0.9846843289	 0.118608
