19
gdb 97595	4.23524	0.58551	0.52857	1.7622	88.4	-0.2458	0.0282	0.274	2044.174	0.155397	-385.822117	-385.811057	-385.810113	-385.861045	38.226	
C	 0.0332477683	 1.58012926	 0.0066276017	-0.384776
C	 0.0245685737	 0.040408489	-0.0243275376	-0.163438
C	-1.4235845953	-0.5319679204	 0.036091408	-0.346759
C	-2.1212263856	-0.1894446539	 1.2686735622	 0.302755
C	-2.6745824032	 0.0967823001	 2.2970173689	-0.447926
C	 0.711762942	-0.4707863911	-1.2085172554	 0.055864
C	 1.2537414752	-0.8951261382	-2.1964823801	 0.117374
C	 1.9269486165	-1.3870327057	-3.3918937327	-0.21643
O	 1.9310650489	-2.8102260918	-3.3881937183	-0.409158
H	 1.057919415	 1.9599793825	 0.0062960703	 0.124133
H	-0.4796006677	 1.9855671409	-0.8712277638	 0.121927
H	-0.475901956	 1.9397484218	 0.9043927165	 0.132842
H	 0.5509639452	-0.32212747	 0.8681050876	 0.117206
H	-1.9849812527	-0.1603944441	-0.8299589971	 0.136258
H	-1.3764579532	-1.6212294113	-0.0713109679	 0.144603
H	-3.1766401033	 0.3421906931	 3.1998369264	 0.19552
H	 1.4121389909	-0.9935848179	-4.2838514503	 0.114755
H	 2.9536943965	-0.9862238225	-3.4164204904	 0.116111
H	 2.3827366449	-3.0967739306	-4.188620208	 0.28914
