17
gdb 8375	5.01438	1.32145	1.21383	2.631	69.81	-0.2355	-0.0243	0.2112	1020.7422	0.140358	-363.836027	-363.828249	-363.827305	-363.868306	29.347	
C	 0.0173200853	 1.4614932931	-0.2540810134	-0.317213
N	 0.112989237	 0.0208761772	-0.0686248034	-0.120121
C	 1.4611303535	-0.5496775285	-0.0273653882	-0.313183
C	 0.6247818514	-0.4703313153	 1.195304952	 0.35196
C	 0.9266841165	 0.3403188482	 2.4760564571	-0.428941
C	 0.3665055588	-0.8574409632	 3.2723340065	 0.405437
O	 0.3007515935	-1.1095899579	 4.4390437538	-0.287301
C	-0.0332988648	-1.6114888655	 1.9903679884	-0.417035
H	 0.8300752786	 2.0274681092	 0.2302327022	 0.102932
H	 0.0378479344	 1.6836643977	-1.3253066828	 0.128823
H	-0.936785124	 1.8191433913	 0.1466917063	 0.124611
H	 1.5935764168	-1.4939523018	-0.5499738996	 0.118416
H	 2.3071279296	 0.134352459	-0.0972750244	 0.108433
H	 1.969793219	 0.5901313138	 2.6894092987	 0.134304
H	 0.3218526003	 1.245847582	 2.6003512098	 0.135645
H	-1.1167213883	-1.6877634709	 1.8490606462	 0.139782
H	 0.4044787624	-2.6089526184	 1.8881653307	 0.13345
