19
gdb 17329	3.44827	2.10265	1.7641	1.4851	73.82	-0.2177	0.0825	0.3002	840.3965	0.16737	-327.89272	-327.885795	-327.884851	-327.923253	28.33	
C	-0.01465015	 1.5125414566	 0.0005982155	-0.490382
C	 0.0303380591	 0.0019002211	 0.0142778623	 0.366663
C	-0.8646290807	-0.7745253756	 0.9524843757	-0.346283
C	 0.6314240014	-0.8000333398	 1.1547011443	-0.077346
C	 1.4611271577	-1.9263228523	 0.5378408235	-0.187468
N	 1.4275024511	-1.7942008153	-0.94071235	-0.096488
C	 0.1341036038	-2.0837436922	-1.5740561568	-0.256933
C	 0.5056047715	-0.6808182375	-1.2576994393	-0.085613
H	 0.9391264048	 1.9359673027	-0.3349446417	 0.120635
H	-0.7979509315	 1.8838127778	-0.670589708	 0.12023
H	-0.2223981079	 1.9076192959	 0.9996270104	 0.115227
H	-1.4421548507	-0.1898565096	 1.6627282427	 0.107195
H	-1.3803775649	-1.6653343575	 0.613053385	 0.110565
H	 1.0329485781	-0.3000393571	 2.030851442	 0.084032
H	 2.5048442173	-1.8257923015	 0.853693919	 0.109343
H	 1.1280112954	-2.9277098685	 0.8350598664	 0.104144
H	 0.2059606718	-2.4465376775	-2.5969741578	 0.110288
H	-0.6428435638	-2.5695123135	-0.9916198493	 0.108233
H	 0.8130381676	-0.0160036861	-2.0618540437	 0.083957
