15
gdb 132901	3.13712	1.41145	0.97936	4.4649	74.09	-0.2109	-0.0445	0.1664	1131.6165	0.113894	-458.149446	-458.141674	-458.14073	-458.18191	29.085	
C	-0.0108054045	 1.5481545432	 0.0160928759	-0.499984
C	-0.0328256333	 0.0474568429	 0.003308679	 0.068898
C	-1.1511447265	-0.712155646	-0.1546973639	-0.012349
N	-1.0865266024	-2.0629505877	-0.1550422503	-0.319954
C	 0.1132475537	-2.7858346777	 0.0039901139	 0.425529
N	 0.0417025061	-4.0590659448	-0.0146123396	-0.573039
N	 1.2608227853	-2.0162992805	 0.1662769924	-0.373026
C	 1.1552124321	-0.7396444093	 0.1604910122	 0.295527
F	 2.278668317	-0.0435050571	 0.3188880758	-0.061652
H	 0.6222195181	 1.949454522	-0.7826189962	 0.142392
H	-1.0188586194	 1.9496291285	-0.1192678431	 0.123363
H	 0.3837003108	 1.93803828	 0.9605568164	 0.142388
H	-2.136759447	-0.2798463281	-0.2864498206	 0.141815
H	-1.9148446796	-2.6268502926	-0.2721033686	 0.274012
H	 0.9748957496	-4.445168843	 0.1103422168	 0.226081
