19
gdb 38185	4.57353	1.0611	1.04756	2.9702	74.46	-0.2403	0.0766	0.3168	1205.7727	0.159699	-422.95144	-422.943603	-422.942659	-422.984507	29.576	
C	 0.107448582	 1.4695398476	 0.0917221679	-0.306969
C	 1.3847115927	 0.6995476796	 0.1903348993	 0.113723
O	 1.4919757084	 0.0368508215	 1.4529488226	-0.297314
C	 0.3089521792	-0.764687913	 1.1456779648	 0.09535
C	 0.110846668	-0.0225043859	-0.1775705116	-0.134833
C	 0.6338456655	-2.238922013	 1.0513767788	-0.055961
C	 1.8759101288	-2.6978138717	 0.2534730826	-0.07997
O	 2.4031960348	-3.3984017179	 1.3974985645	-0.272169
C	 1.3644940161	-2.882120958	 2.2531373188	-0.08807
H	-0.3499016504	 1.8677356378	 0.9935214002	 0.117992
H	 0.0009588971	 2.0889504726	-0.7936812572	 0.117394
H	 2.2995247814	 0.9143235753	-0.3496164237	 0.106919
H	-0.4733655173	-0.6039970516	 1.9009823075	 0.08265
H	-0.2152874467	-0.4650059498	-1.1094060273	 0.100867
H	-0.2753949458	-2.7787434622	 0.7682014029	 0.082707
H	 1.6921047097	-3.3710309347	-0.5919814417	 0.096248
H	 2.5388751517	-1.8855163484	-0.0657012299	 0.1086
H	 1.7559469909	-2.1572046464	 2.9776609021	 0.114339
H	 0.831997334	-3.6794300818	 2.7844088694	 0.098496
