15
gdb 1233	7.7386	1.09758	0.99907	1.2253	78.98	-0.24	-0.0083	0.2318	1154.0398	0.122618	-271.339821	-271.331571	-271.330626	-271.37208	29.594	
C	-0.0363456437	 1.5531323303	 0.0074470504	-0.376075
C	 0.0418067821	 0.0121559843	-0.000870747	-0.166141
C	 0.7158101825	-0.512074033	-1.2860485751	-0.376076
C	 0.7252814439	-0.4843267466	 1.1892609942	 0.499888
C	 1.2981083291	-0.8929073174	 2.1747665215	-0.370088
C	 1.9463682277	-1.3495562588	 3.2808427538	 0.304184
C	 2.5207057743	-1.7553670787	 4.2627604431	-0.566503
H	 0.9664221139	 1.9894828603	-0.0241992772	 0.128757
H	-0.5928427225	 1.9041813783	-0.8671327793	 0.116428
H	-0.5378724268	 1.9177219218	 0.9073683696	 0.128907
H	-0.9862978377	-0.3766883981	 0.0221281313	 0.114021
H	 1.7430917238	-0.1430319607	-1.35985152	 0.128757
H	 0.7449145645	-1.6044597191	-1.2986753594	 0.128907
H	 0.1621559359	-0.1688291105	-2.1655167272	 0.116427
H	 3.0270154329	-2.1111798321	 5.1251700413	 0.188607
