18
gdb 70197	3.66294	1.33825	1.15667	4.6431	73.81	-0.2405	0.0458	0.2863	1097.2275	0.148192	-439.086858	-439.078829	-439.077885	-439.11941	30.991	
C	-0.3339393493	 1.5434691089	 0.0857393923	-0.476246
C	-0.0360849603	 0.0632292398	 0.022942471	 0.269528
C	-0.7219934285	-0.9130104176	 0.9662939823	-0.370658
C	 0.7491947854	-0.6191583799	 1.0957968871	 0.093487
O	 1.7338844606	-1.5631868395	 0.7348265871	-0.231545
C	 1.6032927998	-2.2834062079	-0.3993448812	 0.449185
N	 2.3173507727	-3.3100090192	-0.5625176999	-0.547938
O	 0.6666757437	-1.8656444578	-1.298591884	-0.263326
C	 0.3222558299	-0.4747042926	-1.344844913	-0.146269
H	 0.493909527	 2.1343953035	-0.3228552334	 0.126295
H	-1.2373333567	 1.7901952364	-0.4840978365	 0.126261
H	-0.4966928548	 1.8663939383	 1.1180857203	 0.125845
H	-1.3777521832	-0.5081641328	 1.7295712694	 0.120304
H	-1.0174548443	-1.8802081532	 0.5765863517	 0.142064
H	 1.10854388	-0.0671185201	 1.9557804847	 0.115087
H	 2.1423055308	-3.6978857292	-1.48705405	 0.226257
H	-0.5161171923	-0.4132535572	-2.0448474756	 0.125395
H	 1.1627459796	 0.0966257703	-1.7642903823	 0.116275
