15
gdb 19239	3.03694	2.14521	1.60725	2.8492	64.67	-0.2469	0.0046	0.2515	817.4554	0.120505	-358.797952	-358.790767	-358.789823	-358.829284	27.005	
N	-0.0843515613	 1.510940584	 0.2131452984	-0.509029
C	-0.0522793458	 0.0965351329	-0.0236596864	 0.004331
C	-1.3807231251	-0.6458409711	-0.0364557723	-0.008992
C	-2.1665960855	-0.3880648137	-1.2579177212	-0.254199
N	-1.0739654985	-1.3757175213	-1.3433874866	-0.131045
C	 0.2039285972	-0.5781881287	-1.4490692928	-0.173993
C	 0.306873826	 0.3289419533	-2.5795336906	 0.303978
N	 0.3742286153	 1.1065844003	-3.4336625613	-0.332236
H	 0.8478801433	 1.9109692213	 0.2144605907	 0.240686
H	-0.6232886773	 2.0022064983	-0.4920797755	 0.242489
H	 0.6402361878	-0.3571175983	 0.6888102884	 0.108758
H	-1.7995954847	-1.169715631	 0.8157301972	 0.108913
H	-3.1450422695	-0.8534958866	-1.3173424268	 0.136778
H	-2.0839103945	 0.546264016	-1.8074509339	 0.134968
H	 1.0560171525	-1.2605839055	-1.4454774773	 0.128593
