18
gdb 14949	4.33772	1.3512	1.11093	2.8718	68.81	-0.2454	-0.0274	0.218	1060.4843	0.154862	-384.95783	-384.950227	-384.949283	-384.99036	28.147	
O	-0.1282840241	-0.0055362158	 0.1022659737	-0.245908
C	-0.0170992815	 1.1909602301	 0.0276896935	 0.148395
C	 1.2917908004	 1.9464760691	-0.0043735258	-0.074582
C	 1.3791510765	 2.82831947	-1.2693464865	-0.221954
C	 2.6108240732	 3.7412387322	-1.2061057292	-0.210481
C	 2.635628597	 4.5063473892	 0.1171877647	-0.066479
O	 2.5910158317	 3.623671892	 1.2272005145	-0.241091
C	 1.4170390565	 2.840415864	 1.2499209749	-0.088794
H	-0.9208069415	 1.8458219289	-0.0237710879	 0.069404
H	 2.1034127351	 1.2120869594	 0.0033412671	 0.100893
H	 1.4046884487	 2.2004063032	-2.1658377259	 0.112356
H	 0.4715649943	 3.4448898247	-1.3402291915	 0.100461
H	 3.5239315148	 3.1395529278	-1.2847055984	 0.111393
H	 2.6098824788	 4.4466537663	-2.0444562829	 0.100598
H	 3.5565326661	 5.0854734368	 0.2274355341	 0.110797
H	 1.7851763348	 5.2094566103	 0.1618538901	 0.085568
H	 0.525746866	 3.4887698038	 1.3303692202	 0.086767
H	 1.4727330834	 2.2285638678	 2.1544508553	 0.122657
