16
gdb 67786	2.78069	2.40423	1.67905	2.3188	70.66	-0.23	-0.0069	0.2231	815.0357	0.125993	-400.674828	-400.668665	-400.667721	-400.704793	26.602	
O	-0.0661422818	 1.3517870094	-0.0064624483	-0.503905
C	 0.0605223038	-0.0394332295	-0.0068369672	 0.39193
C	 0.9861523657	-0.6920088825	-0.9984293541	-0.176732
C	 1.2180396336	-1.9464702649	-0.5872467502	-0.07264
C	 0.4576541581	-2.1622809631	 0.6856011852	-0.03083
C	 0.3123335913	-0.7828688461	 1.3582655799	-0.16102
C	-1.2188582337	-1.0440830502	 1.4932456601	-0.06156
C	-1.3396107743	-0.7266941221	 0.0593025015	-0.067406
N	-1.0934148221	-2.1332555507	 0.4840571671	-0.159543
H	 0.8124045721	 1.7312791348	 0.1036575029	 0.279724
H	 1.2941674241	-0.2335413937	-1.9309605428	 0.106496
H	 1.7591992487	-2.7167953126	-1.1224726471	 0.106966
H	 0.7085914872	-3.0279308596	 1.2962639489	 0.078451
H	 1.0178279757	-0.382885474	 2.0867055133	 0.070361
H	-1.9175147678	-1.0584800518	 2.3176564536	 0.099403
H	-2.1987318505	-0.5245428836	-0.5665432229	 0.100305
