10
gdb 216	6.4337	5.94958	3.09109	0.	49.2	-0.2493	-0.0511	0.1982	408.933	0.07674	-264.255612	-264.251446	-264.250502	-264.282954	15.146	
C	-0.0131276895	 1.3029835049	 0.009802331	-0.004974
C	 1.184075611	 2.0161220565	 0.0017998571	-0.004974
N	 2.3712902603	 1.4071747369	-0.0130311494	-0.226909
C	 2.3412924155	 0.0731681362	-0.0197295035	-0.004974
C	 1.1440902337	-0.6399699239	-0.0117335292	-0.004974
N	-0.0431257959	-0.0310220696	 0.0031011054	-0.22691
H	-0.9696466206	 1.8195305987	 0.0218948816	 0.118429
H	 1.1854464402	 3.1032564599	 0.0074803413	 0.118429
H	 3.2978119777	-0.4433776558	-0.0318094949	 0.118429
H	 1.1427176776	-1.7271041139	-0.0174249395	 0.118429
