18
gdb 99487	2.59362	1.10468	0.81481	2.8263	73.39	-0.2893	-0.0089	0.2804	1419.7817	0.145309	-439.136264	-439.125902	-439.124957	-439.173639	34.924	
C	-0.0370523645	 1.5858835682	 0.013198626	-0.404149
C	-0.046661303	 0.0572470997	 0.0155310189	-0.170675
C	 0.7410788473	-0.5518018172	 1.195337801	-0.286613
C	 0.1578971247	-0.1892130314	 2.4891182678	 0.293915
N	-0.3297668737	 0.1310764733	 3.4863878661	-0.328412
C	 0.8914901166	-2.076281935	 1.0473934916	 0.471654
O	 0.6886209117	-2.6752209855	 0.0248470904	-0.352388
O	 1.3189607397	-2.6300579482	 2.1867839024	-0.222941
C	 1.5221718715	-4.0523065478	 2.1492624727	-0.243844
H	 0.9835992395	 1.978151432	-0.057840942	 0.118434
H	-0.6002955442	 1.9681190915	-0.8424948973	 0.125614
H	-0.4903374277	 1.992032824	 0.9225402922	 0.144492
H	-1.0736379541	-0.3199096959	 0.0507250313	 0.125982
H	 0.3973864522	-0.339045893	-0.9009401634	 0.131072
H	 1.7657026619	-0.1518773027	 1.1837993427	 0.155587
H	 0.5916670105	-4.5621711174	 1.8901296802	 0.150153
H	 2.2864386152	-4.3089112242	 1.4118725873	 0.145714
H	 1.8459418762	-4.3280657506	 3.151960412	 0.146407
