12
gdb 381	7.3849	2.26347	1.83608	3.5369	46.88	-0.2549	0.0078	0.2627	640.0746	0.096532	-302.545562	-302.538783	-302.537839	-302.575827	23.453	
N	-0.0482867912	 1.4774326216	 0.0426437867	-0.511659
C	 0.0276407827	 0.0242161112	-0.0132029444	-0.157699
C	-1.4049854537	-0.5303393194	-0.0288435605	 0.004669
O	-2.1321988846	-0.0879021652	-1.1649408144	-0.414034
C	-1.4021609999	-2.0022752409	 0.0643881175	 0.251384
N	-1.3818312989	-3.1569732622	 0.1035592803	-0.312919
H	 0.8810682499	 1.8822188497	 0.0145198641	 0.235508
H	-0.5506136747	 1.8156815623	-0.772291928	 0.238254
H	 0.5634642341	-0.3886087729	-0.8877109532	 0.089996
H	 0.5408646762	-0.3477925173	 0.8805146004	 0.128002
H	-1.9391228184	-0.1211470731	 0.8347349552	 0.152215
H	-1.7764622915	-0.5343358638	-1.9426978435	 0.296283
