15
gdb 27202	3.41014	1.64393	1.11574	2.4722	74.73	-0.1754	0.0186	0.1939	1014.324	0.116689	-413.024153	-413.016619	-413.015675	-413.056622	28.616	
N	 0.150875469	 1.4013758806	 0.0088359136	-0.613578
C	-0.0164052788	-0.0014082219	 0.0114425109	 0.102555
C	-1.0985229232	-0.8697637657	-0.014390944	 0.245662
N	-2.4876343361	-0.8726876669	-0.0534574547	-0.369123
C	-2.7958198132	-2.1409297152	-0.0554556904	-0.001848
N	-1.7118527405	-3.0030315283	-0.0204893576	-0.430246
C	-0.5863101256	-2.1982383294	 0.0071059596	 0.306255
C	 0.7900745286	-2.1594110963	 0.0456340226	-0.244241
N	 1.0984163775	-0.8100082479	 0.0472786419	-0.242917
H	-0.2636717733	 1.8174453588	-0.8198186955	 0.246397
H	-0.3139661814	 1.826252433	 0.8056996953	 0.246455
H	-3.8038690429	-2.5326538833	-0.0817655698	 0.121536
H	-1.7580861908	-4.0063758191	-0.0157025058	 0.259088
H	 1.557178757	-2.9135698955	 0.0711645743	 0.114486
H	 2.0278576535	-0.425439363	 0.0716564396	 0.259518
