17
gdb 42845	2.73598	1.8644	1.61071	3.7865	70.63	-0.2381	-0.0082	0.23	895.3458	0.138178	-421.803087	-421.796492	-421.795548	-421.834038	26.654	
O	-0.0641851787	-0.0213913635	 0.1680503433	-0.326427
C	-0.049619725	 1.163287359	 0.0256391278	 0.444502
C	-1.0945102874	 2.2973581955	 0.087441135	-0.162539
C	 0.0196176697	 3.0110920599	 0.9406942428	-0.257138
C	 1.0232855949	 2.2657201506	-0.016168791	-0.173456
C	 0.671868824	 2.9512949595	-1.3496546348	 0.133565
O	 0.618406107	 2.0864096218	-2.5028146863	-0.298572
C	-0.8294845631	 2.1545358608	-2.5537375576	-0.109421
C	-0.8840205872	 3.0031720592	-1.2661124779	-0.070065
H	-2.1067125825	 2.1335662304	 0.4508109479	 0.088427
H	 0.0288841784	 4.1030475368	 0.8961283411	 0.113323
H	 0.072600542	 2.6657465186	 1.9737965238	 0.126402
H	 2.0663061307	 2.0845704159	 0.2320398873	 0.091104
H	 1.2441297429	 3.863880856	-1.5416177336	 0.084616
H	-1.1708341982	 2.6750852141	-3.4561328812	 0.105954
H	-1.2900406396	 1.1610126108	-2.5109187555	 0.121464
H	-1.3874771879	 3.9678669045	-1.3316964514	 0.088261
