18
gdb 65676	3.42142	1.16425	1.10577	2.3321	72.48	-0.2379	0.0217	0.2597	1154.8325	0.14675	-439.059225	-439.050605	-439.04966	-439.092951	31.998	
C	 0.1715468374	 1.6386500203	 0.1416402642	-0.466811
C	 0.0541496236	 0.1375818106	-0.0101269647	 0.293092
N	-1.0812463562	-0.4635251123	 0.6456145727	-0.337076
C	-2.3305059591	-0.5456462086	 0.0996377995	 0.151236
O	-2.6277258249	-0.2327981257	-1.0314915581	-0.320465
C	 0.4374289516	-0.6279403242	-1.2706253334	-0.140399
C	 1.7165431953	-0.0480826446	-1.8578871996	-0.107149
O	 2.3955183322	-0.1443041463	-0.5702823481	-0.289765
C	 1.252571907	-0.7844474077	-0.0097347158	 0.042281
H	 1.1438507427	 1.9909538394	-0.2076913042	 0.140998
H	-0.6189565763	 2.1455175525	-0.4197371657	 0.139217
H	 0.0772949355	 1.9201536385	 1.1962190276	 0.110375
H	-1.0021312864	-0.6593804726	 1.6331244878	 0.246513
H	-3.0596231717	-0.9613840515	 0.82516823	 0.07699
H	-0.2613060523	-1.2825781755	-1.7688331272	 0.123894
H	 2.1949431029	-0.711623646	-2.585726313	 0.118793
H	 1.6938212196	 0.9757735312	-2.2459273463	 0.114063
H	 1.4081952891	-1.6022208075	 0.6863286743	 0.104214
