13
gdb 10237	2.204	1.95137	1.33323	2.8679	64.58	-0.2708	-0.0492	0.2216	942.4754	0.091916	-361.451461	-361.44274	-361.441796	-361.485542	29.678	
C	-0.8889706996	 0.3786491652	 0.6627222899	-0.491417
C	 0.3702544573	 0.1757547402	-0.1398289919	 0.400968
O	 1.4193053869	 0.7147893452	 0.0766308874	-0.271862
C	 0.2811708638	-0.8468117771	-1.3432573984	-0.386682
C	 0.1348065182	-2.2052950083	-0.8286191632	 0.315884
C	 0.032520689	-3.3052136243	-0.3588860115	-0.427543
C	-0.8061237968	-0.4819083964	-2.2581710197	 0.287079
N	-1.6618565357	-0.153797975	-2.9615232817	-0.316659
H	-1.6522700093	 0.852437571	 0.0359727762	 0.175443
H	-1.2916298376	-0.5862887288	 0.9849957146	 0.163509
H	-0.6754115253	 1.0098704131	 1.5250607514	 0.155101
H	 1.234619975	-0.7432881994	-1.8729443544	 0.177283
H	-0.0579162561	-4.2864695455	 0.0389536813	 0.218895
