20
gdb 40433	3.99415	1.18883	1.06218	1.1585	78.43	-0.2449	0.0885	0.3334	1186.4312	0.173248	-403.114979	-403.107187	-403.106243	-403.147425	30.689	
C	-0.302525268	 1.2523978332	-0.2959171323	-0.268925
C	 1.0966554161	 1.1871971815	 0.2576913682	-0.263879
C	 0.2904673227	-0.0801945326	 0.0780672005	-0.096534
C	-0.1996913557	-0.8246095339	 1.2761231301	 0.32132
C	 0.6420796731	-1.96533564	 1.8360346985	-0.153008
O	-0.2067059301	-2.6681235108	 2.7394879475	-0.260993
C	-1.5440970432	-2.5659138842	 2.251704816	-0.108882
C	-1.6083858718	-1.2189207219	 1.5600308255	-0.089357
N	-0.9901113695	-0.0936917465	 2.2762193839	-0.37506
H	-1.0723027203	 1.6441787839	 0.3582858364	 0.134603
H	-0.4334824075	 1.4718063438	-1.3496565042	 0.105739
H	 1.933263348	 1.3649389724	-0.4087834262	 0.10837
H	 1.2416230471	 1.5407632949	 1.2726708452	 0.117808
H	 0.5904877624	-0.7259004568	-0.7436074822	 0.080248
H	 0.9815038677	-2.6146726158	 1.0120094004	 0.093181
H	 1.5219785557	-1.6360890447	 2.3992240978	 0.113033
H	-1.7771347144	-3.3693707807	 1.5337944576	 0.097482
H	-2.2132398594	-2.6675652509	 3.1130753526	 0.113045
H	-2.4393211648	-0.9799852378	 0.9047053419	 0.096711
H	-0.725153928	-0.386978463	 3.2157852928	 0.235097
