18
gdb 14667	13.49357	0.57779	0.56173	0.8385	84.6	-0.2462	0.0439	0.2901	1955.8434	0.151045	-310.618097	-310.608179	-310.607235	-310.656505	33.958	
C	 0.0424902521	 1.5661149228	 0.0100128857	-0.363013
C	-0.0051945981	 0.0270656823	 0.0021081929	-0.313431
C	-1.3655381808	-0.5019567635	 0.0122564972	 0.117331
C	-2.5017626156	-0.9026756123	 0.02107235	 0.01199
C	-3.8590234889	-1.4344349667	 0.031227231	-0.345159
C	-3.8836036929	-2.9867323154	 0.0232151438	-0.33806
C	-5.2394543788	-3.5193702912	 0.0332624311	 0.29424
C	-6.3703656594	-3.9265766413	 0.0417862438	-0.440069
H	 1.0791215891	 1.9159992295	 0.0020223698	 0.113683
H	-0.466549034	 1.974715526	-0.8670964474	 0.127905
H	-0.449678661	 1.9651083158	 0.9010637489	 0.127906
H	 0.5268290298	-0.3501329109	-0.8808829603	 0.127166
H	 0.5435743848	-0.3596478889	 0.8706177762	 0.12717
H	-4.4016573648	-1.0783432213	 0.9148600395	 0.137952
H	-4.4183999033	-1.069045208	-0.8380552612	 0.137955
H	-3.3448555461	-3.3466988166	-0.860805269	 0.140588
H	-3.3281840556	-3.3560198947	 0.892956575	 0.140584
H	-7.3628871965	-4.3023104655	 0.049159823	 0.195264
