18
gdb 14662	11.84941	0.53927	0.52246	0.0001	97.53	-0.2243	0.0004	0.2247	2162.8841	0.152067	-310.639513	-310.629692	-310.628747	-310.675309	33.581	
C	-0.0526013378	 1.5740512144	 0.0695266614	-0.365475
C	 0.0020300828	 0.035572785	 0.0013759418	-0.342652
C	 0.6790024073	-0.4606746377	-1.187980323	 0.291627
C	 1.2451379182	-0.8564698098	-2.1828748238	-0.231366
C	 1.8807170275	-1.3023424882	-3.2999627057	-0.231204
C	 2.4467983885	-1.6981099504	-4.2948987625	 0.291474
C	 3.1237092611	-2.194467858	-5.4842492977	-0.342649
C	 3.1781853621	-3.7329477822	-5.5523940185	-0.365474
H	 0.9549098518	 1.9980269246	 0.076311925	 0.131589
H	-0.5852159793	 1.9818665062	-0.7935429463	 0.131588
H	-0.5695702324	 1.8942471716	 0.9788978629	 0.116277
H	 0.5077198447	-0.3533475654	 0.8951325724	 0.134203
H	-1.0181623508	-0.3693570934	 0.0333106171	 0.134201
H	 2.6180644419	-1.8054849961	-6.3780049065	 0.134202
H	 4.1439407204	-1.7896365538	-5.5161808881	 0.134201
H	 2.1706334689	-4.1568264261	-5.5591719267	 0.131589
H	 3.6951153846	-4.0532077144	-6.4617656284	 0.116279
H	 3.7107629405	-4.1408187964	-4.6893274634	 0.131589
