21
gdb 96559	2.27149	1.56513	1.19338	2.5619	74.3	-0.258	0.0748	0.3328	1135.9167	0.18346	-461.364073	-461.355201	-461.354257	-461.397525	34.161	
C	-0.1773609125	 1.599141124	 0.1821720465	-0.4022
C	-0.0791465928	 0.0805974585	 0.112559033	 0.096725
O	 0.447892113	-0.23561099	-1.1839443425	-0.258661
C	 0.2128314549	-1.5414541101	-1.6395458998	 0.001547
O	 0.8920459399	-2.532687273	-0.9231033047	-0.233492
C	 0.2789468731	-2.8866404589	 0.3132903201	-0.082787
C	 0.6974041824	-1.9987162275	 1.4944612426	-0.24655
C	 0.8633293701	-0.4863260113	 1.2030463307	 0.134011
O	 2.2038615803	-0.1650394638	 0.8734519171	-0.436896
H	 0.8238273014	 2.0359216511	 0.1468253459	 0.141084
H	-0.7610209739	 1.9823814047	-0.6583403644	 0.118766
H	-0.6592830098	 1.9090773803	 1.1142016634	 0.114168
H	-1.0816059667	-0.3649366065	 0.2140646477	 0.065173
H	-0.8721603619	-1.7504298078	-1.6318334614	 0.082711
H	 0.5974645362	-1.5719689084	-2.6616428241	 0.117567
H	-0.8142690648	-2.8666092899	 0.1878249995	 0.091867
H	 0.5612655065	-3.9255039094	 0.5105897895	 0.112089
H	-0.0443986105	-2.1419664805	 2.290845806	 0.094945
H	 1.6595673414	-2.3332403998	 1.8936245422	 0.120081
H	 0.6568763071	 0.0514795553	 2.1358655237	 0.083454
H	 2.3028326867	-0.3810468768	-0.0630727611	 0.286399
