18
gdb 91397	2.40128	1.73213	1.51429	1.6085	71.18	-0.212	-0.0229	0.1891	970.9053	0.14831	-439.061097	-439.053313	-439.052369	-439.093273	29.984	
C	-0.5254444042	 1.1666778407	 0.868214648	-0.348234
N	-0.0236271939	 0.0736886764	 0.0410220304	-0.07562
C	-1.0798922344	-0.7435382911	-0.5743236059	-0.172973
C	-1.2936833148	-2.0658614783	 0.1795586927	-0.048181
O	-0.035487285	-2.807128782	 0.1023011335	-0.295538
C	 0.4868077107	-2.0506426858	 1.2395957904	-0.04818
C	 1.0309578764	-0.7254964688	 0.6823972751	-0.172973
C	-0.980396786	-1.8865862403	 1.6762010893	 0.438538
O	-1.5896548211	-1.8200000804	 2.6985853157	-0.311596
H	 0.3127246664	 1.7997532594	 1.1756341684	 0.123657
H	-1.20312207	 1.7867752085	 0.2731934504	 0.123657
H	-1.0648185672	 0.8531026383	 1.7787207278	 0.116732
H	-2.0040506544	-0.1602194305	-0.6162259607	 0.113521
H	-0.8037840533	-1.0127236555	-1.6029761492	 0.119398
H	-2.156209281	-2.6498874333	-0.1493848303	 0.102436
H	 1.1943585526	-2.62124913	 1.8454187172	 0.102436
H	 1.8070397804	-0.9904075438	-0.0485892861	 0.119398
H	 1.5008164488	-0.1302623636	 1.4704421531	 0.113521
