22
gdb 58676	2.02192	1.39832	1.1623	3.0015	83.51	-0.2368	-0.0228	0.214	1232.1422	0.191219	-404.334471	-404.324082	-404.323138	-404.369214	38.372	
C	-1.5297750836	-2.3404296691	 0.2016921827	-0.406504
C	-0.3237512755	-1.4021104929	 0.0197401473	-0.046422
C	-0.7499132987	-0.0538778796	-0.5864463518	-0.411721
C	 0.4441379249	-1.22636289	 1.3288306961	 0.222085
C	 1.429203812	-2.2901002957	 1.7544977183	-0.288859
N	 1.9039860349	-0.9794377912	 1.3923665206	-0.124113
C	 2.6905971914	-0.8284531534	 0.177016223	-0.321468
C	-0.2287572788	-0.5217240039	 2.4695154588	 0.145942
O	-1.3925876982	-0.2085504135	 2.5224425098	-0.271001
H	-2.2564395145	-1.907987668	 0.8921532583	 0.149829
H	-2.0256982499	-2.5083921094	-0.7599708182	 0.10862
H	-1.2197594496	-3.3146801815	 0.5936971201	 0.106889
H	 0.3590372418	-1.8867379338	-0.6877230154	 0.072193
H	-1.462045966	 0.4572622287	 0.0651887468	 0.147928
H	 0.1082838871	 0.6078649889	-0.7409991078	 0.110079
H	-1.229079367	-0.2115685084	-1.5579324827	 0.110817
H	 1.5347312459	-2.5772191607	 2.7986902783	 0.120325
H	 1.5583768807	-3.1070711484	 1.0435691035	 0.116152
H	 2.4344372702	-1.5309886147	-0.6294883363	 0.110303
H	 2.5844530947	 0.1920117477	-0.201864949	 0.133271
H	 3.7425070758	-0.985475819	 0.4356552015	 0.131298
H	 0.4746633923	-0.302960402	 3.303551146	 0.084356
