21
gdb 88081	3.30696	1.24134	1.13513	1.6755	82.22	-0.2503	0.0852	0.3355	1189.8218	0.183354	-387.082053	-387.073804	-387.07286	-387.114623	32.807	
C	-0.0144926821	 1.5298787375	-0.1114846677	-0.421898
C	-0.0327854783	 0.0380433508	 0.1088340791	-0.008549
O	 1.2080350649	-0.6685077923	-0.0541731256	-0.309253
C	 0.5991390245	-0.6373933724	 1.2494837734	 0.438599
C	 1.3685520389	 0.062281229	 2.3715259836	-0.318636
C	 1.908733973	-1.0890754423	 3.2577842518	-0.223706
C	 0.946674531	-2.2508916385	 3.0378584885	-0.030374
C	-0.5277279237	-1.9628366193	 3.1388421739	-0.303222
C	 0.1455957723	-1.967149646	 1.7835325332	-0.099097
H	 0.8309371724	 2.000269285	 0.3951395201	 0.124151
H	 0.0582764373	 1.7567418781	-1.1804715072	 0.127565
H	-0.9403133223	 1.9808519719	 0.2627698525	 0.119473
H	-0.8812660622	-0.4734283624	-0.3528136345	 0.079713
H	 2.1655698892	 0.6883057051	 1.9677080395	 0.116309
H	 0.697496386	 0.7135244762	 2.9420393864	 0.106489
H	 2.9083356066	-1.3836781004	 2.9196909114	 0.109385
H	 1.9948401309	-0.7956017461	 4.3092415827	 0.097031
H	 1.2894980062	-3.2545165054	 3.2626089372	 0.084728
H	-1.1823199916	-2.799463029	 3.3571362599	 0.112031
H	-0.8641010832	-1.0215158899	 3.5624035645	 0.109137
H	-0.1067203297	-2.7354112296	 1.0624672472	 0.090123
