19
gdb 80180	2.40545	1.61517	1.3617	3.7419	75.4	-0.2185	0.0617	0.2802	1049.1363	0.160223	-419.242645	-419.233765	-419.232821	-419.276304	32.732	
C	-0.0852273613	 1.5768083294	 0.0209275152	-0.431637
C	 0.0224287111	 0.0710042443	 0.0571941192	-0.052088
C	 1.320045738	-0.6852363003	-0.2073069707	-0.042339
N	 2.5800740387	-0.027375598	-0.0287992172	-0.353974
C	 2.7213948445	 0.4825595063	 1.2613342107	 0.426734
O	 3.5983950287	 1.2227137511	 1.6551323311	-0.424967
N	 1.6589721655	-0.0122461404	 1.9993101421	-0.08152
C	 1.4198454662	 0.3805227543	 3.3661369959	-0.344248
C	 0.7120367978	-0.6990681687	 1.1761588076	-0.03825
H	 0.7926063769	 2.0643028113	 0.4515158336	 0.143665
H	-0.1898915638	 1.9346534928	-1.0091033185	 0.121043
H	-0.9613140809	 1.9182473882	 0.5821597864	 0.122514
H	-0.8441668565	-0.4561578907	-0.3359431951	 0.090016
H	 1.3189228452	-1.5600007699	-0.8481965501	 0.105278
H	 3.0458336586	 0.4667371677	-0.7721210738	 0.254531
H	 2.3004926006	 0.9292128772	 3.7050965902	 0.164805
H	 0.5391339269	 1.0295721667	 3.457808224	 0.120034
H	 1.2712598095	-0.4952848835	 4.0093887187	 0.11995
H	 0.2503353644	-1.5820058778	 1.6067786105	 0.100454
