21
gdb 120879	4.79885	0.82178	0.77755	1.2791	79.96	-0.2409	0.0806	0.3215	1541.6402	0.180775	-424.187472	-424.177972	-424.177028	-424.22213	35.545	
C	 0.0391302218	 1.4946954497	-0.0777022153	-0.384303
C	-0.1078154477	-0.0106896764	-0.2225984913	-0.034545
O	 0.9575806523	-0.4915067844	-1.0200845267	-0.254235
C	 0.9412008631	-1.8831346679	-1.2067716116	 0.151022
C	-0.087989464	-2.4834147141	-2.238389912	-0.342137
C	 1.1081050744	-2.9920201944	-3.0513741205	 0.396769
O	 1.1756100007	-4.2453052503	-3.6337421566	-0.461846
C	 1.9937464847	-1.8520046901	-3.4587869552	-0.334389
C	 2.0954890862	-2.4051597167	-2.0508730114	-0.143191
H	 0.9946390012	 1.742449857	 0.3931408291	 0.126841
H	 0.0055880082	 1.9794094566	-1.0576635977	 0.124764
H	-0.7689562865	 1.9003392634	 0.5384558797	 0.113055
H	-0.0878896373	-0.4986001348	 0.7668580575	 0.084804
H	-1.0774388608	-0.2605075499	-0.6835710062	 0.088341
H	 0.8688789141	-2.3960364372	-0.2368035256	 0.068781
H	-0.6800350076	-3.2958887998	-1.8114458046	 0.106561
H	-0.7498369369	-1.7670631002	-2.736527262	 0.091613
H	 0.8480378489	-4.1761536161	-4.5371489563	 0.285446
H	 2.8208847222	-2.1395145894	-4.0999400054	 0.110726
H	 1.6006404385	-0.8535583526	-3.6274871283	 0.114923
H	 3.0216928846	-2.8143106125	-1.6679541196	 0.091001
