21
gdb 91940	2.09046	1.73431	1.30697	1.919	76.83	-0.254	0.0657	0.3196	1089.4284	0.181403	-424.221756	-424.212687	-424.211743	-424.255093	35.551	
C	-0.927253466	 1.0982594686	-0.0370094843	-0.420837
C	 0.0864376561	-0.0419682575	-0.1140020436	 0.001658
C	 1.2141413004	 0.1835482814	-1.1583070431	-0.263833
C	 2.4067733553	-0.5860461745	-0.6180658803	 0.030211
O	 3.0598068871	 0.1009731119	 0.4605551949	-0.255979
C	 2.1581317098	-0.9611883145	 0.7790872428	 0.021414
C	 0.7794900488	-0.4710633775	 1.2321769074	 0.328378
C	 0.902130327	 0.6315698899	 2.285753776	-0.438163
O	 0.131882355	-1.6165468449	 1.7923268465	-0.478496
H	-0.4538066517	 2.0434456175	 0.2478966246	 0.122598
H	-1.4075749815	 1.2501973656	-1.0093818248	 0.116352
H	-1.7227358563	 0.8891944588	 0.6874274461	 0.104711
H	-0.4428392694	-0.9530691972	-0.4173502667	 0.085735
H	 0.9128036463	-0.1739283037	-2.1477835692	 0.102034
H	 1.476027373	 1.243171047	-1.2596254067	 0.110135
H	 3.0682129215	-1.1447646971	-1.2754278477	 0.095899
H	 2.5865165929	-1.8284449861	 1.2752503887	 0.099397
H	 1.4651770261	 1.4835982518	 1.899166059	 0.136789
H	-0.0850766836	 0.9844047864	 2.6040741874	 0.102605
H	 1.4244582348	 0.2438333247	 3.1651881286	 0.121765
H	-0.7015959056	-1.3262550907	 2.1765169146	 0.277628
