19
gdb 29774	2.42423	1.51671	0.94862	0.5071	80.93	-0.174	0.0548	0.2288	1243.4172	0.158252	-419.236438	-419.22597	-419.225025	-419.272014	36.795	
C	-0.0158237802	 1.4679995769	-0.0067366777	-0.339481
N	-0.0156519934	 0.0220220189	-0.0037631641	-0.012979
C	 0.0021165778	-0.7830491182	-1.1086618221	-0.195474
C	 0.052079964	-2.1055044958	-0.7113164442	 0.158441
C	 0.0717681442	-3.3230905476	-1.5837911822	-0.527636
C	 0.0767574242	-2.0812236626	 0.710369236	 0.162913
O	 0.1219307986	-3.1466482058	 1.5740758782	-0.459345
C	 0.0383154915	-0.7706497497	 1.1351961933	 0.16718
N	-0.0015967395	-0.1956780335	 2.4241219735	-0.613585
H	 0.9786148554	 1.8769951917	-0.2252036784	 0.124521
H	-0.7184953954	 1.8414274962	-0.7571183857	 0.128165
H	-0.323832018	 1.8113022022	 0.9816971242	 0.158293
H	-0.0151697052	-0.359757429	-2.1011498804	 0.107147
H	 0.9681180849	-3.9370662324	-1.422279476	 0.119048
H	-0.797763592	-3.9736604212	-1.41556735	 0.116281
H	 0.0603787916	-3.0447534176	-2.6414063672	 0.12636
H	 0.042137774	-3.9543346611	 1.0587742125	 0.292733
H	 0.9008938423	-0.2390994174	 2.8895638062	 0.240983
H	-0.6586499748	-0.6933713239	 3.0160426342	 0.246436
