16
gdb 98717	2.34034	1.35082	1.0422	1.2944	72.24	-0.255	-0.0034	0.2516	1184.5168	0.122149	-437.845287	-437.835986	-437.835042	-437.880224	32.66	
C	-0.047726027	 1.4833387545	 0.6422821876	-0.237715
O	 0.0114632288	 0.2080009198	 1.2927557009	-0.21223
C	 0.7537284189	-0.7145506095	 0.6721777239	 0.466053
O	 1.3721229731	-0.5272540134	-0.3480105262	-0.376697
C	 0.7333437737	-2.0450820081	 1.3619349401	-0.147214
N	 0.3188301314	-2.1331002613	 2.7620291008	-0.313176
C	-0.5456312817	-2.7519563068	 1.746544295	-0.249186
C	-1.8562277853	-2.2060065145	 1.5290110843	 0.400209
C	-2.9732916186	-1.8139261717	 1.3239914747	-0.434346
H	-0.4782820354	 1.3852664383	-0.3574382145	 0.141211
H	-0.6811690152	 2.1062458899	 1.2731671183	 0.13639
H	 0.9517966242	 1.9162452291	 0.553899695	 0.140903
H	 1.5302317194	-2.6870558432	 0.9976214715	 0.116551
H	 0.8602921515	-2.8483115986	 3.2409368631	 0.246179
H	-0.4963232903	-3.8346066851	 1.6412982037	 0.121424
H	-3.9557722576	-1.4497040595	 1.1514234017	 0.201645
