18
gdb 66136	2.56083	1.45046	1.42049	1.8149	71.57	-0.2402	-0.0293	0.2109	1031.497	0.146754	-439.071373	-439.062946	-439.062002	-439.10467	31.484	
C	 0.1797660078	 1.5417679763	-0.2257167083	-0.437529
C	 0.0305097247	 0.0250287248	-0.0928744404	 0.294546
O	 0.7585663979	-0.5837342075	-1.1678806073	-0.305064
C	 1.3657778617	-1.8041691471	-0.7368437196	-0.090595
C	 1.4580374019	-1.7102492961	 0.7702061588	-0.046923
N	 2.0826185828	-0.449005458	 1.2208773104	-0.343868
C	 0.6130887859	-0.568262655	 1.1783437546	-0.09911
C	-1.449506307	-0.3446997226	-0.2268420593	 0.122679
O	-2.2125705765	-0.4708996396	 0.695898292	-0.258457
H	 1.2358274676	 1.7960694849	-0.1139392233	 0.151125
H	-0.1644384058	 1.877046072	-1.2082730912	 0.127612
H	-0.4044865499	 2.0534657761	 0.5446902937	 0.127356
H	 0.7552968442	-2.6755007415	-1.0198764579	 0.097839
H	 2.3380529734	-1.8786579413	-1.234209243	 0.118673
H	 1.552544794	-2.6104250223	 1.3674182116	 0.10031
H	 2.395738488	-0.5570241998	 2.1828374798	 0.235772
H	 0.0173106887	-0.5598838365	 2.0823722409	 0.11311
H	-1.7694667595	-0.4784583968	-1.2850372117	 0.092525
