15
gdb 21306	7.47326	1.12146	0.98726	3.1795	64.03	-0.2523	-0.0078	0.2445	1141.2734	0.118523	-399.778965	-399.771278	-399.770334	-399.812418	26.275	
C	-0.1448529244	 1.4076489281	 0.3052686152	-0.227018
O	-0.2036465519	 0.013102977	 0.5060740307	-0.230559
C	-1.0243944577	-0.635474243	-0.4308949181	-0.169895
C	-1.0165765962	-2.0956515614	-0.1226563436	 0.408739
C	-0.4089444748	-2.8361524379	 0.8406899886	-0.31235
C	-0.834515429	-4.1589515903	 0.5437844703	 0.029218
N	-1.623822602	-4.2113613236	-0.4995673216	-0.141267
O	-1.7420186337	-2.8862613185	-0.9295178681	-0.215576
H	 0.5115521008	 1.816966521	 1.0759030904	 0.135321
H	 0.2654844324	 1.6586796717	-0.6849618699	 0.111999
H	-1.1381080326	 1.8736028151	 0.3964036005	 0.111962
H	-2.0589042829	-0.2515075452	-0.3926679402	 0.118332
H	-0.6665271209	-0.4699743379	-1.4621411249	 0.118456
H	 0.2348464633	-2.4875991682	 1.6286086127	 0.130804
H	-0.5904713704	-5.0780611967	 1.058128318	 0.131834
