22
gdb 13019	2.43103	2.35591	1.53311	0.211	81.09	-0.2526	0.0841	0.3367	954.7576	0.201591	-313.086933	-313.07882	-313.077876	-313.118634	32.481	
C	-0.044498769	 1.5562736452	-0.0136700102	-0.404593
C	 0.0427721958	 0.028574474	 0.0164653775	-0.008733
C	 0.7921053905	-0.5759981949	-1.194895372	-0.237584
C	 1.3215453085	-1.9448893974	-0.7136341131	-0.221774
C	 1.5432432467	-1.7611820826	 0.7805087485	-0.07069
C	 2.2621244576	-0.5083787314	 1.2282408554	-0.337975
C	 0.7497816411	-0.557909125	 1.2450482007	 0.377114
C	 0.018391541	-0.5297513996	 2.5662282102	-0.487244
H	 0.9545081616	 2.005678021	 0.0143860074	 0.11273
H	-0.5427184504	 1.9052693478	-0.9246657062	 0.108746
H	-0.6093845151	 1.945468141	 0.8399234279	 0.111056
H	-0.9817795482	-0.3727627116	 0.0241760872	 0.063691
H	 0.1511955216	-0.6582891732	-2.0773485171	 0.092814
H	 1.6258427825	 0.0765333418	-1.4782801463	 0.098542
H	 0.5674016183	-2.7253634143	-0.873529166	 0.095266
H	 2.2232754217	-2.2551682265	-1.2535285192	 0.092962
H	 1.6239728542	-2.644427266	 1.4064679711	 0.072947
H	 2.7633254148	-0.545018004	 2.1901434575	 0.102116
H	 2.7796555071	 0.0998911225	 0.4929353737	 0.103462
H	-0.1414446242	 0.4962766836	 2.9187250463	 0.115492
H	-0.9657717637	-1.007547801	 2.4847124161	 0.110518
H	 0.5809325576	-1.0571029193	 3.3434010405	 0.111136
