23
gdb 112713	2.73203	1.13588	0.92828	1.0686	82.31	-0.247	0.0877	0.3347	1398.0798	0.204536	-425.450906	-425.440868	-425.439924	-425.4861	37.235	
C	 0.1333161947	 1.4415416354	-0.1306074485	-0.385109
C	 0.0192992609	-0.0806993015	-0.0198042492	-0.20379
C	-1.4193087431	-0.5621742459	-0.0459842612	 0.22987
O	-2.0232903062	-0.2721765819	-1.2833819136	-0.266757
C	-3.0924744848	-1.2067843868	-1.3924042891	 0.107223
C	-3.5990006437	-1.2504875457	-2.8210671591	-0.419762
C	-2.4592047025	-2.4928956932	-0.8021571748	 0.116408
C	-1.7702383318	-3.4176705269	-1.799696787	-0.397518
O	-1.485356088	-1.9743339785	 0.1114810073	-0.292588
H	 1.1799992032	 1.7576896113	-0.1037708517	 0.113504
H	-0.307526054	 1.7968794392	-1.0659954925	 0.133659
H	-0.3858419294	 1.9408214215	 0.6951375134	 0.114001
H	 0.5499743843	-0.5732870921	-0.8415516187	 0.105404
H	 0.4679564595	-0.435639428	 0.9144508377	 0.107605
H	-2.0034423865	-0.0885747581	 0.7678630118	 0.054843
H	-3.911748951	-0.8919233287	-0.7236893845	 0.068934
H	-2.8014252926	-1.5220299457	-3.5162951124	 0.130269
H	-4.4105651409	-1.9785261456	-2.9162265101	 0.119866
H	-3.9865167083	-0.2698565129	-3.1099164739	 0.129095
H	-3.2083771449	-3.0564707291	-0.2309800258	 0.074948
H	-1.0586093053	-2.8622760751	-2.4173947936	 0.125173
H	-1.2181572549	-4.1896792675	-1.2568440985	 0.124946
H	-2.4964276249	-3.9120158343	-2.4531450159	 0.109774
