18
gdb 98369	3.85249	0.84319	0.73573	3.4293	71.27	-0.2443	-0.0314	0.2129	1523.9959	0.144401	-476.262741	-476.252121	-476.251177	-476.300117	34.839	
C	 0.0570824319	 1.4271147771	 0.1640727432	-0.234055
O	 0.0082310242	 0.0009580043	 0.0567584376	-0.262205
C	-1.2415923462	-0.5159807041	 0.0139429262	 0.535372
O	-2.2497565609	 0.1560059987	 0.0809034584	-0.425831
N	-1.2228849896	-1.8802016079	-0.1231026848	-0.164594
C	-0.0086405681	-2.6831786088	-0.1142708347	-0.345931
C	-2.4856041177	-2.5880878494	-0.0799101613	-0.256686
C	-2.840386178	-3.2241992671	-1.4173388228	 0.154627
O	-3.4709903904	-4.2402153512	-1.536331643	-0.231674
H	 1.1168607474	 1.6822846485	 0.1881584908	 0.131542
H	-0.429444873	 1.897957514	-0.6936447228	 0.141768
H	-0.4379865812	 1.7643294865	 1.0777707867	 0.142692
H	 0.1359812058	-3.1779900428	 0.855733567	 0.129302
H	-0.0710826501	-3.4606808368	-0.8835327717	 0.133602
H	 0.8533308096	-2.0546153372	-0.3219572846	 0.163738
H	-2.489247123	-3.3625151792	 0.6964542313	 0.127037
H	-3.26604764	-1.8558908524	 0.1542011461	 0.176088
H	-2.4750369805	-2.646201322	-2.2980493316	 0.085209
