25
gdb 118997	2.65594	0.99789	0.92906	1.3584	88.92	-0.2384	0.0795	0.3179	1481.6498	0.228591	-389.515741	-389.505468	-389.504524	-389.551421	38.505	
C	-0.0982779338	 1.5155388061	-0.2874387393	-0.382137
C	-0.0079207298	 0.0032876587	-0.0622288041	-0.170746
C	-1.3854296536	-0.6501114022	 0.0954492943	-0.192706
C	-1.3757727109	-2.1881594466	 0.2078947476	 0.399003
C	-0.6903407888	-2.6728541583	 1.4888862583	-0.431275
C	-2.810615163	-2.7630898971	 0.0654774178	-0.27467
C	-2.8918722941	-3.1767378841	-1.4111796331	-0.219511
C	-1.4485551682	-3.6061124612	-1.6755835108	-0.067143
O	-0.6424301897	-2.7089859626	-0.9262403254	-0.300774
H	 0.8949984455	 1.9615125162	-0.4004172124	 0.109207
H	-0.6718253807	 1.7484852764	-1.1918438478	 0.110991
H	-0.5931805704	 2.0159492313	 0.5529313438	 0.108919
H	 0.5080084602	-0.4718032922	-0.9027050816	 0.115589
H	 0.6037588325	-0.1908366147	 0.8271055402	 0.092294
H	-1.8936705095	-0.2397918547	 0.9789552908	 0.085811
H	-2.0046714393	-0.379459606	-0.7703654276	 0.085285
H	-1.2233685458	-2.3141742122	 2.3763257755	 0.10863
H	-0.6759384919	-3.7665318655	 1.5181216957	 0.111198
H	 0.343202448	-2.3223935684	 1.5430177829	 0.123698
H	-2.9310475642	-3.6410311978	 0.709241021	 0.096291
H	-3.5734802427	-2.0355963443	 0.3534353818	 0.100662
H	-3.6186174734	-3.9713063894	-1.5986824905	 0.09832
H	-3.1538715723	-2.3218523988	-2.043211735	 0.106659
H	-1.2860773612	-4.6458708687	-1.3457082078	 0.084265
H	-1.150858603	-3.5374662438	-2.7268427641	 0.102138
