20
gdb 98329	3.94415	0.75806	0.7444	3.3818	83.21	-0.2444	0.0278	0.2722	1619.8492	0.168014	-403.155523	-403.144492	-403.143548	-403.193076	38.382	
C	 0.1901064863	 1.4543792426	 0.1724915868	-0.335456
N	 0.2710717354	 0.0113805063	 0.0526963845	-0.32194
C	 0.309441347	-0.626874847	-1.15186823	 0.42336
O	 0.2998398551	-0.0369358156	-2.2199327893	-0.38997
C	 0.3408509518	-2.155928103	-1.0794752965	-0.098315
C	-1.0446521527	-2.7075836656	-1.4523006847	-0.388866
C	 1.4426361586	-2.6674902468	-2.0404214936	-0.349968
C	 1.5938845715	-4.116230557	-2.0233932103	 0.298576
C	 1.7123541561	-5.3123406075	-1.9877539812	-0.448654
H	 0.1865374332	 1.862172989	-0.8389231058	 0.173163
H	-0.7273584589	 1.7623204887	 0.6864734549	 0.126181
H	 1.0499011378	 1.8577452997	 0.7187575967	 0.126088
H	 0.2867179126	-0.5441522356	 0.8914280498	 0.246201
H	 0.5929811496	-2.4790205004	-0.0621181069	 0.074708
H	-1.0284295477	-3.8002028151	-1.4660115396	 0.133709
H	-1.8043354688	-2.3811296824	-0.7354169717	 0.112339
H	-1.3355012008	-2.3474580909	-2.4434660843	 0.139601
H	 1.2026000574	-2.314038057	-3.0491282539	 0.155771
H	 2.399385238	-2.2000171173	-1.7763022648	 0.130612
H	 1.8258552185	-6.3678408951	-1.97286476	 0.192861
