13
gdb 3088	3.78743	2.36041	2.03998	3.0844	54.86	-0.24	0.0219	0.2619	677.6644	0.101905	-340.620625	-340.613407	-340.612462	-340.6517	25.865	
N	 0.2014492583	 1.399947191	 0.0459965241	-0.509423
C	 0.0505924985	-0.0134359317	 0.0403106717	-0.00319
C	-0.4565925812	-0.6867550453	 1.2700962996	 0.08446
O	-0.814253928	 0.1586709296	 2.3118967641	-0.407163
C	-1.3375214574	-0.7311445652	 0.0148687055	-0.275701
C	-2.5229281397	 0.0636726247	-0.0065016554	 0.282221
N	-3.477190671	 0.7201282292	-0.0123795061	-0.340347
H	-0.1432138706	 1.8244397587	-0.8078493521	 0.245045
H	-0.2952354642	 1.804340859	 0.8324818939	 0.256867
H	 0.8087938454	-0.5477581348	-0.5256999702	 0.116558
H	-0.009502015	-1.633042354	 1.5708196767	 0.111329
H	-1.6830395018	-0.0947819712	 2.6432726419	 0.307564
H	-1.4028639735	-1.67693189	-0.5124944637	 0.13178
