18
gdb 45580	2.83227	1.56764	1.2402	2.9956	72.39	-0.2526	0.0277	0.2802	1040.463	0.150492	-439.088186	-439.080805	-439.079861	-439.120656	28.487	
N	 0.2267511351	 0.9843839038	 0.6328972097	-0.546211
C	 0.0768970187	-0.1298964074	 0.0796142552	 0.439483
O	 0.9711768291	-0.9337702069	-0.5902871726	-0.265542
C	-0.0408579554	-1.9766872235	-0.7841025931	 0.104406
C	 0.3268450521	-3.2667971377	-0.0727800833	-0.107454
O	 0.103842406	-3.1989759339	 1.3190019389	-0.236692
C	-1.2720756891	-2.9987765451	 1.6019057301	-0.075897
C	-1.7314136042	-1.578838253	 1.2426757086	-0.240087
C	-1.0969733382	-1.0785204439	-0.0731785624	-0.168378
H	 1.1883745478	 1.3181855407	 0.5510513631	 0.228346
H	-0.1977209004	-2.142944046	-1.8536422485	 0.092142
H	-0.2543571179	-4.0955800718	-0.513755411	 0.09043
H	 1.3906317806	-3.4759293688	-0.2199594914	 0.127256
H	-1.8700317156	-3.7463083431	 1.0535300989	 0.086924
H	-1.4022373869	-3.1874177807	 2.6706140757	 0.116371
H	-2.8235687706	-1.5611207561	 1.1775057116	 0.104633
H	-1.4485578472	-0.8838605763	 2.038503198	 0.139335
H	-1.8485944038	-0.6835284303	-0.7587570475	 0.110933
