12
gdb 130903	2.78625	1.34	0.90483	1.3411	65.05	-0.2746	-0.0914	0.1832	1151.3438	0.07816	-468.814228	-468.806748	-468.805804	-468.847042	25.526	
O	-0.0114071517	-0.0506450469	-0.0027471439	-0.238814
C	 0.0128426153	 1.1535682188	 0.0060387826	 0.087748
C	 1.2498622252	 1.9632578154	-0.0007317659	 0.157258
N	 2.4668589979	 1.4021437302	-0.0181672833	-0.229957
N	 3.2717993381	 2.4465825396	-0.0185126434	-0.045395
N	 2.7243320229	 3.6460883043	-0.0028780649	-0.229956
C	 1.411848542	 3.3750087939	 0.0089503663	 0.157259
C	 0.390356649	 4.4436666833	 0.0286169704	 0.087747
O	 0.6394958964	 5.6220869159	 0.0356812594	-0.238813
H	-0.9220362605	 1.7521357115	 0.0202943697	 0.089722
H	 4.2756432935	 2.3314818208	-0.0302732843	 0.313478
H	-0.6558275381	 4.0722710831	 0.0356276773	 0.089723
