18
gdb 39569	3.39676	1.55399	1.12468	2.0893	76.35	-0.2422	0.0093	0.2516	1057.4914	0.151362	-401.965317	-401.958485	-401.957541	-401.99645	27.64	
C	-0.0007171458	 1.4892791045	-0.2190965429	-0.259921
C	 1.3253144216	 2.2046783274	 0.1891344002	-0.273075
C	 2.4033498015	 1.1550639496	 0.0866100577	 0.156612
O	 3.7829152684	 1.4975930796	 0.377831536	-0.258756
C	 4.2808677375	 0.3011701117	 0.8159154519	 0.094329
N	 3.4829733687	-0.6328071248	 1.1475509843	-0.302847
C	 2.1550539218	 0.0209716748	 1.0674857242	 0.031268
C	 0.9107115838	-0.7078695323	 0.6611388243	-0.126372
C	-0.0702671673	 0.0052304262	 0.1010146003	-0.034735
H	-0.8507196447	 2.0022821776	 0.2475299891	 0.116771
H	-0.1565505218	 1.6076475895	-1.300553404	 0.11928
H	 1.5073072334	 3.0619821664	-0.4653019252	 0.108608
H	 1.2633922701	 2.5793626131	 1.2164600743	 0.111165
H	 2.4062855559	 0.7394669956	-0.9326523176	 0.087488
H	 5.3634699688	 0.250315904	 0.8537615129	 0.135409
H	 1.9835193911	 0.443858297	 2.0733839787	 0.098437
H	 0.8101704621	-1.7681841236	 0.868421217	 0.103699
H	-1.0024289551	-0.483276046	-0.1734673511	 0.092641
