14
gdb 130926	4.48001	0.98835	0.88387	1.9074	71.09	-0.2476	-0.0848	0.1628	1251.661	0.101121	-432.880263	-432.872643	-432.871698	-432.913895	26.606	
O	-0.4320970869	 0.7390982081	 0.8854564703	-0.222236
C	 0.0960965243	 1.0283630583	-0.1529279024	 0.158441
C	 1.4341234146	 1.7629678605	-0.2523022404	-0.367281
C	 1.3811722797	 2.8755606857	-1.2626520995	 0.312333
C	 1.39592869	 4.2305855865	-0.9056619297	-0.042284
N	 1.3319603115	 5.1807195451	-1.8246139123	-0.224195
C	 1.239711977	 4.7342698384	-3.0829090527	 0.109382
N	 1.2089535286	 3.463163537	-3.4774992403	-0.178329
N	 1.2863842999	 2.5182078929	-2.545978433	-0.231376
H	-0.3484431577	 0.7719439576	-1.1379915809	 0.111067
H	 1.715544218	 2.1195928895	 0.7406731101	 0.13483
H	 2.1717279109	 1.0220037551	-0.5859455049	 0.159172
H	 1.4657753008	 4.5378393609	 0.1359448016	 0.136508
H	 1.1828884292	 5.4757475542	-3.8740286759	 0.143969
