25
gdb 101337	2.44489	1.02228	0.81114	1.213	90.29	-0.2454	0.081	0.3264	1569.9889	0.226759	-389.475495	-389.464293	-389.463349	-389.512569	40.446	
C	 0.3444713292	 1.6784631302	 0.0194925369	-0.371113
C	-0.1466468719	 0.2335258164	-0.1294937635	-0.204839
C	 0.5196123977	-0.4830683383	-1.2878138205	 0.002298
C	 1.8465000118	-1.1907639241	-1.127675042	-0.291529
C	 0.5978205267	-1.9867591443	-1.4251360276	-0.034035
C	 0.0215072543	-2.9890234627	-0.4354749453	 0.115345
C	 0.4087181816	-4.4195832266	-0.8328732517	-0.39923
O	 0.4875776545	-2.6765480543	 0.8737070922	-0.238907
C	-0.2783422593	-3.2256997479	 1.9204554841	-0.237264
H	 1.423512664	 1.7090648546	 0.2042817271	 0.116442
H	 0.1490371637	 2.2610082644	-0.888173712	 0.107656
H	-0.154457312	 2.1842870848	 0.8524496063	 0.104659
H	 0.036731444	-0.3206200671	 0.7941134627	 0.116357
H	-1.2350741756	 0.23599721	-0.281212365	 0.085027
H	 0.3906920205	 0.034587755	-2.2375373653	 0.071871
H	 2.600750175	-1.0907724071	-1.9007938302	 0.099505
H	 2.2368388656	-1.2730992539	-0.1197616516	 0.126791
H	 0.5043982171	-2.3484948446	-2.4461801529	 0.076889
H	-1.0797604118	-2.9065170741	-0.442790704	 0.063112
H	 0.019617259	-4.6592118801	-1.8275241164	 0.113756
H	 1.4979700582	-4.5214017903	-0.8521897493	 0.126804
H	 0.0031954071	-5.1564824778	-0.1339155004	 0.111109
H	 0.1344312936	-2.8397937264	 2.8560898144	 0.125901
H	-1.335990222	-2.9272656732	 1.8502869681	 0.104961
H	-0.2320801112	-4.3238372226	 1.9493066959	 0.108433
