15
gdb 45668	3.42996	1.75662	1.34893	2.9404	73.05	-0.2241	-0.035	0.1891	910.3687	0.114963	-416.737406	-416.730952	-416.730008	-416.768095	26.148	
O	-0.0551222376	-0.0712867613	-0.2535092193	-0.345783
C	-0.0745075718	 1.1190429564	-0.0472612048	 0.396076
N	-1.2551918793	 1.8696074093	-0.1210856947	-0.32586
C	-1.2291855272	 3.0832824826	 0.562072525	-0.048028
C	-0.1177119707	 3.8345740291	 0.4602317089	 0.019559
C	 0.7892940724	 3.9820500715	 1.6759648296	-0.177782
N	 1.7838867464	 3.0816212067	 0.9632262001	-0.153257
C	 1.0902658716	 3.3402021728	-0.3330354478	-0.106042
C	 1.2039334	 1.9371717602	 0.0857739331	-0.114674
H	-2.1014573286	 1.3269639391	-0.217217899	 0.25756
H	-1.9528761182	 3.2254561072	 1.3620519125	 0.116988
H	 1.3034065639	 4.9410443156	 1.7905705967	 0.124923
H	 0.4222125116	 3.6278028959	 2.6427268362	 0.11518
H	 1.5709257671	 3.8172439225	-1.1805197587	 0.108698
H	 2.0549920806	 1.3403342624	-0.2234136178	 0.132444
