16
gdb 19129	3.30242	1.75785	1.33889	3.7874	69.16	-0.2666	0.0326	0.2992	929.8657	0.131562	-342.758653	-342.751132	-342.750188	-342.790686	27.96	
N	-0.0813435329	-1.0743548811	 1.3105843661	-0.3451
C	-0.1030916882	-0.0338565532	 0.804659509	 0.228926
C	-0.1536595756	 1.2622560558	 0.1762394889	 0.19963
C	 0.7579095571	 2.3455713763	 0.7408321275	-0.289007
C	 1.0809770634	 1.72386168	-0.5819392592	-0.296643
C	-1.5252296782	 1.6474379642	-0.3231531843	-0.106312
N	-1.5742915796	 2.7384788165	-1.2997118796	-0.321644
C	-1.9650690865	 1.3790896501	-1.7145120905	-0.227612
H	 0.3475899356	 3.3488136965	 0.7364210725	 0.134966
H	 1.3659465782	 2.0931373193	 1.6009978117	 0.137924
H	 1.9130573382	 1.0330868289	-0.6411054518	 0.135131
H	 0.8834723048	 2.311899899	-1.4700804243	 0.152893
H	-2.2940835079	 1.6212551139	 0.4464226157	 0.102901
H	-2.39499169	 3.3159830007	-1.1434862071	 0.240958
H	-1.2789264287	 0.9053240518	-2.4102680596	 0.129063
H	-3.0154189397	 1.1650671513	-1.8890842149	 0.123925
