18
gdb 95595	2.13679	1.75136	1.15428	5.9796	72.89	-0.2365	-0.0583	0.1782	1094.7844	0.148915	-439.142911	-439.134377	-439.133433	-439.176522	31.727	
C	-0.1240532113	 1.5542820277	 0.0732184961	-0.408219
C	 0.0236813329	 0.0210974991	-0.0164971578	-0.089738
C	 0.7814450602	-0.4512536934	-1.2668363283	-0.235938
C	 2.2386152621	 0.004606827	-1.2536644025	-0.158923
N	 2.8795285242	-0.3529010182	 0.0048809731	-0.314227
C	 2.2848877452	-0.5480155477	 1.2208626021	 0.299763
O	 2.9120283734	-0.7782555442	 2.232183804	-0.340607
C	 0.7302494626	-0.4777379186	 1.238968276	 0.307083
O	 0.1439847716	-0.784277531	 2.2433562798	-0.28034
H	 0.8428457349	 2.0593900915	 0.1674765314	 0.12964
H	-0.621440914	 1.9420002303	-0.8213966339	 0.123411
H	-0.7242593215	 1.8233532885	 0.945993633	 0.14515
H	-0.9786478384	-0.4183390248	-0.0029116656	 0.104287
H	 0.750733731	-1.5461389494	-1.3162258732	 0.118869
H	 0.2933766368	-0.0737173237	-2.1714692896	 0.111386
H	 2.7879739293	-0.47445405	-2.0707867244	 0.11993
H	 2.2997353414	 1.0890033921	-1.4241675497	 0.116713
H	 3.8898543096	-0.3621303251	 0.0425497595	 0.251761
