18
gdb 54545	3.40039	1.43173	1.21504	3.2707	75.33	-0.2407	0.0229	0.2636	1048.7504	0.148637	-401.931531	-401.923578	-401.922634	-401.964779	30.793	
N	 0.1242207474	 1.1410096331	-0.5338460448	-0.533682
C	-0.0228811697	 0.082013658	 0.3152021177	 0.263412
O	 0.8098906441	-0.203555143	 1.1566094784	-0.367906
C	-1.2784988206	-0.7293028313	 0.1428940617	 0.253301
C	-2.1469518573	-1.0257443864	 1.4050024512	-0.262046
C	-2.5285441075	-2.3285546167	 0.7140111638	-0.067116
C	-2.6353745898	-2.0335487826	-0.7929950591	-0.071881
C	-2.3236639279	-0.5524701267	-0.9972026775	-0.314621
C	-1.2954638087	-2.2928226578	-0.1514385063	-0.101866
H	 0.9195607898	 1.7449847947	-0.4042494518	 0.259656
H	-0.6024233309	 1.4239580105	-1.1666545297	 0.261783
H	-1.5008865565	-1.1986005901	 2.2678035588	 0.12726
H	-2.9289517141	-0.297814585	 1.652457305	 0.086336
H	-3.0093463357	-3.1985825339	 1.1421822627	 0.088874
H	-3.1858267215	-2.6910726371	-1.4532066311	 0.088631
H	-3.1191757539	 0.1872305408	-0.8434071649	 0.091032
H	-1.8468251228	-0.3906863037	-1.9694870822	 0.098297
H	-0.5079809043	-3.0059445528	-0.3428463518	 0.100535
