19
gdb 37589	2.8007	2.31754	1.98588	1.5805	75.94	-0.2354	0.0854	0.3209	813.9528	0.164889	-385.897452	-385.891959	-385.891015	-385.926861	25.296	
C	-0.0029454824	 1.5595876828	-0.0683173201	-0.220888
C	 1.4772791533	 1.8725537599	 0.0583197744	-0.060238
C	 2.4767609644	 0.8517823155	-0.4817975124	-0.068073
C	 2.0881297965	 0.8624633865	 0.988153245	-0.069188
C	 1.1495272325	-0.361194854	 1.0368411243	-0.075422
C	 1.9595961767	-1.3992690243	 0.22653383	-0.210169
C	 1.9445413726	-0.4999079029	-1.0254983256	 0.070451
O	 0.5399880624	-0.4101404384	-1.2697999974	-0.274541
C	 0.0219288034	 0.0323471552	 0.0017825919	 0.070131
H	-0.5514075416	 2.007335011	 0.7700897897	 0.088778
H	-0.4641883207	 1.8875605845	-1.003819311	 0.105874
H	 1.8058904844	 2.9064712318	 0.0867078291	 0.08007
H	 3.4401459644	 1.215697777	-0.8187682573	 0.082294
H	 2.7658487795	 1.1004255937	 1.7987076912	 0.079425
H	 0.786449528	-0.6531141166	 2.0217209756	 0.066105
H	 2.9541233156	-1.5687020065	 0.6475404155	 0.093745
H	 1.4530906637	-2.3526845637	 0.0535452088	 0.097152
H	 2.4359304916	-0.8619574186	-1.9283947338	 0.071252
H	-0.9462131345	-0.443264763	 0.1715051821	 0.07324
