19
gdb 72867	3.32531	1.28949	1.0916	3.0099	75.71	-0.241	-0.0256	0.2155	1147.4348	0.157722	-423.006256	-422.997637	-422.996693	-423.039855	32.099	
C	-0.1043738308	 1.5870910369	 0.3934895244	-0.475841
C	 0.1143839396	 0.1342653344	 0.0631667691	 0.464641
C	-1.1195310317	-0.7699954256	-0.2361596462	-0.313419
C	-0.5592679517	-1.8178351605	 0.791861479	-0.088257
C	-0.4537841744	-3.2475326897	 0.3400065036	 0.143512
O	 0.5518505301	-3.9126858242	 0.354264415	-0.246177
C	 0.7116338886	-0.9609147365	 1.0043844546	-0.151204
C	 1.8019155328	-1.0776954161	-0.0757749223	-0.097272
O	 1.1636442326	-0.0733474793	-0.9064399825	-0.327407
H	 0.8259724776	 2.0517886598	 0.7325828243	 0.126525
H	-0.4488409021	 2.1259885563	-0.49653283	 0.131727
H	-0.8613846667	 1.7031287461	 1.1758485156	 0.115331
H	-2.09094182	-0.3482506111	 0.0313750301	 0.106425
H	-1.1436461759	-1.1020484019	-1.2765831634	 0.118821
H	-1.1887227425	-1.8245182075	 1.6909783526	 0.10496
H	-1.4161498214	-3.6754626726	-0.0287844088	 0.077906
H	 1.0359354434	-0.7816555732	 2.0285222961	 0.079863
H	 2.7921100402	-0.7420586585	 0.2551665012	 0.10275
H	 1.8996304223	-2.0423937566	-0.5788332123	 0.12712
