17
gdb 97707	2.71042	0.8373	0.70565	2.9078	80.42	-0.2514	-0.0232	0.2281	1608.046	0.1334	-421.786839	-421.777116	-421.776172	-421.823273	33.908	
O	 0.1910716913	 1.1347568201	-0.6380546871	-0.401891
C	 0.0313989177	-0.0206962166	 0.173490879	-0.200686
C	-1.3227149406	-0.5707996647	 0.1485922689	 0.154562
C	-2.4613566695	-0.9651026696	 0.1354487671	-0.063154
C	-3.8128258075	-1.4425787711	 0.1218783661	 0.041153
C	-4.4323689432	-1.8930317038	-1.2148089752	-0.289396
C	-4.0763940353	-2.9229746299	-0.2104933058	-0.289135
C	-4.7788658425	-0.8333486425	 1.0846654205	 0.120995
O	-4.5277277953	 0.0385870956	 1.8726150719	-0.253453
H	-0.4921841362	 1.7621530315	-0.3789820508	 0.289991
H	 0.7448070493	-0.7569456975	-0.2134989824	 0.138549
H	 0.3182531495	 0.1792646517	 1.2181682003	 0.123874
H	-5.4799025956	-1.6573845802	-1.3704397435	 0.133249
H	-3.7990851776	-1.7645813551	-2.0833450615	 0.148939
H	-3.1916938957	-3.5267532282	-0.3673007503	 0.14708
H	-4.8735573989	-3.4102230426	 0.3411705547	 0.13341
H	-5.8017960297	-1.2734157771	 1.0068977182	 0.065914
