17
gdb 7266	4.51148	1.12576	0.93343	5.0205	67.53	-0.2459	-0.018	0.2279	1219.5203	0.139318	-401.033498	-401.023902	-401.022958	-401.069211	31.817	
C	 0.0508393581	 1.4162939397	 0.316022345	-0.345181
N	 0.0147281514	-0.0204719723	 0.0902379034	-0.091583
C	 1.3064196974	-0.6763003619	 0.0421182964	-0.339225
C	-1.1978593025	-0.6384259552	-0.0518609204	 0.431601
O	-2.2554198194	-0.0270145026	-0.0087859715	-0.379527
C	-1.2044453375	-2.153966079	-0.2637783183	-0.434844
C	-2.6292410593	-2.6745355382	-0.3783529026	 0.180161
O	-3.0171484883	-3.6600777875	 0.1922204063	-0.246672
H	 0.6011945031	 1.919009625	-0.4890164587	 0.123502
H	-0.9723374832	 1.7858742305	 0.3438514466	 0.173715
H	 0.5507061646	 1.6424468541	 1.265947397	 0.124365
H	 1.8509393031	-0.5272663561	 0.9837706204	 0.132506
H	 1.2041199765	-1.7465875838	-0.1238661716	 0.144699
H	 1.9206024537	-0.2609719304	-0.7677327165	 0.130982
H	-0.6821308695	-2.4086055563	-1.1970428972	 0.143335
H	-0.7043748542	-2.6911044319	 0.5468774389	 0.146519
H	-3.283943774	-2.0885913741	-1.0510873872	 0.105647
