19
gdb 39897	2.69823	1.78073	1.57269	1.5404	74.32	-0.2389	0.0899	0.3288	946.0625	0.161554	-423.004704	-422.997644	-422.9967	-423.035879	28.85	
C	-0.0181524901	 1.4743517428	 0.0037254825	-0.355207
C	 1.294905749	 0.7106376729	-0.000366773	-0.35522
C	-0.0072876447	-0.0176170849	 0.0020057255	 0.439889
C	-0.5301368721	-0.9403337137	 1.0903525796	-0.02192
C	-2.0089426034	-1.0224848442	 0.6856945611	-0.078873
O	-1.9467755232	-1.025496336	-0.7594019907	-0.286479
C	-0.551067746	-0.9286535956	-1.0859328792	-0.021894
C	 0.1086938574	-2.2545805638	-0.6809602379	-0.078876
O	 0.075631245	-2.2015366432	 0.7641257334	-0.28648
H	-0.3036794453	 1.987254835	 0.9170500061	 0.115273
H	-0.3160620668	 1.9884468252	-0.9042729862	 0.119396
H	 1.8816849586	 0.7156231737	-0.9138345916	 0.115273
H	 1.889292803	 0.7063141555	 0.9074837363	 0.119394
H	-0.3238566009	-0.6984775245	 2.1327754511	 0.082539
H	-2.4722231624	-1.9484211323	 1.0420389275	 0.107306
H	-2.5964265673	-0.1619652575	 1.0311901463	 0.098017
H	-0.4430157379	-0.6301209496	-2.1284750219	 0.082538
H	-0.4672025275	-3.1151758896	-1.036890768	 0.107307
H	 1.1470689546	-2.3399373903	-1.0266333709	 0.098017
