14
gdb 4521	3.70852	1.77411	1.2085	1.2881	61.68	-0.1635	0.0506	0.2141	935.7493	0.107649	-415.870361	-415.862434	-415.86149	-415.902095	29.6	
N	 0.1451805519	 1.3589682049	-0.1363063939	-0.593293
C	-0.0497699081	-0.0152830815	-0.0486477761	 0.384624
C	-1.1589694868	-0.8052268959	-0.0409827549	-0.342933
C	-0.6748885445	-2.1662529494	-0.0616471603	 0.162559
N	-1.4611152276	-3.3302066093	-0.1349072904	-0.617756
C	 0.6776078659	-2.0851288286	-0.0679915427	 0.257849
O	 1.6425341716	-3.0286705321	 0.0139859704	-0.430831
O	 1.0815056961	-0.7582284301	-0.0649173915	-0.199202
H	 0.9356111462	 1.6725680226	 0.4146736692	 0.25284
H	-0.68496238	 1.8770993785	 0.1174751995	 0.251791
H	-2.1874429871	-0.4805722598	-0.0400583854	 0.089125
H	-2.2391792909	-3.3020600271	 0.5141349189	 0.240085
H	-0.9052688191	-4.153580153	 0.0666179315	 0.242872
H	 2.0821012324	-3.1231118492	-0.8411619542	 0.302271
