19
gdb 65598	2.82641	1.40089	1.24409	1.7027	74.87	-0.2341	-0.027	0.2071	1090.6555	0.157958	-423.027793	-423.019275	-423.018331	-423.0613	32.335	
C	 0.1761165498	 1.4976462351	 0.2290751871	-0.446241
C	 0.0293744912	-0.0127746585	 0.0649132249	 0.291883
C	 0.6513287759	-0.6000392697	-1.2203953258	-0.308338
C	 1.2809569422	-1.9086903888	-0.752754357	-0.055438
C	 2.560533329	-1.8156340389	 0.0582818786	-0.305488
C	 1.2266041809	-1.8825840177	 0.7470818169	 0.089862
O	 0.6899980411	-0.652535114	 1.1766402946	-0.300441
C	-1.4567021673	-0.3764356918	 0.194631518	 0.135641
O	-2.1852869218	-0.684037692	-0.7116861471	-0.249712
H	 1.237256267	 1.7602917037	 0.2594210441	 0.130133
H	-0.2979976533	 2.0219512803	-0.6059194411	 0.133474
H	-0.2861145916	 1.8369247761	 1.1613146432	 0.12947
H	-0.1330074182	-0.7690299776	-1.9614941141	 0.134941
H	 1.3874780046	 0.0876768584	-1.6483020658	 0.101851
H	 1.0795225806	-2.8157222076	-1.3092410375	 0.098353
H	 3.1965536398	-2.6939657061	 0.0945617264	 0.114042
H	 3.0861152213	-0.8664569786	 0.0863362313	 0.115774
H	 0.942489332	-2.7310408691	 1.3605434934	 0.099749
H	-1.8102236134	-0.3376287832	 1.2494943598	 0.090485
