20
gdb 84794	2.69144	1.32899	1.11816	3.3081	79.97	-0.2357	0.0244	0.2601	1170.2782	0.171409	-403.201057	-403.191698	-403.190754	-403.235565	34.667	
C	 0.3037244934	 1.6627338277	-0.2843957611	-0.389706
C	-0.0217561434	 0.2143343234	 0.1228006457	-0.040098
C	-0.0179535869	-0.7141810103	-1.0724609412	-0.062375
C	 1.0056962554	-1.5639316396	-1.0640523767	-0.072557
C	 1.8775430927	-1.3954054369	 0.1542775219	-0.269501
C	 1.035420066	-0.4744154087	 1.0697094888	-0.108923
C	 1.8845470187	 0.5210746321	 1.8537020863	 0.400964
N	 1.3490055165	 0.9159854846	 3.0475692467	-0.52377
O	 2.938865558	 0.9696317641	 1.4428072879	-0.367689
H	 1.3080669336	 1.7354776583	-0.7091139618	 0.140483
H	-0.413647228	 2.0141259494	-1.0331594727	 0.104771
H	 0.2499980391	 2.3387678184	 0.5747191885	 0.115364
H	-1.0020717354	 0.2191233796	 0.6165974789	 0.069295
H	-0.7511157411	-0.6191203952	-1.8668717068	 0.088479
H	 1.2318384631	-2.2803256619	-1.8463485364	 0.091757
H	 2.1194580785	-2.3454793855	 0.6441789099	 0.099493
H	 2.8313681982	-0.9140192879	-0.0924597995	 0.138454
H	 0.4764921152	-1.0979441407	 1.7762006058	 0.07056
H	 0.5204170606	 0.4967252243	 3.4302913183	 0.256455
H	 1.8686353256	 1.5686804748	 3.6113660874	 0.258547
