21
gdb 99260	3.3257	0.74145	0.63727	3.9464	76.74	-0.2631	-0.0255	0.2376	1779.5929	0.178107	-461.374008	-461.363021	-461.362077	-461.411793	38.433	
C	 0.0363523443	 0.9136348209	-1.0754307814	-0.391237
C	-0.0219444374	-0.2474166002	-0.0905640969	 0.159326
C	 0.2456654034	 0.1978410345	 1.3487899409	-0.395994
O	-1.3201585265	-0.8286111663	-0.2338596638	-0.259396
C	-1.4777628955	-2.1059666285	 0.3246126763	-0.166898
C	-2.7809759021	-2.7262514502	-0.1518258423	 0.326663
O	-3.1569328429	-3.7960504102	 0.2778061731	-0.325001
C	-3.6083123215	-1.990384252	-1.1892817748	-0.126252
O	-4.7573122344	-2.7131494576	-1.5175595945	-0.425508
H	 1.0239186094	 1.3832083838	-1.0572074979	 0.118162
H	-0.1664396283	 0.5652404682	-2.0913646283	 0.124025
H	-0.71088003	 1.6701169468	-0.8158095222	 0.127089
H	 0.7279282035	-1.0041769652	-0.3772952327	 0.070573
H	 0.2236536414	-0.6425613715	 2.0485518547	 0.119832
H	 1.2339699067	 0.6618235514	 1.4230149081	 0.121458
H	-0.5045665081	 0.929843239	 1.6645308358	 0.1268
H	-0.6597491703	-2.7843982746	 0.026676706	 0.123755
H	-1.4956253027	-2.0962981258	 1.4250430861	 0.129051
H	-3.8488614865	-0.9933186973	-0.7885029656	 0.127955
H	-2.9710738533	-1.8084667328	-2.0691811075	 0.122747
H	-4.7148164392	-3.5177299724	-0.9762516428	 0.292849
