17
gdb 16115	4.22529	1.63273	1.43154	4.4897	72.62	-0.2754	0.0352	0.3106	909.2038	0.144996	-326.752831	-326.745962	-326.745018	-326.78369	26.926	
N	 0.0379235479	-1.1377548795	-0.3527205178	-0.351233
C	 0.0305835758	 0.0037489325	-0.1607223018	 0.197307
C	 0.0122247287	 1.4157512769	 0.0885824306	 0.20951
C	 0.252578536	 2.365384495	-1.0765749	-0.323737
C	 1.2885558	 2.2563147492	 0.0035614626	-0.059319
C	 1.2513615788	 3.2612508322	 1.1439032903	-0.216955
C	-0.2355025999	 3.3396871117	 1.5616807614	-0.237057
C	-0.8212771079	 1.9415810585	 1.2599836239	-0.271695
H	 0.4819339179	 1.9074409023	-2.0313729382	 0.137488
H	-0.3707602539	 3.2507353793	-1.1436429163	 0.124022
H	 2.2279773657	 1.7762294826	-0.244212954	 0.109494
H	 1.8644589222	 2.8846437244	 1.9705209725	 0.112433
H	 1.6545711201	 4.2388975886	 0.8603847215	 0.10882
H	-0.3588500291	 3.6172876807	 2.6109775401	 0.110612
H	-0.7548138783	 4.1023319979	 0.9737800144	 0.11251
H	-1.8915492311	 1.9718863635	 1.0354444228	 0.115546
H	-0.6855652828	 1.2698997842	 2.114111468	 0.122254
