21
gdb 68037	2.05744	1.70975	1.40429	1.6446	79.35	-0.2275	0.0684	0.2959	1089.7877	0.178574	-424.182895	-424.172978	-424.172034	-424.216505	38.124	
C	 0.0717319486	 1.4627646862	 0.1091712388	-0.525576
C	-0.016627885	-0.0202860838	-0.068760665	 0.348934
C	 0.6114381359	-0.9321642612	-1.1514496167	-0.313211
C	 0.0353801378	-1.839000038	-0.0323744281	 0.373326
C	 0.2055352454	-3.3073212628	 0.1968736729	-0.524124
O	 0.6033486767	-0.892212158	 0.9642558198	-0.379758
C	-1.264165477	-0.9796224663	-0.0216877494	 0.357779
C	-2.1240704184	-0.9742642572	 1.2288443091	-0.488858
O	-2.0400718795	-1.113046138	-1.1940985426	-0.486329
H	 1.1157806938	 1.7904044175	 0.1265696117	 0.134074
H	-0.4331849705	 1.9708355143	-0.7190501712	 0.125117
H	-0.4020968665	 1.7724218763	 1.0462582695	 0.128501
H	 0.1444716459	-0.9651411236	-2.1350963243	 0.11093
H	 1.7020617421	-0.9018901806	-1.1821177666	 0.093297
H	 1.2658408463	-3.5765966536	 0.2142496298	 0.131299
H	-0.2435731358	-3.6067854969	 1.1490867704	 0.128875
H	-0.2822535698	-3.8670864758	-0.6072055775	 0.134756
H	-1.5055240562	-0.910381872	 2.1236967938	 0.146266
H	-2.809387108	-0.1162302595	 1.2211227992	 0.103257
H	-2.7332308736	-1.8830356494	 1.2742140948	 0.121527
H	-2.8248895623	-0.564420988	-1.0986237386	 0.279919
