19
gdb 75788	2.28616	1.3041	1.13975	2.9918	76.9	-0.246	-0.0349	0.2111	1181.8677	0.155635	-423.052814	-423.043087	-423.042143	-423.087693	35.128	
C	-0.6673194683	 1.1915374991	-0.0754420808	-0.418135
C	 0.108381788	-0.1155595664	-0.0672413555	-0.129532
C	 1.4692549732	-0.1848765886	-0.7783926578	 0.39223
O	 1.9058590676	 0.3750815284	-1.7419821732	-0.298154
C	 2.0745376031	-1.064393718	 0.3137462112	-0.384409
C	 0.87780556	-0.6574480046	 1.2267448341	 0.190665
C	 1.2066584799	 0.4187792317	 2.2593660524	-0.4718
C	 0.1376011942	-1.8164667676	 1.8521226182	 0.10509
O	 0.2463854174	-2.9670313982	 1.5093700807	-0.255569
H	-0.0745477707	 2.0206548502	 0.3199782027	 0.127745
H	-0.9389812047	 1.4452661729	-1.1044017146	 0.144223
H	-1.5895957822	 1.1180959564	 0.5090223787	 0.12286
H	-0.513543177	-0.9311396505	-0.4594112941	 0.119955
H	 2.0208371846	-2.128742807	 0.0613123859	 0.155142
H	 3.0842408143	-0.8170319783	 0.6489777329	 0.128003
H	 1.707624898	 1.2737918847	 1.7961029441	 0.134611
H	 0.3036333173	 0.7891940241	 2.7562097749	 0.127186
H	 1.8768081858	 0.022985049	 3.0298192001	 0.130892
H	-0.5709142203	-1.5296875072	 2.6636062101	 0.078997
