20
gdb 79735	2.45193	1.7334	1.37612	1.1013	77.84	-0.2187	0.0667	0.2854	1031.587	0.171884	-403.10086	-403.09278	-403.091835	-403.132825	32.587	
C	-0.0065082899	 1.4897978651	-0.029487504	-0.48121
C	 0.0193079481	-0.0221799765	-0.0114098707	 0.295235
C	-1.2879737227	-0.7648857094	-0.3524126248	-0.318154
C	-1.4400572491	-1.860929339	 0.7066167202	-0.011633
C	-0.5397417849	-3.0415919206	 0.6828898873	-0.252866
N	-0.2394254991	-1.8927158661	 1.5647032598	-0.108768
C	 0.6647928151	-0.85320405	 1.096286915	-0.110738
C	 1.2966386477	-0.7555971292	-0.2921030532	 0.041537
O	 1.3267506624	-1.7706006372	-1.2551984591	-0.416076
H	 0.9541314551	 1.9076245144	 0.287817661	 0.114414
H	-0.2163814985	 1.8725283992	-1.0353293328	 0.121163
H	-0.7784323815	 1.879185594	 0.6444203648	 0.118477
H	-2.1253197703	-0.0636844174	-0.2908926188	 0.102779
H	-1.2750867565	-1.1692077473	-1.3691935769	 0.122853
H	-2.3962847852	-1.9335960945	 1.2199928929	 0.08564
H	-0.8260560949	-3.9397190871	 1.2246312177	 0.105936
H	 0.0569202979	-3.2012828089	-0.2033875679	 0.128196
H	 1.2147447081	-0.3791711099	 1.9043797416	 0.088675
H	 2.1850804346	-0.1202326969	-0.3127229403	 0.082211
H	 2.0472201836	-2.3696919429	-1.0310344019	 0.292328
