15
gdb 48305	3.005	0.88707	0.71571	2.0355	69.9	-0.2548	-0.0579	0.197	1493.5687	0.106803	-457.716933	-457.707139	-457.706194	-457.752945	33.036	
O	-0.1461634935	 0.179492025	 0.0404649452	-0.228718
C	 0.0468188901	 1.3612626241	-0.0478096985	 0.142936
C	 1.4401408851	 2.001640537	 0.0153578074	-0.049604
O	 2.5030018739	 1.0998594004	-0.0243185735	-0.250739
C	 2.7023686486	 0.3482998727	 1.174637492	-0.225954
C	 3.9764297839	-0.3496057868	 1.0980948555	 0.286457
C	 5.0212427082	-0.9397436862	 1.0626862622	-0.409806
C	 1.6040054469	 2.9660080345	-1.1615399291	 0.127942
O	 0.8221678838	 3.8454707497	-1.403390791	-0.240956
H	-0.7707764112	 2.0995007408	-0.183246813	 0.117894
H	 1.4461411376	 2.6255198214	 0.9311486555	 0.122171
H	 2.7032217797	 1.0289317858	 2.0422637016	 0.120471
H	 1.8831428218	-0.3666219711	 1.3109336424	 0.160107
H	 5.945631954	-1.4615762047	 1.0263641006	 0.206178
H	 2.5087502609	 2.7604875173	-1.7698688975	 0.12162
