17
gdb 79571	2.30843	1.79562	1.34499	2.1451	67.44	-0.2323	0.051	0.2833	999.6778	0.133301	-458.876927	-458.868557	-458.867613	-458.90923	32.854	
C	-0.1404949325	 1.4783623651	 0.1087405344	-0.50636
C	 0.1003063927	 0.0098268231	 0.0386715055	 0.349158
O	-0.7885554334	-0.8978099866	 0.7345155135	-0.320304
C	 0.6468664385	-0.9804996918	 0.9602098732	-0.04297
C	 1.3194924622	-1.7811704954	-0.1817649048	-0.233013
C	 0.3501798609	-2.2000571709	-1.2753959088	 0.069253
O	-0.8993636677	-2.7822575505	-1.1389849241	-0.425714
C	 0.7386366069	-0.7513903665	-1.1815546962	 0.224005
O	 1.4267185254	-0.053150392	-2.1577449134	-0.447682
H	 0.7409737197	 2.0173972817	-0.2498881578	 0.144881
H	-0.9897891106	 1.764655814	-0.5219936508	 0.131545
H	-0.3561970001	 1.7829980995	 1.1359385615	 0.13627
H	 0.9796570303	-0.9007619527	 1.9880941024	 0.114951
H	 2.3262907764	-2.1730391806	-0.1121094861	 0.103203
H	 0.8914910821	-2.6779214712	-2.0912361023	 0.113031
H	-1.3196144961	-2.3172866357	-0.4017481048	 0.295417
H	 0.8653340653	 0.0076756405	-2.9389710114	 0.294328
