16
gdb 93997	2.91611	1.2801	0.92422	9.2344	72.12	-0.2148	-0.0201	0.1947	1199.4258	0.12524	-475.005703	-474.997535	-474.996591	-475.03883	29.955	
O	 0.0558944028	 1.3838204012	 0.276683042	-0.436013
C	-0.0014989405	 0.0064589864	 0.0846165326	 0.064249
C	-1.4166423821	-0.5269852711	-0.1131128652	-0.235544
N	-1.1723228995	-1.7816406786	-0.9376420645	-0.304392
H	-1.011243468	-2.5714213764	-0.3036368814	 0.301053
H	-1.9924518292	-2.0277035891	-1.4950206625	 0.303896
C	 0.0063686057	-1.4839112966	-1.8106012733	-0.056674
C	 0.113177786	-2.2275916223	-3.0198826788	 0.067094
O	 0.9796064326	-2.1438443402	-3.8683146712	-0.299549
C	 0.691313532	-0.379843361	-1.2543082749	 0.302761
O	 1.6243683094	 0.3070668906	-1.6488478545	-0.393763
H	 0.7888258619	 1.6595419552	-0.3069375173	 0.297273
H	 0.4892634531	-0.5345834006	 0.9142267334	 0.086164
H	-1.9744330309	-0.7911417325	 0.7874544298	 0.139368
H	-1.9889320998	 0.1653449279	-0.7323542618	 0.167036
H	-0.7389328538	-2.9577733228	-3.1534842625	-0.002959
