15
gdb 23887	3.17062	1.41336	1.22134	2.0268	50.1	-0.2792	0.0663	0.3455	985.8488	0.113783	-531.312959	-531.304253	-531.303309	-531.346637	30.547	
C	-0.0072957548	 1.5592680354	 0.0700536729	-0.410308
C	-0.0515678263	 0.0293093145	-0.0131573339	-0.11454
C	-1.4856885816	-0.5114253401	 0.0112505797	-0.090515
O	-2.0480055941	-0.1453566399	 1.2608568866	-0.423092
C	 0.6770907235	-0.4747865131	-1.2482727937	 0.27805
F	 1.9433761704	-0.0332620346	-1.290253335	-0.080747
F	 0.7252690042	-1.8184758125	-1.2853919639	-0.084016
F	 0.07600582	-0.0711981466	-2.3832649408	-0.088201
H	 1.0209234116	 1.9203512854	 0.1425299781	 0.129281
H	-0.4666068693	 2.0079455975	-0.8163185988	 0.127059
H	-0.5618034701	 1.887865706	 0.9500482948	 0.143435
H	 0.4784331629	-0.4002840862	 0.8446551043	 0.114962
H	-2.0515633901	-0.0811886742	-0.8286187877	 0.101836
H	-1.4703281736	-1.6026506726	-0.1169122824	 0.10499
H	-2.9643093628	-0.435754069	 1.2742797497	 0.291807
