20
gdb 8954	4.10336	1.07441	0.89941	1.5239	67.73	-0.2599	0.0608	0.3207	1304.4792	0.174505	-423.271207	-423.26108	-423.260135	-423.306096	36.349	
C	-0.0353473198	 1.5685800708	 0.0678802275	-0.385234
C	-0.0113769389	 0.0404767705	-0.0111016448	-0.194656
C	 0.7475613644	-0.4836701068	-1.2320958059	 0.124749
O	 2.112034965	-0.0629232926	-1.2397174898	-0.435278
C	 0.6618904212	-2.0101063729	-1.3571835268	 0.119402
O	-0.7053422724	-2.3721867765	-1.4344585252	-0.447522
C	 1.4035696808	-2.5314169436	-2.5850240284	-0.104245
O	 1.1415824503	-3.9344025127	-2.6343412157	-0.43668
H	 0.9791885686	 1.9767655096	 0.0562635564	 0.121236
H	-0.573333714	 1.9969094783	-0.7850024274	 0.115518
H	-0.5329273976	 1.9095052054	 0.9806740847	 0.10928
H	 0.4583098501	-0.3766606745	 0.8931710305	 0.078744
H	-1.0273850675	-0.3641014678	-0.0410937445	 0.127797
H	 0.3128174068	-0.0464912315	-2.1402665889	 0.089853
H	 2.500159128	-0.3234717885	-0.3963938863	 0.278621
H	 1.1282122532	-2.463765284	-0.4618004412	 0.055828
H	-0.7115754569	-3.2769383583	-1.7727487791	 0.291265
H	 1.0148417463	-2.0271174391	-3.4821968471	 0.093254
H	 2.4758192468	-2.3193282093	-2.5021249688	 0.103912
H	 1.4090697855	-4.2667845265	-3.4952301893	 0.294156
