16
gdb 45622	3.85176	1.09852	0.9114	3.8709	72.91	-0.2185	-0.011	0.2075	1240.2387	0.124673	-437.908978	-437.901204	-437.90026	-437.94171	29.202	
O	 0.0934495622	 0.0311343774	 0.1037006655	-0.361861
C	-0.0038566537	 1.2342298041	 0.1029375054	 0.408331
C	-1.2728047349	 2.0988818343	-0.0187689813	-0.383817
C	-0.7381170357	 3.5048169937	-0.0753673676	-0.244801
C	 0.5948435544	 3.4607830371	 0.0583681864	 0.399012
N	 1.0444882324	 2.1384867975	 0.2064742699	-0.389164
C	 1.5724877767	 4.5612781655	 0.1134350579	-0.036928
C	 2.6665800599	 4.5872518817	 1.1027057521	-0.18628
O	 2.9195571245	 4.2243912011	-0.2540977566	-0.240138
H	-1.8384303284	 1.7948857954	-0.9067315509	 0.147389
H	-1.924064948	 1.9113032258	 0.8438420622	 0.146767
H	-1.3330844731	 4.4004566327	-0.1710852267	 0.105985
H	 2.0103589631	 1.872693145	 0.0931570119	 0.268316
H	 1.2150191734	 5.5122330321	-0.2771775455	 0.11138
H	 3.0744781351	 5.5470297016	 1.4151940432	 0.129109
H	 2.7510614221	 3.7808822348	 1.8287047142	 0.126698
