19
gdb 89075	3.91815	0.79133	0.73471	3.8348	72.77	-0.2376	0.07	0.3076	1571.6084	0.157041	-460.09706	-460.087809	-460.086865	-460.132453	33.508	
O	-0.4235127081	 1.435573532	 0.7061352882	-0.431097
C	-0.1549714085	 0.102559049	 0.4141068524	 0.128051
C	-0.9294067497	-1.0000352486	 1.1091074247	-0.355757
C	-1.177549435	-0.6792021826	-0.3544708422	 0.062366
O	-2.3049768579	 0.0732764567	-0.6886014716	-0.269663
C	-3.521238141	-0.6582375895	-0.6927623494	-0.079107
C	-4.6352735089	 0.2854344748	-1.0465042436	 0.078913
C	-6.0071099746	 0.0474053055	-0.5841632412	-0.179945
O	-5.1935235272	 1.0491712049	 0.0237441795	-0.226604
H	-1.3013181905	 1.6217747348	 0.3461496273	 0.29618
H	 0.8960315114	-0.0639720645	 0.198238078	 0.102226
H	-0.4285873812	-1.9291251532	 1.3600178982	 0.112958
H	-1.685238655	-0.6735426733	 1.8158574547	 0.126437
H	-0.8701332146	-1.3956046126	-1.1162760232	 0.090084
H	-3.4679072418	-1.4702907861	-1.4359034577	 0.097601
H	-3.7097030104	-1.1070259536	 0.2922637673	 0.105982
H	-4.4840582867	 0.8482851339	-1.9679293543	 0.104407
H	-6.8440891093	 0.4124601804	-1.1770584244	 0.120701
H	-6.2240136511	-0.8201010278	 0.0382964974	 0.116268
