13
gdb 129013	4.02445	1.7547	1.22193	1.8823	78.56	-0.2185	-0.0788	0.1397	914.6844	0.092805	-411.761946	-411.756083	-411.755139	-411.792034	23.708	
N	 0.0228720076	 1.2376676161	 0.0091641454	-0.081798
N	 1.0860798438	 2.0728630146	 0.0033601774	-0.112733
N	 2.2695702627	 1.5480239847	-0.0113121758	-0.277077
C	 2.3680475427	 0.2046600994	-0.0198678142	 0.335605
C	 3.4609348005	-0.636379671	-0.0354324238	-0.251513
C	 2.9497563883	-1.9678165302	-0.0378988511	-0.064888
C	 1.5558377562	-1.9912509808	-0.0242191244	-0.2577
C	 1.1507804575	-0.6446145775	-0.0126225745	 0.349542
N	-0.0393194269	-0.0846794613	 0.0023106627	-0.282022
H	-0.863446248	 1.7217450805	 0.0206671919	 0.301222
H	 4.5008283165	-0.3471304355	-0.0440895483	 0.114682
H	 3.574138422	-2.8529273257	-0.0490781889	 0.11319
H	 0.9136097771	-2.8582889633	-0.0227401197	 0.113489
