17
gdb 8371	5.02634	1.29784	1.19581	3.8489	70.18	-0.2365	0.0377	0.2742	1039.0435	0.141377	-363.872183	-363.864218	-363.863274	-363.904564	29.828	
C	-0.0677748565	 1.5293929077	-0.049257814	-0.404985
C	 0.0131051632	 0.0210304895	 0.027759217	-0.065124
C	 1.3325545263	-0.7052187211	-0.2217605917	-0.357109
C	 0.7299810529	-0.6657672177	 1.1477427002	 0.41472
C	 1.2986427782	-0.0887696226	 2.4554515749	-0.48078
C	 0.7171577334	-1.3670412636	 3.1211009842	 0.43562
O	 0.6684319012	-1.824131693	 4.230475075	-0.360624
N	 0.2490604365	-1.8089487836	 1.904802038	-0.382365
H	 0.8399083139	 1.9939887523	 0.3498217483	 0.119117
H	-0.1833201926	 1.8661345706	-1.0852046443	 0.122312
H	-0.9178741574	 1.9139520316	 0.5248421537	 0.122858
H	-0.8686854309	-0.4994104097	-0.3408211425	 0.087384
H	 1.3057588386	-1.641163029	-0.7707162764	 0.114426
H	 2.2180020749	-0.1043820302	-0.4079518739	 0.118257
H	 2.386099474	-0.0129030425	 2.5091005647	 0.133199
H	 0.8416943488	 0.8394246818	 2.8039646821	 0.133777
H	-0.2751380745	-2.6307508703	 1.6432605347	 0.249317
