17
gdb 70804	2.92475	1.54447	1.22088	2.473	72.69	-0.2348	0.0076	0.2424	1036.2	0.13448	-421.79859	-421.790517	-421.789573	-421.830746	31.522	
C	 0.0054639797	 1.5720659808	 0.0813013651	-0.503351
C	 0.0258506279	 0.0689205432	 0.0919523718	 0.166903
C	-1.2836749376	-0.7859808573	 0.1869452074	-0.346755
C	-0.3983144867	-1.8558591785	 0.8234730945	 0.411503
O	-0.7944389128	-2.9404436443	 1.5688363885	-0.458495
C	 0.9357671778	-1.8887198632	 0.0270171286	-0.288116
C	 0.661893059	-0.890252075	 1.1890988872	-0.179427
C	 0.8812421036	-0.7352371361	-0.9176724296	 0.421932
O	 1.4383504987	-0.4386752098	-1.9383347603	-0.348345
H	 1.0212153135	 1.9793537419	 0.080293402	 0.132892
H	-0.495854315	 1.9360082607	-0.8216449612	 0.136359
H	-0.5268772233	 1.9731747507	 0.9495066099	 0.120765
H	-1.9819507442	-0.3673549781	 0.9183717757	 0.111598
H	-1.804912012	-1.0139901922	-0.7501147151	 0.099715
H	-1.1101252433	-3.6265514709	 0.9694585734	 0.291986
H	 1.5733738658	-2.7619864645	 0.0513523557	 0.11137
H	 1.2698463189	-0.7147801675	 2.0629503566	 0.119466
