15
gdb 6263	4.18879	1.1899	1.05175	4.5539	63.98	-0.3125	-0.066	0.2465	1129.4682	0.116566	-399.843389	-399.834633	-399.833689	-399.877235	30.127	
C	-0.1755833682	 1.5209158576	 0.0549298987	-0.396332
C	 0.0140217249	 0.01423552	 0.0024379355	 0.130944
C	 0.7397835094	-0.5615310689	 1.2114384671	-0.399748
O	-1.3393843491	-0.5522630873	-0.061077045	-0.239338
C	-1.4665190169	-1.7440172507	-0.6322916779	 0.362675
O	-0.6006021179	-2.429596911	-1.1065595219	-0.337475
C	-2.8795564846	-2.1529607884	-0.6234884448	 0.252695
N	-3.9729259768	-2.5240435017	-0.6420931869	-0.306354
H	 0.8004523873	 2.0141208872	 0.0695495003	 0.130201
H	-0.7288321108	 1.8758376032	-0.8181687121	 0.134619
H	-0.7234315006	 1.8126021324	 0.9557962602	 0.135652
H	 0.5247785876	-0.2840679611	-0.9168914905	 0.122235
H	 0.1997705306	-0.3266579711	 2.1335814186	 0.132639
H	 0.8437289784	-1.6451640525	 1.1238987434	 0.147044
H	 1.7417274668	-0.1272663776	 1.2782979755	 0.130542
