17
gdb 39341	2.87669	1.89065	1.37063	0.249	66.83	-0.241	0.0846	0.3256	932.944	0.13765	-458.936134	-458.92926	-458.928316	-458.967493	27.142	
C	-0.0965013843	 1.4544660369	-0.1401889572	-0.387765
C	 1.283989077	 0.8253930999	 0.0194368867	 0.001557
O	 1.8161239019	 0.8048267407	 1.3182231515	-0.263245
C	 1.3657343983	-0.3908516842	 1.9717664589	-0.096258
C	-0.0056786388	-0.7383945845	 1.3498761417	 0.001913
O	-0.176689543	-2.1035328111	 0.9762355998	-0.267253
C	 0.0566476885	-2.1802758172	-0.4189732789	-0.003324
O	-0.3420633918	-0.9410285704	-0.9717758589	-0.272568
C	 0.0445922188	-0.0197784841	-0.0018444875	 0.389253
H	-0.5076065654	 2.027920296	 0.6845337536	 0.124595
H	-0.3373220567	 1.8247388705	-1.1318333487	 0.13009
H	 2.0034608944	 0.8760530685	-0.7912075084	 0.108259
H	 2.0599864601	-1.2245171758	 1.7918445917	 0.104919
H	 1.328115765	-0.1873165692	 3.0444667769	 0.114966
H	-0.8466488752	-0.4601755361	 1.9913742225	 0.098188
H	 1.1263626856	-2.3599733959	-0.6231820299	 0.090658
H	-0.5555240444	-2.978116374	-0.8455495938	 0.126016
