19
gdb 83527	2.89368	1.72802	1.58158	1.7034	72.64	-0.247	0.0856	0.3326	931.7152	0.16296	-423.009408	-423.002727	-423.001783	-423.039952	28.764	
O	 0.0345190555	 1.4465007737	 0.0132870392	-0.467601
C	 0.0121059752	 0.0396349461	 0.0319081683	 0.15088
C	-1.3577416841	-0.6130529214	-0.3037494721	-0.096466
C	-1.5068395209	-0.1010338854	-1.7552188357	-0.090111
O	-0.1433693853	-0.0533668092	-2.2546682651	-0.30447
C	 0.6850803122	-0.6008028743	-1.1958151215	 0.045504
C	 0.3748774589	-2.0848146009	-1.0890275318	-0.036765
C	 0.1600768708	-2.7044620027	 0.2715914212	-0.331811
C	-1.0135420983	-2.0965675047	-0.4528488947	-0.024764
H	 0.0440212051	 1.7078603177	-0.9163782721	 0.291442
H	 0.416165226	-0.264453453	 0.9957992259	 0.085676
H	-2.1858015828	-0.3569466369	 0.3577862944	 0.073895
H	-2.1067286759	-0.7719053325	-2.3794464035	 0.102591
H	-1.9364074651	 0.9056084746	-1.8057426632	 0.101146
H	 1.7160606649	-0.3123025462	-1.4030663743	 0.079204
H	 0.6263681509	-2.7161204695	-1.9331102329	 0.095938
H	 0.1742873568	-3.7892376219	 0.2874708881	 0.114835
H	 0.5761426321	-2.2623076923	 1.1686503121	 0.119837
H	-1.790002316	-2.7589445812	-0.8208522422	 0.091039
