13
gdb 24855	2.55838	1.79865	1.1449	3.777	69.39	-0.2718	-0.1051	0.1668	992.3334	0.091437	-448.955666	-448.948516	-448.947572	-448.987729	26.352	
N	 0.0516937166	 1.2194904405	 0.5660302419	-0.495291
C	 0.0227600348	 0.0097424719	 0.1602758932	 0.336194
N	-1.1912395649	-0.6613496256	 0.1177490164	-0.354
C	-1.4605080275	-1.9979258038	-0.2121123579	 0.415912
O	-2.4940228894	-2.3049550349	-0.7488573069	-0.327563
N	-0.5591584433	-2.9539464318	 0.2844715909	-0.236942
C	 0.7063282593	-2.8625844469	 0.2351165262	 0.083035
N	 1.5165292122	-1.9206628995	-0.4104181615	-0.20589
C	 1.2106643347	-0.6850947696	-0.4261392853	-0.022807
H	 0.9826521517	 1.6201915158	 0.4574749811	 0.233322
H	-2.0062990755	-0.0596208627	 0.1294395475	 0.276854
H	 1.2899113952	-3.6555425246	 0.7039379093	 0.14798
H	 1.9055172161	-0.0056219487	-0.9261879948	 0.149197
