19
gdb 111980	2.22861	1.54606	1.26941	3.0855	72.71	-0.2502	-0.0104	0.2398	1095.4044	0.159163	-460.151631	-460.142734	-460.14179	-460.185074	33.66	
C	 0.39084232	 0.6649665103	-0.6525139927	-0.238185
O	-0.0555457994	-0.5773872691	-0.1517868237	-0.25424
C	-1.4314840423	-0.5938004038	 0.2442914894	 0.021206
C	-2.3576397475	-0.6716294055	-0.9549962585	-0.085604
C	-2.6222136893	-1.9442247647	-1.2651040186	-0.095637
C	-1.9358600143	-2.890023796	-0.3059021169	 0.055228
O	-0.6887817795	-3.3803885666	-0.8100389158	-0.45
C	-1.687628995	-1.9713149015	 0.9184233346	 0.095414
O	-0.6816684859	-2.4271333201	 1.7714177341	-0.431289
H	 1.4636934137	 0.5716742702	-0.8375637464	 0.131578
H	-0.1072722413	 0.9398147153	-1.5934520479	 0.108943
H	 0.2257123041	 1.470883056	 0.0777997176	 0.112592
H	-1.6246485888	 0.2580224	 0.9101197132	 0.069673
H	-2.7133781127	 0.1967678596	-1.4980486656	 0.104729
H	-3.2158770895	-2.2843827282	-2.10601685	 0.107598
H	-2.5188754103	-3.7803526243	-0.0579846545	 0.087435
H	-0.1954055044	-2.5990661464	-1.099250716	 0.284694
H	-2.6115136053	-1.8882260979	 1.5006179447	 0.091234
H	-0.0242774622	-2.8461930971	 1.1992368931	 0.284633
