19
gdb 126824	2.30216	1.47237	0.96769	3.8206	78.4	-0.2115	0.0304	0.2419	1256.0733	0.161084	-415.416876	-415.407593	-415.406649	-415.45184	32.871	
C	-0.0876765451	 1.5601726666	-0.0101541871	-0.379004
C	 0.0267605859	 0.0342350387	-0.0402618089	-0.157944
N	 0.7401743556	-0.4599990196	-1.2010204101	-0.037468
N	 0.0911682533	-0.6587887991	-2.3938944034	-0.268544
C	 1.061664518	-1.1020431858	-3.1652093057	 0.025323
N	 2.2914941402	-1.1927845681	-2.5833552437	-0.354704
C	 2.0506779126	-0.7760085655	-1.3490095781	 0.473887
N	 2.964938767	-0.7249952684	-0.3209167061	-0.404199
C	 4.3618957401	-0.9834911096	-0.6529440306	-0.316374
H	 0.8980488691	 2.0351029305	 0.0328991418	 0.115909
H	-0.5972726693	 1.9161196575	-0.909046862	 0.1503
H	-0.6593897054	 1.8809582258	 0.8659628643	 0.122808
H	 0.5415274391	-0.3434294464	 0.8498501432	 0.120365
H	-0.9662339856	-0.4215491707	-0.0618464084	 0.141402
H	 0.8841178389	-1.3720121458	-4.196015304	 0.118145
H	 2.8304921718	 0.0453222428	 0.3170649633	 0.24411
H	 4.9420729451	-0.9981022367	 0.272576371	 0.119932
H	 4.4380271117	-1.9592998151	-1.135098562	 0.159352
H	 4.7877006169	-0.2378098011	-1.3371894035	 0.126703
