12
gdb 131325	5.61411	1.39325	1.11624	4.4218	60.64	-0.2386	0.0174	0.256	967.3133	0.081516	-464.996306	-464.990025	-464.989081	-465.026879	24.062	
O	-0.0322059394	 1.249061769	 0.0101547552	-0.406929
C	 0.0415009428	-0.0797944581	 0.002209181	 0.491411
N	 1.1389726424	-0.7898484673	-0.0088298313	-0.346054
N	 0.6350026126	-2.0708172835	-0.0126602494	 0.100339
N	 1.1700891342	-3.3101762364	-0.0231602983	-0.264908
C	 0.0551108906	-4.0454918822	-0.0199819412	 0.026887
N	-1.1445720169	-3.3760111308	-0.008574139	-0.398357
C	-0.7073176409	-2.1331972657	-0.0043613393	 0.504583
N	-1.1200904901	-0.8162053926	 0.0054646962	-0.467239
H	 0.871967589	 1.5916102684	 0.0060416379	 0.331544
H	 0.106999842	-5.1235244347	-0.0263606474	 0.129134
H	-2.0581723163	-0.4560380262	 0.0140928257	 0.29959
