15
gdb 70779	3.7832	1.37988	1.15208	3.6074	71.29	-0.2617	-0.0164	0.2454	1041.371	0.111676	-416.707101	-416.699571	-416.698627	-416.738999	28.775	
C	 0.0598940279	 1.4024834201	-0.1547330358	-0.535278
C	 0.0062223184	-0.078257481	-0.0146820731	 0.462499
O	 0.5231772669	-0.9386577983	-1.0854230084	-0.361734
C	 0.0616100748	-1.8902071391	-0.0977712059	 0.406775
C	 0.1816425152	-3.3040847615	-0.3240557715	 0.143541
N	 0.2528520322	-4.4511204706	-0.4526287701	-0.338829
C	 0.4956595022	-1.0162821013	 1.1401449151	-0.169248
N	-0.8454578478	-0.9938409269	 1.7922765298	-0.334625
C	-1.1850811264	-1.0309902825	 0.3404992164	-0.169244
H	 1.0938784289	 1.7409784145	-0.2672300737	 0.144863
H	-0.5103669819	 1.7270296889	-1.0298496452	 0.144856
H	-0.3688537312	 1.8653244053	 0.7387045121	 0.153946
H	 1.4454558129	-1.0261634708	 1.6743878497	 0.111364
H	-1.0507544227	-1.8892330334	 2.2402531137	 0.22975
H	-2.1985167694	-1.0580466535	-0.0593037433	 0.111364
