16
gdb 47586	2.52673	1.93714	1.21661	3.5207	66.23	-0.263	-0.007	0.256	986.1538	0.12615	-474.998534	-474.991344	-474.990399	-475.030757	27.013	
N	-0.0514491858	 1.2354513132	 0.332819324	-0.503901
C	 0.0265749807	 0.0208593459	-0.0016721991	 0.376517
O	 1.2171651162	-0.6085552155	-0.2351297702	-0.238374
C	 1.1604323153	-1.8106122545	-1.0019005628	 0.002972
O	 0.2798511542	-2.7401201823	-0.4638452594	-0.234039
C	-1.0637841691	-2.2915372341	-0.548144815	 0.035386
C	-1.8218144918	-2.627266862	 0.7386321283	-0.090421
O	-1.6993034039	-1.2647991844	 1.2064147576	-0.28155
C	-1.226539841	-0.8237226327	-0.0901526349	 0.045434
H	 0.8820792062	 1.6482509456	 0.3995250368	 0.225628
H	 0.8924514954	-1.5582958969	-2.0410764479	 0.099277
H	 2.1628375252	-2.2374463704	-0.9627733748	 0.136534
H	-1.506999712	-2.5738951127	-1.5096060823	 0.089201
H	-2.8695075589	-2.9167054105	 0.590006034	 0.107125
H	-1.3194912685	-3.3442741989	 1.3940111239	 0.126344
H	-2.0016000622	-0.2604166298	-0.620655628	 0.103866
