17
gdb 38234	3.19401	2.08919	1.74563	0.6757	71.99	-0.228	0.0354	0.2633	818.543	0.136804	-421.658773	-421.652687	-421.651743	-421.688654	26.851	
C	 0.0057523712	 1.7869205009	-0.027050276	-0.203433
C	 1.4628166737	 1.458664999	 0.0862396451	 0.041685
O	 1.0423695231	 0.2583690255	 0.9325796181	-0.397593
C	-0.0069974616	 0.2205898068	-0.1247500136	 0.344129
C	-1.3466273637	-0.2039035639	-0.7282684378	-0.170925
O	-1.1017795873	 0.4753071143	-2.0159863956	-0.277241
C	 0.303745308	 0.3940419373	-2.3078892259	 0.04993
C	 1.6764638699	 0.9182581208	-1.3734312794	-0.144725
C	 0.9355289482	-0.3399296383	-1.2585091855	-0.08473
H	-0.4503085706	 2.0462957349	 0.9306042201	 0.102227
H	-0.3476578094	 2.4100630715	-0.8439166014	 0.1221
H	 2.2331713149	 2.0517998435	 0.5773415717	 0.087402
H	-1.4889926425	-1.2774910946	-0.8878632838	 0.116539
H	-2.2365788517	 0.2506163018	-0.2926575383	 0.12699
H	 0.4886118263	 0.3503222239	-3.3747924252	 0.111792
H	 2.5988196477	 1.0339503631	-1.9338799684	 0.087474
H	 1.2740425938	-1.3680751566	-1.1610972543	 0.088378
