18
gdb 70708	2.25767	1.91779	1.26679	4.0835	71.75	-0.2292	0.0051	0.2343	1022.3606	0.14929	-439.104233	-439.096147	-439.095202	-439.136825	31.182	
N	-0.113887921	 1.4581379154	 0.1948845149	-0.578669
C	-0.0727368856	 0.0235237485	 0.0558968676	 0.180404
C	-0.4110478061	-0.6846339163	-1.2565446635	-0.329234
C	-1.3436908308	-0.7777698144	-0.0721856155	-0.073222
C	-1.436495215	-2.0955485147	 0.6906575314	-0.24196
C	-0.418144067	-2.1194985782	 1.8214917191	-0.079883
O	 0.9110852605	-1.7847259192	 1.3695538873	-0.236575
C	 1.0917813892	-0.5701141516	 0.7976541775	 0.413394
O	 2.1672702084	-0.0331294808	 0.8388405793	-0.344528
H	 0.8381593828	 1.8047959212	 0.1044319756	 0.248778
H	-0.6595631152	 1.8729724465	-0.5537921934	 0.226869
H	-0.6871071695	-0.0421724932	-2.0866655938	 0.113924
H	 0.1436533293	-1.5747763617	-1.5381630471	 0.126344
H	-2.253152783	-0.1874121619	-0.1281018745	 0.096409
H	-2.4358823713	-2.2249306416	 1.1186075299	 0.113985
H	-1.2653780154	-2.9438401725	 0.0185223794	 0.115322
H	-0.7024258588	-1.4145428017	 2.6120776751	 0.124
H	-0.3202068415	-3.1116832636	 2.2670448607	 0.124642
