16
gdb 29746	3.43081	1.26332	0.93132	7.3121	79.68	-0.2144	-0.0469	0.1675	1193.6287	0.125127	-434.106984	-434.098348	-434.097404	-434.140304	31.036	
C	-0.087144375	 1.4344871576	 0.0039910975	-0.360257
N	-0.0009738593	-0.0166753884	 0.0060907949	-0.070235
C	 0.0014738599	-0.7958518379	-1.1175690821	 0.276218
N	-0.0925707383	-0.2348389172	-2.3924749219	-0.609916
C	 0.0137170519	-2.1089929447	-0.6694116286	-0.143498
N	 0.0263225354	-2.1475204963	 0.6835131107	-0.267633
C	 0.0306910158	-0.8864349618	 1.091289454	 0.220116
C	 0.0994407051	-0.4275231167	 2.4736503836	 0.076601
O	 0.0993440509	-1.1461955651	 3.4475876916	-0.266436
H	 0.8962137717	 1.8999851145	 0.1291943394	 0.145081
H	-0.5128302618	 1.7486996461	-0.9512682267	 0.160002
H	-0.7424287506	 1.774878411	 0.8065539172	 0.159871
H	 0.7073300613	 0.333199905	-2.651313885	 0.256411
H	-0.2303473245	-0.9466436361	-3.0980815099	 0.261787
H	 0.0152520556	-3.0058648721	-1.2719102083	 0.108617
H	 0.1600939618	 0.6791906323	 2.5840027538	 0.053271
