13
gdb 14545	4.92422	1.62404	1.47803	4.1242	58.69	-0.2635	-0.0012	0.2623	830.3486	0.094956	-398.550655	-398.543775	-398.54283	-398.581596	25.635	
O	-0.0299542856	 1.3628933618	 0.0246639982	-0.462929
C	-0.0372240165	-0.0254882558	 0.0102002671	 0.272848
C	 1.0604597245	-0.6303647357	 0.726425799	 0.257511
N	 1.9295957655	-1.1404523505	 1.2935006145	-0.33136
C	-1.3446082518	-0.8283444369	 0.0497836334	-0.184074
C	-2.3693042856	-0.0402105033	-0.7543217239	-0.117817
O	-1.4525693442	 0.0454006709	-1.8955742945	-0.299678
C	-0.5163581943	-0.7806472052	-1.2130929385	 0.021114
H	-0.230812213	 1.6436605996	-0.8794281196	 0.304963
H	-1.5305435327	-1.6210073782	 0.7604568187	 0.13388
H	-3.2521638991	-0.6218177424	-1.0313086687	 0.134494
H	-2.6538545211	 0.9455981631	-0.3769307343	 0.133737
H	 0.0607557839	-1.5009096874	-1.7804289813	 0.137312
