19
gdb 75196	2.57753	1.67345	1.18967	2.2128	76.75	-0.2268	0.0218	0.2486	1086.65	0.158739	-419.220754	-419.211811	-419.210867	-419.253593	34.544	
C	-0.1214496367	 1.5064737199	-0.0072895121	-0.490415
C	 0.1544414396	 0.0298774561	-0.0003396132	 0.33904
C	 0.4687843869	-0.7281676329	-1.2899070977	-0.221252
N	 1.2161133173	-1.9347212532	-0.9164159588	-0.309704
C	 1.4253288566	-1.9060845941	 0.346538634	 0.342482
N	 2.2110561525	-2.8181972711	 1.0126964543	-0.575943
C	 0.8048588118	-0.7393400372	 1.0813873528	 0.239982
C	 1.3278582178	-0.2385990845	 2.396257192	-0.503231
O	-0.6304763173	-0.7719581264	 0.9032533561	-0.330716
H	 0.7068442451	 2.0541596976	-0.4683256636	 0.125761
H	-1.0277641618	 1.7214355419	-0.584133574	 0.133163
H	-0.2742857638	 1.8856242507	 1.0060096272	 0.128314
H	-0.4487759269	-1.0024451724	-1.8244754656	 0.114642
H	 1.0680375269	-0.1102139291	-1.9721792893	 0.102554
H	 2.4420350503	-3.6342293125	 0.462340731	 0.257196
H	 1.9413032155	-3.0341546894	 1.9607676735	 0.253012
H	 2.4053684946	-0.0560859421	 2.3412436513	 0.13671
H	 0.826156416	 0.687136632	 2.6868266909	 0.134616
H	 1.1505581657	-0.9705222131	 3.1931701013	 0.12379
