18
gdb 17496	2.9901	2.40301	1.64072	1.9621	71.02	-0.2209	0.0718	0.2927	847.4199	0.152115	-347.738775	-347.731115	-347.730171	-347.770039	30.118	
C	-0.0069510717	 1.5639731461	 0.1477586519	-0.496555
C	 0.0317267329	 0.066887619	 0.0425515813	 0.281347
C	-0.89232088	-0.8672438913	 0.7783392516	-0.333675
C	 0.5948619747	-0.9616675036	 1.0177709246	-0.144429
C	 1.3113881144	-1.664460323	-0.1732157366	-0.056144
O	 0.3336987505	-2.0633680294	-1.1503052691	-0.284949
C	 0.7781748255	-0.6947962985	-1.1255696262	 0.36696
C	 1.2973740231	-0.0922909702	-2.3891192263	-0.508327
H	 0.9799464596	 2.0105859129	-0.0220799108	 0.115682
H	-0.698684624	 2.0028187787	-0.5818414393	 0.120942
H	-0.3401762244	 1.8734182729	 1.1436448205	 0.120726
H	-1.449858797	-0.4025147887	 1.5863444678	 0.105216
H	-1.4093722206	-1.6639020624	 0.2588499643	 0.132508
H	 1.0565696691	-0.7900504294	 1.9815540355	 0.088198
H	 2.2437104922	-2.217021886	-0.1474196393	 0.101153
H	 0.4747455626	 0.167913766	-3.065312506	 0.130714
H	 1.8642426601	 0.8213616741	-2.1843580306	 0.126106
H	 1.9507166631	-0.8015461671	-2.9041042035	 0.134527
