20
gdb 14166	3.19232	2.1972	1.83673	1.3697	73.92	-0.2523	0.0731	0.3254	836.3958	0.17853	-349.000665	-348.993286	-348.992342	-349.031457	30.4	
C	-0.1459433452	 1.5233312925	-0.0296462996	-0.482479
C	-0.0081025244	 0.0040455328	-0.0112210909	 0.470555
O	-1.296013648	-0.5798895534	-0.1121756486	-0.486559
C	 1.1341108472	-0.6062631923	-0.9028283908	-0.085033
C	 2.0949109816	-0.2665765278	 0.27387956	-0.241356
C	 0.8451855244	-0.6122061375	 1.1367020347	-0.057708
C	 0.7037216548	-2.1239870055	 0.8620192932	-0.210356
C	 0.9163758062	-2.1171088054	-0.6915982404	-0.204201
H	 0.8022562894	 2.0509618516	 0.083995023	 0.123683
H	-0.5848401372	 1.8503418938	-0.9817502617	 0.104455
H	-0.8162025579	 1.8435233641	 0.7743960213	 0.124722
H	-1.7781416156	-0.1261242699	-0.8108794886	 0.273928
H	 1.3172030297	-0.2550658794	-1.9203715092	 0.047509
H	 2.9677834751	-0.9130904917	 0.3973177704	 0.090808
H	 2.4039701081	 0.7767082244	 0.3206791809	 0.095127
H	 0.7360324352	-0.2720171726	 2.1677181067	 0.053898
H	 1.4677419455	-2.7005596125	 1.3911481844	 0.086576
H	-0.2780176555	-2.5070071916	 1.1431962859	 0.111257
H	 0.0390071573	-2.4867333039	-1.225122988	 0.098542
H	 1.7864372592	-2.7009573856	-1.0049192328	 0.08663
