16
gdb 19378	4.15593	1.72357	1.50061	1.606	63.87	-0.2268	0.0539	0.2807	871.4949	0.129477	-383.650441	-383.643227	-383.642283	-383.681912	27.685	
O	 0.0784449549	 1.4053919162	 0.2287181164	-0.418665
C	-0.0166783156	 0.0155865692	-0.0502558877	-0.20797
C	-1.4591859996	-0.3631103444	 0.0111764489	 0.433092
O	-1.8619136441	-1.5875894379	-0.619509441	-0.293393
C	-2.5398388947	-0.3664850182	-0.9694295076	-0.054069
C	-3.587782023	-0.0219682588	 0.1345708925	-0.083284
C	-3.5723222099	-1.0338470875	 1.2500893299	-0.291383
C	-2.463487827	-0.0200611249	 1.1620172759	-0.124877
H	 1.0065930721	 1.6199384475	 0.3584127797	 0.292887
H	 0.3711768697	-0.2387868575	-1.0479846639	 0.103035
H	 0.5455635004	-0.5790958329	 0.6881711735	 0.097473
H	-2.5693566332	-0.0955968215	-2.0180791435	 0.10608
H	-4.3714857631	 0.7111393238	 0.0011249266	 0.094155
H	-4.2946446041	-0.8476596227	 2.0386488389	 0.110426
H	-3.3788583826	-2.0773606803	 1.036030356	 0.133973
H	-2.25552383	 0.7223279197	 1.9194649153	 0.102519
