18
gdb 35283	2.89908	1.08904	0.88936	4.2803	77.67	-0.2592	0.0295	0.2887	1332.3918	0.146775	-401.920847	-401.912151	-401.911207	-401.955148	32.057	
N	-0.0279039773	-0.6549486216	-1.0016892056	-0.344345
C	 0.0934474757	 0.3987108375	-0.5384936334	 0.300158
C	 0.2424906813	 1.7143466521	 0.0092692841	-0.218151
C	 0.5093045465	 1.8815811948	 1.5062407176	-0.319804
C	 1.6084031567	 2.1610541413	 0.5490181107	 0.134327
O	 2.6631071881	 1.2675481752	 0.5493904011	-0.244162
C	 3.3844333049	 1.2475024598	-0.6578035509	 0.131339
C	 4.4409449985	 2.2968994162	-0.886718541	-0.29089
C	 4.8213995024	 0.8680369812	-0.5475380664	-0.283035
H	-0.3655762093	 2.4717438295	-0.4739139068	 0.134906
H	 0.0181705655	 2.7064088484	 2.0082128713	 0.133199
H	 0.5971639829	 0.9679377991	 2.0816560334	 0.155696
H	 1.8764370385	 3.1951590797	 0.3356980595	 0.105749
H	 2.8069851409	 0.8897257589	-1.5069175675	 0.11248
H	 4.6018578919	 2.6600048427	-1.8956487566	 0.11909
H	 4.5805243931	 3.0375975463	-0.1070546326	 0.120604
H	 5.1956597405	 0.6830792893	 0.4526492368	 0.130141
H	 5.2472530492	 0.2376174797	-1.3192428438	 0.1227
