22
gdb 79403	2.41225	1.52031	1.43245	1.8254	86.84	-0.2213	0.0892	0.3105	1107.7637	0.192776	-367.136173	-367.12708	-367.126136	-367.169112	35.547	
C	-0.1153318298	 1.5858217581	-0.001067042	-0.430881
C	-0.0482601292	 0.0658810784	-0.0024791425	-0.053103
C	 1.1760545265	-0.6282827706	-0.6116099988	-0.052514
N	 2.0667482462	-0.261000379	 0.60221884	-0.194025
C	 2.5019085304	-1.7167458075	 0.6961879332	-0.240421
C	 1.0443720019	-1.90340221	 0.2810795658	 0.277661
C	 0.2560534949	-3.1640474795	 0.0317687493	-0.527141
C	 0.6608240537	-0.6558513648	 1.1623231781	 0.326592
C	 0.3567816489	-0.6001698371	 2.6307977685	-0.525708
H	 0.8479095483	 2.0152323372	 0.2860574213	 0.139959
H	-0.378522001	 1.9666590875	-0.9940454204	 0.111701
H	-0.8766258959	 1.9463766768	 0.6996980483	 0.110529
H	-1.0065065916	-0.3847889695	-0.286979259	 0.062354
H	 1.5858405097	-0.5680016039	-1.6230486603	 0.070259
H	 3.279931711	-1.9829007843	-0.0286471421	 0.092614
H	 2.8062139297	-2.0254818531	 1.7026725008	 0.092514
H	 0.2151635161	-3.786223558	 0.9330222468	 0.12029
H	-0.7739721984	-2.9412243097	-0.2675497717	 0.120441
H	 0.7131018099	-3.7621428347	-0.7645160089	 0.121539
H	 1.0885622874	-1.169091275	 3.2138502057	 0.123785
H	 0.3713407223	 0.4343280352	 2.9891589106	 0.132476
H	-0.635687541	-1.0170487065	 2.8352254573	 0.12108
