19
gdb 81242	2.97782	1.51858	1.39876	1.3874	75.27	-0.2444	0.0659	0.3103	1018.0252	0.159664	-422.925322	-422.917728	-422.916783	-422.957229	30.189	
C	-0.0209576427	 1.5907995217	 0.0875291137	-0.439837
C	 0.0018956029	 0.0803960371	-0.0497929449	-0.004091
C	 1.2476523436	-0.6113847511	-0.633632674	-0.01813
O	 2.0152273039	-0.2334000706	 0.6090550982	-0.369768
C	 0.7094395554	-0.7773653381	 1.0491322978	 0.385123
C	 0.1060451726	-1.3626364254	 2.2946419012	-0.18997
O	-0.7376795141	-2.3916108803	 1.7341099543	-0.29068
C	-0.4191691372	-2.6971242563	 0.3381435362	-0.118837
C	 0.8787379803	-1.9497951446	 0.0859545804	-0.0432
H	 0.941833415	 1.9609916458	 0.4441113802	 0.140272
H	-0.242179585	 2.0628381843	-0.8758718468	 0.116299
H	-0.8005027856	 1.9043003681	 0.7902149434	 0.117804
H	-0.9547764387	-0.3130887603	-0.4016828086	 0.080455
H	 1.7740891625	-0.4513847667	-1.575609022	 0.094861
H	 0.8708721635	-1.791477899	 2.9563689913	 0.112224
H	-0.530880467	-0.6828957069	 2.8687495439	 0.113194
H	-0.3055972999	-3.781803521	 0.2550410212	 0.108956
H	-1.2633407286	-2.3904983374	-0.288262056	 0.109705
H	 1.7683945391	-2.5409721194	 0.3091249704	 0.095619
