22
gdb 109818	2.05558	1.25619	0.89623	1.448	88.81	-0.2168	0.0526	0.2694	1394.0365	0.191376	-367.150114	-367.139543	-367.138599	-367.185881	38.796	
C	 1.350223827	 2.1610088029	-0.5176483128	-0.379673
C	 1.8739160818	 0.8220528838	-0.0003560518	-0.121034
N	 1.6724982237	-0.2192180937	-1.0024944657	-0.094229
C	 1.8412770789	-1.635465132	-0.6732289081	-0.018665
C	 2.2258902645	-2.1344767369	 0.7054076468	-0.414043
C	 0.4906700433	-1.0814623617	-1.0050615284	-0.009182
C	-0.6319935619	-1.0103965386	 0.0285029617	-0.388145
C	-1.6772497902	-0.0571772405	-0.3344163568	 0.310335
C	-2.54027545	 0.7172215769	-0.6516178342	-0.441687
H	 1.8301916925	 2.4161282861	-1.4665471456	 0.12264
H	 0.269878761	 2.1163223531	-0.682597249	 0.135935
H	 1.5538795303	 2.9580314815	 0.2047382309	 0.104739
H	 2.954383977	 0.8888934714	 0.175924504	 0.101629
H	 1.4152400157	 0.6046468507	 0.9770528035	 0.079356
H	 2.3461418914	-2.1883284882	-1.4668031846	 0.086021
H	 1.7018540378	-1.6273509706	 1.5174155289	 0.118343
H	 2.0127304514	-3.2057268764	 0.788543661	 0.122447
H	 3.3003691094	-2.0018459512	 0.8729660897	 0.124587
H	 0.1009651099	-1.2630642075	-2.0062510897	 0.095942
H	-1.0772160408	-2.0109494237	 0.1147295729	 0.135962
H	-0.2498487664	-0.7680620375	 1.0241396017	 0.13184
H	-3.3028525264	 1.4040078821	-0.924333094	 0.196882
