22
gdb 12779	3.3539	1.4745	1.25549	0.3045	82.07	-0.2405	0.0871	0.3276	1104.107	0.200121	-313.053908	-313.04521	-313.044265	-313.086729	33.402	
C	 0.0351617806	 1.5630008558	 0.0819001581	-0.377942
C	-0.135744705	 0.047956938	-0.0727813643	-0.196088
C	 0.7044257562	-0.5333323356	-1.2073727856	-0.012474
C	 2.2673865874	-0.5875368193	-1.0711010639	-0.248899
C	 2.2208593634	-2.0901401473	-1.3676473172	-0.092084
C	 1.3768448297	-2.7819635486	-0.332415522	-0.327326
C	 0.6904575932	-2.0553334243	-1.4597041359	 0.352785
C	-0.2428004459	-2.7397937213	-2.4179776396	-0.498464
H	 1.0781376004	 1.8252354853	 0.2906734855	 0.117361
H	-0.2596193919	 2.0900312297	-0.8327032258	 0.111354
H	-0.5757846389	 1.9527901542	 0.9021351306	 0.109471
H	 0.1235631131	-0.4462525314	 0.8717732023	 0.09281
H	-1.1934949168	-0.1839794552	-0.2566347966	 0.092092
H	 0.4458405158	-0.0150734731	-2.139208475	 0.062894
H	 2.7804390133	 0.0020986094	-1.8339130595	 0.098098
H	 2.677207484	-0.3160101922	-0.0909267072	 0.089436
H	 2.9264483023	-2.633664343	-1.9856498433	 0.078683
H	 1.343437734	-3.8649877327	-0.4063698873	 0.103997
H	 1.349951677	-2.4128973589	 0.6906018265	 0.100052
H	-1.2680106321	-2.7696065308	-2.0280286988	 0.117211
H	-0.2730461569	-2.2224837454	-3.3844058763	 0.112253
H	 0.0657302771	-3.774289113	-2.6030985446	 0.11478
