19
gdb 77163	3.20146	1.06394	0.86293	4.3517	76.31	-0.2641	0.0151	0.2792	1360.3643	0.158873	-423.048005	-423.039208	-423.038264	-423.08207	32.381	
C	-0.2504585067	 1.3942814214	-0.092346625	-0.41409
C	 0.0700571944	-0.0884235829	 0.048185304	-0.211748
C	 0.8807989939	-0.8024682428	-1.0601479512	 0.125763
O	 1.9407461259	-1.1089516019	-0.0737132659	-0.262713
C	 1.2715846316	-0.4518633541	 0.9247482601	 0.449418
O	 1.6266272705	-0.2757031044	 2.0465810002	-0.328992
C	 0.3192444276	-2.0322400987	-1.6941059573	 0.006997
C	-0.3412960583	-1.928759387	-3.0504551857	-0.273255
C	 0.9848239092	-2.6258450692	-2.9105671411	-0.266423
H	 0.6311124	 1.9636270246	-0.4032978558	 0.1292
H	-1.040824693	 1.5558412306	-0.8315063383	 0.126178
H	-0.5906210967	 1.7997778994	 0.8646639507	 0.143608
H	-0.8195724466	-0.6548607921	 0.3411211804	 0.111369
H	 1.2893811183	-0.1195321673	-1.8128032681	 0.088066
H	-0.1202613195	-2.7333320994	-0.9898223801	 0.093071
H	-1.2281303552	-2.526038166	-3.2276180864	 0.121355
H	-0.3573356237	-0.9587656963	-3.5367843946	 0.116903
H	 1.8664383919	-2.126127542	-3.2976326082	 0.12251
H	 1.0137998563	-3.705970762	-2.9937532376	 0.122782
