21
gdb 120984	3.88892	0.94123	0.86742	2.5115	79.56	-0.2396	0.067	0.3066	1437.1729	0.181973	-424.179446	-424.170483	-424.169539	-424.214121	32.916	
C	 0.0685055462	 1.5107765101	-0.2008065075	-0.384182
C	-0.1013856976	 0.003204009	-0.2750527194	-0.036872
O	 0.9367335513	-0.5263587176	-1.0800309685	-0.247006
C	 0.8999900985	-1.9127313687	-1.2041407527	 0.168972
C	-0.1517151786	-2.5927458735	-2.1454008752	-0.289139
C	 0.9998151011	-3.4031823217	-2.8096139236	-0.08525
C	 1.5787613707	-2.7148995837	-4.0514254968	-0.07014
O	 2.3588448271	-1.8091769797	-3.236428385	-0.283653
C	 2.0386427557	-2.5335066651	-2.0337375728	 0.06757
H	 1.0389931198	 1.7658176818	 0.2340499774	 0.128024
H	 0.0160830467	 1.9514184002	-1.2002721944	 0.129601
H	-0.7183197294	 1.9534643923	 0.4174183403	 0.112332
H	-0.0608345616	-0.4432158144	 0.7333893096	 0.084224
H	-1.0851040629	-0.2529868712	-0.7009221289	 0.089264
H	 0.8751457684	-2.3975024952	-0.2122277525	 0.059913
H	-0.9168182676	-3.1835385644	-1.6380090297	 0.100434
H	-0.638187699	-1.8946390572	-2.8322565034	 0.108333
H	 0.9506311113	-4.4897540313	-2.7771092761	 0.077058
H	 2.2278146997	-3.3524305197	-4.6673073058	 0.096679
H	 0.8699751389	-2.1877109204	-4.7023308417	 0.101695
H	 2.9337908311	-2.8873854495	-1.5141547534	 0.072143
