17
gdb 37210	3.26617	2.0214	1.69394	2.0018	76.27	-0.2168	-0.0215	0.1953	839.5117	0.139084	-380.750766	-380.744738	-380.743794	-380.780761	25.943	
C	 0.0860689277	 1.4834791767	 0.2076790929	-0.185475
C	 1.5498113689	 1.7919393424	 0.0003907841	-0.061513
C	 2.1682159413	 0.7350229586	-0.5481921669	 0.040496
C	 3.2351181801	 0.0422997838	 0.2729283036	-0.116536
N	 2.9325781378	 0.2563926752	 1.7236133371	-0.33707
C	 2.3706589353	-0.9177395803	 1.0205088709	-0.016982
C	 0.9700726211	-0.9887783421	 0.35803839	-0.042665
C	 1.0965670595	-0.2889687283	-0.941605171	-0.102914
N	-0.0515143171	 0.0456100403	-0.1083354617	-0.130821
H	-0.1844125808	 1.6988417392	 1.2480731991	 0.128148
H	-0.6227592574	 2.0232177081	-0.4348544938	 0.116528
H	 2.0554965885	 2.5543413694	 0.5805175397	 0.114334
H	 4.2452066273	-0.1972934069	-0.039869056	 0.094795
H	 3.7242885199	-0.07063173	 2.2793432672	 0.224829
H	 2.742954021	-1.8961163555	 1.312783511	 0.092413
H	 0.4766013813	-1.9500062191	 0.4601199031	 0.096697
H	 0.9670409658	-0.6990881518	-1.9393273795	 0.085735
