18
gdb 8370	4.69873	1.28928	1.17647	2.8807	72.94	-0.2406	-0.0196	0.221	1064.1286	0.152094	-347.802882	-347.794874	-347.793929	-347.8356	30.308	
C	 0.0585250475	 1.53170738	-0.2212871047	-0.406213
C	 0.0794376734	 0.0270032467	-0.0742713538	-0.049379
C	 1.3905160899	-0.7297764424	-0.073213075	-0.350879
C	 0.5766211491	-0.6261847215	 1.1848367791	 0.350626
C	 0.9868463755	 0.0750939392	 2.4955005222	-0.424244
C	 0.3176847055	-1.0913921423	 3.2494427387	 0.409636
O	 0.1759450493	-1.3532379064	 4.4073790019	-0.287366
C	-0.0932938063	-1.7913788118	 1.9391194398	-0.425201
H	 0.9175170019	 1.9911593088	 0.278906748	 0.117466
H	 0.0953211565	 1.825064721	-1.2760424494	 0.121333
H	-0.8494092155	 1.9656995602	 0.2128727978	 0.118211
H	-0.7511646016	-0.4831650325	-0.558127971	 0.085041
H	 1.4380972886	-1.689984396	-0.5774603678	 0.112122
H	 2.306826738	-0.1491041477	-0.1330781262	 0.111087
H	 2.0616126178	 0.1631756746	 2.686484614	 0.129341
H	 0.521527508	 1.0472941	 2.6917410827	 0.130103
H	-1.1768902454	-1.8919474244	 1.8127385514	 0.128573
H	 0.3631037278	-2.7786875357	 1.8089504125	 0.129745
