19
gdb 67266	2.66814	2.14211	1.71435	1.2467	77.54	-0.2411	0.0772	0.3184	877.4815	0.161905	-385.842388	-385.835909	-385.834965	-385.872672	28.217	
O	-0.0428593822	 1.3752299129	-0.0581300751	-0.496716
C	 0.009784991	-0.0091030315	-0.088479519	 0.440932
C	 0.4489624387	-0.8438112873	 1.1962980123	-0.111805
C	-1.0491501104	-0.9885890725	 1.570109351	-0.254611
C	-1.2806183536	-0.8699446697	 0.0532920978	-0.092801
C	-0.3796864725	-1.9409540877	-0.636610605	-0.038212
C	 0.8153360123	-2.1025079701	 0.3935368407	-0.029356
C	 1.8033128709	-1.6325135597	-0.7070620967	-0.254016
C	 0.5849294954	-0.8720793566	-1.2582248755	-0.123812
H	 0.8445910182	 1.7124942655	 0.1085591754	 0.278445
H	 1.186039294	-0.4612882487	 1.9051861807	 0.054864
H	-1.3629275396	-1.9019385523	 2.0860189293	 0.086071
H	-1.424712531	-0.1115471965	 2.1034954806	 0.105885
H	-2.2350590138	-0.6124629591	-0.4040310495	 0.066916
H	-0.759681459	-2.8066353392	-1.1737419606	 0.066009
H	 0.9818253543	-3.0241581571	 0.9528345616	 0.060864
H	 2.6901496528	-1.0667421674	-0.3966597925	 0.079638
H	 2.1087751091	-2.4518161683	-1.3646810133	 0.097151
H	 0.5032956853	-0.4856303646	-2.2737450325	 0.064553
