22
gdb 100275	1.88369	1.35383	1.12962	2.6352	78.09	-0.2324	0.0333	0.2657	1271.4228	0.191852	-441.532542	-441.521509	-441.520565	-441.568266	40.732	
C	-0.1124126842	 1.5888211051	-0.1227944296	-0.401968
C	 0.0423957796	 0.0653551614	-0.0705941136	-0.178922
C	 0.7322977775	-0.4590986533	 1.2022596546	 0.255516
O	-0.034084803	 0.0226576376	 2.3174976509	-0.475976
C	 0.8309430951	-1.9985360251	 1.2316219458	-0.21814
C	-0.506875726	-2.7396103198	 1.1517144301	-0.400922
C	 2.1765640514	 0.1016808904	 1.234764417	 0.362198
N	 2.4187689331	 0.9906467112	 2.2355366282	-0.526622
O	 3.0137251899	-0.252304178	 0.4246017569	-0.386249
H	 0.8583170266	 2.0946116069	-0.1242652282	 0.122188
H	-0.6393774932	 1.8857506773	-1.0344010992	 0.112295
H	-0.686545727	 1.9531655006	 0.7332633447	 0.128003
H	-0.946191047	-0.39850691	-0.13641008	 0.100985
H	 0.6306165077	-0.282264626	-0.9254263912	 0.121137
H	 0.1698537213	-0.5339434307	 3.0769391996	 0.282541
H	 1.5007443458	-2.3036609968	 0.4235840526	 0.133896
H	 1.3459356918	-2.2777297125	 2.1632873298	 0.089047
H	-1.2177938984	-2.3586105004	 1.891654661	 0.116912
H	-0.9694950213	-2.6439277395	 0.165718434	 0.125966
H	-0.3603639203	-3.8069393972	 1.342063395	 0.114884
H	 1.6373458725	 1.3607076141	 2.7504839408	 0.264687
H	 3.299667558	 1.4786116945	 2.2330335306	 0.258545
