25
gdb 122167	3.02394	0.79118	0.71408	0.9143	91.24	-0.2478	0.0851	0.3329	1762.6765	0.226313	-389.481994	-389.47073	-389.469786	-389.518801	40.806	
C	-0.0717172039	 1.4759062569	-0.3770520478	-0.384557
C	-0.0454525813	 0.0231544213	 0.0679858088	-0.021041
O	-1.3377301473	-0.5207590339	-0.0911311117	-0.247128
C	-1.4269786814	-1.8778611338	 0.3020999697	-0.129007
C	-2.8622568935	-2.329721318	 0.1619996778	 0.34344
C	-3.8283515045	-1.5679350582	 1.0515242083	-0.458051
C	-3.3419615514	-2.7528836865	-1.209173505	-0.319485
C	-3.1707705074	-3.787850216	-0.1221632328	-0.037772
C	-2.1329373078	-4.8864298922	-0.2262556271	-0.414847
H	 0.9187287487	 1.9277943623	-0.2671980331	 0.112392
H	-0.3736212206	 1.5499722528	-1.4256682641	 0.125986
H	-0.7836728498	 2.0481774051	 0.2245805583	 0.12522
H	 0.6862689936	-0.549821975	-0.528061035	 0.081192
H	 0.2744392194	-0.0528282038	 1.1218214117	 0.0823
H	-0.7509617773	-2.4902486094	-0.3138973012	 0.078489
H	-1.0950555879	-1.9855131434	 1.350673919	 0.07903
H	-3.7760281824	-0.4950240918	 0.8457842173	 0.131583
H	-4.8588737454	-1.8989889195	 0.8901786191	 0.106472
H	-3.591429601	-1.7187611644	 2.1121079916	 0.106739
H	-4.3432087502	-2.4690989938	-1.5161006959	 0.105136
H	-2.6156237876	-2.7498030461	-2.0163297024	 0.106227
H	-4.0977467978	-4.124793131	 0.3374140184	 0.078876
H	-1.2414199692	-4.5660102548	-0.7720653619	 0.116928
H	-1.8123829965	-5.2359021245	 0.7619715733	 0.11494
H	-2.5455139073	-5.7484030922	-0.7625433554	 0.116938
