18
gdb 61904	3.58317	0.88888	0.75266	3.3441	73.14	-0.2549	-0.0262	0.2287	1469.8004	0.143716	-439.104901	-439.094526	-439.093582	-439.142647	35.505	
C	-1.4179010857	 1.0324060646	-0.8356795171	-0.40202
C	-0.2991604706	 0.1952066083	-0.2155330572	 0.014565
O	-0.7357371034	-1.0827994543	 0.2514528154	-0.238324
C	-1.3103240145	-1.1182766198	 1.5304730277	-0.202383
C	-2.7412017564	-0.7510704688	 1.5625634881	 0.265148
N	-3.8624711322	-0.4754974896	 1.6005028985	-0.303131
C	 0.8501801039	-0.0245879309	-1.2207396268	 0.367193
C	 1.4397749945	-1.4114975172	-1.3362724177	-0.470805
O	 1.2544977407	 0.9159705441	-1.8622912049	-0.298141
H	-0.9783504086	 1.9245986091	-1.2856830331	 0.149851
H	-1.9277204735	 0.4592556275	-1.6153862783	 0.13357
H	-2.1561550724	 1.3328550719	-0.0898461169	 0.138822
H	 0.1501327052	 0.7472514103	 0.627767176	 0.10338
H	-1.2213933188	-2.1478977253	 1.8927489786	 0.163205
H	-0.7720648244	-0.4684846481	 2.2370118837	 0.143756
H	 1.7964519619	-1.7589087798	-0.3612579915	 0.140438
H	 0.6702170475	-2.1234394008	-1.6504663575	 0.154667
H	 2.258976187	-1.3939527113	-2.0554447571	 0.14021
