19
gdb 83347	2.21289	1.97635	1.58831	1.8069	74.52	-0.2344	-0.0044	0.2299	952.6489	0.160359	-423.022562	-423.014897	-423.013953	-423.053983	31.463	
C	-0.0416510009	 1.4930518988	 0.0459211805	-0.497975
C	-0.0117805814	-0.0214990058	 0.0294693366	 0.209487
C	 0.6254011566	-0.6969654087	-1.2198930686	-0.096195
O	 0.1462900645	-2.0497091561	-1.1865691899	-0.276155
C	-0.6914750209	-2.1511746893	-0.0056297071	 0.021922
C	 0.2133099326	-2.0124024047	 1.208760651	-0.116641
C	 0.6232729754	-0.7361912486	 1.2178929908	-0.135165
C	-1.3869424875	-0.7725512429	-0.0133913731	 0.125127
O	-2.2756776622	-0.481802394	 1.0299761762	-0.44902
H	 0.9616015569	 1.9173430102	 0.1615816964	 0.115834
H	-0.4669913576	 1.8886124881	-0.8825802635	 0.118612
H	-0.6607292069	 1.85079604	 0.8744676368	 0.129225
H	 0.2856354346	-0.212940337	-2.1452152231	 0.099718
H	 1.721915059	-0.68407593	-1.1979617859	 0.097619
H	-1.3034945347	-3.0464899098	-0.0959717932	 0.078568
H	 0.5478965741	-2.8216537172	 1.8449771252	 0.107161
H	 1.3595967328	-0.2846648013	 1.8730529297	 0.101617
H	-1.9331903608	-0.5992238835	-0.944518187	 0.091495
H	-1.8068134437	-0.6617344483	 1.8553430483	 0.274766
