19
gdb 95969	2.57157	1.56287	1.17458	1.8173	70.5	-0.2327	0.0557	0.2884	1087.9505	0.159555	-460.137635	-460.129163	-460.128219	-460.171583	31.513	
O	 0.2045191918	 1.3915967061	-0.1305403337	-0.429938
C	 0.1096071631	-0.0068072255	 0.0618825419	 0.037594
C	 0.5447823066	-0.500024909	 1.4505463352	-0.125427
O	-0.1377061557	-1.730446623	 1.6118878084	-0.243838
C	-1.45557412	-1.5102143242	 1.1205455419	-0.144005
C	-1.3554428552	-0.4986305864	-0.0367431537	 0.398151
C	-2.4753561008	 0.553693547	-0.2011428961	-0.342494
C	-2.6569368571	-0.0542718774	-1.6022517021	-0.072693
O	-1.6539881293	-1.05976893	-1.3407071163	-0.319845
H	 1.1260069657	 1.6129078557	-0.2927365342	 0.291342
H	 0.6615812367	-0.5537885095	-0.7144048608	 0.093646
H	 1.6173519032	-0.6906150015	 1.5444895265	 0.104703
H	 0.2462212927	 0.2428340628	 2.2102981709	 0.091443
H	-1.8688180163	-2.4635623537	 0.7835871596	 0.123581
H	-2.0959845713	-1.1027542648	 1.919949564	 0.089083
H	-3.3210593653	 0.4098043248	 0.474430562	 0.105233
H	-2.1415228315	 1.5891665996	-0.1638519026	 0.136594
H	-3.635239744	-0.4994313164	-1.8176577798	 0.101297
H	-2.3688094334	 0.5969950755	-2.4358802211	 0.105574
