15
gdb 47129	3.15529	1.27079	0.9313	1.4394	76.96	-0.2561	-0.0489	0.2072	1189.1625	0.113298	-416.826223	-416.81831	-416.817366	-416.858847	29.736	
O	 0.0765418357	-0.0545496922	 0.0293331974	-0.346714
C	-0.0257976803	 1.149699691	 0.0496295119	 0.409745
C	-1.3266353655	 1.92822101	 0.0806252055	-0.335028
C	-1.1581435466	 3.2765152221	 0.7944392094	-0.180893
N	-0.0130997408	 4.0524678655	 0.3286896054	-0.283582
C	 1.0157112638	 3.3793385584	-0.010677463	 0.214249
N	 1.0886569235	 1.9769771037	-0.0054009426	-0.384212
C	 2.226306146	 4.030454828	-0.4198758962	 0.261026
C	 3.2651457072	 4.5300715566	-0.7607613978	-0.356895
H	-1.624389487	 2.0941305903	-0.9633488778	 0.1412
H	-2.0950590364	 1.3062430435	 0.5437115297	 0.13729
H	-2.0592364284	 3.8838781293	 0.6743801075	 0.122163
H	-1.0353377876	 3.1136991109	 1.8763145034	 0.125028
H	 1.9789877505	 1.5265644936	-0.1639210566	 0.265177
H	 4.1725002858	 4.9949324195	-1.0605939561	 0.211445
