13
gdb 1228	7.3709	1.50977	1.30333	5.4071	53.37	-0.2487	0.0065	0.2552	870.8659	0.100973	-377.794221	-377.786515	-377.785571	-377.826926	26.112	
N	 0.0382709469	 1.0571580773	 0.0780858681	-0.516548
C	-0.3098095661	-0.2574137759	 0.161310108	 0.399918
O	 0.4049732293	-1.1128632402	 0.6387382681	-0.339659
C	-1.7344302009	-0.5713545349	-0.3247410436	-0.198104
O	-1.8372046259	-1.8710807323	-0.8548283974	-0.167805
C	-1.8191211354	-2.8987172229	 0.0305978309	 0.150714
N	-1.854583417	-4.0812592512	-0.4023398382	-0.446817
H	 0.9667034544	 1.3179371623	 0.3704672068	 0.26924
H	-0.4895436475	 1.7167346575	-0.4668274795	 0.264264
H	-2.4182186883	-0.4248740793	 0.5249147512	 0.13285
H	-2.0469839633	 0.108125182	-1.1223526584	 0.125938
H	-1.7906311724	-2.5764171599	 1.0766821292	 0.096676
H	-1.8573564537	-4.7342077923	 0.3783402448	 0.229334
