21
gdb 114181	3.37009	1.07851	0.91953	2.6921	85.11	-0.2313	-0.0171	0.2142	1360.8419	0.181574	-387.097005	-387.087654	-387.08671	-387.131585	34.782	
C	-0.4177188117	 1.7882380271	-0.2186085075	-0.383965
C	-0.0940997577	 0.2988712193	-0.3758255217	-0.192335
C	-1.2505456457	-0.6047993391	 0.0575655818	-0.088348
C	-1.0172842719	-2.1565460809	 0.0808142148	-0.374244
C	-1.3798680985	-2.175017754	 1.57536256	 0.252303
C	-2.2670440199	-3.1285072351	 2.3487590119	-0.308036
C	-0.8233028222	-3.0001429101	 2.7139613233	-0.308959
C	-1.5294533037	-0.6827192119	 1.5762268848	 0.341031
O	-1.7413295185	 0.1326115624	 2.4338969836	-0.327432
H	 0.4389702818	 2.4084133518	-0.4996403685	 0.109367
H	-1.2617997593	 2.0761238063	-0.8552718894	 0.111823
H	-0.6875266776	 2.0184636266	 0.8155071608	 0.14788
H	 0.1582912985	 0.0737270728	-1.4198921042	 0.098817
H	 0.7965539037	 0.0481784506	 0.2152702676	 0.098396
H	-2.1627317837	-0.3305794164	-0.486709829	 0.096946
H	-1.678966907	-2.7312281489	-0.5711865821	 0.105966
H	 0.0184543111	-2.4382833823	-0.1291891217	 0.106853
H	-3.0072713457	-2.6814034597	 3.0039696175	 0.134363
H	-2.5917266356	-4.0242717969	 1.8296821238	 0.122307
H	-0.149417822	-3.8086417865	 2.4507275253	 0.12205
H	-0.5666567844	-2.461435625	 3.620161689	 0.135219
