16
gdb 52211	3.6204	0.79311	0.73816	3.2978	71.21	-0.2874	-0.0036	0.2838	1499.2674	0.123358	-437.904533	-437.895618	-437.894674	-437.939865	30.806	
O	 0.1893300765	 0.3048624925	-0.8537261176	-0.266578
C	 0.2226642539	 1.4602843622	-0.5611892644	 0.174327
O	 0.981559079	 1.9345926704	 0.4484051147	-0.176354
C	 1.0015302419	 3.3490984826	 0.6714473425	-0.123208
C	 2.3340579957	 3.9144752556	 0.2466972387	-0.010057
C	 2.5723074303	 4.3347489563	-1.1714168713	-0.282743
C	 2.4666780781	 5.3959287966	-0.085592695	-0.177255
C	 1.3124051474	 6.2509076	-0.0447101592	 0.28519
N	 0.3773922993	 6.9316754009	-0.0092170676	-0.334158
H	-0.3614206443	 2.2544391047	-1.0671364951	 0.081592
H	 0.1790900483	 3.835530545	 0.1329568065	 0.132111
H	 0.8367892119	 3.4977034098	 1.7421979046	 0.140518
H	 3.1815667896	 3.495265451	 0.7795061592	 0.124183
H	 3.5500739735	 4.1740056855	-1.6090931896	 0.143372
H	 1.745224035	 4.2692291636	-1.8696189582	 0.144156
H	 3.3848677437	 5.8821416132	 0.2249756419	 0.144904
