20
gdb 61242	3.47186	0.84024	0.76419	5.3151	80.14	-0.2776	0.0326	0.3102	1532.4121	0.16929	-403.151138	-403.141039	-403.140095	-403.186774	36.356	
C	 0.0365625876	 1.5599277766	-0.2241395556	-0.402446
C	 0.0440013068	 0.0599755475	-0.020851495	-0.009298
C	 1.3193878953	-0.7414869481	-0.0973866858	-0.3044
C	 0.5989293975	-0.5911235793	 1.225467305	-0.028007
C	 1.1959718517	 0.2196054356	 2.3541881304	 0.117875
O	 0.2136665112	 0.8988280969	 3.119121497	-0.423284
C	 2.0763939764	-0.6852415156	 3.2529340872	-0.36292
C	 2.7249960562	 0.047714147	 4.3364481333	 0.268475
N	 3.2515018058	 0.6267455132	 5.1862551396	-0.305182
H	 0.9717423557	 2.0244699073	 0.1007900039	 0.119972
H	-0.0947754736	 1.801036515	-1.2842001032	 0.117654
H	-0.7762294812	 2.0316144615	 0.336611089	 0.130955
H	-0.8354472573	-0.4370111261	-0.4227992378	 0.088807
H	 1.3135487527	-1.7093856488	-0.5860580998	 0.115587
H	 2.24559273	-0.1879575598	-0.2238424432	 0.115474
H	 0.0616049951	-1.4734547821	 1.5734740772	 0.077072
H	 1.8327513107	 1.0127831248	 1.9513252878	 0.107388
H	-0.4723230324	 0.266678143	 3.3611849412	 0.281457
H	 1.4586375123	-1.4824126635	 3.6854016316	 0.139348
H	 2.8441120896	-1.1742914849	 2.6431992671	 0.155475
