22
gdb 113956	4.11353	0.71075	0.68313	1.605	83.37	-0.2341	0.079	0.3131	1719.5313	0.193788	-404.290513	-404.280808	-404.279864	-404.326004	35.763	
O	-0.0320990509	 1.3942587551	-0.5869252791	-0.420195
C	 0.001854169	 0.1725125186	 0.1380776216	-0.075359
C	-1.326509213	-0.5469765931	 0.0923654751	-0.043723
C	-1.6585897705	-1.4624497157	-1.0682926693	-0.30288
C	-1.4839313391	-2.0326103393	 0.3187159269	 0.00037
C	-0.3293762246	-2.9482776841	 0.666249058	-0.173065
N	-0.7202852439	-4.3453954478	 0.4938275588	-0.059324
C	-0.4659600374	-4.9384292478	-0.8140764461	-0.214153
C	 0.3654693269	-5.3090456383	 0.3647079232	-0.221483
H	-0.356885224	 1.1884610866	-1.4701031586	 0.280004
H	 0.8082204622	-0.4813834673	-0.228560544	 0.081035
H	 0.2554354665	 0.4519580465	 1.1667674464	 0.111137
H	-2.1446277598	 0.0674450163	 0.4596533044	 0.09245
H	-2.6513104981	-1.4283880615	-1.5030827217	 0.114201
H	-0.8661763603	-1.6575531541	-1.78641645	 0.10457
H	-2.4003671403	-2.3236213345	 0.8244420328	 0.097394
H	 0.5636619068	-2.697202785	 0.0666104575	 0.076709
H	-0.0534735621	-2.8164466253	 1.7202746895	 0.106232
H	-1.2310886059	-5.6126851265	-1.1878729115	 0.116267
H	 0.0039370808	-4.317086932	-1.5750134822	 0.106363
H	 1.3879250483	-4.9337856528	 0.3872971472	 0.106942
H	 0.2192420793	-6.2590089381	 0.8709782013	 0.116509
