16
gdb 125320	4.75142	0.86442	0.78173	2.6416	73.11	-0.2552	-0.0493	0.2059	1433.6386	0.123102	-434.076071	-434.067192	-434.066248	-434.111921	30.052	
C	 0.2341044872	 1.4737698724	-0.128803474	-0.482826
C	 0.0425681903	-0.0052648085	-0.0554256007	 0.309075
C	 0.1018007238	-0.9562485041	-1.0478592494	-0.193534
N	-0.1655226144	-2.1296171273	-0.4177758648	 0.069105
C	-0.1766544505	-3.4725526553	-0.948790782	-0.244992
C	 1.2317567935	-4.0167230266	-1.1859462596	 0.147283
O	 1.4846514118	-4.8400045569	-2.0214271683	-0.218459
N	-0.3691241988	-1.9207599466	 0.9003378747	-0.145756
N	-0.2480325168	-0.6446430361	 1.1170663599	-0.243789
H	 1.0255120707	 1.7985670745	 0.5535516265	 0.145767
H	 0.5044943948	 1.7848726834	-1.1408017058	 0.124629
H	-0.6800522966	 2.0028946241	 0.1586270995	 0.145214
H	 0.2933239292	-0.8982817182	-2.106542545	 0.149457
H	-0.6641669942	-4.1028717329	-0.1970972739	 0.175841
H	-0.7517558761	-3.5282989945	-1.8763788057	 0.153846
H	 2.0022716761	-3.5966178173	-0.5029864915	 0.109139
