17
gdb 52950	3.17243	0.97546	0.87383	2.1899	81.55	-0.2139	0.0244	0.2383	1397.4115	0.132979	-421.751419	-421.742	-421.741056	-421.787143	33.571	
C	 0.0537933355	 1.4778532814	-0.0127792272	-0.507652
C	 0.0128397757	 0.0246372009	 0.0060144578	 0.176727
C	-0.0195569061	-1.1805316599	 0.0153772683	-0.074761
C	-0.0571302282	-2.5964142572	 0.017114766	 0.25122
C	-0.4019851008	-3.477145966	 1.2065923005	-0.406287
C	-1.1758888054	-3.6372178337	-0.074667779	 0.250435
O	-2.5359649023	-3.4747848246	-0.1911952968	-0.446218
C	-0.3005001524	-4.3023023124	-1.1283508114	-0.140064
O	 0.7678430294	-3.3457852315	-0.8932913939	-0.320308
H	 0.820321637	 1.8336139791	-0.7101016584	 0.156052
H	-0.9051856004	 1.9006864851	-0.3327335051	 0.151601
H	 0.2887818873	 1.8877387877	 0.9758203349	 0.148948
H	 0.3154087315	-4.2245607049	 1.5369887566	 0.117984
H	-0.9475434914	-2.9610167345	 1.9906694953	 0.127625
H	-2.9684890197	-3.9923298694	 0.496248109	 0.29359
H	 0.019681251	-5.3369755786	-0.9582177634	 0.101962
H	-0.7071140207	-4.1910849417	-2.139732413	 0.119144
