14
gdb 20368	6.27493	1.45031	1.29827	0.9117	62.9	-0.2686	-0.0245	0.244	920.0091	0.108924	-378.711028	-378.70454	-378.703595	-378.742909	23.577	
C	-0.1063489351	 1.4500343137	-0.126069613	-0.257586
C	 1.2817755374	 0.9224692314	 0.0603170604	-0.25757
C	 0.1085699683	-0.0418735755	 0.0592107799	-0.103899
C	-0.3085171333	-0.698591781	 1.3068705324	 0.381567
N	-0.2507462629	-0.1283453955	 2.4858503794	-0.20079
O	-0.7414950374	-1.113612826	 3.3543274584	-0.149839
C	-1.0365501081	-2.1628530659	 2.5902237316	 0.10492
N	-0.8026422554	-1.9925627462	 1.329243793	-0.315582
H	-0.5628800534	 1.9780325144	 0.702876078	 0.140351
H	-0.4088950927	 1.7866762385	-1.1110226264	 0.121354
H	 1.9474135596	 0.8911457583	-0.7946327823	 0.121359
H	 1.7644350186	 1.0934973356	 1.0153783859	 0.140327
H	-0.0166537847	-0.677857799	-0.8080475272	 0.109927
H	-1.434700241	-3.036568603	 3.08532406	 0.16546
