20
gdb 63743	3.35031	1.15295	1.1196	1.3304	81.92	-0.2315	0.0097	0.2412	1201.8775	0.170433	-403.133598	-403.124794	-403.12385	-403.166855	34.58	
C	 0.039817243	 1.5643286942	-0.0354222345	-0.437935
C	 0.0114762994	 0.0352783854	 0.0146061227	 0.345961
O	-1.354004156	-0.4197371892	 0.0230997368	-0.470629
C	 0.6879705147	-0.6424139401	-1.2039418021	-0.341838
C	 1.4688043073	-1.8284777612	-0.6313201597	 0.326476
C	 1.3970763936	-3.2010763183	-1.2063624459	-0.284396
N	 2.634392868	-2.4108522522	-1.3229830034	-0.369579
C	 1.5564504125	-1.5692104521	 0.8297242424	-0.119839
C	 0.7797598399	-0.5492381388	 1.1894732308	-0.136444
H	 1.0664344967	 1.9420013997	-0.072526813	 0.118428
H	-0.5021758551	 1.9253853752	-0.9148186886	 0.123213
H	-0.4401596375	 1.9880075893	 0.854963354	 0.102624
H	-1.7489120598	-0.1465920429	 0.8583319435	 0.271715
H	-0.0637550128	-0.9276779984	-1.9428923774	 0.116791
H	 1.3857059458	 0.0590777029	-1.6747499583	 0.102155
H	 1.4694055784	-4.0714691257	-0.5592889045	 0.115793
H	 0.7751379582	-3.3432302447	-2.0867209692	 0.113221
H	 2.7042508679	-2.0165463803	-2.258786132	 0.228694
H	 2.1750066517	-2.1747308111	 1.4821783376	 0.106208
H	 0.6486550743	-0.1758190216	 2.2004812008	 0.089382
