21
gdb 62641	2.8648	1.59286	1.19473	1.8662	82.27	-0.2238	0.081	0.3048	1108.4197	0.179982	-387.010994	-387.002121	-387.001177	-387.04377	35.015	
C	-0.0763783636	 1.6488939545	 0.0915217785	-0.447503
C	-0.1655398457	 0.1225774212	 0.1448807261	 0.298367
C	-1.5923569788	-0.3325421816	-0.15338588	-0.46057
C	 1.0017592266	-0.6424031967	-0.541734668	-0.181297
C	 1.969353421	-0.3533721811	 0.6465020176	 0.078852
O	 2.3965341302	-1.7298612855	 0.8085337064	-0.366367
C	 0.9668678106	-1.8276597792	 0.4927507254	 0.464254
C	 0.4007736744	-3.2124125945	 0.4327402818	-0.530477
C	 0.5819968807	-0.5522821619	 1.330256263	-0.181313
H	 0.9335046116	 2.014048693	 0.2995697914	 0.113022
H	-0.3680819241	 2.0221634192	-0.8970250179	 0.114075
H	-0.7525211434	 2.1046926833	 0.8241387175	 0.114089
H	-1.9075426818	 0.0084060142	-1.1465623109	 0.114722
H	-1.706629725	-1.4180132455	-0.1254837518	 0.115038
H	-2.2942773928	 0.0933210059	 0.5731886401	 0.114705
H	 1.2687063727	-0.7079186163	-1.598454899	 0.070984
H	 2.7067967362	 0.4369613338	 0.7738120769	 0.09378
H	 0.538830253	-3.7116670125	 1.3970619609	 0.135918
H	-0.6647755323	-3.209440711	 0.1940136147	 0.132827
H	 0.9258104419	-3.7951506947	-0.3307749896	 0.135909
H	 0.3719101088	-0.5152832445	 2.4010968869	 0.070984
