19
gdb 88715	2.60256	1.22023	1.01139	3.7829	80.24	-0.2329	0.0235	0.2565	1240.3729	0.159206	-382.03408	-382.025164	-382.02422	-382.068556	33.009	
C	-0.1860326872	 1.5206033947	-0.0099645431	-0.316754
N	-0.195639861	 0.0764630322	 0.1711684699	-0.084724
C	 1.0230152635	-0.6353253747	-0.1789340749	-0.243044
C	 0.6146358583	-0.4993296788	 1.253036009	-0.03065
C	 1.348740951	 0.3642617078	 2.2455877088	-0.029038
C	 2.1162228928	-0.2643654301	 3.3689707057	-0.301164
C	 2.8720535402	 0.5198755642	 2.3099984059	-0.171262
C	 3.7416770819	-0.1778011238	 1.4063203002	 0.295352
N	 4.457762312	-0.7285336221	 0.6830041555	-0.345291
H	 0.7954170282	 1.9943987811	 0.1541180655	 0.10242
H	-0.4990864422	 1.7431457364	-1.0344470436	 0.129913
H	-0.9108949952	 1.9808933041	 0.6700384568	 0.12196
H	 0.8969151448	-1.5846000303	-0.6923706641	 0.120778
H	 1.8788592356	-0.0519235611	-0.5096850252	 0.128998
H	 0.128038249	-1.3562841252	 1.7163362792	 0.101105
H	 0.8306087248	 1.2825035625	 2.5093850466	 0.112176
H	 2.0582817817	 0.1677703187	 4.3610730563	 0.131107
H	 2.2380000054	-1.3418053863	 3.3475796044	 0.144129
H	 3.2412952065	 1.5004035408	 2.5928525172	 0.133988
