21
gdb 75353	2.72436	1.72485	1.31744	0.3547	87.43	-0.2152	0.0309	0.2462	1055.7483	0.1852	-349.950416	-349.942941	-349.941997	-349.981864	31.061	
C	-0.0330254628	 1.5026067137	 0.0658432654	-0.48947
C	-0.0051267785	 0.0028807529	-0.051692553	 0.342637
C	-0.0995016206	-0.6343429384	-1.223665267	-0.171663
C	-0.0288168851	-2.1365824054	-1.3524180477	-0.264345
C	 0.5603155508	-2.7801764803	-0.0961356533	-0.028186
C	 1.9654522976	-2.2330237945	 0.343396276	-0.243565
C	 1.3203130121	-1.6336214528	 1.5926010447	-0.067648
C	-0.0214840895	-2.257765569	 1.2361707547	-0.091629
C	 0.119043828	-0.7643999335	 1.2228398622	-0.111259
H	 0.8825226891	 1.8786825447	 0.5405470954	 0.123519
H	-0.1318705713	 1.9827066515	-0.9115881109	 0.116893
H	-0.8680153175	 1.8374074488	 0.6952955055	 0.118958
H	-0.2134520444	-0.0588949902	-2.1397623758	 0.072469
H	-1.0258896553	-2.5518312816	-1.5666119642	 0.100966
H	 0.5908852884	-2.4010899499	-2.2203368491	 0.099352
H	 0.5477861991	-3.8697938494	-0.1701491021	 0.066544
H	 2.6594617975	-3.0417570595	 0.584660739	 0.097615
H	 2.4559495989	-1.5360941067	-0.3437847158	 0.09493
H	 1.7876812619	-1.5402454576	 2.5662683938	 0.079473
H	-0.7370436804	-2.7728889376	 1.8656736758	 0.076971
H	-0.3037779579	-0.2684123252	 2.0934711364	 0.077436
