20
gdb 84078	2.34074	1.58094	1.01005	3.4064	82.72	-0.2028	0.006	0.2087	1221.114	0.170051	-403.211335	-403.201698	-403.200753	-403.24558	35.22	
C	-0.123051727	 1.5697027332	 0.0627527507	-0.387264
C	 0.0219126358	 0.0430176144	-0.034192505	-0.162494
C	 0.8519322246	-0.4731523418	-1.1795800451	-0.231994
C	 1.8656456912	-1.2090808634	-0.7054474905	 0.343839
C	 2.944265582	-1.9261217846	-1.4455774403	-0.496174
N	 1.8226021171	-1.2611196107	 0.7090227263	-0.13413
C	 2.7615926938	-1.9315652365	 1.5802799268	-0.355012
C	 0.7538325671	-0.5249520231	 1.1922393535	 0.402018
O	 0.4803853566	-0.3643297321	 2.3633097114	-0.396378
H	 0.8568412679	 2.0560320177	 0.0382116591	 0.119913
H	-0.716019832	 1.9578316278	-0.7704509275	 0.113699
H	-0.6166121411	 1.8356928721	 1.0014181757	 0.13931
H	-0.9839733134	-0.4004331507	-0.0395507773	 0.112883
H	 0.6562694022	-0.2801862328	-2.2242069928	 0.096683
H	 2.821206164	-1.7758937394	-2.5199732842	 0.138017
H	 3.9397912533	-1.5651848095	-1.1616586436	 0.136093
H	 2.9242573737	-3.004101972	-1.2465953047	 0.13628
H	 3.7777336461	-1.5382083197	 1.4631989292	 0.127766
H	 2.4261233735	-1.7483364001	 2.6027611683	 0.168844
H	 2.7822295446	-3.0119664786	 1.39954961	 0.128101
