19
gdb 22109	2.68904	0.94212	0.81113	3.0418	76.6	-0.2367	-0.0027	0.234	1473.3906	0.156472	-456.343924	-456.332928	-456.331984	-456.382541	37.152	
C	-0.7293003441	 1.1250689624	-0.7997818554	-0.332656
N	-0.9766192924	-0.2767184431	-0.5314571257	-0.290612
C	-0.8514789776	-0.8238316173	 0.7087958183	 0.381733
O	-0.5377558482	-0.1954463831	 1.7029698105	-0.372393
C	-1.1256906785	-2.3394703004	 0.743337675	-0.372075
C	-2.4610735339	-2.7037721358	 0.1492027325	 0.347171
C	-3.7101771365	-2.425617781	 0.9391221189	-0.477514
N	-2.4310840605	-3.2139615612	-1.0248784491	-0.181299
O	-3.7174095689	-3.4997728121	-1.5105934535	-0.395065
H	-0.4891059333	 1.6011718564	 0.1516851672	 0.169452
H	 0.1127596207	 1.259878311	-1.4882944292	 0.125659
H	-1.6127283133	 1.6092109822	-1.230714152	 0.125354
H	-1.25572485	-0.8842756581	-1.286140387	 0.255075
H	-0.3343480053	-2.8525955443	 0.1889642645	 0.134129
H	-1.0717702417	-2.6373655243	 1.7927755954	 0.133921
H	-3.5309516083	-1.6452972908	 1.6825268377	 0.142711
H	-4.5307465586	-2.1323968984	 0.2821412282	 0.1523
H	-4.0271949784	-3.3302691384	 1.4719498068	 0.147415
H	-3.5275444511	-3.8779145738	-2.3755513031	 0.306695
