19
gdb 1343	4.06782	2.27195	2.16866	0.1035	71.52	-0.2344	0.0313	0.2657	746.4522	0.171964	-273.806349	-273.799098	-273.798154	-273.837017	28.498	
C	-0.3540024148	 1.6031788065	-0.006704995	-0.437534
C	 0.077466741	 0.1325866865	 0.0085834402	 0.332339
C	-1.1605094768	-0.7773513435	-0.0691744088	-0.418968
C	 1.0443844606	-0.2142135964	-1.1696992943	-0.284236
C	 2.0587644311	-1.1433961413	-0.5519740418	-0.059738
C	 1.9817217936	-1.1521798632	 0.7774041569	-0.059741
C	 0.9020669639	-0.2304395397	 1.2860014278	-0.284236
H	 0.5122735343	 2.2714139104	 0.0479141342	 0.108581
H	-0.9054504721	 1.8451273227	-0.9225114222	 0.108681
H	-1.0077321926	 1.8334660373	 0.8423772255	 0.108681
H	-1.7284388554	-0.592315875	-0.9878282341	 0.106609
H	-0.8697732874	-1.8331733812	-0.0593016375	 0.116052
H	-1.8308958079	-0.6039975466	 0.780082538	 0.106609
H	 0.509882416	-0.664706208	-2.0155266419	 0.094822
H	 1.535136678	 0.6866347141	-1.5659202166	 0.096913
H	 2.7758025544	-1.7037095611	-1.1425056772	 0.086715
H	 2.6261721955	-1.7207691197	 1.439380124	 0.086715
H	 1.3430766784	 0.6647375964	 1.748088777	 0.096913
H	 0.2737812604	-0.6916245583	 2.0584166856	 0.094823
