18
gdb 18147	3.00672	2.0157	1.55102	2.5748	71.53	-0.2402	-0.0195	0.2207	884.297	0.153225	-347.782151	-347.774365	-347.77342	-347.814299	29.084	
C	-0.1338055439	 1.5223174362	 0.013942666	-0.411627
C	 0.0510031159	 0.027565341	 0.1704993267	 0.01545
C	 1.2803658524	-0.7581193371	-0.1925758188	-0.070759
C	 2.5698844449	-0.0090987575	 0.1779545883	-0.272447
C	 2.093891852	-0.0071077048	 1.678373386	-0.084772
C	 2.0708340816	 1.284063201	 2.4528685065	 0.142664
O	 1.1023378136	 1.7600552917	 2.9892436171	-0.246122
C	 0.7908391577	-0.6946890128	 1.2662200728	-0.07993
H	 0.7947962411	 2.0841836389	 0.136224606	 0.114437
H	-0.5232791879	 1.7513269427	-0.9842879254	 0.108539
H	-0.8405504982	 1.9061912389	 0.7552836472	 0.134859
H	-0.8498445421	-0.5273653334	-0.0889658617	 0.088051
H	 1.2482296685	-1.5948012514	-0.880110038	 0.086616
H	 3.4732095358	-0.603312352	 0.0320043981	 0.110027
H	 2.7189970075	 0.9667751592	-0.2949798563	 0.105065
H	 2.7430838162	-0.688212687	 2.2441933948	 0.102858
H	 3.0645989248	 1.7907904962	 2.5155059337	 0.069039
H	 0.30625987	-1.4659979097	 1.8523652471	 0.088048
