14
gdb 12325	3.19608	2.34296	1.42597	1.9965	60.5	-0.2433	-0.045	0.1984	828.0618	0.109447	-415.906226	-415.899388	-415.898444	-415.937116	25.959	
N	 0.0184133551	 1.3104734097	-0.2475798212	-0.543422
C	-0.0754476004	-0.0398721611	-0.0807336617	 0.235821
N	-1.1914660249	-0.6563491167	 0.0271310016	-0.298657
C	-1.1130094034	-2.1052859565	 0.1293481548	-0.168084
C	 0.0951577054	-2.6678267864	-0.59466179	-0.093004
O	 1.3110210502	-2.0384708861	-0.1305954445	-0.225381
C	 1.2895449593	-0.7072037597	 0.0065649341	 0.404954
O	 2.2915531356	-0.0843376181	 0.2501124568	-0.342633
H	 0.9077234691	 1.7189813191	-0.0043374304	 0.275569
H	-0.8144167696	 1.847459426	-0.065147271	 0.261471
H	-1.0958462249	-2.4046669094	 1.1878715583	 0.119498
H	-2.0210207616	-2.5425977921	-0.3018628104	 0.119316
H	 0.235806196	-3.735911102	-0.4163018565	 0.129908
H	 0.0103023843	-2.4975221168	-1.6749859999	 0.124645
