18
gdb 117809	2.6192	0.97956	0.84436	1.6152	68.43	-0.273	0.0182	0.2913	1398.4429	0.145261	-476.219943	-476.209612	-476.208667	-476.255532	36.646	
O	-0.1052066785	 1.4940662275	 0.0724614427	-0.421411
C	 0.0220765859	 0.0815027088	 0.1208314898	-0.093976
C	-1.3862770328	-0.4880555882	-0.0185641207	-0.20045
C	-1.4374740703	-2.0174428263	 0.0150491686	 0.184532
O	-0.8713891869	-2.466434515	 1.2293590711	-0.443213
C	-2.8885748938	-2.5446753899	-0.0839840883	-0.107474
O	-2.914322837	-3.9433803733	 0.140500441	-0.427528
C	-0.6838827878	-2.6046584467	-1.1309857634	 0.245649
N	-0.1479714462	-3.1178437966	-2.0179075652	-0.346058
H	 0.7681377567	 1.8775599381	 0.1934482041	 0.290242
H	 0.6585369979	-0.2924942554	-0.6960057929	 0.106477
H	 0.4617276568	-0.2562437463	 1.0687429303	 0.115323
H	-2.0025930772	-0.1167190191	 0.8064162393	 0.123674
H	-1.8269363572	-0.1278723456	-0.9543912398	 0.121888
H	-1.1941962254	-3.3719015075	 1.351087736	 0.295998
H	-3.4656442037	-2.0907405301	 0.7262978751	 0.132241
H	-3.3398068409	-2.2667945125	-1.0445608745	 0.118486
H	-2.5774313697	-4.382023142	-0.6502242832	 0.3056
