20
gdb 90263	3.53937	1.4564	1.21452	2.0938	79.14	-0.2026	0.0727	0.2753	1076.6452	0.171472	-403.074237	-403.066366	-403.065422	-403.106506	30.917	
C	-0.3284570096	 1.4333254123	-0.0531758382	-0.326869
N	 0.132937499	 0.0669140247	 0.0169187699	-0.065481
C	 1.2027883724	-0.3983212982	-0.9070159643	-0.282862
C	 1.979665435	-0.8772441475	 0.3076507918	 0.472566
O	 2.7795974447	-2.0322143031	 0.4523340214	-0.328725
C	 3.6040999603	-1.3399932596	 1.4359165147	-0.106979
C	 2.9109456649	 0.0181854907	 1.150168578	-0.129054
C	 1.7335972223	 0.4355674619	 2.0693937965	-0.268329
C	 0.7809192833	-0.4778520283	 1.2342143926	-0.070265
H	 0.4681076171	 2.1954947192	 0.0391699048	 0.091798
H	-0.8321280054	 1.6004491061	-1.0116210327	 0.123006
H	-1.0600534559	 1.6149926629	 0.7412976063	 0.122719
H	 0.8540104768	-1.1796964329	-1.5941653062	 0.111189
H	 1.70441049	 0.3860052244	-1.4930060923	 0.09106
H	 3.4536988351	-1.7416623119	 2.4457586717	 0.104009
H	 4.6642603459	-1.403389217	 1.171868816	 0.111565
H	 3.5474897067	 0.7884973108	 0.7121716932	 0.073694
H	 1.8355638903	 0.1372628594	 3.1174850475	 0.100269
H	 1.4927136393	 1.5014443366	 2.0409878079	 0.104381
H	 0.1461327479	-1.1774363907	 1.7860867111	 0.07231
