14
gdb 13752	3.51052	1.39088	1.23524	3.9434	59.82	-0.2588	-0.0595	0.1993	1003.1093	0.103423	-419.673865	-419.665569	-419.664625	-419.707641	28.206	
C	 0.1108547703	 1.3628945833	-0.7896294247	-0.492214
C	 0.0240677091	 0.0937878715	 0.0296550498	 0.378174
O	 0.9757108589	-0.4116202117	 0.574320477	-0.295141
C	-1.3623014557	-0.5147588539	 0.1261334408	-0.037352
O	-1.4518529945	-1.8889367164	 0.446176971	-0.214038
C	-1.9321634744	-0.9803048723	 1.4277497286	-0.051443
C	-1.1574792203	-0.9059631342	 2.7119758033	 0.130306
O	-1.6601760622	-0.5015500883	 3.7300714135	-0.243365
H	 1.1181300372	 1.7747220703	-0.7288166944	 0.154884
H	-0.1382495701	 1.1515863389	-1.8364154904	 0.151996
H	-0.617849394	 2.1003721985	-0.4330780425	 0.148957
H	-2.0842591342	-0.1669080573	-0.6141374471	 0.112532
H	-3.0140960107	-0.9244877307	 1.5469377158	 0.125056
H	-0.1128664996	-1.2589759976	 2.6440888392	 0.131647
