22
gdb 58607	1.85753	1.48756	1.2893	3.2814	81.9	-0.239	0.0284	0.2674	1188.7961	0.192718	-404.379394	-404.369	-404.368056	-404.415102	38.877	
C	-0.8948378986	 1.3138637117	 0.7809445463	-0.38902
C	-0.1439068518	 0.1287148149	 0.1568752864	-0.031062
C	 0.464222227	 0.5049475518	-1.2028235182	-0.403901
C	 0.9093768932	-0.4683975667	 1.1009776799	 0.276922
C	 0.4229227623	-1.355007454	 2.2183135308	-0.298757
C	 1.1480286362	-1.9616341574	 1.0409949495	-0.334724
C	 2.0655407686	 0.4616312606	 1.4253977015	 0.312447
N	 3.283526574	 0.083513348	 0.929560117	-0.511733
O	 1.9259636582	 1.477912354	 2.0808396678	-0.365011
H	-0.2139720731	 2.1400289756	 0.9962070864	 0.145441
H	-1.6759888279	 1.6687333956	 0.1000998126	 0.099024
H	-1.3699311989	 1.0263217704	 1.7236542976	 0.111999
H	-0.8729663968	-0.6752415642	-0.017171443	 0.066542
H	 1.1910902695	 1.3183495304	-1.1000671459	 0.124253
H	 0.9732735057	-0.3480808717	-1.664706862	 0.102608
H	-0.31318458	 0.8452944516	-1.8940199885	 0.113886
H	 0.9407611481	-1.3139006082	 3.1699946774	 0.126182
H	-0.6476080722	-1.5125162543	 2.300751934	 0.114933
H	 0.5730279579	-2.5356168651	 0.3212900181	 0.111616
H	 2.1465522024	-2.3459473524	 1.2196756834	 0.110461
H	 3.360120249	-0.6437454691	 0.2406018237	 0.259934
H	 4.0451428673	 0.7363322884	 1.0268720353	 0.257962
