15
gdb 70973	4.21227	1.24851	1.13279	4.0972	69.99	-0.2379	0.0015	0.2394	1050.039	0.113156	-416.735618	-416.728334	-416.72739	-416.767102	28.772	
O	-0.1077124058	 1.339785589	-0.0517096975	-0.454643
C	 0.0523198869	-0.0237522715	-0.0446463123	 0.380276
C	 0.9863404304	-0.8636961254	-0.9149678077	-0.305963
C	 0.1043411195	-2.056576948	-0.4411524717	 0.200802
N	 0.4661088906	-2.1511227592	 1.0286776408	-0.351326
C	-0.3148254512	-0.9001055441	 1.166932791	-0.097458
C	-1.0732823052	-1.0290484369	-0.1282237765	-0.198167
C	-0.0014452321	-3.2758265905	-1.1952229999	 0.158395
N	-0.1052875543	-4.2575368489	-1.7973847488	-0.334943
H	 0.5590187895	 1.733518169	 0.5226138958	 0.295239
H	 0.8358268624	-0.6476393621	-1.9743810476	 0.128499
H	 2.0478274124	-0.9378341147	-0.6657531549	 0.116704
H	-0.0977030935	-2.9052994405	 1.4235420197	 0.230421
H	-0.6140694675	-0.4783616896	 2.1171948954	 0.111223
H	-2.109104302	-0.9606098966	-0.4303113658	 0.120941
