17
gdb 53068	5.51761	0.72674	0.64988	3.1429	89.64	-0.2274	-0.0231	0.2043	1688.6171	0.134243	-384.709731	-384.70055	-384.699606	-384.745973	32.233	
C	-0.0680086646	 1.4607754603	 0.0195870164	-0.507983
C	-0.0032209902	 0.0082181176	 0.0143425015	 0.220884
C	 0.0657666155	-1.1974154569	 0.0118096713	-0.140576
C	 0.0820845756	-2.6118736216	 0.0011010572	 0.193784
C	 1.1625260415	-3.404975309	 0.1233985207	-0.188206
C	 0.8282369919	-4.8660146689	 0.0702840532	-0.362623
C	-0.698995183	-4.8781413142	-0.1127324278	 0.390089
O	-1.3906554407	-5.8568117546	-0.2043317031	-0.302684
C	-1.187899673	-3.4235655356	-0.158261466	-0.433372
H	 0.5265300425	 1.8876111384	-0.7961387051	 0.153168
H	-1.0981351327	 1.8136998456	-0.0995919895	 0.152285
H	 0.318095345	 1.8719757724	 0.9592170253	 0.153168
H	 2.1722163308	-3.0334276113	 0.2476472363	 0.102865
H	 1.3090596752	-5.4012930079	-0.759593443	 0.140624
H	 1.1006406667	-5.41687082	 0.9806487139	 0.140624
H	-1.9176699098	-3.2415185468	 0.6398584606	 0.143976
H	-1.7089705407	-3.2259149877	-1.102782662	 0.143976
