18
gdb 98484	2.26507	1.30821	0.9593	2.5941	69.06	-0.2679	-0.0392	0.2287	1243.1841	0.146378	-476.203084	-476.193654	-476.19271	-476.237726	34.207	
O	-0.1740055372	 1.5783326396	 0.4025432347	-0.423869
C	-0.4384025639	 0.2839487474	 0.8530650663	-0.153685
C	-1.2034396827	-0.5189743353	-0.1828379458	 0.31186
O	-1.464110091	-0.0086662547	-1.2583370446	-0.354621
C	-1.6166954533	-1.9290775429	 0.1242675149	 0.185225
C	-0.9166574578	-2.67647519	 1.2386594122	-0.147324
O	 0.4531074183	-2.8869355199	 0.9428220411	-0.415087
C	-3.0283852618	-2.2701376975	-0.2507525582	-0.256949
N	-1.9211231086	-2.7645947194	-1.0581929564	-0.346306
H	-0.5362302762	 1.6161561031	-0.4965052489	 0.294531
H	 0.4866213424	-0.2711999474	 1.0769736915	 0.148039
H	-1.0253280602	 0.3016178146	 1.7868175936	 0.118015
H	-0.9451259172	-2.1108939457	 2.1754082004	 0.11891
H	-1.4436611544	-3.6257173376	 1.4078213927	 0.104732
H	 0.4820737542	-3.3860838729	 0.1177694532	 0.296195
H	-3.5530930715	-3.0184870565	 0.3370189213	 0.129536
H	-3.6418442211	-1.4673991988	-0.6488845206	 0.137863
H	-1.831670448	-2.1664854761	-1.8802101072	 0.252936
