21
gdb 64282	2.88517	1.42779	1.26959	1.6009	76.82	-0.233	0.0762	0.3092	1098.5518	0.182987	-424.217302	-424.208817	-424.207873	-424.249719	34.313	
C	 0.029568341	 1.5690014665	 0.0228896708	-0.418364
C	-0.0007694047	 0.0446584747	-0.0003029328	 0.349138
O	-1.3728710969	-0.3447764092	-0.0437340373	-0.47714
C	 0.6902514247	-0.5061671835	-1.2547019091	-0.125328
O	 0.478998548	-1.9108898828	-1.3602635736	-0.271167
C	 0.879619197	-2.6665213021	-0.2447368072	 0.114845
C	 2.2183104536	-2.5104440445	 0.4162492913	-0.328863
C	 0.9521332438	-2.0472288316	 1.1273556279	-0.073758
C	 0.6743569185	-0.549812051	 1.2586176068	-0.248088
H	 1.0567861884	 1.9465279064	 0.0144755948	 0.10972
H	-0.5019301226	 1.9719714988	-0.8439389967	 0.120646
H	-0.4652321033	 1.9408677409	 0.9252674246	 0.125239
H	-1.3935889922	-1.2213513698	-0.4474885732	 0.288356
H	 0.2388809885	-0.0789313231	-2.1542349988	 0.114199
H	 1.762394182	-0.2621061758	-1.256680064	 0.094397
H	 0.4784964	-3.6689196079	-0.348577484	 0.102374
H	 2.71799566	-3.4082654078	 0.7631709425	 0.112765
H	 2.893337052	-1.7391447407	 0.0600903416	 0.115723
H	 0.6115519137	-2.6613451612	 1.9544763656	 0.090624
H	 1.6035392638	-0.007121595	 1.4713006987	 0.093437
H	-0.0012667754	-0.3694088314	 2.099228842	 0.111243
