25
gdb 92497	2.56692	1.32387	1.11822	0.1737	91.84	-0.2713	0.0782	0.3495	1269.1511	0.230282	-352.373917	-352.364787	-352.363843	-352.407376	36.599	
C	-0.3023504081	 1.4224106869	-0.0257707345	-0.407972
C	 0.0748776682	-0.0526578564	 0.0975336501	 0.059759
C	 0.5768817717	-0.699656382	-1.2177729864	-0.242005
C	 1.451516908	-1.8900332479	-0.7727769091	-0.02455
C	 2.9985343443	-1.7919364851	-0.9421305854	-0.231974
C	 3.1770729586	-2.0021584486	 0.5864675865	-0.287238
C	 1.6458089504	-1.7967010528	 0.7843425029	 0.378005
C	 0.9335748865	-2.8232553388	 1.6563094471	-0.47513
C	 1.2120513906	-0.3474318037	 1.0962271868	-0.276877
H	 0.5590668803	 2.0199788205	-0.3474449577	 0.109694
H	-1.1013377135	 1.5705085638	-0.7604684886	 0.110194
H	-0.6513928187	 1.8287734843	 0.9297215013	 0.109459
H	-0.8144219784	-0.6078281606	 0.4278535926	 0.069227
H	-0.252861395	-0.9944056677	-1.8679030837	 0.090792
H	 1.1750615641	 0.0271022285	-1.782573388	 0.089345
H	 1.0578013519	-2.8532238481	-1.1085040933	 0.056734
H	 3.4659427558	-2.5374737395	-1.5898675768	 0.094359
H	 3.3183573015	-0.8021971837	-1.2815367551	 0.09463
H	 3.4896697623	-3.0213944852	 0.8329011807	 0.09172
H	 3.8382658159	-1.3078121895	 1.1132895821	 0.089771
H	 1.2578127521	-2.7447016534	 2.7012344046	 0.110765
H	-0.1541935155	-2.6868891013	 1.6373824427	 0.11054
H	 1.144814262	-3.8441780782	 1.3193907503	 0.107034
H	 2.0405861952	 0.3493806364	 0.9107631473	 0.086219
H	 0.9076285298	-0.2109244978	 2.1396579535	 0.0875
