18
gdb 64528	3.95411	1.32309	1.13098	3.5082	76.8	-0.2316	-0.0249	0.2067	1089.7663	0.146756	-401.855223	-401.847412	-401.846468	-401.887482	30.13	
C	-0.1415853536	 1.6097347385	 0.009731094	-0.478777
C	-0.0435323422	 0.0932494577	 0.0146938498	 0.201406
C	-1.3602644522	-0.5799793094	-0.2986600465	 0.107043
O	-2.3803285133	 0.0244314063	-0.5293908008	-0.261532
C	 1.1897333648	-0.5766681226	-0.6489444958	-0.050251
C	 2.1611243527	-0.2399481218	 0.5216100275	-0.07649
C	 2.5506650817	-1.7117197242	 0.5946093745	-0.192186
N	 1.0722792111	-1.8380456304	 0.2505256518	-0.164289
C	 0.7756662794	-0.5976228693	 1.1378355003	-0.050325
H	 0.8203624328	 2.0764515931	 0.2369916621	 0.113266
H	-0.4803533193	 1.9691330913	-0.965794965	 0.134984
H	-0.8750320284	 1.9492832267	 0.7462066965	 0.134881
H	-1.3293500164	-1.6872558173	-0.3034254675	 0.106502
H	 1.4263144791	-0.6746960045	-1.7106096746	 0.091403
H	 2.7591234764	 0.6635730168	 0.6707962696	 0.077804
H	 3.2130889193	-2.1109722807	-0.1802375841	 0.107592
H	 2.806853688	-2.1315260651	 1.5727336263	 0.10759
H	 0.52183581	-0.7205477851	 2.1929109121	 0.091379
