16
gdb 74344	3.16867	1.18618	0.96136	3.3385	78.28	-0.2481	-0.0265	0.2216	1223.5794	0.123252	-400.766105	-400.757282	-400.756338	-400.799924	32.27	
C	 0.037903979	 1.5362781178	-0.0173379223	-0.486176
C	-0.0461420738	 0.048316792	-0.0118411228	 0.209627
C	-1.0980606155	-0.7620270652	 0.1128857907	-0.193762
C	-0.6716906087	-2.2203721948	 0.051831359	-0.193955
N	 0.7594832673	-2.0975033544	-0.1674612314	-0.325027
C	 1.1941710461	-0.7888309349	-0.143577606	 0.35943
O	 2.3415257901	-0.4053455946	-0.2195078811	-0.374889
C	-1.0179737215	-2.9747256023	 1.2592139245	 0.332381
C	-1.3085116668	-3.6089474042	 2.2372210489	-0.465444
H	 0.7115647361	 1.8809689473	 0.7743137657	 0.150119
H	 0.4659821032	 1.8927710984	-0.9605548023	 0.14665
H	-0.9415611837	 1.9991169655	 0.1230313816	 0.122865
H	-2.1371633122	-0.4891055095	 0.2405986843	 0.123696
H	-1.1530444375	-2.7089793589	-0.8102927487	 0.127902
H	 1.3964876796	-2.8689145673	-0.0568860306	 0.259683
H	-1.5615531116	-4.163420875	 3.1072390805	 0.2069
