18
gdb 77615	2.08556	1.60213	1.29065	3.4644	78.46	-0.2301	0.0157	0.2458	1080.611	0.147931	-398.097824	-398.088685	-398.087741	-398.131501	33.738	
C	 0.0624414719	 1.5465120452	 0.0186466085	-0.4713
C	 0.0463344092	 0.0482832805	 0.0635045622	 0.266692
N	 0.6155982389	-0.7048667117	-1.0623487813	-0.348486
C	 1.2109358445	-1.7303216874	-0.1548225569	-0.233155
C	 0.6777264146	-0.9675649652	 1.0568243136	 0.09385
C	 1.3165236015	-0.7383465452	 2.3010764916	 0.192018
N	 1.8084758807	-0.549258925	 3.3336885222	-0.362419
C	-0.8599857819	-0.794669812	 0.8996394839	-0.070241
N	-1.644267129	-0.1964134803	 1.9344353197	-0.522155
H	 1.0544283583	 1.9041040815	-0.2682396595	 0.143522
H	-0.6579345457	 1.9044363766	-0.7261805979	 0.135216
H	-0.2036027586	 1.9964295526	 0.9784721252	 0.127878
H	-0.0856748146	-1.0704199856	-1.7024477851	 0.220712
H	 0.8235134355	-2.7507786956	-0.2660057105	 0.107864
H	 2.3015878886	-1.751941195	-0.2331357907	 0.130969
H	-1.370258198	-1.6266474198	 0.4131009225	 0.096309
H	-1.7703259824	-0.8453702564	 2.7060189333	 0.247452
H	-1.1968001636	 0.6272665628	 2.3216976793	 0.245274
