18
gdb 79047	3.73627	1.67288	1.4267	1.3266	75.29	-0.2195	0.0706	0.2901	941.2423	0.148829	-401.81711	-401.810446	-401.809502	-401.847743	27.804	
C	 0.063856626	 1.5209862606	-0.1244207942	-0.334151
N	-0.0116279642	 0.0631237504	-0.0769547681	-0.197911
C	-1.171872429	-0.5178914946	 0.7351656072	-0.081401
C	-0.3714433184	-1.8057560469	 1.033454356	-0.0798
C	-0.3072194448	-1.6865609437	 2.5558528807	 0.064574
O	 1.1039177139	-1.7857367797	 2.917540792	-0.29876
C	 1.8168114324	-1.0256667724	 1.9073950151	-0.182226
C	 0.6010140436	-0.5878851229	 1.1171080033	 0.303783
C	-0.5475147301	-0.2339306172	 2.1390838378	-0.105824
H	 1.0593283131	 1.819662855	-0.4685193731	 0.122939
H	-0.6639282985	 1.8878633733	-0.8551216641	 0.122101
H	-0.1321431582	 2.01991139	 0.8390304401	 0.097931
H	-2.2020143497	-0.4074681621	 0.3972203714	 0.086042
H	-0.2203975378	-2.6600157401	 0.3765717021	 0.089663
H	-0.8833399294	-2.2607955679	 3.27830188	 0.08363
H	 2.3766842962	-0.2112078612	 2.3790526424	 0.109316
H	 2.5037628875	-1.6780088573	 1.3574795589	 0.113409
H	-0.6128788227	 0.6556107267	 2.7621236525	 0.086685
