18
gdb 109284	2.73684	1.30243	0.94954	1.996	74.47	-0.2688	-0.0206	0.2482	1253.5606	0.147892	-439.148477	-439.139861	-439.138917	-439.182401	31.422	
C	 0.4104224615	 0.8049517477	-0.7192446908	-0.383604
C	-0.3553387037	 0.313901938	 0.5206703808	-0.253197
C	 0.5547353955	-0.1485117165	 1.6196903724	 0.401497
N	 0.6501521371	 0.423600599	 2.7403466826	-0.281569
C	 1.5948141818	-0.1257937134	 3.7022169359	-0.175521
C	 1.760610581	-1.6422548637	 3.5476297766	-0.352674
C	 2.0234679063	-1.9988999292	 2.1057842827	 0.417472
O	 2.7489993714	-2.8560039617	 1.6991287985	-0.301584
O	 1.3007160861	-1.2509032979	 1.1994851875	-0.249437
H	 1.0470902984	 0.0148533523	-1.1243375738	 0.142487
H	-0.2915922085	 1.1142514103	-1.4982403083	 0.121962
H	 1.0428843361	 1.6630392781	-0.4723029042	 0.127655
H	-0.9811866023	 1.1075182331	 0.9330912147	 0.129903
H	-1.0060002852	-0.5226282196	 0.2383684431	 0.122055
H	 2.5613703535	 0.3817200496	 3.5742662105	 0.127004
H	 1.2494398738	 0.1160335504	 4.711218441	 0.123607
H	 2.5661241089	-2.0511954226	 4.1595211468	 0.139896
H	 0.8276196785	-2.140183134	 3.8425651137	 0.144049
