25
gdb 102566	2.13118	1.02423	0.85321	1.7557	89.05	-0.2541	0.0747	0.3288	1554.4432	0.226753	-389.484891	-389.473693	-389.472749	-389.521936	40.532	
C	 2.2929218699	 0.6316939354	-1.4811257296	-0.396265
C	 1.983259254	-0.6875591779	-0.7672332555	-0.174436
C	 1.9398089492	-0.5877179398	 0.7717794271	-0.005278
C	 0.8683041494	 0.3816384137	 1.3229362185	-0.194223
C	-0.58632769	 0.0612787471	 0.9540251856	-0.380995
C	 1.7824612375	-1.9774284011	 1.3580635943	 0.056625
O	 2.92532366	-2.8436951811	 1.3075879892	-0.273195
C	 2.4236576111	-2.4611316167	 2.5941594652	 0.073643
C	 3.3312780701	-1.6493512899	 3.4832822962	-0.421644
H	 3.2328730041	 1.0653874323	-1.121081599	 0.114105
H	 2.3926648889	 0.4760747573	-2.5598485752	 0.113248
H	 1.5053936392	 1.3768975593	-1.3300661531	 0.11641
H	 1.0338507865	-1.0935452949	-1.1395173117	 0.093678
H	 2.7492074611	-1.4277291229	-1.0252359411	 0.114855
H	 2.9157044432	-0.2041739973	 1.0927404501	 0.0719
H	 0.9605343742	 0.4072245712	 2.4159763968	 0.095518
H	 1.1066803743	 1.3951698789	 0.9809364014	 0.099388
H	-1.2624903505	 0.8011676321	 1.3936444811	 0.113734
H	-0.7472741461	 0.0752536581	-0.1285394285	 0.120895
H	-0.8965335178	-0.9217123229	 1.3219373969	 0.11816
H	 0.8584118261	-2.4833199946	 1.0668701702	 0.083499
H	 1.913065448	-3.2758880514	 3.1139914462	 0.082389
H	 3.8100934095	-0.8302997983	 2.9437741428	 0.129301
H	 2.7665290215	-1.2327001436	 4.3245921926	 0.120101
H	 4.1198922066	-2.2877344728	 3.8956038993	 0.128587
