17
gdb 19363	4.1222	1.69922	1.48569	3.327	67.29	-0.2187	0.0603	0.2791	904.4341	0.141171	-363.761456	-363.754147	-363.753202	-363.793039	28.262	
C	 0.1902299013	 1.540536199	 0.0681039265	-0.383541
C	-0.0337522551	 0.0322166329	-0.1025799338	-0.307239
C	-1.472848458	-0.3678385407	-0.0155378358	 0.451078
O	-1.8959852735	-1.6031653183	-0.594355699	-0.263557
C	-2.5778616117	-0.4069036601	-0.9793065103	-0.062152
C	-3.6010065283	-0.0209130265	 0.1477983761	-0.090101
N	-3.5244371605	-1.0579601698	 1.2042148735	-0.311199
C	-2.498014548	 0.0097054268	 1.1317022445	-0.150386
H	 1.2536532655	 1.7835671511	-0.0103991079	 0.12023
H	-0.3439107933	 2.1083195133	-0.7003993695	 0.120617
H	-0.1565031122	 1.8922433502	 1.0451690372	 0.119836
H	 0.3480646421	-0.3031320164	-1.0729571369	 0.11669
H	 0.5327631226	-0.5159833677	 0.6621483257	 0.112182
H	-2.6349841205	-0.1674303889	-2.0347365416	 0.104066
H	-4.4559050121	 0.6323560645	 0.0363057953	 0.097168
H	-4.1810741411	-0.7725165512	 1.9323398568	 0.229995
H	-2.3174868873	 0.6907194618	 1.9527968991	 0.096311
