17
gdb 7893	3.87967	1.63988	1.17799	3.3043	73.04	-0.2011	0.0034	0.2045	1019.311	0.141863	-363.919255	-363.911039	-363.910094	-363.951744	29.729	
C	-0.0055993084	 1.4753778303	 0.0095597312	-0.350744
N	-0.0193489605	 0.0311947282	 0.0007048453	-0.077671
C	-1.1663133779	-0.7850933675	 0.003314453	-0.107584
C	-0.8637222509	-2.0888853914	-0.006324969	 0.246566
C	-1.8012915553	-3.2493596054	-0.007034875	-0.4878
C	 0.6426159308	-2.2008275419	-0.0165679078	-0.451195
C	 1.1274266237	-0.743329631	-0.0115745829	 0.413981
O	 2.2647694537	-0.3238791123	-0.0158217974	-0.386882
H	 1.0407859233	 1.7856211939	 0.0027612017	 0.16787
H	-0.5076364497	 1.8862222362	-0.8741331199	 0.128447
H	-0.4927269911	 1.875360607	 0.9065077772	 0.128465
H	-2.1413980049	-0.3165132839	 0.0124423082	 0.118916
H	-2.843524635	-2.9164350491	 0.0013774184	 0.122942
H	-1.6597760462	-3.8847821233	-0.8910827012	 0.125516
H	-1.6487740529	-3.8947561428	 0.8679139044	 0.125522
H	 1.048366977	-2.7262075648	 0.8563742492	 0.141853
H	 1.0371320645	-2.7163089722	-0.9004847355	 0.141799
