19
gdb 73218	2.12631	1.89627	1.44767	4.2257	74.14	-0.2581	0.0131	0.2712	1006.6247	0.160409	-423.070217	-423.062159	-423.061215	-423.102792	30.889	
C	-0.0315754894	 1.5297088059	-0.0294899112	-0.475918
C	-0.0048308993	 0.011034066	 0.060252864	 0.172698
C	-1.3208612963	-0.7295289463	 0.4457944647	-0.262564
C	-0.4980001134	-1.6638469486	 1.3760199549	-0.237591
C	 0.7400569582	-0.7345546985	 1.2030051662	-0.070267
C	 1.9717664474	-1.3414599578	 0.5365881377	-0.104858
O	 1.6754182688	-1.395358348	-0.8716091491	-0.228101
C	 0.617125086	-0.6014541645	-1.1963387705	 0.414876
O	 0.2635639433	-0.4455239361	-2.3301337759	-0.355994
H	 0.9771030305	 1.9487358082	-0.1150470235	 0.121475
H	-0.5977154103	 1.8405263593	-0.9127200113	 0.146256
H	-0.5047250625	 1.9607098796	 0.8582469634	 0.114646
H	-1.9943582709	-0.0703591005	 1.0001405313	 0.10576
H	-1.8781782233	-1.1887149312	-0.3733885019	 0.121606
H	-0.8695696889	-1.7787570127	 2.3957483995	 0.106473
H	-0.3376140618	-2.6604942274	 0.9548387097	 0.114284
H	 0.986083631	-0.1436427844	 2.0864458483	 0.07966
H	 2.8697391618	-0.7280081389	 0.6753710869	 0.115416
H	 2.1899572692	-2.3604718943	 0.8690695568	 0.122143
