17
gdb 115030	2.22094	1.5589	1.01219	5.3635	72.95	-0.2392	0.0083	0.2475	1154.151	0.138891	-414.201068	-414.192684	-414.19174	-414.234428	30.824	
N	-0.182339053	 1.5693180114	-0.2641684906	-0.52409
C	 0.0027311028	 0.1140400279	-0.2120873297	-0.179429
C	-1.3535001712	-0.5536557068	 0.0596647762	 0.001929
N	-2.359288286	-0.1148211362	-0.9171641633	-0.286451
C	-2.4812951153	-1.1362421898	-1.8354171266	 0.067917
N	-1.9974914709	-2.282593619	-1.5341907257	-0.250814
C	-1.4007805705	-2.1028265003	-0.1900487591	-0.134074
C	-0.0997165935	-2.7689049923	-0.0754120981	 0.29974
N	 0.930376528	-3.2789242496	 0.0413756152	-0.336436
H	-0.2824807807	 1.9449372227	 0.6747009864	 0.234256
H	 0.6394039543	 2.0117025792	-0.6616828601	 0.241851
H	 0.3699081551	-0.2161737925	-1.1900369221	 0.128893
H	 0.7314723513	-0.2270509796	 0.5372176174	 0.11608
H	-1.6810175264	-0.3169884442	 1.0771380253	 0.093254
H	-2.2328629309	 0.8362614171	-1.2449806385	 0.255323
H	-3.0174394635	-0.9552505962	-2.7625560758	 0.134901
H	-2.0672701694	-2.5701681318	 0.5470943493	 0.13715
