21
gdb 120152	3.08439	0.97577	0.8737	1.6592	79.8	-0.2347	0.0864	0.3211	1436.0414	0.181093	-424.167495	-424.158079	-424.157135	-424.202183	34.523	
C	-0.6620776301	 1.4880895258	-0.160667662	-0.224498
O	-0.5259499882	 0.0895920819	-0.2100283582	-0.235864
C	 0.3884796307	-0.3352872029	-1.2034868127	-0.100789
C	 0.4110978871	-1.8430143633	-1.1733018505	-0.026947
C	-0.3539980978	-2.708709442	-2.1190357096	 0.080457
O	-0.3812387068	-2.1439634435	-3.4344251812	-0.305054
C	 1.055265653	-2.3736401362	-3.5745406202	 0.15643
C	 1.8327379199	-1.2165708196	-4.1683929634	-0.414292
C	 1.1610070068	-2.7839381542	-2.1050596732	-0.201427
H	 0.2934665427	 1.9861089504	 0.0722836671	 0.099531
H	-1.0357524924	 1.8980860742	-1.1126031683	 0.104253
H	-1.3807437183	 1.7203582156	 0.6293130962	 0.124869
H	 0.0717431212	 0.0214409756	-2.1937648367	 0.104965
H	 1.390566492	 0.0799402579	-0.9973676923	 0.080728
H	 0.4088555916	-2.2329015254	-0.1569810753	 0.100524
H	-1.1303374889	-3.4187196987	-1.8586090727	 0.103065
H	 1.1917335542	-3.26392106	-4.2044134152	 0.084038
H	 1.7855047588	-0.3192247007	-3.5491481615	 0.125934
H	 2.8843863721	-1.5016167331	-4.2821520958	 0.1194
H	 1.4414740386	-0.9728158935	-5.161617317	 0.128825
H	 1.8192365539	-3.5548421584	-1.7266377274	 0.095854
