25
gdb 118960	2.32763	1.02102	0.9389	1.6174	88.94	-0.2382	0.0817	0.3199	1491.4433	0.227044	-389.491683	-389.480844	-389.479899	-389.527662	40.024	
C	 0.0132418166	 1.4840631667	 0.416902816	-0.383353
C	 0.0380466645	-0.0180829262	 0.1210423136	-0.175008
C	-1.3673371181	-0.6051137345	-0.0682308801	-0.208718
C	-1.3990898845	-2.1340172114	-0.1725992567	 0.41688
C	-0.61240548	-2.672092964	-1.3604773081	-0.443122
O	-0.914798675	-2.7293907064	 1.0727235784	-0.32598
C	-2.2321869206	-3.1869000689	 1.4274812888	-0.083654
C	-2.798389979	-2.8014934031	 0.0473032822	-0.072831
C	-4.0889388755	-1.9985226103	-0.0238191858	-0.420712
H	 1.025201482	 1.8808818527	 0.5457726553	 0.110528
H	-0.4617839763	 2.0431099861	-0.3974812296	 0.109905
H	-0.5471976634	 1.6988489343	 1.3337478614	 0.113024
H	 0.6450456933	-0.1970670368	-0.7740746907	 0.094424
H	 0.5270286406	-0.5530769565	 0.9428712437	 0.118063
H	-1.9831876737	-0.3038893197	 0.7874854341	 0.091448
H	-1.8410294105	-0.1718196102	-0.9598316661	 0.08833
H	 0.4429524867	-2.3936488789	-1.2954312086	 0.126983
H	-0.6695082105	-3.7637148608	-1.3896387091	 0.114697
H	-1.0131628042	-2.2775630397	-2.3013274903	 0.11101
H	-2.241992783	-4.2502750127	 1.6939828311	 0.098039
H	-2.6556188318	-2.612228109	 2.2645919035	 0.089988
H	-2.8872120596	-3.6816415841	-0.5970729445	 0.07527
H	-4.0714377745	-1.1260752309	 0.6357130938	 0.120204
H	-4.2869839671	-1.646940534	-1.0421107446	 0.118209
H	-4.9388615866	-2.6206523115	 0.2777909823	 0.116376
