22
gdb 112750	2.47459	1.27351	0.96623	1.9567	83.38	-0.2388	0.0756	0.3144	1321.4289	0.193297	-404.304188	-404.294519	-404.293575	-404.338791	35.976	
C	 0.3882699572	 1.7826126971	 0.5372563132	-0.238746
O	 0.8324733578	 0.5163438979	 0.1016861559	-0.245224
C	 0.6824807384	-0.4906846208	 1.0647543341	 0.074407
C	-0.7165966883	-1.1372459418	 1.3026139189	-0.28306
C	-0.0277664439	-2.5385248697	 1.3136902759	-0.027818
C	-0.7164713843	-3.7041670399	 0.6222135284	-0.414002
C	 1.1818930703	-1.8691937124	 0.6438613889	 0.306059
C	 1.801466588	-2.1675407888	-0.6643112558	-0.294788
N	 2.5459946791	-2.373025376	 0.5983077695	-0.386012
H	 0.9287574999	 2.1142441225	 1.4379018187	 0.104674
H	 0.5805822452	 2.4913581955	-0.2717269598	 0.127485
H	-0.6884779271	 1.7853999022	 0.7619249202	 0.110971
H	 1.1347080753	-0.1730695126	 2.0202151318	 0.062997
H	-1.2757375939	-0.8384219845	 2.1913938174	 0.095026
H	-1.342727887	-1.0103515453	 0.4142823172	 0.107068
H	 0.2379618066	-2.8184357068	 2.3399271275	 0.078446
H	-0.9995400259	-3.4434461719	-0.4032940084	 0.113843
H	-0.0597390119	-4.5799515497	 0.5796437181	 0.12519
H	-1.6263963331	-3.9969572597	 1.1570640419	 0.113285
H	 1.548282319	-3.0817130271	-1.1941859876	 0.114753
H	 2.0614507865	-1.322671832	-1.294944114	 0.126032
H	 3.2038816522	-1.608573426	 0.7387333282	 0.229413
