18
gdb 97391	5.45893	0.77603	0.74305	2.3741	76.95	-0.2417	0.0174	0.2591	1557.3313	0.14547	-439.021535	-439.012668	-439.011724	-439.056056	32.002	
C	-0.3103744403	 1.334618396	-0.0741085875	-0.316063
N	 0.272536807	 0.0229641993	 0.1188554961	-0.202936
C	 0.5373397558	-0.6489957221	-0.9065475178	 0.106767
O	 1.0729700165	-1.8948186371	-0.7857989053	-0.237099
C	 1.4090857505	-2.5372871675	-1.9653764806	 0.336892
C	 0.4177722251	-2.9389680577	-3.0364483836	-0.350942
C	 1.2610571009	-3.9819117309	-2.3500325336	 0.023076
O	 2.5689221431	-4.0330302091	-2.9234783485	-0.281433
C	 2.8369782373	-2.6702269926	-2.4886281512	-0.138745
H	 0.3306254294	 2.0917108875	 0.3911745723	 0.131279
H	-0.4604721793	 1.6089384077	-1.1310097006	 0.097584
H	-1.2794053216	 1.3824255547	 0.4351839285	 0.131163
H	 0.3689360312	-0.334582747	-1.9461622575	 0.086596
H	-0.616263336	-2.9137745113	-2.7054363476	 0.130174
H	 0.5849885569	-2.7019918701	-4.0837518251	 0.122649
H	 0.8850655647	-4.8547545833	-1.8312959988	 0.125146
H	 3.1530731801	-2.0195423386	-3.3116593659	 0.109833
H	 3.5802418488	-2.6586389078	-1.684339293	 0.126059
