17
gdb 48331	2.37465	1.31019	1.05698	2.8422	73.79	-0.2589	-0.036	0.223	1176.9929	0.132928	-421.771776	-421.762485	-421.76154	-421.807076	32.616	
O	-0.3225925973	 0.123254492	-0.4816892363	-0.244476
C	-0.1143929163	 1.201450813	 0.0092844038	 0.118303
C	 1.2255275959	 1.9086331203	 0.0071324667	 0.173093
C	 1.4642252287	 2.6491722554	 1.3326901951	-0.451156
C	 1.5545622491	 1.7403370156	 2.4699487448	 0.292328
C	 1.6197631878	 0.9575254293	 3.3793926657	-0.422147
C	 2.4029391943	 1.0893316705	-0.5583752428	-0.112782
O	 2.5483245684	 1.9807445248	-1.6878037578	-0.26586
C	 1.4393762891	 2.7842678169	-1.2687562364	-0.117407
H	-0.9377038376	 1.7852481548	 0.4831017526	 0.080701
H	 2.3840360099	 3.2404110398	 1.2504609815	 0.144988
H	 0.6504758499	 3.369632634	 1.4963262347	 0.137114
H	 1.6784047593	 0.275253213	 4.1912510629	 0.205833
H	 3.300700785	 1.0657658058	 0.069104647	 0.110109
H	 2.1300670506	 0.0757076972	-0.8658829478	 0.132592
H	 0.6169070466	 2.7729544656	-1.9952064058	 0.113415
H	 1.7233702064	 3.825233402	-1.0644870179	 0.105352
