17
gdb 88816	2.83597	1.40921	1.11237	1.9885	68.33	-0.2397	-0.0506	0.1891	1099.3732	0.134672	-458.930765	-458.922576	-458.921632	-458.963842	30.825	
O	-0.5634769338	 0.855340117	 1.517621933	-0.434345
C	-0.1673929424	 0.0831683067	 0.4314260015	 0.143175
C	-0.6770486553	-1.3084643835	 0.1742971775	-0.354804
C	-1.0622300335	-0.1728222562	-0.765124412	-0.104077
C	-2.4534157079	 0.3957861429	-0.7934012275	 0.025987
O	-3.3840527664	-0.2780694693	-1.6943913629	-0.292358
C	-4.3853601148	-0.4741665664	-0.6794498868	-0.172002
C	-3.4204641203	 0.0896522808	 0.3573494337	 0.32623
O	-3.3776560569	 0.1659874211	 1.552876756	-0.294494
H	-1.4590941797	 0.6081657335	 1.7936654985	 0.3024
H	 0.8772020706	 0.2788164294	 0.2114435963	 0.110472
H	 0.0074860435	-2.066594384	-0.1901089816	 0.118395
H	-1.4382422203	-1.6890929171	 0.8479623855	 0.12232
H	-0.5890031913	-0.1569709492	-1.743373389	 0.105111
H	-2.4236846755	 1.4720022532	-1.0221775613	 0.119081
H	-5.291153606	 0.1262361306	-0.8387678625	 0.13663
H	-4.6654503401	-1.5258272195	-0.5422296282	 0.142279
