18
gdb 115074	3.2566	1.33128	1.0457	1.1579	71.96	-0.238	0.0127	0.2507	1137.6141	0.14929	-439.076751	-439.068845	-439.067901	-439.109444	30.325	
O	 0.0956513805	 1.3831590049	-0.046971195	-0.422907
C	 0.0537623475	-0.027435672	-0.0843716208	-0.059894
C	-1.3602084253	-0.5647134821	 0.1130617709	 0.077238
O	-2.1415550637	 0.0200495783	-0.9596595094	-0.265328
C	-3.2856990759	-0.6073357929	-1.3382492735	 0.115979
N	-3.6227425836	-1.8111389505	-1.1526923838	-0.253691
C	-2.6939252233	-2.6692553304	-0.4812658616	 0.008154
C	-1.3316973302	-2.8959372634	-1.1073668718	-0.302269
C	-1.4592690093	-2.0719096484	 0.1483155443	-0.069436
H	-0.5412781305	 1.6924372154	-0.7010047082	 0.292081
H	 0.4559484134	-0.4260221482	-1.0287404592	 0.095237
H	 0.6901837569	-0.3891210814	 0.7300736585	 0.11119
H	-1.7623149111	-0.1572514029	 1.0508165491	 0.098325
H	-3.9293363239	 0.0781501048	-1.8853749368	 0.126238
H	-3.1669157815	-3.5180331163	-0.0004779754	 0.100533
H	-0.8889777655	-3.882384957	-1.0264086172	 0.120574
H	-1.1369637185	-2.388950482	-2.0463491552	 0.129949
H	-1.099444746	-2.5091757358	 1.0750749651	 0.098027
