15
gdb 56474	2.84643	1.1123	0.82579	1.561	68.12	-0.2717	-0.0442	0.2275	1304.5448	0.112943	-450.156041	-450.146793	-450.145849	-450.190909	32.053	
N	-0.4963105592	 1.6746513566	-0.2561304437	-0.492912
C	 0.0170140912	 0.3212607365	-0.1238687138	-0.185054
C	-1.0530065042	-0.6070522812	 0.2703918412	 0.281208
N	-1.8535964376	-1.3912304804	 0.5527520345	-0.318615
C	 0.782131847	-0.206751309	-1.3671633477	 0.37616
N	 1.2114759244	 0.6405532866	-2.2007783527	-0.503968
N	 0.9758346919	-1.5966418241	-1.3837584013	-0.353594
C	 1.7076182841	-2.2993494869	-2.3163737443	 0.168463
O	 2.3198977494	-1.8116345322	-3.237391757	-0.290008
H	 0.2481066874	 2.2244236435	-0.6816930938	 0.260769
H	-1.2453389111	 1.6755826279	-0.9445021922	 0.246633
H	 0.7462348714	 0.3150596253	 0.7008925375	 0.162018
H	 1.7493000884	 0.1908787877	-2.9424448874	 0.263882
H	 0.4731968724	-2.1443412039	-0.6980286849	 0.274907
H	 1.6739600146	-3.3868666461	-2.1211464844	 0.110112
