15
gdb 18907	3.51015	2.75349	2.23897	2.2949	62.9	-0.2135	0.0597	0.2732	670.3617	0.119911	-362.566331	-362.560501	-362.559557	-362.595831	24.085	
O	-0.14611956	 1.4479874441	-0.0188370871	-0.473929
C	-0.0250853191	 0.0808859142	 0.0102370143	 0.39368
C	-1.2205143813	-0.8924312685	 0.0927256902	-0.109722
C	-0.4207475211	-1.8545993277	-0.7023423629	-0.035274
C	 0.6924123493	-0.8548266922	-1.069093295	-0.153185
C	 1.8393571934	-1.1297455608	-0.0651870997	-0.251458
C	 0.7710904209	-0.843721574	 1.0016925947	-0.064303
N	-0.3392773973	-1.8721069111	 0.8009635836	-0.145907
H	 0.7252463665	 1.8418267951	-0.1419303558	 0.28851
H	-2.279766474	-0.7844831269	 0.2899744848	 0.099623
H	-0.7163306212	-2.7691886973	-1.2017861512	 0.095931
H	 0.8420430939	-0.5802082926	-2.1116898461	 0.075719
H	 2.3146455063	-2.1138940632	-0.0696131983	 0.10877
H	 2.6039680214	-0.3457976084	-0.0895928121	 0.093556
H	 0.9845420025	-0.6479727206	 2.0516604006	 0.077989
