15
gdb 2755	4.27381	2.3071	1.70756	1.2521	62.49	-0.2505	0.0383	0.2888	747.5672	0.123684	-308.46684	-308.45949	-308.458546	-308.498633	26.432	
C	-0.2674138273	 1.5108460512	-0.064820513	-0.399269
C	 0.0829155312	 0.0391886164	-0.0379488425	 0.157018
O	 1.2810071609	-0.2623793389	-0.7901619201	-0.286134
C	 1.9492939086	-0.8068801644	 0.358421484	-0.072767
C	 0.7110089431	-0.5658649908	 1.2658535878	-0.255866
C	 0.8830254691	 0.2912018705	 2.4186422978	 0.346913
C	 1.037550973	 1.0055874012	 3.3738382413	-0.474763
H	 0.5453221937	 2.1160808182	 0.3442819502	 0.130705
H	-0.4538477017	 1.8238619388	-1.0967759463	 0.125827
H	-1.171143831	 1.7012625571	 0.5233362999	 0.120744
H	-0.759593294	-0.561197026	-0.4060156558	 0.079653
H	 2.2247704042	-1.8592040525	 0.2208428018	 0.105135
H	 2.8394306108	-0.2309588649	 0.6346687146	 0.112422
H	 0.2203073345	-1.4964339468	 1.5625701258	 0.11035
H	 1.1713067948	 1.6332359311	 4.2198777245	 0.200031
