19
gdb 68454	2.38457	1.99653	1.32806	4.3202	74.81	-0.258	0.0186	0.2767	999.954	0.160828	-423.065919	-423.058196	-423.057252	-423.097779	30.603	
C	-0.0577179482	 1.5333118906	 0.0330557152	-0.471935
C	 0.0241104219	 0.0206820485	 0.01374988	 0.150871
C	 1.0490599682	-0.7022031998	-0.9199676696	-0.261929
C	 1.0697494879	-1.8250757462	 0.1468517964	-0.04199
C	 0.698444195	-0.7482079834	 1.1965476909	-0.261929
C	-0.1304223607	-2.7319104455	-0.0716746257	-0.073405
O	-1.3501415142	-1.9871126365	-0.2575798722	-0.242786
C	-1.3358783374	-0.6259839979	-0.2255919009	 0.427817
O	-2.3617207079	-0.023334395	-0.3823780489	-0.340818
H	 0.934023379	 1.9628552684	 0.2069088711	 0.104659
H	-0.4431447646	 1.9174688025	-0.915396482	 0.133478
H	-0.7313274153	 1.8797170525	 0.8216871829	 0.133491
H	 0.7355537559	-0.9560442521	-1.9365780653	 0.109261
H	 1.9916980999	-0.1500047111	-0.9543298432	 0.106411
H	 1.977050691	-2.4174860258	 0.2842776876	 0.076781
H	 1.5758052335	-0.2045726679	 1.5562260699	 0.106411
H	 0.0757863426	-1.0426162591	 2.0461589112	 0.109261
H	 0.0000338046	-3.3547389527	-0.964240121	 0.118175
H	-0.2902837812	-3.3927877795	 0.7881477634	 0.118175
