16
gdb 128268	4.8838	0.92691	0.80481	4.5331	68.78	-0.2376	0.0049	0.2425	1394.902	0.124542	-471.204208	-471.195192	-471.194248	-471.238816	31.258	
C	-0.0225712856	 1.3458510523	 0.1269921576	-0.334184
N	-0.1020373708	-0.1046958887	 0.1685020785	-0.395289
C	-1.264696806	-0.7767757865	 0.0759304132	 0.54763
N	-1.4634190087	-2.056517723	 0.2827667781	-0.438651
C	-2.803340222	-2.1699473532	 0.0075149989	 0.354818
C	-3.4868087453	-3.5023165929	 0.1015957249	-0.159088
O	-3.0953643722	-4.1960536004	 1.2680231273	-0.4135
N	-3.4142079776	-1.0704702865	-0.3349420991	-0.20191
O	-2.3588133663	-0.1050479883	-0.2958527676	-0.219517
H	 1.0199462305	 1.6341656496	-0.0183944181	 0.140001
H	-0.6065725039	 1.7215420524	-0.7155524851	 0.164396
H	-0.3969526123	 1.8165487139	 1.0448554383	 0.140033
H	 0.648750331	-0.6230038513	 0.5939051259	 0.270922
H	-4.5695202376	-3.3606226712	 0.1382576591	 0.137124
H	-3.2539100017	-4.0788210004	-0.8088865407	 0.109591
H	-2.1387731016	-4.0910405259	 1.3406474589	 0.297625
