14
gdb 1881	4.95313	2.2523	1.85288	4.9008	53.8	-0.2388	0.0378	0.2766	692.3753	0.114863	-361.755551	-361.749005	-361.748061	-361.786087	24.175	
O	-0.0656422764	 1.4446574892	 0.0162885124	-0.429195
C	-0.0013021869	 0.0270568302	 0.0170569229	 0.11525
C	 0.5860403714	-0.5237114429	 1.3448850481	-0.183462
N	-0.5866667912	-0.6744648145	 2.1785415969	-0.296025
C	-1.781323785	-0.6927171057	 1.5066515666	 0.411379
O	-2.8727435489	-0.8675928292	 1.9988492757	-0.378825
C	-1.444795832	-0.4817335438	 0.0263733504	-0.329692
H	 0.83263303	 1.7897769243	 0.0383811086	 0.284128
H	 0.5735662591	-0.3383126455	-0.8434976518	 0.073656
H	 1.1063192309	-1.4791442783	 1.1805700548	 0.104087
H	 1.3056100073	 0.1827320754	 1.774647722	 0.104138
H	-0.5536887936	-0.8729589292	 3.1653342586	 0.251737
H	-2.1289663387	 0.2283507337	-0.4389810513	 0.145635
H	-1.5410774558	-1.4420636736	-0.4906742739	 0.127189
