21
gdb 72485	2.5515	1.78838	1.49086	1.8344	76.69	-0.2522	0.0769	0.3291	996.7758	0.185236	-424.248882	-424.241377	-424.240433	-424.280142	31.441	
C	-0.1240700262	 1.4849620126	 0.0104390663	-0.455441
C	 0.0388638938	-0.0234950862	-0.0044314201	 0.401482
C	 0.8489666568	-0.5803021583	-1.2079761764	-0.261402
C	 1.4074610915	-1.9478924664	-0.7182255064	-0.249018
C	 0.8582824414	-2.0926953347	 0.7213390238	 0.106908
C	 0.78000494	-0.6372380125	 1.1985835125	-0.237504
O	-0.464940822	-2.6412568884	 0.7523613647	-0.266681
C	-1.3460563346	-1.9647557121	-0.1100929926	 0.015044
O	-1.2993558814	-0.5654455139	 0.01506517	-0.300261
H	 0.8513430544	 1.9762765144	 0.0751080342	 0.110487
H	-0.628208557	 1.8272603691	-0.8984736978	 0.121128
H	-0.7279864955	 1.7927360544	 0.8686312425	 0.125397
H	 0.2157558836	-0.6639954298	-2.0952985595	 0.110121
H	 1.6573030245	 0.1147171261	-1.4521593978	 0.099953
H	 1.1070505092	-2.7912881252	-1.3450967894	 0.11092
H	 2.5008282545	-1.9404631907	-0.6868291251	 0.10248
H	 1.4603830896	-2.7524217509	 1.3485131333	 0.076015
H	 1.7799123789	-0.202658262	 1.3124445521	 0.089372
H	 0.2236809982	-0.5271343665	 2.1314770325	 0.105909
H	-1.1490058095	-2.2578199292	-1.1558374646	 0.078907
H	-2.3578335101	-2.2739393097	 0.1637672376	 0.116182
