17
gdb 106611	2.66723	1.60087	1.30205	2.5376	67.93	-0.2324	-0.0259	0.2065	1010.8539	0.136028	-458.942428	-458.934557	-458.933613	-458.974896	30.096	
O	 0.626810643	 0.3145358764	-0.8001521373	-0.419993
C	-0.1504102752	 0.3215238828	 0.3844903019	-0.192992
C	-1.4417756769	-0.4196874804	 0.1631381504	 0.311908
C	-1.5934491481	-1.9204295287	-0.235348974	-0.29045
C	-3.0505531431	-1.4750376265	-0.6252076801	-0.199581
C	-3.5495121123	-0.9956013648	 0.7481369574	-0.084719
O	-2.3823731662	-0.2756595892	 1.2374823179	-0.323185
C	-2.3280085287	-0.1908810048	-1.0844737635	 0.407586
O	-2.2973726042	 0.5105349773	-2.0533768458	-0.336422
H	 0.1217791949	 0.7818714923	-1.4767119141	 0.301133
H	 0.4487838924	-0.1601557377	 1.1635544633	 0.123644
H	-0.3837093562	 1.3397738449	 0.7295117186	 0.111264
H	-0.9747380866	-2.2126340616	-1.0839812466	 0.137314
H	-1.5136619928	-2.6269831417	 0.5935925849	 0.119776
H	-3.7185608724	-2.0532044681	-1.2580544055	 0.101099
H	-4.4079456501	-0.3177890432	 0.6864382876	 0.119675
H	-3.7877574975	-1.8172129372	 1.4325199147	 0.113944
