20
gdb 40246	2.74208	1.59331	1.22698	1.0606	78.5	-0.2433	0.0756	0.3189	1073.6306	0.17362	-403.122274	-403.114712	-403.113768	-403.154124	30.591	
C	 0.1161320749	 1.4920631173	-0.0393336118	-0.299608
N	 1.2807938858	 0.5897888898	 0.0430068144	-0.35771
C	-0.0843511454	 0.0231859708	 0.0100715865	 0.347697
C	-0.5279493652	-0.6797507471	 1.2793905712	-0.274634
C	-0.0985578996	-2.1527937414	 1.2354742887	-0.210867
C	-0.75195175	-2.9179361249	 0.069106657	-0.226099
C	-0.8071953887	-2.1192846552	-1.2230838655	 0.036675
O	-1.8475321048	-1.1315495471	-1.3108857389	-0.258063
C	-0.4940884201	-0.6778570373	-1.2489252113	-0.020642
H	-0.0618733992	 2.0881308418	 0.8517742561	 0.119095
H	-0.0812771837	 2.0087038574	-0.9756649972	 0.112296
H	 1.7200569192	 0.5094835462	-0.8723980508	 0.227114
H	-0.0760074118	-0.174268049	 2.1372442229	 0.104783
H	-1.6170515111	-0.6018409809	 1.3745724609	 0.109921
H	 0.9924238534	-2.1852672132	 1.1276614548	 0.110151
H	-0.336565425	-2.6503134765	 2.1810709771	 0.094721
H	-0.2112276521	-3.8533781722	-0.1121488468	 0.099824
H	-1.7810078707	-3.1983080554	 0.3255047371	 0.116507
H	-0.6769979866	-2.685276901	-2.1459044754	 0.091391
H	-0.1231848895	-0.2289409921	-2.1741683891	 0.077449
