20
gdb 120586	3.11998	0.87483	0.85871	3.851	81.73	-0.2559	0.0353	0.2912	1479.9274	0.168724	-403.150878	-403.140754	-403.139809	-403.18638	36.254	
C	 0.068783278	 1.4151671361	-0.0997711051	-0.388508
C	 0.447511168	-0.0542459767	-0.0831308491	-0.046865
O	 0.2202941913	-0.5892350842	-1.3872918968	-0.242964
C	 0.4775082452	-1.9420056595	-1.4813426428	 0.10578
C	 0.6433403008	-2.5101682555	-2.8444185373	-0.352186
C	 1.8752313416	-2.4093298426	-1.9392804496	 0.116985
C	 2.9385562838	-1.3755477227	-2.2708185045	-0.466351
C	 2.353538992	-3.6336930542	-1.3549199112	 0.234838
N	 2.7334485233	-4.6140296709	-0.869934723	-0.348111
H	 0.6809047325	 1.9636226569	-0.8213043391	 0.129253
H	-0.9818246509	 1.5382660237	-0.3767595139	 0.132195
H	 0.221990732	 1.8554948939	 0.8896853809	 0.122733
H	 1.5022737305	-0.1874473448	 0.1974783751	 0.102842
H	-0.1597345743	-0.6075487996	 0.649572656	 0.101801
H	-0.0054806017	-2.5577440875	-0.7223944349	 0.110264
H	 0.2334766673	-3.4905706546	-3.0542685606	 0.140233
H	 0.6181328791	-1.8085863959	-3.6708049569	 0.137586
H	 2.4602089208	-0.4370998641	-2.5583194285	 0.139279
H	 3.5832237427	-1.1847370232	-1.4079846742	 0.135052
H	 3.570149018	-1.7154561846	-3.0967056244	 0.136145
