18
gdb 117104	2.37795	1.09182	0.82078	4.2332	75.11	-0.2558	0.0129	0.2687	1421.8955	0.145034	-439.081568	-439.071356	-439.070412	-439.118257	36.252	
C	 0.1128931114	 1.0130208972	 0.6858452323	-0.373075
C	-0.3223334594	 0.2115040715	-0.5425575106	-0.151472
N	-1.5312485277	-0.5705914615	-0.3129280348	-0.311985
C	-1.5095580381	-1.8869573653	-0.0283529168	 0.403167
O	-0.5062081214	-2.583100892	 0.010293894	-0.397457
C	-2.8902498034	-2.5704573047	 0.1991688496	-0.121739
O	-2.6707381895	-3.8552034508	 0.7122952755	-0.418254
C	-3.7631963808	-1.7700077771	 1.0606569007	 0.31192
C	-4.48242835	-1.0869586281	 1.7400493833	-0.466526
H	 1.0134777713	 1.5924430973	 0.4601455869	 0.124019
H	-0.6675680699	 1.7133538172	 1.0016581534	 0.117078
H	 0.3329811115	 0.3453533998	 1.5233185396	 0.140699
H	-0.499068048	 0.8788264124	-1.3933280138	 0.112994
H	 0.4546169317	-0.4993729882	-0.8306195495	 0.1508
H	-2.405004515	-0.0851870408	-0.1715061572	 0.25515
H	-3.3631135449	-2.6322511599	-0.7978372283	 0.120511
H	-1.7063514192	-3.9747252781	 0.6347442059	 0.298439
H	-5.1234079485	-0.502938049	 2.3537811398	 0.205732
