14
gdb 31429	3.15194	1.4343	0.99189	1.7661	68.53	-0.2526	-0.058	0.1947	1117.2899	0.102026	-470.040179	-470.032543	-470.031598	-470.072797	27.495	
C	-0.0365768486	 1.3752506133	-0.0216297571	-0.23531
O	 0.03177324	-0.0564605695	 0.0476910086	-0.22625
C	 0.6543141098	-0.576428884	 1.0908463926	 0.465987
N	 1.1753090857	 0.178961383	 2.0026814102	-0.372673
C	 1.8078738959	-0.4148546504	 3.0598431265	 0.435987
N	 2.3560318208	 0.1982066751	 4.0135668664	-0.522179
O	 1.8346835906	-1.8572241934	 3.0577680906	-0.211697
C	 1.2536229703	-2.4945257343	 2.0474706948	 0.15156
N	 0.6558869085	-1.9643665838	 1.0474085457	-0.31984
H	 0.9669699732	 1.8052994163	-0.0526581568	 0.152078
H	-0.5804811936	 1.5910054957	-0.9407533209	 0.140556
H	-0.5644917521	 1.7757218963	 0.8466665956	 0.15208
H	 2.7606747696	-0.4557177069	 4.6808661085	 0.231557
H	 1.3322927199	-3.5747589473	 2.1456118852	 0.158142
