19
gdb 42396	2.98865	1.10941	0.93992	2.4852	77.	-0.2404	0.0094	0.2498	1301.1871	0.159798	-419.17596	-419.167107	-419.166163	-419.210457	32.114	
O	-0.338892811	-0.1531307072	 0.6827379176	-0.354064
C	-0.0888110084	 1.0329283468	 0.6863745269	 0.377978
C	 1.3043156646	 1.5719397833	 0.9919498161	-0.307316
C	 2.2885148585	 1.0384986591	-0.0294114731	 0.023403
N	 2.2667342764	 1.7055294139	-1.3444584171	-0.316675
C	 3.4585550365	 1.8260444255	-0.4819119379	-0.24851
N	-1.054473147	 2.0086257007	 0.4578244432	-0.081193
C	-1.0179284583	 2.9403993525	-0.6602863108	-0.240604
C	-2.0639881627	 1.8667052905	-0.5641926497	-0.21916
H	 1.3113605602	 2.664249348	 0.9908080942	 0.112792
H	 1.5897180125	 1.2251492427	 1.9914994794	 0.1282
H	 2.3847907267	-0.0441459136	-0.024957468	 0.108339
H	 2.4408905823	 1.0289264305	-2.0823800369	 0.236295
H	 3.6284733705	 2.8208427079	-0.0790119894	 0.120391
H	 4.3628275672	 1.2938199931	-0.7644983628	 0.116541
H	-1.2805513435	 3.9684586897	-0.4247057728	 0.122177
H	-0.2152603407	 2.8153534528	-1.3825672645	 0.159804
H	-1.9776955195	 1.0031483088	-1.2178840377	 0.136603
H	-3.0770943644	 2.1292500649	-0.2736469865	 0.124998
