15
gdb 68696	2.0117	1.83619	1.14949	5.5801	72.71	-0.2685	-0.0469	0.2216	1063.1985	0.111783	-416.800413	-416.792217	-416.791273	-416.833292	30.168	
C	-0.0005451281	 1.5322551768	 0.0460328411	-0.476832
C	-0.0521191736	 0.0367006943	 0.0522872719	 0.258183
C	-1.3100816543	-0.8441272572	-0.0792104184	-0.42074
C	-0.6849473479	-1.7787185319	 0.9905680902	 0.369091
O	-1.0977808205	-2.6988708433	 1.626211655	-0.276633
C	 0.5809283694	-0.9340071212	 1.0710885988	 0.046414
N	 1.1179619576	-0.731439573	-0.2930759751	-0.360293
C	 1.4213077116	-0.7091748262	 2.2028379337	 0.227278
N	 2.065925264	-0.5247244303	 3.1450763262	-0.339635
H	 0.9906868129	 1.8797887912	 0.3452342206	 0.157483
H	-0.2066500705	 1.9122027589	-0.9606320742	 0.140899
H	-0.7474933088	 1.9510499202	 0.7263834147	 0.139018
H	-2.2285977331	-0.3996109144	 0.3160691201	 0.150201
H	-1.5078904118	-1.2497440078	-1.0755941279	 0.134146
H	 0.9295234031	-1.5301653159	-0.8973785567	 0.251419
