20
gdb 71402	3.89268	1.30245	1.24815	1.6396	83.42	-0.2281	0.082	0.31	1108.5398	0.171544	-365.944572	-365.936821	-365.935877	-365.976328	31.44	
C	-0.028957125	 1.4526298688	 0.0665779416	-0.496145
C	 0.0724261026	-0.0340601638	-0.0828940357	 0.332492
C	-0.5735433204	-0.9021006249	-1.1563618503	-0.28737
C	-0.3858115841	-2.0396091972	-0.1347229293	-0.115005
N	-0.3311886802	-0.979493675	 1.0196127614	-0.192881
C	 1.1184722053	-0.8609278745	 0.6070855502	-0.199129
C	 1.1201116339	-2.2310699602	-0.0057575061	 0.453671
C	 1.8199519536	-3.4372305041	 0.5325150119	-0.342148
C	 2.1034003944	-2.947013219	-0.877915002	-0.347014
H	 0.571123463	 1.9646726804	-0.6942818559	 0.120889
H	-1.0668422611	 1.7866425382	-0.0366651561	 0.123846
H	 0.3299205598	 1.7687989536	 1.0510232515	 0.128471
H	-1.6280068847	-0.6366376574	-1.2769491926	 0.103423
H	-0.0972005624	-1.0003319024	-2.1376730788	 0.094758
H	-1.077579418	-2.8776495425	-0.0640355651	 0.08
H	 1.8574997888	-0.4222693821	 1.2698895599	 0.087843
H	 2.5877747122	-3.2941167207	 1.2862491127	 0.115079
H	 1.2504636949	-4.3541702169	 0.6477691662	 0.114113
H	 1.7227911071	-3.5359950284	-1.7067085382	 0.112108
H	 3.0617788003	-2.4759459218	-1.0714316653	 0.112999
