19
gdb 36640	5.70544	0.79944	0.78177	1.1952	83.03	-0.2538	0.0343	0.2881	1498.7245	0.158389	-385.787379	-385.778954	-385.77801	-385.82138	31.884	
C	-0.0891799818	-1.1627678009	-0.1444760702	-0.416493
C	 0.0364580485	 0.0145110641	 0.0552265352	 0.278754
C	 0.1598022353	 1.4420907052	 0.3182453446	-0.219842
O	 1.3110115113	 1.9558252307	-0.3292836219	-0.270264
C	 1.4350908769	 3.3451823977	-0.1930648011	 0.212362
C	 2.0608516508	 3.9566782029	 1.1059976156	-0.091497
C	 3.4157261292	 3.3343133873	 0.6508508035	-0.217545
C	 2.7866109146	 3.9435993744	-0.6409437706	-0.088241
C	 2.4104275012	 5.1848526114	 0.2195914134	-0.224718
H	-0.1948077658	-2.2036227646	-0.3264657192	 0.200459
H	-0.7444231532	 1.9636334426	-0.0392778286	 0.119264
H	 0.2153808377	 1.6151594413	 1.4051405096	 0.123341
H	 0.5306088801	 3.8508283335	-0.5644329828	 0.060171
H	 1.6384063689	 3.9727828576	 2.1116577318	 0.069175
H	 4.3185021669	 3.8248255668	 1.0239032276	 0.087745
H	 3.494425289	 2.2484914302	 0.6873270005	 0.113121
H	 3.1979186586	 3.9355088929	-1.6505821292	 0.075683
H	 1.5782792182	 5.8023237612	-0.1319135162	 0.0902
H	 3.2463794935	 5.7973778658	 0.5629967079	 0.098325
