18
gdb 80529	2.20286	1.511	1.274	1.9529	74.26	-0.2406	-0.0308	0.2097	1086.4686	0.145877	-439.042968	-439.034038	-439.033094	-439.076451	33.038	
C	-0.1725944766	 1.4919859408	-0.0737627832	-0.330014
N	 0.0937322169	 0.0627834284	 0.090605347	-0.129744
C	 1.356439017	-0.5475016566	-0.1660707839	-0.091936
C	 2.5670630385	 0.2927188814	 0.2821493661	-0.273935
C	 2.0105448076	 0.288537687	 1.730927912	 0.045822
O	 1.8532775395	 1.5660067719	 2.3038181448	-0.425601
C	 0.7604392966	-0.4843082	 1.2581556215	 0.188803
C	 0.0908764864	-1.5510900665	 2.021124406	 0.07354
O	 0.3925996173	-1.8527107582	 3.1533407134	-0.276644
H	 0.6291561112	 2.1532689254	 0.2649807713	 0.141745
H	-0.3760096033	 1.6756521338	-1.1331365445	 0.124058
H	-1.0761896326	 1.7347091674	 0.4924507515	 0.128806
H	 1.3945595702	-1.4135243603	-0.8188448888	 0.110839
H	 3.5186659251	-0.2322852736	 0.1890808971	 0.117806
H	 2.6555963324	 1.2772626548	-0.1824492911	 0.11987
H	 2.6041844994	-0.3691832871	 2.3769676196	 0.101638
H	 1.4933379876	 1.4525738002	 3.1899976043	 0.292792
H	-0.7250821233	-2.0632682788	 1.4669778968	 0.082156
