18
gdb 20295	5.15357	1.52588	1.4551	1.6084	71.92	-0.2621	0.0959	0.358	920.3955	0.155353	-347.722087	-347.715401	-347.714457	-347.753406	26.159	
C	 1.3663412082	 0.4831804056	-0.1082390014	-0.176642
O	 0.4027639695	-0.1122052441	-0.97751108	-0.22533
C	-0.0521689324	 0.4134204844	 0.2735166448	 0.033298
C	-0.5429458412	-0.5092718964	 1.3586695673	 0.017575
C	-1.9411457805	-1.2102880134	 1.298720557	-0.062013
C	-1.3486013945	-2.2049783376	 0.2566781917	-0.219942
C	-0.2548593688	-2.0445509308	 1.3574057651	-0.055356
C	-1.4048747364	-2.1694651002	 2.4003181817	-0.219843
H	 2.0750578779	-0.209881504	 0.3431960173	 0.113663
H	 1.791931551	 1.4238620137	-0.4549118066	 0.112604
H	-0.6336327208	 1.3327261882	 0.1684249458	 0.09064
H	-0.35085613	-0.0178133972	 2.3221914892	 0.068003
H	-2.9163986561	-0.7209243126	 1.2700418617	 0.067122
H	-1.8337465783	-3.1842312747	 0.2098693979	 0.084141
H	-1.1123425682	-1.8235114824	-0.7337435895	 0.127981
H	 0.7217381744	-2.5297320553	 1.3959443676	 0.068432
H	-1.2270404404	-1.7396705701	 3.3905104722	 0.08549
H	-1.8894567934	-3.1469169229	 2.4669507781	 0.090176
