21
gdb 74429	2.6097	1.3946	1.07642	1.1992	85.24	-0.2234	0.0226	0.246	1209.4482	0.182741	-387.09603	-387.087242	-387.086297	-387.128964	34.744	
C	-0.1006518636	 1.5366818767	 0.0430231542	-0.479276
C	 0.0182484833	 0.0394943272	 0.0012038272	 0.333362
C	-0.03820215	-0.6591020625	-1.1361101754	-0.247243
C	 0.0240463021	-2.1445308305	-1.1712815028	 0.393497
O	-1.0787266154	-2.7781055049	-1.7789102817	-0.470384
C	 1.3546123564	-2.8620031966	-1.2513642352	-0.35178
C	 0.5595651086	-2.8347350784	 0.0444053312	-0.070839
C	 1.0133994854	-1.9623815351	 1.2122846997	-0.232508
C	 0.1841167074	-0.6713764502	 1.3321296221	-0.298325
H	 0.8028692441	 1.9959354869	 0.4651214903	 0.121762
H	-0.2681490737	 1.9600841799	-0.9511097946	 0.118373
H	-0.9328507423	 1.8435177776	 0.6902070004	 0.125023
H	-0.1667114708	-0.1457160109	-2.0887674908	 0.067293
H	-1.0304544626	-2.6033925485	-2.7255000726	 0.277213
H	 1.3738667968	-3.7939399621	-1.8066848635	 0.106715
H	 2.2622210463	-2.2685277061	-1.3031537443	 0.106374
H	 0.0518251926	-3.7595426765	 0.2968547017	 0.094348
H	 0.9585624221	-2.5295413398	 2.1473489478	 0.09779
H	 2.0668300708	-1.6881542116	 1.0809783899	 0.100098
H	 0.6537650371	 0.0037693431	 2.057536761	 0.094677
H	-0.8123008149	-0.8987692977	 1.7387198255	 0.113828
