19
gdb 82845	3.11178	1.72156	1.69008	1.7795	72.49	-0.2514	0.0825	0.3339	912.4725	0.162625	-423.030926	-423.024338	-423.023394	-423.06158	27.759	
C	-0.1431453936	 1.5985267863	 0.0701256057	-0.419778
C	 0.052051684	 0.0932053139	-0.0118696351	 0.018405
C	 0.7851180157	-0.577807368	-1.213640845	-0.113571
C	 2.1233869622	 0.1269746281	-1.5421949652	-0.240223
C	 2.9636618519	-0.3727409733	-0.3517973011	 0.172313
O	 2.3605470102	 0.0881134145	 0.8571401473	-0.276407
C	 1.0974922817	-0.5944651153	 0.8987489048	 0.051681
C	 1.3198142366	-1.6771020846	-0.2127992191	 0.075084
O	 2.7200432501	-1.7688418278	-0.3628551558	-0.242462
H	 0.8153036598	 2.1230063816	 0.0878847178	 0.129626
H	-0.726576563	 1.9715190178	-0.7785963273	 0.113003
H	-0.6802132851	 1.868364204	 0.9859588609	 0.115589
H	-0.9084581374	-0.4185324731	 0.131138202	 0.072167
H	 0.2021010143	-0.8684447618	-2.0873175843	 0.068543
H	 2.5510950813	-0.2402947172	-2.4790871812	 0.108469
H	 2.0531605973	 1.2148962403	-1.5882853945	 0.108999
H	 4.0309735888	-0.1575086317	-0.3358857285	 0.091957
H	 0.864037332	-0.8426129453	 1.9351831706	 0.075999
H	 0.8464640031	-2.6522586182	-0.1450602119	 0.090605
