13
gdb 2520	3.33923	2.13332	1.38	2.5991	56.74	-0.2526	-0.0323	0.2204	828.3881	0.098546	-344.416821	-344.408825	-344.407881	-344.449447	27.275	
O	 0.1297898499	 1.4041518585	-0.2090803088	-0.403569
C	 0.0703366292	 0.0131914044	 0.0144297171	-0.075374
C	-1.3893791303	-0.5124642549	 0.0457466402	-0.274994
C	-2.1117726344	-0.0707566008	-1.2340357815	 0.185395
O	-3.0583447231	 0.6650918708	-1.2493020512	-0.238055
C	-1.4163614029	-1.9644450462	 0.1509073861	 0.294489
C	-1.4148493832	-3.1657947941	 0.1940825109	-0.443408
H	-0.2907764037	 1.8542788397	 0.5311573184	 0.29285
H	 0.6032731199	-0.4539976166	-0.8193799177	 0.131023
H	 0.5755295224	-0.2909083731	 0.9414319766	 0.114392
H	-1.9250346403	-0.0551848316	 0.8870339284	 0.118218
H	-1.6747659336	-0.4970095541	-2.1635250321	 0.092123
H	-1.4263027497	-4.2265500121	 0.2487173136	 0.206909
