17
gdb 32696	5.29356	0.8705	0.79637	3.7866	74.07	-0.1816	0.0436	0.2252	1440.2461	0.134922	-455.156767	-455.147463	-455.146519	-455.19184	33.435	
C	 0.2215089634	 1.4420173016	 0.1169423412	-0.359228
C	-0.0489168808	-0.046304085	-0.131554751	-0.134948
N	 0.6810323557	-0.5406977504	-1.2905445946	-0.390379
C	 1.7965803038	-1.1028186778	-1.1124354843	 0.526161
N	 2.6159298373	-1.6215583707	-2.1056339705	-0.415726
C	 3.710381533	-2.2338656843	-1.5195131221	 0.378617
O	 4.5991305658	-2.8337569549	-2.3344875829	-0.422223
C	 3.6223857086	-2.0536795635	-0.1947924234	-0.212246
O	 2.4497488112	-1.3366434936	 0.0790434861	-0.226284
H	 1.2723674395	 1.6073602846	 0.3751484318	 0.114874
H	-0.0030700791	 2.0271720328	-0.7798763214	 0.119024
H	-0.3962258101	 1.8173832531	 0.940009695	 0.102356
H	 0.1835139406	-0.6164250386	 0.7791148513	 0.096395
H	-1.1179532643	-0.1848854224	-0.3321224124	 0.093285
H	 2.3175848532	-1.7327712925	-3.0583877668	 0.278752
H	 5.3007361597	-3.2243714492	-1.8032044561	 0.314913
H	 4.2535029327	-2.3064648092	 0.6364986401	 0.136656
