22
gdb 112842	2.69747	1.30073	1.02149	2.5797	82.56	-0.2358	0.0746	0.3104	1276.2645	0.194596	-404.340218	-404.33114	-404.330195	-404.37398	34.723	
C	 0.1487514396	 1.497096464	 0.1572684187	-0.381353
C	 0.0788609063	-0.0284067432	 0.0509362237	-0.185573
C	 0.6517967896	-0.5641268153	-1.2571786757	 0.14832
O	 2.0232423057	-0.1718208488	-1.3574286084	-0.289532
C	 2.7816669059	-1.1465796472	-2.0777345548	 0.148187
C	 4.2012727033	-1.1516024007	-1.5322637801	-0.401807
C	 2.0046238889	-2.4426736457	-1.9102819152	-0.072046
N	 1.6613739558	-2.7122885623	-0.497627377	-0.331873
C	 0.6712315915	-2.0772808382	-1.3953019468	-0.08147
H	 1.1837830739	 1.8391980268	 0.080431645	 0.136009
H	-0.424075709	 1.9784819633	-0.6438418479	 0.106176
H	-0.2583245333	 1.8438768317	 1.1120076665	 0.10627
H	 0.6317282334	-0.4967820674	 0.8715910893	 0.118603
H	-0.9639654765	-0.3629641722	 0.1289213857	 0.0844
H	 0.0802125837	-0.1525996149	-2.109277616	 0.058361
H	 2.791346682	-0.8952078848	-3.1528930996	 0.062526
H	 4.1933079311	-1.4786460649	-0.4898820206	 0.138938
H	 4.835112881	-1.8276917737	-2.1154794492	 0.105291
H	 4.631120863	-0.147658578	-1.5850567415	 0.122459
H	 2.1670228638	-3.265781728	-2.5982135732	 0.088719
H	 1.4302381323	-3.6976334283	-0.3959239141	 0.230861
H	-0.2339943022	-2.6088049721	-1.6693773688	 0.088536
