17
gdb 47371	2.27241	1.53568	1.2224	1.5937	73.38	-0.2442	-0.0219	0.2223	1075.4912	0.135541	-421.812549	-421.804319	-421.803375	-421.845584	31.223	
O	-0.0433817684	-0.0745397719	 0.1011983796	-0.303289
C	-0.0447822947	 1.1312427154	 0.0430575003	 0.386193
C	-1.312610667	 1.9706010099	 0.0734358982	-0.301064
C	-1.2704284821	 3.0643902736	-1.0085392581	-0.095736
O	-0.0764884151	 3.8299986107	-0.9261418743	-0.240392
C	 1.1019485841	 3.0615882233	-1.1357063293	-0.084435
C	 1.2314921982	 1.9571941378	-0.0533855055	-0.311221
C	 1.1723314066	 2.4975278764	-2.4901823577	 0.343245
C	 1.2305025714	 2.0271889361	-3.5946708142	-0.471496
H	-2.1827159798	 1.3200657207	-0.0441410796	 0.123462
H	-1.3706415365	 2.4551296459	 1.0569819039	 0.126755
H	-1.3643485169	 2.6120929546	-2.0053275459	 0.117821
H	-2.0901280812	 3.7745759047	-0.8769772705	 0.118942
H	 1.9238306532	 3.774812774	-1.0137666107	 0.123227
H	 1.3840209546	 2.460899753	 0.9091759786	 0.127109
H	 2.0816929558	 1.3012580013	-0.2485444301	 0.132909
H	 1.2873551278	 1.6158108446	-4.5726102847	 0.207969
