18
gdb 75724	2.18742	1.78059	1.28306	4.74	73.	-0.2347	0.0131	0.2478	1052.0823	0.146682	-439.08099	-439.072218	-439.071274	-439.114362	31.938	
C	 0.0740344488	 1.3727623107	 0.0406019133	-0.357399
N	-0.1255727573	-0.0558184454	 0.0284570517	-0.108105
C	-0.0442262918	-0.9528287607	-1.0204716621	 0.415672
O	 0.014821322	-0.7910177424	-2.2101396177	-0.373872
C	 0.0189875207	-2.136832228	-0.0195961291	-0.110815
O	 1.3848663262	-2.4556830962	 0.3265607306	-0.284399
C	 1.3866682109	-1.515709361	 1.4242316063	-0.119269
C	-0.0602152304	-1.0575654765	 1.1007310289	 0.287035
C	-1.092620072	-0.9488768809	 2.196112796	-0.487124
H	 1.0334667323	 1.6466213674	 0.4984846088	 0.128147
H	 0.0741752641	 1.7117954847	-0.9981098761	 0.166171
H	-0.7291872048	 1.8862814261	 0.5801534382	 0.131634
H	-0.6241509352	-3.0093698838	-0.1398184389	 0.101359
H	 1.4883755837	-2.0360034459	 2.3843655355	 0.107885
H	 2.1720203868	-0.7572034375	 1.3313193992	 0.108126
H	-0.9026636965	-0.0753420597	 2.8307634943	 0.128525
H	-2.0968963301	-0.8472373422	 1.774277333	 0.132984
H	-1.0718757574	-1.8345836487	 2.8374288382	 0.133446
