21
gdb 61603	2.94683	0.87152	0.79965	3.1048	83.8	-0.2361	0.0338	0.2699	1522.4654	0.181513	-383.256312	-383.246261	-383.245316	-383.292084	36.366	
C	 0.0590463138	 1.3701187647	-0.4170465267	-0.39455
C	-0.0340420193	-0.05445547	 0.1643900771	-0.135525
C	 0.6536758545	-0.2042910318	 1.5487672997	-0.227266
C	 2.1525786465	 0.0145536709	 1.5078707639	 0.008686
C	 3.0444995903	-0.6488069277	 2.5031459452	-0.263956
N	 3.1199079476	-1.0075209741	 1.0932452359	-0.077622
C	 2.6783762705	-2.3414382337	 0.7132428698	-0.319784
C	-1.4384282632	-0.4658655246	 0.2681518699	 0.264333
N	-2.5451736764	-0.7856126491	 0.363671962	-0.323053
H	 1.1035533883	 1.6484514021	-0.5737097694	 0.135162
H	-0.4578366575	 1.4316387154	-1.3775937715	 0.139733
H	-0.3971112427	 2.0957896601	 0.2626810799	 0.136334
H	 0.4472882189	-0.7485128172	-0.5356231927	 0.132539
H	 0.2103906476	 0.5249379404	 2.2379540987	 0.121778
H	 0.4184525027	-1.1905135239	 1.9566083331	 0.121787
H	 2.4449432701	 1.0095929662	 1.1757166553	 0.095626
H	 3.9050126556	-0.1290082819	 2.9166817216	 0.117908
H	 2.5753810788	-1.3592817059	 3.1844109674	 0.108147
H	 1.8317943561	-2.736634597	 1.2959557982	 0.105117
H	 2.4022493616	-2.3486577048	-0.3465847931	 0.123664
H	 3.5183997263	-3.0311356681	 0.8422676656	 0.130939
