24
gdb 101345	3.19591	0.79025	0.73063	1.5863	86.96	-0.2217	0.0738	0.2954	1690.4197	0.215238	-405.516073	-405.50503	-405.504086	-405.55259	39.993	
C	 0.6824372398	 1.6987217576	 0.0028126451	-0.374874
C	 0.737886738	 0.1968458976	-0.2700259298	-0.117198
N	 0.9351306282	-0.5293613136	 0.9806027847	-0.089448
C	-0.255304189	-0.9450267819	 1.7141914298	-0.270184
C	 0.6345100491	-1.9593275089	 1.0757929048	 0.014264
C	 0.1670713887	-2.8179866065	-0.0883500253	 0.007594
C	 1.3498547939	-3.3035268319	-0.939062948	-0.399804
C	-0.6467488944	-3.99871068	 0.4499830162	-0.078581
O	-1.1426440492	-4.7404506199	-0.6556704969	-0.424034
H	 1.5937175182	 2.0301928974	 0.5081569739	 0.125799
H	 0.5757950928	 2.2579134027	-0.9319449406	 0.109212
H	-0.168789304	 1.9473451443	 0.645222116	 0.116764
H	-0.175167548	-0.108861838	-0.8075548487	 0.08467
H	 1.586642877	-0.028713147	-0.9264869986	 0.104087
H	-0.2462589782	-0.7810146652	 2.7889592602	 0.109741
H	-1.2237044001	-0.7776524941	 1.24037125	 0.102001
H	 1.3407875355	-2.4794557196	 1.7256770435	 0.083031
H	-0.5117734192	-2.2383232884	-0.7240827755	 0.082833
H	 1.0018071132	-3.9691052844	-1.7316895339	 0.133516
H	 1.8832078012	-2.4644567583	-1.394815047	 0.115241
H	 2.0677063705	-3.8570177515	-0.3214524337	 0.108457
H	-0.0046282925	-4.6247800342	 1.0923180046	 0.082605
H	-1.4704035826	-3.6214606361	 1.075310317	 0.087327
H	-1.5996464991	-5.5158020902	-0.3179266378	 0.286979
