19
gdb 55912	4.02888	1.02266	0.90729	0.9551	77.24	-0.2298	0.0358	0.2656	1328.7065	0.159277	-419.168039	-419.159323	-419.158379	-419.202255	32.273	
C	 0.1228961607	 1.4241964133	-0.1083648327	-0.461342
C	-0.0919981197	-0.0622449003	 0.0194296441	 0.395911
N	-0.5968938173	-0.7112976147	 0.9887990328	-0.526816
O	 0.3408242352	-0.6889260883	-1.0937301132	-0.24696
C	 0.2084898742	-2.1040902065	-1.1221841577	 0.188319
C	-1.1945776946	-2.7322515988	-1.42753477	-0.245844
C	-0.5463453975	-3.4295179347	-2.6287878799	-0.050776
N	-0.0944885623	-2.3367846578	-3.5182721178	-0.323695
C	 0.7626128211	-2.7542502436	-2.3798792643	-0.107101
H	 1.1841985156	 1.6391852964	-0.2660817302	 0.144939
H	-0.4157256287	 1.806156682	-0.9808431673	 0.150281
H	-0.2209189081	 1.9489570558	 0.784382935	 0.123401
H	-0.859925268	-0.0789710169	 1.7410825259	 0.217154
H	 0.630779406	-2.5280574548	-0.2088378725	 0.102839
H	-1.5326639458	-3.3917562101	-0.6280756762	 0.113184
H	-1.9798953812	-2.0212668654	-1.6894478232	 0.112596
H	-0.7396646869	-4.4232740946	-3.0117288104	 0.095101
H	 0.3082063337	-2.7699013507	-4.3495517302	 0.22765
H	 1.7761189736	-3.0974490603	-2.5469376223	 0.091158
