17
gdb 108782	2.69191	1.22508	0.86444	5.0629	73.63	-0.2297	-0.0493	0.1804	1285.1171	0.135326	-458.975564	-458.966921	-458.965977	-459.009321	31.293	
O	 0.0532314207	 1.4145753832	-0.0229050219	-0.404648
C	-0.0047892695	 0.0082909532	 0.045045202	-0.153146
C	-1.4302846234	-0.4589594154	 0.0621856949	 0.245067
C	-2.4805849021	 0.3685029024	 0.1613024792	-0.248182
C	-3.8535819883	-0.15038014	 0.074860458	 0.356591
O	-4.8393401628	 0.559067761	 0.0728842925	-0.324986
C	-3.9729966095	-1.6661871758	-0.0899623836	-0.192859
O	-2.8787565541	-2.3736526748	 0.4632176746	-0.237445
C	-1.6383816669	-1.9499381017	-0.0494399047	-0.162142
H	 0.9708117761	 1.6858129963	 0.0681933061	 0.296782
H	 0.5112316497	-0.4646792868	-0.8105339688	 0.106756
H	 0.4933493498	-0.3785143068	 0.9521295165	 0.113174
H	-2.3532652195	 1.4406499712	 0.2511651084	 0.127542
H	-4.875363075	-2.0127071642	 0.4174331846	 0.139072
H	-4.0835026122	-1.8845834547	-1.168082025	 0.110034
H	-1.5224961644	-2.253453557	-1.108358043	 0.107333
H	-0.8705181485	-2.4879054201	 0.5189101803	 0.121056
