14
gdb 123694	4.06815	1.58427	1.23677	3.753	66.38	-0.2613	-0.0188	0.2425	938.7596	0.103388	-436.656087	-436.65008	-436.649136	-436.686452	24.081	
C	-0.0523311471	 1.5469919018	-0.0040369904	-0.399191
C	 1.4463019437	 1.9002977925	-0.0327734276	 0.061352
O	 2.1661364914	 1.4669752554	 1.1185233113	-0.240622
C	 2.2837488751	 0.6746834933	-0.0799748034	-0.129546
C	 1.3183449912	-0.4497155476	-0.0584070715	 0.418925
N	 1.399169817	-1.74966966	-0.0874065661	-0.256025
O	 0.0643184909	-2.1693278667	-0.0030713603	-0.175868
C	-0.7504788459	-1.0897454774	 0.0741197816	-0.074133
C	-0.013770381	 0.0427644903	 0.0340949727	 0.146091
H	-0.537961229	 1.9982830725	 0.8672243443	 0.139768
H	-0.5543211115	 1.9319288733	-0.8987963235	 0.127389
H	 1.7726351126	 2.846112168	-0.4572542226	 0.108118
H	 3.2704183107	 0.6139455794	-0.5245846796	 0.11879
H	-1.803229048	-1.3159986047	 0.1389482452	 0.154951
