19
gdb 121662	3.72274	0.68151	0.60653	2.986	72.95	-0.2509	-0.0262	0.2246	1802.8301	0.15633	-460.147129	-460.137029	-460.136084	-460.183847	34.782	
O	-0.1448197388	 1.3255349388	-0.4734485868	-0.419282
C	-0.399231344	-0.0410966042	-0.7548169667	-0.07908
C	-1.3195955896	-0.5764562427	 0.3336237161	-0.165784
C	-1.6712138091	-2.0473532092	 0.1248727046	-0.316559
C	-2.5451221579	-2.6146858643	 1.2287838123	 0.350008
O	-2.8420720266	-1.9999564	 2.2279748238	-0.304861
C	-3.0373782666	-4.0301901745	 1.0654274163	-0.004334
C	-3.796815491	-4.4478138099	-0.1313085579	-0.176912
O	-2.4439628556	-4.8391954748	 0.047804013	-0.217787
H	 0.4498948556	 1.6671438537	-1.147310212	 0.285886
H	-0.8756882669	-0.1630378295	-1.7425078957	 0.080838
H	 0.5353894463	-0.6264580777	-0.7742027777	 0.084171
H	-0.8401249511	-0.4433123117	 1.3080274396	 0.125174
H	-2.231901432	 0.0285070444	 0.3589402424	 0.117949
H	-2.1656539733	-2.2094595272	-0.8424289822	 0.121902
H	-0.7707518323	-2.6760290228	 0.076919506	 0.140041
H	-3.2500317196	-4.5311950619	 2.0085257152	 0.120465
H	-4.5374625415	-5.238751765	-0.0271216948	 0.133101
H	-3.9814822661	-3.7352088314	-0.9333325957	 0.125066
