25
gdb 116459	1.91773	1.5699	1.04495	0.9836	88.77	-0.2459	0.0763	0.3222	1301.9611	0.230171	-389.513372	-389.503651	-389.502707	-389.547642	37.399	
C	 0.0650150162	 1.4253021748	 0.0597966546	-0.233998
O	-0.0854526483	 0.0314715402	-0.0582095825	-0.246887
C	 0.6251065687	-0.5603166483	-1.1440152204	 0.136038
C	 2.1201406489	-0.7239423024	-0.8215214313	-0.224685
C	 2.3395215772	-1.6888182564	 0.3522667656	-0.178029
C	 1.6811762105	-3.0485809908	 0.0816358172	-0.201214
C	 0.1920008188	-2.8906235494	-0.2559575878	-0.181033
C	-0.0313359105	-1.9234446953	-1.4331463884	 0.026079
C	-1.5135903857	-1.7788019426	-1.7895734423	-0.408768
H	 1.0917068951	 1.7245907216	 0.3177165609	 0.105566
H	-0.2184326549	 1.9438669198	-0.8698908969	 0.102123
H	-0.6005427256	 1.7552987538	 0.8619710635	 0.124084
H	 0.5112635332	 0.0843109318	-2.0322356089	 0.049437
H	 2.6231856251	-1.104703753	-1.7205032579	 0.091191
H	 2.5706556616	 0.2520361676	-0.6093661501	 0.088833
H	 3.4113529516	-1.8121078821	 0.5431138586	 0.08438
H	 1.9029692953	-1.2491803985	 1.2569173521	 0.104925
H	 2.1944613439	-3.5389250841	-0.7579408792	 0.08636
H	 1.8045359771	-3.7088717079	 0.9477078205	 0.087225
H	-0.2492029783	-3.8654509132	-0.4952307611	 0.08251
H	-0.3445723627	-2.507171344	 0.6205210474	 0.107709
H	 0.4963633871	-2.3313864925	-2.3078471497	 0.063921
H	-2.0685571903	-1.3389550177	-0.9568600695	 0.128729
H	-1.6507267516	-1.1314307808	-2.6631582574	 0.101256
H	-1.9561576225	-2.7528525706	-2.0228060071	 0.104248
