18
gdb 68382	2.85755	1.55328	1.20053	1.7669	71.14	-0.2174	-0.0262	0.1911	1038.8303	0.148046	-439.076034	-439.068321	-439.067377	-439.108141	30.775	
O	-0.0893217955	 1.4407237704	-0.0755990995	-0.482803
C	 0.0190495439	 0.0505058131	 0.0669501973	 0.393541
C	 0.0886031689	-0.6096044963	 1.4716013157	-0.239715
N	-0.7767641046	-1.7221693879	 0.9394221421	-0.11207
C	-1.2907171858	-0.7442746936	-0.0856020448	-0.213753
C	 0.0736024732	-2.7095527037	 0.2709545118	-0.285085
C	 1.1223641901	-2.1118201543	-0.6893858451	 0.382909
O	 1.9117985051	-2.7962387851	-1.2904344543	-0.309125
C	 1.0906570544	-0.5801002366	-0.8265448316	-0.387848
H	 0.7948402715	 1.8230106963	-0.097093914	 0.278347
H	 1.0614363251	-0.9197201421	 1.8684429749	 0.099284
H	-0.4566267973	-0.0386816401	 2.2279922952	 0.117068
H	-2.1535712479	-0.2030707993	 0.3114703496	 0.12079
H	-1.5382078756	-1.1689421605	-1.0639585485	 0.104692
H	 0.6045315867	-3.3092836988	 1.0193105915	 0.137405
H	-0.5497808315	-3.4073028353	-0.3003839863	 0.138072
H	 0.9113397444	-0.331420138	-1.8796160344	 0.137512
H	 2.091630005	-0.2034260283	-0.5748337096	 0.120779
