21
gdb 75448	2.15938	1.51594	1.22253	0.5558	90.4	-0.2333	0.0242	0.2575	1165.9618	0.180907	-349.946838	-349.937184	-349.93624	-349.980697	36.961	
C	-0.5095768976	 1.4115471252	-0.0038706617	-0.500796
C	-0.1306205336	-0.0347781557	-0.0450758961	 0.317543
C	 0.2304094851	-0.7488173617	-1.1114242137	-0.176111
C	 0.5752009959	-2.1786102934	-0.7819879584	-0.264821
C	 0.0314491438	-2.337076651	 0.6566037597	-0.246663
C	-0.0553282578	-0.8860002735	 1.2347033673	 0.026821
C	 1.2182488175	-0.5248094896	 2.0417142268	-0.426764
C	-1.2320705267	-0.713851127	 2.0879327226	 0.309635
C	-2.1947151056	-0.5707934115	 2.7951646007	-0.485112
H	 0.1808147999	 1.9919017672	 0.6211847009	 0.125217
H	-0.5057308869	 1.8502014663	-1.0051439838	 0.120575
H	-1.5070385696	 1.5419833212	 0.4308396954	 0.139159
H	 0.3094393785	-0.3441177171	-2.1155387348	 0.085913
H	 0.1236763942	-2.8988770639	-1.4734922296	 0.103535
H	 1.6606693751	-2.3446843982	-0.8351873743	 0.10462
H	-0.9742857643	-2.7628093628	 0.6230081844	 0.114702
H	 0.6440364766	-2.9870800413	 1.2869235748	 0.099365
H	 2.1103108045	-0.6917492639	 1.4301169122	 0.116933
H	 1.2052426734	 0.523107045	 2.353498055	 0.122818
H	 1.2877962711	-1.1426068382	 2.9416534748	 0.123111
H	-3.0470215235	-0.4488131161	 3.4165386678	 0.190322
