12
gdb 25420	5.25877	1.06757	0.88741	3.6759	67.55	-0.2799	-0.0985	0.1814	1173.0284	0.077423	-472.681702	-472.67451	-472.673566	-472.714055	25.628	
O	-0.0939861512	-0.0183711968	 0.0010016083	-0.264348
C	-0.0321081615	 1.1888389326	 0.0098442253	 0.094425
C	 1.2271836325	 1.9440704163	 0.0017370739	 0.027525
C	 1.2535590299	 3.304197813	 0.0121311202	 0.069928
O	 2.3744546111	 3.9900445039	 0.0049753583	-0.201249
C	 3.6663643358	 3.3062942626	-0.0148390983	 0.462942
O	 4.6153598518	 4.0191004609	-0.0198751743	-0.295301
N	 3.6457681754	 1.9284569956	-0.025393389	-0.31185
C	 2.5100686143	 1.3025753657	-0.0176048325	 0.003746
H	-0.9491777174	 1.8184323135	 0.0249602747	 0.083238
H	 0.3645765272	 3.9321111936	 0.0269665837	 0.164492
H	 2.5360157621	 0.2138051692	-0.0264604702	 0.166451
