15
gdb 25812	4.07305	1.10694	0.87518	12.916	70.79	-0.1933	-0.04	0.1534	1252.5846	0.113187	-453.998882	-453.990605	-453.989661	-454.032996	29.197	
C	-0.0068151279	 1.4792292492	 0.1411712387	-0.500433
C	-0.012446987	-0.0019240392	 0.0099761858	 0.391571
N	-0.0155937068	-0.7043197092	-1.140000581	-0.281121
H	-0.0387629097	-0.2841942938	-2.0565336021	 0.288219
C	 0.0167553663	-2.0679139713	-0.8693307412	-0.187376
C	 0.0386208848	-2.1930653639	 0.487096304	 0.171565
N	 0.0197250796	-0.9081332823	 0.9810201034	-0.252234
C	 0.0698256846	-3.3006711851	 1.5776196805	 0.338647
O	 0.070427831	-2.7674731733	 2.7121570452	-0.510164
O	 0.0880692367	-4.4569031879	 1.1652024407	-0.443164
H	 1.0128923311	 1.8637308062	 0.2545640105	 0.174841
H	-0.4519885165	 1.9487281407	-0.7392807754	 0.155001
H	-0.5807319635	 1.7841271087	 1.0192739098	 0.17572
H	 0.0142562668	-2.8098383579	-1.6476248986	 0.181837
H	 0.0302105504	-0.8775291408	 2.0092033396	 0.29709
