17
gdb 43397	2.52878	1.86504	1.21412	3.1515	75.85	-0.235	-0.055	0.18	1018.013	0.136364	-421.83699	-421.82942	-421.828476	-421.869007	29.539	
O	 0.0171451745	 0.0229123527	-0.2747256697	-0.344878
C	 0.0037778177	 1.2124335399	-0.0174129153	 0.320613
C	-1.24699819	 1.9668359835	 0.2004512891	-0.144826
C	-1.2240945875	 3.3019770651	 0.2699094686	-0.076217
C	 0.0700820592	 4.0630883547	 0.2656431415	-0.145684
O	 1.1656176719	 3.2668797621	 0.671830341	-0.291561
C	 1.2556422702	 2.0411569673	-0.0017048483	 0.307632
C	 2.581197333	 1.3527408701	 0.0804509833	-0.310179
C	 2.1559358707	 1.9520238954	-1.2321904709	-0.314259
H	-2.1659645924	 1.3903430669	 0.2060790085	 0.115967
H	-2.1425042174	 3.8825925098	 0.3145085991	 0.116857
H	 0.2397870744	 4.4974552305	-0.7373957983	 0.112442
H	 0.0255420869	 4.8992828866	 0.9712916431	 0.127362
H	 3.3456832285	 1.8702190664	 0.6478465193	 0.127845
H	 2.5507224002	 0.2744206837	 0.1814357073	 0.142478
H	 1.8485655538	 1.2846561099	-2.0289713885	 0.133732
H	 2.626722426	 2.8788304955	-1.5398465399	 0.122675
