23
gdb 122028	5.67952	0.49342	0.46901	1.0156	80.2	-0.2494	0.0685	0.3178	2346.1707	0.202588	-462.543091	-462.531358	-462.530414	-462.581247	40.387	
C	-0.1177101937	 1.3682793263	-0.0057002041	-0.226718
O	-0.0041817518	-0.0331310204	-0.0184698512	-0.23237
C	 0.6544324646	-0.5397970114	 1.1231313745	-0.05283
C	 0.7079511904	-2.0579294839	 1.011927544	-0.219939
C	 1.3815551406	-2.7229310823	 2.2164121808	 0.109076
O	 0.7306470309	-2.3707271504	 3.4412198893	-0.431424
C	 1.4828502165	-4.2421143163	 2.051975645	-0.187596
C	 2.2117044166	-4.9212849377	 3.204481357	-0.076874
O	 2.2199763505	-6.3184982923	 2.9470845594	-0.423475
H	 0.8684857514	 1.8598995334	 0.0129572435	 0.101526
H	-0.6409104454	 1.6643625991	-0.9184836076	 0.124465
H	-0.6914800976	 1.7258284835	 0.8645611157	 0.101817
H	 1.6762172495	-0.1257414198	 1.192930784	 0.08103
H	 0.1264581593	-0.2445884484	 2.0429336887	 0.095805
H	-0.3153939199	-2.4427596645	 0.9038034411	 0.096442
H	 1.2417414658	-2.3310458689	 0.094452501	 0.108103
H	 2.3933512029	-2.3098601224	 2.3298397441	 0.087141
H	-0.170489965	-2.7115932154	 3.3969038381	 0.27779
H	 0.4749389703	-4.6716934984	 1.9680953936	 0.095709
H	 2.0000717016	-4.4781857786	 1.1146735464	 0.107688
H	 3.2375007328	-4.5229599316	 3.2776306834	 0.082509
H	 1.7035229703	-4.6852709709	 4.1496443425	 0.096987
H	 2.6348251695	-6.7574589688	 3.6951574807	 0.285138
