18
gdb 101538	3.17664	0.87003	0.7617	4.6141	74.17	-0.285	-0.0857	0.1993	1515.5126	0.144735	-439.107285	-439.097017	-439.096072	-439.143617	35.596	
C	-0.1068009553	 1.4172276775	-0.6876119728	-0.385187
C	-0.0985270778	 0.0751549577	 0.0484558599	-0.197504
C	-1.4735992821	-0.5989183335	 0.0687442987	 0.143404
O	-1.9811517689	-0.8404389506	-1.2367699374	-0.426297
C	-1.4599080007	-1.9012720319	 0.9072194432	-0.342214
C	-2.8196843852	-2.563232103	 0.869517596	 0.326839
O	-3.7044595868	-2.3509006364	 1.6586116662	-0.266975
C	-3.0271485118	-3.5156484037	-0.2442208311	 0.223084
N	-3.1566282757	-4.2860032981	-1.0969738388	-0.312147
H	 0.8980925723	 1.8464383159	-0.7307250559	 0.11806
H	-0.4753621203	 1.2967673224	-1.7094418031	 0.132736
H	-0.7584109576	 2.1377471368	-0.1821329027	 0.122479
H	 0.6191857335	-0.6113631628	-0.4243177063	 0.093803
H	 0.2442709473	 0.210756988	 1.0815735373	 0.106313
H	-2.2047087877	 0.0808617975	 0.5226592221	 0.114312
H	-1.3497519101	-1.3889036473	-1.7175098295	 0.288216
H	-0.6968861054	-2.5842750116	 0.5154346197	 0.120787
H	-1.2298996076	-1.6679685068	 1.9504407443	 0.140291
