11
gdb 4257	3.99676	2.03341	1.34773	2.5168	54.38	-0.282	-0.0569	0.2251	805.6819	0.07417	-434.626169	-434.620149	-434.619205	-434.656582	22.212	
O	 0.0308785974	-0.0623626975	 0.0031163702	-0.34833
C	-0.0116520355	 1.1313156924	 0.0086172657	 0.499766
N	-1.1586356231	 1.88968522	 0.0287049787	-0.436549
C	-1.278079625	 3.2930867981	 0.0372291316	 0.445104
O	-2.3652685792	 3.8215327672	 0.055804955	-0.351607
C	 0.0212376962	 3.9576828269	 0.0232433869	-0.284778
C	 1.1358265228	 3.2199219964	 0.0042205496	 0.105685
O	 1.1620207671	 1.8651507322	-0.0032115863	-0.21663
H	-2.0245320731	 1.3664734323	 0.0384426776	 0.283266
H	 0.0552692648	 5.0371337994	 0.0286416247	 0.143278
H	 2.1409861277	 3.6235123727	-0.0071997635	 0.160796
