18
gdb 68086	2.55461	1.68721	1.37539	1.3395	77.83	-0.2413	0.0008	0.2422	1022.8201	0.146356	-401.933682	-401.925096	-401.924152	-401.966445	32.731	
C	 0.020345219	 1.5538353014	-0.0430654559	-0.518472
C	-0.0093862189	 0.0524751409	 0.0282829731	 0.158328
N	 0.3399467794	-0.7688509884	-1.2013349	-0.343742
C	-0.3203103802	-1.9337680546	-0.4832901805	 0.158324
C	-0.7175556737	-3.1599118225	-1.2571271814	-0.518472
C	 0.5643452649	-2.005989111	 0.745056039	-0.104132
C	 0.7654105362	-0.7212846205	 1.0759725966	-0.104143
C	-1.3377117687	-0.8207844235	 0.0199710293	 0.350711
O	-2.5125946037	-0.6440564479	 0.0478746846	-0.32146
H	 1.0180607711	 1.9107122089	-0.3164922694	 0.136687
H	-0.6963340391	 1.9289529876	-0.7801335854	 0.128311
H	-0.244475848	 1.9857801323	 0.9266847419	 0.134887
H	-0.2689690184	-0.4747448608	-1.9731684333	 0.217197
H	 0.153113078	-3.6145955912	-1.7395770709	 0.136686
H	-1.1661418831	-3.9018384443	-0.5897162749	 0.134887
H	-1.4552123814	-2.9187955665	-2.0287082323	 0.128311
H	 0.8576356802	-2.9113564241	 1.2568644594	 0.113045
H	 1.2674993465	-0.2925747858	 1.93140965	 0.113047
