17
gdb 103060	2.42885	1.50929	1.10468	2.1888	74.88	-0.2361	0.0352	0.2713	1113.1199	0.134038	-421.731011	-421.72226	-421.721316	-421.765152	32.665	
O	 0.1544587335	 1.2777868568	 0.4029632587	-0.41083
C	 0.0307404459	 0.0005991087	-0.1928814985	-0.142841
C	-1.389085618	-0.5453268999	-0.0927918966	 0.039167
C	-2.3901298796	 0.192120356	-0.8177183242	 0.272832
C	-3.2302078206	 0.8011056847	-1.4262743529	-0.413325
C	-1.7141434737	-2.0462693885	 0.015936991	-0.176097
C	-0.6885680967	-2.7565070279	 0.8920283661	-0.119762
O	-0.8497416207	-1.7631412918	 1.9451086295	-0.293271
C	-1.9033237554	-1.1467936639	 1.2064887606	 0.062513
H	-0.0071027028	 1.1703233678	 1.3464167242	 0.290078
H	 0.2955076436	 0.1299625933	-1.246229518	 0.118466
H	 0.7365092687	-0.7119498053	 0.2487131772	 0.101654
H	-3.962219119	 1.3530042809	-1.9618768501	 0.193051
H	-2.4363584494	-2.5134469094	-0.6381064957	 0.117883
H	-1.0417751281	-3.7334343302	 1.2397806858	 0.120255
H	 0.3458435398	-2.840569438	 0.5437396728	 0.117194
H	-2.7758079774	-0.7905709135	 1.74075561	 0.123036
