20
gdb 6124	2.96766	1.63823	1.43137	2.5722	75.39	-0.23	-0.0139	0.2161	1014.4257	0.174672	-349.029823	-349.020543	-349.019599	-349.063411	33.985	
C	-1.0062319908	 1.0850176628	-0.3044701294	-0.406979
C	-0.0130411913	-0.0680755203	-0.3677848808	-0.086801
C	 1.0096188281	-0.1700500761	-1.5457421891	-0.29605
C	 2.18446429	-0.4356987067	-0.5396524355	 0.207097
C	 2.5609617935	-1.9202858242	-0.4353079623	-0.435256
C	 3.4232655444	 0.4488558515	-0.6594160165	-0.441855
C	 1.1998718167	-0.0188435372	 0.5759139785	 0.369428
O	 1.3496929528	 0.3421879799	 1.7092179057	-0.315335
H	-0.5031286989	 2.0461276247	-0.4535495037	 0.119176
H	-1.7790142469	 0.9852613781	-1.0732047772	 0.11846
H	-1.4975709134	 1.1151678342	 0.6726350334	 0.134807
H	-0.5357098779	-1.0231560474	-0.2290915463	 0.101723
H	 0.8233872872	-0.9572362399	-2.2790039278	 0.100473
H	 1.1237275953	 0.7825568866	-2.0707276256	 0.10404
H	 3.1046056246	-2.2364432814	-1.3325899523	 0.11921
H	 3.2029233686	-2.0979112042	 0.4332710925	 0.130149
H	 1.6775108962	-2.5596547108	-0.3369496944	 0.115913
H	 3.1546266635	 1.5067003064	-0.7410413835	 0.115602
H	 4.0623631206	 0.335070177	 0.221890968	 0.131536
H	 4.0106244877	 0.178648297	-1.5440922037	 0.114661
