22
gdb 17056	3.53649	1.43196	1.22605	0.1039	82.96	-0.2853	0.0973	0.3827	1118.5426	0.201057	-313.023599	-313.015321	-313.014377	-313.05621	32.19	
C	 0.0375688717	 1.4581107335	-0.2269563481	-0.372275
C	 0.2074901837	-0.0662947211	-0.2541280822	-0.234159
C	 0.7915851928	-0.603195404	 1.0485089606	 0.080531
C	-0.0640091484	-0.7494329861	 2.3541996018	-0.068442
C	-0.7297733384	-2.001819565	 1.7128488022	-0.231155
C	 0.7903647074	-2.1276322036	 1.399673468	-0.085365
C	 1.0299945272	-1.7305586097	 2.8961669313	 0.071298
C	 2.3776777784	-1.2577109684	 3.4222893269	-0.446999
H	 0.9904161972	 1.9597747336	-0.0235893173	 0.112042
H	-0.3387014848	 1.834364748	-1.1833869207	 0.109472
H	-0.6681307787	 1.7638829021	 0.5529408579	 0.116403
H	-0.7534193943	-0.5316691236	-0.4941214926	 0.096148
H	 0.8868004152	-0.3387243147	-1.0732636084	 0.093381
H	 1.7565751603	-0.1139087123	 1.210049951	 0.055432
H	-0.5623099207	 0.0462611117	 2.9127645469	 0.060297
H	-1.1416158071	-2.7383920448	 2.4087891058	 0.084959
H	-1.4078996369	-1.8422200959	 0.8749556877	 0.090313
H	 1.2836702734	-2.9305656363	 0.8465753653	 0.059392
H	 0.6158596946	-2.4691451617	 3.5930050469	 0.058317
H	 2.8689335758	-0.5156078319	 2.7887285823	 0.119357
H	 2.2599991887	-0.8138686272	 4.4173510964	 0.11554
H	 3.0625049428	-2.1070393328	 3.5252849084	 0.115513
