19
gdb 90974	3.86065	1.42598	1.34349	0.597	75.47	-0.2477	0.0792	0.3269	1026.1843	0.160038	-422.951133	-422.943886	-422.942942	-422.982712	29.664	
C	-0.0984962996	 1.5470758516	-0.0230705779	-0.397814
C	 0.0622449968	 0.0468729031	 0.019748173	 0.198207
O	 0.6846434914	-0.4165143049	-1.1966478406	-0.301215
C	 1.3762822055	-1.5793489279	-0.7680335213	 0.097846
C	 2.9157366262	-1.8758117688	-0.7858059519	-0.125907
C	 3.1488111255	-0.4972078464	-0.1336312239	-0.282161
C	 1.8903142334	-1.1123470607	 0.5649416481	 0.413077
C	 2.6707590298	-2.4536129525	 0.6775917789	-0.305206
O	 0.8870417423	-0.3592041746	 1.1630609847	-0.3474
H	 0.8773051093	 2.028514363	-0.1206659319	 0.132546
H	-0.7238263175	 1.8286073223	-0.8747445153	 0.130016
H	-0.5773390523	 1.8944150548	 0.8958951877	 0.130881
H	-0.9050581191	-0.4627289189	 0.1438669586	 0.084859
H	 0.7251458101	-2.4610777859	-0.7954899208	 0.070573
H	 3.5044716383	-2.3560377245	-1.5642101725	 0.088387
H	 4.0471060975	-0.3940349012	 0.4785223728	 0.090548
H	 2.972125683	 0.3741948452	-0.7622492537	 0.109878
H	 2.0806652061	-3.3698322791	 0.7551520749	 0.105072
H	 3.5511453032	-2.4748982248	 1.3221120913	 0.107814
