15
gdb 31294	2.16845	1.75651	0.98213	2.9029	74.39	-0.2626	-0.0507	0.2118	1137.1714	0.113522	-416.859716	-416.851631	-416.850687	-416.893488	28.773	
C	-0.8068986717	 1.0551207502	 0.0361971325	-0.401642
C	 0.5546450027	 0.3574265133	 0.0249210948	-0.29074
C	 0.8999170071	-0.3911337373	-1.2219310384	 0.166006
C	 0.2165761706	-0.5834471389	-2.3933465416	 0.186859
O	 0.9978780438	-1.36125302	-3.2228729994	-0.169993
C	 2.106054516	-1.5911558543	-2.5011275513	 0.07915
N	 2.1155105102	-1.0547337564	-1.3243608284	-0.2963
C	-1.0374385244	-0.176004978	-2.8899535509	 0.234288
N	-2.0692740351	 0.1604886276	-3.2958375791	-0.349162
H	-0.8868935649	 1.800855658	-0.7595262317	 0.139101
H	-1.627948868	 0.3439732954	-0.0896176574	 0.139158
H	-0.9518176531	 1.5677404171	 0.9907404535	 0.122564
H	 1.3568005421	 1.0856852814	 0.2002185575	 0.136353
H	 0.6261523825	-0.3507345875	 0.8603644046	 0.13635
H	 2.8710287022	-2.1933069407	-2.9668519948	 0.168007
