16
gdb 131615	4.15455	0.97689	0.85646	3.0186	66.57	-0.2602	-0.0244	0.2358	1302.4885	0.124366	-475.005824	-474.997486	-474.996542	-475.039592	30.38	
O	 0.0428730361	 1.4235465881	 0.0988706301	-0.419537
C	-0.0404280682	 0.0391493866	 0.3335490144	-0.056539
C	-1.4228125759	-0.4895024816	-0.0982681955	-0.010167
O	-1.6630106719	-0.0858603105	-1.4382556963	-0.442442
C	-1.5167223859	-1.9783132256	 0.0711967111	 0.379557
N	-1.4648303226	-2.7419904326	-0.9936311352	-0.215416
O	-1.5210600045	-4.0509968331	-0.5372038161	-0.167034
C	-1.6049695843	-4.0317216083	 0.8005657827	 0.089882
C	-1.606745513	-2.7563371256	 1.2621450681	-0.349072
H	-0.2874991495	 1.5499139049	-0.8004914163	 0.291162
H	 0.7335697948	-0.5224755913	-0.2162046196	 0.089733
H	 0.1190218083	-0.1259271187	 1.4047793671	 0.106117
H	-2.1833600506	 0.0023601414	 0.521055003	 0.10653
H	-1.440939327	-0.8307603343	-2.0122167977	 0.304966
H	-1.6605956108	-4.9966434141	 1.2802892786	 0.160715
H	-1.6697576049	-2.4171090353	 2.2824014017	 0.131545
