19
gdb 1239	6.41788	1.13024	1.01712	0.864	73.77	-0.257	0.0584	0.3154	1173.9801	0.169238	-273.762889	-273.753957	-273.753013	-273.796189	32.317	
C	-0.0346687109	 1.5418585362	-0.01138081	-0.394085
C	 0.0135763808	 0.0087673822	 0.0446911901	 0.044577
C	 0.8582232973	-0.4597415685	 1.238549053	-0.384134
C	-1.4130625152	-0.5671364709	 0.0670132261	-0.160106
C	-1.4802143222	-2.1020386309	-0.0802916628	-0.366776
C	-2.8481989993	-2.6022859931	-0.1436941322	 0.293817
C	-3.985736187	-2.987909794	-0.1941932661	-0.437349
H	 0.9725899572	 1.9678360131	-0.0656196484	 0.110126
H	-0.5960106288	 1.8927770618	-0.8835567744	 0.111382
H	-0.5196193568	 1.9509439092	 0.8830863186	 0.11344
H	 0.5016443159	-0.3457856622	-0.8754143637	 0.071111
H	 1.8608258548	-0.0213086607	 1.2018330278	 0.111951
H	 0.3973569461	-0.1532354967	 2.1855114286	 0.113538
H	 0.9781050019	-1.5470303438	 1.262697365	 0.113922
H	-1.9135229295	-0.2761972096	 0.9994420131	 0.104077
H	-1.995145926	-0.1194355013	-0.7465177028	 0.104681
H	-0.9402372268	-2.4036575908	-0.9881329774	 0.126835
H	-0.9608150285	-2.5854363742	 0.7557005427	 0.131491
H	-4.985828873	-3.3408669359	-0.2404454872	 0.191501
