15
gdb 49140	3.95149	0.96365	0.88433	2.3238	74.48	-0.2535	-0.0809	0.1727	1280.7431	0.113241	-416.825659	-416.81749	-416.816546	-416.85913	29.063	
O	-0.0939535421	-0.0384394699	 0.096897432	-0.254034
C	-0.0274041471	 1.1668560848	 0.0201957792	 0.076792
C	 1.2395977431	 1.909595623	 0.0242880737	 0.251542
C	 1.3600899597	 3.2352556825	-0.0865738858	-0.166458
C	 2.8213056102	 3.6337214914	-0.0780902385	-0.139334
N	 3.4897782124	 2.3967578622	 0.34538247	-0.319735
C	 2.5900633134	 1.2506481883	 0.1247752241	-0.259292
C	 3.2365876688	 4.1203013536	-1.4146987394	 0.252229
N	 3.5926971835	 4.4787448814	-2.4546755458	-0.314767
H	-0.9392550949	 1.7967736486	-0.0611459713	 0.083145
H	 0.5594550973	 3.9550504421	-0.2003706437	 0.139368
H	 3.0181413567	 4.4484953326	 0.6332056628	 0.14096
H	 4.4017649157	 2.280895864	-0.0754689016	 0.243867
H	 2.6422658541	 0.5453578155	 0.9615589245	 0.138487
H	 2.8039067091	 0.67874512	-0.7916397103	 0.127233
