16
gdb 39529	3.74813	1.97808	1.59227	2.1912	77.31	-0.2041	0.0002	0.2043	841.4589	0.126078	-363.473946	-363.468018	-363.467074	-363.503856	25.304	
C	-0.0925464387	 1.5309959011	-0.0049879035	-0.436845
C	 1.3954564188	 1.9173079455	 0.0512009748	-0.054953
C	 2.2654914095	 0.8916452692	-0.003166178	-0.280514
C	 1.5000326644	-0.3528634566	-0.1061013775	 0.403379
C	 1.2003580344	-1.6343524299	-0.8006492128	-0.151038
C	-0.3195893872	-1.2882750184	-0.757764956	-0.202331
C	-0.1841072618	-1.2354585424	 0.7572939021	-0.078102
N	 1.3045282521	-1.6155350837	 0.7129500172	-0.239782
C	 0.02813257	 0.0223914803	-0.0405089595	 0.29823
H	-0.6427978658	 1.9139072543	 0.863478545	 0.119614
H	-0.5777664473	 1.9571789522	-0.8928660573	 0.118992
H	 1.6947695394	 2.958194803	 0.1198491599	 0.103098
H	 3.3438690384	 0.983802364	 0.019275683	 0.111128
H	 1.8035340833	-2.3017627781	-1.4062499187	 0.096352
H	-1.1694346395	-1.5641224794	-1.3670055356	 0.095537
H	-0.8761261101	-1.5136069311	 1.543726747	 0.097234
