18
gdb 42865	2.50486	1.70751	1.44478	1.8421	77.1	-0.2276	-0.0168	0.2108	984.7606	0.150221	-401.944279	-401.936929	-401.935984	-401.975981	29.183	
O	-0.0341880673	 0.0162890729	 0.2276414978	-0.304868
C	-0.00774318	 1.204044881	 0.1116868827	 0.414933
C	-1.0609954817	 2.3072627637	-0.1174906886	-0.123731
C	-1.6190181449	 2.9436823507	 1.1698430987	-0.209873
C	-0.6598517256	 3.941021868	 1.8567345693	-0.237938
C	 0.7677928965	 3.4903827727	 2.0827091895	-0.066944
C	 1.5423939212	 2.8092621141	 1.2350299206	-0.022794
C	 1.0879302772	 2.2793474722	-0.0993945047	-0.188497
N	 0.0281440288	 3.1489388485	-0.7279189372	-0.318626
H	-1.8710986682	 2.02618237	-0.7978978073	 0.094171
H	-2.5462021284	 3.4777360093	 0.9328366466	 0.104741
H	-1.8921071036	 2.1393007762	 1.8628101139	 0.118562
H	-0.637194495	 4.8591190672	 1.258607922	 0.135859
H	-1.0983426559	 4.2170181518	 2.8215391121	 0.098295
H	 1.2099565778	 3.79674314	 3.0279701157	 0.094285
H	 2.5538926762	 2.5461815461	 1.5309317738	 0.095647
H	 1.9282815184	 2.0171968166	-0.7472801741	 0.089895
H	 0.0418441746	 2.9986697088	-1.7332652608	 0.226881
