15
gdb 9223	7.22582	0.85757	0.77388	1.1139	59.75	-0.2605	-0.0467	0.2137	1367.0689	0.116622	-436.972793	-436.963844	-436.9629	-437.008825	29.735	
O	 0.1497012766	 1.3325202965	-0.0817913457	-0.416511
C	 0.0512893819	-0.0467175055	 0.1032169845	-0.125452
C	-1.3879566056	-0.5229911637	 0.005241558	 0.333719
O	-2.2743956436	 0.2782452216	-0.2106531361	-0.32317
C	-1.668811856	-2.0004514708	 0.1828879599	-0.228467
N	-3.0801039485	-2.2558252415	 0.0569948036	-0.283672
C	-3.5931719002	-3.5054320571	 0.176913472	 0.156813
O	-2.929058578	-4.497248708	 0.3951305009	-0.324695
H	-0.7569509383	 1.6423848162	-0.2300022886	 0.297645
H	 0.6460159742	-0.5953837395	-0.6460828801	 0.125729
H	 0.4463643493	-0.3486468752	 1.0875601652	 0.125733
H	-1.0900021908	-2.5696093418	-0.5582823155	 0.155445
H	-1.2877430708	-2.3252846651	 1.1614362937	 0.155475
H	-3.6679679208	-1.4552845989	-0.1246385126	 0.266413
H	-4.6931923594	-3.5194648973	 0.0526001807	 0.084994
