17
gdb 86509	7.06772	0.59197	0.57751	3.5879	82.43	-0.2661	-0.064	0.2021	1890.4155	0.133444	-421.786655	-421.777159	-421.776214	-421.822987	32.323	
C	-0.5027309031	 1.3262196533	 0.1697930077	-0.400719
C	 0.3889391932	 0.1067545044	 0.2646565688	 0.172151
C	 0.6225931244	-0.733531646	-1.0107568802	-0.310747
C	 2.120940161	-0.3757995797	-0.8037512759	-0.050505
O	 1.7997921267	 0.4576451413	 0.3321697841	-0.293735
C	 3.0112862053	-1.4801093954	-0.4907121934	 0.154021
C	 3.7487317819	-2.4077324256	-0.2520437538	 0.000192
C	 4.6322032441	-3.4963276992	 0.0746335758	 0.021026
O	 4.9427257827	-4.3803962011	-0.6906226604	-0.22918
H	-0.2481093855	 1.9288703258	-0.707567501	 0.121757
H	-1.553476667	 1.0250985833	 0.0953428266	 0.121302
H	-0.3892374864	 1.9509564283	 1.0610846336	 0.133976
H	 0.1134640012	-0.5013843513	 1.1362631673	 0.087365
H	 0.3803948657	-1.7935387318	-0.9456170074	 0.129252
H	 0.1933167608	-0.3116045264	-1.9207739072	 0.120509
H	 2.5646412992	 0.2181387262	-1.613317702	 0.119725
H	 5.0197528058	-3.4646694461	 1.1131982474	 0.103611
