21
gdb 31129	1.88365	1.67569	0.95986	0.8028	86.36	-0.2024	0.0305	0.2329	1296.0327	0.181331	-387.142633	-387.132654	-387.131709	-387.177662	36.163	
C	 0.0700665261	 1.5625206537	 0.1954327747	-0.366908
C	-0.0322823635	 0.0383617131	 0.0050552408	-0.305179
C	 0.6658750741	-0.4625523999	-1.2266278748	 0.067771
C	 0.1090284557	-0.761943579	-2.4360785588	 0.274884
C	-1.28194967	-0.7356429247	-2.9623011955	-0.49189
O	 1.0742046086	-1.1707579464	-3.3114765733	-0.187715
C	 2.2602384274	-1.1300668281	-2.6444716904	-0.129688
C	 2.0861364829	-0.706326846	-1.3673000665	 0.189217
C	 3.1416233306	-0.5457541659	-0.317563156	-0.507798
H	 1.1136778984	 1.8854053262	 0.2629519812	 0.120682
H	-0.3836155345	 2.0911700729	-0.6486341819	 0.118001
H	-0.4398762365	 1.8790316818	 1.111294038	 0.109041
H	 0.3856627141	-0.4605032477	 0.8886781511	 0.102046
H	-1.0897035796	-0.2477783482	-0.0272215188	 0.100408
H	-1.3954151644	-0.0037843384	-3.7710056503	 0.135543
H	-1.5747929627	-1.7122232217	-3.3644189372	 0.135947
H	-1.9833259529	-0.4701236448	-2.1682744993	 0.131958
H	 3.1275847089	-1.4353850615	-3.2074106018	 0.125257
H	 3.2385254345	 0.4954066211	 0.0118081058	 0.128326
H	 2.9171691945	-1.1419629012	 0.5749179233	 0.126932
H	 4.1185912582	-0.8657364254	-0.6908977504	 0.123166
