15
gdb 48134	3.08438	1.33577	0.94299	1.2978	71.24	-0.2532	-0.0923	0.1609	1165.0954	0.113169	-453.987085	-453.978959	-453.978015	-454.020758	28.212	
O	-0.865083437	 1.2182852342	 0.1727271552	-0.239866
C	 0.2744388236	 0.9310294349	-0.0810475728	 0.103112
C	 1.4635927982	 1.8892302242	-0.2046968231	 0.310573
O	 2.5504582102	 1.4048292605	-0.4713374511	-0.348253
N	 1.2784774949	 3.2276977869	-0.0172336906	-0.139933
C	 2.4052653379	 4.1713793301	-0.1303047845	-0.189183
C	 1.7045126276	 5.5247788107	 0.1592672677	-0.179096
N	 0.282711433	 5.2262072088	 0.4025191959	-0.24067
C	 0.1241963905	 3.971506819	 0.2917077224	 0.069343
H	 0.6133657912	-0.1076732807	-0.2661228631	 0.129029
H	 3.1815135506	 3.9096922308	 0.5933064187	 0.140957
H	 2.8457745916	 4.1042524149	-1.1283580225	 0.140957
H	 2.1207344107	 6.0288055628	 1.0370140353	 0.129994
H	 1.7863235775	 6.2229432538	-0.6795357198	 0.129993
H	-0.8127826907	 3.447425259	 0.4151215024	 0.183042
