20
gdb 79351	2.44432	1.9243	1.7496	0.8278	76.51	-0.2215	0.0808	0.3023	928.5469	0.174346	-403.140025	-403.132848	-403.131904	-403.171239	29.354	
C	 0.0008671002	 1.5702984171	 0.0107661234	-0.41087
C	 0.0853116081	 0.0450951917	 0.0027393933	 0.008934
C	 0.8944289012	-0.569287119	-1.1326466075	-0.056656
C	 2.3497684789	-0.7293443276	-0.8744657211	-0.034692
C	 2.984718872	-0.1139548875	 0.3580037934	-0.10442
O	 2.0616378435	 0.0769845557	 1.4264727268	-0.274584
C	 0.8161997735	-0.5854601486	 1.2090409411	 0.070527
C	 1.060395561	-2.0206702205	 0.7210661054	-0.184783
N	 1.4454467894	-1.8843937332	-0.7046624728	-0.132486
H	 0.9897758572	 2.0207583092	 0.1227934922	 0.129322
H	-0.4429679491	 1.9414921363	-0.918744868	 0.111985
H	-0.621984141	 1.9227986796	 0.8394821891	 0.115366
H	-0.9316039455	-0.3697419163	-0.039559294	 0.076244
H	 0.5185317198	-0.513590136	-2.1501827673	 0.085921
H	 3.02716684	-0.8239815967	-1.720714197	 0.091706
H	 3.8097026096	-0.7589133711	 0.7002148062	 0.103473
H	 3.423486858	 0.8606651559	 0.1057353633	 0.108008
H	 0.2670482263	-0.5100708336	 2.149750227	 0.078699
H	 1.8461381113	-2.5257623845	 1.2903172624	 0.111386
H	 0.1500726855	-2.6267701009	 0.7773095041	 0.106921
