19
gdb 61430	2.62689	1.20746	0.93678	3.067	73.46	-0.2317	0.0135	0.2452	1284.732	0.158352	-456.4133	-456.403088	-456.402144	-456.449108	36.095	
C	-0.3610504504	 1.5008269424	-0.1458908364	-0.350774
N	-0.0283556908	 0.0950691391	 0.0291097081	-0.072402
C	 0.1238683671	-0.3596180809	 1.4120696807	-0.267226
C	-1.2270236479	-0.7915765431	 2.0096882167	 0.378798
N	-1.6072590676	-2.0409626073	 1.6328737793	-0.506794
O	-1.8776384709	-0.0596633601	 2.732731755	-0.366362
C	 0.0330622865	-0.838286462	-0.9643755129	 0.40534
C	-0.0468875597	-0.3590786753	-2.4042657298	-0.49614
O	 0.1603070631	-2.0337490077	-0.7079714782	-0.399244
H	-0.6392021152	 1.7091142023	-1.1771234671	 0.139635
H	-1.205265219	 1.7632654391	 0.5005297277	 0.16115
H	 0.4880941201	 2.1417241886	 0.1235796584	 0.132371
H	 0.8365127727	-1.1862225701	 1.4236002482	 0.140979
H	 0.5015836552	 0.4691290665	 2.013010823	 0.125425
H	-1.1044456429	-2.4988791147	 0.882296919	 0.282689
H	-2.5398490733	-2.3404617254	 1.8695777016	 0.254041
H	 0.6548294934	 0.4529291333	-2.6138002015	 0.139627
H	 0.183055957	-1.2118232476	-3.0419973266	 0.152476
H	-1.0539995875	-0.0044370674	-2.6478909153	 0.146412
