20
gdb 63016	2.23229	1.79623	1.40393	2.7272	78.93	-0.2472	0.0278	0.2749	1036.9109	0.171019	-403.162383	-403.153871	-403.152927	-403.194994	33.578	
C	 0.0874104765	 1.5538395413	-0.0142678785	-0.414983
C	 0.0388979993	 0.0207436917	-0.0090517592	 0.174451
C	-1.4260705238	-0.464311379	-0.004189835	-0.425106
C	 0.8021222131	-0.6482341689	-1.1494545287	-0.076639
C	 2.3129798111	-0.5038365271	-1.2009068102	-0.344406
C	 1.683979959	-1.6800620317	-0.5143801922	 0.081067
O	 1.5727170101	-1.5823311543	 0.894701417	-0.243101
C	 0.7376781961	-0.5484159906	 1.2315267512	 0.372778
N	 0.5563941503	-0.1366816462	 2.4101238931	-0.53645
H	 1.1148347654	 1.9228963472	-0.0767462924	 0.113988
H	-0.4694571968	 1.9507128599	-0.8692717031	 0.108285
H	-0.3540883664	 1.9426814784	 0.9066031668	 0.143307
H	-1.9499221788	-0.0979932801	-0.8935379074	 0.112571
H	-1.4840633695	-1.5573757261	 0.0001756455	 0.118715
H	-1.9422971821	-0.0915296464	 0.8837961763	 0.139726
H	 0.2701473383	-0.8533105716	-2.0710249409	 0.094315
H	 2.7923259551	-0.6745257415	-2.1586844992	 0.120915
H	 2.7978533683	 0.2399327864	-0.5764448722	 0.128552
H	 1.8094060538	-2.7014892772	-0.8495315115	 0.109952
H	 1.1197452812	-0.6697571343	 3.0740388703	 0.222063
