20
gdb 114143	4.88041	0.8942	0.82552	1.2707	88.5	-0.2213	0.0324	0.2536	1447.4338	0.169981	-365.941577	-365.932457	-365.931513	-365.975316	34.919	
C	 0.0836895766	 1.5092717349	-0.067616813	-0.380209
C	 0.01751231	-0.0044535696	 0.1579730871	-0.192786
C	-1.3962917012	-0.562654178	 0.0382042686	 0.04212
C	-2.1003720157	-0.568921156	-1.37168825	-0.308966
C	-2.2859481386	-2.0901470769	-1.2359435463	 0.238073
N	-0.9037639267	-2.6451101108	-1.0999127393	-0.365698
C	-1.5758040941	-2.0875803557	 0.0881544053	-0.144607
C	-3.368380739	-2.8836762382	-1.6989989988	 0.143085
C	-4.2938775221	-3.5385070865	-2.1049066482	-0.400928
H	 1.1102874157	 1.878175349	 0.0195941359	 0.112891
H	-0.2814287658	 1.7789660949	-1.0645942336	 0.118322
H	-0.5272495606	 2.0495501759	 0.6645814135	 0.110364
H	 0.6593305011	-0.5226520597	-0.5622551873	 0.118718
H	 0.4104393701	-0.2435841833	 1.1553272868	 0.089967
H	-2.0563376133	-0.0870311307	 0.7714984376	 0.074827
H	-3.0433665172	-0.0206974548	-1.3816351862	 0.113759
H	-1.4867326144	-0.2693100067	-2.2246013382	 0.109444
H	-0.9991387648	-3.6596938604	-1.0538486811	 0.236051
H	-1.763391716	-2.7052085316	 0.9588518951	 0.099394
H	-5.1090982139	-4.1181952058	-2.460750128	 0.186178
