17
gdb 20824	3.14375	1.78763	1.24738	3.2243	69.83	-0.2495	-0.0008	0.2487	992.9379	0.141919	-363.873976	-363.865853	-363.864909	-363.906962	29.121	
C	-0.1025524418	 1.5747066617	 0.0085893546	-0.370885
C	 0.0624442585	 0.0451378783	-0.0217431612	-0.309692
C	 0.7473515344	-0.5092870861	 1.1919576787	 0.08434
C	 2.0318564564	-0.9276013166	 1.3302369684	-0.006489
O	 2.2737748526	-1.3478482729	 2.5805840177	-0.170238
N	 1.106083998	-1.2143454955	 3.3257536135	-0.199919
C	 0.2090368286	-0.7189230995	 2.5057426526	 0.321387
C	-1.1813712433	-0.4594961087	 2.9915328946	-0.501854
H	 0.8709910914	 2.0701705309	 0.0711100063	 0.123794
H	-0.6094370052	 1.9282650336	-0.8946035944	 0.116513
H	-0.6934231884	 1.8956466904	 0.8720660611	 0.123056
H	-0.9246458653	-0.4216430721	-0.1293799974	 0.110018
H	 0.6300217475	-0.2388076822	-0.9147232711	 0.109609
H	 2.8633745192	-0.9885697986	 0.6441091496	 0.144475
H	-1.4202064471	 0.6088602064	 2.962699002	 0.138826
H	-1.9184640497	-0.9757009145	 2.3671512134	 0.135196
H	-1.2881387657	-0.8098823546	 4.0197869116	 0.151861
