23
gdb 118186	2.41243	0.82541	0.69831	3.339	83.69	-0.2411	0.0592	0.3003	1741.7853	0.204776	-421.66459	-421.653373	-421.652429	-421.702122	40.443	
C	-0.0610287641	 1.5795346731	 0.0327437563	-0.379854
C	-0.0269729757	 0.0495338085	-0.0085402206	-0.162968
C	 0.7216350488	-0.4988496192	-1.2273376917	-0.179095
C	 0.7947910725	-2.031200017	-1.2896798005	 0.050802
C	 1.3847261141	-2.5295773536	-2.6156483868	-0.400859
N	 1.5428646163	-2.5432242328	-0.1405596878	-0.335199
C	 1.2796737245	-3.7982638803	 0.3647470767	 0.453366
N	 2.212907582	-4.2309298219	 1.3053785274	-0.568186
O	 0.3337446036	-4.4825036813	 0.0195548318	-0.394663
H	 0.9511246662	 1.9985478605	 0.0697833718	 0.109845
H	-0.5537793906	 1.9911614435	-0.85535047	 0.113592
H	-0.6030167618	 1.9432809886	 0.9112714736	 0.112
H	 0.439813055	-0.3380359814	 0.9040562643	 0.09771
H	-1.0525615773	-0.3417057552	-0.012752945	 0.099993
H	 0.2377104031	-0.1428110225	-2.1455623976	 0.097419
H	 1.7430027918	-0.0881128174	-1.2512545503	 0.080856
H	-0.211169014	-2.4472821734	-1.1822015599	 0.117363
H	 2.4081322455	-2.1606801026	-2.7555024756	 0.102022
H	 1.4042342457	-3.6222102463	-2.6323928322	 0.137566
H	 0.7853086887	-2.1836843106	-3.4640797392	 0.11401
H	 2.4897421429	-2.205327224	-0.044907722	 0.231573
H	 2.6374085423	-3.5255899115	 1.8898994128	 0.244525
H	 1.8824062404	-5.0337075631	 1.8199903644	 0.258183
