19
gdb 52136	4.09157	0.8173	0.72755	4.1078	79.09	-0.2441	0.0066	0.2508	1557.1336	0.159284	-423.064394	-423.055479	-423.054534	-423.099572	31.646	
O	 0.4069598055	 0.0840559214	-0.1777119671	-0.274704
C	 0.4696743262	 1.2710956952	-0.2864771204	 0.176579
O	 0.8192731274	 2.0792784926	 0.7327946154	-0.167285
C	 0.9226028549	 3.4792232169	 0.4524415154	-0.204054
C	 2.3238541387	 3.9057354279	 0.1549084228	 0.305376
C	 3.4177547894	 3.1432967977	 0.1403162608	-0.158063
C	 4.6650169682	 3.9412712066	-0.1523504368	-0.246977
C	 4.1076045687	 5.304777838	-0.6373400521	-0.204935
C	 2.6476720051	 5.3608122447	-0.1191820917	-0.302958
H	 0.2394404149	 1.8288125592	-1.2158905395	 0.078027
H	 0.2514543634	 3.7448743923	-0.3791223562	 0.115223
H	 0.5363398683	 3.9931840952	 1.3407730871	 0.134871
H	 3.433228095	 2.0824869266	 0.3596563503	 0.112646
H	 5.2742793516	 4.0467296665	 0.7566065186	 0.11013
H	 5.3114964402	 3.464144875	-0.8972893021	 0.106974
H	 4.7065162891	 6.154006524	-0.3000756971	 0.101627
H	 4.103743559	 5.3270820887	-1.7314043726	 0.108323
H	 1.9636313389	 5.8236805593	-0.8411421086	 0.100755
H	 2.5608237454	 5.9517888421	 0.8042726838	 0.108445
