21
gdb 122662	4.94381	0.66607	0.61917	2.4469	81.64	-0.2309	0.0172	0.2481	1811.0358	0.181879	-424.22324	-424.213572	-424.212628	-424.259019	34.556	
O	-0.0889030487	 1.4355636515	-0.1374788618	-0.421122
C	 0.0009081789	 0.018256821	-0.1360190873	-0.076425
C	-1.404450891	-0.5427102633	 0.029742546	-0.162984
C	-1.4323611907	-2.0728534922	 0.0645294254	-0.197743
C	-2.8537842905	-2.6361783655	 0.1893834017	 0.087216
O	-3.6502235474	-2.2281081963	-0.9307106117	-0.275687
C	-4.2166459337	-3.3597289624	-1.5842384839	-0.113057
C	-3.6899063903	-4.5502085	-0.8334047117	-0.097103
C	-2.9294590767	-4.1402704668	 0.1741842762	-0.094728
H	 0.7960869076	 1.7923824111	-0.2552678801	 0.283626
H	 0.4409345176	-0.3541329659	-1.0761296356	 0.082478
H	 0.6454954349	-0.3381490817	 0.6853841604	 0.078305
H	-1.8337708944	-0.1370699795	 0.9545344928	 0.100523
H	-2.0311195415	-0.1849612146	-0.7930281375	 0.126142
H	-0.9789908961	-2.4841858404	-0.8463527549	 0.096523
H	-0.8388021407	-2.4426999525	 0.9121494585	 0.088092
H	-3.3082127654	-2.2268690578	 1.1091673494	 0.078367
H	-5.3169402221	-3.3011079058	-1.5538514213	 0.104008
H	-3.9251083438	-3.3647429362	-2.6462285047	 0.10495
H	-3.925661176	-5.5724795562	-1.1009875098	 0.105342
H	-2.41701982	-4.7597690863	 0.8994339398	 0.103277
