21
gdb 68915	2.3634	1.75313	1.21679	1.1036	83.54	-0.2374	0.0281	0.2655	1095.8644	0.182552	-387.09837	-387.089688	-387.088744	-387.130864	34.86	
C	-0.1031861382	 1.4969878401	 0.0984217268	-0.459179
C	 0.0416587792	-0.0089340704	 0.0077565851	 0.287785
C	 1.440893832	-0.5758043056	-0.191554368	-0.393291
C	 0.7274868811	-0.7485452083	 1.1291278601	 0.366298
O	 1.1570069786	 0.0453748879	 2.2074837862	-0.470726
C	 0.2400450275	-2.1249334231	 1.5503688772	-0.328393
C	-0.5944126499	-2.8217064435	 0.512177897	-0.058813
C	-1.190103202	-2.1874469748	-0.4957166827	-0.061331
C	-1.1064234422	-0.702989077	-0.7175312406	-0.318197
H	 0.729163681	 1.9438886315	 0.6437556798	 0.128229
H	-0.1425270721	 1.9404125847	-0.9037300578	 0.107503
H	-1.0278785258	 1.7714632629	 0.61940788	 0.112922
H	 1.564167295	-1.44338873	-0.8320658964	 0.110127
H	 2.2596483926	 0.1359615252	-0.2146923302	 0.103794
H	 1.9970739366	-0.3113709411	 2.5164085912	 0.279009
H	 1.100359952	-2.7535158024	 1.8262015434	 0.092264
H	-0.3429887869	-2.0012309188	 2.4744850092	 0.119669
H	-0.7182292332	-3.8958378196	 0.6240731507	 0.084729
H	-1.7983963214	-2.7497797629	-1.1999889627	 0.08464
H	-2.0553574588	-0.244680371	-0.3981006767	 0.109757
H	-1.035648175	-0.4898106839	-1.7941051715	 0.103203
