19
gdb 69953	3.61217	1.46237	1.27469	2.8683	74.1	-0.2387	0.0816	0.3203	1041.4151	0.160086	-423.007298	-422.999749	-422.998805	-423.039054	29.973	
C	-0.006969857	 1.5316014684	-0.026976816	-0.484231
C	-0.0362732122	 0.033414341	 0.1113788689	 0.409337
C	-1.2207635097	-0.7671482336	-0.4215190484	-0.303683
C	-1.1918059112	-2.112678374	 0.3248047593	 0.126638
O	-0.4780874369	-3.169813647	-0.349678192	-0.28993
C	 0.4855934315	-3.2740377577	 0.719703823	-0.076753
C	-0.1086942952	-2.040917961	 1.4370736557	-0.113608
C	 0.6087065854	-0.7264324021	 1.2043511894	-0.041891
O	 1.2162141223	-0.6406827162	-0.0929094984	-0.283264
H	 0.8972199598	 1.9418474724	 0.4295245278	 0.130043
H	-0.0156549131	 1.8222041585	-1.0832279909	 0.130601
H	-0.8810745663	 1.9851917446	 0.4521241512	 0.120781
H	-2.1543718416	-0.2301888593	-0.2174835568	 0.098002
H	-1.1518820736	-0.9263009655	-1.5022174561	 0.126507
H	-2.1933608219	-2.4474486935	 0.6203390205	 0.074142
H	 0.3790282869	-4.2166870934	 1.2707257567	 0.094277
H	 1.5120880154	-3.1678908684	 0.3563788539	 0.1176
H	-0.4204586426	-2.1722098923	 2.4742256353	 0.077058
H	 1.16217157	-0.2434472209	 2.0071875367	 0.088375
