18
gdb 127305	4.29746	1.11092	0.93014	2.2078	81.2	-0.2027	0.0294	0.2321	1272.86	0.149127	-398.118117	-398.109736	-398.108792	-398.152288	30.409	
C	-0.2792872343	 1.4419134977	-0.0058470834	-0.314427
N	-0.0407545657	 0.0180180115	-0.0336047818	 0.062857
C	 0.3449310439	-0.7474874609	-1.0818103553	-0.011604
C	 0.4151624669	-2.048591317	-0.6336569806	-0.333985
C	 0.0488428956	-1.9645926275	 0.7304969866	 0.393671
N	-0.2237672142	-0.7115824931	 1.0923665758	-0.348374
N	-0.0978264771	-3.0398607219	 1.6172640749	-0.146185
C	 1.1027777773	-3.6161555744	 2.2305620269	-0.231025
C	 0.1456696157	-2.8046583916	 3.0335212301	-0.214527
H	-0.0512038849	 1.8572103202	-0.9891702988	 0.135012
H	-1.3246333054	 1.6518042633	 0.2396569308	 0.146419
H	 0.3584326285	 1.9204539749	 0.7430215825	 0.144646
H	 0.5309338068	-0.3149275823	-2.0528584667	 0.126854
H	 0.6803884794	-2.9286738725	-1.1952694328	 0.1033
H	 1.1110244917	-4.6994427104	 2.3072495397	 0.116842
H	 2.0590826317	-3.1608931129	 1.9842212418	 0.119425
H	 0.4520041565	-1.8041774121	 3.3234618709	 0.134684
H	-0.5503311623	-3.2927571811	 3.7092593594	 0.116416
