14
gdb 5495	3.62651	1.90838	1.25242	2.4633	73.84	-0.1842	0.0189	0.2031	908.7508	0.108095	-341.586507	-341.578925	-341.577981	-341.617871	29.126	
N	 0.0679489089	 1.3847918259	 0.1652979825	-0.621839
C	 0.0150736875	-0.0092665015	 0.0513670353	 0.13735
C	-1.094204692	-0.8231017336	 0.0336394748	-0.145262
N	-0.6499772138	-2.1337252159	-0.0184208592	-0.238019
C	 0.706108276	-2.1729079487	-0.0302973464	-0.196332
C	 1.1711550699	-0.865746665	 0.0075391969	 0.132681
C	 2.5105594964	-0.4224296668	-0.0053753586	 0.211954
C	 3.636520056	 0.0107128075	-0.0267419218	-0.452084
H	 0.96537886	 1.7493646884	-0.1295238797	 0.247008
H	-0.6757194379	 1.8597196156	-0.3284526231	 0.239799
H	-2.1450785506	-0.588532983	 0.0618817413	 0.112752
H	-1.2484606196	-2.939516126	-0.0396005303	 0.265112
H	 1.2515497343	-3.1008648578	-0.0724810297	 0.126997
H	 4.6345066248	 0.3715620007	-0.0309140919	 0.179883
