20
gdb 113730	2.59896	1.13227	0.88813	4.1599	79.64	-0.2747	0.0331	0.3078	1384.0492	0.168995	-403.148885	-403.13876	-403.137816	-403.185137	35.8	
C	 0.4642525224	 1.5784626588	 0.0277006977	-0.375563
C	-0.2826153963	 0.2479560185	-0.1362536624	-0.243088
C	 0.2165617984	-0.5171431726	-1.3375453164	 0.067716
O	 1.4921725211	-1.183068383	-1.2537926092	-0.250365
C	 0.3365300737	-1.9763251329	-1.489806101	 0.060107
C	-0.0194211524	-3.0755124041	-0.4879189047	-0.188725
C	 0.6855061541	-4.3958001197	-0.8787460745	-0.392089
C	 0.3045084604	-2.7554002953	 0.9049084106	 0.298178
N	 0.5546550484	-2.5697756156	 2.0176675281	-0.334896
H	 1.5322104408	 1.4016832475	 0.1849652243	 0.138567
H	 0.354016532	 2.2106243549	-0.8603782917	 0.112879
H	 0.0818362036	 2.1364874164	 0.8868072791	 0.119184
H	-0.1804262358	-0.3463003107	 0.7725606388	 0.144378
H	-1.3544983959	 0.4373979046	-0.2819715525	 0.100913
H	 0.0990170101	 0.0310341131	-2.2771268566	 0.091645
H	 0.2625065302	-2.3609439835	-2.510928362	 0.093694
H	-1.1054023343	-3.2325799746	-0.5413359433	 0.135179
H	 1.7704716157	-4.2661192978	-0.8610201092	 0.154819
H	 0.4195282379	-5.1983850252	-0.1875190195	 0.140636
H	 0.384637936	-4.6903669689	-1.8878445054	 0.12683
