21
gdb 10069	3.10098	1.18824	0.98109	4.0674	78.59	-0.3118	0.0363	0.348	1263.7282	0.187789	-329.157748	-329.147962	-329.147018	-329.192607	34.997	
C	 0.2944435632	 1.0670470211	-0.4099103752	-0.397566
C	 0.3702329177	-0.4221366398	-0.0604131019	-0.179525
C	 0.767874721	-0.7129400468	 1.3991800848	 0.030653
C	-0.179491559	-0.099577431	 2.4522225722	-0.196394
C	-1.646318528	-0.5407513327	 2.3734272788	-0.385064
C	 0.9326329355	-2.2445027657	 1.5780563916	-0.352181
C	 1.4395977241	-2.6233334686	 2.8950926817	 0.263005
N	 1.8439154123	-2.9052805855	 3.9406799543	-0.316427
H	 1.236918564	 1.576554779	-0.1802469571	 0.118975
H	 0.0950215906	 1.2037473914	-1.4770088157	 0.117791
H	-0.5015663904	 1.5772408298	 0.140509898	 0.12463
H	-0.5912423274	-0.9020621446	-0.2841274509	 0.101451
H	 1.1040300235	-0.9044325489	-0.7190310252	 0.096176
H	 1.7579421022	-0.2681310139	 1.5666433944	 0.090438
H	 0.2146169257	-0.3378940092	 3.446793307	 0.123809
H	-0.1280316097	 0.9912419707	 2.3660097136	 0.103114
H	-2.229749724	-0.054419441	 3.16074361	 0.122496
H	-2.1060041978	-0.2766121323	 1.4157107185	 0.118742
H	-1.7611291241	-1.6209508953	 2.511539683	 0.119543
H	-0.0233594445	-2.7552581362	 1.414985873	 0.149366
H	 1.6241511551	-2.6328116505	 0.8216738651	 0.14697
