16
gdb 19741	3.98859	2.45531	2.226	1.2231	61.92	-0.2328	0.086	0.3188	682.029	0.134123	-383.713539	-383.708239	-383.707295	-383.742653	22.511	
C	-0.0366242251	 1.6105879745	-0.0873350463	-0.115203
O	 1.3399851374	 2.0191823248	 0.027667426	-0.273299
C	 2.044322495	 0.8967025629	 0.5509835684	 0.079578
C	 1.4764866686	 0.5232853887	 1.9490597142	-0.235443
C	 0.4561143286	-0.5055559044	 1.4208632859	 0.059356
O	 1.3498127973	-1.4175454776	 0.70872746	-0.299705
C	 1.4682997575	-0.3292789946	-0.2351987811	 0.074551
C	 0.0102478043	 0.0947193987	 0.0425925187	-0.06123
H	-0.647444867	 2.0913454364	 0.689584778	 0.100025
H	-0.4148499226	 1.9335979972	-1.0635718883	 0.110696
H	 3.1116803185	 1.0983828833	 0.4837649462	 0.083554
H	 2.198389294	 0.0315757301	 2.6040454404	 0.111665
H	 1.0543026181	 1.3957671078	 2.4531217586	 0.107954
H	-0.2271363445	-0.9991528992	 2.1113268654	 0.08174
H	 1.8819347541	-0.5932164608	-1.2067119151	 0.086855
H	-0.7636925041	-0.4792377377	-0.4629805911	 0.088908
