14
gdb 9585	4.28362	1.34788	1.25768	2.0877	68.34	-0.2435	-0.0428	0.2006	974.5579	0.104022	-382.499569	-382.491544	-382.4906	-382.531861	29.604	
O	 0.0588148651	 1.3936367018	 0.0991751774	-0.450286
C	 0.0269419494	 0.0193771576	 0.070318522	 0.357461
C	-0.4492980854	-0.7045409022	 1.2944773654	-0.340464
C	-1.3552414905	-0.7173654962	 0.0837627373	-0.302579
C	-2.5437213064	 0.0722935784	 0.0372246239	 0.343203
C	-3.5501257367	 0.7278287989	-0.0185693924	-0.42581
C	 1.0326356676	-0.5946921503	-0.8228415383	 0.100035
O	 1.7505438581	 0.0803681777	-1.5253871807	-0.284492
H	 0.620111364	 1.6507252111	-0.6495622564	 0.300183
H	 0.0331702543	-1.6335832681	 1.5791046467	 0.13003
H	-0.737698231	-0.0574550934	 2.1141827537	 0.154384
H	-1.39262661	-1.6493145719	-0.4739934822	 0.124645
H	-4.4359311317	 1.3114433128	-0.0635073153	 0.201406
H	 1.0691446231	-1.7034106963	-0.8314104812	 0.092282
