21
gdb 103572	2.32878	1.20033	1.09073	3.0339	78.8	-0.2354	-0.0154	0.2201	1266.7012	0.179267	-424.243421	-424.233276	-424.232332	-424.27822	37.806	
C	-0.0158349119	 1.6898139179	 0.0243285319	-0.414372
C	 0.0180750956	 0.1610885733	 0.1350967656	-0.214771
C	-1.3557964315	-0.5003240534	-0.0087788501	 0.379239
O	-2.2693650065	-0.050950505	 0.9743498756	-0.488779
C	-1.8963655217	-0.5110140004	-1.4855354519	-0.412701
C	-1.4926281945	-1.98975884	-1.5445965917	 0.394252
O	-1.2653155826	-2.7546284619	-2.4386889906	-0.303737
C	-1.3263178932	-2.0678548859	-0.0243898887	-0.124716
C	-0.1921823585	-2.8899684561	 0.5680418204	-0.424327
H	 0.993185548	 2.1061887574	 0.0900730795	 0.125826
H	-0.4480676889	 2.0202435183	-0.9265935322	 0.122719
H	-0.5975036191	 2.1401820038	 0.8366645311	 0.11476
H	 0.6887120156	-0.2431685244	-0.6330142258	 0.10497
H	 0.4414833982	-0.1248037308	 1.1046507746	 0.109602
H	-2.3583563429	 0.9044214487	 0.8940146855	 0.280161
H	-2.9837835139	-0.3889876857	-1.5087532149	 0.130667
H	-1.4386817571	 0.1509318463	-2.2246921251	 0.120719
H	-2.289426727	-2.3879538361	 0.3957326996	 0.117404
H	 0.7809629402	-2.5893567375	 0.1695336424	 0.122276
H	-0.160819712	-2.7972535763	 1.6578941377	 0.125897
H	-0.3339695563	-3.946271682	 0.321544547	 0.134909
