16
gdb 28524	3.21545	1.35327	0.95446	3.204	78.13	-0.1795	0.0042	0.1837	1168.8178	0.126679	-434.131225	-434.123049	-434.122105	-434.163317	32.244	
N	-0.0083180258	 1.3902235491	-0.1263504269	-0.572191
C	 0.026580204	-0.0032016541	-0.0626040642	 0.367965
N	-1.1467318033	-0.6279536953	 0.0170183711	-0.347061
C	-1.1463978125	-1.9663722017	 0.008221363	-0.065212
C	-0.0119499877	-2.7655495785	-0.0648768207	 0.175058
N	-0.0533552168	-4.1678906761	-0.1302935445	-0.601532
C	 1.217198649	-2.0845160028	-0.1319850532	 0.380995
O	 2.3386696537	-2.8580511598	-0.1848308999	-0.451857
C	 1.2427917839	-0.7004265925	-0.1367286089	-0.333397
H	 0.7708221835	 1.8618227668	 0.3095371845	 0.240207
H	-0.8992576837	 1.7533778218	 0.1838369562	 0.248046
H	-2.1236495809	-2.443586911	 0.0692994989	 0.09085
H	-0.8527078122	-4.5656548659	 0.3441568217	 0.242692
H	 0.8029242627	-4.5968470885	 0.194050283	 0.252841
H	 3.1157274541	-2.2906904421	-0.2179095116	 0.299734
H	 2.1875133122	-0.1675170695	-0.2044242487	 0.072862
