21
gdb 69373	3.86793	1.01754	0.93965	1.5491	83.82	-0.2263	0.088	0.3143	1354.9536	0.181774	-387.042832	-387.034115	-387.033171	-387.076353	33.772	
C	 0.0502807708	 1.5016775488	 0.0669883603	-0.486381
C	 0.0816356026	 0.0090029285	 0.0996959014	 0.474557
C	-0.8670634032	-0.8978714375	 0.8229767271	-0.346127
C	 0.6277748051	-1.028575516	 1.0572702776	-0.194596
C	 1.2638325136	-1.6606453376	-0.1787381029	 0.114686
O	 0.6251961031	-0.6677940357	-1.0446273053	-0.338539
C	 2.758898401	-1.5946711353	-0.2612269563	 0.022822
C	 3.573770563	-2.7990800983	 0.1500656354	-0.27558
C	 3.4883044086	-2.4049826651	-1.3014413073	-0.2703
H	 1.0445552119	 1.9120994594	-0.1353275527	 0.125264
H	-0.6274320936	 1.8529320922	-0.7196438152	 0.131527
H	-0.3067142976	 1.8993720347	 1.0213947767	 0.121385
H	-1.4165702132	-0.4484724124	 1.6449266749	 0.109364
H	-1.4059289283	-1.6660364134	 0.273899349	 0.109157
H	 1.0943360816	-0.9304745646	 2.0288831361	 0.095415
H	 0.9162926019	-2.6737419092	-0.4279958485	 0.068137
H	 3.1736932078	-0.6194529641	-0.0224752684	 0.082784
H	 4.5033099696	-2.6297579473	 0.6815668941	 0.112889
H	 3.0386947874	-3.6886059511	 0.4668170035	 0.112927
H	 2.8946993036	-3.0267390728	-1.9633556982	 0.116804
H	 4.3607745742	-1.9644534231	-1.7703059213	 0.113805
