17
gdb 19758	3.66531	2.25411	2.17888	2.3307	65.63	-0.2353	0.0674	0.3027	725.6428	0.1459	-363.852135	-363.846178	-363.845234	-363.881777	24.914	
O	-0.0475596881	 1.441968071	 0.0444667443	-0.443369
C	 0.0248562435	 0.029989658	-0.023491503	 0.130981
C	-1.3678402174	-0.5450176228	-0.2440678558	-0.038108
C	-1.5880361066	-0.611248887	-1.7154867579	-0.025238
C	-0.3330099679	-0.0747600563	-2.3947307322	-0.225958
C	 0.6560853192	-0.5574427309	-1.3143520703	-0.115087
C	 0.2169610078	-2.0223767646	-1.1592230221	-0.159343
N	-1.2468470148	-1.8417190391	-0.9527355746	-0.132462
H	 0.8391067192	 1.7786588323	 0.2071461252	 0.284027
H	 0.5024464369	-0.3803389642	 0.8786267855	 0.065384
H	-2.1591442342	-0.4384414172	 0.4872134172	 0.091268
H	-2.5704211759	-0.5738351713	-2.1691783423	 0.090376
H	-0.1467506959	-0.5252685258	-3.3744256748	 0.096238
H	-0.3510510472	 1.0128899775	-2.4914965273	 0.114332
H	 1.7153090316	-0.3593612233	-1.4763928189	 0.060765
H	 0.3980160875	-2.6345130762	-2.047804277	 0.103983
H	 0.6538977823	-2.5255205802	-0.2907490759	 0.102213
