23
gdb 113699	2.23247	1.30705	1.0573	3.0985	81.67	-0.2441	0.0595	0.3035	1275.9414	0.204421	-425.413387	-425.40326	-425.402316	-425.447719	39.435	
C	-0.3114586301	 1.3672316863	-0.2315983971	-0.413406
C	-0.0739320282	-0.1413027948	-0.0616390999	 0.32529
C	 0.399209757	-0.4231586499	 1.3652844564	-0.418522
O	-1.353303706	-0.8196209772	-0.1654193202	-0.448508
C	 0.8564170727	-0.6225332966	-1.1806435848	-0.035161
C	 2.2887287248	-1.0726053577	-1.0101956942	-0.320234
C	 1.2477652593	-2.0631676806	-1.4673711285	-0.040184
C	 0.8393534329	-3.2379427776	-0.5976989006	-0.08688
O	-0.5397257707	-3.533487005	-0.669064264	-0.433048
H	 0.6283188172	 1.9217866411	-0.1461599335	 0.124063
H	-0.7368694105	 1.585706165	-1.2179403641	 0.105602
H	-1.0061365148	 1.7325075488	 0.5294814844	 0.122008
H	-0.3422027001	-0.0380806108	 2.070661709	 0.125132
H	 0.5131978772	-1.49131041	 1.5557560206	 0.133987
H	 1.3532065862	 0.0717427033	 1.562011572	 0.121283
H	-1.699633045	-0.6518595532	-1.0497331379	 0.282092
H	 0.6871386446	-0.0533191008	-2.0934219595	 0.076888
H	 3.0340192401	-0.7129015082	-1.7113397389	 0.110882
H	 2.6606097914	-1.1932826246	 0.0021545339	 0.115535
H	 1.2509983456	-2.3039006802	-2.5274652909	 0.088063
H	 1.3657370426	-4.1339798564	-0.9469064281	 0.102873
H	 1.1690993102	-3.0742892913	 0.4401093182	 0.077979
H	-1.0024387464	-2.7252217395	-0.3953897522	 0.284271
