19
gdb 13641	6.70558	0.79222	0.74882	1.4012	81.3	-0.2341	0.0649	0.299	1567.2938	0.163816	-327.882194	-327.87248	-327.871535	-327.919003	33.354	
C	-0.0877867557	 1.4684871474	-0.2600675606	-0.495946
C	-0.0345245632	 0.035588674	-0.0061486446	 0.080363
C	 0.0207840122	-1.1496518085	 0.1981497531	 0.048692
C	 0.0548382332	-2.5878818716	 0.451054497	-0.353685
C	-1.3127787751	-3.2371651186	 0.2893333033	 0.002175
N	-1.6714070981	-3.7168688449	-1.0521335027	-0.330458
C	-1.5211409206	-4.6909716817	 0.0437243943	-0.00468
C	-0.4139831473	-5.7111608638	-0.0803550847	-0.391625
H	 0.7117898744	 1.7826119221	-0.9403406144	 0.146206
H	-1.0407560578	 1.757176676	-0.717630359	 0.1448
H	 0.0213716632	 2.0445830886	 0.6657199206	 0.143467
H	 0.7632759746	-3.0668629828	-0.2325831467	 0.132835
H	 0.4226780393	-2.7748119046	 1.4695109355	 0.12192
H	-2.0917051469	-2.7362825108	 0.8622982449	 0.086506
H	-2.6508209999	-3.5365996359	-1.2523488393	 0.229543
H	-2.4416349826	-5.0940837543	 0.4666533262	 0.078869
H	 0.4770345826	-5.2813428973	-0.5427361113	 0.127001
H	-0.1388143402	-6.1108730267	 0.9019769384	 0.114693
H	-0.737419202	-6.5506156166	-0.7051956202	 0.119327
