14
gdb 43231	3.84798	1.24836	0.99724	4.5419	80.06	-0.2554	-0.0791	0.1763	1120.3135	0.100927	-399.526133	-399.518825	-399.517881	-399.557964	28.001	
O	 0.0799884136	-0.0274435756	 0.077942273	-0.323034
C	-0.0149040739	 1.1681582384	 0.0024581562	 0.39112
C	-1.2420402908	 1.9994660902	 0.0038047331	-0.332024
C	-0.9050841485	 3.3063511442	 0.0237448404	 0.211172
C	-1.7551899671	 4.4311589113	 0.0494426153	 0.209702
C	-2.4479258656	 5.4166954069	 0.0663679023	-0.381769
C	 0.5896130119	 3.4211955753	-0.0043840493	-0.154073
C	 1.3460210943	 2.8434930335	 1.1471840578	-0.237849
N	 1.1267378726	 2.0660017537	-0.0898090108	-0.130195
H	-2.2362446204	 1.5799774199	 0.0594410748	 0.134823
H	-3.0703285168	 6.2776359886	 0.0831227474	 0.209114
H	 1.0444751018	 4.1836086374	-0.6288399375	 0.123785
H	 2.3739326626	 3.1468720707	 1.3220660848	 0.139963
H	 0.7820477761	 2.5587899256	 2.0317208627	 0.139264
