17
gdb 78734	4.8111	1.13345	1.05756	4.716	74.74	-0.2438	-0.0262	0.2176	1155.5716	0.134614	-421.766762	-421.759032	-421.758087	-421.798979	29.621	
C	-0.1669289096	 1.433629615	 0.0348559597	-0.411546
C	 0.0501703216	-0.0737648471	-0.0007477391	 0.005365
C	 0.8989710499	-0.5587410336	-1.1816503815	-0.161856
C	 2.1775839207	-0.4410774461	-0.3933098331	-0.192901
C	 1.2416403307	-0.5759878176	 0.8679461716	 0.054899
O	 1.1850490743	-2.0224408866	 0.7234395246	-0.309329
C	 1.6233760064	-1.826954259	-0.6082699701	 0.38592
C	 2.1086286185	-2.9088432258	-1.4663760551	 0.04653
O	 2.1129432233	-4.0791962799	-1.1772974136	-0.262455
H	 0.7725579198	 1.9763225764	-0.116457434	 0.119616
H	-0.8641216258	 1.7505586778	-0.7471176794	 0.124948
H	-0.5869085361	 1.7412038866	 0.9984001985	 0.122726
H	-0.882240962	-0.6170925875	 0.1850733088	 0.087675
H	 0.7430805612	-0.4218118047	-2.2444853557	 0.105168
H	 3.1531916098	-0.020640416	-0.5936586788	 0.11528
H	 1.424751194	-0.2421503926	 1.887031977	 0.097325
H	 2.4849669732	-2.5381604394	-2.4487054498	 0.072634
