17
gdb 124839	4.42042	0.95984	0.92973	4.3362	70.33	-0.2809	-0.0181	0.2629	1304.036	0.136395	-451.310126	-451.301424	-451.300479	-451.344648	30.655	
C	-0.0540787645	 1.5471974624	 0.0510586147	-0.403892
C	-0.0633077222	 0.0181429984	 0.037771903	 0.1157
O	 0.4800469914	-0.5070221557	-1.1632339023	-0.426982
C	 0.8020627733	-0.5400261339	 1.1685254323	-0.132918
N	 0.70903714	-1.9873931824	 1.2669498499	 0.152595
N	-0.4162408026	-2.6243820792	 1.5685137493	-0.255038
C	-0.0156639796	-3.8890561216	 1.525287691	 0.079309
N	 1.293439807	-4.0135016649	 1.2151946324	-0.211714
N	 1.7412380971	-2.792438466	 1.0522431275	-0.115975
H	 0.9651770573	 1.9272435647	-0.069971052	 0.131687
H	-0.6599981039	 1.9352847772	-0.7739835865	 0.117321
H	-0.4708582713	 1.9416332683	 0.9835843925	 0.122256
H	-1.0896330479	-0.3468644891	 0.1910004484	 0.099643
H	-0.1163484714	-0.2898593963	-1.886113691	 0.289554
H	 1.8543688013	-0.3175383855	 0.983288988	 0.157405
H	 0.4981841349	-0.1092585867	 2.1258475476	 0.136511
H	-0.6689388889	-4.7234564998	 1.7222249252	 0.144539
