17
gdb 96293	2.14775	1.82318	1.10076	4.3208	64.8	-0.28	0.0246	0.3047	1087.8308	0.136174	-496.130578	-496.122389	-496.121445	-496.163861	30.141	
C	 0.2110204424	 1.4501724229	 0.2103835045	-0.398235
C	-0.1150509054	-0.003446141	-0.1089167823	 0.092841
C	 0.8552795098	-0.5855400403	-1.1307572092	-0.091227
O	 0.4720510934	-1.8560834343	-1.6359947933	-0.242264
C	-0.040589911	-2.7046044037	-0.65917991	 0.021789
O	 0.7750526033	-2.7445541508	 0.5058414827	-0.24285
C	 0.6019529001	-1.8084420779	 1.4764056739	 0.453873
O	 1.0408992852	-1.9769417808	 2.5718120686	-0.345139
O	-0.1238721502	-0.7091102358	 1.1647243461	-0.273942
H	 1.2470559144	 1.5507886679	 0.5477215349	 0.137076
H	 0.0653525836	 2.0774824377	-0.6741001749	 0.124989
H	-0.4440196264	 1.8102244521	 1.0061527709	 0.145429
H	-1.1353051461	-0.078597722	-0.5032266513	 0.110342
H	 0.8977319403	 0.0830133745	-1.994762908	 0.128282
H	 1.8629368781	-0.6341913573	-0.6941506264	 0.126258
H	-1.0631096004	-2.4288711353	-0.3691499934	 0.114005
H	-0.0254785311	-3.7141518858	-1.0716989927	 0.138773
