16
gdb 28025	4.04067	0.9376	0.81022	1.3827	77.66	-0.1872	0.0339	0.2211	1382.1136	0.123621	-400.739244	-400.730494	-400.72955	-400.773253	32.526	
N	-0.0170253556	 1.3863547775	 0.0553037535	-0.59335
C	-0.0822884824	 0.0009962636	 0.0254848853	 0.400065
C	-1.0802218781	-0.8898784405	-0.2343804878	-0.380303
C	-0.5120544817	-2.192105324	 0.0036441067	 0.296502
C	-1.2093555965	-3.5219792572	-0.1141269773	-0.474798
C	-1.8138537507	-3.7545469173	-1.4253688419	 0.319
C	-2.3185515862	-3.9384462478	-2.5002429251	-0.465198
C	 0.7723665981	-1.9860636485	 0.3802979782	-0.138964
O	 1.0502466339	-0.6379873795	 0.4019500295	-0.178646
H	 0.9045387489	 1.7374384222	-0.1729465759	 0.255903
H	-0.7202640862	 1.8225758058	-0.5245344922	 0.256613
H	-2.0810932812	-0.6668128763	-0.56691029	 0.103012
H	-0.4964923215	-4.3257084128	 0.1063017694	 0.135381
H	-1.9940098198	-3.5981410921	 0.6517827906	 0.141089
H	-2.7589084314	-4.1051349989	-3.4516867536	 0.1944
H	 1.5868031602	-2.6354709241	 0.6517915307	 0.129296
