13
gdb 25396	3.80784	1.20702	0.9165	0.5505	71.07	-0.2592	-0.1041	0.1551	1155.4288	0.09059	-452.814725	-452.807528	-452.806584	-452.846859	26.172	
O	-0.145466158	 0.0014322885	-0.0056642296	-0.208027
C	-0.0138477437	 1.1922420512	 0.0030802338	 0.109256
C	 1.318236088	 1.8952517702	-0.0042993334	 0.321756
N	 2.4248422257	 1.2156365636	-0.0212470277	-0.290568
C	 3.5783984275	 1.9568337487	-0.0262707048	 0.00663
C	 3.6253459399	 3.3169223914	-0.0147348952	-0.214574
C	 2.4032568701	 4.0984837607	 0.0042874917	 0.411943
O	 2.276485129	 5.3048855379	 0.0167130632	-0.374682
N	 1.2656160129	 3.253561364	 0.0082044236	-0.384186
H	-0.8875422851	 1.8842537859	 0.0177384135	 0.086856
H	 4.4953605049	 1.3744750857	-0.0405996627	 0.132974
H	 4.5616906721	 3.8602615724	-0.0192649082	 0.133651
H	 0.3733219567	 3.7350804998	 0.0214792758	 0.268971
