19
gdb 14020	5.29543	1.14246	1.06948	1.9712	72.18	-0.2416	0.0618	0.3034	1168.4669	0.165184	-365.01487	-365.00656	-365.005616	-365.048048	30.299	
C	 0.3239419035	 1.514234714	 0.2021970232	-0.37548
C	-0.2483861141	 0.1391351823	-0.1581612392	-0.182264
C	 0.4293790456	-0.469466448	-1.3644129344	-0.075417
N	 1.7421651446	-1.1165115114	-1.123989115	-0.37537
C	 0.6060151769	-1.9245041076	-1.5413338943	 0.274071
C	 0.0425618814	-3.1165339238	-0.7743094106	-0.129394
O	-0.13805861	-3.8425140118	-2.0138437247	-0.276326
C	 0.4513764486	-2.7824922519	-2.7947056946	-0.146991
H	 1.3941845386	 1.4382908063	 0.4170306303	 0.131209
H	 0.1951964047	 2.2260872454	-0.6209698172	 0.11063
H	-0.1720587923	 1.9317299707	 1.0834691142	 0.113139
H	-0.1312400855	-0.5435175367	 0.6910297289	 0.104683
H	-1.3253812921	 0.2185993783	-0.3559326932	 0.098038
H	 0.3321611432	 0.1101640426	-2.2840208557	 0.081203
H	 2.375050209	-0.9601446089	-1.9054264847	 0.229361
H	 0.7573294866	-3.6084355737	-0.1030866388	 0.109582
H	-0.9076617259	-2.9607098485	-0.2488760014	 0.104733
H	-0.2312561793	-2.406942483	-3.5681021848	 0.104748
H	 1.3945644965	-3.0931683144	-3.2672135581	 0.099844
