16
gdb 16732	5.08659	1.41649	1.28328	5.4544	68.37	-0.2564	0.0361	0.2924	949.9404	0.133426	-342.78515	-342.778352	-342.777407	-342.816538	25.919	
N	 0.0437626841	-1.1564196118	 0.0353322694	-0.326892
C	 0.0168935332	-0.0007209831	 0.0223894944	 0.264509
C	-0.0134779972	 1.4583469466	 0.0112036496	-0.124361
C	-0.6862698883	 2.0854025476	 1.2743746597	-0.226605
C	 0.0106688847	 3.4303646725	 1.4370021994	-0.045719
N	 1.3339593396	 3.3107763758	 2.0804394082	-0.323375
C	 1.249088359	 3.4497951707	 0.6131730872	-0.04572
C	 1.397564059	 2.118092311	-0.1118165826	-0.226597
H	-0.60008046	 1.7621115021	-0.8634461555	 0.125246
H	-1.7640574456	 2.1883813987	 1.1285594422	 0.115167
H	-0.5192317867	 1.4622181718	 2.1562729057	 0.137918
H	-0.5789696905	 4.3247990969	 1.6087416998	 0.094933
H	 1.5938969679	 4.2044859787	 2.4922279043	 0.23348
H	 1.6157405014	 4.3592308186	 0.1487670498	 0.094932
H	 2.1598372079	 1.5042426222	 0.3741201186	 0.137919
H	 1.6771544015	 2.2423719016	-1.1605674405	 0.115166
