15
gdb 127215	3.0573	1.35168	0.99981	4.4685	63.25	-0.2531	-0.016	0.2372	1129.2441	0.112513	-491.099865	-491.091334	-491.09039	-491.133481	30.002	
C	-0.4849773414	 1.2340252586	 0.321199942	-0.357743
N	-0.0461741363	-0.1407188162	 0.1618574517	-0.181636
C	-0.0299545399	-0.8062843346	-1.0575061329	 0.502459
O	-0.3471767144	-0.403903731	-2.1415661132	-0.399421
O	 0.4316118081	-2.0637877733	-0.7710192351	-0.235178
N	 0.6903357203	-2.1795087585	 0.6154887857	-0.180766
C	 0.3989209702	-1.0208840429	 1.1117089248	 0.372847
C	 0.5021381456	-0.7169437193	 2.5738277138	-0.186615
O	-0.7529825984	-0.3570214618	 3.1308927107	-0.402745
H	 0.3669238756	 1.9101701291	 0.445761095	 0.145487
H	-1.0209896868	 1.5074136094	-0.5890191107	 0.17518
H	-1.1408635543	 1.3115999492	 1.1894251416	 0.165918
H	 0.9535167834	-1.5869801457	 3.0650387839	 0.143471
H	 1.1594121585	 0.1436773407	 2.7350606762	 0.13868
H	-1.3227535803	-1.1338448137	 3.1031434166	 0.300061
