21
gdb 119356	4.99395	0.84448	0.82908	1.1747	80.08	-0.2441	0.0773	0.3214	1481.2953	0.181193	-424.175066	-424.165857	-424.164913	-424.209355	35.142	
C	 0.025703223	 1.4690928713	-0.0986253986	-0.386532
C	 0.0109443655	-0.0469585039	-0.012616607	-0.064556
O	 0.6730975836	-0.5626475405	-1.1604223297	-0.299849
C	 0.730510977	-1.931861974	-1.2232710306	 0.461338
C	-0.4531763391	-2.9574973618	-1.3067366017	-0.326682
C	 0.8564339285	-3.7714953268	-1.4122949352	 0.404762
O	 0.8679662908	-5.1429977815	-1.5593479252	-0.47127
C	 1.3987728381	-2.6834416916	-2.3960084463	-0.350686
C	 1.4367380478	-2.9223384331	-0.2366995596	-0.361974
H	 1.0533560127	 1.8421413052	-0.1279241872	 0.127529
H	-0.4870733053	 1.807013234	-1.0035675325	 0.128163
H	-0.477884683	 1.9040763243	 0.7698164601	 0.115102
H	 0.5206925566	-0.3908379281	 0.9001639333	 0.095343
H	-1.0218998564	-0.4249725717	 0.0255892311	 0.096372
H	-1.0469092624	-3.1145284118	-0.4028296669	 0.092243
H	-1.0732938397	-2.9145813761	-2.2055370258	 0.095618
H	 1.7841416752	-5.4370874275	-1.6014081563	 0.283819
H	 0.9035755842	-2.6107554676	-3.3673776997	 0.096326
H	 2.4851190903	-2.5852163268	-2.4776667503	 0.08668
H	 2.5261611075	-2.8467706166	-0.1712617437	 0.085909
H	 0.9746372952	-3.0734085952	 0.7421133316	 0.092344
