19
gdb 41125	2.79013	2.23273	1.70437	0.3149	83.86	-0.2047	0.0028	0.2075	872.3773	0.161174	-348.633895	-348.627581	-348.626637	-348.663882	28.222	
C	-0.0192792934	 1.504599436	-0.155685583	-0.325848
C	 1.5555261466	 1.5125110524	 0.0566786953	-0.32081
C	 1.4022553119	 0.1797104143	 0.8616177553	 0.224139
C	 1.0733499341	 0.2513151722	 2.340180921	-0.15928
C	 0.101981212	-0.6488104026	 2.515191792	-0.101004
C	-0.1156437814	-1.2222783251	 1.1266257888	-0.141292
C	 1.3325957234	-1.3590643449	 0.4498487199	-0.098967
C	 0.726983017	-0.9825222336	-0.9087951641	-0.280556
C	 0.0614349668	-0.0164692722	 0.1059838277	 0.27527
H	-0.5173921805	 2.0432507065	 0.6550403938	 0.116518
H	-0.4174920379	 1.841653876	-1.1164174313	 0.099172
H	 2.1105975112	 1.4309958343	-0.8793304237	 0.113983
H	 1.9573361683	 2.3546500699	 0.62575906	 0.101572
H	 1.5570877788	 0.8920724452	 3.0656517029	 0.09475
H	-0.4125853425	-0.9482240171	 3.4174015677	 0.099672
H	-0.8525442971	-2.0127596905	 0.9649425954	 0.061492
H	 2.0626278859	-2.1493077307	 0.6662167107	 0.06274
H	 1.4052862306	-0.549921579	-1.6480164081	 0.091154
H	 0.068789896	-1.7191556609	-1.3778244405	 0.087295
