21
gdb 109692	2.42359	1.14628	0.96531	2.8988	75.6	-0.2385	0.0636	0.3021	1339.0821	0.179686	-461.329101	-461.318487	-461.317542	-461.364641	38.323	
C	 0.1138696942	 1.1355810772	-0.3151240576	-0.236753
O	-0.1849221175	 0.0403100169	 0.5331153218	-0.257859
C	-1.4213203932	-0.55554419	 0.2795117953	 0.015863
C	-1.5105119621	-1.7020878155	-0.7270591495	-0.125032
C	-0.3317652397	-2.108696832	-1.5829740055	-0.407546
C	-1.5084536276	-1.9699522616	 0.7683232849	 0.341249
O	-0.3477053965	-2.4934314312	 1.3640209242	-0.48247
C	-2.736440093	-2.492110207	 1.473392484	-0.10863
O	-2.700828085	-2.2054608695	 2.8572548265	-0.421789
H	 1.0940088124	 1.5144589573	-0.0171035504	 0.131832
H	 0.1456568697	 0.8341364853	-1.3697602725	 0.119881
H	-0.6292901707	 1.9370701029	-0.1997770696	 0.116697
H	-2.2746156215	 0.1123666679	 0.4028825059	 0.093151
H	-2.4809657619	-1.8002119103	-1.2096392212	 0.08374
H	 0.6131299899	-1.9362583838	-1.0647052617	 0.122618
H	-0.3824275933	-3.1746164938	-1.8275669481	 0.124189
H	-0.3135476728	-1.5503398805	-2.5247849675	 0.113325
H	 0.2790244069	-1.7602347698	 1.4329694346	 0.30066
H	-3.6351960273	-2.0191765647	 1.0643071331	 0.100114
H	-2.8178245657	-3.5767591804	 1.2902475638	 0.09096
H	-1.8174235555	-2.4662978575	 3.1458003495	 0.285798
