18
gdb 62182	5.16713	0.59736	0.55521	0.3375	78.18	-0.2684	0.0068	0.2752	1886.7753	0.147056	-398.145624	-398.135561	-398.134617	-398.181865	34.523	
C	-0.0527577079	 1.582070461	 0.0327457025	-0.384535
C	-0.0203228639	 0.0423977318	 0.0337956802	-0.162482
C	 0.7477643423	-0.5369481907	 1.2435541692	-0.133193
N	 2.1494085481	-0.1400345021	 1.1846079808	-0.30201
C	 2.8936844393	-0.5148657471	 2.3827163718	-0.264116
C	 4.3028267709	-0.1312183363	 2.2629226495	 0.256405
N	 5.417676068	 0.1507132836	 2.157931405	-0.290183
C	-1.3761502408	-0.5146842369	 0.0057929599	 0.266007
N	-2.445882743	-0.9518853698	 0.0007075446	-0.315696
H	 0.9687128417	 1.9618874426	 0.0876281934	 0.147946
H	-0.5313118917	 1.9610798888	-0.8729752656	 0.137964
H	-0.611240566	 1.9544294251	 0.8963229356	 0.136027
H	 0.4822850426	-0.3017219495	-0.8808792569	 0.128418
H	 0.3146614323	-0.1300611579	 2.1652748423	 0.128555
H	 0.604602898	-1.6300680296	 1.2796539642	 0.111654
H	 2.5950530307	-0.5541950654	 0.3712223091	 0.236062
H	 2.4632656882	 0.0106443602	 3.244027002	 0.163572
H	 2.8531116313	-1.5930059179	 2.6214029525	 0.139607
