20
gdb 63541	3.13638	1.29697	1.161	2.6569	78.98	-0.2319	0.0731	0.3051	1155.9003	0.169015	-403.090123	-403.081288	-403.080344	-403.123245	33.981	
C	-0.0664174882	 1.5335555381	-0.0158337655	-0.456392
C	-0.110479014	 0.0247963399	 0.081939457	 0.273478
C	-1.2413240441	-0.654651656	-0.6568432764	-0.456112
O	 1.1804262999	-0.6221398303	-0.0600328344	-0.331362
C	 0.5481935228	-0.6552299366	 1.2055257503	 0.408458
C	 1.2604053178	-0.1708660328	 2.4741296619	-0.265931
N	 1.0115457382	-1.495674059	 3.157369702	-0.125754
C	-0.4508245712	-1.6560469162	 3.1978074153	-0.239353
C	 0.2432874943	-1.9495830636	 1.9241305996	-0.139327
H	 0.7864181224	 1.9381411899	 0.5340455281	 0.128535
H	 0.0234961605	 1.8460114908	-1.0620521212	 0.127412
H	-0.9838844698	 1.9759092146	 0.3874182072	 0.119837
H	-1.1865220942	-0.4316040851	-1.7280399456	 0.126948
H	-1.1982988801	-1.7387090128	-0.5309804637	 0.128199
H	-2.2109764012	-0.3001295372	-0.2907056759	 0.120381
H	 2.3306678222	-0.0284919102	 2.3102335902	 0.13004
H	 0.8482721508	 0.6903776925	 3.010905577	 0.105218
H	-0.7704814018	-2.4976924537	 3.8048665279	 0.125894
H	-1.0811511072	-0.7719202549	 3.2783320954	 0.110887
H	 0.3529200528	-2.9459709873	 1.5100216708	 0.108945
