18
gdb 58793	3.32754	1.12589	1.02484	3.84	73.32	-0.2395	-0.018	0.2215	1212.6489	0.146166	-439.059344	-439.050444	-439.0495	-439.093152	33.197	
C	-0.3017166246	 1.4381678455	 0.0430120459	-0.42211
C	 0.0499447828	-0.0483632189	-0.0532150071	 0.033581
O	 0.8531788976	-0.3314262928	-1.19418014	-0.439687
C	 0.8418345015	-0.508259006	 1.1380500594	 0.374421
C	 2.316552041	-0.177732831	 1.4350981866	-0.43468
C	 2.4373538246	-1.640334383	 1.9566277645	 0.42204
O	 3.3675442074	-2.3209061106	 2.2784589033	-0.307698
C	 0.9752501646	-1.9174945053	 1.6966479969	-0.223776
N	 0.1529568708	-0.8770059195	 2.3518310233	-0.366101
H	 0.606472508	 2.047585353	 0.0854902659	 0.127847
H	-0.8857806362	 1.7526259033	-0.8294068337	 0.11083
H	-0.9029069598	 1.6337929296	 0.9358573158	 0.13436
H	-0.8814466	-0.6351344635	-0.0745744545	 0.08092
H	 0.4263806328	 0.0590627152	-1.9630050894	 0.28686
H	 2.9322326208	-0.0553323208	 0.5400616836	 0.152455
H	 2.5063300702	 0.6466769932	 2.1292270243	 0.114654
H	 0.4975820403	-2.8491546369	 1.4186084068	 0.116207
H	 0.5922500281	-0.4997851516	 3.1897753482	 0.239877
