18
gdb 56790	2.94879	1.20315	0.95927	1.3282	78.68	-0.2463	0.0193	0.2656	1265.3981	0.146875	-401.934875	-401.925681	-401.924737	-401.969802	32.877	
C	 0.0314889999	 1.6260737323	 0.1635354268	-0.380578
C	-0.0597645937	 0.099221134	-0.0051762026	-0.242302
C	 0.691372798	-0.6087848885	 1.0344578377	 0.339036
C	 1.3183376959	-1.1572734025	 1.8998827149	-0.48162
C	-1.4936637311	-0.3785941801	-0.0326955879	 0.430116
N	-2.522874684	 0.3203341621	 0.2119952666	-0.313277
C	-3.6806720153	-0.5719065975	 0.0461661592	-0.186727
C	-3.0654336414	-1.9503919705	-0.3122669161	-0.111564
O	-1.6455020917	-1.6866653485	-0.3724429751	-0.254809
H	 1.078532656	 1.937162825	 0.1527902781	 0.121197
H	-0.5029351537	 2.126862724	-0.6464324569	 0.127875
H	-0.4203674101	 1.9319065449	 1.108457341	 0.145417
H	 0.3725256837	-0.1811480553	-0.9763550409	 0.129408
H	 1.870627198	-1.6534871021	 2.6589647738	 0.198685
H	-4.2651500719	-0.6012546478	 0.9712340083	 0.120005
H	-4.3374364104	-0.1858467038	-0.7407740451	 0.117426
H	-3.2390979388	-2.7165430704	 0.448676103	 0.121966
H	-3.3830359794	-2.3374359454	-1.2840424048	 0.119747
