20
gdb 104540	2.52725	0.98712	0.83922	1.9559	83.38	-0.237	0.0495	0.2865	1480.5639	0.168992	-403.092965	-403.082369	-403.081425	-403.130446	36.914	
C	 0.3325719188	 1.3986336353	 0.6658960482	-0.49748
C	 0.1808438662	 0.0137989276	 0.2410820583	 0.037605
C	 0.0574250397	-1.1240604135	-0.1341153324	 0.096166
C	-0.076334729	-2.524468664	-0.5340299633	-0.437639
C	-1.443610256	-3.1293816227	-0.1942583985	 0.293029
C	-2.5500834551	-2.8662387516	-1.1952954514	-0.095301
O	-2.7299598152	-1.4891552242	-1.4660742208	-0.414867
C	-1.4981144559	-4.3669459082	 0.624391308	-0.287596
N	-1.8905569901	-3.0716922224	 1.2103880044	-0.345567
H	 1.3634748934	 1.6120483112	 0.9696872595	 0.147086
H	 0.0744263292	 2.0927644967	-0.1414581176	 0.15106
H	-0.3159837748	 1.6276340977	 1.5187984462	 0.14674
H	 0.1010147428	-2.6232601542	-1.6122627096	 0.136221
H	 0.7094805138	-3.1107230604	-0.0404347223	 0.122707
H	-2.3036977317	-3.3323372876	-2.1568889443	 0.103421
H	-3.474147252	-3.3319787243	-0.8210799318	 0.090651
H	-2.8206072254	-1.0436920903	-0.6161271013	 0.290551
H	-2.3125445875	-5.0752006923	 0.4942449814	 0.118096
H	-0.556700584	-4.816444015	 0.9297530063	 0.111634
H	-1.1399526871	-2.7058910577	 1.7924010207	 0.233481
