18
gdb 74096	2.60376	1.60398	1.15359	5.0947	79.33	-0.2448	-0.0447	0.2	1095.9215	0.147115	-401.975109	-401.966694	-401.96575	-402.007752	32.028	
C	 0.037233676	 1.4856839058	 0.0740151515	-0.504234
C	 0.0162202312	-0.0049455061	-0.00184208	 0.280848
C	-0.0304435491	-0.7834255288	-1.0945715756	-0.315717
C	-0.002851	-2.2112217202	-0.7033414878	 0.37272
O	 0.0644645723	-3.1858192617	-1.4048789653	-0.328814
N	-0.047967373	-2.2673436749	 0.7497256404	-0.16663
C	 1.2033239753	-1.7820088626	 1.3700383854	-0.27903
C	 0.017408044	-0.8795502654	 1.2208924571	 0.228408
C	-0.8241249552	-0.4939781363	 2.4157799138	-0.482797
H	 0.920823368	 1.8378103696	 0.6199309397	 0.141339
H	 0.0402410203	 1.9383817619	-0.9197661524	 0.139001
H	-0.8362739237	 1.8620715227	 0.6198367234	 0.144439
H	-0.0062271569	-0.4649923543	-2.1283759127	 0.119366
H	 1.4300377815	-2.2120042235	 2.3423499384	 0.12808
H	 2.0599225964	-1.6219450187	 0.7201892478	 0.129506
H	-0.4580640812	 0.4316742355	 2.8721283222	 0.123128
H	-1.8687779122	-0.3429696209	 2.1248855785	 0.132114
H	-0.7947087336	-1.282800552	 3.1706793657	 0.138272
