19
gdb 72820	2.62275	1.52518	1.31302	3.52	75.02	-0.2203	-0.019	0.2013	1056.0483	0.160288	-419.198324	-419.190053	-419.189109	-419.23109	31.983	
C	-0.2849594558	 1.5657803054	 0.0310475801	-0.44223
C	 0.0458318771	 0.0831451643	 0.0100526903	 0.311089
C	-1.1271818602	-0.8930495916	 0.3561048701	-0.207585
N	-0.233045926	-1.6233866615	 1.2828807556	-0.323059
C	 0.8028076497	-0.5565216951	 1.2069439833	-0.156081
C	 2.0758970199	-1.1674991725	 0.6293341481	 0.453884
O	 3.0695688723	-1.4842390274	 1.2264726551	-0.31773
C	 1.8185432471	-1.3208448599	-0.8719575722	-0.279776
N	 0.8647999783	-0.2507226661	-1.1655379721	-0.35733
H	 0.6318892055	 2.1605279054	-0.0069155334	 0.126631
H	-0.8914614705	 1.8338690669	-0.842343805	 0.115116
H	-0.8500444865	 1.8392219214	 0.9276140433	 0.110781
H	-1.9728992489	-0.3867029938	 0.8395948434	 0.094184
H	-1.5122448559	-1.5059983444	-0.4682826532	 0.094504
H	-0.5963676012	-1.8019409207	 2.2103308448	 0.229243
H	 0.9673636595	 0.0450124934	 2.1045106454	 0.07968
H	 2.7493349573	-1.2054177799	-1.4351238752	 0.126772
H	 1.4393603893	-2.34174633	-1.044882549	 0.121968
H	 0.3016679992	-0.4311440639	-1.9875249493	 0.21994
