14
gdb 43521	2.44502	1.49284	1.08684	2.1578	68.91	-0.2798	-0.0202	0.2596	1086.3732	0.100342	-436.702956	-436.695063	-436.694119	-436.736183	29.038	
N	-0.0440425168	 1.2596090752	-0.2752130612	-0.501549
C	-0.0424394041	 0.0270370668	-0.0502744697	 0.406001
O	 1.0897682437	-0.7323049878	 0.1827467378	-0.211127
C	 0.805649373	-2.0895467696	 0.1941434058	 0.432586
O	 1.6462379511	-2.9012261943	 0.41347068	-0.300051
C	-0.6631067936	-2.2831602871	-0.1427214716	-0.372851
C	-1.2778340563	-0.875256769	 0.0113276713	-0.256602
C	-1.9848481115	-0.7044572323	 1.2760388338	 0.341339
C	-2.5583925496	-0.5924182812	 2.3249983357	-0.461434
H	 0.9020497297	 1.6434518712	-0.2594506409	 0.24201
H	-0.7256477284	-2.6402246282	-1.1756197703	 0.15723
H	-1.1068894122	-3.0382936963	 0.5046842924	 0.164729
H	-1.9397041931	-0.6134184762	-0.8180305916	 0.148177
H	-3.0693436119	-0.4766987912	 3.2491021286	 0.211542
