15
gdb 28085	6.51886	0.81551	0.74046	4.1629	71.55	-0.1941	0.0236	0.2177	1443.3263	0.112539	-453.963667	-453.955131	-453.954187	-453.997372	31.064	
O	 0.3629824876	 1.2828549309	 0.1363812311	-0.432602
C	 0.1361234272	-0.0453375333	-0.0033784272	 0.41759
C	 0.0643801087	-0.8781659849	-1.0957531839	-0.425477
C	-0.1964418266	-2.1766135819	-0.5668268717	 0.350952
O	-0.3730201737	-3.2833464682	-1.359858634	-0.214059
C	 0.2546413655	-4.4271542532	-0.9920963962	 0.106423
N	-0.0360746131	-5.5103269321	-1.5676499174	-0.435836
C	-0.2761790613	-2.1035798239	 0.8010647853	-0.211342
N	-0.0613932139	-0.7715000479	 1.1302225305	-0.294129
H	 0.4720004383	 1.6674546015	-0.7384862858	 0.311418
H	 0.1866861057	-0.6165461501	-2.1339429037	 0.1054
H	 0.9929857399	-4.2649371413	-0.1971140029	 0.093856
H	 0.5464249505	-6.2606548429	-1.2016989233	 0.229863
H	-0.5005004721	-2.8441909205	 1.54816398	 0.127046
H	-0.0659944128	-0.3808022522	 2.0558212591	 0.270897
