16
gdb 31892	3.53919	1.10058	0.84766	2.6293	88.45	-0.1776	-0.0011	0.1764	1320.3101	0.123482	-400.742154	-400.733336	-400.732392	-400.775958	32.328	
C	-0.2354080583	 1.4695083159	 0.0968385808	-0.332138
N	-0.0994969727	 0.057158362	-0.2365866641	-0.404064
C	-1.1646137378	-0.7940133416	-0.0744506734	 0.419346
C	-1.2514520349	-2.1581801191	 0.0617924794	-0.270471
C	-2.6437225755	-2.4497460649	 0.1031664037	-0.273547
C	-3.3184825863	-1.2655357209	-0.0018928467	 0.196456
O	-2.3889434617	-0.2333621004	-0.1111545609	-0.209189
C	-4.6754392671	-0.9249045704	-0.0109501204	 0.248372
C	-5.8480613652	-0.6406285012	-0.0187395305	-0.433066
H	 0.6948837585	 1.9777495736	-0.1650774928	 0.127897
H	-1.0436125486	 1.9073645236	-0.4919054201	 0.157089
H	-0.4515551413	 1.6481642488	 1.1600934599	 0.123186
H	 0.777150214	-0.3593406594	 0.0374095187	 0.248727
H	-0.4290625252	-2.8523888768	 0.1211960875	 0.100669
H	-3.1036161521	-3.4203354518	 0.2030796131	 0.114786
H	-6.8802014158	-0.3936061173	-0.0243518943	 0.185947
