20
gdb 91093	2.89319	1.559	1.43322	1.4808	77.06	-0.2285	0.0682	0.2967	1016.2417	0.173032	-403.110956	-403.103452	-403.102508	-403.14284	30.177	
C	 0.161269643	 1.5530799171	-0.2325439889	-0.41469
C	 0.0855429541	 0.0656639025	 0.0386370887	 0.156476
O	 0.8078783394	-0.7357074985	-0.9308159147	-0.312349
C	 1.3824399577	-1.5625959905	 0.1138687128	 0.110117
C	 2.8961484804	-1.5542561674	 0.2168447191	-0.046131
C	 3.5821825538	-0.2940353676	-0.162017589	-0.24545
N	 3.3221148686	-0.5809759616	 1.2498370396	-0.095297
C	 2.1098547737	 0.0527126406	 1.8214914832	-0.191527
C	 0.8500931733	-0.6051376119	 1.2099517287	-0.111942
H	 1.1891592729	 1.9251707394	-0.2315964658	 0.124044
H	-0.2748802367	 1.7712502697	-1.2125837923	 0.131037
H	-0.4077566705	 2.1070638182	 0.5221458066	 0.118609
H	-0.9704367408	-0.2427905492	 0.0504264945	 0.074958
H	 0.972486852	-2.577484372	 0.0805057411	 0.074899
H	 3.4205248123	-2.5051505209	 0.1996573252	 0.088522
H	 4.6319438267	-0.3099047806	-0.441793752	 0.112998
H	 2.9810590279	 0.447748615	-0.6797490695	 0.126604
H	 2.1323671831	-0.1229696935	 2.9011129558	 0.110423
H	 2.1462939613	 1.1367497546	 1.6734209768	 0.108978
H	 0.2075003578	-1.0343432037	 1.9798941702	 0.079722
