18
gdb 39143	3.48778	1.37764	1.23366	2.8313	70.88	-0.2253	0.0712	0.2965	1047.0227	0.148837	-439.0341	-439.026643	-439.025699	-439.066218	28.938	
C	-0.0015792053	 1.485840922	-0.0639509559	-0.11808
O	 1.4365530202	 1.556640936	 0.0544277859	-0.272189
C	 1.5236215227	 0.1638031868	 0.397098507	-0.132163
C	 0.0328906709	-0.0590408266	-0.0061418097	 0.269845
N	-0.9154197041	-0.7265949774	 0.8651415813	-0.372218
C	-1.149388151	-2.1056035991	 0.4187433424	-0.202722
C	-0.8390246583	-2.0458866559	-1.0625889853	 0.040218
O	-1.4745037555	-0.9579915202	-1.7417056035	-0.253652
C	-0.1161745753	-0.7975999233	-1.3193451232	 0.001503
H	-0.5117785986	 1.9355550954	 0.7984703123	 0.097354
H	-0.3707334165	 1.9472378185	-0.9859056164	 0.115103
H	 2.2984473725	-0.3604384108	-0.1767854053	 0.100175
H	 1.7084122477	 0.0085228218	 1.471232699	 0.086264
H	-0.6916903191	-0.6462927175	 1.8476472041	 0.223529
H	-0.4830793945	-2.8532295618	 0.8814655442	 0.092233
H	-2.1836879561	-2.4072161694	 0.6230382682	 0.116927
H	-0.7030385754	-2.9562990924	-1.638962405	 0.101387
H	 0.6189555859	-0.659720126	-2.10727833	 0.106487
