17
gdb 33171	3.3382	1.05234	0.85425	1.8886	69.8	-0.2043	0.0462	0.2506	1317.0186	0.137107	-455.175253	-455.166504	-455.16556	-455.209638	31.739	
O	 0.0882438964	 1.4416322133	-0.148781301	-0.406466
C	 0.0764291477	 0.0273369498	-0.1206508355	-0.068017
C	-1.3523033436	-0.5192764602	 0.0246439703	-0.20017
N	-1.3979188159	-1.9694514829	 0.0039366266	-0.045559
C	-1.5379575497	-2.8047640191	-1.1046272548	-0.138812
C	-1.4670793325	-4.0764035875	-0.6196240308	-0.098432
N	-1.2791763179	-4.0706039631	 0.7539886845	-0.374355
C	-1.2413649579	-2.8034958599	 1.0651935963	 0.437195
O	-1.0701581533	-2.2807417864	 2.2957417492	-0.433989
H	-0.1017914546	 1.7609860087	 0.7390704291	 0.289227
H	 0.5001970149	-0.3063349124	-1.0731370602	 0.124052
H	 0.7072534991	-0.378843043	 0.6828803907	 0.110189
H	-1.7855539327	-0.1764158918	 0.9695675696	 0.126324
H	-1.9749785901	-0.1338288766	-0.7870768048	 0.130033
H	-1.6830056919	-2.4008922536	-2.0925842518	 0.125042
H	-1.5426537517	-5.0028516254	-1.1672027159	 0.109142
H	-1.0070414365	-3.0331153698	 2.8973543886	 0.314599
