19
gdb 65681	3.76072	0.98897	0.94831	2.0087	75.88	-0.2439	-0.0239	0.22	1301.467	0.157352	-422.999497	-422.990475	-422.989531	-423.033909	33.331	
O	-0.3269987777	 1.4111277251	-0.1753096181	-0.471998
C	-0.1240701656	 0.026575212	-0.0216728315	 0.387724
C	 1.0617772377	-0.4950534548	-0.8282169635	-0.333831
C	 2.3833012446	 0.0196300083	-0.3011379359	 0.158995
O	 3.3400887652	-0.6675857099	-0.0518426324	-0.239622
C	-0.4089329899	-0.6731618566	 1.2787163981	-0.131973
C	-1.5680718701	 0.0029069962	 2.0219625026	-0.239146
C	-2.4779878764	-0.18750922	 0.7670699835	-0.231098
C	-1.3169277934	-0.8740789619	 0.0385015163	-0.107706
H	 0.1401945423	 1.8702155285	 0.5300932357	 0.287061
H	 1.094498188	-1.5876609924	-0.8374208378	 0.12226
H	 0.9477828883	-0.1393881121	-1.8615825591	 0.131032
H	 2.4198719534	 1.1236932723	-0.1507462151	 0.067766
H	 0.3127673477	-1.3512223024	 1.721396101	 0.095898
H	-1.9110901841	-0.5840976061	 2.8759921801	 0.108764
H	-1.3966984111	 1.0313861108	 2.3547176043	 0.089498
H	-3.3119940977	-0.864690042	 0.9598451469	 0.104779
H	-2.8526924793	 0.7225735439	 0.293876597	 0.113161
H	-1.404471632	-1.7337060689	-0.6163383821	 0.088435
