19
gdb 88179	2.45206	1.49793	1.22186	2.1449	71.18	-0.2334	0.058	0.2914	1091.53	0.158945	-460.139815	-460.131224	-460.13028	-460.173219	33.188	
O	-0.3355550339	 1.3827131026	-0.0081449311	-0.437737
C	-0.0781046004	 0.0158470134	-0.0561449993	 0.072739
C	-0.1914929254	-0.832592343	 1.1965656331	-0.400989
C	-1.2461983111	-0.9265901096	 0.1318802443	 0.347649
O	-2.4693349093	-0.2733215033	 0.4283178242	-0.302181
C	-3.3762261818	-0.6057944138	-0.6277459613	-0.106761
C	-3.0600294929	-2.0696664361	-0.9407628751	-0.240267
C	-1.5220563568	-2.1340270076	-0.7727220743	 0.028636
O	-0.8056984392	-2.0974052534	-1.997280699	-0.426938
H	-1.2682683214	 1.4664890945	 0.2384064064	 0.28945
H	 0.6939688311	-0.2357421935	-0.776262778	 0.110977
H	 0.483830006	-1.6735783615	 1.3194254456	 0.119531
H	-0.4699422702	-0.3195772575	 2.1115586174	 0.123688
H	-4.3896299082	-0.4268895911	-0.2627601585	 0.118501
H	-3.2016622675	 0.0394851156	-1.5033915646	 0.094719
H	-3.54495447	-2.7162644935	-0.2034935734	 0.115166
H	-3.3600381233	-2.3905906687	-1.9401495912	 0.114304
H	-1.214688975	-3.0707092604	-0.301649151	 0.09879
H	-0.8903554807	-1.2111308131	-2.3661367542	 0.280723
