20
gdb 107620	2.54052	1.51122	1.13629	4.065	75.44	-0.2371	0.0563	0.2934	1130.8242	0.171041	-440.259204	-440.2503	-440.249356	-440.292664	33.674	
C	 0.1171509238	 1.5649001841	-0.1446759706	-0.402969
C	 0.0426656275	 0.0520959884	-0.0200509899	 0.10741
O	 0.7448765823	-0.5290559455	-1.124920992	-0.274448
C	 1.3302251579	-1.7647473956	-0.743565816	-0.077031
C	 1.5220490436	-1.6812301222	 0.7558843664	-0.131891
N	 2.1665175216	-0.4219705226	 1.1742400284	-0.357389
C	 0.6938220288	-0.5465852924	 1.2244792601	 0.334549
C	-0.0351647169	-0.5588271651	 2.5351939465	-0.201305
O	-0.1089582504	 0.7732729094	 3.0290275704	-0.412208
H	 1.1597920042	 1.8846467142	-0.0814465874	 0.138017
H	-0.2945326757	 1.8855252846	-1.1056387647	 0.113807
H	-0.4478110767	 2.0352772204	 0.663766549	 0.122829
H	-1.0123719488	-0.2764171348	-0.0336102167	 0.056267
H	 0.6742637342	-2.6187781657	-0.982655288	 0.08521
H	 2.2660254096	-1.8766804833	-1.3011836923	 0.112523
H	 1.6570021401	-2.5852431325	 1.3417452117	 0.088856
H	 2.5399290421	-0.5263224175	 2.1157239809	 0.230552
H	-1.0417557646	-0.9816935159	 2.3875305167	 0.094819
H	 0.4977367715	-1.215077828	 3.2431669893	 0.081678
H	-0.675387704	 0.77503586	 3.8065025682	 0.290724
