13
gdb 132091	3.02652	1.44884	0.98579	4.7922	65.64	-0.254	-0.085	0.169	1083.2354	0.087483	-497.899223	-497.891524	-497.89058	-497.931991	27.723	
C	 0.0704060498	 1.5047376742	 0.0191778625	-0.488849
C	-0.0441660145	 0.0209967382	 0.0094629628	 0.284308
C	-1.1844299538	-0.6961519415	-0.143309082	 0.117597
F	-2.3711190578	-0.1015630682	-0.3075365444	-0.070651
C	-1.1014583048	-2.1107154935	-0.1265123787	-0.037389
N	 0.0076432974	-2.7705722426	 0.0273903162	-0.319354
C	 1.1876699388	-2.0718657383	 0.1857015366	 0.445933
O	 2.2758543905	-2.5348859184	 0.3360154319	-0.322092
O	 1.1086469124	-0.6386292413	 0.1693164905	-0.245652
H	 0.7416318099	 1.8338136017	-0.7807921445	 0.165716
H	-0.9086918098	 1.9643102545	-0.1161681422	 0.157074
H	 0.5032946644	 1.8407896116	 0.9670573575	 0.165712
H	-2.0208370425	-2.6841318564	-0.2497236262	 0.147648
