15
gdb 126112	7.00348	0.67333	0.61898	2.3247	80.42	-0.2513	-0.0332	0.2181	1746.7564	0.113657	-412.952912	-412.944543	-412.943599	-412.987775	28.888	
C	-0.0428419595	 1.5381105763	 0.0633886493	-0.368213
C	 0.0190511043	 0.0027300268	-0.0345720305	-0.330504
C	 0.7018468503	-0.4656222664	-1.2327557368	 0.242217
C	 1.2697730299	-0.8331841348	-2.2300542148	-0.018474
C	 1.9305879535	-1.2967092376	-3.388534702	 0.212255
N	 2.4507389061	-0.4993018985	-4.3274633189	-0.251831
N	 2.9398546785	-1.3922191107	-5.1715862506	-0.103393
N	 2.7572693961	-2.6583818482	-4.8194712725	-0.097683
N	 2.1158939908	-2.6211514498	-3.686289679	-0.256935
H	 0.9621578367	 1.9675371888	 0.0822165857	 0.134333
H	-0.5756733358	 1.9613005882	-0.7920486324	 0.13435
H	-0.5637316883	 1.836297777	 0.9775301513	 0.120414
H	 0.526539616	-0.406213522	 0.8484836857	 0.140555
H	-0.9968424931	-0.4123125447	-0.0172229569	 0.140535
H	 3.4174565544	-1.1328862941	-6.0221598775	 0.302373
