19
gdb 92052	2.85212	1.5147	1.08422	4.1836	74.97	-0.2551	0.0151	0.2702	1129.5972	0.160173	-423.059767	-423.051687	-423.050743	-423.092416	31.318	
C	-0.2914348317	 1.5101187965	-0.0023277816	-0.395433
C	 0.0795787843	 0.0273113215	-0.0155889617	-0.131068
C	 0.931138044	-0.3861735712	-1.2334416455	-0.241776
C	 1.1778148099	-1.8850614113	-1.1837160808	-0.061265
C	 2.5261082118	-2.4503359944	-0.7882447367	-0.311352
C	 1.3921856302	-2.4426407198	 0.1937833256	 0.106324
O	 1.4761283846	-1.5449593735	 1.2804835372	-0.230205
C	 0.7988552339	-0.3600084794	 1.2751082313	 0.425952
O	 0.8286652759	 0.3193933337	 2.2637317774	-0.323225
H	 0.6057543455	 2.1365243678	 0.0111388959	 0.126312
H	-0.8732517794	 1.7624067086	-0.8942120821	 0.107323
H	-0.8773400122	 1.7583372694	 0.8840788348	 0.13942
H	-0.8420726127	-0.5724225396	-0.0448039815	 0.107
H	 0.4152766298	-0.1082691646	-2.1573024014	 0.110706
H	 1.8738343121	 0.1730178689	-1.2240668838	 0.113733
H	 0.5701027507	-2.4867041102	-1.8520550853	 0.098379
H	 2.8375370041	-3.4013422552	-1.2052548719	 0.120567
H	 3.3297212876	-1.7444052554	-0.6063182389	 0.129168
H	 0.9315829116	-3.3790375017	 0.490519079	 0.109439
