18
gdb 125043	2.89951	1.25682	0.93233	3.6848	75.67	-0.2053	0.0304	0.2357	1247.1908	0.148555	-435.284755	-435.2752	-435.274256	-435.31911	34.598	
C	 0.1028378828	 1.5492373723	 0.0743296699	-0.535113
C	 0.0283311889	 0.0536950356	 0.0351075889	 0.10289
C	 0.0322012744	-0.7700668439	-1.076678341	 0.291259
N	 0.0221599832	-0.495125842	-2.448620475	-0.609786
N	-0.0258850703	-2.0476461223	-0.6162657645	-0.248744
N	-0.0565438878	-2.1211524439	 0.7359948026	-0.302682
C	-0.037755794	-0.8511699769	 1.1305603096	 0.234727
C	-0.0378925454	-0.5187322794	 2.5908704275	-0.168633
O	 1.1188246369	 0.2192134162	 2.9910489863	-0.415114
H	 0.6437677614	 1.9487007823	-0.7924815434	 0.103051
H	-0.8870841552	 2.0233237794	 0.0826730651	 0.12492
H	 0.6310342174	 1.8746815491	 0.9741796832	 0.152625
H	 0.0302843541	 0.5013427226	-2.624070699	 0.253723
H	 0.7945859075	-0.9214792792	-2.948975385	 0.249126
H	-0.0994853373	-2.8892471202	-1.1615992096	 0.266602
H	-0.8849628238	 0.1276854892	 2.8449548824	 0.110999
H	-0.1435814036	-1.4510053064	 3.1620220411	 0.108454
H	 1.8857955706	-0.3011984726	 2.729396211	 0.281695
