17
gdb 55396	3.58196	1.09423	0.99446	3.7062	69.61	-0.2464	0.017	0.2634	1202.8438	0.137842	-455.190397	-455.181851	-455.180907	-455.224543	30.824	
N	 0.2175231481	 0.9953808039	 0.7862868516	-0.528338
C	 0.0115726602	 0.0495281743	-0.1723951992	 0.408371
O	 0.8524768359	-0.2356534231	-1.0057595326	-0.370785
C	-1.3429212834	-0.6492215704	-0.1308825243	-0.154562
C	-1.9518320339	-0.6725729994	-1.5355303915	-0.072628
O	-3.1637080121	-1.4367421675	-1.5678986481	-0.227397
C	-3.2048072033	-2.5275039622	-0.766946251	 0.129794
N	-2.3683727153	-2.9246083314	 0.0934904076	-0.274162
C	-1.1802547223	-2.1151055309	 0.3261848846	-0.15575
H	 1.1193155932	 1.441931778	 0.8307974548	 0.264722
H	-0.4603124938	 1.1980445534	 1.4991845636	 0.262696
H	-2.031793851	-0.1346078025	 0.5491405423	 0.079318
H	-2.2222900794	 0.3268049598	-1.8840894267	 0.122169
H	-1.2270226641	-1.1029363748	-2.2336362879	 0.142584
H	-4.1250177736	-3.0802750527	-0.9462906322	 0.124993
H	-0.3263219306	-2.5575920864	-0.20123317	 0.138263
H	-0.9447088645	-2.1564916682	 1.3952710891	 0.11071
