18
gdb 13012	2.69687	2.49735	1.67095	1.7753	71.74	-0.242	0.0031	0.2452	851.0804	0.15332	-347.803273	-347.795644	-347.7947	-347.834633	29.613	
C	-0.1151136993	 1.5230313791	 0.0556206224	-0.396486
C	 0.0057648289	-0.0060201617	-0.027310962	-0.09091
C	 0.8436034377	-0.487388279	-1.1988945995	-0.082282
C	 1.8579647879	-1.2688458811	-0.821214087	-0.08976
C	 1.8750998087	-1.3945892803	 0.6659717121	-0.069463
O	 2.0656689554	-0.1240913262	 1.3422281368	-0.301702
C	 0.7297061392	-0.6236292252	 1.1831557156	 0.407772
C	-0.0246630792	-0.9229960587	 2.4490452348	-0.488854
H	 0.8735834212	 1.967444352	 0.1947738177	 0.139505
H	-0.5568071775	 1.9339239449	-0.8575617938	 0.111551
H	-0.750129213	 1.8219644615	 0.8961513793	 0.114004
H	-1.0053677116	-0.4339902953	-0.0947600661	 0.079064
H	 0.6351150321	-0.174878237	-2.2169389825	 0.098473
H	 2.5920913068	-1.727512223	-1.4721045319	 0.100932
H	 2.3062453978	-2.2510065925	 1.1767785631	 0.090613
H	-0.4299213214	-0.0032254964	 2.8863236392	 0.126983
H	-0.863885267	-1.5988237204	 2.2531882234	 0.121027
H	 0.6340011432	-1.3853267205	 3.1883724183	 0.129535
