20
gdb 95259	2.73108	1.78665	1.42043	0.7085	77.61	-0.2296	0.0846	0.3142	995.1923	0.173511	-403.112721	-403.105354	-403.10441	-403.144194	29.985	
C	-0.105975856	 1.538267895	-0.0662102962	-0.399613
C	 0.0396169543	 0.0231714741	-0.0084903452	 0.101373
O	 0.57602689	-0.3988978763	-1.254771824	-0.258583
C	 0.9795841081	-1.7575501226	-1.245281271	-0.093396
C	 2.0199444009	-1.994757965	-0.1675516101	 0.015213
C	 3.0604414904	-0.8563640282	 0.0048694337	-0.258292
C	 2.3372146072	-0.5190038655	 1.3037913498	-0.049914
C	 0.8632770801	-0.4333402332	 1.1847531342	-0.012841
N	 1.4729746731	-1.7775076518	 1.2368767771	-0.177801
H	 0.8748383502	 2.01371524	-0.157398908	 0.126269
H	-0.7118384984	 1.8235750026	-0.9303407629	 0.125952
H	-0.5929676381	 1.9138868225	 0.8387906047	 0.115777
H	-0.9604829821	-0.4327478102	 0.1136665422	 0.072632
H	 0.1155545604	-2.4244791233	-1.0849275317	 0.096461
H	 1.3912508674	-1.9605827821	-2.2391800008	 0.109081
H	 2.4422166472	-2.9987342085	-0.2426053293	 0.082024
H	 4.0624689269	-1.2466625667	 0.1936228728	 0.107714
H	 3.1074053051	-0.0860736682	-0.7670827682	 0.114219
H	 2.8345740481	-0.2379616826	 2.2277957829	 0.091442
H	 0.360917055	-0.2108511599	 2.12568222	 0.092284
