19
gdb 65306	2.86328	1.23117	1.09196	3.9827	77.47	-0.2335	-0.0133	0.2202	1189.8301	0.157029	-423.007251	-422.998115	-422.99717	-423.041362	33.421	
C	-0.1401818071	 1.5299499226	 0.109319233	-0.465351
C	-0.0125552773	 0.023832683	 0.0611025574	 0.132094
C	 1.3339312267	-0.6213832078	-0.3374856571	-0.407759
C	 0.8786267847	-0.6984914637	 1.0641169816	 0.424975
C	 1.4700579188	-0.1504957167	 2.3582516124	-0.357756
C	 0.9889577995	-1.4927492817	 2.9526547962	-0.074439
O	 0.4986443405	-1.9351561396	 1.663048885	-0.30151
C	-1.219270189	-0.7161068538	-0.3865833152	 0.125053
O	-2.2670332378	-0.1846136918	-0.6695866398	-0.274473
H	 0.778842242	 1.9963292959	 0.4756552476	 0.10961
H	-0.3517455583	 1.9294113903	-0.8870361788	 0.135021
H	-0.9659612818	 1.8289643929	 0.7613923011	 0.135281
H	 1.2885103622	-1.5357940913	-0.9216398038	 0.133149
H	 2.1420453513	 0.0534852635	-0.6008072899	 0.126702
H	 2.552081534	-0.007160512	 2.3473238819	 0.121347
H	 0.9879665665	 0.7433696953	 2.7565966588	 0.125305
H	 1.770976946	-2.1575098933	 3.3332831441	 0.114298
H	 0.1808117233	-1.4211842665	 3.6884120231	 0.115506
H	-1.0974032841	-1.8186106353	-0.4467792076	 0.082947
