14
gdb 123301	3.75399	1.34642	1.00369	5.3849	79.19	-0.2343	-0.0041	0.2302	1112.3861	0.101934	-395.658132	-395.650909	-395.649965	-395.690022	27.059	
C	 0.0596748782	-1.2120416561	-0.0654213905	-0.464472
C	 0.0187829575	-0.0098718548	-0.0355994537	 0.286144
C	-0.0477932826	 1.3989455336	 0.0018471918	 0.057622
C	-1.1262770187	 2.2575112861	 0.1291215108	 0.231766
C	-2.5405343673	 2.8061478191	 0.2839187987	-0.389838
C	-1.8573011217	 4.2293501426	 0.2461293499	-0.167597
N	-0.5862790225	 3.4790658435	 0.1013213044	 0.078032
N	 0.752485532	 3.4780727754	-0.0335144468	-0.170257
N	 1.0722815749	 2.2113859654	-0.0923535007	-0.255963
H	 0.1033615493	-2.2726180525	-0.0916952562	 0.1957
H	-3.2159971634	 2.6040826489	-0.5488847913	 0.147505
H	-3.036841371	 2.5651939576	 1.2253352123	 0.147519
H	-2.092926141	 4.8509845729	-0.6188611392	 0.151912
H	-1.9126145336	 4.8117789686	 1.1669304405	 0.151926
