15
gdb 49519	3.75882	1.31545	1.19182	2.8949	64.05	-0.2462	-0.0316	0.2146	1020.657	0.11248	-457.694653	-457.687903	-457.686959	-457.726179	26.243	
O	-0.0651225211	-0.036530797	-0.2161667395	-0.257317
C	 0.0148468926	 1.1452328315	 0.0071769758	 0.142099
C	 1.3209711667	 1.896939385	-0.0065989198	-0.089739
C	 1.2296904314	 3.2769977009	-0.7235656512	 0.001015
O	 0.5417229581	 3.801912296	 0.4656480269	-0.299242
C	 1.4651193404	 2.9028119522	 1.1742464165	 0.001004
C	 2.8204288703	 3.6049414174	 0.8943935292	 0.035583
O	 3.6436191475	 2.9574438339	-0.0856565473	-0.233533
C	 2.6438467638	 3.8856420384	-0.5287558862	 0.035598
H	-0.8801863258	 1.7576744804	 0.2391710828	 0.099929
H	 2.1519371116	 1.2361105041	-0.2399855753	 0.122566
H	 0.6957570328	 3.4448280099	-1.6575562048	 0.097998
H	 1.1742765734	 2.6841004546	 2.2004833348	 0.097998
H	 3.3158648967	 4.2418656505	 1.6174527066	 0.123019
H	 2.9842247515	 4.7690818321	-1.0556471586	 0.123022
