19
gdb 38031	3.46777	1.5843	1.26339	1.2252	80.44	-0.2268	0.0106	0.2374	1025.2042	0.162382	-385.882939	-385.875907	-385.874962	-385.914496	28.371	
C	 0.0348314688	 1.5155122707	 0.1225404008	-0.272606
C	 1.3460580839	 0.765952529	-0.018586259	-0.069368
C	 1.9973063035	 0.4658988762	 1.297641439	-0.238694
C	 1.2586005787	-0.3890323581	 2.0035658005	 0.311668
C	 1.0626090329	-0.753763944	 3.4434253429	-0.366437
C	-0.4871131635	-0.9900204924	 3.4755133661	-0.062974
O	-1.016566534	-0.605758209	 2.2033534257	-0.270919
C	 0.0217022621	-0.8335021366	 1.249378833	 0.059234
C	 0.016549359	 0.0143441127	-0.0066226059	-0.080312
H	-0.2008938742	 1.9536258353	 1.0857849771	 0.119951
H	-0.321124238	 2.0754421061	-0.7360469323	 0.108993
H	 1.9271012498	 0.8851624873	-0.9264033986	 0.086058
H	 2.8681910943	 1.0053804908	 1.654608998	 0.094065
H	 1.5975151408	-1.667132107	 3.7274456406	 0.114043
H	 1.3778378446	 0.0376357975	 4.1281299369	 0.118419
H	-0.7054245051	-2.0501246568	 3.6726183604	 0.092712
H	-0.994143182	-0.3915722163	 4.2369355863	 0.110276
H	 0.0461775066	-1.9065511954	 0.9874601669	 0.061182
H	-0.3780355585	-0.4130461001	-0.9196441984	 0.08471
