17
gdb 10148	4.02863	1.16967	0.92204	1.9704	69.53	-0.2415	-0.0711	0.1704	1251.8423	0.13889	-401.007169	-400.997694	-400.996749	-401.042129	31.941	
C	 0.048356158	 1.4911556298	 0.1283059921	-0.392154
C	 0.0075013589	-0.0202614075	 0.0082634681	-0.035272
O	 0.6857544575	-0.5662474354	 1.1485357882	-0.256538
C	 0.7558353139	-1.9133508023	 1.2278729505	 0.32836
C	 1.5011816573	-2.2760644964	 2.4893613125	 0.101059
O	 1.7241159793	-3.4064967291	 2.8402423154	-0.24123
N	 0.2542454053	-2.6720116878	 0.3482939458	-0.308119
C	 0.3357564765	-4.1207970746	 0.4434819922	-0.310688
H	 1.0797812799	 1.8543971535	 0.1470674392	 0.129166
H	-0.4610602961	 1.9445243508	-0.7271335189	 0.123482
H	-0.4505663508	 1.824626369	 1.0426391653	 0.129162
H	-1.0175224025	-0.406583628	-0.0132609779	 0.119829
H	 0.5013183118	-0.3768731346	-0.9024573314	 0.119746
H	 1.8319301265	-1.3942184295	 3.0762142886	 0.1044
H	-0.1626832568	-4.5498445569	-0.42958066	 0.117986
H	 1.3714370518	-4.477371812	 0.4671124684	 0.135426
H	-0.1494126705	-4.5041420288	 1.3479700019	 0.135387
