19
gdb 56556	2.72704	1.08957	0.91573	3.512	78.29	-0.2427	-0.0154	0.2273	1331.6467	0.154466	-423.010029	-422.999211	-422.998267	-423.046191	38.527	
C	-0.0449998888	 1.6787218843	 0.2156736171	-0.407243
C	-0.0414051956	 0.1580285474	 0.0164770417	-0.09687
C	 0.7400423811	-0.5792001645	 1.1379262342	-0.028951
O	 0.662078476	-1.9960249612	 0.9663220814	-0.432681
C	 2.1310145941	-0.1366030825	 1.2267830583	 0.282165
C	 3.2887112217	 0.1879275421	 1.252959508	-0.437174
C	-1.4819652851	-0.3836533013	 0.0440036708	 0.417007
C	-1.8953722613	-1.3002765052	-1.0842035499	-0.488759
O	-2.2243192653	-0.087853987	 0.9518451012	-0.322188
H	 0.9749854089	 2.0671711499	 0.2641773139	 0.129149
H	-0.5627519117	 2.1763708862	-0.6097907924	 0.118446
H	-0.5692277888	 1.9329901414	 1.1406147143	 0.143578
H	 0.4331892671	-0.0975216743	-0.9382860132	 0.072907
H	 0.2234972232	-0.3723687765	 2.082656305	 0.138848
H	 1.365727531	-2.2533242617	 0.3605980581	 0.286988
H	 4.3089133355	 0.480258981	 1.3014501062	 0.203299
H	-1.7433182482	-0.8126587146	-2.0539948029	 0.13357
H	-1.2506240694	-2.1859841881	-1.0624270311	 0.148041
H	-2.9393216344	-1.5956741553	-0.9727905405	 0.139868
