21
gdb 63269	2.06451	1.49285	1.35413	3.0271	78.54	-0.2322	-0.0154	0.2168	1123.7954	0.178558	-424.244659	-424.234418	-424.233474	-424.278975	38.872	
C	-0.2636488617	 1.5587236102	-0.0283373451	-0.450874
C	-0.0136147761	 0.0536336401	-0.0290216016	 0.362113
O	-1.2147910196	-0.6529588337	-0.2743774733	-0.473753
C	 1.2151104288	-0.3582424795	-0.9122574063	-0.423945
C	 1.9991461805	-0.5660619785	 0.3885243292	 0.3988
O	 3.1655241709	-0.6443006934	 0.6531886831	-0.313507
C	 0.726947806	-0.5129474085	 1.252995834	 0.132857
C	 0.8089687253	 0.3483637281	 2.5110734339	-0.451602
C	 0.269219286	-1.9395043287	 1.6061918914	-0.419314
H	 0.6531736443	 2.12760021	 0.1519120562	 0.126781
H	-0.6502637264	 1.873007217	-1.0060688231	 0.107642
H	-0.9982730373	 1.8322223074	 0.7341462533	 0.129349
H	-1.6294529713	-0.2768029177	-1.0579010928	 0.278634
H	 1.0357234139	-1.304325448	-1.4325775642	 0.133338
H	 1.6199873376	 0.3712837965	-1.6185017187	 0.11943
H	 1.1553864993	 1.3635413383	 2.3019294091	 0.116982
H	-0.1665730999	 0.4133119153	 3.004891835	 0.119839
H	 1.5157237732	-0.0991124386	 3.2164336069	 0.132657
H	 0.9557453915	-2.3725296097	 2.3397585846	 0.121842
H	-0.736535831	-1.9156195687	 2.034479582	 0.129278
H	 0.2373508659	-2.5948177979	 0.7330808663	 0.123452
