23
gdb 104008	2.90781	1.33537	1.21503	1.3277	84.71	-0.2619	0.0755	0.3373	1156.7071	0.207401	-388.277704	-388.269054	-388.26811	-388.310408	34.954	
C	-0.0642606816	 1.533176468	 0.0064057574	-0.457532
C	 0.0111481724	-0.0011255352	 0.0137697148	 0.354544
C	-1.4174387373	-0.5472721345	-0.0859057335	-0.135572
O	-1.9659272311	-0.1441047346	-1.3366574401	-0.424843
C	 0.9601402488	-0.5822395527	-1.1004541568	-0.250857
C	 2.0056505626	-1.2978810723	-0.218929035	-0.009405
C	 1.1123168281	-2.0319501177	 0.8190271275	-0.235211
C	 0.7676387078	-0.5713191852	 1.2481307361	-0.056469
C	 2.2568885925	-0.2573042096	 0.9085855688	-0.232488
H	 0.9244249854	 1.997349215	 0.0082147062	 0.107939
H	-0.5990723905	 1.8773834742	-0.8822803545	 0.134166
H	-0.6071652978	 1.8993975529	 0.8864573113	 0.101189
H	-1.4238856613	-1.6421533943	-0.0011543541	 0.081686
H	-2.0155764703	-0.1485527356	 0.750617695	 0.079154
H	-2.8625651196	-0.4855392682	-1.3947472499	 0.286221
H	 0.433375589	-1.2648525765	-1.772544853	 0.100757
H	 1.4031008332	 0.2080223806	-1.7138081294	 0.091888
H	 2.8270168304	-1.8024101429	-0.7297466158	 0.05361
H	 0.3187199798	-2.6878076639	 0.452824382	 0.086358
H	 1.6974967556	-2.554148147	 1.5800465882	 0.092458
H	 0.344699645	-0.344408555	 2.2290726106	 0.051107
H	 2.9392590437	-0.6295988514	 1.6764955849	 0.092282
H	 2.5361397052	 0.7609739958	 0.6288256293	 0.089016
