13
gdb 129991	7.37773	0.87894	0.78754	3.973	64.45	-0.2495	-0.0127	0.2367	1345.4377	0.089813	-486.064322	-486.056397	-486.055452	-486.097567	28.107	
N	-0.0296473776	 1.291649945	 0.1817287694	-0.592212
C	-0.048956426	-0.0515846022	 0.0393206114	 0.526104
N	-1.0912082811	-0.8400418363	 0.0692037534	-0.39915
C	-0.4912476014	-2.0553501666	-0.0670400882	 0.476125
O	-1.2587361074	-3.1546757026	-0.0877238618	-0.207819
C	-0.6407851899	-4.3782011534	 0.0244033477	 0.113275
N	-1.3365309314	-5.4039765631	-0.1744008391	-0.416334
N	 0.8138468381	-2.0681496244	-0.1882539997	-0.248096
O	 1.1228977976	-0.6799690581	-0.1046867821	-0.214011
H	 0.793802447	 1.7813757804	-0.1276377119	 0.281885
H	-0.9116236255	 1.7621812047	 0.0624498585	 0.2878
H	 0.4129556899	-4.3035024753	 0.2984909382	 0.149975
H	-0.7713981022	-6.239041418	-0.0310410358	 0.242458
