14
gdb 15750	6.92588	1.07058	0.99179	1.4764	62.95	-0.2697	-0.0356	0.2341	1139.5219	0.107275	-415.86041	-415.85271	-415.851766	-415.893275	26.504	
N	-0.048305395	 1.2588012332	 0.5056447384	-0.41431
C	 0.012623148	 0.0669239803	 0.1131142743	 0.115964
O	-1.1452111671	-0.6762969487	 0.1467007091	-0.206333
C	-1.0933474991	-1.9678748238	-0.2989635869	 0.485396
O	-0.1000652799	-2.5067795625	-0.7185702962	-0.368954
C	-2.4271398061	-2.6103446914	-0.1875956315	-0.137126
C	-2.8673225136	-3.4173887439	-1.3722387878	-0.216892
N	-2.4557670203	-4.0800274469	-0.1440900902	-0.299896
H	 0.8701810868	 1.6941658803	 0.4330456268	 0.243102
H	 0.8667712342	-0.495666661	-0.2632461608	 0.14703
H	-3.1574845524	-2.0924983211	 0.4224538926	 0.124982
H	-3.9287473802	-3.4616862479	-1.5960054816	 0.136404
H	-2.2003399177	-3.4393784099	-2.2290333043	 0.138055
H	-1.4967042277	-4.4100518966	-0.2501111522	 0.252578
