14
gdb 8511	3.95376	2.12192	1.65053	3.277	57.	-0.2271	0.0608	0.2879	763.4052	0.105323	-419.568356	-419.56153	-419.560586	-419.59884	26.807	
O	-0.0338720394	 1.3253883022	 0.0704024409	-0.461869
C	 0.0653950728	-0.0422460697	 0.0682109506	 0.381359
C	 0.7853215954	-0.9752715644	 1.0719727716	-0.416086
C	 0.0880824815	-1.9424726041	 0.0846802634	 0.381371
O	 0.1448514204	-3.3111331403	 0.0227802569	-0.46187
C	-1.1563449533	-0.9889670497	-0.1076471006	-0.040136
O	-1.0879870379	-1.020489281	-1.5599326641	-0.31967
C	 0.306855547	-1.0199382528	-1.1485781013	-0.040136
H	 0.8516361129	 1.7021371791	 0.0255769089	 0.290754
H	 1.8793754096	-0.9709783447	 1.0541845753	 0.100334
H	 0.4101614397	-0.9622343826	 2.0997732978	 0.100334
H	-0.1815098981	-3.6743999546	 0.8532015606	 0.290755
H	-2.1297128965	-0.9714025016	 0.3818565111	 0.09743
H	 1.0884465059	-1.0421277457	-1.9075185009	 0.09743
