20
gdb 107252	2.48716	1.57714	1.18381	3.353	78.62	-0.2132	0.0624	0.2757	1127.9072	0.168841	-403.058556	-403.049634	-403.04869	-403.091964	34.279	
C	 0.240965604	 1.1599329724	 0.4592435223	-0.379415
C	 1.2537971289	 1.4154487794	-0.6664189453	-0.3109
C	 1.3513575907	 0.2669216984	-1.6210903269	 0.424584
O	 1.9966358483	-0.9349759957	-1.1880878269	-0.266906
C	 2.4456940193	-0.3189404545	-2.3974950738	-0.08143
C	 1.4584999792	-0.6874365654	-3.5561638692	-0.165145
N	 0.4006144698	-1.5656983379	-2.9895632838	-0.352663
C	 0.3334269321	-0.0988523527	-2.7942729496	 0.262677
C	-0.8298113926	 0.7381564236	-3.2246850302	-0.516144
H	-0.7681857756	 1.009814394	 0.0621579617	 0.119518
H	 0.5143471358	 0.2640096094	 1.023566546	 0.140508
H	 0.2064488101	 2.0059194941	 1.1519314723	 0.112655
H	 0.9815806813	 2.3230331483	-1.2198042036	 0.100362
H	 2.2482510024	 1.590303599	-0.240762411	 0.112759
H	 3.4946315692	-0.0586988016	-2.48060743	 0.104142
H	 1.6748758336	-0.6564626023	-4.6162696504	 0.09392
H	-0.2326996469	-1.7797221332	-3.7621932346	 0.223326
H	-1.681388469	 0.623538757	-2.5435541064	 0.132275
H	-0.5675101482	 1.8015010457	-3.2530176967	 0.126479
H	-1.1640457625	 0.4533974521	-4.2285289039	 0.1194
