21
gdb 95464	2.90994	1.10526	0.8802	2.5908	85.86	-0.2343	-0.0259	0.2085	1360.8578	0.181741	-387.122367	-387.112941	-387.111997	-387.157535	34.42	
C	-0.0630091621	 1.5690799787	-0.1191852702	-0.409613
C	 0.0287397553	 0.042159173	-0.0162001533	-0.055108
C	 0.7526740807	-0.6151918145	-1.2210728605	-0.215487
C	 1.5164730166	-1.8333911583	-0.6478029105	-0.254428
C	 1.6075465074	-1.5082861495	 0.821876007	-0.175083
C	 0.8098739484	-0.4980312768	 1.1768111415	 0.313456
C	 0.6278292523	 0.0410378885	 2.5703809154	-0.389394
C	 1.4340665814	 1.3111352533	 2.8090285054	 0.166711
O	 0.9784473279	 2.3572447335	 3.1894045376	-0.238376
H	 0.9336262369	 2.0190176021	-0.192638368	 0.115019
H	-0.6244956823	 1.8582595434	-1.0137021738	 0.113217
H	-0.5650573894	 2.0110403028	 0.7465929465	 0.131248
H	-0.9999943708	-0.3462491242	 0.0564624794	 0.078166
H	 0.0671540485	-0.8808878481	-2.0300758727	 0.09677
H	 1.4721685292	 0.1026279998	-1.6314645482	 0.101817
H	 0.9650547738	-2.7726606906	-0.7988062302	 0.106777
H	 2.4957767652	-1.9774741496	-1.1181473952	 0.103807
H	 2.216443885	-2.0842176006	 1.5122061804	 0.085951
H	-0.4210870547	 0.2591477062	 2.7956085916	 0.122093
H	 0.9912910069	-0.6983172861	 3.2970026287	 0.124234
H	 2.5221701437	 1.1937226871	 2.5993126592	 0.078225
