17
gdb 25913	4.16851	1.0804	0.86746	3.0187	78.45	-0.2151	-0.0072	0.2078	1305.5005	0.137083	-418.088835	-418.080275	-418.079331	-418.122242	32.033	
C	 0.0538893143	 1.5195048982	 0.0027958388	-0.496348
C	 0.0010306044	 0.0223605924	 0.0178413072	 0.23888
C	-0.0453774621	-0.8055050135	-1.0694953061	-0.148016
N	-0.0768366666	-2.1210026614	-0.6286527696	-0.090343
C	-0.0584176459	-2.1208345899	 0.7601867078	-0.082338
C	-0.0131760376	-0.8228845721	 1.1802753079	-0.257592
C	-0.1124265189	-3.2188817966	-1.5136432166	 0.478769
N	 0.0935133114	-4.4369030723	-0.9106270121	-0.564506
O	-0.3378909884	-3.0792504269	-2.6940984845	-0.367376
H	 0.9600576262	 1.8969025915	 0.490957428	 0.1261
H	 0.0432315815	 1.9039963066	-1.0207302482	 0.125526
H	-0.800107108	 1.95846162	 0.5317403467	 0.12738
H	-0.0533463131	-0.6052421864	-2.1273241928	 0.147992
H	-0.1444823386	-3.0364497726	 1.320711603	 0.127454
H	-0.002210521	-0.4950931597	 2.2095693101	 0.101127
H	 0.6686551283	-4.4853675663	-0.0854180524	 0.263043
H	 0.2052116543	-5.1941980009	-1.566406137	 0.270248
