21
gdb 113041	3.18016	0.86209	0.74552	2.0132	85.32	-0.243	0.052	0.295	1593.7177	0.180309	-387.049093	-387.039151	-387.038207	-387.084916	36.329	
C	-0.3979353501	 1.4174639739	-0.346569699	-0.381001
C	-0.1198695827	-0.0741205482	-0.1385847208	-0.188779
C	 0.9105997401	-0.6120124877	-1.1145403229	 0.18066
C	 1.1009366526	-2.1395726022	-1.2343392347	-0.346026
C	 0.7875013117	-1.9179182494	-2.7281717514	 0.169602
C	-0.379640653	-2.7046100302	-3.3295167437	-0.366918
C	-0.6870457091	-2.3172515647	-4.7002519537	 0.303245
C	-0.9194949556	-1.9932284568	-5.8337370481	-0.439402
O	 0.4675339027	-0.5306841823	-2.4954760465	-0.307234
H	 0.5039675741	 2.0157205964	-0.1761315656	 0.113135
H	-0.7342706087	 1.6017634459	-1.3707370628	 0.140723
H	-1.1718017158	 1.7760321242	 0.3384227029	 0.111238
H	 0.2432642411	-0.2590869035	 0.8814630571	 0.094923
H	-1.0473006649	-0.6483310316	-0.2560762174	 0.094842
H	 1.8605521401	-0.069964677	-0.9932315009	 0.070363
H	 2.0890013218	-2.5349390041	-0.9958228806	 0.1087
H	 0.3408415985	-2.7200805373	-0.7037101188	 0.104927
H	 1.6643647572	-2.0100457364	-3.3829232235	 0.083645
H	-0.1263876303	-3.7732666817	-3.2924394597	 0.128589
H	-1.2606966268	-2.564007442	-2.6913026592	 0.129727
H	-1.1331230829	-1.7029561755	-6.8322919007	 0.195042
