17
gdb 89947	3.1562	1.30546	1.0826	2.5428	75.23	-0.248	0.0288	0.2768	1124.2631	0.134351	-421.746004	-421.737552	-421.736608	-421.779126	32.045	
O	-0.2266478858	 1.5552536095	 0.2409863184	-0.425585
C	-0.0338083005	 0.1803331194	 0.0639838269	 0.141037
C	 0.4162313604	-0.705461836	 1.268308645	-0.339714
C	-0.7558877605	-1.7010565635	 0.9577273688	 0.125535
C	-2.0267306804	-1.3551735568	 1.7642331507	-0.113703
O	-2.3483007954	-0.2648270044	 0.8768441323	-0.279281
C	-1.3284696761	-0.6385927739	-0.0603313918	 0.046245
C	-0.4426298921	-3.0684884321	 0.6580018287	 0.166846
C	-0.1790409229	-4.2160877021	 0.4096307421	-0.399801
H	 0.6332906683	 1.9869879453	 0.2366322135	 0.287924
H	 0.5974480438	-0.0390214459	-0.8112699468	 0.075409
H	 1.4163830041	-1.1331958393	 1.1898355434	 0.113524
H	 0.3022414643	-0.2111486308	 2.2360008004	 0.111524
H	-2.7932590063	-2.1391755821	 1.7340734603	 0.109931
H	-1.872202692	-1.0264821632	 2.7985298368	 0.107511
H	-1.7285981558	-0.8605768431	-1.052927747	 0.083038
H	 0.049752477	-5.229071561	 0.1883540282	 0.189563
