23
gdb 39510	2.16708	1.65005	1.12488	1.8614	84.28	-0.2525	0.0768	0.3293	1177.4356	0.208917	-388.286507	-388.278249	-388.277305	-388.319077	33.313	
C	 0.0195476822	 1.547722027	-0.2415217436	-0.182203
C	 1.1402741665	 2.4336766642	 0.3314076322	-0.183214
C	 2.5879396767	 2.1695870791	-0.1435678759	-0.206545
C	 2.7432573749	 1.9193894697	-1.6498715377	-0.229762
C	 2.4323346593	 0.5387433527	-2.2032058528	 0.078312
O	 3.211684238	-0.5757084473	-1.756872559	-0.267042
C	 1.7944429983	-0.62002336	-1.5433406359	 0.062092
C	 1.3149508127	-0.7013645718	-0.1082104616	-0.234547
C	 0.016614882	 0.0711621039	 0.1817422433	-0.193747
H	-0.9395775578	 1.9846637153	 0.062956013	 0.091742
H	 0.0326338916	 1.6120671876	-1.3359869052	 0.098891
H	 0.8915392524	 3.47070864	 0.0705037514	 0.094649
H	 1.1149047525	 2.3902926418	 1.428443526	 0.091753
H	 3.1806277436	 3.0554981784	 0.1130510479	 0.091499
H	 3.0512942266	 1.3474102075	 0.4066984072	 0.114356
H	 2.1247418802	 2.6379325665	-2.2053784322	 0.098743
H	 3.7784760536	 2.1361883156	-1.9446628531	 0.110525
H	 2.3263140193	 0.5594871939	-3.2922784145	 0.079982
H	 1.2798099687	-1.3084977219	-2.2198025145	 0.081882
H	 1.1605131169	-1.759556902	 0.1360289329	 0.09681
H	 2.1154045869	-0.3587190359	 0.5483731236	 0.116598
H	-0.1884557284	-0.0008002902	 1.2575954677	 0.095515
H	-0.8242917566	-0.427880974	-0.3174605394	 0.093709
