18
gdb 72817	2.69275	1.69957	1.30104	5.1536	71.11	-0.2533	0.036	0.2893	1014.2399	0.149087	-439.119901	-439.112091	-439.111146	-439.152396	29.751	
C	 0.0989015667	 1.4914644053	-0.2637273621	-0.455458
C	-0.0762854368	 0.0063954535	 0.0157202909	 0.319077
C	 0.5111910635	-0.9376557261	-1.0799624108	-0.297543
C	 1.65350145	-1.2607503356	-0.0771725683	-0.181093
N	 0.8991845554	-0.5443824048	 0.9951985943	-0.186377
C	 0.218023202	-1.3423889358	 1.9162980536	 0.449149
O	 0.6883951432	-2.1367841764	 2.6786112478	-0.374562
O	-1.1284261605	-1.0991924996	 1.8285573364	-0.238709
C	-1.4388883798	-0.3308806215	 0.6617328248	-0.149597
H	 1.1051331435	 1.7071336625	-0.6348986855	 0.126881
H	-0.6202546774	 1.8237169298	-1.0210708601	 0.123238
H	-0.0619262384	 2.0765350036	 0.6467099478	 0.132327
H	-0.1255934856	-1.8002241272	-1.2923482816	 0.117911
H	 0.7977012284	-0.4628460786	-2.0203984129	 0.112112
H	 1.8383295341	-2.3102142137	 0.1598509641	 0.14047
H	 2.6034240346	-0.7679756346	-0.2964931139	 0.122558
H	-1.9773039406	 0.5693977823	 0.9731239907	 0.120195
H	-2.0898778526	-0.9217135431	 0.0080876148	 0.11942
