18
gdb 46803	2.93636	1.63818	1.27214	5.2694	71.93	-0.2455	0.0594	0.3049	1009.16	0.15066	-439.115544	-439.108107	-439.107163	-439.148059	28.823	
O	 0.0827197471	 0.0809602201	 0.666824811	-0.391265
C	 0.0619255679	 1.1559746836	 0.1146899728	 0.448304
N	-1.0431680629	 1.9738364185	 0.2124811151	-0.366065
C	-1.3798338377	 3.3522886726	-0.1332542313	-0.159453
C	-0.405259927	 4.0342714761	-1.0756980831	-0.019937
C	 0.047483359	 3.1079381628	-2.2383702914	-0.25711
C	 1.2731006744	 2.7237672851	-1.3722938347	 0.137384
C	 1.0535028554	 4.0117453933	-0.5430921004	-0.250514
O	 1.1376809989	 1.5183402594	-0.6301157182	-0.253935
H	-1.7214787352	 1.5154841682	 0.8020539347	 0.257023
H	-2.3757429233	 3.3428325675	-0.5966121609	 0.113849
H	-1.4605586432	 3.9525745894	 0.785706262	 0.111567
H	-0.8136895957	 5.0105984817	-1.3471703375	 0.07766
H	-0.618727484	 2.2981490396	-2.5435725781	 0.119697
H	 0.3557466674	 3.6735181046	-3.1210451909	 0.110698
H	 2.2311330334	 2.6080686513	-1.8798247092	 0.096606
H	 1.649467998	 4.8407669096	-0.9325999805	 0.11012
H	 1.2087180075	 3.9335835767	 0.5360567804	 0.115372
