20
gdb 63557	2.47859	1.47736	1.13781	2.3387	81.57	-0.2289	-0.0224	0.2065	1157.1506	0.169177	-403.13789	-403.128563	-403.127618	-403.171643	35.198	
C	-0.058817298	 1.4972391802	-0.0301515002	-0.437977
C	 0.0024646473	-0.0165302028	-0.036061993	 0.287381
C	-1.177406044	-0.7173583741	-0.6816710694	-0.462892
C	 1.3580778315	-0.6667659395	-0.1389778062	-0.393012
C	 0.6330814327	-0.6729894572	 1.1865897421	 0.18512
N	 1.0258381304	 0.0201912986	 2.4326750268	-0.380115
C	 0.576304699	-1.1476120022	 3.2588351873	-0.282848
C	 0.1252483323	-1.8506181805	 1.9630328854	 0.329828
O	-0.4017518179	-2.8930975032	 1.6946070031	-0.315233
H	 0.7764054834	 1.9323468468	 0.5242448386	 0.120472
H	-0.0378557648	 1.8873289596	-1.0541312887	 0.116092
H	-0.9826446055	 1.8452556354	 0.443991211	 0.122247
H	-1.2189871305	-0.4879928175	-1.7529676615	 0.114093
H	-1.1153375873	-1.8016546965	-0.5617726992	 0.145355
H	-2.1207246164	-0.3858508329	-0.2336747806	 0.118222
H	 1.4512939495	-1.6178094511	-0.6546117035	 0.128871
H	 2.2301522278	-0.0224619581	-0.208074437	 0.116099
H	 2.0320775678	 0.1414128986	 2.4916049345	 0.223619
H	 1.3691653576	-1.6810067866	 3.7948557763	 0.128266
H	-0.2260293649	-0.901823117	 3.9617878641	 0.136413
