18
gdb 25894	2.56101	1.50261	0.95815	4.8906	81.41	-0.2179	-0.0193	0.1986	1208.35	0.147595	-402.020853	-402.011842	-402.010898	-402.054736	33.145	
C	-0.0456577577	 1.4999073053	-0.0260745811	-0.490881
C	 0.0281188803	-0.0233084116	-0.0183017308	 0.299997
O	 1.1079440654	-0.5891939282	-0.0330321884	-0.339406
C	-1.2370475815	-0.7649249442	 0.0071067584	 0.108602
C	-2.5125837608	-0.219171169	 0.0250736997	-0.16175
N	-3.4055263843	-1.241668296	 0.045801066	-0.252008
C	-2.7347015713	-2.4487717706	 0.041868739	-0.149587
C	-1.3868184038	-2.1990350233	 0.0180193693	 0.171825
C	-0.2958740554	-3.2243260132	 0.0059626552	-0.483368
H	 0.9675268951	 1.9025722306	-0.0446065474	 0.136588
H	-0.5956840271	 1.8591666006	-0.9025732149	 0.130759
H	-0.5676505184	 1.8696655882	 0.8630961841	 0.130715
H	-2.8399239691	 0.8080358339	 0.0244557464	 0.130278
H	-4.4050709356	-1.1361617172	 0.0617333635	 0.265947
H	-3.2749921033	-3.3821423613	 0.056326644	 0.123762
H	 0.3391470235	-3.1205799023	-0.8786245098	 0.138486
H	 0.3677961052	-3.1106285974	 0.8680192348	 0.138462
H	-0.7156508112	-4.2349422543	 0.0186301621	 0.10158
