20
gdb 68632	2.44569	1.60619	1.31198	3.9816	79.75	-0.2369	0.0171	0.254	1067.3064	0.172154	-403.163572	-403.155451	-403.154507	-403.196	31.81	
C	 0.0302196309	 1.5721137161	-0.0533198273	-0.500137
C	 0.0168605682	 0.06594075	-0.0955787773	 0.311573
C	 0.8948810294	-0.7696933597	-1.0746354703	-0.260768
C	-0.2244115333	-1.8142057243	-0.8233505216	-0.007759
C	-0.0088751003	-2.1825986733	 0.6646296382	-0.223493
C	 0.1836228577	-0.7355925016	 1.2278035261	-0.24652
N	-1.1424164185	-0.6481211119	-0.7326174006	-0.070774
C	-2.4548000392	-0.6706807344	-0.3619974639	 0.126072
O	-3.1916980142	-1.6285777289	-0.4715618605	-0.326526
H	 1.0021488688	 1.9267849535	 0.3054688313	 0.127825
H	-0.1445547074	 1.9948318622	-1.0466179417	 0.130373
H	-0.7340653809	 1.9622297454	 0.6271125808	 0.12637
H	 0.8772804002	-0.3689246547	-2.0887453901	 0.111192
H	 1.9088092414	-1.0219922889	-0.7574512032	 0.098279
H	-0.4752389098	-2.6005587263	-1.5310609808	 0.096397
H	-0.8816598535	-2.6891575187	 1.0805093238	 0.128678
H	 0.8666523732	-2.8205649272	 0.8100329957	 0.101779
H	 1.1654011589	-0.5746715909	 1.6819914668	 0.102552
H	-0.578281869	-0.4590692165	 1.9619039948	 0.105893
H	-2.8041505328	 0.32058276	-0.0051213803	 0.068993
