22
gdb 99134	3.65595	0.84258	0.79121	3.1665	83.73	-0.2379	0.0317	0.2697	1584.3321	0.192654	-404.377962	-404.367348	-404.366404	-404.415046	37.854	
C	-0.2745680299	 1.3171434798	-0.074432226	-0.365962
C	 0.1940597734	-0.1327352921	 0.0535013978	-0.299739
C	 0.5444910179	-0.7430173625	-1.3041898964	 0.41846
O	 0.006946051	-0.3966497047	-2.3400226818	-0.372952
N	 1.4813380835	-1.7419578006	-1.2643570026	-0.328867
C	 1.979451352	-2.3597781017	-2.4579843439	 0.048715
C	 2.4772337451	-3.7793345316	-2.3694029836	-0.339965
C	 1.203994841	-3.4723332157	-3.1233202491	 0.030953
C	-0.1378297936	-3.9239395611	-2.5966222041	-0.404721
H	 0.5408170863	 1.9673032408	-0.4057299107	 0.120358
H	-1.0725384092	 1.3855896106	-0.8163795824	 0.14565
H	-0.6437328529	 1.6939522357	 0.8834358951	 0.106887
H	 1.0431649389	-0.2144870053	 0.7426573212	 0.09488
H	-0.6079709882	-0.7480465289	 0.4825826393	 0.128723
H	 1.9929384787	-1.8853332016	-0.408515537	 0.242023
H	 2.5109882658	-1.6824980041	-3.1220152527	 0.102093
H	 3.3765096063	-4.0438672622	-2.9141546621	 0.115777
H	 2.3712476693	-4.2807770068	-1.4117267999	 0.108705
H	 1.2866540697	-3.4776360864	-4.2065920206	 0.089851
H	-0.1611836499	-3.9008874185	-1.5034067175	 0.109112
H	-0.9358576331	-3.2701004001	-2.9610518167	 0.138235
H	-0.3578780321	-4.9485133931	-2.9148641362	 0.111785
