20
gdb 107434	3.05362	1.4313	1.2188	1.3365	78.23	-0.2302	0.0716	0.3018	1102.1038	0.172013	-403.102231	-403.094235	-403.093291	-403.13449	31.817	
C	 0.0944841763	 1.2930440293	 0.2857596225	-0.253504
O	-0.0026311516	-0.0087538102	-0.262697809	-0.290312
C	-1.2719028448	-0.5665662891	-0.1513725093	 0.454571
C	-1.7928458501	-1.0616375554	 1.1736845891	-0.352118
C	-1.4345617168	-2.0477501633	 0.0734465554	-0.119156
C	-2.5189077613	-2.5821130501	-0.8688241049	-0.237321
C	-3.0454220849	-1.3684030343	-1.6336894871	-0.025858
N	-3.7075696231	-0.3486563516	-0.7909329932	-0.339925
C	-2.2990396676	-0.1592792293	-1.1995185664	-0.123869
H	 1.1293696813	 1.617983241	 0.154612138	 0.12355
H	-0.5681674463	 2.0060292431	-0.2262805584	 0.104919
H	-0.1544987943	 1.3001611428	 1.3558850063	 0.11156
H	-1.0988249674	-1.0242006325	 2.0070517756	 0.106127
H	-2.833922728	-0.8863233682	 1.4147681956	 0.136746
H	-0.5541681933	-2.6578383502	 0.2413850694	 0.09244
H	-2.0722434732	-3.2870345578	-1.5787889435	 0.102896
H	-3.3208852894	-3.1099144392	-0.3417799428	 0.109964
H	-3.3944861932	-1.4967594389	-2.6538822519	 0.085054
H	-4.311207162	 0.2273031055	-1.3730398638	 0.228797
H	-2.0372500701	 0.6448397184	-1.8786668614	 0.085441
