12
gdb 129810	3.60781	1.64692	1.13764	4.6128	64.13	-0.2441	-0.0649	0.1792	954.0256	0.079428	-464.934722	-464.927705	-464.926761	-464.966311	25.815	
N	 0.2045574354	 1.4220363495	 0.0052094124	-0.618969
C	-0.0444153194	 0.0408092464	 0.0104731755	 0.132786
C	-1.1470006289	-0.8011188674	-0.0218248664	 0.314267
O	-2.4637978462	-0.8414403673	-0.0706597455	-0.315042
N	-2.7389630295	-2.4057617387	-0.0643064665	-0.013606
N	-1.657837522	-2.9840609847	-0.0177123279	-0.149929
C	-0.6050155256	-2.0961406271	 0.0122303923	 0.32738
N	 0.7255252622	-2.1441309299	 0.062482362	-0.307657
N	 1.0205228542	-0.8390275278	 0.0597493407	-0.179061
H	-0.1472943352	 1.8707214755	-0.8340264091	 0.260331
H	-0.2120071984	 1.8885225627	 0.8041283573	 0.260347
H	 1.9862878134	-0.5473545714	 0.0929254152	 0.289153
