19
gdb 78087	2.75728	1.26832	1.03431	3.509	80.83	-0.2338	0.0144	0.2482	1215.3451	0.159057	-382.044618	-382.03564	-382.034696	-382.078115	33.673	
C	 0.0015423077	 1.5757743887	 0.0633307095	-0.424405
C	 0.0770056244	 0.0651158846	 0.0604576566	-0.057159
C	 1.3109219901	-0.7540193424	-0.2739374506	-0.15576
C	 2.565312969	-0.1128597612	 0.3472755225	-0.125172
N	 1.8716524064	-0.0113967652	 1.6797694742	-0.373687
C	 0.7134427806	-0.7732902676	 1.1321015101	 0.361839
C	 0.0418201442	-1.8359054665	 1.9433707158	-0.510551
C	 3.7148058877	-1.0107633685	 0.3614045957	 0.272095
N	 4.6237310603	-1.7251934172	 0.3924527602	-0.322149
H	 0.8312632638	 2.0128612871	 0.6234138387	 0.142362
H	 0.0142703563	 1.9755437678	-0.9561081986	 0.117937
H	-0.9256437874	 1.9098229444	 0.5406666352	 0.119422
H	-0.806108379	-0.42327782	-0.349191026	 0.09239
H	 1.3374997688	-1.5011443296	-1.0566265058	 0.109848
H	 2.8783359016	 0.8588677892	-0.0513571066	 0.12247
H	 2.370896476	-0.5537077509	 2.3785547198	 0.236573
H	-0.4300337779	-1.4039180656	 2.8338504225	 0.134703
H	-0.7388014548	-2.3322006316	 1.3598190835	 0.131094
H	 0.7555620422	-2.5993507352	 2.2738745534	 0.128151
