20
gdb 22827	2.19246	1.49833	0.95662	0.6035	78.63	-0.2374	0.0091	0.2464	1241.7441	0.171459	-440.257772	-440.248932	-440.247988	-440.291111	33.907	
C	-0.0995749305	 1.5351835784	-0.0026401268	-0.399841
C	 0.0596497664	 0.0161175673	 0.048618621	-0.064974
C	 0.8045526721	-0.5170616144	-1.1959204805	-0.079875
O	 0.9479363672	-1.9233233594	-1.1765268075	-0.242022
C	 1.7220752846	-2.3613198063	-0.0767606433	-0.082417
C	 1.0696807108	-1.9846616096	 1.2649772432	-0.303502
C	 0.7670757234	-0.5072661702	 1.2799602478	 0.357333
N	 1.0773799887	 0.3227565412	 2.1992150665	-0.200541
O	 1.7355080223	-0.2849977453	 3.2831519434	-0.400462
H	 0.8737415531	 2.0345617706	-0.0035290232	 0.124224
H	-0.6405483911	 1.8291418521	-0.908005875	 0.105718
H	-0.6510327316	 1.901440233	 0.8655694563	 0.130825
H	-0.9353291502	-0.4534166332	 0.0279859351	 0.092526
H	 0.243495761	-0.2750470799	-2.1033519808	 0.109131
H	 1.7931695216	-0.0305297177	-1.264109342	 0.090001
H	 1.8118855538	-3.4468306825	-0.1721599425	 0.110249
H	 2.7349473115	-1.9280522042	-0.128481249	 0.095451
H	 0.1296326832	-2.5424680468	 1.3627990391	 0.119494
H	 1.7152048253	-2.2587826419	 2.0999917897	 0.133813
H	 1.8974600283	 0.4668598988	 3.8621056586	 0.304869
