15
gdb 43942	3.40937	1.59636	1.49375	0.8718	70.12	-0.2435	-0.0495	0.1941	901.1302	0.111679	-420.500505	-420.493917	-420.492973	-420.531311	27.048	
O	-0.2134964345	-0.1049251753	-0.3637884787	-0.257567
C	-0.0866006314	 1.0567449936	-0.1632677486	 0.332404
C	-1.1375171105	 2.2473311731	 0.1454538543	-0.438094
C	 0.0273804408	 2.7840078176	 0.9922051432	 0.345452
O	 0.9855024719	 3.9405788856	 1.0909965683	-0.346563
C	 1.9749909974	 2.8263124054	 1.1575455459	-0.072019
C	 1.5785168873	 2.1393598195	 2.4703001861	-0.045666
C	 0.2505202516	 2.120284479	 2.3613469562	-0.144115
C	 1.047963801	 2.109624678	 0.0925042651	-0.110073
H	-1.3436293182	 2.8167039113	-0.7632652769	 0.147344
H	-2.0690218307	 1.962713326	 0.6394831149	 0.133035
H	 2.9983848834	 3.1441675042	 0.9651470015	 0.095861
H	 2.2407127698	 1.806675422	 3.2553216794	 0.12328
H	-0.5162875854	 1.7475831007	 3.0245766228	 0.117635
H	 1.1111611677	 2.6843701593	-0.8396639636	 0.119084
