19
gdb 26274	3.45105	1.16271	0.91859	1.3711	84.95	-0.2401	-0.0002	0.2399	1281.8881	0.160836	-385.959275	-385.950902	-385.949958	-385.992855	32.268	
C	 0.1854012494	 1.3325008887	-0.445622354	-0.401099
C	 0.0257737993	-0.0613959658	 0.1745561325	 0.033007
O	 0.5613305339	-0.082903123	 1.491658287	-0.419729
C	-1.4134349145	-0.567314475	 0.1173132095	 0.277196
C	-2.0771575617	-0.9789155767	 1.2737851903	-0.204904
C	-3.392374363	-1.4374222955	 1.2167638856	-0.093461
C	-4.0613885784	-1.5009420729	-0.0011762434	-0.120576
C	-3.4023439256	-1.1083330242	-1.1649876782	-0.094045
C	-2.0917384793	-0.6465626944	-1.1045146344	-0.186843
H	 1.2308880328	 1.6466106019	-0.3829967651	 0.124071
H	-0.1208243729	 1.3505267305	-1.4947296152	 0.122985
H	-0.4336801045	 2.0616328182	 0.0910846836	 0.112606
H	 0.6580597156	-0.7649294294	-0.3825645834	 0.105486
H	 0.1564414859	 0.6410637066	 1.9827628266	 0.278126
H	-1.5476830921	-0.9580311792	 2.2187782749	 0.097751
H	-3.8906242071	-1.751778225	 2.1283812132	 0.093719
H	-5.0843842295	-1.8593254522	-0.0469119676	 0.094026
H	-3.9098579325	-1.1630091794	-2.1227784967	 0.093792
H	-1.5899922558	-0.3531189431	-2.0217554053	 0.087893
