18
gdb 15583	3.4484	1.72194	1.2795	1.0737	73.35	-0.2472	0.0498	0.297	973.2442	0.153352	-347.780583	-347.772366	-347.771422	-347.813707	30.581	
C	 0.4426945812	 1.5073552413	-0.3966749428	-0.390966
C	 0.0297998866	 0.1091204772	 0.0435153407	 0.141311
O	 0.1251700906	-0.7783743297	-1.077583575	-0.272947
C	 0.9484557716	-1.896156928	-0.7731342023	-0.073723
C	 1.8748254126	-1.4306305002	 0.3470241188	-0.228753
C	 0.9151769744	-0.5351019188	 1.1633257758	-0.213115
C	 1.5669639313	 0.3949308993	 2.069446071	 0.320219
C	 2.1123464689	 1.1535536135	 2.826319869	-0.456362
H	 1.5002245775	 1.5370351287	-0.6758786573	 0.118026
H	-0.1497263165	 1.8009635545	-1.2675760271	 0.122171
H	 0.2766478848	 2.2331085851	 0.403768255	 0.122432
H	-1.0152510435	 0.1300863825	 0.3803850495	 0.079599
H	 0.3370877288	-2.752233305	-0.4436378229	 0.088871
H	 1.4770348706	-2.1900200635	-1.6851674709	 0.108505
H	 2.2917037641	-2.2476253391	 0.9396458101	 0.111098
H	 2.7012898022	-0.83441599	-0.0503695307	 0.119754
H	 0.2678856767	-1.1944832422	 1.7555973864	 0.109354
H	 2.5931920681	 1.8254747244	 3.4932654228	 0.194525
