22
gdb 103789	2.75445	0.85903	0.7391	1.2937	93.72	-0.2284	0.0459	0.2743	1672.8488	0.191688	-367.176572	-367.165556	-367.164612	-367.213886	39.12	
C	 0.1297890724	 1.5458348932	 0.1717793053	-0.384174
C	-0.3054289341	 0.1376986115	-0.2502673469	-0.227265
C	 0.5818593689	-0.4665242637	-1.3264564617	 0.342265
C	 0.5148128707	 0.1918389707	-2.6909529307	-0.466735
N	 1.8917134701	-0.9245970821	-0.8388536586	-0.353756
C	 0.8977044652	-1.9364129151	-1.2926342616	-0.334981
C	 0.3667304104	-2.8493706613	-0.3181081735	 0.124659
C	-0.0944023064	-3.6339178017	 0.4717584841	 0.112888
C	-0.6408751391	-4.5778315078	 1.4355356434	-0.501222
H	 1.1694420502	 1.5346065537	 0.5130810045	 0.131005
H	 0.0493065023	 2.2667954504	-0.6484716885	 0.109366
H	-0.4929597468	 1.9141406524	 0.9926212656	 0.110647
H	-0.2890012822	-0.5239492371	 0.6199096911	 0.116287
H	-1.3409280878	 0.154237458	-0.6144140736	 0.090643
H	 0.8668406074	 1.2282285005	-2.6462912236	 0.125992
H	 1.135113792	-0.3403488467	-3.4197019117	 0.111424
H	-0.5124446474	 0.2074807006	-3.0713931979	 0.125184
H	 2.5993588632	-0.8106175601	-1.5617907372	 0.2257
H	 1.0795720535	-2.386439584	-2.2676965153	 0.09743
H	-1.7235857003	-4.4533859649	 1.5501130423	 0.146348
H	-0.4574235035	-5.612896582	 1.1263075663	 0.147571
H	-0.1855202487	-4.4425971447	 2.4229112583	 0.150724
