15
gdb 97470	21.12171	0.36261	0.35809	1.2051	119.55	-0.2221	-0.0449	0.1772	2916.3291	0.110031	-383.420828	-383.410414	-383.409469	-383.460273	33.981	
C	-0.0007044971	 1.4796352571	 0.0115238359	-0.517703
C	 0.0059000198	 0.0294569469	 0.0023725991	 0.129458
C	 0.0112164123	-1.1833373937	-0.0051615757	-0.42205
C	 0.016414703	-2.5346579346	-0.0134870597	 0.308433
C	 0.0215441048	-3.7539127127	-0.0209645349	 0.375746
C	 0.0263574417	-5.1051026198	-0.0291781538	-0.428814
C	 0.0270013091	-6.3176001102	-0.036382667	 0.182878
C	 0.0719952242	-7.7709704963	-0.0465613922	-0.246753
O	-1.2485244534	-8.2942556442	-0.0025103645	-0.407103
H	 1.0195109748	 1.8784166376	 0.0481429347	 0.160435
H	-0.4831674216	 1.8792932743	-0.8877113368	 0.160416
H	-0.5419177722	 1.8675212506	 0.8820208682	 0.160528
H	 0.6060785678	-8.1022243886	-0.9529746694	 0.125701
H	 0.669194678	-8.1126427262	 0.815513292	 0.125702
H	-1.1766769513	-9.2544051902	-0.0107285158	 0.293126
