23
gdb 52650	2.52565	0.95665	0.8312	1.2402	90.77	-0.2396	0.0549	0.2945	1554.0482	0.200983	-388.278705	-388.26671	-388.265765	-388.316541	42.892	
C	 0.0413612137	 1.4944139826	 0.13575142	-0.499879
C	 0.009104355	 0.0408165203	 0.0521157549	 0.073416
C	 0.0004292201	-1.1615477066	-0.0185306894	 0.085987
C	-0.0614750849	-2.6222068002	-0.087700533	-0.204948
C	-1.5274564861	-3.1006532183	-0.0114711605	-0.402679
C	 0.7397303815	-3.1784094114	-1.3137730791	 0.365806
C	 0.8055084333	-4.7128370008	-1.2711889826	-0.425954
C	 0.172086541	-2.6926926778	-2.6480713402	-0.397744
O	 2.0696775461	-2.6553738439	-1.2693025446	-0.456303
H	 0.8548599295	 1.9089419425	-0.4700032961	 0.149133
H	-0.8953606934	 1.9375001373	-0.2206020629	 0.144258
H	 0.1935381218	 1.8313581933	 1.1673865776	 0.144193
H	 0.4533832294	-3.0221386126	 0.8010944171	 0.082467
H	-1.5904734261	-4.1912850944	 0.0252721071	 0.114761
H	-2.0007425188	-2.703201472	 0.8899277853	 0.125405
H	-2.1020995065	-2.7457656446	-0.8710214833	 0.12828
H	-0.1703680971	-5.1787702368	-1.4328186738	 0.116635
H	 1.4855103287	-5.0630165526	-2.0524267182	 0.122781
H	 1.1905786064	-5.0626845599	-0.3054662154	 0.099786
H	 0.1066157991	-1.6023986496	-2.6572287268	 0.132605
H	 0.8347246421	-3.0063898507	-3.4591903407	 0.11972
H	-0.820957738	-3.1093728756	-2.8352584581	 0.10985
H	 2.4449358432	-2.8643053983	-0.4069026474	 0.272426
