19
gdb 2361	4.86109	1.80325	1.41326	1.3258	67.63	-0.2609	0.0762	0.3371	899.7362	0.171308	-310.910909	-310.90298	-310.902035	-310.942851	29.499	
C	 0.028111867	 1.5366531012	-0.0589382469	-0.407662
C	 0.0307813641	 0.0120605411	 0.0626073716	 0.110574
O	 0.6010868323	-0.4098121543	 1.3006815886	-0.440831
C	-1.3672551554	-0.5794012865	 0.0150136645	 0.088638
C	-2.1682076482	-0.5098176697	-1.3156998666	-0.237429
C	-2.67940063	-1.9501901815	-1.0385120524	-0.214658
C	-1.5189912553	-2.1248149558	-0.0215590739	-0.224832
H	 1.0495189969	 1.9343379646	-0.029926502	 0.101364
H	-0.4239056917	 1.857324025	-1.0031507751	 0.119791
H	-0.5348493924	 1.9826466716	 0.767350234	 0.122207
H	 0.6100241385	-0.4105088593	-0.7779984468	 0.053359
H	 1.4860287319	-0.0367032486	 1.3627843847	 0.278446
H	-1.9531683288	-0.1599494233	 0.8411722572	 0.070976
H	-2.9094948197	 0.285457199	-1.4266266336	 0.093985
H	-1.4983053692	-0.4807587975	-2.1822662013	 0.095187
H	-3.6554683972	-1.9439565207	-0.5447414137	 0.100585
H	-2.7255705851	-2.6418202145	-1.8830503394	 0.093382
H	-0.6434732883	-2.5961368937	-0.4798354128	 0.096909
H	-1.7316051394	-2.635271667	 0.9196586338	 0.10001
