12
gdb 21887	5.86334	1.6105	1.26346	1.4255	59.64	-0.2354	-0.0515	0.1839	865.9959	0.085659	-414.695732	-414.689624	-414.688679	-414.725833	23.767	
O	 0.047978674	 1.3184357967	 0.0669368026	-0.417847
C	 0.0622511913	-0.0305922552	 0.0591824896	 0.449089
N	 0.1635783081	-0.632838558	-1.1106674288	-0.29998
N	 0.1816243368	-1.9686113271	-1.1670813479	-0.29998
C	 0.09790749	-2.669845681	-0.0522815407	 0.449089
O	 0.1201227871	-4.0146170529	-0.1582871377	-0.417847
C	-0.0119545484	-2.0887197343	 1.2250390184	-0.165051
C	-0.0304581485	-0.7200791963	 1.2828399724	-0.165051
H	 0.1206213437	 1.5919973738	-0.8591587186	 0.303325
H	 0.1990927984	-4.2070753072	-1.1040616099	 0.303325
H	-0.0774322259	-2.71442115	 2.1066258552	 0.130463
H	-0.1118044364	-0.1729180086	 2.2139588655	 0.130463
