19
gdb 13904	2.68517	1.89802	1.36471	3.4743	73.04	-0.2366	0.0193	0.2559	987.8623	0.163098	-365.077193	-365.067794	-365.06685	-365.111296	33.28	
C	 0.0917610707	 1.3912055692	 0.3255829578	-0.415233
C	-0.0571312248	-0.076099098	-0.005526961	-0.020769
C	 0.6662017126	-0.7403310799	-1.1601526625	-0.005667
C	 1.6154261463	-0.013054812	-2.0847512007	-0.405848
N	 1.0139729257	-1.0327194259	 0.2102233051	-0.090439
C	 2.2488159982	-0.9058462937	 0.8230156856	 0.373089
C	 2.1902298004	-0.4604179632	 2.2746304928	-0.47499
O	 3.2841382658	-1.2061718593	 0.264440138	-0.35364
H	 1.0836997262	 1.7759630418	 0.0786381612	 0.130634
H	-0.6491900365	 1.9752259892	-0.2306920289	 0.129721
H	-0.0830096601	 1.5696125566	 1.3916275124	 0.129691
H	-1.0438631184	-0.4746541378	 0.2334196987	 0.095981
H	 0.1270948916	-1.5544494317	-1.64574052	 0.096724
H	 2.100700512	 0.8385018717	-1.6046450359	 0.125067
H	 2.4066823604	-0.6901854017	-2.4154059911	 0.151469
H	 1.0730167237	 0.3472102395	-2.965142756	 0.115821
H	 2.1647747477	 0.6336543035	 2.3275939694	 0.138922
H	 1.2987446144	-0.8416303353	 2.7785177911	 0.133327
H	 3.089735764	-0.8053699229	 2.785647314	 0.146139
