17
gdb 15390	2.97996	1.45552	1.08019	3.9891	69.73	-0.2613	0.0299	0.2912	1110.5861	0.141461	-363.85258	-363.844009	-363.843064	-363.886462	29.962	
C	-0.4578572595	 1.324949892	-0.3829156964	-0.228964
O	-0.5085775762	-0.0807464278	-0.469686653	-0.234429
C	-1.0012377677	-0.6824805645	 0.7046148709	-0.073163
C	-1.0428870976	-2.1714250364	 0.489675087	-0.019393
C	-1.9704990416	-3.0301428449	 1.2917561533	-0.302818
C	-2.2404773906	-2.8220929571	-0.1921349933	-0.154629
C	-3.3628428254	-2.0231124134	-0.597078719	 0.289976
N	-4.2715816472	-1.382108633	-0.9169433491	-0.344679
H	-0.0691567197	 1.6954457395	-1.3340482241	 0.131241
H	-1.4556316231	 1.7573984344	-0.2128711023	 0.115705
H	 0.2074220712	 1.6602139434	 0.4287946225	 0.102431
H	-0.3493160482	-0.449453919	 1.5647937115	 0.092152
H	-2.0077545669	-0.3032292112	 0.9470136515	 0.104681
H	-0.0866019625	-2.6035626675	 0.2122288361	 0.112629
H	-1.6424596666	-4.0155947399	 1.6005158702	 0.132696
H	-2.6471615293	-2.5403120804	 1.983023049	 0.141276
H	-2.0307918092	-3.6542731041	-0.8549146148	 0.135289
