20
gdb 11524	4.621	0.99995	0.87773	2.8111	76.09	-0.2441	-0.018	0.2261	1327.0073	0.175255	-349.004612	-348.995412	-348.994468	-349.039326	32.865	
C	-0.0941308894	 1.5787296894	-0.0857206161	-0.406188
C	 0.0060067933	 0.0470230617	 0.0026783192	-0.057454
C	-1.3725342489	-0.6484898406	 0.1144405059	-0.218599
C	-2.1519682305	-0.2844460024	 1.3621088514	 0.028494
C	-3.1660814176	 0.8344931555	 1.3603858199	-0.25188
C	-3.624046943	-0.5995882956	 1.4481733575	-0.281643
C	 0.7107323273	-0.4828504356	-1.2301356021	 0.156994
O	 1.7028129963	-1.1644448516	-1.2307194204	-0.249723
H	 0.898879674	 2.0347457603	-0.1458761864	 0.12568
H	-0.660329693	 1.8860278811	-0.9728511985	 0.116889
H	-0.6029314272	 1.9848712737	 0.7909214919	 0.136733
H	 0.620186467	-0.238624154	 0.8641209648	 0.092951
H	-1.9756302863	-0.4092278311	-0.772629928	 0.09428
H	-1.2130062296	-1.7345558948	 0.095195025	 0.112556
H	-1.5916428801	-0.411351845	 2.2856044396	 0.085511
H	-3.2512698133	 1.459263589	 2.2428015758	 0.113024
H	-3.3379682798	 1.3617103837	 0.4276606092	 0.111493
H	-4.0990890287	-1.0332079438	 0.5739548683	 0.112239
H	-4.0205641942	-0.9593289173	 2.3910117381	 0.113935
H	 0.2175443836	-0.190418853	-2.1900100651	 0.064708
