14
gdb 28916	2.49065	1.88502	1.0735	1.9435	68.25	-0.2112	0.0032	0.2144	1024.1434	0.103221	-470.080473	-470.072794	-470.07185	-470.112192	29.793	
N	 0.0508259862	 1.381041093	-0.079383211	-0.567695
C	 0.0191825962	 0.0153226906	-0.0484989272	 0.328759
C	-1.2028073653	-0.667380518	-0.1102986488	 0.212304
O	-2.373870672	 0.0380136582	-0.1523109243	-0.467558
C	-1.1293265035	-2.0498938951	-0.1161501785	 0.323945
O	-2.2951013892	-2.7386348864	-0.1697305234	-0.44215
N	 0.0158197741	-2.7257475775	-0.0688059694	-0.362045
C	 1.1164823452	-1.9756256457	-0.0081220467	 0.049765
N	 1.1847754393	-0.649811575	 0.0083950969	-0.335748
H	 0.9184550664	 1.8043004079	 0.2078407786	 0.261861
H	-0.798160314	 1.8706000043	 0.1507316331	 0.269289
H	-3.1005145965	-0.5959707307	-0.1709914223	 0.310895
H	-2.0585051904	-3.6759916777	-0.1632376602	 0.304832
H	 2.0619473635	-2.5097664979	 0.0358251131	 0.113544
