19
gdb 84571	2.62612	1.92507	1.46173	1.663	78.7	-0.237	0.0243	0.2613	959.9225	0.160502	-385.85803	-385.850741	-385.849797	-385.88943	29.642	
C	-0.219310348	 1.5948788542	-0.0348375622	-0.405076
C	-0.0032432157	 0.0738305523	-0.0123199241	-0.034259
C	 0.8198940429	-0.4442716516	-1.180300638	-0.057182
C	 1.848167853	-1.2169035705	-0.8292726915	-0.079424
C	 1.9571570397	-1.3506864553	 0.6602570671	-0.110267
C	 2.9445228749	-0.4125122426	 1.4141899576	 0.011904
O	 2.7436174617	 0.9162952618	 0.9335253734	-0.230574
C	 1.8329737665	 0.413653828	 1.9164368745	 0.013341
C	 0.7773911672	-0.4693787197	 1.2133395503	-0.073564
H	 0.7361372045	 2.1242360221	-0.0220748874	 0.144748
H	-0.7637976729	 1.8938243142	-0.9368065496	 0.108154
H	-0.8097300228	 1.9202393039	 0.8285093562	 0.106209
H	-0.9958914583	-0.3990820854	-0.0423574594	 0.075229
H	 0.5601379163	-0.1904906805	-2.20409456	 0.088375
H	 2.5458417208	-1.6765768564	-1.5208251172	 0.091998
H	 1.9951665815	-2.3774227359	 1.0357101554	 0.076617
H	 3.9128976328	-0.6412028635	 1.8448705959	 0.100541
H	 1.7370472711	 0.9863151572	 2.8323610066	 0.099409
H	 0.1452434547	-0.9833082321	 1.9401298525	 0.073821
