18
gdb 19980	3.52551	1.40987	1.13269	0.7936	78.92	-0.2373	0.0506	0.2879	1089.2474	0.152915	-310.607964	-310.599853	-310.598909	-310.640755	30.89	
C	-0.1332646933	-1.218548457	 0.020871898	-0.475713
C	-0.0634464128	-0.0170435664	 0.0248650264	 0.339221
C	 0.0094419804	 1.41409891	 0.0219401817	-0.200136
C	 0.5104540083	 2.158398771	 1.2536092557	-0.3055
C	 1.3581942541	 2.1348043408	 0.0148373368	-0.005588
C	 2.6419851294	 1.3736142432	-0.0329880343	 0.022897
C	 3.4939230146	 1.3987973607	-1.2775180066	-0.267045
C	 3.958844363	 2.1120333273	-0.0318492067	-0.275661
H	-0.197996223	-2.2780442495	 0.0175080738	 0.193003
H	-0.7844788878	 1.9031891261	-0.5351998814	 0.110293
H	-0.0014141196	 3.0740617193	 1.5280640025	 0.115841
H	 0.8286381481	 1.548183166	 2.0915399256	 0.126206
H	 1.3637156073	 3.0507304321	-0.5716895031	 0.08549
H	 2.6193870724	 0.4317851535	 0.506536732	 0.093255
H	 3.9995334728	 0.4862507701	-1.5725775189	 0.113416
H	 3.1541045182	 2.0052860938	-2.1108528764	 0.109643
H	 3.9315252932	 3.19697579	-0.0290794832	 0.109168
H	 4.7850448246	 1.6899538689	 0.5296608783	 0.11121
