21
gdb 102515	2.15115	1.22081	0.83279	2.0359	81.12	-0.241	0.0297	0.2708	1421.9522	0.178138	-424.176888	-424.165582	-424.164638	-424.213539	40.069	
C	 0.0568613112	 1.0704225767	 0.7759200248	-0.398789
C	 0.0031838085	-0.343164163	 0.1936789154	-0.170089
C	 0.5686275162	-0.424141373	-1.2248188688	 0.09646
O	 1.9570328958	-0.1266859204	-1.1855575505	-0.248551
C	 2.4059910855	 0.8368444375	-2.1173588157	-0.240921
C	 0.3823764749	-1.8461455853	-1.8194184453	-0.059489
O	-0.9819953513	-2.2590939544	-1.7820260709	-0.416381
C	 0.9271454331	-1.9554816166	-3.1747489008	 0.29113
C	 1.2974937635	-2.0420932963	-4.3158580858	-0.440101
H	 1.0841346082	 1.4454964339	 0.7879094838	 0.127841
H	-0.5519283884	 1.7672332059	 0.1881556451	 0.107602
H	-0.321029121	 1.0864811711	 1.802546435	 0.112986
H	 0.5837262709	-1.0278084952	 0.8252254241	 0.101981
H	-1.023704222	-0.7195534467	 0.1767534142	 0.112454
H	 0.0424234457	 0.2932331924	-1.8744416201	 0.063257
H	 2.2402509389	 0.5168164176	-3.1534513563	 0.119312
H	 1.9153488999	 1.8093556075	-1.9625401453	 0.103874
H	 3.4800729057	 0.9581055429	-1.9535076146	 0.124921
H	 0.9187718707	-2.5396837193	-1.1607314733	 0.125581
H	-1.4249593082	-1.8638703945	-2.5409774097	 0.286666
H	 1.6440271123	-2.1330559507	-5.3158370555	 0.200257
