12
gdb 3958	7.56096	2.05069	1.67096	4.123	50.74	-0.2596	0.0001	0.2597	695.0003	0.092814	-356.712228	-356.706155	-356.705211	-356.742719	21.338	
O	 0.1392978234	 1.2643414293	-0.3959127399	-0.41778
C	-0.0047483633	 0.0271696248	 0.2695547844	-0.145589
C	-1.4099477403	-0.4887943966	 0.1663763728	 0.334838
N	-2.0393108924	-1.1563786221	 1.1182823207	-0.265665
N	-3.2390089535	-1.4139545899	 0.5384178567	-0.180133
C	-3.2821876254	-0.893225255	-0.7018510733	 0.023011
N	-2.1372532685	-0.301201926	-0.9767232005	-0.317124
H	-0.3997126046	 1.2068377574	-1.1947746168	 0.296782
H	 0.6853789744	-0.7295665362	-0.1409052778	 0.104755
H	 0.2587073704	 0.1702168517	 1.3212408897	 0.129457
H	-3.9471872538	-1.9135559572	 1.0508785461	 0.285636
H	-4.1433394664	-0.9675893202	-1.348677402	 0.151812
