13
gdb 130652	5.2457	1.33382	1.07063	2.8285	65.33	-0.2434	-0.0313	0.2121	1010.1813	0.092335	-448.953024	-448.946526	-448.945582	-448.984107	24.596	
O	-0.0460578529	 0.0031521945	 0.005412858	-0.335033
C	-0.0383698006	 1.2037634516	 0.0102293535	 0.409562
C	-1.2695125387	 2.1527805862	 0.0322688501	-0.312105
N	-0.6266421053	 3.447752754	 0.0296501134	 0.03781
N	-1.0438601463	 4.738553026	 0.0417581966	-0.161857
N	 0.0367939806	 5.4613648039	 0.030357328	-0.175657
C	 1.1577463427	 4.6679961463	 0.0112294089	-0.184688
C	 0.720754798	 3.3680243953	 0.0107998383	 0.418312
N	 1.0831776314	 2.0288403442	-0.0005961582	-0.459921
H	-1.8927911606	 1.9884154621	-0.8505925775	 0.175849
H	-1.8678706207	 1.979652882	 0.9305663995	 0.175897
H	 2.1506575764	 5.0818232865	-0.0002657499	 0.128714
H	 2.022894536	 1.6692563072	-0.0150373906	 0.283117
