17
gdb 110537	3.77557	1.21402	1.13955	1.6487	68.14	-0.2325	0.0653	0.2979	1116.7048	0.134577	-458.867598	-458.859564	-458.858619	-458.900435	30.409	
C	 0.0836327843	 1.2271779017	 0.2619384201	-0.24117
O	-0.0267709996	-0.0640963614	-0.2954089041	-0.246938
C	-1.2869550321	-0.6352142478	-0.1320268366	 0.203744
C	-1.4449293181	-2.0621436712	-0.6124415084	-0.230777
C	-1.0556309733	-2.9324428712	 0.6180480088	-0.004021
O	-0.6393134874	-2.0572238908	 1.6590563484	-0.270187
C	-1.7163040214	-1.1739139055	 1.2747230862	-0.094228
C	-2.4340831652	-2.368639449	 0.4927949651	 0.309856
O	-3.7093188869	-2.8430310709	 0.3842610326	-0.44366
H	 1.0854634141	 1.5955807275	 0.0305920379	 0.12974
H	-0.657660906	 1.9200943459	-0.167155663	 0.101893
H	-0.043452334	 1.215981862	 1.3541958309	 0.11151
H	-2.0837042821	 0.0085356472	-0.5372718964	 0.072333
H	-1.4244223064	-2.4496165062	-1.6220510636	 0.101835
H	-0.6361401458	-3.9266930775	 0.5492336733	 0.116378
H	-2.082749703	-0.5436739545	 2.0820302051	 0.086185
H	-3.942678057	-3.2867522581	 1.2084428036	 0.297507
