16
gdb 24299	4.11999	1.59008	1.24842	4.8414	74.55	-0.2132	0.0248	0.2381	963.6446	0.129449	-396.94044	-396.93423	-396.933286	-396.970992	25.142	
C	-0.0374692899	 1.4802032596	 0.0026246594	-0.188181
C	 1.4368486831	 1.8890163094	-0.0369943413	-0.033279
N	 2.1881143766	 1.4898462243	 1.1645559621	-0.327902
C	 2.2801770353	 0.6560629232	-0.0705728532	-0.245082
C	 1.3354126311	-0.4766519034	-0.0524363631	 0.389582
C	 1.2015005878	-1.8402484192	-0.050909952	-0.226287
N	-0.131833442	-2.1814610356	 0.0268847806	-0.275312
C	-0.7940780958	-1.0421033973	 0.0789712638	-0.008931
N	 0.050648453	 0.0211219321	 0.0248653718	-0.027252
H	-0.5433564914	 1.8605525979	 0.89497642	 0.138318
H	-0.5730451684	 1.828072565	-0.8873651527	 0.124785
H	 1.7104689065	 2.7944615815	-0.566878095	 0.102791
H	 3.0233682752	 2.068335161	 1.237260598	 0.234713
H	 3.2173771579	 0.6068181463	-0.611058689	 0.10735
H	 1.9715102122	-2.5945933042	-0.0984668898	 0.107816
H	-1.8663533111	-0.9380076605	 0.1495160305	 0.126871
