19
gdb 1292	5.06464	1.37057	1.14452	2.3094	64.84	-0.2571	0.0766	0.3337	1066.9097	0.169552	-348.051405	-348.042453	-348.041508	-348.085275	31.621	
C	-0.2450569564	 1.5239075357	 0.0765206828	-0.389148
C	-0.089697908	 0.0123164001	-0.0449625628	 0.16043
C	 0.8317297476	-0.5620147813	 1.0342625676	-0.392613
O	-1.4037104655	-0.5356123347	 0.0353515447	-0.271267
C	-1.5432012936	-1.8783673639	-0.393588008	-0.078098
C	-3.0366365239	-2.1248803015	-0.5552279901	-0.054729
O	-3.6081676129	-1.2242248588	-1.4816815801	-0.422218
H	 0.7253108535	 2.0203760313	-0.0149428607	 0.115467
H	-0.9059524744	 1.9060924762	-0.7062576938	 0.118171
H	-0.6768095872	 1.784771401	 1.0480226993	 0.124264
H	 0.3295649193	-0.2292178233	-1.0364094714	 0.068179
H	 0.4245890781	-0.3554400862	 2.0293815688	 0.122881
H	 0.9534982358	-1.643880908	 0.9301012544	 0.117754
H	 1.8257522873	-0.1088546926	 0.9660703406	 0.116469
H	-1.0331363853	-2.0229245747	-1.35943068	 0.092871
H	-1.1156980471	-2.5870362646	 0.3321835871	 0.088991
H	-3.2055769433	-3.1382667186	-0.9343326063	 0.105385
H	-3.5202813545	-2.0486361189	 0.4321127124	 0.091354
H	-3.2798598096	-0.3546108473	-1.2225350845	 0.285859
