17
gdb 56399	3.43828	0.71058	0.63442	1.3702	84.66	-0.253	0.0158	0.2688	1756.5046	0.132764	-384.597311	-384.587491	-384.586547	-384.634126	34.481	
C	 0.3406814023	 0.8922880362	-0.7442367493	-0.376774
C	 0.1652304646	-0.3506091509	 0.1656575549	-0.329215
C	 0.3643667146	-0.0057336092	 1.5781191218	 0.34499
C	 0.5455882612	 0.297862212	 2.7258778358	-0.467046
C	-1.1383311898	-0.9864529832	-0.0549200447	 0.152119
C	-2.2135349583	-1.488491614	-0.2584977037	 0.061777
C	-3.4817706956	-2.1196330151	-0.5042489697	-0.116738
C	-4.7155105246	-1.6734925316	 0.1734309146	-0.158759
O	-4.4852099506	-1.35235539	-1.1917548177	-0.214883
H	 1.3314871023	 1.3267829282	-0.5913088246	 0.129121
H	 0.2310876226	 0.6041933329	-1.792384813	 0.130996
H	-0.4139286432	 1.6448555925	-0.506351566	 0.141347
H	 0.9426875834	-1.076811048	-0.1131536119	 0.13927
H	 0.6997285425	 0.5569626805	 3.7440929283	 0.200415
H	-3.4323148008	-3.1596689398	-0.8252188577	 0.117095
H	-5.5065357835	-2.3980008986	 0.363402862	 0.119569
H	-4.6588949071	-0.8390612119	 0.8695644008	 0.126716
