20
gdb 18388	2.87651	2.25549	1.47199	0.4164	80.65	-0.2231	0.0278	0.2509	916.9812	0.180502	-311.870465	-311.863403	-311.862459	-311.901516	28.613	
C	 0.3696575669	 1.3962156409	-0.5033618568	-0.292878
C	 1.3884728835	 0.3602041148	-0.1114485895	-0.008137
C	 2.3926984251	 0.5550962749	 1.0096926185	-0.211027
C	 1.8974778374	 1.2276105722	 2.2931571962	-0.208193
C	 0.963284105	 0.3643547035	 3.1537933434	-0.237595
C	-0.4162338732	 0.0935445026	 2.610724962	-0.069493
C	-0.8240113882	-0.0362898837	 1.3456543446	-0.050868
C	-0.0805873252	 0.0513946896	 0.0657454355	-0.050431
H	 0.2362836497	 2.2556053825	 0.1440144341	 0.116872
H	 0.2043255836	 1.5999111376	-1.5561065569	 0.106265
H	 1.8306441482	-0.1618722578	-0.957758751	 0.080402
H	 2.8163012557	-0.4245363816	 1.2730425022	 0.093983
H	 3.2280158262	 1.1437533287	 0.606706847	 0.094799
H	 2.7763681138	 1.4810461189	 2.8982953635	 0.092397
H	 1.4058526791	 2.1804080098	 2.0622627212	 0.099164
H	 1.4649837934	-0.5937452677	 3.3647641353	 0.106192
H	 0.8505452934	 0.845951849	 4.1331560413	 0.096518
H	-1.1812394281	-0.0258015118	 3.3762773354	 0.078953
H	-1.8843295088	-0.2429131072	 1.2011079554	 0.079365
H	-0.4861050074	-0.6227206552	-0.6854196014	 0.083711
