17
gdb 2363	4.92833	1.87036	1.4747	2.5319	60.01	-0.2417	0.0647	0.3064	840.2379	0.147529	-346.829131	-346.82134	-346.820396	-346.861508	27.652	
C	-0.1497690253	 1.5130588125	-0.004900398	-0.411678
C	 0.0320797931	-0.0050076367	-0.0159409925	 0.117491
O	 0.7763952324	-0.4332615774	-1.1543142937	-0.440357
C	 0.8029937635	-0.5098088941	 1.1935911327	-0.00134
C	 0.0467809462	-0.5345680747	 2.5397586728	-0.091257
O	 0.0825679902	-1.9733355923	 2.5901482157	-0.274828
C	 0.8488687052	-2.0422232018	 1.3666847238	-0.084676
H	 0.8242680006	 2.0125452534	-0.0109715032	 0.125739
H	-0.7096617172	 1.8452195988	-0.8866550195	 0.107564
H	-0.7062973086	 1.8407499197	 0.8794384175	 0.120894
H	-0.9617630715	-0.4858662123	-0.0145747753	 0.06806
H	 0.3124696046	-0.1376254062	-1.9439616242	 0.282274
H	 1.7811576751	-0.0232255758	 1.2258643623	 0.081588
H	 0.5741645903	-0.0789894804	 3.3875036321	 0.098508
H	-0.9818077394	-0.1484627516	 2.5188229401	 0.095044
H	 0.3371161904	-2.6181600569	 0.5867038966	 0.107475
H	 1.8442385604	-2.4718381644	 1.5315248029	 0.099499
