15
gdb 23533	2.06197	1.79771	1.08614	4.0717	73.75	-0.2527	-0.0108	0.2419	1080.2837	0.112372	-416.743748	-416.735791	-416.734847	-416.776482	29.699	
O	-0.1316528349	 1.2934771942	 0.0170813128	-0.387084
N	 0.0472448649	-0.0948855938	-0.063701863	-0.249842
C	-1.0547256921	-0.701701416	 0.0632382942	 0.440037
C	-1.4066248311	-2.1371978195	-0.0474417056	-0.143997
C	-2.3037498879	-2.531713062	 1.1119262573	-0.287888
C	-2.9033056238	-1.7477481409	-0.0063898881	-0.053484
C	-2.5295487609	-0.2502647877	 0.1237016389	-0.265657
C	-3.0071157273	 0.4638769255	 1.3005763553	 0.302577
N	-3.3941467578	 1.0023912275	 2.2472514597	-0.335302
H	 0.7678805107	 1.6254991039	-0.0766536586	 0.314521
H	-0.8970926829	-2.8690432596	-0.6592733317	 0.118992
H	-2.5655225107	-3.5844124664	 1.1307976355	 0.132615
H	-2.1686454682	-2.084145107	 2.0919338259	 0.145913
H	-3.7084683249	-2.1123494957	-0.6289904424	 0.117724
H	-2.7670148929	 0.3260667475	-0.7757759001	 0.150874
