21
gdb 95151	2.59784	1.69491	1.42557	1.4544	81.38	-0.2326	0.0208	0.2534	1014.8457	0.186341	-387.110616	-387.1032	-387.102256	-387.141897	31.213	
O	-0.084448621	 1.457070778	 0.0808377545	-0.449507
C	 0.0093610299	 0.0395850962	-0.0051827419	 0.148464
C	 0.850710644	-0.5373117458	 1.1539609457	-0.228913
C	 0.6404630732	-2.0493850466	 1.4018717132	-0.21561
C	-0.855151531	-2.4423351613	 1.2763920136	-0.041391
C	-1.3219942839	-2.0599358325	-0.1453873456	-0.225317
C	-1.4280157384	-0.5278993273	 0.0060203643	-0.051927
C	-2.0397266096	-0.424549453	 1.3970460717	-0.066
C	-1.7240612454	-1.5071957723	 2.1103693155	-0.073761
H	 0.8075897407	 1.8097717597	 0.1625384854	 0.277458
H	 0.4663866738	-0.2452658001	-0.9678713832	 0.057585
H	 1.9139394766	-0.3298742245	 0.9786855491	 0.079722
H	 0.5647564473	 0.0170468252	 2.0527374597	 0.111801
H	 1.2148358821	-2.6400781161	 0.6775694299	 0.094538
H	 1.0314377522	-2.3071369337	 2.3926966436	 0.094126
H	-0.9887013379	-3.5024603297	 1.5108026004	 0.058544
H	-0.6243158267	-2.3756840673	-0.928764315	 0.083863
H	-2.304216311	-2.4901435083	-0.3616426777	 0.094611
H	-2.0104664202	-0.0355243381	-0.7771732585	 0.067408
H	-2.5761307597	 0.4470656405	 1.7510407107	 0.097077
H	-1.957660465	-1.677211533	 3.1554194846	 0.087228
