20
gdb 13852	3.8633	1.43237	1.19684	2.6245	74.88	-0.2392	-0.0057	0.2335	1075.3486	0.177536	-349.048021	-349.039474	-349.03853	-349.082681	30.904	
C	 0.0520432985	 1.3852504483	-0.2956048191	-0.478073
C	 0.0614170434	-0.0950541275	 0.0478386659	 0.36915
O	 1.0970376596	-0.6972628417	 0.219525568	-0.301192
C	-1.3041193124	-0.7718885498	 0.1344732272	-0.065323
C	-1.8755107578	-1.025865722	-1.3004623449	-0.216948
C	-2.6495034999	-2.3465315695	-1.1709423665	-0.197061
C	-1.7641427906	-3.1768455119	-0.2307104049	-0.194648
C	-1.2813729325	-2.1613498785	 0.8275678008	-0.225657
H	 1.0707698872	 1.7377450014	-0.4609200171	 0.13962
H	-0.5604999408	 1.5788332187	-1.1825183479	 0.137976
H	-0.3987136064	 1.9501355205	 0.529127705	 0.139329
H	-1.9823292642	-0.0890511875	 0.6586967033	 0.076213
H	-2.487399601	-0.1951410854	-1.661959131	 0.097915
H	-1.0501990709	-1.1577836889	-2.0111729863	 0.109573
H	-3.6263782973	-2.162978813	-0.7057028976	 0.096429
H	-2.8313772639	-2.8260077629	-2.1374846337	 0.095723
H	-2.2840439938	-4.0326441992	 0.2087097922	 0.093077
H	-0.906472278	-3.5698664189	-0.7892932994	 0.105807
H	-0.2786132331	-2.3905626955	 1.1922509804	 0.124868
H	-1.9574521763	-2.1553403268	 1.6880077357	 0.093222
