19
gdb 39435	2.46097	1.94925	1.33856	1.5608	74.36	-0.2266	0.0715	0.2981	989.9542	0.161429	-422.988238	-422.981072	-422.980128	-423.019625	29.074	
C	-0.0658063342	 1.4753359754	-0.0554435452	-0.390596
C	 1.2786651611	 0.7478275112	 0.0326918804	-0.119845
C	 2.0581545094	 0.6145142945	 1.3299820484	-0.107592
O	 2.0112686514	-0.7214799355	 1.8272788987	-0.237654
C	 0.7126539807	-1.0724005477	 2.2641029214	-0.107765
C	-0.3406402851	-0.9784212297	 1.1544675635	-0.141021
C	-0.3653465704	-1.9962996288	-0.0109576084	-0.103288
O	-0.3720491858	-0.9241972997	-0.9913859249	-0.313382
C	-0.0189271221	-0.0020266854	 0.0321449478	 0.477093
H	-0.4223059893	 2.0407882321	 0.8019029939	 0.111699
H	-0.3142437653	 1.9106225822	-1.0175588398	 0.127867
H	 1.8529588453	 0.7099076703	-0.8870076549	 0.101642
H	 3.1170504171	 0.8385474688	 1.1812997528	 0.114493
H	 1.6718577126	 1.3057074358	 2.0977812645	 0.087618
H	 0.7805163635	-2.0937939894	 2.6526173341	 0.110688
H	 0.4139649277	-0.4171085435	 3.1008606296	 0.087257
H	-1.3367269852	-0.8354325279	 1.5835402258	 0.085557
H	 0.5466144033	-2.6020365043	-0.0871236962	 0.110229
H	-1.2486748046	-2.6343807982	-0.1023966912	 0.106998
