16
gdb 73073	2.59249	1.49771	1.21416	2.1997	64.91	-0.2436	0.0169	0.2605	1038.948	0.123442	-474.987614	-474.979271	-474.978327	-475.021176	30.579	
O	-0.0817469847	 1.3158307943	 0.468288966	-0.456082
C	-0.1104495937	-0.028769349	 0.2040309829	 0.325762
C	 0.8282677987	-0.7564457405	-0.7549065331	-0.147831
O	-0.2351487708	-1.674348065	-1.1469098694	-0.288039
C	-1.1744407563	-0.9703944532	-0.3437262965	-0.026011
C	-0.7834663858	-1.0257620321	 1.1113874086	-0.068679
N	-0.0695163783	-2.1137859705	 1.6999418483	-0.281477
C	 0.9652715692	-1.870033579	 2.5472688584	 0.150354
O	 1.331658818	-0.7586136315	 2.8768396289	-0.334475
H	 0.3418724609	 1.4149244429	 1.3318622068	 0.303932
H	 1.1216666768	-0.1297148556	-1.6026877005	 0.124259
H	 1.6982165665	-1.2736373186	-0.3375585663	 0.113954
H	-2.1894428623	-0.8643510615	-0.7086138554	 0.120188
H	-1.508052244	-0.5345385979	 1.7597789195	 0.117649
H	-0.2741618034	-3.0597394503	 1.4186770059	 0.260634
H	 1.4421371192	-2.7989300627	 2.9144712961	 0.085861
