18
gdb 8280	7.0464	0.90909	0.8902	4.1556	70.28	-0.2754	0.011	0.2864	1316.3349	0.152637	-384.957823	-384.949396	-384.948451	-384.99179	29.987	
C	-0.2908446691	 1.4193809506	-0.032527641	-0.392287
C	 0.0155675133	-0.0751515462	 0.0049733802	 0.020847
C	 1.2895153144	-0.4992581924	-0.7913662005	-0.262442
C	 2.0653480934	-0.5309787608	 0.542377879	 0.155656
C	 0.7252603889	-0.5623177966	 1.3072450866	-0.262455
O	 2.9146727402	-1.6589482843	 0.7366729472	-0.186888
C	 4.1965569965	-1.453684043	 1.0897884272	 0.161437
O	 4.9705454551	-2.3446550079	 1.271498004	-0.276709
H	 0.5890744732	 2.0213830367	 0.2228369807	 0.112938
H	-0.6227066089	 1.7277500605	-1.029748757	 0.119563
H	-1.0832583409	 1.6762683866	 0.6786395774	 0.119566
H	-0.8836432039	-0.6393057985	-0.253730332	 0.079431
H	 1.2028441564	-1.5083613575	-1.2013211849	 0.121784
H	 1.6532587477	 0.1748086386	-1.5712456321	 0.102378
H	 2.6343836242	 0.3877075016	 0.7229521007	 0.087694
H	 0.6390836965	 0.0614376954	 2.2007847488	 0.102366
H	 0.4600011445	-1.5913697994	 1.561330049	 0.121771
H	 4.4461109083	-0.3784941133	 1.1907029366	 0.075351
