14
gdb 12159	3.85425	1.49362	1.16115	3.5163	65.32	-0.2536	0.0071	0.2607	981.6638	0.108236	-374.894672	-374.88677	-374.885826	-374.927222	28.225	
N	 0.0973093579	 1.2708257282	 0.3034673296	-0.509789
C	 0.0776029751	-0.1050790588	-0.1015599228	-0.057829
C	-1.3403766335	-0.792968704	-0.2824575411	-0.113328
N	-0.8422716189	-1.3129337864	-1.5634037693	-0.324302
C	 0.2853345044	-0.4905652981	-1.5779660573	 0.352489
N	 1.1338687659	-0.0976489292	-2.4243311127	-0.540395
C	-1.7458368166	-1.8027882774	 0.6904640427	 0.283971
N	-2.0612264731	-2.5948252424	 1.4708662804	-0.31922
H	 0.9890338259	 1.5100980369	 0.7195065559	 0.251615
H	-0.0299704575	 1.8842861764	-0.4950821894	 0.243793
H	 0.6997315993	-0.7051576997	 0.5651955137	 0.132826
H	-2.1245832037	-0.033298972	-0.3732186731	 0.13005
H	-1.4173684984	-1.5724309103	-2.3525754468	 0.251704
H	 0.964116333	-0.4778533232	-3.3567892099	 0.218418
