17
gdb 18978	4.3786	2.21374	1.82697	2.3585	67.95	-0.2294	0.0831	0.3125	759.1848	0.145409	-363.782397	-363.776451	-363.775507	-363.81236	23.895	
C	-0.0430171831	 1.5639192972	 0.0102269045	-0.167895
C	 1.4618698791	 1.2518847124	-0.0055275271	-0.083742
C	 1.1031648905	 0.1606788665	 1.0291044931	 0.020455
C	 1.9803534684	-1.0690929927	 1.1654236143	-0.102149
O	 2.0568586272	-1.823248244	-0.0273097987	-0.246222
C	 1.9581261221	-1.0565554485	-1.2103761179	-0.102148
C	 1.0837395685	 0.1716100114	-1.0447024968	 0.020454
N	-0.0533747425	 0.0270198356	 0.0022124736	-0.160243
H	-0.4707581417	 1.9931971037	 0.9209639117	 0.099765
H	-0.4877116098	 2.0027452207	-0.8877493371	 0.099763
H	 2.316553654	 1.9389130541	-0.009914722	 0.062053
H	 0.7601272634	 0.5127753338	 2.0076027826	 0.074205
H	 2.9828258502	-0.7540878599	 1.5067979715	 0.089288
H	 1.5709517959	-1.7441742196	 1.9246996146	 0.116462
H	 2.9540648328	-0.7378347942	-1.5670850227	 0.089288
H	 1.5345593648	-1.7236367156	-1.9689516541	 0.116462
H	 0.7224621602	 0.533961439	-2.0128368995	 0.074205
