17
gdb 34347	2.88531	1.60883	1.29352	3.2355	76.07	-0.2408	0.0149	0.2557	999.4426	0.137989	-380.815323	-380.808142	-380.807198	-380.846766	28.775	
N	-0.0152635155	-1.1524870009	 0.0621988074	-0.345626
C	-0.0273204539	 0.0046632934	 0.0466633044	 0.205408
C	-0.0396824603	 1.4449476592	 0.0196885133	 0.173759
C	-0.3995037695	 2.1415066796	-1.3325599681	-0.235621
N	 0.8004769572	 3.0173987724	-1.2105344782	-0.31948
C	 1.2811211367	 2.2793407439	-0.0150123866	-0.058127
C	 0.9326394769	 2.8991382232	 1.3612980848	-0.031464
C	-0.3726743676	 3.6306573101	 1.2849435595	-0.305265
C	-0.396817442	 2.1307032277	 1.3678240272	-0.110327
H	-0.3683364427	 1.4416374697	-2.1735666287	 0.122987
H	-1.3485841992	 2.6865926275	-1.353909704	 0.118047
H	 1.4258812746	 2.9653172207	-2.0047966325	 0.22952
H	 2.2526046238	 1.7897149911	-0.0882792387	 0.093348
H	 1.6407338628	 3.0457475665	 2.1671026898	 0.096207
H	-0.6766582043	 4.1244774612	 2.2020349137	 0.120058
H	-0.6387807016	 4.1596211504	 0.3768354593	 0.139746
H	-0.8823979356	 1.6041891243	 2.1791917772	 0.106832
