16
gdb 105866	2.23929	1.51836	1.13686	1.0244	66.21	-0.2546	0.0086	0.2633	1096.1473	0.123102	-474.973017	-474.964462	-474.963518	-475.006663	31.636	
O	 0.6832769664	 0.363999047	 0.9156652225	-0.408602
C	-0.0397410114	 0.305879253	-0.303241323	-0.194
C	-1.3930357007	-0.3487991191	-0.1617960695	 0.088266
C	-2.0890969465	-0.6644362612	 1.1834954162	 0.077868
O	-3.3415611308	-0.2219758858	 1.5668004297	-0.424089
C	-1.8670240342	-1.7585955237	 0.2126845017	-0.025031
O	-2.9231132204	-1.6924558784	-0.790504211	-0.299589
C	-2.422334577	-0.4580729147	-1.2331183089	 0.393561
N	-2.7363439816	 0.2298584999	-2.2302985021	-0.553868
H	 0.3061282656	 1.0710627741	 1.4488319791	 0.292625
H	-0.1822241252	 1.3025037973	-0.7436365119	 0.125978
H	 0.5848288526	-0.2647050254	-0.9990069641	 0.127656
H	-1.3782132523	-0.6296036549	 2.0038965401	 0.132195
H	-3.9793192495	-0.5820844296	 0.9367467704	 0.301615
H	-1.3525825356	-2.704484411	 0.3232444549	 0.130764
H	-3.4907392594	-0.2018909875	-2.766009634	 0.234652
