20
gdb 55151	2.7233	1.43683	1.28534	3.614	77.95	-0.2308	0.0046	0.2354	1087.6603	0.171962	-403.159051	-403.150773	-403.149828	-403.192206	32.198	
C	 0.267188432	 0.6243772957	-1.0159278269	-0.489538
C	-0.002429398	-0.3410874819	 0.1230833652	 0.429094
O	 0.901701024	-0.7600269657	 0.8088408694	-0.316781
C	-1.4622677763	-0.7116131303	 0.4464747784	-0.131406
C	-2.4591888773	-0.6975369701	-0.7456094096	-0.238701
C	-2.4470820722	-2.1288709003	-1.2486491869	-0.021739
N	-1.0720148834	-2.6589698462	-1.3750469131	-0.33691
C	-1.8883371356	-2.9980732647	-0.1856361563	-0.019341
C	-1.5476439871	-2.1477088394	 1.0241617702	-0.21878
H	 1.3066557209	 0.9508273166	-0.9676482188	 0.134914
H	 0.0931104724	 0.115312928	-1.9692764225	 0.155633
H	-0.4002165935	 1.492045342	-0.9786010609	 0.125571
H	-1.7648310403	 0.0296888938	 1.1971639741	 0.098752
H	-3.4663742404	-0.4518323726	-0.3891263723	 0.100641
H	-2.2028767464	 0.0315363738	-1.5180111759	 0.104172
H	-3.2124733362	-2.4740091982	-1.9360878764	 0.083073
H	-1.0651453625	-3.4465338758	-2.0174145628	 0.231772
H	-2.2161016784	-4.0243175775	-0.0568068261	 0.083716
H	-0.6072017375	-2.4218044434	 1.5058809824	 0.134181
H	-2.3543710143	-2.2288038736	 1.7612737087	 0.091676
