15
gdb 60784	2.43627	1.2615	0.97815	2.0026	73.3	-0.2643	-0.048	0.2162	1201.6893	0.107521	-420.551118	-420.541415	-420.540471	-420.585962	34.613	
O	-0.1125359478	 1.4826793524	 0.0402591754	-0.416456
C	 0.0025783166	 0.0985680964	 0.0244078241	 0.047756
C	 0.7248491923	-0.3687649079	-1.2288617099	 0.137924
O	 1.1156897824	 0.4137667049	-2.0576134931	-0.25142
C	 0.7461320788	-0.4514111081	 1.2935920631	-0.405146
C	 2.1242825389	 0.043015922	 1.3446815155	 0.345923
C	 3.2582657798	 0.4370355503	 1.3435565755	-0.439058
C	-0.006188868	-0.1325779311	 2.5073236581	 0.337979
C	-0.6432772444	 0.1122466822	 3.4944778248	-0.420243
H	 0.4001576774	 1.8003918452	-0.7199770495	 0.300686
H	-0.9949463811	-0.37197849	 0.0271242836	 0.113166
H	 0.8681905418	-1.4630362826	-1.3393694049	 0.102156
H	 0.7736046337	-1.5472647545	 1.1890186323	 0.136463
H	 4.2597735891	 0.7907454274	 1.3564780216	 0.207291
H	-1.1993786596	 0.3394650534	 4.3702947634	 0.202979
