19
gdb 108278	2.69037	1.4085	1.09131	4.2913	75.17	-0.2665	0.0113	0.2778	1164.7854	0.159126	-423.05157	-423.043135	-423.042191	-423.084785	31.858	
C	 0.0199155198	 1.5466696655	 0.0292572254	-0.385677
C	 0.0476165329	 0.0215556698	 0.1883939867	-0.276136
C	-1.3136733873	-0.603472626	 0.0337537634	 0.469857
C	-2.4478716717	-0.3845305333	 1.066796526	-0.279487
C	-2.7882926527	-1.9052912974	 1.0044281051	-0.234353
C	-1.6412140764	-2.1220083037	-0.0341551608	-0.30282
C	-2.0866226676	-1.7988458642	-1.4527350936	 0.44785
O	-2.5194581613	-2.3752052174	-2.3989044157	-0.330477
O	-1.8421480501	-0.4487058561	-1.3378822672	-0.290719
H	 1.0243492329	 1.9662539838	 0.1327530478	 0.118902
H	-0.3671042624	 1.8237396128	-0.955153291	 0.142751
H	-0.6178513037	 2.0148940049	 0.7863558684	 0.120473
H	 0.7224060768	-0.4213733943	-0.5538366975	 0.111357
H	 0.4399260913	-0.2504199525	 1.1761875822	 0.104254
H	-2.0850718675	-0.0614466256	 2.045579141	 0.111281
H	-3.2253642852	 0.3038187884	 0.7319195692	 0.123321
H	-2.5949145367	-2.4253635718	 1.9438662769	 0.118291
H	-3.7880542755	-2.1740371571	 0.6591385722	 0.127057
H	-0.9347540156	-2.9374197059	 0.1087636214	 0.104277
