18
gdb 47516	2.67258	1.81583	1.32841	3.2084	72.71	-0.2575	0.0072	0.2648	984.8531	0.150609	-439.078707	-439.071535	-439.070591	-439.110247	28.569	
N	-0.1176424371	 1.3026917293	-0.1876285391	-0.501695
C	-0.0343016615	 0.0622072009	 0.0529816413	 0.378021
O	 1.1720708274	-0.563482059	 0.2027022657	-0.265541
C	 1.3084314456	-1.6991822567	 1.0775616169	-0.066732
C	 0.6476842995	-2.9888848666	 0.5860127921	-0.239657
C	-0.8480683283	-2.7900836809	 0.3102764914	 0.107315
C	-1.1640869379	-1.9793966653	-0.9633981518	-0.272624
C	-1.2811419922	-0.7939081655	 0.0205999947	 0.039192
O	-1.3759210043	-1.7150511963	 1.1384713749	-0.296172
H	 0.8161896031	 1.7207145555	-0.1874298086	 0.220391
H	 2.3880948541	-1.8425681575	 1.1637113746	 0.114319
H	 0.9103985894	-1.4385860647	 2.0619261546	 0.130101
H	 1.1423151333	-3.3664620892	-0.3164435532	 0.11243
H	 0.7954833738	-3.7392640385	 1.3722028522	 0.11123
H	-1.4123394723	-3.7158806367	 0.4548442204	 0.084138
H	-0.3954176051	-1.9225836023	-1.7352048354	 0.11818
H	-2.1248701524	-2.2416725327	-1.4076471328	 0.117316
H	-2.1495695653	-0.139256794	-0.052554308	 0.109788
