23
gdb 100692	2.43998	1.05675	0.9845	1.6835	78.3	-0.2495	0.0648	0.3143	1382.8996	0.201734	-462.551756	-462.540192	-462.539248	-462.58816	42.064	
C	-0.1583118737	 1.376636148	 0.0193251598	-0.232721
O	 0.0626860196	-0.0129408278	-0.033741527	-0.255027
C	 0.6851301209	-0.5668422618	 1.1203811169	 0.112442
C	-0.2689794962	-0.6455369791	 2.31494092	-0.420178
C	 1.2692927455	-1.9312001146	 0.682503856	 0.360893
C	 2.3698995667	-1.7232388511	-0.3686957897	-0.432544
O	 1.8234646319	-2.5189374487	 1.8574353083	-0.489657
C	 0.1788519437	-2.8669427744	 0.1355073341	-0.114097
O	 0.7987986329	-4.14541685	-0.0284681659	-0.438938
H	 0.7716677053	 1.9261886135	 0.2336506248	 0.104872
H	-0.5279984349	 1.6815270806	-0.9632062489	 0.124885
H	-0.9061105391	 1.6582624443	 0.7744318888	 0.108458
H	 1.545745218	 0.0614865629	 1.4051220466	 0.070245
H	-1.2117632053	-1.1251826976	 2.0357273509	 0.11483
H	 0.1963946219	-1.2195727869	 3.117638761	 0.143728
H	-0.5013952515	 0.3532247229	 2.6952463941	 0.108696
H	 3.210887585	-1.1909534127	 0.0845821865	 0.1114
H	 2.7275443581	-2.6880027704	-0.7370942437	 0.122337
H	 1.993626608	-1.1401891283	-1.2125669236	 0.122533
H	 1.9221651826	-3.4569100767	 1.6491375285	 0.284728
H	-0.6485207787	-2.9361838826	 0.8524212331	 0.089883
H	-0.2107341767	-2.4837138581	-0.8147468996	 0.10953
H	 0.111224996	-4.8030028314	-0.1606719613	 0.293702
