14
gdb 2161	3.57382	3.26867	1.96367	1.7241	54.25	-0.2689	0.0189	0.2878	662.3345	0.114285	-361.729115	-361.722539	-361.721595	-361.759768	23.502	
C	 0.1748819706	 1.474058751	-0.1256211695	-0.399355
C	-0.109070218	-0.0120862638	 0.0872258979	 0.032324
O	 0.3474974732	-0.8286176472	-0.9947264125	-0.254973
C	 1.5757206481	-1.3782524784	-0.6070729559	 0.016788
O	 1.5761079974	-1.4455854645	 0.8190740435	-0.233761
C	 0.6255210369	-0.5854944843	 1.2860152879	 0.390398
N	 0.395462549	-0.3080226717	 2.4928735088	-0.535944
H	 1.2473289821	 1.6615089588	-0.2371434183	 0.121694
H	-0.3362898088	 1.8285109501	-1.0242200344	 0.129484
H	-0.1838779976	 2.0391205866	 0.7386074369	 0.147661
H	-1.1846179963	-0.1787045473	 0.1921801554	 0.12169
H	 1.6681182312	-2.3895484727	-1.0133846994	 0.130069
H	 2.4289733352	-0.7596872337	-0.9278945019	 0.105684
H	 1.035011667	-0.804873193	 3.1142894713	 0.228243
