18
gdb 11961	3.3494	1.61617	1.34735	0.766	68.63	-0.2452	0.0705	0.3156	969.3151	0.15281	-384.900354	-384.892007	-384.891063	-384.933061	31.268	
O	 0.0234822416	 1.2874465605	-0.4708349303	-0.422815
C	 0.0265735378	-0.0318469618	 0.0691820245	-0.200054
C	-1.3782832541	-0.5339265109	 0.1229938596	 0.332332
C	-2.1006986028	-1.0319628856	-1.1153467551	-0.379173
C	-1.9122496591	-1.9620931045	 0.0479079715	 0.337951
O	-1.1704037471	-3.1289003934	-0.0450391569	-0.464715
C	-2.9350318883	-1.6773254413	 1.1522894856	-0.284369
C	-2.4222846099	-0.1969448861	 1.1971122133	-0.276725
H	 0.9229836438	 1.6261188786	-0.4266842272	 0.283753
H	 0.6310227028	-0.7162537126	-0.547236469	 0.091212
H	 0.4595309489	-0.0371744075	 1.0827783195	 0.083922
H	-3.0805864884	-0.6404535931	-1.381234813	 0.101673
H	-1.4462464056	-1.2316951098	-1.9584248479	 0.111779
H	-1.5960178252	-3.7096087422	-0.6849701985	 0.285369
H	-3.9891166727	-1.8406835836	 0.9027976154	 0.089322
H	-2.6984833342	-2.2195710243	 2.0706046332	 0.108443
H	-1.9771989359	 0.0634299861	 2.1606817015	 0.101549
H	-3.1474514213	 0.5755257416	 0.9248521638	 0.100546
