20
gdb 64096	3.18254	1.2275	1.11958	4.1569	74.8	-0.2263	0.0123	0.2386	1173.1645	0.171206	-440.321045	-440.312092	-440.311148	-440.35437	34.289	
C	-0.1058703574	 1.5369216155	 0.0168132186	-0.426943
C	-0.0394028176	 0.0068039652	 0.001468514	 0.216496
C	-1.4597360662	-0.5806399606	-0.0328570006	-0.405111
C	 0.7755586765	-0.4484982948	-1.2161007671	-0.069537
O	 1.064776514	-1.8585192128	-1.2262660187	-0.230688
C	 1.2892404186	-2.5417540405	-0.0792888742	 0.396037
O	 1.6850237864	-3.6742967963	-0.1328258846	-0.32508
C	 0.9343765608	-1.8632999909	 1.2447300814	-0.321599
N	 0.6505623218	-0.4315537399	 1.2280543499	-0.306906
H	 0.8969966214	 1.9770358084	 0.0634053624	 0.111538
H	-0.5989999103	 1.9200002348	-0.8815921962	 0.121891
H	-0.6654177678	 1.8766489044	 0.8922382889	 0.134237
H	-2.0187556927	-0.1711355623	-0.8794680148	 0.118047
H	-1.4573458265	-1.6685537264	-0.1401994132	 0.128865
H	-1.9881916631	-0.327984292	 0.8900833016	 0.128682
H	 0.2499931127	-0.2599372549	-2.157372969	 0.119193
H	 1.7296288095	 0.0948951869	-1.246352018	 0.101928
H	 0.0655082515	-2.4152752759	 1.6268743979	 0.148469
H	 1.7473215876	-2.0720037343	 1.944061775	 0.142926
H	 1.5236462108	 0.0817549766	 1.3043360767	 0.217557
