21
gdb 61759	2.87989	0.91602	0.8257	4.6466	75.68	-0.2376	-0.0139	0.2237	1471.3531	0.178043	-461.376369	-461.365465	-461.364521	-461.41241	39.825	
C	-0.2383670465	 1.4816897942	 0.0032046212	-0.427243
C	 0.0116445745	-0.0295256116	 0.0234871297	 0.324389
C	 0.8518813781	-0.4233924113	 1.2448989113	-0.428304
O	-1.2422279834	-0.7384795566	 0.0408771831	-0.47817
C	 0.6938598589	-0.5517270228	-1.2688074538	 0.123892
O	 0.7781552095	-1.9685528677	-1.2166742274	-0.442811
C	-0.0180954757	-0.1068698518	-2.5633588696	-0.3102
C	 0.6311272799	-0.6863788523	-3.8023580463	 0.151996
O	 0.9262229823	-0.0368736749	-4.7746318498	-0.248405
H	 0.6882124926	 2.0350463893	-0.183031392	 0.122783
H	-0.9674889719	 1.7510453337	-0.7631612397	 0.132848
H	-0.6303659101	 1.8114170861	 0.9717239344	 0.108832
H	 0.3147703032	-0.1846851953	 2.1705745263	 0.10264
H	 1.0765758627	-1.4911113796	 1.2273956681	 0.137294
H	 1.7965802747	 0.1290548426	 1.2628099139	 0.122502
H	-1.6269395087	-0.6563958513	 0.9189753588	 0.285788
H	 1.7270293175	-0.1852088557	-1.2813044838	 0.092628
H	-0.0921198296	-2.2605002421	-0.9111109321	 0.287124
H	-1.0549183062	-0.467985075	-2.5184369152	 0.129643
H	-0.0376533499	 0.9798193992	-2.6736415846	 0.118119
H	 0.8208393082	-1.7786136372	-3.7572028927	 0.094654
