15
gdb 18490	5.74205	1.25539	1.16178	3.9545	64.57	-0.2716	0.035	0.3065	1002.5961	0.119135	-362.636658	-362.629585	-362.62864	-362.668485	26.002	
N	-0.0916964206	-1.0867434242	-0.2807207616	-0.308311
C	-0.0612803149	 0.0480541112	-0.0637760264	 0.256425
C	 0.0090218155	 1.4823305761	 0.2055612902	-0.350606
C	 1.4323191495	 2.0360862343	 0.062681807	-0.014981
C	 2.0783743515	 2.0577711701	-1.3729773554	-0.267085
C	 2.1518302823	 3.5849504617	-1.2607034379	 0.039763
O	 0.8146221104	 4.0587204615	-1.0485085523	-0.242846
C	 1.546696729	 3.5724207205	 0.0805707048	-0.000151
H	-0.6489651629	 2.0107602255	-0.4921418307	 0.168369
H	-0.372887245	 1.6672129352	 1.2166647243	 0.149506
H	 2.1028123217	 1.5681145224	 0.7873433493	 0.101415
H	 3.0549920226	 1.5705580296	-1.3940963069	 0.120476
H	 1.4644902848	 1.6805190345	-2.1941844189	 0.124726
H	 2.8541547668	 4.2765781963	-1.7099471252	 0.113913
H	 1.6594064691	 4.2399521854	 0.9272005196	 0.109388
