18
gdb 48713	3.60829	1.34563	1.14996	3.3051	76.51	-0.2427	-0.0129	0.2298	1075.5579	0.149357	-401.933222	-401.925945	-401.925	-401.964858	29.193	
O	-0.1741880781	 0.0941361593	 0.2957828845	-0.276704
C	 0.0110196089	 1.2565382646	 0.02193581	 0.088699
C	 1.3247662848	 1.9242399017	-0.0083708548	 0.239768
C	 1.3454843571	 3.4352966469	 0.1812578842	-0.335595
C	 1.6262854936	 2.8966331939	-1.1778150091	-0.073493
C	 3.0665190857	 2.6486141501	-1.5681727458	-0.047944
N	 4.0480415116	 2.9891562419	-0.5160569688	-0.338178
C	 3.6415500662	 1.5820751715	-0.7031169496	-0.031834
C	 2.5794835819	 1.0988441081	 0.2781687779	-0.30942
H	-0.8410122825	 1.9254333816	-0.2476910705	 0.061705
H	 0.3849299783	 3.9147336423	 0.3443401426	 0.114237
H	 2.1776081308	 3.8449138658	 0.7401048109	 0.151905
H	 0.9002400244	 3.034978143	-1.9708299769	 0.096137
H	 3.3466674298	 2.7642498091	-2.6092184965	 0.090258
H	 4.9604132352	 3.1404296387	-0.9388491387	 0.233227
H	 4.3798024238	 0.8774452255	-1.0735341844	 0.09162
H	 2.9137801472	 1.1901523306	 1.3162224484	 0.116788
H	 2.3418661912	 0.0459692955	 0.0993120565	 0.128823
