16
gdb 85596	2.91723	1.41361	0.992	2.7121	66.38	-0.2576	-0.0047	0.2529	1137.1804	0.124695	-475.086729	-475.078298	-475.077354	-475.120392	29.825	
C	-0.0923118676	 1.4506318967	-0.0801722106	-0.347674
N	 0.0398011108	 0.0028057617	-0.0655247472	-0.101191
C	-1.1613844282	-0.7920242882	 0.1228602586	-0.325903
C	-1.0703005517	-2.2022539317	-0.4480098626	 0.43107
O	-2.033577869	-2.8067611983	-0.8247061608	-0.318047
O	 0.1590724994	-2.7493001461	-0.5156331598	-0.210906
C	 1.2567898641	-2.0904292546	 0.127788402	-0.199266
C	 1.2721785841	-0.570131687	 0.020823421	 0.393336
O	 2.324684866	 0.0400191933	 0.0349282795	-0.375593
H	 0.8997102146	 1.8745339152	-0.2312264971	 0.176383
H	-0.7585324908	 1.7615276105	-0.8917252349	 0.134364
H	-0.499888703	 1.8214783553	 0.8688130069	 0.130719
H	-1.4381202637	-0.8713347658	 1.1871162088	 0.144593
H	-1.9997024543	-0.3084084706	-0.3830082686	 0.158734
H	 1.2813553578	-2.3734801017	 1.1886671547	 0.143732
H	 2.1625686917	-2.4684612988	-0.34468433	 0.16565
