19
gdb 84810	2.836	1.42341	1.11325	2.413	75.49	-0.2499	0.0144	0.2643	1123.7463	0.160037	-423.007799	-422.999561	-422.998616	-423.040924	31.532	
O	-0.0825517699	 1.4620860194	 0.6326433251	-0.428146
C	-0.0219364056	 0.1413874138	 0.1017938019	 0.081558
C	 0.8715914616	-0.7655561528	 0.912338761	-0.09886
C	 0.1898471807	-1.7312677617	 1.524633534	-0.064008
C	-1.2858862283	-1.6902712509	 1.2174987145	-0.291021
C	-1.3968756893	-0.6187167409	 0.1005715409	-0.07923
C	-2.5634881851	 0.3353252313	 0.2258458742	 0.096966
C	-3.8407813914	-0.0172193355	 0.8561554879	-0.195607
O	-2.886365642	 0.7988503098	 1.5438394343	-0.242837
H	-0.4387626205	 1.401133388	 1.5271194439	 0.288172
H	 0.3443048322	 0.2880514628	-0.9198917623	 0.086411
H	 1.9340893444	-0.5741084943	 1.0108969286	 0.097984
H	 0.6160897159	-2.4691147061	 2.1964269494	 0.097766
H	-1.6723528574	-2.6629958	 0.8934168564	 0.104991
H	-1.8544909984	-1.4034695125	 2.1110164561	 0.126066
H	-1.4916056766	-1.1273926614	-0.8659754912	 0.085562
H	-2.5778756837	 1.1281977741	-0.5217117683	 0.102311
H	-4.7516128303	 0.4956321451	 0.5510993965	 0.117465
H	-3.988145756	-1.0132785582	 1.270163187	 0.114459
