18
gdb 8192	2.73761	2.2239	1.63593	2.2182	67.83	-0.2167	0.0631	0.2799	864.2109	0.152339	-384.906869	-384.898786	-384.897842	-384.938398	31.837	
C	-0.0404034153	 1.5703579182	 0.0049229137	-0.460866
C	 0.0797677547	 0.0671695468	 0.1035709951	 0.320048
O	-1.1205069116	-0.6022747991	-0.2484150063	-0.486747
C	 1.3189834073	-0.7479832517	-0.2322964144	-0.220106
C	 2.5838769707	-0.0702963523	 0.3028001056	-0.238047
C	 1.9858353533	-0.0843925828	 1.7503951384	-0.296039
C	 0.7221662568	-0.7268684251	 1.2037442144	 0.412075
O	 0.0188512375	-1.6517105921	 1.9362631442	-0.46618
H	 0.8607028604	 2.0768228305	 0.3587061176	 0.124873
H	-0.2070220252	 1.8783515202	-1.0347965821	 0.107272
H	-0.8880865467	 1.9223431804	 0.6010961453	 0.126978
H	-1.1723147632	-0.660362436	-1.2080800203	 0.288287
H	 1.2827062709	-1.5032626625	-1.0107490752	 0.077884
H	 3.4662101049	-0.7078442304	 0.2182820834	 0.108182
H	 2.829149615	 0.9119762069	-0.1141193041	 0.095207
H	 2.526438009	-0.7717173704	 2.404486932	 0.117548
H	 1.8696955441	 0.8734204165	 2.2679994931	 0.096347
H	-0.8159523325	-1.7843922972	 1.4650526595	 0.293283
