18
gdb 77857	2.14681	1.56729	1.52085	1.9622	77.88	-0.2287	0.0331	0.2618	1026.0726	0.145661	-401.855303	-401.846271	-401.845327	-401.888638	34.061	
C	-0.5103170545	 1.4696168991	-0.0132475622	-0.421473
C	-0.0514932977	 0.023781997	 0.0023660348	 0.02838
C	 0.9647240396	-0.518976509	-1.0576593783	 0.060862
O	 1.6248671043	 0.3654553403	-1.9300356364	-0.416632
C	 1.8130652263	-0.9789542362	 0.1150774666	-0.048589
C	 2.1809567372	 0.1106010535	 1.0530747062	-0.195285
C	 2.5499708755	 1.462261074	 0.7282144275	 0.364401
C	 2.9612312269	 2.5827836634	 0.5797183353	-0.451371
N	 0.8139807192	-0.4680944704	 1.1471834713	-0.174507
H	 0.3045681513	 2.1611399475	-0.2218419151	 0.150211
H	-1.2842187715	 1.6026674095	-0.7781764136	 0.105965
H	-0.952130716	 1.7318066775	 0.9535624421	 0.128566
H	-0.9281611161	-0.6313912337	 0.0223064222	 0.085455
H	 0.5465257734	-1.3736793246	-1.6052168087	 0.078862
H	 1.0164895206	 0.6041044816	-2.6368655556	 0.286478
H	 2.273625597	-1.9582697757	 0.1995571547	 0.098881
H	 2.7546703851	-0.2603181332	 1.9018722755	 0.124313
H	 3.3032183497	 3.5731958495	 0.4075799139	 0.195483
