20
gdb 54188	2.57992	1.45637	1.23842	2.2954	78.28	-0.2309	-0.0161	0.2148	1113.8621	0.169096	-403.121009	-403.111762	-403.110818	-403.155329	34.399	
C	-0.0054334808	 1.4808314443	-0.1771791556	-0.486215
C	 0.0733622062	-0.014970683	 0.0917716648	 0.32601
O	 1.1245540349	-0.5551471843	 0.3511278095	-0.305173
C	-1.2366356116	-0.7968863954	 0.0303252527	 0.216456
C	-2.1938454607	-0.3348172036	 1.1364284254	-0.470421
C	-1.9503873971	-0.8996116384	-1.3602012478	-0.223024
N	-1.937783355	-2.4010332997	-1.3216639017	-0.130382
C	-0.512094708	-2.7781829029	-1.302715682	-0.242974
C	-1.1139661273	-2.3195869778	-0.0409680251	-0.052937
H	 0.9917388122	 1.8629955412	-0.3997809819	 0.145029
H	-0.6921653344	 1.7145326437	-0.9966153662	 0.134167
H	-0.3819887783	 1.9942296497	 0.715058559	 0.148776
H	-2.4755697483	 0.7155753202	 1.0145527297	 0.122094
H	-3.1091937528	-0.9341090624	 1.1105755665	 0.136952
H	-1.7389061073	-0.4547473903	 2.1257011244	 0.130074
H	-2.9748244817	-0.5202282413	-1.3488462358	 0.112207
H	-1.4226782039	-0.4812542408	-2.2248753191	 0.103322
H	-0.3588326583	-3.8464416495	-1.4199591404	 0.122891
H	 0.2131167043	-2.1566955067	-1.8219857578	 0.118357
H	-1.2979328522	-2.9870095631	 0.7951623713	 0.094792
