19
gdb 117125	2.50537	0.92639	0.74046	1.3871	73.59	-0.2534	-0.052	0.2014	1549.1214	0.154795	-460.186075	-460.175212	-460.174268	-460.223408	36.731	
C	-0.5242670661	 1.6561795822	-0.0419670197	-0.415084
C	 0.2044429825	 0.3134471103	-0.0396786934	-0.156582
C	-0.7715497438	-0.8549174789	 0.1159917718	 0.148355
O	-0.459759684	-1.9625363937	 0.4674637462	-0.238104
C	 0.9858016348	 0.0764873548	-1.3532259562	 0.358035
O	 0.6779662858	 0.6530264803	-2.3702661751	-0.302557
C	 2.1209296649	-0.9182417047	-1.2715037693	-0.290815
C	 2.7034054268	-1.2895982304	-2.6272690677	-0.078751
O	 3.7946028607	-2.1637262	-2.3841409874	-0.422092
H	 0.1872680508	 2.4844332928	-0.0812473861	 0.132195
H	-1.1694660583	 1.7364963724	-0.9201557475	 0.146562
H	-1.1350632121	 1.7715853974	 0.8584395734	 0.119715
H	 0.9153315031	 0.2267497435	 0.7893975689	 0.115929
H	-1.8239341627	-0.6064002356	-0.147489366	 0.095246
H	 2.9076626145	-0.482621925	-0.6391766822	 0.135651
H	 1.7753874074	-1.8072040471	-0.7298549364	 0.159626
H	 1.927799068	-1.7678399106	-3.2437402598	 0.099876
H	 3.017738902	-0.3785393198	-3.155163621	 0.104225
H	 4.1726328356	-2.4124860477	-3.2324788624	 0.288569
