21
gdb 104061	2.8556	1.34252	1.20753	2.6478	78.34	-0.2386	0.0746	0.3132	1153.8624	0.181279	-424.178437	-424.169426	-424.168482	-424.212146	34.067	
C	-0.291362423	 1.229845179	 0.0088224445	-0.249016
O	 0.0490951838	-0.138628979	 0.0363593346	-0.274512
C	 0.7583986312	-0.5664785911	 1.1705238011	 0.426961
C	 2.1522360184	 0.054625136	 1.2754178406	-0.454856
C	-0.0050498462	-0.565319306	 2.5456787794	-0.314359
C	 0.2793455756	-2.0853557261	 2.696808606	-0.081194
C	-0.8291897984	-2.9750205751	 2.1169753417	-0.07591
O	-0.3201348445	-2.8084386223	 0.7737039779	-0.284008
C	 0.8450774956	-2.1152302171	 1.2457264706	 0.061471
H	 0.5852303121	 1.8827939878	-0.1088640848	 0.105972
H	-0.9476198418	 1.3738870637	-0.8529061052	 0.129401
H	-0.8321573308	 1.5387690132	 0.9159454023	 0.104434
H	 2.1028353348	 1.1224498153	 1.5094919389	 0.118046
H	 2.7298971706	-0.4274286892	 2.0711978274	 0.118948
H	 2.6922226232	-0.0743148401	 0.331992864	 0.125563
H	 0.4373606267	 0.0733640471	 3.3136539243	 0.097637
H	-1.0691095256	-0.3297487263	 2.4606390746	 0.105298
H	 0.8164291526	-2.4231332507	 3.5811399805	 0.075871
H	-0.7842635737	-4.0269283431	 2.4296672615	 0.097233
H	-1.8593098788	-2.6120075305	 2.2230632784	 0.100736
H	 1.7752804083	-2.5877574055	 0.9139882916	 0.066284
