17
gdb 34121	3.43268	1.50914	1.3945	4.3758	76.76	-0.2475	0.0208	0.2683	965.5655	0.139354	-380.837459	-380.830903	-380.829959	-380.868265	27.126	
N	 0.0282476369	-1.1028789171	-0.1301777295	-0.341002
C	 0.0117148061	 0.0510940115	-0.0599743895	 0.150232
C	 0.0249499673	 1.491577809	 0.0379584829	 0.218065
C	-0.4066723833	 2.2591797057	 1.316684799	-0.247872
C	 0.4007665991	 3.3882140926	 0.6673367956	-0.052623
C	-0.0425002897	 3.5015416145	-0.8557305685	-0.01418
C	 1.415333081	 3.1528180126	-1.2612451085	-0.25416
C	 1.3899772292	 2.3476334362	 0.0397914795	-0.074272
N	-0.7772098378	 2.2188455337	-0.9797320248	-0.319308
H	-1.4821904042	 2.3631068945	 1.4667999372	 0.120111
H	 0.090089092	 1.8850788428	 2.2147438597	 0.116842
H	 0.7236572486	 4.2922285196	 1.178016425	 0.086205
H	-0.5800306367	 4.3598207214	-1.2552242397	 0.083087
H	 1.5747696472	 2.6507217577	-2.2212058146	 0.09913
H	 2.0937044021	 4.0061134091	-1.1679186497	 0.111076
H	 2.2558941184	 1.931232437	 0.5497111101	 0.091186
H	-0.6220000463	 1.8217457192	-1.9044755343	 0.227484
