19
gdb 39205	2.90443	1.80812	1.30784	1.592	79.39	-0.233	0.0205	0.2535	992.7415	0.161848	-385.886969	-385.879974	-385.87903	-385.918243	28.657	
C	-0.2234668534	 1.394305391	-0.0306970376	-0.37778
C	 1.2208332426	 0.9752553986	 0.0906222219	 0.056639
O	 1.755878882	 0.9548715618	 1.3902953171	-0.263311
C	 1.4877610994	-0.3284635546	 1.9638884191	-0.078834
C	 0.1782140137	-0.8363080516	 1.30446096	-0.133496
C	 0.1724004965	-2.274415624	 0.8466316011	-0.086356
C	 0.0716784339	-2.3912490615	-0.4776635934	-0.06469
C	-0.0412383579	-1.0557881178	-1.178738006	-0.370324
C	 0.1532512187	-0.0681451392	-0.0326776045	 0.324515
H	-0.6984692882	 1.8100887455	 0.8523713899	 0.11277
H	-0.5452101374	 1.8287847329	-0.973274769	 0.107283
H	 1.9365487382	 1.1937226301	-0.6974852856	 0.091929
H	 2.3155762829	-1.0209253059	 1.7476078671	 0.090397
H	 1.4163779816	-0.1985229816	 3.0474867999	 0.105096
H	-0.6804087905	-0.6097908403	 1.9498102114	 0.078843
H	 0.2440925019	-3.1052050801	 1.5404828925	 0.095136
H	 0.0535387174	-3.3309086842	-1.0192984877	 0.094157
H	 0.7054133408	-0.9362984156	-1.9746321154	 0.107592
H	-1.0233617422	-0.9425423434	-1.6590205406	 0.110432
