16
gdb 56128	5.14203	0.68118	0.60596	0.9612	69.49	-0.2553	-0.109	0.1463	1731.9604	0.119931	-475.067562	-475.057248	-475.056304	-475.106858	33.551	
C	-0.0259830633	 1.4944677558	 0.0032885283	-0.48419
C	 0.0617763687	-0.0169525562	-0.1146585928	 0.41516
O	 1.1065525435	-0.6063664174	-0.3244961892	-0.372277
N	-1.119367017	-0.6872064744	 0.0308748746	-0.328282
C	-1.1783585864	-2.1157130181	-0.0575591513	-0.243355
C	-2.5962149232	-2.5979871148	 0.139180451	 0.287523
O	-3.5278273847	-1.8590344397	 0.3408857559	-0.275229
C	-2.7903950656	-4.1281973993	 0.0656752386	 0.091096
O	-3.8635023116	-4.6434791333	 0.2042512894	-0.197563
H	 0.6303392245	 1.822128087	 0.8137287859	 0.156229
H	 0.3496358211	 1.9411962025	-0.9209787661	 0.15623
H	-1.0377766539	 1.8611066417	 0.1921909065	 0.119238
H	-1.9939184418	-0.2152562309	 0.2050306652	 0.262443
H	-0.8070139771	-2.483794533	-1.0277674559	 0.15541
H	-0.5288086449	-2.6015445986	 0.6885904307	 0.155407
H	-1.8652254784	-4.7159780313	-0.1245989208	 0.102159
