14
gdb 28280	5.40964	1.2881	1.04244	4.0189	71.64	-0.19	0.013	0.203	1057.5589	0.104627	-432.900319	-432.893551	-432.892607	-432.931103	27.175	
N	 0.0414721868	 1.3579856275	-0.1274572451	-0.594334
C	-0.0240718235	-0.015136827	-0.0254681353	 0.385369
N	-1.1250867549	-0.7140405161	-0.0037036024	-0.410802
C	-0.6784146805	-2.0349518799	-0.009252373	 0.225123
C	-1.1043282921	-3.3282755289	-0.0005959622	-0.126906
O	-0.0096368576	-4.1516536715	-0.0111946585	-0.163574
C	 1.1307309155	-3.387429575	-0.014542853	-0.130932
C	 0.7539848727	-2.085473991	-0.0175682822	 0.243766
N	 1.1621051627	-0.7543540409	 0.0193561992	-0.476074
H	 0.7438976641	 1.7967396117	 0.4524812422	 0.255308
H	-0.8687852673	 1.7806373799	-0.0061671203	 0.269836
H	-2.0612342815	-3.8193488708	 0.0102044322	 0.132885
H	 2.060747412	-3.9270260769	-0.030118104	 0.128414
H	 2.0396366437	-0.401042161	-0.3236784177	 0.261921
