16
gdb 48678	3.4015	1.19732	1.08639	2.0947	70.57	-0.2569	-0.0529	0.2041	1119.3214	0.12447	-437.90179	-437.894017	-437.893072	-437.934442	29.049	
O	-0.4496923074	 0.6494660005	 0.746012593	-0.256931
C	 0.2053142523	 0.9774470782	-0.2110321806	 0.118717
C	 1.3755217888	 1.8966835516	-0.1329780971	 0.211211
C	 1.9277616692	 2.3257549752	 1.2217730316	-0.301952
C	 2.6939926267	 3.6386731802	 0.9584317782	-0.366224
C	 2.1397201842	 4.1799537716	-0.3690724024	 0.423394
O	 2.1532639192	 5.3266131948	-0.7342253543	-0.309242
C	 1.5051691443	 3.0387277672	-1.1213758195	-0.179926
N	 2.2978144255	 1.8140105927	-1.2649669672	-0.353315
H	-0.0149253205	 0.617966067	-1.238656122	 0.093895
H	 1.0860488831	 2.483720721	 1.9007773715	 0.144094
H	 2.55120679	 1.5424003261	 1.6631363786	 0.121147
H	 2.5558505089	 4.3893001041	 1.7384890401	 0.148299
H	 3.7758589206	 3.487081496	 0.866074356	 0.135775
H	 0.7988213409	 3.2533144643	-1.9157822743	 0.123503
H	 3.2619659943	 1.9440841496	-0.9652149416	 0.247555
