16
gdb 54991	3.65315	1.0816	0.99165	4.651	66.3	-0.2513	-0.0029	0.2484	1206.7191	0.122959	-475.002769	-474.994168	-474.993224	-475.036662	31.008	
N	 0.3889310036	 1.1049366532	-0.8403154231	-0.537949
C	-0.0666960218	 0.4175532348	 0.2456136763	 0.431601
O	 0.5232376033	 0.3710299722	 1.3063103377	-0.361847
C	-1.408109684	-0.250439643	 0.0458222116	-0.180761
O	-1.5368458574	-1.5459221454	 0.6543841528	-0.252338
C	-2.2575543349	-0.484881503	 1.2207667706	 0.376486
C	-2.1422628913	-0.0036235877	 2.659847171	-0.143624
O	-3.5892460327	 0.0884610452	 2.7396257209	-0.277998
C	-3.7703590133	-0.4380272578	 1.4098411712	-0.157163
H	 1.2995055216	 1.5315994417	-0.7790282497	 0.268572
H	-0.0316591441	 1.0082954722	-1.7481016034	 0.264326
H	-1.875748303	-0.1658277071	-0.9362408833	 0.095291
H	-1.7279218613	-0.7491924388	 3.347421834	 0.123963
H	-1.6496630246	 0.9589596272	 2.8200917433	 0.126434
H	-4.3320281347	 0.245873745	 0.7616846196	 0.108194
H	-4.2501126854	-1.4253925985	 1.4053784506	 0.11681
