19
gdb 80681	2.89762	1.47233	1.22999	3.5259	74.38	-0.2309	0.0807	0.3116	1067.0705	0.159897	-422.964554	-422.95669	-422.955746	-422.997238	30.9	
O	 0.1302227383	 1.5022021123	 0.4670945384	-0.445313
C	 0.0102098753	 0.1328236747	 0.259971083	 0.13685
C	-0.4922292434	-0.8356179618	 1.2853129473	-0.098176
C	-1.669013283	-0.2068612268	 2.0430824239	-0.290328
C	-2.4826343824	-0.1648683254	 0.7069914659	-0.023134
C	-3.2180023752	 1.0671883915	 0.244738387	 0.062951
C	-3.6526434831	 2.1339122433	 1.1570125342	-0.183167
O	-2.5259957232	 2.3276661443	 0.2913654414	-0.236571
C	-1.2383733766	-0.6412548766	-0.0654007689	-0.150316
H	-0.7426701662	 1.9221686458	 0.4299686932	 0.306429
H	 0.8710220176	-0.243324698	-0.2902606951	 0.096387
H	 0.0817756217	-1.6872946558	 1.6303949749	 0.085191
H	-2.1269704156	-0.8477341052	 2.797431274	 0.103755
H	-1.4294675794	 0.7611559338	 2.4933704432	 0.111979
H	-3.2165478874	-0.9787626577	 0.7223896181	 0.087426
H	-3.7858571807	 0.9378081918	-0.6783039244	 0.101287
H	-4.5217367945	 2.7414632892	 0.9127665372	 0.124722
H	-3.4162023964	 2.0597474263	 2.2159983239	 0.12791
H	-1.2852095258	-1.3006428858	-0.9258106872	 0.082118
