15
gdb 27626	2.9472	1.29998	0.90871	7.6763	76.78	-0.2145	-0.0075	0.207	1213.9866	0.114432	-413.056769	-413.048276	-413.047332	-413.089783	31.022	
C	-0.023952027	 1.5061089641	 0.0927482406	-0.517987
C	 0.0316805452	 0.0240300833	-0.0185168252	 0.239694
C	 0.0470689398	-0.8219818865	-1.1028871313	 0.111128
N	 0.0850891277	-2.1553788777	-0.7091154141	-0.369381
C	 0.1063512699	-2.1140309818	 0.5964886562	 0.386624
N	 0.2334423733	-3.2018631841	 1.4485900529	-0.601628
N	 0.071339858	-0.8261640838	 1.0706049396	-0.338242
C	 0.0140214216	-0.4221006058	-2.4631137398	 0.209504
N	-0.0147588507	-0.0592147656	-3.5631962207	-0.358741
H	 0.847138471	 1.9097871094	 0.6226826261	 0.138451
H	-0.0419677908	 1.9449556163	-0.9069241937	 0.169354
H	-0.921440445	 1.8421680143	 0.6257447836	 0.138691
H	 0.1942000976	-4.0627287313	 0.9173665691	 0.270251
H	-0.4456160577	-3.2226810998	 2.1998642669	 0.253301
H	 0.158919377	-0.5453074309	 2.0334299	 0.268979
