20
gdb 96494	2.49017	1.46664	1.03886	1.5352	75.88	-0.25	0.0038	0.2538	1173.2231	0.172382	-440.2812	-440.272696	-440.271752	-440.31404	32.858	
O	-0.0611403935	 1.4547037763	 0.0073475768	-0.433437
C	 0.0603729256	 0.0347075161	 0.0158137363	 0.117824
C	-1.3742081988	-0.4725312721	 0.2370869543	-0.17425
C	-1.5432384344	-1.9731445261	 0.5440123115	-0.232008
C	-1.7616842065	-2.8577154767	-0.6859214159	-0.077136
O	-0.8227544632	-2.5878029235	-1.7343584379	-0.220988
C	 0.4866616198	-2.7392153921	-1.3735553255	 0.093164
N	 1.2902070362	-1.7880967879	-1.1865298199	-0.215559
C	 0.7595475234	-0.4277430013	-1.2823212908	-0.181736
H	 0.8194071343	 1.8290733953	-0.096945901	 0.282522
H	 0.6803536102	-0.2927281661	 0.866898736	 0.073474
H	-1.7545182853	 0.1067008942	 1.0843547386	 0.111426
H	-1.9844093666	-0.1878346483	-0.6284725066	 0.107388
H	-0.6810880129	-2.3358439908	 1.1164033043	 0.111306
H	-2.4160117348	-2.1185404588	 1.191537562	 0.103463
H	-1.7242664255	-3.9215640684	-0.4075796555	 0.101039
H	-2.7379530583	-2.6603176037	-1.1370906641	 0.121194
H	 0.8201685151	-3.7761283049	-1.2751283993	 0.10945
H	 0.0683373562	-0.3061439335	-2.1237653671	 0.118308
H	 1.6147440991	 0.2372757223	-1.4506180161	 0.084557
