13
gdb 131688	2.29472	1.48861	0.908	4.8879	66.09	-0.281	-0.0609	0.22	1167.24	0.089298	-452.736904	-452.728891	-452.727947	-452.770472	27.847	
O	-0.0429171123	 1.4204491558	 0.0082108146	-0.416949
C	 0.023314592	 0.0070995373	 0.0020166887	-0.209963
C	-1.3787347268	-0.5070043756	 0.0119674995	 0.077887
C	-2.5383817742	 0.1975832323	 0.0233797709	 0.015586
O	-3.5952691965	-0.6356051595	 0.0294446629	-0.151157
N	-3.1609642309	-1.936386194	 0.0220829373	-0.187704
C	-1.841912547	-1.8574739649	 0.0118612733	 0.218702
C	-1.0410393384	-3.0352225509	 0.0017298722	 0.248621
N	-0.3360978967	-3.9519220061	-0.0065964713	-0.328244
H	 0.8541102767	 1.7663542016	 0.0020378966	 0.301069
H	 0.549476888	-0.3739315041	-0.8878367293	 0.124314
H	 0.5646248567	-0.3810504737	 0.8796117835	 0.124315
H	-2.7546478406	 1.252604442	 0.0282274009	 0.183524
