18
gdb 125645	3.20225	1.50444	1.04824	2.9923	78.99	-0.1869	0.0468	0.2337	1131.4897	0.151302	-398.148349	-398.140415	-398.13947	-398.180768	30.155	
C	-0.1188873873	 1.4957630413	-0.0896344179	-0.496977
C	-0.040716564	 0.0079853965	 0.045334431	 0.190225
N	-0.060110026	-0.7609075889	-1.0473390487	-0.305959
N	 0.0402970398	-2.0511260992	-0.583337999	-0.345152
C	 0.0924880434	-2.0752600043	 0.7607981339	 0.419827
C	 0.0440829696	-0.7830681721	 1.2144787589	 0.153884
C	 0.2037577553	-0.798992073	 2.710729072	-0.363384
C	 0.0061873574	-2.3232365835	 3.0174671371	-0.164075
N	 0.2907235312	-3.0503258491	 1.7384467036	-0.410399
H	 0.769716191	 1.9829142753	 0.328078313	 0.122928
H	-0.1986016792	 1.7691948259	-1.1438369235	 0.138531
H	-0.9878196595	 1.9017127357	 0.4407869022	 0.12177
H	 0.0366641215	-2.8071544178	-1.2442777464	 0.264691
H	 1.2021805212	-0.4675793528	 3.0252693651	 0.112456
H	-0.5211897863	-0.1940507183	 3.264654954	 0.108901
H	 0.6700509029	-2.6841939209	 3.8068209967	 0.112982
H	-1.0295985946	-2.5043194109	 3.3330579225	 0.105935
H	-0.2583448363	-3.8951917739	 1.6347854957	 0.233815
