16
gdb 20549	4.45221	1.5641	1.2569	1.0688	65.27	-0.2896	-0.0213	0.2683	968.9935	0.130835	-379.934711	-379.927096	-379.926152	-379.9671	27.457	
C	-0.1787057826	 1.6189104463	-0.0346315158	-0.386959
C	 0.0403367966	 0.1020814916	-0.0369635397	-0.082043
C	-1.2847007989	-0.6738040658	 0.0909759226	-0.389985
C	 0.7928554811	-0.3663079143	-1.2478831988	 0.379148
N	 1.105328505	 0.4088108165	-2.2531747881	-0.180352
O	 1.7841028696	-0.4463246268	-3.1361296081	-0.158424
C	 1.7974171738	-1.6414500446	-2.5476270262	 0.104381
N	 1.2147851138	-1.6789186198	-1.3947536169	-0.30903
H	 0.7678944299	 2.1612675959	-0.0993595677	 0.129027
H	-0.795505889	 1.9271220796	-0.8839281895	 0.132318
H	-0.6885311272	 1.9195816884	 0.8852964596	 0.111091
H	 0.663962239	-0.1688664728	 0.8256824874	 0.105908
H	-1.9576175571	-0.4297991537	-0.7378731259	 0.123059
H	-1.110026379	-1.7523099589	 0.0853264557	 0.139127
H	-1.7870720716	-0.4071772846	 1.0255450293	 0.117408
H	 2.2849415465	-2.4459465571	-3.0790629478	 0.165325
