23
gdb 42080	3.35264	1.22089	1.18989	0.1488	88.87	-0.2334	0.0316	0.265	1188.8367	0.208836	-351.187171	-351.178978	-351.178034	-351.220253	32.678	
C	 0.0220901876	 1.4930480158	-0.2748095923	-0.203208
C	 1.440395334	 2.0295410855	 0.0846112963	-0.206648
C	 2.2178052071	 0.8121800113	 0.6418346964	-0.24189
C	 1.4792870773	-0.4321413726	 0.0946138033	 0.36165
C	 0.011947134	 0.0221198091	 0.1906247295	-0.263636
C	 1.9397223	-0.7311085878	-1.3697549014	-0.297899
C	 2.8862361837	-1.8959748342	-1.2203529499	-0.062996
C	 2.8232311436	-2.4383287695	-0.0061585577	-0.058832
C	 1.8229779655	-1.7322156516	 0.8742534032	-0.336173
H	-0.7771076812	 2.0771245286	 0.1895817075	 0.093076
H	-0.1398060681	 1.5476271579	-1.3561779793	 0.098594
H	 1.931772571	 2.4406764285	-0.8021890121	 0.097825
H	 1.399459727	 2.8409145844	 0.8166348317	 0.09541
H	 3.2794352119	 0.8202749354	 0.3764724247	 0.094785
H	 2.161692277	 0.804222465	 1.7370831788	 0.089152
H	-0.3131541919	-0.0392992568	 1.2372447777	 0.090506
H	-0.6663448272	-0.6089389319	-0.3928944996	 0.087643
H	 1.0903213759	-1.0029505242	-2.0137923272	 0.09779
H	 2.4111085116	 0.1386563331	-1.8436190822	 0.097284
H	 3.5103389159	-2.2495790731	-2.0341797924	 0.086285
H	 3.3859930945	-3.3046920419	 0.3245171338	 0.087059
H	 2.211823927	-1.5153637172	 1.8770900079	 0.095467
H	 0.9311420939	-2.3589278238	 1.0239423231	 0.098755
