17
gdb 23364	2.68984	1.29092	0.93415	6.869	79.81	-0.1808	-0.049	0.1318	1228.9012	0.136242	-451.249106	-451.240078	-451.239134	-451.282846	34.001	
N	 0.1989357429	 1.2721363828	 0.1342749424	-0.53172
C	 0.164094063	-0.0890314659	 0.0688213182	 0.370789
N	 1.340856474	-0.6914508118	-0.2419533897	-0.564257
H	 1.4021409251	-1.6933374266	-0.201026909	 0.279778
H	 2.1960622403	-0.1907042916	-0.0634889166	 0.267851
C	-1.0262311338	-0.7901486009	 0.3238889423	 0.255104
N	-2.1020790498	 0.0493597125	 0.3888299398	-0.099264
O	-3.2233453515	-0.4474622363	 0.615374963	-0.381625
C	-1.0719911994	-2.2706399383	 0.4721245464	-0.100307
C	-1.9712656566	-2.9716930361	 1.4340188071	-0.244041
N	-2.2075052959	-3.0835071972	-0.0137852126	-0.329085
H	 0.8197830404	 1.7426472239	-0.5079754601	 0.255508
H	-0.7355080863	 1.662056873	 0.2155863916	 0.275186
H	-0.1230354227	-2.7715403514	 0.282824194	 0.052254
H	-1.6140618001	-3.8774380841	 1.9171807616	 0.105855
H	-2.6602990087	-2.3662236652	 2.0105100283	 0.136212
H	-2.965686541	-2.4382360668	-0.2302952066	 0.251762
