18
gdb 73171	2.51124	1.44472	1.29987	5.9361	76.31	-0.2326	0.0194	0.252	1072.3763	0.148478	-398.088848	-398.080521	-398.079577	-398.121639	31.803	
C	-0.3156550856	 1.3506258829	-0.108953837	-0.512482
C	 0.0208936613	-0.1088906912	 0.0624379182	 0.33271
N	-1.0884732231	-1.0361405958	 0.3644845083	-0.332264
C	-0.4581635918	-1.469138341	 1.6424852533	-0.156209
C	 0.8472455797	-0.7686662342	 1.2108488625	-0.071222
N	 1.6082305022	-1.5555399515	 0.2089619629	-0.312238
C	 1.0642747416	-0.7546375482	-0.9180242171	-0.16704
C	 0.5565365252	-1.5193247742	-2.0559097863	 0.314778
N	 0.1603237298	-2.0872544698	-2.9810443455	-0.331887
H	 0.5837411749	 1.9595794776	-0.2437982265	 0.1254
H	-0.9532696638	 1.4943134981	-0.9897080657	 0.141429
H	-0.8562297178	 1.729949847	 0.7646881188	 0.124752
H	-1.9970568134	-0.5972466511	 0.4477102647	 0.221637
H	-0.900888511	-1.0168003386	 2.5398421175	 0.09258
H	-0.4004564289	-2.5541592914	 1.7675809914	 0.116625
H	 1.4320275777	-0.2230160516	 1.9532447719	 0.078415
H	 2.6156610437	-1.508125287	 0.2967195524	 0.229554
H	 1.7613297293	 0.0046194901	-1.2985022138	 0.105462
