19
gdb 114765	3.95808	1.09709	0.92717	2.7447	77.05	-0.2462	-0.0029	0.2434	1277.2673	0.159469	-423.000677	-422.99237	-422.991426	-423.03391	31.384	
C	 0.0132729589	 1.3072419469	-0.2088699518	-0.241015
O	-0.0397703225	-0.080397868	 0.0280019904	-0.242241
C	 0.6390312464	-0.5007106194	 1.2033698347	 0.075779
C	 0.0094497679	-1.8354116159	 1.6261826919	-0.25124
C	 0.8427480968	-2.5691072149	 2.6700463857	 0.019048
O	 1.6930309459	-3.6162188475	 2.1879562593	-0.254234
C	 2.3020840172	-2.3977818058	 2.6627146279	 0.013411
C	 2.8929896522	-1.4970196071	 1.6384479768	-0.08657
C	 2.131003815	-0.63043289	 0.9723308869	-0.070542
H	 1.0392338599	 1.6735022341	-0.3645421261	 0.105615
H	-0.5633868344	 1.5010974361	-1.1165691665	 0.130719
H	-0.4293371432	 1.8774146817	 0.6231989375	 0.105631
H	 0.4689469788	 0.2488716874	 1.9975043742	 0.075014
H	-1.005682873	-1.658188471	 1.9924366779	 0.102903
H	-0.0662504894	-2.4644925028	 0.7344240496	 0.134283
H	 0.3497520322	-2.8051970513	 3.6123694369	 0.092174
H	 2.8614822424	-2.5239233367	 3.5893818187	 0.092435
H	 3.959866821	-1.5706947437	 1.4468426255	 0.097371
H	 2.5649543778	 0.0247485179	 0.2219519007	 0.101459
