20
gdb 68452	2.38168	1.95414	1.30762	3.6601	78.71	-0.2368	0.0372	0.274	1023.4709	0.17349	-403.19294	-403.185009	-403.184065	-403.224954	31.761	
C	-0.0506569073	 1.5360572844	-0.0195653052	-0.473534
C	 0.0271601444	 0.0235611358	-0.0065817562	 0.191783
C	 1.0730991011	-0.7187721756	-0.9006179158	-0.255602
C	 1.0849953715	-1.8219044221	 0.1906650197	-0.025438
C	 0.6764121475	-0.7210668706	 1.2051509882	-0.255607
C	-0.0861736536	-2.7785638798	-0.0310482997	-0.164223
N	-1.2953665944	-1.9983362003	-0.2579804976	-0.311176
C	-1.3366372898	-0.6287948627	-0.264156769	 0.393311
O	-2.3624236095	-0.0045169738	-0.4571876841	-0.391956
H	 0.9372436512	 1.9697131964	 0.1665839633	 0.099306
H	-0.4168315718	 1.9008450051	-0.9832992662	 0.129629
H	-0.7418613533	 1.8989542794	 0.746260288	 0.129592
H	 0.7800009625	-0.996317828	-1.917194788	 0.101859
H	 2.0176145062	-0.1686649151	-0.9298591121	 0.100788
H	 2.0066205722	-2.3809583869	 0.3636681737	 0.0696
H	 1.5453236037	-0.1713816643	 1.5772013415	 0.10078
H	 0.0336343137	-1.0006365749	 2.0448201644	 0.101852
H	 0.1158374832	-3.427272878	-0.8950920485	 0.107343
H	-0.2121643185	-3.4292336978	 0.8458533089	 0.107335
H	-2.174813079	-2.4637034813	-0.4243844152	 0.244359
