18
gdb 13359	6.20222	0.9895	0.90019	0.166	82.15	-0.2386	0.0262	0.2648	1313.8684	0.153856	-310.661044	-310.65258	-310.651636	-310.696057	30.02	
C	 0.2504721567	 1.5840880235	-0.4000515478	-0.497904
C	 0.1208414717	 0.155206675	-0.1503736272	 0.07217
C	 0.016659019	-1.0278450546	 0.0521126049	 0.056218
C	-0.1188478913	-2.4545390929	 0.3089386126	-0.154452
C	 0.3705284901	-2.9139961889	 1.7192362968	-0.254888
C	-0.5374298128	-4.0802490953	 2.0253318084	-0.06459
C	-1.5875329088	-4.1276847225	 1.2076639424	-0.064583
C	-1.5777558837	-3.0020121731	 0.2021782653	-0.254903
H	 0.9856751124	 1.7874596564	-1.1868278181	 0.144966
H	-0.7022764809	 2.0220869773	-0.7184570935	 0.145004
H	 0.5742534533	 2.1193956623	 0.4996915178	 0.144908
H	 0.4803611825	-3.0032575142	-0.4287670011	 0.102129
H	 1.434523156	-3.1729265298	 1.7150637381	 0.106913
H	 0.2459838727	-2.1122252748	 2.4592493059	 0.1147
H	-0.3539605317	-4.7599149735	 2.8503029408	 0.091345
H	-2.3928280155	-4.8520128717	 1.2627311103	 0.091345
H	-2.3089622496	-2.2276125523	 0.4697739152	 0.114717
H	-1.8182663601	-3.3199023209	-0.8177485309	 0.106904
