14
gdb 10383	2.65073	2.04201	1.4075	2.7393	64.24	-0.2607	-0.042	0.2187	884.3778	0.104628	-382.48282	-382.474887	-382.473943	-382.515687	27.835	
O	-0.1763401163	 0.0663106371	-0.2857858093	-0.235456
C	-0.01079711	 1.1856393746	 0.1159982923	 0.108905
C	 1.3140931953	 1.9443307327	 0.0268009721	-0.007551
C	 2.4546182257	 1.1396417212	-0.6507503434	-0.111236
O	 2.3320752315	 1.8959101558	-1.871662825	-0.260856
C	 1.3861739338	 2.797137443	-1.2920405894	-0.105174
C	 1.5819313277	 2.632953423	 1.2700756464	 0.237368
C	 1.7705175621	 3.1942494823	 2.3166935314	-0.421956
H	-0.8332425702	 1.7750338551	 0.5743119247	 0.099609
H	 3.4335688923	 1.2676376422	-0.1778426814	 0.113905
H	 2.2250428124	 0.0805506275	-0.7943439518	 0.138248
H	 0.4563131625	 2.8634117358	-1.8699211066	 0.119319
H	 1.7941686616	 3.8015911571	-1.13027421	 0.119035
H	 1.9544872616	 3.6927398327	 3.2365702401	 0.20584
