18
gdb 32413	3.09403	1.15957	0.85239	1.1861	75.22	-0.1734	0.0566	0.23	1312.5876	0.146127	-439.113586	-439.103461	-439.102517	-439.149511	35.589	
C	 0.0410252623	 1.5187006766	 0.0172516717	-0.518519
C	 0.036234633	 0.0203902116	 0.0130124194	 0.029322
C	 0.0292887391	-0.8079391789	-1.0858798694	 0.317385
O	 0.0247173196	-0.5714376616	-2.4256886587	-0.438211
N	 0.0270053039	-2.1080048882	-0.6754319047	-0.313559
C	 0.0326839778	-2.1463693151	 0.7083755277	-0.181276
C	 0.0383172206	-0.8533861081	 1.1572259768	 0.21073
C	 0.0453395392	-0.418830801	 2.5877238434	-0.190265
O	 0.0449956299	-1.5699310941	 3.419605234	-0.418342
H	 0.9263427252	 1.9315244034	 0.5177280159	 0.126049
H	 0.0379568909	 1.9313503941	-0.9993892835	 0.092697
H	-0.8372613303	 1.9371934835	 0.5253485924	 0.126039
H	 0.0261300206	 0.3807988889	-2.5621551215	 0.302563
H	 0.0224586323	-2.8966444997	-1.2972789118	 0.262005
H	 0.0318106793	-3.0763871114	 1.2483450927	 0.129814
H	 0.9310073871	 0.2102699743	 2.788129734	 0.08866
H	-0.8347582617	 0.2158145603	 2.7950921273	 0.088661
H	 0.0504765911	-1.2744758546	 4.3339762243	 0.286247
