21
gdb 63169	2.33983	1.61738	1.28284	1.3548	78.28	-0.2266	0.0693	0.2959	1100.0944	0.18125	-424.213535	-424.204226	-424.203281	-424.246814	35.877	
C	-0.0343299727	 1.5369555197	 0.014599732	-0.458899
C	 0.0194724799	 0.0231529938	 0.0564135324	 0.253976
C	-1.2112539638	-0.6605490559	-0.5141606777	-0.449045
C	 1.3455383992	-0.6938713474	-0.186917824	-0.043166
O	 2.5135336687	 0.0833047645	-0.1640453595	-0.259273
C	 2.9610613911	 0.1794588999	 1.1956124658	-0.067187
C	 1.7015584443	 0.07304217	 2.0798587988	-0.320688
C	 0.72495788	-0.7075226561	 1.1882270236	 0.312763
O	 0.0716232445	-1.8138428435	 1.7370064174	-0.463674
H	 0.9392646924	 1.9899914827	 0.2096996558	 0.126173
H	-0.3519225919	 1.8710945819	-0.9792210457	 0.116235
H	-0.7555442048	 1.9287694543	 0.7409478598	 0.113874
H	-1.3643563569	-0.3545671737	-1.5550262934	 0.111043
H	-1.126822712	-1.7480394034	-0.4777750495	 0.122987
H	-2.1073942429	-0.384964812	 0.0528115072	 0.119484
H	 1.3797202908	-1.5670307168	-0.834162848	 0.089399
H	 3.6589732795	-0.6429148446	 1.4167638861	 0.09088
H	 3.5015690747	 1.1241724377	 1.2995015629	 0.109467
H	 1.8881225421	-0.4888419297	 2.9990463143	 0.102877
H	 1.3169840148	 1.0557733253	 2.366779601	 0.113817
H	 0.726889883	-2.5025538666	 1.8960401607	 0.278957
