18
gdb 45879	2.30474	1.98972	1.27148	3.8795	77.4	-0.2331	-0.0067	0.2264	1008.0971	0.149618	-401.954454	-401.946856	-401.945912	-401.986544	29.561	
O	-0.0274918099	 0.0507978583	 0.6744913159	-0.338452
C	-0.0720824409	 1.1501189388	 0.1738140922	 0.371497
C	-1.3719399604	 1.8567457639	-0.190936516	-0.348411
C	-1.672811956	 2.7354930219	 1.0093219242	-0.061624
C	-0.9250870719	 3.7808808034	 1.365555922	-0.058901
C	 0.2330533114	 4.3203757782	 0.5579202228	-0.285403
C	 1.2881020306	 3.3270278335	 0.0804079933	-0.006227
C	 1.9909939203	 2.3330876963	 0.966115687	-0.247464
N	 1.075223926	 1.9006918928	-0.0671075868	-0.077534
H	-1.2530213694	 2.452242296	-1.102752903	 0.119435
H	-2.1515658815	 1.1117643064	-0.3487292885	 0.127635
H	-2.4999509058	 2.4296398907	 1.6426382624	 0.105981
H	-1.1858155214	 4.3291990025	 2.2663921979	 0.097786
H	-0.1695696862	 4.8210073755	-0.3356395735	 0.124596
H	 0.7484700098	 5.1063168791	 1.1210062923	 0.119443
H	 1.8931822267	 3.7367349722	-0.7288819619	 0.100227
H	 3.0457912261	 2.1197099803	 0.8132430484	 0.124069
H	 1.6413411324	 2.2281786802	 1.9905026613	 0.133348
