22
gdb 76788	1.94248	1.82615	1.18014	2.8918	81.43	-0.2421	0.0604	0.3024	1149.9058	0.194082	-404.316311	-404.306942	-404.305998	-404.349938	36.383	
C	-0.2646921969	 1.435966136	 0.1791608932	-0.393683
C	-0.0651228762	-0.0652819644	 0.004756027	-0.058453
C	 0.7773459135	-0.5176766308	-1.2448626032	-0.061124
C	 0.8891154033	 0.3764436607	-2.4721572992	-0.428847
C	 1.9815659011	-0.668664426	-0.3052973235	 0.287279
C	 3.3394479661	-1.2068958549	-0.4935886258	-0.317352
N	 3.1322855062	 0.241079782	-0.2528459103	-0.37398
C	 1.0668712274	-0.6590788682	 0.9247826271	 0.093125
O	 1.5234562706	 0.0797770576	 2.0199198246	-0.438141
H	 0.6753252282	 1.9903205131	 0.095738912	 0.112881
H	-0.9585488787	 1.8348756484	-0.5679905952	 0.107083
H	-0.6717544635	 1.6464796907	 1.1719856034	 0.128474
H	-1.027719503	-0.5771692381	 0.0950582855	 0.06325
H	 0.4466762776	-1.5147563986	-1.5591249084	 0.079636
H	 1.1961777513	 1.3948253343	-2.2143506922	 0.119442
H	 1.6155664897	-0.0248225299	-3.1887120028	 0.113725
H	-0.0722229144	 0.4464859431	-2.9912082589	 0.124125
H	 3.8363671491	-1.7359638305	 0.3154419417	 0.125087
H	 3.6385690618	-1.5191049618	-1.4916672955	 0.113557
H	 3.2291729143	 0.763050658	-1.1202591944	 0.235236
H	 0.8097232613	-1.6688252585	 1.2660495684	 0.077519
H	 2.2665573012	 0.6036404478	 1.6808393165	 0.291162
