18
gdb 84937	2.6543	1.6222	1.07901	3.9577	76.2	-0.2185	0.0083	0.2269	1116.0424	0.149089	-439.128183	-439.119777	-439.118833	-439.161602	30.953	
C	-0.0410311362	 1.4572126071	-0.3454738506	-0.338838
N	 0.0173110897	 0.0102907294	-0.1178313065	-0.171773
C	-1.210536773	-0.6004961564	 0.2030473585	 0.033631
C	-1.5451418025	-1.8861632306	 0.3405899536	-0.1119
C	-0.6710563894	-3.0825102075	 0.1266914426	-0.267608
C	 0.629485085	-2.7115582893	-0.5620981873	-0.097097
O	 1.4182789913	-1.8316658556	 0.2518676447	-0.240969
C	 1.2901726812	-0.490930638	 0.1459445701	 0.458448
O	 2.2496820138	 0.225688985	 0.288448404	-0.372548
H	 0.8803125304	 1.776581232	-0.8274650491	 0.163233
H	-0.8920391223	 1.6822615623	-0.9921138354	 0.126977
H	-0.1453865157	 2.0112540524	 0.595194923	 0.133834
H	-1.9836439665	 0.1446544942	 0.3626666593	 0.107838
H	-2.5743020405	-2.0748936879	 0.6292753568	 0.093942
H	-0.4443103367	-3.5815736124	 1.0788434758	 0.125267
H	-1.1984594568	-3.8267806419	-0.4861767137	 0.110028
H	 1.2595794891	-3.5902902144	-0.7187512793	 0.124916
H	 0.4382311793	-2.2448266383	-1.5344916564	 0.122619
