17
gdb 12053	3.45441	1.84908	1.5377	2.0808	68.48	-0.2392	-0.0252	0.2141	873.2631	0.14145	-363.825639	-363.818033	-363.817089	-363.857435	28.759	
C	 0.0280153781	 1.6725944156	 0.3777065044	-0.470682
C	-0.0043186551	 0.165719201	 0.1336764973	 0.233837
C	 0.9410189155	-0.4411150447	-0.9630342684	-0.283661
C	 1.621612144	-1.2771015145	 0.1230222162	-0.026934
N	 2.1677426643	-0.3142824205	 1.1138564442	-0.336548
C	 0.7442337996	-0.7144513191	 1.1786832457	-0.096056
C	-1.4331031085	-0.3242232386	 0.0108776974	 0.10655
O	-1.8530444272	-1.0893611403	-0.8189190508	-0.247871
H	 1.0449137866	 1.9773093558	 0.6332361799	 0.150166
H	-0.2889715155	 2.2234509452	-0.5143193348	 0.122773
H	-0.6365031015	 1.9572546105	 1.2022483253	 0.113049
H	 0.3689667425	-1.0361001835	-1.6763311012	 0.133464
H	 1.588925294	 0.2692574163	-1.4809930857	 0.104853
H	 2.0398052648	-2.2714305282	 0.0301878295	 0.097669
H	 2.6581220831	-0.8549758663	 1.8264714136	 0.230773
H	 0.3291722125	-1.1660290599	 2.0723956857	 0.094286
H	-2.1086099274	 0.0831299312	 0.8001241114	 0.074332
