10
gdb 829	5.28606	2.80689	2.77246	2.7647	32.38	-0.2571	0.0697	0.3268	506.0529	0.070118	-432.85289	-432.846825	-432.845881	-432.882725	20.798	
N	-0.0417969391	 1.4895271991	 0.0247149295	-0.508548
C	-0.0239476696	 0.0350421683	 0.0033752986	-0.276739
C	 0.8222051441	-0.4886174803	 1.1520757557	 0.299265
F	 0.3240642857	-0.1672137806	 2.3478188939	-0.067633
F	 0.9133641452	-1.8273186516	 1.0924000011	-0.081754
F	 2.0728699148	 0.005171435	 1.0871044264	-0.093376
H	 0.8714336193	 1.8516456429	-0.2287072003	 0.24061
H	-0.7037942541	 1.8401621924	-0.657661039	 0.240375
H	-1.0389081325	-0.3445066527	 0.1526220149	 0.136364
H	 0.3744327161	-0.4283923625	-0.9134225308	 0.111437
