21
gdb 85928	2.50622	1.35908	1.14278	1.9054	78.66	-0.2427	-0.0233	0.2194	1194.3696	0.179785	-424.269132	-424.259417	-424.258473	-424.30349	36.639	
C	-0.4150893657	 1.579286592	-0.2662830102	-0.397885
C	-0.0326082313	 0.0998364214	-0.2344102552	 0.02655
O	 0.7893418442	-0.2942375308	-1.3221807695	-0.311241
C	 2.1267586947	-0.6593024189	-0.8888879648	 0.368907
C	 2.5767551739	-1.7986103698	-1.7980609348	-0.422223
C	 3.0559986395	 0.5551699768	-1.0261954323	-0.414799
C	 1.9580437397	-1.0739252944	 0.5823678524	-0.377329
C	 0.7329603515	-0.2892728338	 1.0348851244	 0.368443
O	 0.4105479713	-0.0136193991	 2.1603112313	-0.311494
H	 0.4713207191	 2.219039293	-0.2384391047	 0.122182
H	-0.9743950789	 1.8047060226	-1.1776733011	 0.125983
H	-1.0377536835	 1.8117928789	 0.6022289418	 0.1367
H	-0.953518837	-0.5029914846	-0.2643942148	 0.105258
H	 2.5931775426	-1.467199318	-2.8404582773	 0.125324
H	 3.5814017866	-2.1388396476	-1.5282152105	 0.115428
H	 1.8872956867	-2.6437023638	-1.7192990289	 0.118005
H	 2.7657118419	 1.3600587627	-0.343383901	 0.118032
H	 4.0917321154	 0.2812104058	-0.7994271498	 0.115521
H	 3.0139302204	 0.9425842227	-2.0477479986	 0.126216
H	 1.7196600028	-2.1418578096	 0.6657364055	 0.130678
H	 2.8209516762	-0.8704872955	 1.218642778	 0.131743
