16
gdb 47178	2.30286	1.73755	1.03249	3.8818	76.83	-0.2256	-0.0328	0.1928	1101.1582	0.127788	-434.11429	-434.106527	-434.105583	-434.146741	29.494	
N	-0.1258948848	 1.3567977074	-0.2605433296	-0.509546
C	 0.0166012086	 0.120871498	 0.024466971	 0.397946
C	-1.221653127	-0.7495368571	 0.0382134302	-0.239508
N	-1.4484764058	-1.4370000347	 1.297167728	-0.285272
C	-0.6508490057	-2.4624775232	 1.690037072	 0.006931
C	 0.6261903241	-2.6977702861	 1.308523519	-0.205318
C	 1.5797983219	-1.8289453615	 0.6256724009	 0.374439
O	 2.7437192362	-2.1575669082	 0.4631683577	-0.375811
N	 1.2271704225	-0.5186682615	 0.2367981254	-0.394526
H	 0.7719617962	 1.8468070588	-0.270989327	 0.208775
H	-2.0645755681	-0.0919460871	-0.1656438988	 0.146824
H	-1.1348603954	-1.4883498273	-0.7743994082	 0.128734
H	-2.3929722409	-1.4316183152	 1.6411863015	 0.260762
H	-1.1219784876	-3.1555603141	 2.3824607039	 0.123874
H	 1.0935188977	-3.6082259511	 1.660291768	 0.113507
H	 2.0562573981	-0.0026044569	-0.0302681741	 0.248189
