21
gdb 104424	2.79497	1.2532	1.16183	2.475	80.49	-0.2437	0.0159	0.2597	1187.1172	0.182804	-424.23496	-424.226009	-424.225065	-424.268165	34.957	
C	-0.1735423644	 1.6444735703	 0.0800312757	-0.417478
C	-0.00802176	 0.1157930377	 0.0647058764	 0.290397
C	-1.3894683178	-0.5747105133	 0.027990244	-0.066576
O	-2.1113954684	-0.2352944121	-1.1367990081	-0.426332
O	 0.59136353	-0.3000539413	-1.1753560929	-0.314308
C	 2.0083779104	-0.2648319394	-1.2072114803	-0.084033
C	 2.6071890843	-1.2260529694	-0.1802555219	-0.260039
C	 1.9381937747	-1.0143750143	 1.1510058435	-0.087684
C	 0.7731124341	-0.3789983151	 1.2537998412	-0.08077
H	 0.7879988018	 2.1454590088	-0.0605339903	 0.114093
H	-0.8578216909	 1.9434137791	-0.7169520075	 0.13373
H	-0.5866493827	 1.9784440124	 1.0373484642	 0.112083
H	-1.2320173334	-1.6609100973	 0.1047453791	 0.089245
H	-1.9907500864	-0.2533486284	 0.8847886402	 0.10096
H	-1.5106292035	-0.4115568407	-1.8714804608	 0.290812
H	 2.2929421302	-0.5348942085	-2.2281053753	 0.105205
H	 2.3752525201	 0.7546246041	-1.0147940282	 0.095744
H	 2.4810844268	-2.2654849316	-0.5127834879	 0.116654
H	 3.6883526034	-1.05675516	-0.0997641066	 0.10484
H	 2.4411400605	-1.3825693089	 2.0412728508	 0.092177
H	 0.318261021	-0.201698122	 2.2254046147	 0.091282
