19
gdb 1120	4.73278	1.48466	1.31265	2.4533	67.94	-0.2422	-0.0085	0.2337	1002.4251	0.168505	-310.955296	-310.946184	-310.94524	-310.98921	31.985	
C	 0.1221477314	 1.6586592	-0.088765826	-0.389249
C	 0.0402409044	 0.1273265379	-0.0206844072	 0.05666
C	 0.6912502007	-0.5169617284	-1.2510409596	-0.396949
C	 0.6697026651	-0.4107179462	 1.2712845162	-0.293065
C	-0.1144267986	-0.1096615588	 2.5442016814	 0.381924
C	 0.5953969579	-0.4164309497	 3.8523410269	-0.472099
O	-1.2402128017	 0.3342180761	 2.5220047237	-0.296043
H	 1.1664857057	 1.9956552458	-0.0986193651	 0.102323
H	-0.35313388	 2.034361065	-1.0007683311	 0.110478
H	-0.3806425109	 2.1184817206	 0.7653493662	 0.131916
H	-1.020298746	-0.1496783182	 0.0006285223	 0.093963
H	 1.7609369326	-0.2798414936	-1.3038094743	 0.108953
H	 0.5935019496	-1.6079678876	-1.2338119046	 0.107398
H	 0.227874274	-0.1540352364	-2.174277624	 0.112882
H	 0.7657866424	-1.5062134043	 1.2226663357	 0.116967
H	 1.6987212716	-0.0429290725	 1.3927607181	 0.10811
H	 1.4314313325	 0.2796676114	 3.989509634	 0.140976
H	-0.0993537951	-0.3125746594	 4.6866434215	 0.141534
H	 1.0222449042	-1.4250563416	 3.8413290761	 0.133323
