20
gdb 23132	2.55977	1.18528	0.87711	1.0966	78.66	-0.2446	0.0035	0.2482	1355.9427	0.170186	-440.256721	-440.247346	-440.246402	-440.291305	34.529	
C	-0.0898867984	 1.5447427078	-0.1214981826	-0.388131
C	-0.0754766636	 0.0152131486	-0.112416227	-0.177421
C	-1.4499196365	-0.5821522839	 0.2240047996	 0.043484
O	-2.4536587579	-0.2074601117	-0.7236320618	-0.266558
C	-2.5704475438	-1.2395978837	-1.6997306635	-0.094085
C	-2.3460603088	-2.5553936521	-0.9397314475	-0.324943
C	-1.4625804776	-2.1008865526	 0.1939457663	 0.376652
N	-0.8000666074	-2.7924193873	 1.0276285207	-0.226898
O	-0.9646065119	-4.1696273469	 0.7947877814	-0.391643
H	 0.88913066	 1.9470159595	-0.3982955294	 0.110338
H	-0.8299388319	 1.9174078257	-0.8348231194	 0.132038
H	-0.3483596992	 1.9426242033	 0.8663156771	 0.113893
H	 0.2522358837	-0.3665365593	-1.0876209743	 0.092995
H	 0.6389919057	-0.3668269101	 0.6256318033	 0.114327
H	-1.7780817091	-0.2016947327	 1.198714712	 0.098791
H	-3.5608930867	-1.1538616556	-2.1528673013	 0.113767
H	-1.818602671	-1.1175661035	-2.4943991999	 0.097868
H	-3.2840322178	-2.9565727601	-0.5387196246	 0.135354
H	-1.879320317	-3.3459268557	-1.5318839405	 0.133425
H	-0.4163437209	-4.5595795598	 1.4840690615	 0.306748
