19
gdb 70798	2.7495	1.77657	1.4512	0.281	74.57	-0.2374	0.079	0.3163	986.6876	0.15866	-422.992655	-422.984916	-422.983972	-423.024267	31.298	
C	 0.0866678939	 1.4571582935	-0.0714370304	-0.508672
C	 0.0144079085	-0.0357087997	 0.0461393361	 0.378579
C	-1.3098476662	-0.8126839672	-0.12708959	-0.244087
C	-0.7077202165	-2.1030297624	 0.446969414	-0.012383
O	-0.4175713476	-1.7032766242	 1.8210824641	-0.298501
C	 0.6187095718	-0.9045675336	 1.2506169403	-0.038034
C	 0.8329462546	-1.8422766421	 0.0577273313	 0.433368
C	 1.8127181403	-2.9586214357	-0.1184119187	-0.521883
O	 0.8751514004	-0.7714118349	-0.8883171165	-0.357582
H	 1.1126736578	 1.8104720437	 0.0669085796	 0.127414
H	-0.2577554603	 1.7868787681	-1.0572581713	 0.131573
H	-0.5485110943	 1.9257816581	 0.6868185382	 0.127848
H	-2.140873392	-0.461332795	 0.4881133935	 0.107101
H	-1.5924454309	-0.8598988251	-1.1806805929	 0.107362
H	-1.2222423568	-3.0588873016	 0.3632208668	 0.081493
H	 1.3546978009	-0.4924283074	 1.9402590993	 0.087263
H	 1.7345306412	-3.6571981041	 0.7198513016	 0.136645
H	 1.6123016297	-3.5072100815	-1.0447458775	 0.131507
H	 2.8360087755	-2.5745941688	-0.1624501177	 0.13099
