16
gdb 36066	4.40287	1.20087	1.1154	2.0622	76.14	-0.2157	0.0457	0.2615	1097.8593	0.123024	-363.446472	-363.439048	-363.438104	-363.478746	28.897	
C	-0.103898916	-1.1957242045	-0.2162964308	-0.442557
C	-0.0581084228	-0.0058358277	-0.0564447842	 0.302915
C	 0.0269603857	 1.4393065915	 0.1496407627	-0.50877
C	 1.4341303782	 1.9585865548	 0.0933932841	 0.368145
C	 1.9395373016	 3.3950118338	-0.1173511912	-0.192007
C	 3.1999215293	 3.0473763855	 0.7121979139	-0.047759
C	 2.7157467718	 1.6571621333	 0.9183297599	-0.116722
N	 3.6019708393	 1.9687270012	-0.2594333292	-0.175603
C	 2.3417845496	 2.2880067077	-1.0631414181	-0.060445
H	-0.1511041634	-2.2462724453	-0.3628758472	 0.19882
H	-0.5717592743	 1.9574283338	-0.611782887	 0.13689
H	-0.4287407755	 1.6967374628	 1.1158659253	 0.137894
H	 1.3726850244	 4.301147154	-0.2788144987	 0.096674
H	 3.9277431426	 3.6456945437	 1.2470544115	 0.09811
H	 2.9686565891	 0.8980913035	 1.6488413954	 0.100909
H	 2.2397940105	 2.1614392319	-2.1338167065	 0.103505
