19
gdb 81175	2.93404	1.15544	0.99587	4.1755	77.47	-0.2749	0.0086	0.2836	1249.2718	0.158581	-423.002711	-422.994172	-422.993228	-423.03676	31.846	
C	-0.3004182125	 1.5994816285	-0.3662097292	-0.45228
C	-0.0713443148	 0.1122339887	-0.1543368176	 0.012784
C	 1.2200667608	-0.6242163668	-0.6509655598	-0.079539
C	 2.0176183132	 0.0413529932	 0.511055209	-0.29696
C	 0.6599100567	-0.4396489177	 1.1037495682	 0.412168
C	 0.8633729185	-1.7708889429	 0.342224327	-0.270569
O	 0.168340877	-0.3303129477	 2.414516767	-0.242066
C	 0.9320367084	 0.2532720925	 3.3620623631	 0.140497
O	 0.5675628192	 0.3767943588	 4.4924157717	-0.274445
H	 0.5877573087	 2.2112572204	-0.1899744251	 0.11978
H	-0.6325835559	 1.789456714	-1.3921953637	 0.124316
H	-1.0885096725	 1.9582401996	 0.304406775	 0.133219
H	-0.9878571302	-0.4433890008	-0.3808232459	 0.076422
H	 1.5529721784	-0.7376252406	-1.6794036898	 0.09047
H	 2.9103137486	-0.493714936	 0.8442359095	 0.105057
H	 2.2016631099	 1.1137459845	 0.4488911947	 0.107448
H	-0.0365377508	-2.3499150423	 0.1239002595	 0.104187
H	 1.6901113425	-2.4023026392	 0.6751965765	 0.099226
H	 1.9084191946	 0.5943205538	 2.9757538497	 0.090286
