22
gdb 17810	3.84724	1.43691	1.2992	0.1026	82.43	-0.2876	0.0897	0.3773	1075.0447	0.201116	-313.025134	-313.017041	-313.016097	-313.057493	31.838	
C	-0.1236210205	 1.4793336613	-0.0042181998	-0.383782
C	-0.1492858687	-0.0563662761	 0.0347087216	-0.024831
C	-1.5929607038	-0.5817756365	 0.0182553167	-0.383773
C	 0.636240654	-0.6291571986	-1.1437729128	 0.102044
C	 2.1999974483	-0.5898411637	-1.2190285013	-0.064572
C	 2.2393557684	-1.7624663139	-0.1941565448	-0.222834
C	 1.1076272448	-2.1214191145	-1.2027758638	-0.064577
C	 2.0875609299	-1.6768387167	-2.3269862178	-0.219311
H	 0.8995664519	 1.8650224673	 0.0468909134	 0.112362
H	-0.5746549757	 1.85443382	-0.9308833495	 0.109969
H	-0.6857958197	 1.905319299	 0.833531239	 0.107405
H	 0.3103256435	-0.3737101759	 0.9781143811	 0.070596
H	-2.1041211326	-0.2912513788	-0.9075696906	 0.109968
H	-1.623343338	-1.6739340467	 0.0856663367	 0.112363
H	-2.1703845982	-0.1769588591	 0.8561301256	 0.107405
H	 0.1586984819	-0.2984726463	-2.0770448333	 0.052187
H	 2.8394056284	 0.2948002592	-1.2331475498	 0.064692
H	 3.1293617219	-2.3975754363	-0.2255596808	 0.086267
H	 1.9559401263	-1.5493762591	 0.837321256	 0.092363
H	 0.4793788467	-3.0141187569	-1.1980353307	 0.064693
H	 1.6415017455	-1.3687745245	-3.2769777544	 0.085691
H	 2.9680490757	-2.3064675532	-2.4809955407	 0.085675
