18
gdb 19196	3.15168	2.06039	1.67914	0.8106	66.87	-0.2299	0.068	0.2979	848.5912	0.154843	-384.911103	-384.903884	-384.90294	-384.942059	28.575	
C	-0.0950099007	 1.6342295286	 0.0423489204	-0.441169
C	 0.0108535912	 0.1199640869	 0.0031108814	 0.034757
C	 0.8459144208	-0.6305323049	-1.1001145187	-0.107489
C	 2.2300321067	-0.013908066	-0.8942676672	-0.093836
O	 2.3012412105	-0.027080378	 0.5568053109	-0.280642
C	 1.0366362824	-0.6121032519	 0.9078262533	 0.03797
C	 0.9497257056	-1.8096008534	-0.0866235973	 0.129058
O	-0.2219669295	-2.5892912467	-0.0655245182	-0.438857
H	 0.8857054064	 2.1084765493	 0.1306520784	 0.131691
H	-0.5858701891	 2.0207137456	-0.8578158512	 0.114187
H	-0.6924760125	 1.9538295894	 0.9031609136	 0.115093
H	-0.9667796725	-0.3552653131	 0.0846463242	 0.094232
H	 0.4886530379	-0.775018595	-2.1191107954	 0.074971
H	 3.0441240108	-0.6170006479	-1.3123889212	 0.102121
H	 2.3216120615	 1.0114584024	-1.2685371837	 0.10234
H	 0.9588458648	-0.7002026257	 1.9919020151	 0.069847
H	 1.8557404839	-2.4275229647	-0.1455090811	 0.068828
H	-0.1934085982	-3.1479781549	 0.7177295665	 0.286902
