20
gdb 122595	3.7559	0.7827	0.68173	1.6763	77.72	-0.2536	0.0162	0.2698	1684.1607	0.169778	-440.274412	-440.264708	-440.263763	-440.310318	34.161	
C	-0.2405202753	 1.4688043796	-0.1294937371	-0.383456
C	 0.1473636004	-0.0081116449	-0.0218234527	-0.184719
C	 0.6708521437	-0.5620838685	-1.3381561013	-0.055225
O	 1.0207382457	-1.9311133252	-1.1398504059	-0.256202
C	 1.5142618559	-2.5518163659	-2.2848872488	 0.00231
C	 1.7846832242	-4.0565439312	-2.1057471842	-0.114908
O	 0.8416461914	-4.3622566407	-3.1826297891	-0.251975
C	 0.5024447119	-3.0331462265	-3.3273729438	 0.419804
N	-0.3557526057	-2.4771123784	-4.0521240997	-0.544978
H	 0.6175973687	 2.0880084831	-0.4134081717	 0.116541
H	-1.0223799981	 1.6216315342	-0.8812261575	 0.122217
H	-0.6191183764	 1.8448894212	 0.8251254062	 0.117955
H	 0.9158896069	-0.1457291175	 0.7476527724	 0.104354
H	-0.7171293259	-0.6062382105	 0.2878924786	 0.109912
H	-0.086404663	-0.4804803424	-2.1293062338	 0.130259
H	 1.5601033661	 0.0005529063	-1.6701013989	 0.085582
H	 2.3475724874	-1.9874929204	-2.7294323652	 0.09542
H	 2.7863961189	-4.4191648631	-2.3434542466	 0.122991
H	 1.4349540328	-4.450557973	-1.1494858374	 0.13408
H	-0.8807271795	-3.158191906	-4.6045425935	 0.230038
