17
gdb 65365	3.30066	0.94956	0.92089	2.6701	74.55	-0.2666	0.0216	0.2883	1320.1247	0.135715	-417.973864	-417.965051	-417.964107	-418.007889	32.352	
N	-0.1023530385	 1.475778164	-0.2392753598	-0.557039
C	-0.0199669583	 0.0573433138	 0.0083841018	 0.134494
C	-0.2062868097	-0.3895415053	 1.4473980314	-0.315183
C	-1.2980897704	-0.6574208506	 0.4520298656	-0.054342
C	-2.5894260038	 0.0903290877	 0.5052447284	 0.07483
C	-3.7317908788	-0.2969166664	-0.3335460865	-0.186382
O	-3.6943761407	-0.6352084281	 1.0537448355	-0.234295
C	 0.8981306016	-0.7019623883	-0.8171643053	 0.236643
N	 1.6368401244	-1.2696591001	-1.5042151269	-0.343457
H	 0.7948801041	 1.9181863232	-0.0633415463	 0.247726
H	-0.3412093456	 1.6573096616	-1.2096938076	 0.246807
H	 0.386096144	-1.2222836138	 1.8057316344	 0.141677
H	-0.3589076498	 0.4168521806	 2.155891937	 0.139084
H	-1.3958967081	-1.683491752	 0.1124548474	 0.118504
H	-2.5161644469	 1.1246910223	 0.8332894789	 0.113522
H	-4.4726323958	 0.4498863915	-0.6153870549	 0.119786
H	-3.6336736477	-1.13584199	-1.0217783733	 0.117625
