17
gdb 101316	2.82373	0.98497	0.92481	1.0461	66.14	-0.2591	-0.0453	0.2138	1319.8572	0.133089	-496.067705	-496.058242	-496.057298	-496.103004	33.378	
O	 0.1195672913	 1.332435953	-0.0568705958	-0.422768
C	-0.0214490646	-0.0600983851	 0.2095499967	-0.105258
C	-1.3983424564	-0.5421736794	-0.2639433638	 0.075686
O	-1.6087373867	-0.1484163691	-1.607929944	-0.450305
C	-1.4891606311	-2.0476955606	-0.221940815	 0.053298
O	-1.6617290317	-2.6491654196	 1.0495331458	-0.231923
C	-2.7345810241	-2.7865911906	 0.1223214586	-0.04628
C	-4.0149965034	-2.0685247359	 0.4126922133	 0.14855
O	-4.1413522186	-1.1815919173	 1.2181157644	-0.249181
H	-0.4272471401	 1.8127606438	 0.574760133	 0.294038
H	 0.7653787037	-0.5524615748	-0.3717965571	 0.117006
H	 0.1271702417	-0.2965546188	 1.2706385278	 0.118963
H	-2.1652268854	-0.1209865424	 0.402509184	 0.096923
H	-1.1896737747	 0.7197099872	-1.6865421792	 0.29228
H	-0.795548878	-2.5618192849	-0.8902703611	 0.109722
H	-2.8566507303	-3.7836905474	-0.3027393087	 0.111043
H	-4.8694927715	-2.4230869381	-0.205137019	 0.088207
