17
gdb 74539	4.71014	1.46438	1.30291	2.3323	76.98	-0.2169	-0.0003	0.2166	985.3635	0.13562	-384.556483	-384.549733	-384.548789	-384.587243	27.988	
C	-0.073628161	 1.4981028896	-0.0148645477	-0.500939
C	-0.0149252031	 0.0083947324	 0.0102263203	 0.346993
C	-0.077788921	-0.8748709141	-1.0047752223	-0.37193
C	 0.0443753965	-2.1736017517	-0.2356678552	 0.4481
O	 0.0984395986	-3.6231000466	-0.2443481929	-0.39771
C	 0.2201317764	-3.2097278249	 1.2036224387	-0.012351
C	 1.1105236174	-1.9907719812	 0.8784243397	-0.062422
C	 0.1406757385	-0.845162936	 1.3099991625	-0.226858
C	-0.8042950288	-2.0632858731	 1.0600510557	-0.062416
H	 0.834234072	 1.9410181596	 0.4148140006	 0.129066
H	-0.1852823245	 1.8783403361	-1.0339296884	 0.127649
H	-0.9144792005	 1.8749151929	 0.5817763161	 0.129053
H	-0.1847227872	-0.7083130044	-2.0653940283	 0.118644
H	 0.3188284176	-4.0229031488	 1.9194701668	 0.096327
H	 2.1887475756	-1.9652670175	 0.7205822328	 0.086607
H	 0.2110782105	-0.3192294792	 2.2622226244	 0.06558
H	-1.8918037071	-2.1197932031	 1.1076214274	 0.086608
