19
gdb 35965	3.2816	1.17288	0.94044	1.1078	78.32	-0.2449	0.0378	0.2827	1257.9334	0.159147	-422.977564	-422.96892	-422.967976	-423.010939	32.797	
C	 0.3043029467	-1.2382601859	 0.6131987019	-0.419572
C	 0.2162755444	-0.0996651103	 0.2412783409	 0.306527
C	 0.0481480742	 1.2892253773	-0.1801514182	-0.073792
C	-0.9990505211	 1.9971949617	 0.7098977435	-0.102466
O	-1.364209427	 3.2443656772	 0.1595339315	-0.245148
C	-0.6299510562	 4.3704662699	 0.6124705574	-0.074845
C	 0.901557542	 4.2407685739	 0.4805219403	-0.232678
C	 1.3575150081	 3.2595918298	-0.6050344186	-0.059267
O	 1.3236258533	 1.9099941957	-0.1577171477	-0.260002
H	 0.3963863461	-2.2481002493	 0.928970679	 0.197812
H	-0.3544978719	 1.3130159653	-1.2074586991	 0.103149
H	-1.9022080702	 1.3785086859	 0.7375127451	 0.118642
H	-0.6139632205	 2.0895173074	 1.7347425867	 0.107512
H	-0.9940384026	 5.1945895325	-0.0087715362	 0.111979
H	-0.8963683708	 4.6037482054	 1.6551045652	 0.094743
H	 1.3187949564	 5.2341931115	 0.2761124231	 0.102037
H	 1.347761075	 3.9023358845	 1.4215510891	 0.116263
H	 0.7665272046	 3.3796721854	-1.5250263659	 0.100576
H	 2.4072531796	 3.4475362622	-0.849414288	 0.10853
