17
gdb 20885	6.72016	1.07143	0.99942	6.2455	69.11	-0.2467	0.0197	0.2664	1188.5808	0.143787	-360.063199	-360.055369	-360.054425	-360.09656	27.56	
C	 0.0070853572	 1.5653154061	 0.0106310272	-0.382065
C	 0.008117595	 0.0348662431	 0.0024825059	-0.171418
C	-1.4133461662	-0.5406171266	 0.0121733054	-0.169654
N	-1.4417894493	-1.9973864461	 0.0047906219	-0.000659
C	-1.4278625587	-2.8364453526	-1.0739953095	 0.015848
N	-1.4010682201	-4.0894343286	-0.6969807057	-0.223654
N	-1.3919306851	-4.0966012265	 0.6842182526	-0.223671
C	-1.4136521297	-2.847598762	 1.0745268543	 0.015855
H	 1.0279994497	 1.956221523	 0.0031787571	 0.12819
H	-0.5103428414	 1.9686700579	-0.8666712464	 0.122192
H	-0.4938494593	 1.959302163	 0.9016507256	 0.122197
H	 0.535691284	-0.3396532284	-0.8822603037	 0.11645
H	 0.5514205046	-0.3490788892	 0.8735553793	 0.116484
H	-1.9572730883	-0.1981517187	 0.8985001253	 0.12932
H	-1.9731265417	-0.1886943522	-0.8604871891	 0.129333
H	-1.4463988365	-2.4812008736	-2.0931675613	 0.137623
H	-1.4186592441	-2.5029113186	 2.097475761	 0.13763
