17
gdb 14473	2.88256	2.37237	1.95971	1.9665	67.76	-0.2232	0.0685	0.2917	787.8071	0.141665	-363.799434	-363.791943	-363.790999	-363.830888	28.638	
C	-0.1171392862	 1.5260440394	-0.0256779995	-0.531665
C	 0.0697377284	 0.0498205168	 0.0308968789	 0.311791
C	 0.6768975845	-0.9741672505	-0.8521307221	-0.077696
C	 1.3988955357	-1.6665814687	 0.2994967037	-0.315472
C	 0.3280013709	-0.9893046379	 1.2011165621	 0.316194
O	 0.5828828967	-0.6246302547	 2.5129783012	-0.478306
C	-0.976319416	-1.6599349252	 0.7327620149	-0.206943
N	-0.816825877	-0.9746439647	-0.5922695935	-0.187705
H	 0.7956116119	 2.0509543721	 0.2753079008	 0.127627
H	-0.3715872646	 1.831807863	-1.045169442	 0.133817
H	-0.9253762616	 1.8502349521	 0.6388238938	 0.130341
H	 0.973931034	-0.9007250612	-1.8905380519	 0.097122
H	 1.4634396062	-2.7609492911	 0.3119119175	 0.089594
H	 2.3860453086	-1.2254281659	 0.4612881314	 0.108617
H	 0.9318664431	-1.3875391615	 2.9869449535	 0.284695
H	-1.0281395721	-2.7553371449	 0.6969466688	 0.087839
H	-1.8626127825	-1.2559684171	 1.2285220126	 0.11015
