21
gdb 86576	2.95602	1.17483	0.92341	3.8185	80.22	-0.2282	0.0608	0.289	1320.7183	0.182279	-420.443547	-420.433523	-420.432579	-420.478945	36.635	
C	-0.6551270013	 1.384689623	-0.0358996132	-0.407443
C	 0.0637778136	 0.0445963966	-0.0339116721	-0.003865
C	 1.4019775111	-0.0518920022	-0.8250557177	-0.20406
N	 2.018438373	-0.6266973561	 0.3675683278	-0.091977
C	 0.860126874	-0.4109708315	 1.2456969401	 0.037685
C	 1.0712477825	 0.5963483628	 2.3695657477	-0.404313
C	 3.3131086477	-0.8849442004	 0.7136130932	 0.417
N	 4.2167120396	-0.7812945202	-0.3411598653	-0.561495
O	 3.6577101201	-1.154289699	 1.8531788538	-0.409144
H	 0.0087917679	 2.2060395188	 0.2493882689	 0.123772
H	-1.0463765603	 1.6068958568	-1.0347127041	 0.118021
H	-1.5029820513	 1.382576556	 0.6569097678	 0.122504
H	-0.6269391238	-0.7421802869	-0.3481698639	 0.083185
H	 1.3931053153	-0.7100920077	-1.7036970299	 0.100498
H	 1.8247064271	 0.918612334	-1.119848413	 0.10971
H	 0.4872060482	-1.3497434178	 1.6723574073	 0.086354
H	 1.4379752651	 1.5554436312	 1.9916229908	 0.111257
H	 0.1320735337	 0.7713892937	 2.9050153505	 0.109379
H	 1.8109979514	 0.2047568227	 3.0702762559	 0.158065
H	 3.8800115802	-0.9823050516	-1.2709438169	 0.247379
H	 5.1048646762	-1.2079938423	-0.1243001478	 0.257487
