17
gdb 29795	2.61897	1.58789	1.00105	4.303	72.08	-0.1754	0.0532	0.2286	1149.5343	0.135352	-455.198044	-455.188531	-455.187587	-455.232346	33.57	
C	 0.0279356516	 1.4469584859	 0.0279104673	-0.343896
N	 0.0624507715	 0.0061620874	-0.0267190906	-0.107718
C	 0.1366296006	-0.7882278214	-1.189278913	-0.288872
C	 0.1451894957	-2.0721698083	-0.7725516614	 0.361293
O	 0.2028771245	-3.2623726426	-1.4124219327	-0.43037
N	 0.0789986806	-2.0973076323	 0.608257941	-0.160292
C	 0.0633236241	-3.263917908	 1.4620659262	-0.342757
C	 0.0257944612	-0.7878035141	 1.0999615982	 0.47484
O	-0.0385104553	-0.4463261065	 2.2704053948	-0.460661
H	 0.9311368913	 1.885264473	-0.4124454833	 0.126379
H	-0.8481313207	 1.8459648943	-0.4966089167	 0.126382
H	-0.0281157762	 1.7264987333	 1.0812737713	 0.169542
H	 0.174767491	-0.3625732004	-2.1759370219	 0.12609
H	 0.2438347328	-3.103875565	-2.3609169405	 0.310119
H	-0.8025086028	-3.8988002861	 1.2506034793	 0.135787
H	 0.9734406705	-3.8587303017	 1.3381041068	 0.135785
H	 0.0045394196	-2.8953410573	 2.4874505953	 0.16835
