18
gdb 13263	6.29305	0.87968	0.80822	1.4707	77.24	-0.2346	0.0572	0.2918	1442.5426	0.152384	-347.762785	-347.753675	-347.752731	-347.798963	30.781	
C	 0.0103728129	 1.4720697832	 0.0758506192	-0.496895
C	 0.032326281	 0.016420288	 0.0761628626	 0.093013
C	 0.0518910688	-1.1871339723	 0.0846430126	 0.04678
C	 0.0464252041	-2.6450647148	 0.0814867735	-0.36544
C	-1.3283592446	-3.2424214324	-0.2244764867	 0.174278
C	-1.4804340561	-4.7740022296	-0.0923485444	-0.301194
C	-2.5862032219	-4.427025044	 0.9237521453	-0.057107
O	-2.2854219468	-3.0190668651	 0.8353212166	-0.284582
H	 0.4178838829	 1.8795767049	-0.8561453039	 0.143614
H	-1.0111607687	 1.8529849869	 0.1849111676	 0.149114
H	 0.6039053195	 1.8793855937	 0.9019857539	 0.145991
H	 0.7537058187	-3.0246252864	-0.6699781838	 0.122225
H	 0.3820026814	-3.0305050586	 1.0529936889	 0.124288
H	-1.6999427659	-2.8360805509	-1.1747663736	 0.08121
H	-1.7920887169	-5.3093355508	-0.9900729959	 0.110306
H	-0.6078044258	-5.2705373445	 0.3385631566	 0.10909
H	-3.6076051813	-4.6478855187	 0.5876761882	 0.100779
H	-2.4591318913	-4.8112770588	 1.9424194533	 0.104532
