20
gdb 36827	4.0752	0.72406	0.67212	1.8519	89.85	-0.23	0.0408	0.2709	1731.833	0.170645	-365.935309	-365.925988	-365.925044	-365.971245	33.851	
C	 0.5067480887	 1.6307625556	 1.2777955458	-0.283516
C	 0.3723008702	 0.2228315717	 0.8919026023	 0.065999
C	 0.2701666993	-0.9291412194	 0.5448052737	 0.051949
C	 0.1509823965	-2.303993595	 0.1552622031	-0.157033
C	-1.1201016704	-3.0799909569	 0.4690339066	-0.250217
C	-0.814243515	-2.7075089139	-0.949884443	-0.25174
N	 0.8904516584	 2.5896099295	 0.2307329289	-0.073864
C	 1.8231422134	 2.1546155949	-0.8020953117	-0.216819
C	 0.3857142402	 2.3819990156	-1.1213955885	-0.217204
H	-0.4421067207	 1.9830345582	 1.7014193498	 0.132908
H	 1.2523357653	 1.7170114472	 2.0781292005	 0.133982
H	 1.0726389817	-2.8769255539	 0.2035516056	 0.109953
H	-1.0052396792	-4.114634969	 0.7717173096	 0.119752
H	-1.910161674	-2.5424174561	 0.9792240819	 0.127672
H	-1.3967910511	-1.9163675674	-1.406389684	 0.12615
H	-0.4874155067	-3.4834113368	-1.6328344423	 0.119475
H	 2.5779956459	 2.8836558235	-1.0829539042	 0.112421
H	 2.1568778525	 1.1194240326	-0.7874464923	 0.119945
H	-0.2126046102	 1.4942441539	-1.3142902301	 0.11781
H	 0.065652015	 3.2809351057	-1.6407322815	 0.112378
