18
gdb 74916	3.5612	1.60025	1.35305	1.6556	75.32	-0.2388	0.0253	0.2641	989.4535	0.14979	-401.938937	-401.931831	-401.930886	-401.97027	28.547	
C	-0.1077216297	 1.510567146	 0.0756254744	-0.460339
C	 0.0190344109	 0.0285877499	-0.097618022	 0.398617
N	-0.108662835	-0.5496366807	-1.2209198402	-0.305169
C	 0.0955690851	-1.990270725	-1.2152280983	-0.004296
C	 1.5300184691	-2.4655951153	-0.777962693	-0.244463
C	 0.933535467	-3.0111502221	 0.5188715379	-0.093535
C	 0.0620536473	-1.9784000311	 1.1729468766	 0.107035
O	 0.3007413092	-0.5821881847	 1.0949079172	-0.269163
C	-0.4945858128	-2.7128428922	 0.0128033048	-0.133221
H	 0.7969691524	 1.9159777385	 0.5401321361	 0.138244
H	-0.2648842599	 1.9791142059	-0.895129123	 0.14468
H	-0.9451480291	 1.7463738509	 0.7405277607	 0.136321
H	-0.2172851759	-2.4008828209	-2.1746202574	 0.082404
H	 1.9063371205	-3.2599693073	-1.4267788862	 0.106855
H	 2.2897351997	-1.6842183231	-0.6892256996	 0.10663
H	 1.2933770404	-3.8670388993	 1.0780046891	 0.087684
H	-0.3130112897	-2.2242236372	 2.159594192	 0.108915
H	-1.4063477094	-3.2950925122	 0.041540791	 0.092803
