18
gdb 105020	2.53012	1.35985	1.01735	6.1957	71.95	-0.2774	0.0237	0.3011	1176.1891	0.146421	-439.07153	-439.062172	-439.061227	-439.105864	34.541	
O	 0.1388070382	 1.2907887341	-0.278393982	-0.422623
C	-0.0349364772	-0.0271226095	 0.259627734	-0.168915
C	-1.4504137511	-0.4789965971	-0.0123203062	 0.304736
C	-1.7586886052	-1.0594024725	-1.3698507256	-0.285578
C	-1.6722485174	-1.9653443772	-0.1697612026	-0.325114
C	-2.4965880516	 0.4063252661	 0.6768266578	-0.065676
O	-2.5693152142	 1.701023862	 0.1157187511	-0.430952
C	-3.8482491671	-0.1794943679	 0.6149637721	 0.289769
N	-4.895211201	-0.6661077075	 0.5828630681	-0.333851
H	 0.9404186243	 1.6752645457	 0.0889655363	 0.299476
H	 0.6727705758	-0.7256418676	-0.2074187878	 0.102554
H	 0.1584065626	-0.0244860081	 1.3429929573	 0.102836
H	-2.741209431	-0.8656849465	-1.7847590945	 0.145071
H	-0.9581520698	-1.0830071755	-2.1006973799	 0.121499
H	-0.8078075656	-2.6131544822	-0.0688361067	 0.113348
H	-2.5938241903	-2.3858665176	 0.2149413182	 0.147201
H	-2.2354961232	 0.4613043566	 1.7495261527	 0.105254
H	-1.6566511461	 1.9410878247	-0.1088164221	 0.300965
