18
gdb 44737	2.95319	1.65159	1.4486	3.5925	75.36	-0.2353	0.0006	0.236	958.4474	0.151736	-402.000122	-401.993313	-401.992369	-402.031199	28.247	
O	 0.0082395562	-0.0858434827	-0.1087828971	-0.373145
C	-0.0080907907	 1.1258818709	-0.0128109248	 0.390416
C	-1.3313227339	 1.9095771675	 0.036777908	-0.310457
C	-1.1774779296	 3.4432524782	-0.1234861318	-0.073875
C	-0.0066074729	 3.8897189744	 0.7777716125	-0.213819
C	 1.1599127977	 3.3309451377	-0.0542361283	-0.04334
N	 1.1444543563	 1.8659024904	 0.1019767792	-0.29567
C	 0.7201468437	 3.7158396451	-1.468130786	-0.073144
C	-0.6122887757	 3.7629538305	-1.5006468822	-0.06644
H	-1.974980425	 1.4789034406	-0.735693079	 0.128283
H	-1.8027842652	 1.6745566947	 0.9986974108	 0.128718
H	-2.1245060067	 3.9447127864	 0.0920738974	 0.071868
H	 0.0503111134	 4.979592749	 0.8330039845	 0.104726
H	-0.0370143121	 3.4738207281	 1.7882496946	 0.10266
H	 2.1448095007	 3.6951201773	 0.2426033777	 0.078231
H	 1.9916407181	 1.3408050525	-0.0616265802	 0.242195
H	 1.3988447955	 3.8124569318	-2.3067868938	 0.100644
H	-1.2295211999	 3.9121973777	-2.3789580715	 0.102151
