18
gdb 81359	2.60824	1.46222	1.36073	3.5651	66.61	-0.24	0.0438	0.2838	1022.1235	0.149416	-476.179388	-476.171545	-476.170601	-476.211422	31.429	
O	 0.1249285062	 1.3902321853	-0.1349041501	-0.45983
C	 0.1122056602	-0.0050430868	-0.0566968115	 0.203935
C	 0.1618674154	-0.601292296	 1.3805505383	-0.083759
N	-1.2984275374	-0.245646122	 1.4486674884	-0.361506
C	-1.3063795208	-0.6556148058	 0.0041931745	-0.060199
C	-0.997706444	-2.1568142566	 0.0432139092	 0.038692
O	-0.5043360244	-2.6109894723	-1.2133914617	-0.428342
C	 0.1489302127	-2.1255494892	 1.1408835499	 0.109671
O	 1.3537303723	-2.6806571147	 0.6818496897	-0.443315
H	-0.49912815	 1.6981528162	 0.536176168	 0.289157
H	 0.8175805739	-0.3848937393	-0.7940798257	 0.093785
H	 0.8253306053	-0.2037969054	 2.1488838308	 0.078101
H	-1.8496569864	-0.847733553	 2.0622454091	 0.212756
H	-2.1283765352	-0.3134265818	-0.6250855075	 0.077339
H	-1.8671319618	-2.7490053668	 0.3487254976	 0.075498
H	-0.6826780566	-3.5530088435	-1.2913524359	 0.298968
H	-0.1446384231	-2.6553982804	 2.0553650945	 0.073752
H	 1.2634979936	-2.7432124382	-0.2806378477	 0.285297
