17
gdb 14952	4.10957	1.53937	1.246	1.4534	65.64	-0.2164	-0.0317	0.1847	967.087	0.143541	-400.996064	-400.988712	-400.987767	-401.027829	27.498	
O	 0.0279533224	-0.0581831681	 0.1173954228	-0.249529
C	 0.0543258529	 1.128339361	-0.0947941422	 0.148765
C	 1.3219002893	 1.9490827844	-0.11014875	-0.066396
C	 1.3595992838	 2.8086111207	 1.185468034	-0.088003
O	 2.580393917	 3.5104971906	 1.2820200013	-0.242565
C	 3.6919913429	 2.6231838208	 1.3137373807	-0.075569
C	 3.7437001239	 1.7915497918	 0.0314755812	-0.161967
N	 2.4891588696	 1.0975067206	-0.2517922101	-0.296513
H	-0.8824036662	 1.7094134576	-0.2441433854	 0.086448
H	 1.2736474442	 2.6484476667	-0.9588181923	 0.099816
H	 0.5630334749	 3.5592398947	 1.1927681543	 0.111879
H	 1.2286010527	 2.1460251063	 2.058671806	 0.093661
H	 4.5824896224	 3.2495728152	 1.423413822	 0.108845
H	 3.61840403	 1.9622828728	 2.1946843162	 0.084719
H	 3.9634534818	 2.4630992986	-0.8094161058	 0.110502
H	 4.5520664065	 1.0550077003	 0.0820159312	 0.106306
H	 2.3670495318	 0.2666561862	 0.318058976	 0.2296
