21
gdb 110130	1.85126	1.20424	0.85043	3.0721	80.48	-0.2483	-0.0275	0.2208	1435.5432	0.180502	-424.219007	-424.208643	-424.207699	-424.255126	36.931	
C	-0.3546793212	-1.5098371297	-2.8693515046	-0.377742
C	-1.2466053009	-2.5977382398	-2.2607204607	-0.210738
C	-2.1205090453	-2.0708473631	-1.1350362702	-0.030792
C	-2.6712409947	-2.9053686657	-0.0247278522	-0.084514
C	-2.4076412099	-4.3873785248	 0.144814964	-0.082752
O	-2.5410047919	-4.8037719293	 1.4935596289	-0.417013
C	-1.6020039339	-1.8407340295	 0.2913823496	-0.133387
C	-0.2313850515	-2.2181513387	 0.6933142917	 0.146099
O	 0.4090050246	-1.625092165	 1.5307270696	-0.275379
H	 0.2286920308	-1.9030519296	-3.7071011599	 0.118161
H	-0.9534050715	-0.6718465899	-3.2423799951	 0.11939
H	 0.3457021036	-1.1105650363	-2.1285025352	 0.129053
H	-1.9051009232	-3.0083418331	-3.0368238087	 0.107588
H	-0.6261951225	-3.433804207	-1.9252412876	 0.104687
H	-2.7784829766	-1.2692498105	-1.4645942246	 0.100878
H	-3.6587960039	-2.6261041195	 0.3333403297	 0.109294
H	-3.1649051077	-4.9510693605	-0.4110126988	 0.118752
H	-1.431851564	-4.6767079446	-0.267992437	 0.091281
H	-1.9168169746	-4.2959309433	 2.0231638295	 0.288392
H	-1.9485782222	-0.9492803548	 0.8035979357	 0.10794
H	 0.2039274263	-3.1037023149	 0.1803213861	 0.070801
