20
gdb 17346	4.00692	1.26383	1.07212	1.3887	75.97	-0.2394	0.0809	0.3203	1159.1488	0.176177	-348.97183	-348.963081	-348.962137	-349.005464	32.837	
C	-0.2689230968	 1.5180750237	 0.0426967628	-0.400476
C	-0.0153306431	 0.0263366027	 0.0381476409	 0.00068
C	 1.3391785582	-0.5326604264	-0.3283466671	-0.308205
C	 0.8306534758	-0.6610805183	 1.0896272361	 0.006795
C	 1.4875465051	 0.0879440409	 2.2066677818	-0.02481
C	 0.8323947321	 0.16078358	 3.5774037084	-0.33818
C	 2.0828593333	-0.656305396	 3.3708050962	 0.090927
O	 1.9945684256	-2.0525394188	 3.3437684066	-0.415462
H	 0.6132300715	 2.0803937686	 0.3628486538	 0.111529
H	-0.5349526649	 1.8717612102	-0.9597859796	 0.112775
H	-1.0907433497	 1.7828137707	 0.7176317118	 0.114799
H	-0.8659890946	-0.5570835621	-0.3068290561	 0.077537
H	 1.398688218	-1.4221983991	-0.9460874086	 0.106843
H	 2.1375118706	 0.1823372679	-0.5069883342	 0.102929
H	 0.5016872984	-1.6526765835	 1.3816300052	 0.091349
H	 2.0403828845	 0.9728885592	 1.905520324	 0.082629
H	 0.8888009279	 1.0828309108	 4.1462130266	 0.10679
H	-0.0910732771	-0.3962634621	 3.7013586112	 0.111699
H	 3.0144354523	-0.2721204463	 3.7869856412	 0.082364
H	 1.7929317133	-2.3521952523	 4.2359816088	 0.287488
