16
gdb 18489	5.65901	1.24709	1.15438	5.2852	68.66	-0.2448	0.0415	0.2863	1024.7384	0.132	-342.753744	-342.746589	-342.745645	-342.785583	26.738	
N	-0.0986788374	-1.0801143614	-0.2997852656	-0.313158
C	-0.0661875837	 0.0531229169	-0.0741573317	 0.255893
C	 0.0061530462	 1.4847281395	 0.206877705	-0.350523
C	 1.4287399575	 2.0404325282	 0.0580633222	 0.01665
C	 2.0687767554	 2.0745462203	-1.3800209464	-0.236456
C	 2.1757800888	 3.596221981	-1.2481312905	-0.0358
N	 0.7911370826	 4.0890276554	-1.0494091334	-0.332314
C	 1.5615153359	 3.5705865092	 0.1070004706	-0.079644
H	-0.6563726467	 2.0220412014	-0.4792859549	 0.171312
H	-0.3657938973	 1.6595967611	 1.223591551	 0.143796
H	 2.1020903109	 1.5563766838	 0.7688417859	 0.096106
H	 3.0340782793	 1.5668453094	-1.4121261524	 0.114935
H	 1.4411556601	 1.7202295559	-2.2012774917	 0.119213
H	 2.941486371	 4.2481325139	-1.64916601	 0.100154
H	 0.8325151864	 5.106535327	-1.0045572386	 0.233369
H	 1.743314371	 4.1902073384	 0.9767229007	 0.096467
