19
gdb 66334	2.47189	1.34126	1.26291	1.1823	83.12	-0.245	0.0094	0.2544	1129.2619	0.158701	-385.869087	-385.860299	-385.859355	-385.902096	34.408	
O	-0.0830879155	 1.4055862271	 0.0033189184	-0.463075
C	 0.0185527952	-0.0254967252	 0.0254646534	 0.183604
C	-1.4314100932	-0.5441867928	 0.051473813	-0.226564
C	-1.5009818044	-2.0295987533	-0.3085087573	-0.220398
C	-0.9702956694	-2.276678709	-1.7281553608	-0.246257
C	 0.2874738187	-1.4967557093	-2.0021056131	-0.051012
C	 0.7370932302	-0.5170204576	-1.2215361287	-0.088744
C	 0.7663858387	-0.4492941407	 1.2207971289	 0.326887
C	 1.4057408132	-0.7698047898	 2.1881797073	-0.512371
H	 0.7918476595	 1.764099389	 0.1891732342	 0.280058
H	-1.8644928974	-0.3465765377	 1.0353085861	 0.108151
H	-1.9857825226	 0.0539917648	-0.6804754858	 0.110534
H	-0.9013276053	-2.6006811745	 0.4104734237	 0.113263
H	-2.530713546	-2.3900793346	-0.219366432	 0.096244
H	-0.784533861	-3.345977449	-1.8884617844	 0.105351
H	-1.7321581465	-1.9981882396	-2.4720337555	 0.11155
H	 0.8455721752	-1.7592125584	-2.898336436	 0.090354
H	 1.6631311502	 0.0026083077	-1.455757479	 0.08334
H	 1.9637220203	-1.0587624874	 3.0445517876	 0.199084
