23
gdb 104685	2.29596	1.36323	1.0431	1.6272	85.14	-0.2283	0.0777	0.306	1279.8512	0.205002	-388.250936	-388.24133	-388.240386	-388.285427	36.463	
C	-0.7666360111	 1.287976353	-0.2865047463	-0.38448
C	-0.2122042127	-0.1232439371	-0.0480741212	-0.263938
C	 0.5067198254	-0.7126178949	-1.2524873028	 0.324619
C	 1.6792684144	 0.0858092464	-1.8179785689	-0.256306
C	 2.8511424724	 0.2534186972	-0.8418268282	-0.381304
C	 0.7151742249	-2.2181802071	-1.4183038609	-0.18402
C	-0.5155064918	-2.9997168033	-0.9753924693	-0.113657
O	-1.3904143835	-2.1592296956	-1.7759800891	-0.291404
C	-0.2546302872	-1.467847265	-2.307816997	 0.045912
H	 0.0269824632	 2.0215388923	-0.4600776045	 0.114211
H	-1.4337852406	 1.3041129841	-1.1547095956	 0.12259
H	-1.3409162455	 1.6271192245	 0.5811589284	 0.110903
H	 0.4641870111	-0.1137227517	 0.8156973637	 0.093
H	-1.0468272023	-0.7769902529	 0.2169383104	 0.115535
H	 2.0392243867	-0.4126829512	-2.7272267302	 0.09305
H	 1.3270937231	 1.0734514288	-2.1383343638	 0.102135
H	 2.5560968701	 0.8178105286	 0.0482181491	 0.121385
H	 3.2308433536	-0.7175941767	-0.5071524711	 0.116434
H	 3.6775867932	 0.792558124	-1.3151237332	 0.112092
H	 1.6827246943	-2.6486802535	-1.6424223757	 0.092634
H	-0.5304084361	-4.0288858161	-1.3521992063	 0.10848
H	-0.7840920873	-2.9944051971	 0.0875817892	 0.104667
H	-0.2586901944	-1.2394383566	-3.3687995767	 0.097461
