25
gdb 59638	3.34936	0.94174	0.89113	1.5294	88.93	-0.2371	0.0818	0.319	1499.3056	0.228552	-389.51474	-389.50438	-389.503436	-389.550279	38.711	
C	-0.0409110753	 1.5411574808	-0.0972003063	-0.390817
C	 0.0521086152	 0.0194952999	 0.0909049279	 0.019915
C	 0.8474455345	-0.3202318346	 1.3587687087	-0.392597
C	-1.3556904895	-0.5998114288	 0.0825460935	 0.157132
C	-1.4500768506	-2.1309072339	 0.0980064456	-0.26499
C	-2.8092612892	-2.3731757543	 0.774146909	 0.017692
C	-3.0104596999	-3.7649546079	 1.3673982509	-0.413132
C	-2.821338107	-1.235294401	 1.80580559	-0.067604
O	-2.0905049204	-0.1549757972	 1.235666262	-0.282361
H	 0.9543323038	 1.9955839216	-0.1344152732	 0.103894
H	-0.5622219027	 1.7965519912	-1.0261409896	 0.104808
H	-0.5929018658	 1.9947346224	 0.7317365351	 0.132497
H	 0.5776189923	-0.4016978123	-0.7785994741	 0.066266
H	 0.309988272	 0.0253908108	 2.2465199938	 0.129683
H	 1.0257366303	-1.3944698143	 1.4660200785	 0.106523
H	 1.8251645079	 0.1714643899	 1.3398612716	 0.107314
H	-1.877190649	-0.2250419912	-0.8143834967	 0.058763
H	-1.3828352674	-2.5599872869	-0.90539802	 0.098566
H	-0.6497319196	-2.5687523683	 0.7054431863	 0.099531
H	-3.6009265481	-2.1781793976	 0.0387720236	 0.077219
H	-2.2283189763	-3.9955523156	 2.0997716701	 0.116107
H	-3.9777702111	-3.8467618671	 1.8748573859	 0.116046
H	-2.9792543793	-4.5357540058	 0.5906946714	 0.116921
H	-3.8328867999	-0.8906858088	 2.0508311572	 0.098395
H	-2.3408266049	-1.5607062908	 2.7429019389	 0.084229
