15
gdb 132144	3.2017	1.33168	0.94602	3.4276	74.3	-0.2225	-0.0283	0.1942	1163.1982	0.11257	-461.939827	-461.93207	-461.931126	-461.972149	29.226	
C	 0.0480252559	 1.4871374565	-0.0574932041	-0.471676
C	-0.053664851	 0.0008474557	 0.040050276	 0.375205
C	-1.1487320982	-0.7451209389	-0.1904711945	-0.240314
C	-1.1536796736	-2.1965465453	-0.0700526751	 0.205981
N	-2.2042445624	-2.9030413841	-0.2919908327	-0.549216
C	 0.157443831	-2.7046691691	 0.323750687	 0.127086
F	 0.2877727824	-4.0262083195	 0.4692911009	-0.074156
C	 1.2093724684	-1.9045095826	 0.5382875071	-0.063162
O	 1.1409516504	-0.5548195452	 0.4067054915	-0.235651
H	 0.805018532	 1.774180832	-0.7952167183	 0.147326
H	-0.9103389744	 1.9179515485	-0.3497307017	 0.143556
H	 0.3511662117	 1.9166173989	 0.9035013006	 0.147307
H	-2.0746845191	-0.2633704862	-0.4783591483	 0.121184
H	-1.9899295105	-3.8923787526	-0.1516011105	 0.217527
H	 2.1911160073	-2.2514083881	 0.8301789122	 0.149003
