19
gdb 104799	2.65738	1.35537	1.12704	4.4749	70.65	-0.2455	0.0514	0.2969	1130.3312	0.158438	-460.106696	-460.09795	-460.097006	-460.13988	33.456	
O	 0.256837086	 1.2783952035	-0.3253431004	-0.431955
C	 0.085666423	-0.059531042	 0.1034183636	-0.112998
C	-1.3746967476	-0.5151022347	 0.0532701243	 0.27006
C	-2.216977994	 0.1119510077	 1.1555236914	-0.152152
O	-2.228165237	 1.5289413005	 0.9693316013	-0.423608
C	-2.0699198126	-0.4239449136	-1.3601832544	-0.299086
C	-2.2607420213	-1.9438333557	-1.3166429715	 0.035037
O	-0.9597571536	-2.5349750637	-1.18548624	-0.245506
C	-1.5997990733	-2.048033742	-0.0060988279	-0.042679
H	-0.4039842411	 1.8022784395	 0.1457402499	 0.288559
H	 0.6727973298	-0.6857813916	-0.5736515003	 0.119819
H	 0.4797735698	-0.2121760076	 1.1245939942	 0.069496
H	-3.2423663764	-0.2888653633	 1.1255614478	 0.092607
H	-1.785670321	-0.1459704087	 2.1356102305	 0.095429
H	-2.6682834965	 1.9365428196	 1.7209968791	 0.296011
H	-3.0030424504	 0.142456602	-1.3282185586	 0.111993
H	-1.4442892197	-0.0515271599	-2.1727155712	 0.126628
H	-3.0329659089	-2.5575794842	-1.7655556408	 0.104529
H	-1.7328456752	-2.747264936	 0.8130532331	 0.097815
