15
gdb 8376	5.21528	1.3616	1.25152	3.6821	63.86	-0.2497	0.0283	0.278	969.4953	0.117889	-399.771133	-399.763766	-399.762822	-399.802739	27.89	
O	 0.044574321	 1.4491272588	 0.2598996529	-0.417518
C	 0.0554552808	 0.0648111501	 0.0916450834	 0.017066
C	-0.5450794812	-0.8468888409	 1.1616871274	-0.399021
C	-1.2655427379	-0.5731034088	-0.1168990332	 0.434072
C	-2.6169938937	 0.0652966925	-0.3982729023	-0.428757
C	-2.725658837	-1.0447622725	-1.4269736987	 0.425445
N	-3.5830804583	-1.4012014598	-2.2664610857	-0.539078
O	-1.4838515207	-1.5875325467	-1.1227586042	-0.273779
H	 0.7209468237	 1.6799588823	 0.9056547076	 0.293819
H	 0.8917357012	-0.3434355572	-0.4762413248	 0.105598
H	-0.0922256338	-1.8233482428	 1.2969566422	 0.132167
H	-0.9394976845	-0.3837757172	 2.0607866394	 0.126583
H	-3.3527784658	 0.0145024823	 0.4059974087	 0.13951
H	-2.5819054934	 1.0758311064	-0.8074437185	 0.154646
H	-3.2743675602	-2.2236087865	-2.7875070243	 0.229247
