14
gdb 2428	4.40278	3.47061	2.54325	1.7406	57.49	-0.244	0.0724	0.3163	569.9675	0.114109	-324.474954	-324.4694	-324.468456	-324.503856	22.175	
O	-0.060636354	 1.3831222767	 0.0536500896	-0.465195
C	 0.0524811797	 0.0053941738	 0.0478090279	 0.348298
C	 0.7488626536	-0.9531611573	 1.0102837915	-0.244725
N	 0.0702072481	-1.9208875062	 0.0452858155	-0.152997
C	-1.1491979554	-0.9661937614	-0.0667371109	-0.026974
C	-1.1085308775	-1.0252142722	-1.5974999238	-0.260967
C	 0.3541156028	-0.9737000565	-1.1439248164	-0.065693
H	 0.8201348975	 1.7665742391	-0.0245231001	 0.283879
H	 1.8423358546	-1.0155409791	 0.9900018305	 0.095953
H	 0.3721466611	-1.0224936314	 2.0358136957	 0.104769
H	-1.9874657955	-1.0666143327	 0.6243051908	 0.085667
H	-1.4397648093	-1.9616088609	-2.0528746736	 0.108265
H	-1.4891228455	-0.1520555181	-2.1306007779	 0.110345
H	 1.2772678998	-1.0770826138	-1.7174516287	 0.079374
