18
gdb 85809	2.75801	1.22728	1.13996	5.1012	72.38	-0.2684	0.0302	0.2986	1144.5922	0.14653	-439.087958	-439.078687	-439.077743	-439.121722	34.619	
C	 0.4186664617	 1.3531924255	-0.0218742919	-0.45612
C	-0.028442554	-0.1141746466	-0.0352912072	 0.105577
C	 0.8054950974	-1.0224383578	-1.0061000069	-0.273626
C	 1.6245228312	-1.5639537541	 0.1830731983	 0.04285
O	 2.8626998662	-0.8695086294	 0.2925478906	-0.431924
C	 0.5675078715	-0.9704339406	 1.1673315811	 0.102012
O	 1.0653771601	-0.3021833675	 2.2790359451	-0.416721
C	-1.4733061395	-0.218785821	-0.1835537878	 0.227169
N	-2.6200025934	-0.3265669655	-0.2936768262	-0.348469
H	 1.5090107838	 1.4139016615	 0.0163644548	 0.132449
H	 0.0800165314	 1.8629648537	-0.9280032979	 0.135046
H	 0.0077364788	 1.8734610247	 0.8464850591	 0.145774
H	 0.206154369	-1.7939692839	-1.4913284747	 0.129622
H	 1.388269129	-0.4871129681	-1.7577384797	 0.128054
H	 1.7797734522	-2.646301064	 0.2220829318	 0.083893
H	 3.4373603592	-1.370950516	 0.8794169261	 0.299529
H	-0.1572843072	-1.7126097487	 1.5094773111	 0.109681
H	 1.9087104727	 0.0817597879	 2.000223854	 0.285206
