16
gdb 6593	6.09886	1.35453	1.3538	1.9095	73.17	-0.2368	0.019	0.2558	960.7854	0.128257	-346.510242	-346.502673	-346.501729	-346.541593	29.445	
C	-0.1493520746	 1.4080886907	 0.0123333592	-0.511809
C	 0.0765974264	-0.0693321829	-0.0023343035	 0.388687
C	 0.673604072	-0.9727771653	-1.114237576	-0.286323
C	 0.054849955	-1.8776012117	-0.0131160998	 0.340266
C	 0.7247155553	-0.9863701104	 1.069072137	-0.286289
O	-1.1197750206	-0.9606754215	 0.0200995622	-0.366957
C	-0.1553029878	-3.293520883	-0.0169516349	 0.072482
C	-0.3041598902	-4.4863595054	-0.020772927	-0.35548
H	 0.8079784779	 1.9385030435	-0.0011535367	 0.127917
H	-0.7288641021	 1.7162139946	-0.8630813808	 0.136004
H	-0.6964477015	 1.7029145299	 0.912841438	 0.136153
H	 0.1279000946	-0.9701485193	-2.0583541628	 0.112343
H	 1.7590029139	-0.9956628727	-1.2401525877	 0.097344
H	 1.8148178781	-1.01043982	 1.1437128513	 0.097332
H	 0.2238334555	-0.9957837131	 2.0376700418	 0.112346
H	-0.4421938518	-5.5394286134	-0.0239712703	 0.185986
