12
gdb 7721	3.97849	2.01609	1.38041	3.1276	53.33	-0.2721	-0.0049	0.2672	811.5194	0.086401	-451.855858	-451.849586	-451.848642	-451.886598	23.03	
N	-0.0669547717	 1.2863850795	 0.2358827223	-0.554167
C	 0.031496533	 0.062689685	-0.0484422725	 0.465187
N	-1.0993852559	-0.7108671785	-0.3105117715	-0.410015
C	-1.1553027472	-2.0959790099	-0.2515660284	 0.488438
O	-2.1649666303	-2.727824559	-0.1459239871	-0.359139
O	 0.0709835426	-2.6839207042	-0.325269309	-0.217324
C	 1.0996764789	-1.8572855155	-0.8294104395	-0.003508
O	 1.1942223918	-0.6435817835	-0.1097224382	-0.226164
H	 0.8532022752	 1.7045168996	 0.3534702568	 0.238972
H	-1.9835589967	-0.2321170523	-0.2170472321	 0.290144
H	 2.0382986798	-2.3882378691	-0.6821863334	 0.154955
H	 0.9224696203	-1.6491304821	-1.8923707774	 0.132621
