18
gdb 47205	2.64694	1.72376	1.14431	3.2996	80.27	-0.2329	0.0147	0.2476	1070.8554	0.149977	-401.989072	-401.981298	-401.980354	-402.021503	30.305	
O	 0.0376756918	-0.0140214317	 0.2932156888	-0.395341
C	 0.0273585984	 1.1970038717	 0.1338890921	 0.361442
N	-1.14392035	 1.8896597208	 0.0297627253	-0.358704
C	-1.3395791212	 3.3167555179	-0.1591961716	-0.207387
C	-0.0422504492	 4.0613131418	-0.2383112245	-0.098482
C	 1.1411002302	 3.4617324778	-0.1449125824	-0.117101
C	 1.2899110659	 2.0064251109	 0.0452607825	 0.206763
C	 2.4551297252	 1.4754907717	 0.8791719147	-0.29123
C	 2.4735472593	 1.2845794988	-0.5975556348	-0.291204
H	-1.9630397334	 1.303091023	 0.0960053962	 0.24594
H	-1.9242461619	 3.4946421073	-1.0761310314	 0.119562
H	-1.9484095789	 3.7217495378	 0.6651088567	 0.11961
H	-0.1169465214	 5.1347505149	-0.3781122205	 0.097924
H	 2.0564940895	 4.0455301448	-0.2079681375	 0.092374
H	 3.1137387294	 2.2141995435	 1.3224524753	 0.113838
H	 2.2318588188	 0.6105757134	 1.49188793	 0.144121
H	 2.2625782448	 0.2916314845	-0.9755739866	 0.144039
H	 3.1450698128	 1.8884394811	-1.1978526825	 0.113836
