20
gdb 93224	2.72915	1.27288	0.91311	3.4905	75.69	-0.2389	0.0263	0.2652	1274.994	0.172199	-440.335638	-440.326598	-440.325653	-440.369359	34.267	
C	-0.0785303422	 1.540775398	-0.0123685275	-0.394119
C	 0.0635866323	 0.0158903296	-0.0041291359	-0.10789
C	 0.7157592966	-0.5267091475	-1.2841305671	-0.205117
C	 0.984545849	-2.0201921549	-1.1692055005	 0.099563
O	 1.5343256903	-2.469896747	-2.3960832873	-0.429281
C	 1.9601014404	-2.2654720465	-0.0129817495	-0.182243
N	 1.5085676745	-1.5983073459	 1.197054288	-0.326338
C	 0.7654123746	-0.4495603162	 1.280368848	 0.418042
O	 0.6212589427	 0.1286828099	 2.3427315027	-0.382931
H	 0.898087282	 2.0239154026	-0.1236716086	 0.117005
H	-0.7121246004	 1.8625823099	-0.8444067343	 0.106901
H	-0.516378531	 1.8829608305	 0.9262378453	 0.143495
H	-0.9456395849	-0.4170609243	 0.0695932915	 0.105987
H	 0.0739944526	-0.3329007293	-2.1493125078	 0.109506
H	 1.667917431	-0.0137358485	-1.473606548	 0.107875
H	 0.0362799434	-2.538785865	-0.9528098211	 0.074759
H	 1.6185046785	-3.4281724317	-2.3596935743	 0.285113
H	 2.0488061154	-3.3405439343	 0.1882900827	 0.099214
H	 2.9513846693	-1.9093296939	-0.3310822285	 0.11539
H	 1.9531313959	-1.8455265957	 2.0699528623	 0.24507
