13
gdb 4728	6.60352	1.35965	1.12913	3.0813	73.49	-0.1892	-0.0114	0.1777	984.9241	0.096743	-357.648666	-357.641421	-357.640476	-357.67978	27.505	
N	-0.0044483484	 1.4052463334	 0.1561913971	-0.607883
C	-0.0338809814	 0.014405082	 0.0528957748	 0.28322
C	-1.1272783195	-0.8301309217	 0.0218819386	-0.17417
N	-0.5922126454	-2.0990877267	-0.0123080471	-0.287373
C	 0.7666049824	-1.9792946488	 0.003538439	 0.195431
N	 1.1275808638	-0.7003426308	 0.0396513615	-0.349905
C	 1.6210045306	-3.1026714025	-0.0206479062	 0.262783
C	 2.3245360207	-4.0799286935	-0.0432740078	-0.40584
H	 0.9055640891	 1.7637928085	-0.102757584	 0.251972
H	-0.7318705484	 1.8700515764	-0.3696713611	 0.242497
H	-2.1889663885	-0.6531248109	 0.0301651119	 0.123866
H	-1.1025956707	-2.9653395279	-0.0443975185	 0.270667
H	 2.9579275857	-4.9319269975	-0.061921878	 0.194737
