23
gdb 121857	4.18819	0.52571	0.48266	1.8556	92.56	-0.2473	0.0415	0.2888	2359.7068	0.202336	-388.274807	-388.262787	-388.261843	-388.314567	41.061	
C	-0.1096855944	 1.5866360396	-0.0046948297	-0.378671
C	-0.057415726	 0.0566635616	 0.021152986	-0.171448
C	 0.7474562304	-0.4964359223	 1.2017167137	-0.159218
C	 0.8111584713	-2.0256158079	 1.2251949199	-0.186797
C	 1.5603366907	-2.5755181069	 2.4551534669	-0.072565
O	 0.9624410873	-2.1390632829	 3.6782435011	-0.417175
C	 1.6766428206	-4.0355392385	 2.4029337727	 0.034326
C	 1.7213139361	-5.2388083737	 2.3605585927	 0.096711
C	 1.7982299281	-6.6918726853	 2.3151278962	-0.499745
H	 0.8955812858	 2.015603892	-0.0828846562	 0.113184
H	-0.6947250276	 1.9533301892	-0.8540423117	 0.10922
H	-0.5652145156	 1.9820384715	 0.9100316834	 0.114502
H	-1.0791854768	-0.3441967384	 0.0608636671	 0.092477
H	 0.3739401001	-0.3117106273	-0.9193686244	 0.092269
H	 1.7692448687	-0.092243776	 1.1661058351	 0.089227
H	 0.3149346451	-0.1454654907	 2.1455828364	 0.109753
H	-0.2026117609	-2.4489843987	 1.2223784938	 0.09079
H	 1.3054184309	-2.4032602244	 0.3214728962	 0.102404
H	 2.5656512355	-2.1342991901	 2.473532805	 0.110339
H	 0.1688199054	-2.6697173436	 3.8096264477	 0.280717
H	 1.6253348423	-7.1284269413	 3.3049991718	 0.150683
H	 1.0530463407	-7.1126899079	 1.6311500924	 0.147749
H	 2.7855306323	-7.0245658079	 1.9762139738	 0.151266
