23
gdb 38836	2.43253	1.8642	1.59432	0.2049	86.4	-0.2552	0.074	0.3292	998.2361	0.211434	-351.170762	-351.163758	-351.162814	-351.20162	30.659	
C	 0.046999157	 1.5492869594	-0.2460624625	-0.299781
C	 1.3287431604	 0.7748534687	-0.0681414275	-0.006573
C	 2.1700617571	 0.8538306617	 1.2037487262	-0.233295
C	 1.5058108277	 0.2135236469	 2.4472135071	 0.013376
C	 0.3234150065	 1.0443408915	 3.0196968344	-0.212062
C	-0.9577829458	 0.4454584844	 2.3691704772	-0.216904
C	-0.433187001	-0.5662647576	 1.3244937948	-0.006855
C	 0.8253398884	-1.1076871602	 2.0349436604	-0.216302
C	-0.0070553973	 0.0573063835	-0.0138534599	-0.025652
H	-0.2700667629	 2.216448235	 0.5475163208	 0.110054
H	-0.1879266655	 1.9169809636	-1.2395628382	 0.101584
H	 1.9121444574	 0.6362184317	-0.9736590434	 0.075862
H	 3.1070315668	 0.3147875565	 1.0169043794	 0.092496
H	 2.4544961376	 1.8914368876	 1.4226419237	 0.091083
H	 2.2800286961	 0.0652378137	 3.2057308546	 0.057065
H	 0.2822734131	 0.9480099055	 4.1088729541	 0.092573
H	 0.4436267722	 2.1112757265	 2.8076384801	 0.093908
H	-1.5454042955	-0.0910567815	 3.1212145633	 0.090371
H	-1.6170782166	 1.1993931291	 1.9333935466	 0.09677
H	-1.1748947227	-1.3453161643	 1.1281736771	 0.055544
H	 1.4509588126	-1.7303476214	 1.3875238336	 0.086848
H	 0.5507528066	-1.6989875071	 2.9163409195	 0.083613
H	-0.2639153222	-0.5430882931	-0.8816791214	 0.076277
