17
gdb 84754	2.09207	1.8633	1.23964	3.7292	69.52	-0.2424	-0.024	0.2183	1031.6644	0.135417	-458.985004	-458.97638	-458.975436	-459.018483	32.173	
O	-0.0446250888	 1.4099361402	-0.1127063362	-0.440027
C	-0.0223799164	-0.0201886672	-0.0298039435	 0.048428
C	 0.8061647325	-0.507593682	 1.1290066587	-0.104686
C	 0.2714332947	-0.9406110939	 2.2722799555	-0.057488
C	-1.2144994978	-1.0043636974	 2.535927811	-0.358601
C	-1.9990336564	-0.2858326568	 1.4448668373	 0.335348
O	-2.8912965028	 0.4942713982	 1.6730099846	-0.306942
C	-1.478549332	-0.5565439663	 0.0343937657	 0.023378
O	-2.2734889431	-0.0062596079	-0.9720335368	-0.420565
H	-0.1394900698	 1.7553568931	 0.782627788	 0.288102
H	 0.4074778844	-0.3417984979	-0.9837169961	 0.104595
H	 1.8854475543	-0.4615213661	 1.0140832158	 0.105915
H	 0.9181016861	-1.2632801104	 3.0847291206	 0.108749
H	-1.5412246649	-2.0548171905	 2.5747071534	 0.140402
H	-1.4714331665	-0.5643287297	 3.5050290342	 0.136041
H	-1.4480725406	-1.6421745918	-0.1241614594	 0.107343
H	-2.2180883728	 0.9521121762	-0.8655278227	 0.29001
