18
gdb 70881	2.52077	1.59721	1.39424	1.7801	71.82	-0.2061	0.065	0.2711	1017.1587	0.146433	-439.00763	-438.99914	-438.998196	-439.039951	33.411	
C	 0.034859549	 1.5824112869	 0.032942552	-0.493072
C	-0.0375399551	 0.0832668817	-0.0184866775	 0.235688
C	 0.4232932516	-0.7244939088	-1.2788802682	-0.34117
C	-0.5320986053	-1.8087795152	-0.7922977022	 0.317303
O	-1.0157075574	-2.9051768698	-1.4691146567	-0.46061
C	-0.439177356	-1.7584724756	 0.7825033635	-0.203383
N	 0.4698652749	-0.6817033277	 1.1710107703	-0.337422
C	-1.3454597716	-0.8410511444	 0.0159864624	 0.297325
O	-2.684671767	-0.5774121957	 0.0171988082	-0.448192
H	 1.0762104303	 1.9237738959	-0.0094450115	 0.119102
H	-0.4991825074	 2.0278527198	-0.8121462842	 0.124957
H	-0.4033528738	 1.9599387529	 0.9615438075	 0.123372
H	 0.0644420294	-0.2680070506	-2.2052682434	 0.11074
H	 1.4965018525	-0.9430165868	-1.3572694321	 0.076726
H	-0.3669238242	-3.6151287004	-1.4074630994	 0.286474
H	-0.6733014259	-2.6230102931	 1.3923361325	 0.095759
H	 1.4578680346	-0.927697456	 1.07708063	 0.201115
H	-2.9437778086	-0.3143692833	 0.9080265589	 0.295287
