17
gdb 47471	3.40067	1.13229	0.8976	7.3605	73.02	-0.253	0.0176	0.2706	1256.4328	0.137888	-418.072017	-418.063592	-418.062647	-418.105815	30.513	
O	-0.1745678024	-0.0148347864	 0.2336231836	-0.368044
C	-0.1152144051	 1.1906358559	 0.1442160698	 0.421817
N	-1.1690922313	 2.0596888952	 0.090249679	-0.31001
C	-0.8043485445	 3.4610514355	-0.0255928781	-0.17193
C	 0.6652188179	 3.4546768479	 0.4504247002	-0.242846
C	 1.1618901383	 2.0480494744	 0.0775994398	-0.108876
C	 2.2890028382	 1.5018355823	 0.9702243378	-0.355133
C	 2.9340842851	 0.305328175	 0.4314185571	 0.280757
N	 3.4917776165	-0.6085665483	-0.0020675512	-0.308442
H	-2.1125024386	 1.7158797756	 0.0079729615	 0.257357
H	-0.8876108817	 3.820222679	-1.0611999733	 0.114734
H	-1.4416605057	 4.0933714261	 0.5996862417	 0.121372
H	 1.2521692208	 4.2581191076	 0.0009898172	 0.118068
H	 0.6957931673	 3.581520666	 1.5384738151	 0.118014
H	 1.4980959192	 2.0347963586	-0.96674925	 0.124375
H	 3.0627914218	 2.2684408686	 1.0937595026	 0.150173
H	 1.8993953542	 1.274954597	 1.9687472372	 0.158615
