17
gdb 17882	3.92684	2.02665	1.83678	2.0576	66.9	-0.243	0.0178	0.2608	794.0906	0.144767	-363.858162	-363.851683	-363.850739	-363.888395	25.919	
C	-0.1040473683	 1.5105141576	-0.0015227292	-0.42812
C	 0.0215096465	-0.007562643	 0.0168126058	 0.014053
C	 1.1875159165	-0.5985463303	-0.8255526118	 0.110763
C	 2.1015654358	-0.423754062	 0.4105982719	-0.257138
C	 0.791895889	-0.6365516364	 1.2282200855	-0.001947
N	 0.5010421546	-2.0764101173	 1.2659461852	-0.258381
C	 0.6034325998	-2.6306450707	 0.130138142	 0.102526
O	 0.9416988142	-2.0091262213	-1.0285530987	-0.240815
H	 0.8460167741	 2.0178269929	 0.190527522	 0.119379
H	-0.4735143591	 1.8580474671	-0.9726068891	 0.120914
H	-0.8142888024	 1.8430664071	 0.7625688033	 0.125913
H	-0.9511777753	-0.4684329201	-0.1791545484	 0.084182
H	 1.4517883338	-0.1879345652	-1.8002865598	 0.084529
H	 2.9052507742	-1.1482589794	 0.553181775	 0.111794
H	 2.4917656941	 0.5914295489	 0.4826907716	 0.111466
H	 0.689195136	-0.1980982597	 2.2212917477	 0.072539
H	 0.4271668867	-3.6921371582	-0.0229080729	 0.128341
