11
gdb 129083	3.68696	1.31363	0.96855	2.0497	69.08	-0.2934	-0.1033	0.1901	1083.7815	0.066459	-447.700548	-447.693511	-447.692567	-447.73263	25.092	
N	-0.1119520154	 1.3125451399	 0.0080487516	-0.496956
C	-0.012367491	 0.043989483	 0.0009520027	 0.31986
C	-1.2245494353	-0.7826838524	 0.0030476636	 0.058865
N	-1.2602779416	-2.0613945439	-0.0033789646	-0.064619
O	 0.0029214894	-2.7054572348	-0.0130940841	-0.252205
C	 1.1127369958	-1.9383286938	-0.0145757764	 0.344262
N	 1.2017531976	-0.6658494777	-0.0088012215	-0.343825
C	 2.3000528099	-2.759561645	-0.0256194883	 0.305139
N	 3.2527049784	-3.4123916071	-0.0344193914	-0.292112
H	 0.821153431	 1.7320583526	 0.0054428002	 0.244025
H	-2.1953716588	-0.2959272406	 0.0105239783	 0.177567
