21
gdb 31224	2.18941	1.31248	0.8986	0.636	86.34	-0.2069	0.0258	0.2327	1380.012	0.18234	-387.136783	-387.127199	-387.126255	-387.172317	34.952	
C	-0.4361912521	 1.7465782802	-0.2956568275	-0.369042
C	-0.0078323758	 0.2992022313	 0.0038171811	-0.293286
C	 0.812771868	-0.3135554004	-1.0799149786	 0.271683
C	 2.0966825887	-0.7732975034	-1.1562676007	 0.160737
C	 3.1280103185	-0.8237469319	-0.0662539021	-0.306032
C	 3.4386386517	-2.2522789365	 0.412310974	-0.363177
C	 2.2675246826	-1.2332031146	-2.5112462478	-0.265641
C	 1.0894788985	-1.0158870761	-3.1439114172	-0.021511
O	 0.1903938788	-0.4573866205	-2.2916179151	-0.187044
H	 0.4365208805	 2.3968541294	-0.4096687268	 0.119451
H	-1.0134649527	 1.7935834592	-1.2229450957	 0.131573
H	-1.056411674	 2.1433958627	 0.5139292732	 0.110478
H	 0.5686335257	 0.2641205604	 0.9333962061	 0.111305
H	-0.903631275	-0.3131340318	 0.1726399773	 0.11517
H	 4.0560011383	-0.3569995431	-0.4211390046	 0.105584
H	 2.7950278607	-0.2209416881	 0.7857411377	 0.100483
H	 2.5421396426	-2.7316043632	 0.8177073921	 0.118648
H	 3.8008713452	-2.8745721653	-0.4122104495	 0.1187
H	 4.2066037005	-2.2463169308	 1.1925067515	 0.109308
H	 3.1588712673	-1.6626800323	-2.9431354967	 0.104444
H	 0.7390536919	-1.188361435	-4.1482755709	 0.12817
