15
gdb 61342	3.44822	0.83295	0.72973	1.7247	71.39	-0.3162	-0.1056	0.2106	1479.0288	0.110406	-416.844443	-416.83495	-416.834006	-416.879874	32.33	
C	 0.010225307	 1.6466457872	-0.156515512	-0.402201
C	-0.0103187872	 0.1094834324	-0.03768114	-0.149962
C	-1.4396957783	-0.4596545954	 0.0770647129	-0.314623
C	-2.0674956407	-0.1930831948	 1.4275505025	 0.286383
O	-1.5064764033	 0.3076951651	 2.3686395142	-0.261568
C	-3.4766738577	-0.6249082613	 1.5405143675	 0.241953
N	-4.5795596904	-0.9644416691	 1.6117670035	-0.28358
C	 0.6691754558	-0.5082967208	-1.1804102093	 0.26475
N	 1.195775677	-0.990969578	-2.0886347916	-0.311038
H	 1.0371982654	 2.0107768743	-0.2302385129	 0.148542
H	-0.532254998	 1.9742077397	-1.0479704323	 0.138766
H	-0.4514623426	 2.0909553911	 0.7270943536	 0.150445
H	 0.5373038441	-0.1768340933	 0.8673950755	 0.153839
H	-2.0948966035	-0.0558507567	-0.7049303496	 0.163984
H	-1.4475338876	-1.5477632403	-0.0710327721	 0.174309
