18
gdb 97715	5.32267	0.67113	0.6577	2.8985	84.	-0.2394	0.0182	0.2576	1730.0633	0.147855	-401.82543	-401.816746	-401.815801	-401.860573	31.546	
O	-0.0174932445	 1.4515546206	 0.0089769384	-0.408733
C	-0.0068657177	 0.0293952445	 0.0045127631	-0.238218
C	-1.3754366944	-0.4702808168	 0.0178445948	 0.46758
C	-2.4982334516	-0.9073240926	 0.0291336697	-0.506961
C	-3.8435760148	-1.417477304	 0.0438328089	 0.281107
C	-5.0098789265	-1.1677898993	-0.9523222201	-0.198333
N	-5.6679378514	-2.114130161	 0.0640158263	-0.16738
C	-4.3425172105	-2.8883380608	-0.0059720307	-0.198501
C	-4.9530242133	-1.2571320679	 1.1201835938	-0.198541
H	 0.8994145951	 1.744970519	 0.0011749587	 0.290844
H	 0.5091063883	-0.363820293	-0.8869836338	 0.118519
H	 0.5280115404	-0.3691282817	 0.8824064783	 0.118529
H	-5.4519818343	-0.1686858866	-0.9748524828	 0.108367
H	-4.9206869704	-1.5922126741	-1.9555596898	 0.105925
H	-4.2034352652	-3.4401106199	-0.9392228957	 0.105923
H	-4.1535656441	-3.5182517127	 0.8670636377	 0.105856
H	-4.8099509297	-1.7659500871	 2.0768772814	 0.10576
H	-5.3911614654	-0.2647763568	 1.2526069515	 0.108256
