20
gdb 6029	2.34909	1.85562	1.44865	1.538	71.14	-0.2481	-0.0203	0.2278	991.2024	0.173134	-386.156859	-386.146842	-386.145898	-386.190879	36.491	
C	-0.2093239003	 1.4699078251	 0.0364077894	-0.434363
C	-0.0257052633	-0.0470275669	 0.0922183154	 0.138292
O	 0.5817025328	-0.5285541552	-1.1088153228	-0.452542
C	 0.8581572116	-0.5593425815	 1.252305583	 0.157163
C	 0.9955878165	-2.0995577409	 1.1636091949	-0.423054
C	 2.2656534633	 0.0717961658	 1.2490837914	-0.433776
C	 0.2094085671	-0.286287748	 2.6001305999	 0.148904
O	-0.895115947	 0.1574141935	 2.7886486962	-0.265901
H	 0.7441392738	 1.9798902544	-0.1266610841	 0.120666
H	-0.8732216718	 1.7305625668	-0.7966202124	 0.103383
H	-0.669747214	 1.8421287938	 0.9534653068	 0.145122
H	-1.0167394816	-0.5080300208	 0.2205546554	 0.077181
H	 0.0736332225	-0.187188472	-1.8508435975	 0.282073
H	 1.5397257603	-2.3690880613	 0.2570035708	 0.146141
H	 1.5402702596	-2.4936967337	 2.0282325188	 0.111004
H	 0.013500597	-2.5818284311	 1.1296293052	 0.122857
H	 2.2360895225	 1.1501807205	 1.4290568881	 0.121713
H	 2.8936948291	-0.3784913927	 2.0245922609	 0.114367
H	 2.7389174207	-0.1016142628	 0.2799411166	 0.143437
H	 0.8605368413	-0.5692821232	 3.4617844941	 0.077333
