19
gdb 92871	2.3955	1.55594	1.12591	2.518	78.38	-0.2344	-0.0537	0.1807	1130.3195	0.159526	-423.064179	-423.055453	-423.054509	-423.097438	33.155	
C	 0.053630575	 1.5923792127	-0.0196001878	-0.408596
C	 0.0424626169	 0.0613970049	-0.0373558534	-0.009698
C	 0.7511455805	-0.5143111254	-1.275565718	-0.253815
C	 0.8621690817	-2.009717751	-1.230591183	-0.053858
C	 0.8105494959	-2.7191327479	-0.0945542884	-0.139941
C	 0.677339543	-2.0693291765	 1.2191720429	 0.343398
O	 0.6797038499	-2.6914919107	 2.2656958296	-0.347239
C	 0.6456086631	-0.5318994113	 1.2367055409	 0.028241
O	 1.9957887163	-0.0769305358	 1.345654745	-0.440768
H	 1.075629535	 1.970683508	 0.0649208303	 0.137772
H	-0.3909734989	 1.9969929334	-0.9346928798	 0.109566
H	-0.5192171815	 1.97790391	 0.8301419883	 0.114333
H	-1.0001825907	-0.2846169182	-0.0671180348	 0.083146
H	 0.2285888952	-0.2064910099	-2.188777267	 0.107896
H	 1.7626900685	-0.0899081997	-1.3490398149	 0.14006
H	 1.007438854	-2.5259754955	-2.1773467491	 0.10902
H	 0.8961850512	-3.801238777	-0.0845426508	 0.106483
H	 0.062215165	-0.2238240462	 2.1162282685	 0.078725
H	 2.36892018	-0.4787433039	 2.1382168314	 0.295275
