19
gdb 118791	4.80826	0.75307	0.71392	1.4045	79.32	-0.2545	0.0187	0.2732	1589.205	0.155423	-422.969124	-422.958851	-422.957907	-423.004638	37.066	
C	-0.1260946063	 1.7441592494	 0.2327248933	-0.468993
C	-0.185831433	 0.2353870238	 0.1422098402	 0.389944
C	-1.442669143	-0.3710613319	-0.4577154763	-0.272899
C	-1.645534563	-0.0064407322	-1.9347583145	-0.062649
O	-2.8035066573	-0.6154706902	-2.4816129089	-0.417373
O	 1.030846206	-0.3976607496	-0.2831103079	-0.282721
C	 0.6125849292	-0.599043514	 1.0787980629	-0.23155
C	 1.4376954779	-0.0477011066	 2.1195981316	 0.335264
C	 2.1159155688	 0.3842880829	 3.0135318836	-0.411824
H	 0.7708393338	 2.0646358329	 0.7646836018	 0.142632
H	-0.1102033941	 2.1883217847	-0.7672823836	 0.132897
H	-1.003800858	 2.1318043645	 0.7601602801	 0.124915
H	-1.3802820747	-1.463092813	-0.3744907609	 0.093109
H	-2.3216892392	-0.0511114966	 0.1139571722	 0.112255
H	-1.8029638502	 1.0706740293	-2.0465489053	 0.114797
H	-0.7408046715	-0.2673623597	-2.5035981307	 0.107638
H	-2.6544388734	-1.5661534092	-2.5021647858	 0.282546
H	 0.2467695962	-1.6060255037	 1.2815650657	 0.109618
H	 2.719653762	 0.7689178992	 3.7982601325	 0.202395
