15
gdb 31430	2.9871	1.41447	0.96574	4.3114	71.81	-0.2349	-0.0367	0.1982	1151.1924	0.114617	-454.020417	-454.012719	-454.011775	-454.052888	28.412	
C	-0.0285442228	 1.3925643193	 0.0346330379	-0.235536
O	 0.0137208056	-0.0389610047	-0.0211205212	-0.25315
C	 0.6181492829	-0.5883233298	-1.0781373028	 0.468457
N	 1.1363407946	 0.1730685413	-2.0001431713	-0.434982
C	 1.7608150327	-0.3913541099	-3.0920836082	 0.434738
O	 2.2733754139	 0.2216616787	-4.0023111948	-0.386981
N	 1.7854892538	-1.8122938356	-3.1170059387	-0.34785
C	 1.2426514823	-2.5912765797	-2.151324615	 0.061741
C	 0.6323137242	-2.0204651586	-1.0843831862	-0.265659
H	 0.9812514036	 1.8091605756	 0.0475024364	 0.14743
H	-0.5608052795	 1.7977788091	-0.8290179889	 0.147449
H	-0.555882639	 1.6281322327	 0.9593530121	 0.130834
H	 2.2448456652	-2.214441742	-3.9203882606	 0.268907
H	 1.3272076419	-3.6634103878	-2.2862015221	 0.143733
H	 0.1837181305	-2.5928234686	-0.2872418666	 0.120869
