16
gdb 125205	3.27692	1.61288	1.1062	4.8958	71.59	-0.222	0.0096	0.2316	1060.2038	0.126437	-434.060436	-434.052752	-434.051807	-434.09356	27.473	
C	 0.0044008363	 1.5305143865	 0.0990186592	-0.504371
C	-0.0336824541	 0.0476856015	-0.0615480443	 0.155786
C	 0.1409114972	-0.7628950171	-1.1583312869	 0.360006
O	 0.4399666027	-0.702575212	-2.4745142877	-0.280078
C	 0.2633933041	-2.0531738002	-2.9839623695	-0.110304
C	 0.2501197062	-3.0037907518	-1.7482728038	-0.198617
N	-0.014407033	-2.0216123474	-0.7170026606	 0.026987
N	-0.260130666	-2.0548542948	 0.6127456445	-0.190622
N	-0.2773630372	-0.8040043711	 0.9908808382	-0.239979
H	 0.9828253536	 1.9472344457	-0.1637435755	 0.130556
H	-0.7432031509	 2.0308333022	-0.5259355661	 0.12988
H	-0.2021311532	 1.7770725374	 1.1427035225	 0.14881
H	-0.6903328077	-2.0932029945	-3.5197162074	 0.136969
H	 1.0783063644	-2.2599553959	-3.6784979396	 0.140699
H	-0.5363293368	-3.7580947844	-1.8131481305	 0.149909
H	 1.2109529246	-3.5011503641	-1.5809402322	 0.14437
