18
gdb 17852	4.86923	1.60933	1.50375	1.6257	71.79	-0.2273	0.0785	0.3058	903.0501	0.154708	-347.741927	-347.735008	-347.734064	-347.773097	26.969	
C	 0.0391883993	 1.5236921768	-0.0953468287	-0.203449
C	 1.5846508337	 1.5123306145	 0.1119819442	-0.296837
C	 1.4457121236	 0.0758582801	 0.6270150658	 0.364568
C	 0.0110045257	-0.0237281529	 0.0914092979	-0.309899
C	 2.4257613517	-1.0653350635	 0.7350502932	-0.231883
C	 3.7509032578	-0.5330098912	 1.2727379956	-0.088729
O	 3.0871356127	 0.1212369446	 2.3902613718	-0.286412
C	 1.8327527943	-0.4271775124	 1.9775214298	 0.028072
H	-0.4818454088	 2.0459541239	 0.7104502643	 0.107291
H	-0.3260905699	 1.9059844532	-1.0505387763	 0.098657
H	 2.1360327159	 1.5770833074	-0.8317880344	 0.097812
H	 2.0036102543	 2.2353588502	 0.815129196	 0.113275
H	-0.7473847347	-0.4330872089	 0.7653001505	 0.099336
H	-0.0482779149	-0.5600668936	-0.861315538	 0.101175
H	 2.2607191582	-2.0360507439	 0.285208865	 0.094293
H	 4.4260436067	-1.3153393261	 1.6371979851	 0.108001
H	 4.3074841273	 0.1746750953	 0.6465566629	 0.105338
H	 1.1522451771	-0.7807098334	 2.7454495353	 0.09939
