23
gdb 100874	1.60121	1.34485	0.96111	3.4015	86.82	-0.2329	0.034	0.2668	1415.7505	0.203898	-384.478727	-384.467466	-384.466522	-384.515712	39.815	
C	 1.0380584051	-2.3268143485	-0.5150547888	-0.38881
C	 0.5971047323	-2.0118619939	 0.9150094933	-0.194832
C	 0.8881250198	-0.5473290988	 1.3096725582	-0.114663
C	 0.2880913022	-0.2392438642	 2.6350156899	 0.271603
N	-0.1309861843	 0.0105627244	 3.6835673428	-0.334995
N	 2.3031234248	-0.1842031588	 1.2358004047	-0.050074
C	 2.4869531917	 1.2601048441	 1.1276174023	-0.338827
C	 3.1343636797	-0.7780680399	 2.2916468616	-0.128563
C	 4.6186700505	-0.8167589552	 1.9274117923	-0.393553
H	 2.1064928699	-2.1406536936	-0.644090604	 0.135642
H	 0.8335569249	-3.3730769343	-0.7591472609	 0.117637
H	 0.5012236108	-1.7038530887	-1.2391748131	 0.115631
H	-0.480535354	-2.1740709486	 1.0274242842	 0.11858
H	 1.0785615567	-2.692240473	 1.6243315144	 0.118567
H	 0.3663010664	 0.0882590587	 0.5834107281	 0.121314
H	 2.1717953187	 1.8058475518	 2.0344532751	 0.116758
H	 3.538477168	 1.4883459095	 0.9425561104	 0.128063
H	 1.9120482801	 1.6424737244	 0.2787297983	 0.12125
H	 2.9947914063	-0.249648352	 3.2511116697	 0.10443
H	 2.7923877548	-1.8038133757	 2.4533432694	 0.108228
H	 4.7695337104	-1.3305146932	 0.9734899634	 0.124154
H	 5.0546176254	 0.183018914	 1.8485756001	 0.122607
H	 5.1752131198	-1.3529087383	 2.7021931487	 0.11985
