21
gdb 79292	2.61744	1.70582	1.46441	1.4437	79.99	-0.2269	0.0918	0.3187	1024.9824	0.184708	-387.096476	-387.08882	-387.087876	-387.128074	31.449	
C	 0.0089933871	 1.6219358109	-0.0054288925	-0.413051
C	 0.0149740435	 0.0946884119	-0.0463598146	 0.01957
C	 0.9258956489	-0.508627446	-1.1147986017	-0.115676
C	 2.262393992	-0.647427672	-0.4221882992	 0.078861
O	 2.1260185232	-0.1962075311	 0.9157922249	-0.262107
C	 0.75491385	-0.5767613346	 1.1396542072	 0.026103
C	 0.7702926489	-2.0845805056	 0.7756958133	 0.026358
C	-0.563566504	-2.8275585207	 0.8052519718	-0.420626
C	 1.4018790378	-1.8725045041	-0.6005529079	-0.130013
H	 1.0196722559	 2.0069821948	 0.1517509937	 0.133755
H	-0.3754222994	 2.0380173321	-0.9425796486	 0.108377
H	-0.6275723417	 1.9911083953	 0.8061768173	 0.107768
H	-1.0099942496	-0.2793514981	-0.1250315892	 0.072048
H	 0.8340559515	-0.2801719788	-2.1684725579	 0.082933
H	 3.2340303241	-0.4760158831	-0.8625478741	 0.100118
H	 0.4575030185	-0.2994057648	 2.1498640374	 0.072717
H	 1.4812444397	-2.5880215551	 1.4418234576	 0.076911
H	-1.2872096406	-2.413489192	 0.0978623834	 0.121492
H	-0.4189677398	-3.8804360323	 0.5419105293	 0.11706
H	-1.0106654383	-2.7986248675	 1.8053741689	 0.113446
H	 1.6688551424	-2.6853367794	-1.2631906492	 0.083958
