21
gdb 82919	2.89387	1.39883	1.17039	2.2223	82.68	-0.2173	0.0741	0.2915	1163.6524	0.183496	-383.234668	-383.226293	-383.225349	-383.267001	33.397	
C	 0.0375280412	 1.546503964	-0.0205287565	-0.418627
C	-0.0130079556	 0.0395744599	-0.087904992	 0.02037
C	 0.6960628443	-0.7301085036	-1.1447060735	-0.10798
N	 1.242021745	-0.6592837936	 0.2328215705	-0.13144
C	 1.1215893287	-2.0090493621	 0.8347153795	-0.171872
C	 0.5235648142	-2.9426725958	-0.2088688755	-0.090313
N	-0.866631802	-2.6041867945	-0.5883499697	-0.372612
C	 0.2589691197	-2.1523921194	-1.4429546494	 0.344527
C	 0.4085296002	-2.6818818869	-2.8451074631	-0.505085
H	 0.9956444959	 1.9205336918	-0.3922902651	 0.120098
H	-0.7662765551	 1.990152526	-0.6184744338	 0.111857
H	-0.0801117116	 1.8928071951	 1.012289642	 0.117386
H	-0.9324593531	-0.4197647586	 0.2655490407	 0.110837
H	 1.2620210296	-0.2197685794	-1.9212307561	 0.076108
H	 2.1285711641	-2.3508723349	 1.1005018867	 0.104026
H	 0.5260163942	-1.9702339567	 1.752945254	 0.111413
H	 0.8392664726	-3.9820616378	-0.2462466717	 0.084616
H	-1.3037540451	-3.4169799816	-1.0190239044	 0.223768
H	-0.2921022704	-2.1913894278	-3.5306254515	 0.12914
H	 1.420948167	-2.5080284894	-3.2255130417	 0.129525
H	 0.2165423961	-3.7591939245	-2.8824833695	 0.114256
