17
gdb 56987	2.92823	1.24897	0.98808	5.3249	71.87	-0.255	0.0229	0.2779	1185.5987	0.136227	-417.965518	-417.957102	-417.956158	-417.99894	31.213	
N	 0.0240554613	 1.4116567515	 0.21418851	-0.508197
C	-0.0631822027	-0.0361511695	 0.0081835979	-0.140053
C	-1.4773862727	-0.4455950922	 0.0387378172	 0.296998
N	-2.5808840469	-0.7868301647	 0.0097196633	-0.323283
C	 0.5882550604	-0.5734707704	-1.2801649951	-0.022441
C	 2.1501141374	-0.425293527	-1.4194935838	-0.299108
C	 2.2328930709	-1.9538512419	-1.516251216	 0.039325
O	 1.6563241806	-2.4797145874	-0.315616645	-0.23999
C	 0.7749413186	-2.1002001358	-1.3791807254	 0.015217
H	 1.0010572773	 1.6799920102	 0.2809357573	 0.23973
H	-0.3655310353	 1.903330355	-0.5854139733	 0.237804
H	 0.4342938086	-0.5224505473	 0.8552334879	 0.14842
H	 0.0722244125	-0.169746904	-2.1563229838	 0.093262
H	 2.4393610792	 0.0927568015	-2.3360928247	 0.116382
H	 2.6868076323	 0.0078340757	-0.5705489599	 0.109987
H	 2.9602912009	-2.5710561534	-2.0292201494	 0.114715
H	 0.0876253276	-2.8500893804	-1.7509380669	 0.121232
