21
gdb 57277	2.26589	1.35089	1.22831	3.1815	82.85	-0.2337	0.0369	0.2706	1183.8859	0.18177	-383.268141	-383.258464	-383.25752	-383.302286	36.043	
C	-0.0673185426	 1.5175842882	-0.0731843806	-0.404572
C	-0.0350602272	-0.0151826386	 0.0638185585	 0.103584
C	 0.7941566107	-0.4317400589	 1.2918510622	-0.404571
C	-1.434340875	-0.5078663862	 0.2433340665	 0.256162
N	-2.5095589789	-0.927520905	 0.3226227958	-0.35684
N	 0.5658834277	-0.5873389112	-1.1324987282	-0.068817
C	-0.0792318985	-0.4261865435	-2.4577041466	-0.176248
C	 0.4283313323	-1.8388907802	-2.8329564369	-0.232544
C	 0.6413387837	-2.0566830239	-1.3159320497	-0.176248
H	 0.9546267995	 1.8812280014	-0.2076910026	 0.130364
H	-0.6648517121	 1.8247804964	-0.9350103006	 0.135182
H	-0.4986293551	 1.9755810652	 0.8203306522	 0.131582
H	 0.3748641804	-0.0009277106	 2.2044044874	 0.131582
H	 0.8126025473	-1.5183737334	 1.4060716677	 0.135182
H	 1.8193537782	-0.0754554844	 1.1624938954	 0.130364
H	-1.1772461188	-0.3833361097	-2.4042298714	 0.112266
H	 0.2854898229	 0.4243447831	-3.041379112	 0.105825
H	-0.2802750772	-2.5004061068	-3.3304255632	 0.114619
H	 1.3647689479	-1.8168652629	-3.3924873795	 0.115034
H	 1.5818257461	-2.5089847391	-0.9872846669	 0.105825
H	-0.1994058911	-2.5959788798	-0.8548038175	 0.112266
