20
gdb 15249	2.09282	1.76269	1.15054	3.4543	76.75	-0.2407	-0.0159	0.2248	1128.781	0.175382	-349.010251	-349.000972	-349.000028	-349.044417	33.411	
C	 0.7884643177	-0.3636945455	-0.7413263977	-0.375917
C	 0.0719566279	-1.7184888775	-0.6938691037	-0.206697
C	-1.3868369817	-1.595214013	-0.2934027141	-0.015803
C	-2.1762908604	-2.6818136109	 0.3638103039	-0.048362
C	-1.6147722172	-4.0476711268	 0.7051959379	-0.412764
C	-1.8418699884	-1.4146823821	 1.1647116214	-0.127767
C	-0.8802578834	-1.435072024	 2.2852922417	 0.162446
O	-0.9871988958	-0.7474109686	 3.2744565529	-0.278502
H	 1.8242905954	-0.4775152519	-1.07489616	 0.115153
H	 0.2881984992	 0.3233081755	-1.4324670524	 0.117298
H	 0.8018483167	 0.1124869751	 0.2445224136	 0.129935
H	 0.1145957142	-2.1894506523	-1.684645325	 0.103304
H	 0.6115537403	-2.3919703285	-0.0215809826	 0.101339
H	-1.953159442	-0.9681612125	-0.9791142922	 0.09545
H	-3.2241052966	-2.7206681199	 0.076328254	 0.098621
H	-0.5555302854	-4.0253743527	 0.9686954039	 0.123745
H	-2.1550523859	-4.4897752163	 1.548606171	 0.128649
H	-1.7244495177	-4.7231147419	-0.1501789123	 0.124174
H	-2.6564266033	-0.7190314436	 1.3378887395	 0.101751
H	-0.0221269138	-2.1340784027	 2.1798959203	 0.063948
