22
gdb 106976	3.9631	1.05371	0.93963	1.4775	87.99	-0.2187	0.0174	0.2361	1361.1848	0.194581	-367.215403	-367.206245	-367.2053	-367.249053	35.259	
C	 0.3422103776	 1.4548384018	 0.2712365569	-0.379335
C	-0.1579284834	 0.0532735459	-0.1005810718	-0.253113
C	 0.4741417843	-0.4747583521	-1.3681188867	 0.351963
C	 0.1437127825	 0.1854216513	-2.7145313504	-0.335484
C	 0.2955262545	-0.9373042325	-3.7168389472	-0.196572
C	 0.5707914231	-2.1108522586	-3.1336113294	 0.337968
C	 0.7536206037	-3.4432612074	-3.7895003818	-0.496841
C	 0.7190463256	-1.9225992852	-1.6538675577	-0.192586
N	 1.8263995748	-1.0347361556	-1.2147575467	-0.370134
H	 1.4295927995	 1.4499917201	 0.3950130376	 0.128993
H	 0.0934842311	 2.1893835495	-0.5024618818	 0.112166
H	-0.1053676723	 1.7978220892	 1.2089809082	 0.109105
H	 0.0690243109	-0.6418752527	 0.7145856848	 0.104011
H	-1.2492842747	 0.0631016813	-0.2193365839	 0.090729
H	-0.8805417477	 0.5840447086	-2.7099259209	 0.108695
H	 0.8005079831	 1.0383590564	-2.932125625	 0.109634
H	 0.210831136	-0.7808376216	-4.7871642572	 0.088263
H	 0.6149367462	-3.3809981438	-4.8721838022	 0.12362
H	 1.7528079959	-3.8518499492	-3.593300512	 0.129779
H	 0.0366990873	-4.1760951707	-3.3979904978	 0.12817
H	 0.4741052721	-2.7260501797	-0.9643448439	 0.081883
H	 2.40649992	-0.8058075649	-2.0205705411	 0.219085
