20
gdb 36925	4.39766	0.94159	0.83466	1.8949	81.65	-0.229	0.0162	0.2452	1409.7071	0.171396	-403.111605	-403.103139	-403.102195	-403.145631	31.495	
C	 0.7701606067	 1.3692946497	 0.8271648956	-0.158101
C	 0.6217271089	-0.1179234876	 0.4716610834	 0.078777
O	 0.2258852925	-0.8296789235	 1.6492294802	-0.277505
C	-0.9657319262	-1.5733078885	 1.4091251559	-0.112608
C	-1.3479616702	-1.2523023091	-0.0082968496	-0.096097
C	-0.4459253407	-0.4364926967	-0.5409508823	-0.088399
N	 1.3291571513	 2.1189025348	-0.289802588	-0.071386
C	 0.382242433	 2.8198066357	-1.1542155361	-0.221088
C	 1.2414750279	 3.5707678959	-0.199108517	-0.218383
H	-0.2070824252	 1.7599922596	 1.1618930208	 0.08097
H	 1.4623841977	 1.4425160367	 1.6731732558	 0.112916
H	 1.6072624367	-0.4782299784	 0.1361490342	 0.091191
H	-0.7753720994	-2.6491038735	 1.5550264149	 0.103887
H	-1.7401670593	-1.282660402	 2.1361386568	 0.104334
H	-2.2283445583	-1.6579394544	-0.4907825873	 0.104211
H	-0.4339524657	-0.0458918346	-1.5496550928	 0.111879
H	 0.6123899346	 2.811746222	-2.216042792	 0.115554
H	-0.6775742445	 2.7456653987	-0.9151123317	 0.112657
H	 0.7528831429	 3.9985872074	 0.6751964792	 0.110449
H	 2.1102772775	 4.1206419379	-0.54988034	 0.116744
