21
gdb 88986	3.46378	0.82798	0.75759	3.4176	80.02	-0.2573	0.0849	0.3422	1594.7671	0.179789	-424.190583	-424.180583	-424.179639	-424.226895	35.804	
C	 0.1044690667	 1.4975245094	-0.2856294361	-0.418213
C	 0.1852359234	 0.0125325926	-0.0375773475	 0.070924
O	 1.4800903097	-0.5506608805	 0.200477461	-0.250306
C	 0.5152929616	-0.6154699062	 1.2532228185	 0.075931
C	 0.8075848634	 0.1380123358	 2.5334827642	-0.275808
C	 1.698244572	-0.6558044279	 3.4655581994	 0.075954
O	 3.1104082749	-0.6062786574	 3.2494956297	-0.250316
C	 2.5976009772	-0.0697827655	 4.4741228203	 0.070922
C	 2.7815348838	 1.4061789234	 4.7210266947	-0.418203
H	 0.7236165088	 2.063972989	 0.4124372628	 0.127958
H	 0.4470891024	 1.7267505869	-1.3001058509	 0.131568
H	-0.9312038432	 1.8438547169	-0.1973039981	 0.120345
H	-0.4260960605	-0.5842187799	-0.7191164046	 0.085675
H	 0.1208939232	-1.6222629447	 1.4189449739	 0.084308
H	 1.2666454405	 1.1007808587	 2.3055633789	 0.114665
H	-0.1455646971	 0.3309637776	 3.0466551553	 0.104763
H	 1.326117646	-1.6633512466	 3.6729796838	 0.084304
H	 2.8155827773	-0.6948234542	 5.3436878956	 0.085673
H	 2.5528699836	 2.0016002994	 3.8351981462	 0.127939
H	 2.1387411832	 1.7389902668	 5.5434703786	 0.12034
H	 3.8189901432	 1.6117466664	 5.0047988043	 0.131579
