21
gdb 115654	2.68394	1.18828	0.97434	2.5303	78.61	-0.2378	0.0723	0.31	1287.9391	0.182257	-424.192082	-424.182936	-424.181992	-424.226602	33.927	
O	-0.2407835746	 1.602526294	-0.1741021663	-0.422136
C	-0.1708267832	 0.2794609399	 0.3401136158	-0.115379
C	-1.3772310279	-0.4785413347	-0.1691704794	-0.004148
C	-1.4670224117	-0.8751941901	-1.6679699602	-0.233655
C	-2.1346264663	-2.2075203775	-1.2302663445	-0.297636
C	-1.5753265944	-1.9728624617	 0.191651198	 0.43
C	-0.4220909856	-2.8556470997	 0.7300718541	-0.351704
C	-1.3960035125	-3.1734696484	 1.8795332431	-0.073547
O	-2.3983755034	-2.2973409355	 1.3261518847	-0.314392
H	 0.5378015253	 2.0824248224	 0.1232060348	 0.285435
H	 0.7540248235	-0.2216952223	 0.0093503712	 0.078447
H	-0.1700496939	 0.2779474891	 1.4432216221	 0.087255
H	-2.2847676089	 0.0570967874	 0.1308472831	 0.094507
H	-2.0345242957	-0.2170075048	-2.3266855755	 0.107888
H	-0.4752571634	-1.033076368	-2.1030639025	 0.098025
H	-3.2257133256	-2.1323732679	-1.2162964704	 0.114651
H	-1.8477334562	-3.1304698745	-1.7414846669	 0.092812
H	-0.1494313356	-3.6980634147	 0.0916104842	 0.109782
H	 0.4838719162	-2.3244170978	 1.0260942859	 0.110586
H	-1.7440101119	-4.2121764874	 1.9344581627	 0.10193
H	-1.0802662642	-2.8533094978	 2.8796435759	 0.101279
