15
gdb 23307	3.05469	1.3115	0.96835	3.1351	76.02	-0.2002	-0.0241	0.1762	1157.5742	0.112976	-453.890337	-453.882557	-453.881613	-453.922393	30.344	
N	 0.0900429207	 1.359430002	 0.1284452731	-0.5965
C	-0.0319729878	-0.0013773607	 0.0361335805	 0.37529
C	-1.1535200546	-0.7640203309	-0.0376580573	-0.317048
C	-0.7919769683	-2.1728366295	-0.0124143805	 0.4299
N	-1.4986266319	-3.2419694533	 0.0110714538	-0.267964
O	-2.8713004673	-2.940084591	-0.0140149308	-0.39323
C	 0.7053158867	-2.2612973334	 0.0096058823	-0.05424
O	 1.3439596219	-1.6578552946	-1.1335205738	-0.252842
C	 1.191436941	-0.8771813365	 0.0643840899	-0.07147
H	 0.9457917166	 1.7668708375	-0.216159297	 0.261522
H	-0.730595346	 1.9093671447	-0.076754958	 0.261076
H	-2.1674399746	-0.4084368798	-0.1461659091	 0.107658
H	-3.2710661894	-3.8154867019	 0.0139274233	 0.305399
H	 1.2145641672	-3.1142009509	 0.4435186425	 0.109906
H	 2.1078245757	-0.5607539618	 0.554991391	 0.102543
