20
gdb 10724	2.42009	1.81046	1.34152	1.5201	70.43	-0.2591	0.0669	0.326	1015.934	0.175484	-386.121876	-386.112578	-386.111634	-386.155698	34.806	
C	 1.475459571	-0.8830206299	-1.1449019934	-0.422833
C	 0.3522490567	-0.393004851	-0.2293561567	 0.066652
O	-0.9028761226	-0.9338126391	-0.6381182707	-0.433103
C	 0.6318319966	-0.6512372973	 1.2572754458	 0.321985
C	 1.8624753434	 0.0424032121	 1.8104998283	-0.13614
O	 1.8323009002	 1.4509831531	 1.6204479139	-0.418435
C	-0.5516250067	-0.7675092421	 2.191467738	-0.3136
C	 0.272698569	-1.9871899741	 1.8565456265	-0.319663
H	 1.6604677168	-1.9548555115	-0.9985228272	 0.107798
H	 1.1971525419	-0.7178218895	-2.1894519683	 0.122846
H	 2.411560845	-0.351402639	-0.9554253656	 0.133152
H	 0.244289883	 0.6894292536	-0.3573431855	 0.095029
H	-0.7724004969	-1.8681163742	-0.8307500247	 0.279838
H	 1.9728679573	-0.2144611907	 2.8762432221	 0.08303
H	 2.7716435026	-0.2983126399	 1.3042028397	 0.110466
H	 1.0224673801	 1.7760705457	 2.0289510012	 0.283567
H	-0.4628368101	-0.3519794414	 3.1907512126	 0.101281
H	-1.5380572544	-0.703276195	 1.7495320169	 0.131156
H	-0.1842014659	-2.7350222006	 1.2170696148	 0.096787
H	 0.9244408731	-2.4004796893	 2.6193807821	 0.110185
