22
gdb 116328	2.93989	1.28085	0.99251	1.9394	82.39	-0.2178	0.0792	0.297	1264.0113	0.195761	-404.317479	-404.308751	-404.307807	-404.35103	33.465	
C	-0.0825429843	 1.3850103621	 0.0209286364	-0.238383
O	 0.1116350414	-0.0084093721	-0.0628101054	-0.24865
C	 0.6917902017	-0.5945810386	 1.094156742	 0.122266
C	-0.2852864009	-0.7268751638	 2.2706021364	-0.238625
C	 0.3447657996	-1.6098678659	 3.3523057028	-0.204869
C	 0.550684862	-3.0368718515	 2.8363489284	-0.141722
N	 1.2264659027	-3.1213364097	 1.5272807122	-0.105822
C	 0.3890879685	-3.0756663098	 0.3320273218	-0.234446
C	 1.2726022745	-1.9296501328	 0.6639266816	-0.01692
H	 0.8541028646	 1.9127028001	 0.2619241999	 0.102337
H	-0.4308498115	 1.7198195814	-0.9594366283	 0.12701
H	-0.8364749159	 1.6653834393	 0.7710434612	 0.105672
H	 1.5307382128	 0.0411600378	 1.4291031312	 0.062291
H	-0.5228643905	 0.2640432298	 2.6700040154	 0.096406
H	-1.2280181626	-1.1622214155	 1.9170711303	 0.104208
H	 1.3111753672	-1.182326177	 3.6510066877	 0.102418
H	-0.2772746272	-1.6353607435	 4.2535852354	 0.097875
H	 1.1525120928	-3.6061048115	 3.5540976187	 0.103403
H	-0.4214979396	-3.5429408025	 2.7706778862	 0.098293
H	 0.6611544907	-3.7631558733	-0.4652665312	 0.109704
H	-0.6834214089	-2.9398361407	 0.4599387648	 0.108513
H	 2.2059233829	-1.8342123226	 0.1122634924	 0.089042
