19
gdb 54394	3.24738	1.3657	1.20855	2.6729	79.99	-0.2355	-0.0126	0.2228	1095.1146	0.158963	-385.876609	-385.868406	-385.867461	-385.910387	31.555	
C	-0.0215830596	 1.4802377565	 0.0326311711	-0.489212
C	 0.0660075712	-0.0357805808	 0.0869025481	 0.244864
O	 1.1297439404	-0.6149278889	 0.1139825936	-0.296037
C	-1.234278647	-0.7930864671	 0.077140381	 0.23823
C	-2.101694065	-0.9151628635	-1.2409951391	-0.251138
C	-2.7337380178	-2.0919983583	-0.4237000262	-0.087314
C	-1.281958268	-2.3567266159	 0.1081536186	-0.244415
C	-3.3245364217	-1.314695491	 0.7605489607	-0.08851
C	-2.3556374021	-0.4554317286	 1.0843631299	-0.139454
H	 0.9762777763	 1.90200376	-0.0934553534	 0.141458
H	-0.6733148662	 1.8043978058	-0.7857656357	 0.138646
H	-0.4625264655	 1.8666464672	 0.9587665642	 0.141422
H	-2.7470739136	-0.0712114459	-1.4941510967	 0.097627
H	-1.5173422373	-1.244943633	-2.1056159735	 0.106552
H	-3.3342375627	-2.8675106321	-0.8971969674	 0.066804
H	-0.615194785	-2.8156027118	-0.6261218612	 0.108753
H	-1.1818407041	-2.8363847425	 1.0833383728	 0.100225
H	-4.2968797434	-1.4633315408	 1.2082538959	 0.105436
H	-2.3104137289	 0.289648981	 1.8655050473	 0.106062
