19
gdb 92140	2.83076	1.75289	1.55533	1.7664	72.45	-0.2292	0.0784	0.3076	936.4736	0.162826	-423.028064	-423.021141	-423.020197	-423.059619	28.725	
O	-0.2323996015	 1.4406833055	 0.4531250404	-0.434983
C	 0.034349114	 0.1203219012	-0.0134315156	 0.121448
C	 0.9785254508	-0.6549989484	 0.9514055778	-0.246761
C	 0.255484978	-1.8628512823	 1.5512768829	 0.066145
C	-0.1363518921	-2.8467054547	 0.4308443693	-0.236399
C	-1.3582525905	-2.1487593988	-0.1389495272	-0.117205
C	-1.8707827851	-1.3010151298	 0.9935710671	 0.083653
O	-1.0013969783	-1.4169985937	 2.1013190403	-0.274134
C	-1.2768975484	-0.6264707548	-0.217053768	-0.10994
H	-0.7304847023	 1.3484474603	 1.2738378158	 0.282137
H	 0.5276336941	 0.2735448114	-0.9780910204	 0.088822
H	 1.8860243884	-0.9869336489	 0.4350526036	 0.09832
H	 1.2896216554	 0.0343180536	 1.7414329385	 0.108036
H	 0.8222735637	-2.3197338092	 2.3650499023	 0.0818
H	 0.6789652604	-2.9907678627	-0.2840563015	 0.102879
H	-0.4179520981	-3.8238610258	 0.836394938	 0.106169
H	-2.0234966672	-2.6768598466	-0.8109890736	 0.089446
H	-2.9091131527	-1.202833957	 1.2841813846	 0.099243
H	-1.9688372487	-0.1427714192	-0.8993653044	 0.091326
