13
gdb 49864	3.6552	1.29543	1.05708	2.7145	58.38	-0.2712	-0.0528	0.2184	1055.742	0.087906	-493.712379	-493.704998	-493.704054	-493.745224	26.223	
O	-0.8249500969	 0.8677719019	 0.2544131996	-0.231463
C	 0.2969983253	 0.7050452629	-0.1398817781	 0.14667
C	 1.3943980751	 1.7471861648	 0.0715427491	 0.0033
O	 2.67984508	 1.1209575973	-0.0439875986	-0.245216
C	 3.5187482645	 1.8046794828	-0.887484923	 0.469405
O	 4.6782300835	 1.5498313566	-0.9943691639	-0.321041
C	 2.7103988385	 2.8712662605	-1.585097736	-0.124459
O	 1.6024259037	 2.2896610675	-2.2966812908	-0.236451
C	 1.3697599255	 2.8311076117	-0.9988000832	 0.004693
H	 0.6244906549	-0.19469238	-0.6991453225	 0.117619
H	 1.2887721054	 2.1834086769	 1.0705563312	 0.133922
H	 3.1927372874	 3.7324430039	-2.0311400036	 0.143269
H	 0.6970210431	 3.6781178933	-0.9243523301	 0.139752
