15
gdb 71213	2.43475	2.1177	1.64186	2.5559	63.81	-0.2288	-0.035	0.1938	864.219	0.111931	-457.713158	-457.706179	-457.705235	-457.744415	27.225	
C	 0.0401936579	 1.5028365367	 0.0135786556	-0.521014
C	 0.0355239828	 0.0122968551	 0.0917184541	 0.244128
O	 0.7805014411	-0.7079599623	-0.9654202041	-0.331879
C	 0.8283425016	-1.8098844475	-0.0443216516	 0.072633
C	-0.6485434943	-2.1403146345	 0.41500379	-0.105844
O	-0.3331503907	-1.7262373943	 1.7874709773	-0.301951
C	 0.699634226	-0.9155850224	 1.192393442	 0.022145
C	-1.2714548073	-0.8076760063	-0.0497281089	 0.489685
O	-2.368641631	-0.4970393767	-0.4024391169	-0.325613
H	 1.0607764166	 1.8943055246	-0.0023544442	 0.133865
H	-0.4809467397	 1.8358224524	-0.8888356812	 0.152232
H	-0.4845755699	 1.9187945094	 0.8791913783	 0.142598
H	 1.5551662293	-2.5877191936	-0.2672920166	 0.111082
H	-1.1764344351	-3.0850256786	 0.3252508369	 0.109385
H	 1.4678541227	-0.548223452	 1.8704674093	 0.10855
