16
gdb 12984	2.75343	2.55432	1.58813	2.1249	64.55	-0.2365	-0.0209	0.2156	823.9994	0.129997	-383.748516	-383.74115	-383.740205	-383.780022	27.59	
C	-0.2477882343	 1.5304711853	-0.0015888796	-0.480778
C	 0.0622142445	 0.0561494089	 0.0196120483	 0.176268
C	-0.7114626068	-0.9169314294	 0.9297295829	-0.358754
C	 0.7548355756	-0.7216439268	 1.1152642387	 0.077637
O	 1.6089939666	-1.7091322291	 0.5846890206	-0.261435
C	 1.4029125891	-1.8026890424	-0.8171107669	-0.195512
C	 0.5547347228	-0.591517232	-1.2352052701	 0.330429
O	 0.3853893916	-0.2094033905	-2.3657327607	-0.320565
H	 0.6295939294	 2.1147037778	-0.2963085247	 0.131398
H	-1.0425281969	 1.7397437859	-0.724182699	 0.141824
H	-0.5767649794	 1.879866447	 0.9811388968	 0.116872
H	-1.3832966797	-0.441741009	 1.6367481428	 0.127779
H	-1.0694796575	-1.8579771465	 0.5258642022	 0.128563
H	 1.1614410517	-0.2571897142	 2.0061150676	 0.114758
H	 2.3679945321	-1.7836353748	-1.3338136634	 0.142083
H	 0.8919803613	-2.7373056502	-1.0895367154	 0.129433
