23
gdb 88662	3.93891	0.80659	0.73445	1.283	86.96	-0.2493	0.0768	0.3261	1621.7696	0.205256	-388.267604	-388.257916	-388.256972	-388.30259	36.838	
C	 0.0390270711	 1.5542965094	-0.2911114425	-0.407069
C	 0.0007895698	 0.0616920733	-0.0423335816	 0.005704
C	 1.2534550022	-0.7765309713	-0.1273468452	-0.309402
C	 0.56525665	-0.5849092849	 1.2067546894	-0.002829
C	 1.2164325311	 0.1912009134	 2.3188265589	 0.033124
C	 0.3386520745	 0.677177612	 3.5112447322	-0.257904
C	 1.5021864806	 0.3321887786	 4.459082517	 0.146542
O	 1.096997747	-0.2402318296	 5.6814264902	-0.432017
C	 2.0913135289	-0.5834952771	 3.3507520089	-0.284263
H	 0.9716538085	 2.0049802463	 0.0602964047	 0.115119
H	-0.0409560123	 1.7695310787	-1.3625794728	 0.115068
H	-0.788189936	 2.0670496165	 0.2127216455	 0.116611
H	-0.8991445616	-0.4152773921	-0.4233615812	 0.080268
H	 1.2106226844	-1.7483597953	-0.6071593525	 0.10589
H	 2.1916480076	-0.2502694444	-0.2800596019	 0.104103
H	 0.0022136497	-1.444660203	 1.5657936364	 0.073909
H	 1.7894689984	 1.0303229728	 1.9126293559	 0.062659
H	-0.0404631811	 1.7015236663	 3.50255863	 0.095136
H	-0.4927876261	-0.0118110437	 3.6914148805	 0.108224
H	 2.147258027	 1.207694863	 4.6259277256	 0.061649
H	 1.8841484287	-0.431330661	 6.2013263827	 0.279638
H	 1.72417514	-1.6061160421	 3.4855136746	 0.101553
H	 3.1744768578	-0.6041164259	 3.2044530652	 0.088286
