15
gdb 12906	3.36429	1.8257	1.52973	3.2326	65.59	-0.2665	0.0298	0.2963	854.4875	0.119103	-362.645377	-362.63815	-362.637206	-362.676638	27.439	
O	-0.0793777619	 1.4231575097	-0.0282664602	-0.451718
C	-0.0171548215	 0.0497501571	-0.0695714457	 0.393174
C	 0.6939057578	-0.7813104779	-1.1453251043	-0.308828
C	-0.5009023946	-1.7944235881	-1.092367918	-0.233207
C	-1.1777835434	-0.9160539579	-0.0333321774	-0.113423
C	-0.26943149	-0.7770688395	 1.189213644	-0.25742
C	 0.6044892972	-1.825214145	 1.6364243213	 0.296871
N	 1.3272469047	-2.6665882889	 1.9683774198	-0.353456
H	 0.7524307483	 1.7611381636	 0.3242094637	 0.2945
H	 0.7345767861	-0.2437288628	-2.0943881068	 0.119767
H	 1.6874203528	-1.1631415146	-0.8965373629	 0.121436
H	-1.0597717676	-1.8288508392	-2.0286045989	 0.116755
H	-0.2586974269	-2.8126657214	-0.7793585973	 0.129859
H	-2.2383047034	-0.723952627	 0.071269213	 0.110149
H	-0.7126386276	-0.185076118	 1.9837300096	 0.135541
