15
gdb 99421	1.71525	1.51501	1.32689	1.2203	79.41	-0.2695	-0.0099	0.2596	1120.4804	0.106373	-383.346839	-383.336778	-383.335834	-383.381359	36.459	
C	 0.0558041392	 1.4020408474	 0.0091012635	-0.249835
O	 0.0044567974	-0.0182442221	 0.0019367003	-0.244131
C	-1.3064623557	-0.5809421391	 0.0113698289	-0.199921
C	-1.1246832427	-2.0430727952	 0.0017818204	 0.320451
C	-0.99333621	-3.2350649557	-0.0058245782	-0.404643
C	-2.055263423	-0.1898680433	 1.2277059284	 0.357365
C	-2.6432608965	 0.1393888825	 2.2213114278	-0.46932
C	-2.0782081757	-0.1768815001	-1.1862339691	 0.357355
C	-2.6849499059	 0.1630181636	-2.164873463	-0.469312
H	 1.1167068162	 1.6577955048	 0.0004119808	 0.134607
H	-0.4289812655	 1.8275429976	-0.87801644	 0.124343
H	-0.4120131019	 1.8179103684	 0.909794112	 0.124344
H	-0.8732508418	-4.2905327135	-0.0124591136	 0.203704
H	-3.1697267835	 0.4205579594	 3.1003170345	 0.207497
H	-3.2279458806	 0.4536888753	-3.0306327126	 0.207496
