16
gdb 45064	2.47411	1.74873	1.16931	3.0037	74.52	-0.2563	0.0171	0.2734	1037.5928	0.124293	-400.710798	-400.70308	-400.702136	-400.743294	29.87	
N	 0.143703848	 0.9479587489	 0.7189148136	-0.519595
C	 0.067218947	-0.1170815402	 0.0545583049	 0.39882
O	 1.0481432746	-0.602578956	-0.7678241493	-0.235855
C	 0.6970889321	-1.8777070166	-1.2725950917	 0.08095
C	 0.5583150916	-2.9798722098	-0.2644022105	-0.318242
C	-0.667736057	-2.2538460677	-0.781437513	-0.065767
C	-1.1566313835	-1.0539353063	 0.0264431176	-0.300782
C	-1.6760392204	-1.3660560606	 1.3507025248	 0.366492
C	-2.1128982016	-1.6535631444	 2.4315905542	-0.464553
H	 1.0476248442	 1.4007218751	 0.5752955721	 0.22814
H	 1.0646308179	-2.0375111449	-2.2779373478	 0.115906
H	 0.7100488201	-3.9973048504	-0.6070129328	 0.12536
H	 0.8854938886	-2.7850750875	 0.7518495974	 0.140659
H	-1.3792764652	-2.7808408579	-1.4033865004	 0.109713
H	-1.9372670113	-0.5359100413	-0.5461241658	 0.139099
H	-2.495321345	-1.8895986105	 3.3936731666	 0.199656
