16
gdb 127513	2.41877	1.62154	0.98024	1.1135	69.32	-0.19	0.0394	0.2293	1147.3484	0.124052	-471.212451	-471.202853	-471.201909	-471.246633	34.051	
C	 0.0405189985	 1.3990356763	-0.1021672119	-0.327583
N	 0.0891818754	-0.0374318521	 0.0037061845	-0.008321
N	 0.0179497049	-0.8136004504	-1.1128160105	-0.38636
C	 0.0432187225	-2.0547207638	-0.6532811907	 0.332106
O	 0.0181816749	-3.1447919979	-1.4595120265	-0.450742
C	 0.1037272405	-2.1084663864	 0.7496442963	 0.092017
O	 0.1319437567	-3.189731772	 1.5889117417	-0.471225
C	 0.1241717026	-0.7834075365	 1.1453089563	 0.295674
N	 0.2409010209	-0.2008824222	 2.4173255776	-0.616774
H	 0.4939958382	 1.8277325226	 0.7939204772	 0.15106
H	 0.6060447502	 1.7050832673	-0.984343042	 0.147361
H	-0.9873756254	 1.7714511573	-0.1983856899	 0.127027
H	-0.0071192612	-2.8246652815	-2.3694990317	 0.303174
H	 0.2860935949	-3.9735186633	 1.0516481783	 0.304567
H	 0.5704731529	-0.8930496063	 3.0810562265	 0.258711
H	-0.6421559463	 0.162510099	 2.7643720548	 0.249307
