16
gdb 7332	4.34518	1.22881	1.04669	1.4705	62.58	-0.2504	-0.0687	0.1818	1148.1054	0.127314	-420.927396	-420.918176	-420.917232	-420.962493	31.038	
C	 0.4501049998	 0.9257561355	-0.2669019771	-0.38823
C	-0.5899217329	 0.2247729568	 0.5930761704	-0.057636
O	 0.027557012	-0.4670108145	 1.7041789737	-0.218973
C	 0.4760002005	-1.6968331194	 1.4635290558	 0.349233
O	 0.4121642011	-2.2828683923	 0.4091835463	-0.353943
C	 1.1103849898	-2.3303500183	 2.7272488507	 0.285936
C	 1.600427157	-3.7432336338	 2.529784747	-0.470943
O	 1.1909844221	-1.714292207	 3.7578726413	-0.262289
H	 1.1087228882	 0.1981490023	-0.7468756382	 0.144321
H	-0.050724317	 1.5038751817	-1.0498105376	 0.125455
H	 1.0539285068	 1.6108273076	 0.3346031595	 0.133907
H	-1.2685073078	 0.9386180003	 1.0642491353	 0.123347
H	-1.1659829224	-0.4964798752	 0.008414699	 0.133979
H	 2.3466338012	-3.7723972132	 1.7294339471	 0.157183
H	 2.0254848354	-4.1159488386	 3.4617295496	 0.142111
H	 0.776788046	-4.3844725417	 2.200092777	 0.156542
