16
gdb 2352	5.66944	1.73916	1.68232	3.4019	61.32	-0.2421	0.0292	0.2713	802.9662	0.137487	-325.804528	-325.796982	-325.796038	-325.837212	26.655	
N	-0.2252471508	 1.3368181543	 0.6228896629	-0.529815
C	 0.0059386462	 0.2540637376	-0.1752551579	 0.400278
O	 1.0876087681	 0.0526217695	-0.6982119479	-0.373657
C	-1.1688312059	-0.6854176049	-0.3718053987	-0.070126
C	-1.5098201563	-1.0590708862	-1.8468373999	-0.214377
C	-1.6887240508	-2.5344901124	-1.4048646203	-0.213574
C	-0.8874345917	-2.1984750339	-0.1206310933	-0.214372
H	 0.527386222	 1.9870398623	 0.7803591742	 0.258403
H	-1.1147070014	 1.5079868044	 1.0560268759	 0.256797
H	-2.0578573345	-0.349002907	 0.170792308	 0.05407
H	-2.3583102287	-0.5499982334	-2.3097386477	 0.094411
H	-0.6222297806	-0.9281225031	-2.4701515443	 0.129094
H	-2.7338700368	-2.7705555525	-1.1838394351	 0.098429
H	-1.2893522722	-3.3108286594	-2.0612697595	 0.100929
H	 0.1796559781	-2.3960915143	-0.2461528972	 0.129095
H	-1.2270070346	-2.620981971	 0.8278089306	 0.094415
