21
gdb 85873	2.13395	1.51128	1.08967	1.553	84.34	-0.2516	0.0395	0.2911	1204.7466	0.179751	-387.054595	-387.044708	-387.043763	-387.088542	38.295	
C	-0.797986753	 1.4901811574	 0.0555740072	-0.447158
C	-0.1253590917	 0.1240162664	-0.0028496667	 0.31985
C	-1.1090550764	-0.9415640158	-0.4971271863	-0.43712
C	 1.2411828968	 0.0572543392	-0.7513211305	-0.302107
C	 1.8018386946	-0.8497348822	 0.3719766149	 0.164384
O	 3.1154550674	-0.689316138	 0.8128116653	-0.433263
C	 0.6162789266	-0.3798027109	 1.3054240428	-0.295579
C	 1.042068424	 0.6501655721	 2.2289054672	 0.307857
C	 1.4730009375	 1.4991351675	 2.9674731894	-0.440391
H	-0.1201997226	 2.2556220747	 0.4416559613	 0.123055
H	-1.1229344363	 1.7949873808	-0.9458585684	 0.111561
H	-1.6838253291	 1.4705804293	 0.7008226592	 0.113713
H	-1.4720622861	-0.69116387	-1.5000262425	 0.116159
H	-0.6510286836	-1.934533711	-0.5494870897	 0.116575
H	-1.9784679478	-1.0090144148	 0.1664213559	 0.116127
H	 1.2424987746	-0.3380582775	-1.7705167919	 0.097071
H	 1.7476290939	 1.0275850499	-0.7472116556	 0.099238
H	 1.6872946172	-1.9091813132	 0.1302515485	 0.094457
H	 3.1627959302	 0.1506862152	 1.2885367527	 0.280802
H	 0.1007461828	-1.1786959605	 1.8476220827	 0.095237
H	 1.8093235409	 2.2464508715	 3.6431975349	 0.199532
