14
gdb 27969	3.628	1.21027	0.90752	2.5192	74.59	-0.2495	-0.0737	0.1759	1181.3222	0.102622	-436.770724	-436.763561	-436.762617	-436.80253	27.067	
O	 0.4884139414	 1.3427188039	 0.3184436754	-0.416354
C	 0.2350690846	 0.0324092922	 0.134040886	 0.43377
N	 0.2896976845	-0.4408874694	-1.1013688344	-0.411401
C	 0.0360030047	-1.7492965807	-1.2797542999	 0.217496
C	 0.1110835479	-2.2284631232	-2.6885033404	 0.109524
O	-0.0876514738	-3.370129078	-3.0280715695	-0.257266
C	-0.2771914839	-2.6191210827	-0.2423527669	-0.175043
C	-0.3292175289	-2.098885825	 1.0514262034	-0.063222
C	-0.0710542716	-0.7540360227	 1.2555634872	-0.200787
H	 0.6751869856	 1.7089721059	-0.557420498	 0.302133
H	 0.3701576514	-1.4272720341	-3.4116478534	 0.086929
H	-0.4694197413	-3.6612067076	-0.4630111947	 0.131005
H	-0.5696136695	-2.7394783837	 1.8933475648	 0.120393
H	-0.097922001	-0.2991697847	 2.2378503204	 0.122824
