22
gdb 76411	2.77156	1.15411	1.04922	0.6618	83.34	-0.2221	0.0722	0.2943	1286.4798	0.191936	-404.29618	-404.286072	-404.285128	-404.33093	37.979	
C	 1.9979922257	 0.9203347682	-0.5383268475	-0.427612
C	 1.2067984378	-0.3058414941	-0.1382566314	-0.08268
C	 1.8439556553	-1.4339170292	 0.6519132017	 0.043455
O	 3.1487223766	-1.2935927113	 1.1416586266	-0.426377
C	 0.7765452497	-0.5853135384	 1.2977902346	 0.29929
C	 1.1677395912	 0.3810562017	 2.4000200207	-0.48797
N	-0.5014190966	-1.2718106858	 1.3563314291	-0.104401
C	-0.9979134308	-1.8208933785	 2.6108455119	-0.233819
C	-1.6565493003	-0.6403685111	 1.9794999591	-0.228794
H	 2.8338569006	 1.1055360122	 0.1401778602	 0.123978
H	 2.4116135516	 0.7979089323	-1.5460463808	 0.112417
H	 1.3693731424	 1.817299896	-0.5523420269	 0.11873
H	 0.4737095848	-0.6354825271	-0.868562657	 0.088525
H	 1.5565962496	-2.4527141953	 0.3978006212	 0.089896
H	 3.7550637717	-1.3785331025	 0.3984240334	 0.289405
H	 2.2324671985	 0.607986831	 2.3448941301	 0.142978
H	 0.6104283404	 1.3214947142	 2.3340316849	 0.114391
H	 0.9897977902	-0.0494049852	 3.3909616685	 0.117722
H	-1.4455599188	-2.8086758575	 2.5403696879	 0.113395
H	-0.4390525408	-1.6449593945	 3.5271303997	 0.113641
H	-1.5275766174	 0.3171210078	 2.4786506975	 0.111195
H	-2.5971260712	-0.7482228731	 1.4455447865	 0.112637
