22
gdb 82650	2.3234	1.74743	1.34822	0.6905	86.85	-0.2008	0.0916	0.2925	1095.1793	0.193324	-367.157126	-367.148023	-367.147079	-367.190131	35.386	
C	-0.0037304124	 1.5467326272	-0.0240737462	-0.336073
N	-0.0222305167	 0.094107585	 0.0843547128	-0.112853
C	-1.2644500575	-0.5898268293	 0.536573284	-0.072518
C	-1.6425980035	-0.0101364013	 1.9337191881	-0.255723
C	-0.3300449303	-0.6228901374	 2.4108002688	-0.180682
C	-0.3520029302	-1.6490012762	 1.2817715531	 0.279438
C	-0.2646055871	-3.13792484	 1.2320132636	-0.532962
C	 0.661118981	-0.5515653253	 1.2052191466	 0.324029
C	 2.1503493169	-0.5782056163	 1.3518434174	-0.510603
H	 0.9893606129	 1.8676278251	-0.3562420799	 0.117605
H	-0.7242418018	 1.8577072472	-0.7882543082	 0.11573
H	-0.235910641	 2.084118173	 0.9090722542	 0.099717
H	-2.0210841528	-0.7817310676	-0.2245068151	 0.068486
H	-1.8138974671	 1.067666374	 2.0267439072	 0.087025
H	-2.500499123	-0.5489485263	 2.34617798	 0.097583
H	 0.0172847065	-0.766716638	 3.4273477662	 0.075733
H	-1.1897433472	-3.6115921852	 1.5807475506	 0.120614
H	-0.0706662909	-3.4928465236	 0.2133483461	 0.126781
H	 0.5490488455	-3.4997167481	 1.8703677801	 0.121511
H	 2.6268001824	-0.9135112315	 0.4244224951	 0.125393
H	 2.5491414742	 0.4122439966	 1.6002195732	 0.121526
H	 2.4467031321	-1.2603523919	 2.1550757222	 0.120241
