20
gdb 9349	7.41522	0.77649	0.71846	1.885	72.95	-0.2646	0.0217	0.2862	1632.1555	0.174663	-386.192464	-386.18235	-386.181406	-386.229117	34.197	
C	 0.1152659511	 1.4534634044	 0.008145431	-0.383512
C	-0.0245534125	-0.0713567577	 0.0011548446	-0.189158
C	-1.4807719869	-0.5067131106	 0.0130654763	-0.042378
O	-1.5115929328	-1.946128461	 0.0054339574	-0.249367
C	-2.7365707049	-2.5104769155	 0.0147978287	 0.44321
O	-3.7635803232	-1.8786019332	 0.0285839698	-0.355133
C	-2.6318133203	-4.0228705241	 0.0057884093	-0.301575
C	-3.9948099701	-4.7103095041	 0.0134571695	-0.3696
H	 1.1679647693	 1.7493534865	-0.0005362372	 0.119782
H	-0.3639364189	 1.9022795786	-0.8686944679	 0.120514
H	-0.3466338073	 1.8925882006	 0.8990650914	 0.120514
H	 0.4647002079	-0.4925675807	-0.8846479471	 0.108171
H	 0.4819508289	-0.5022082485	 0.8725069417	 0.108169
H	-2.0066551075	-0.1416552906	 0.9021660162	 0.117712
H	-2.0239638749	-0.131948906	-0.8614755354	 0.117703
H	-2.0411824996	-4.3102428002	-0.8722180532	 0.130378
H	-2.0269368831	-4.3194323031	 0.8709788188	 0.130416
H	-3.8755062021	-5.7973045437	 0.0070436044	 0.11045
H	-4.5693305698	-4.4301250247	 0.899909701	 0.131891
H	-4.583708163	-4.4213762562	-0.8606797093	 0.131813
