15
gdb 86	6.14183	5.17679	3.79297	0.1068	52.92	-0.2633	0.0893	0.3526	439.1643	0.137025	-196.409349	-196.403398	-196.402453	-196.437676	22.258	
C	-0.0391320385	 1.5045630543	 0.049789134	-0.44752
C	 0.0098585642	-0.0111387962	 0.0124861886	 0.39102
C	-1.2416798109	-0.666630443	-0.5398997854	-0.447519
C	 1.3380338706	-0.6689574802	-0.2740043043	-0.292637
C	 0.7512644169	-0.722215861	 1.118625713	-0.292639
H	 0.8863303999	 1.9249004021	 0.4557935831	 0.109883
H	-0.1818387829	 1.9204574284	-0.9548929106	 0.111882
H	-0.8683207582	 1.8581571812	 0.6743964837	 0.111881
H	-1.4357088955	-0.3434438724	-1.5697641083	 0.111881
H	-1.1532675722	-1.7575779956	-0.5443383228	 0.109882
H	-2.1222141635	-0.4057081966	 0.0595136103	 0.111882
H	 1.3439837404	-1.5823520773	-0.8600508441	 0.105501
H	 2.2019689746	-0.0332908426	-0.4392932599	 0.105501
H	 1.2194957647	-0.1224601776	 1.8924657976	 0.105501
H	 0.3615331904	-1.6715371735	 1.471719315	 0.105501
