18
gdb 98422	2.64924	1.26547	0.99442	4.2565	70.97	-0.2305	0.02	0.2505	1230.9707	0.146081	-476.237196	-476.227711	-476.226767	-476.271529	35.119	
C	 0.1190290107	 1.4389549641	 0.0708315916	-0.334883
N	 0.1203438016	-0.0051120496	-0.045044866	-0.32477
C	 0.5346758827	-0.6533872729	-1.1559641021	 0.393624
O	 0.89127696	-0.0883538676	-2.1927764065	-0.435607
C	 0.5704169935	-2.1468297685	-1.0377749066	 0.19525
O	 0.1820470765	-2.6846188329	 0.2012723691	-0.467626
C	 0.3208524894	-2.9564710208	-2.3043654348	-0.382623
C	 1.7211875789	-2.8336430471	-1.7738262036	 0.125287
O	 2.7015844966	-2.118237672	-2.4261337274	-0.424675
H	 0.852159198	 1.7813214601	 0.8098775826	 0.131924
H	 0.3823033563	 1.8487583844	-0.9049164402	 0.170983
H	-0.869867654	 1.808379742	 0.3618138286	 0.127929
H	-0.0558075145	-0.5838731513	 0.7617947755	 0.255325
H	-0.7478532501	-2.9323289008	 0.1383099522	 0.288628
H	-0.1963002182	-3.902149803	-2.1756613905	 0.114952
H	 0.0666154121	-2.3881789281	-3.1923961663	 0.140684
H	 2.1252799647	-3.6942921976	-1.2504113084	 0.120859
H	 2.3030327558	-1.2624107885	-2.6703619673	 0.30474
