18
gdb 87952	3.19251	1.23079	1.01957	2.3625	75.01	-0.2274	0.0135	0.2409	1203.1625	0.147017	-439.091381	-439.082753	-439.081809	-439.124829	32.227	
C	-0.1420748643	 1.4007688989	-0.012405881	-0.477511
C	-0.1304106826	-0.0875468966	-0.0383229352	 0.405194
N	-1.1017595844	-0.8623610765	 0.2465007026	-0.361881
C	-0.6156133285	-2.2112193388	 0.0566807145	 0.268883
C	-1.1618834685	-3.3095839404	 0.9469343954	-0.379959
C	-1.62263404	-3.1898659701	-0.4886061764	 0.093098
O	-2.9008655443	-2.7358750868	-0.7928816878	-0.434921
C	 0.8456740782	-2.0836578388	-0.3744925809	-0.182285
O	 1.0514369773	-0.6513486306	-0.4079329408	-0.25671
H	 0.613445057	 1.7725626676	 0.6868410291	 0.149627
H	 0.107058578	 1.798088798	-1.00134786	 0.149588
H	-1.1264756669	 1.756616383	 0.2892785037	 0.152891
H	-0.4946112711	-4.1251747802	 1.2111146947	 0.110063
H	-1.8592912231	-3.0063904535	 1.7202155079	 0.127041
H	-1.2761643816	-3.9408684412	-1.1951872616	 0.09845
H	-2.921360873	-1.8010584471	-0.5429756636	 0.29517
H	 1.5516077078	-2.5167479712	 0.3418677171	 0.120876
H	 1.0550266199	-2.4859507756	-1.3711791578	 0.122388
