15
gdb 125942	4.48925	1.30506	1.06107	5.4614	67.04	-0.2611	-0.0394	0.2216	1082.8817	0.113544	-453.9028	-453.895729	-453.894784	-453.934791	26.89	
C	 0.2268053109	 1.5021133319	 0.0924444409	-0.400218
C	 0.0349524743	 0.0046913322	-0.0267380185	 0.115038
C	 0.7168383878	-0.6523565097	-1.2836328135	-0.390018
C	 1.4073004765	-1.8122154229	-0.6458121895	 0.286138
N	 2.0977947979	-2.8683555357	-0.9325449406	-0.190573
O	 2.4162731212	-3.4167533065	 0.2988634811	-0.169379
N	 1.9001031957	-2.6666205386	 1.3654287947	-0.23253
C	 1.2934360492	-1.6959443346	 0.7574513052	 0.426755
O	 0.6059049777	-0.6329068014	 1.1803124563	-0.268175
H	 1.2911844191	 1.755339782	 0.1018856057	 0.136833
H	-0.2441161197	 2.0066491126	-0.7570742414	 0.131598
H	-0.2288251599	 1.8770448313	 1.0121657104	 0.144386
H	-1.0300317719	-0.2491438154	-0.0127418483	 0.114348
H	-0.0214353668	-0.9331849159	-2.0378047863	 0.149785
H	 1.4290757281	 0.0369293308	-1.7495251062	 0.146012
