18
gdb 47534	2.85068	1.57523	1.12001	2.3071	73.12	-0.2588	0.0146	0.2734	1078.1642	0.149732	-439.074623	-439.067056	-439.066112	-439.106814	29.536	
N	-0.0191204379	 1.3552840685	-0.2203490685	-0.478336
C	-0.0200435865	 0.1109213185	 0.0066917595	 0.360193
C	-1.3042228485	-0.6847664835	 0.0683346844	-0.277596
C	-1.6037135446	-1.2493138168	 1.4502001617	-0.056961
C	-1.9658159692	-2.716797825	 1.5909304501	-0.329626
C	-0.6223256992	-2.2310446222	 2.0288228162	 0.104988
O	 0.4804394429	-2.5789312113	 1.2294458734	-0.231755
C	 1.407475551	-1.540520284	 1.1177216562	 0.016212
O	 1.1561463908	-0.6063391554	 0.0726563857	-0.254645
H	 0.943292372	 1.7003487404	-0.2488917098	 0.218783
H	-2.1136050735	-0.0294781963	-0.2576289245	 0.132585
H	-1.2170643415	-1.5042227459	-0.6519149359	 0.125534
H	-2.0626145367	-0.5507136486	 2.1428095439	 0.102414
H	-2.6737843529	-3.0149492483	 2.3557584544	 0.120475
H	-2.0014090549	-3.3052277751	 0.6807065173	 0.131138
H	-0.396414241	-2.1962543152	 3.0937032171	 0.095136
H	 1.4901301855	-0.9962786553	 2.0705725014	 0.09561
H	 2.3657718141	-1.9891934645	 0.8511260573	 0.125851
