13
gdb 132380	1.95093	1.74912	0.92274	2.7695	65.01	-0.225	-0.0089	0.2161	1118.961	0.089417	-502.069632	-502.062497	-502.061553	-502.101175	27.815	
N	 0.0167180095	 1.362322768	 0.1545569668	-0.565104
C	-0.0157412831	-0.0075458474	 0.0588017281	 0.423175
C	-1.2297248737	-0.7123808936	 0.0387559689	-0.357627
C	-1.1517143845	-2.0920205386	-0.0070078749	 0.373747
F	-2.2765446961	-2.8019871012	-0.0285858216	-0.071295
C	 0.0662860437	-2.7597098652	-0.0307655303	-0.454331
C	 1.1812468412	-1.9331249307	-0.0088749646	 0.361309
F	 2.3815910295	-2.5043702745	-0.0354683283	-0.072568
N	 1.1790128568	-0.6204897092	 0.0302020332	-0.38925
H	 0.9056625261	 1.7811618063	-0.0706225847	 0.263869
H	-0.7946499868	 1.8763724349	-0.1463689357	 0.257659
H	-2.1895495676	-0.2133215023	 0.0655894753	 0.105181
H	 0.1396775151	-3.8365283765	-0.0675803023	 0.125234
