16
gdb 30963	2.47857	1.37933	0.92111	4.8931	69.13	-0.192	0.0422	0.2342	1228.4953	0.125315	-471.244568	-471.235679	-471.234735	-471.27833	32.293	
C	 0.273890975	 1.3619966156	-0.2555884349	-0.333343
N	-0.3564990956	 0.1770583198	 0.3372905803	-0.391853
C	 0.4417942085	-0.6269377525	 1.1394361818	 0.322807
C	 0.7269577611	-1.9380901639	 1.068048427	 0.183308
N	 0.3553039027	-2.8848628913	 0.1231730962	-0.600812
O	 1.4921086695	-2.2969789512	 2.199893716	-0.238918
C	 1.6893566299	-1.1776250812	 2.9665444881	 0.474615
O	 2.2893304617	-1.1474107589	 4.0073074673	-0.407478
N	 1.0682673831	-0.1417451491	 2.2913441014	-0.414269
H	 1.1349871637	 1.1262648792	-0.8981024001	 0.120523
H	-0.4736819091	 1.8966647317	-0.845849002	 0.133718
H	 0.61517272	 2.0370163408	 0.5341842669	 0.130412
H	-0.7890828355	-0.4049202656	-0.3706466108	 0.24928
H	-0.2319616244	-3.6191148734	 0.5089777513	 0.249621
H	 1.1519288333	-3.3272989468	-0.325960593	 0.2495
H	 0.9103429464	 0.7522962668	 2.7224661444	 0.272888
