21
gdb 65504	3.03044	1.36093	1.16499	1.4373	81.54	-0.2543	0.0885	0.3428	1144.1998	0.182125	-387.037746	-387.029266	-387.028321	-387.070538	33.406	
C	-0.0381515545	 1.6686295447	 0.2143055828	-0.453104
C	 0.0184330131	 0.1505572468	 0.0296050652	 0.286712
C	 1.0763086801	-0.4289169966	-0.977862021	-0.302811
C	 1.6887010805	-1.2597927691	 0.1554210521	-0.01984
C	 2.1624789924	-0.3677165253	 1.2649722088	-0.302806
C	 0.6931780499	-0.6714826526	 1.1521527347	-0.070815
C	-1.3899564196	-0.3533858884	-0.2295000624	 0.043372
C	-2.0025053734	-0.4172138209	-1.5606849622	-0.191333
O	-1.5725308043	-1.6059855947	-0.8891530576	-0.239113
H	 0.9400408514	 2.0774247182	 0.4804759967	 0.117846
H	-0.3693169053	 2.1636166871	-0.7054271031	 0.114431
H	-0.7392043948	 1.9428153976	 1.0116379488	 0.113383
H	 0.6114243184	-1.0481894323	-1.7458080004	 0.121307
H	 1.7402974164	 0.3032192922	-1.4495934072	 0.085743
H	 2.0205285899	-2.2859161762	 0.0605481616	 0.086544
H	 2.6666618515	-0.8693347076	 2.0852411043	 0.110516
H	 2.5549357977	 0.6236025406	 1.0507515617	 0.101987
H	 0.1531039241	-1.1700897741	 1.9495807307	 0.081127
H	-2.0651558824	-0.2089327138	 0.6183640094	 0.088722
H	-3.080063416	-0.3061631815	-1.6705140985	 0.115846
H	-1.4162997751	-0.1419346541	-2.4364457744	 0.112286
