15
gdb 108303	2.81916	1.4287	1.10057	2.9056	61.15	-0.2664	-0.0207	0.2457	1071.0922	0.111973	-494.88214	-494.874305	-494.873361	-494.915027	28.651	
O	 0.0049940921	 1.4846435042	 0.0721563369	-0.409028
C	 0.1133040823	 0.0751689325	 0.139683751	-0.167301
C	-1.2400393509	-0.5697733643	 0.0250934088	 0.382018
C	-2.3145144671	-0.4695073763	 1.1168029983	-0.121744
O	-2.6568909814	-1.87398162	 0.9486870345	-0.28443
C	-1.6320724174	-2.0598870633	-0.0442907008	-0.153377
C	-2.1455859564	-1.6979521812	-1.4520452267	 0.453751
O	-2.6536626772	-2.2218884116	-2.3850847093	-0.309181
O	-1.8256718002	-0.3558574347	-1.3064186995	-0.301772
H	-0.3650743898	 1.7018961572	-0.7914543834	 0.300704
H	 0.7779187038	-0.3266093032	-0.639830413	 0.107377
H	 0.5544926704	-0.1600750562	 1.1133575785	 0.126171
H	-1.9244741164	-0.2806658671	 2.1224610026	 0.124866
H	-3.1498805754	 0.2009562887	 0.8986525968	 0.133187
H	-1.0122701863	-2.9443619846	 0.1043952753	 0.11876
