17
gdb 108460	2.39825	1.73425	1.25723	5.3311	70.58	-0.2435	0.0106	0.2541	1023.9475	0.136513	-455.100531	-455.092464	-455.09152	-455.13307	30.708	
O	-0.1682405412	 1.4682424789	-0.0420667198	-0.422109
C	-0.0475784601	 0.0908252245	 0.2406310667	-0.149136
C	-1.3688227202	-0.6057893207	 0.0381269812	 0.348849
O	-2.3725267887	-0.3605182859	 1.0537867249	-0.311641
C	-2.7248050604	-1.7586831864	 1.1305349731	-0.094095
C	-1.745162965	-2.1250886212	 0.0005689151	-0.114581
N	-2.2340155916	-1.9024702556	-1.3639821913	-0.344987
C	-1.9862494263	-0.5317010522	-1.3610560141	 0.376656
N	-2.1322759804	 0.4541680559	-2.1413986039	-0.575004
H	-0.642702019	 1.5504758989	-0.8838251796	 0.305382
H	 0.7056890217	-0.4039872512	-0.3972421199	 0.089684
H	 0.2778283587	-0.0015124782	 1.282013179	 0.110895
H	-2.4589576669	-2.17986488	 2.1079172041	 0.113092
H	-3.7863547783	-1.9424458532	 0.9282169641	 0.104739
H	-1.0617289851	-2.9644520946	 0.1239806859	 0.10284
H	-2.9790007555	-2.3960260108	-1.8370648293	 0.243085
H	-2.6125339717	 0.2162115521	-3.0100760761	 0.216331
