23
gdb 95292	2.07427	1.7746	1.35854	1.3516	84.5	-0.2454	0.0789	0.3243	1108.3783	0.206533	-388.29996	-388.291068	-388.290123	-388.333146	34.972	
C	-0.5849787604	 1.400877695	-0.0017948262	-0.418414
C	-0.011628058	-0.0052389301	-0.0092093263	 0.092064
O	 0.8676854115	-0.150983933	-1.1232885602	-0.267539
C	 1.5533063092	-1.3818163076	-0.9222964723	-0.097645
C	 1.8475519179	-1.4666445725	 0.5807050954	-0.075505
C	 3.0232616479	-0.592965931	 1.0912262582	-0.216365
C	 2.0200243987	 0.4903698382	 1.5686111113	-0.273921
C	 0.8224841347	-0.4489448426	 1.2094377077	 0.342825
C	-0.0113672871	-0.9205364273	 2.3898747645	-0.487274
H	 0.2009323269	 2.1537735261	 0.0989674195	 0.124437
H	-1.1200067264	 1.5933656808	-0.9357505177	 0.126157
H	-1.2906406671	 1.5205054937	 0.8262315602	 0.115345
H	-0.8452470813	-0.7259731154	-0.1154488842	 0.052429
H	 0.9172711606	-2.2266311522	-1.2349841488	 0.082915
H	 2.4488042558	-1.3739222549	-1.5510545567	 0.102436
H	 1.8228790577	-2.495066342	 0.9486095609	 0.062501
H	 3.5855505094	-1.0591876306	 1.9039302524	 0.096998
H	 3.7336858356	-0.273980806	 0.3232587029	 0.097597
H	 2.0842495259	 0.7599570232	 2.6260264365	 0.092569
H	 2.0572550353	 1.4076925529	 0.9779460481	 0.105225
H	-0.6094598189	-0.1011608781	 2.806868848	 0.116044
H	-0.7002174171	-1.7215022204	 2.0974840146	 0.112719
H	 0.6229066993	-1.3038461863	 3.1960458224	 0.114402
