16
gdb 22764	2.02108	1.49946	1.00117	4.5968	73.56	-0.2582	-0.0222	0.236	1194.0464	0.123099	-434.006831	-433.997806	-433.996862	-434.040981	32.469	
C	-0.8164172044	 1.2876859706	 0.0428634357	-0.381728
C	-0.0469596655	-0.0214900257	-0.0338651567	-0.043969
N	 1.2440767971	 0.0491484029	-0.7942558677	-0.322759
C	 2.006090323	-0.6161501281	 0.2983187793	-0.227805
C	 3.2290126081	 0.0805741829	 0.7021571509	 0.32605
N	 4.1998527904	 0.6277299679	 1.0063064047	-0.327198
C	 0.7602198529	-0.4617143923	 1.1696330654	 0.401233
N	 0.4626218189	-0.6069377467	 2.3860470847	-0.221023
O	 1.5591708636	-1.0394839841	 3.1347253553	-0.378816
H	-0.1633336128	 2.094000992	 0.3850367663	 0.136109
H	-1.2102393071	 1.5545436705	-0.9427250286	 0.123114
H	-1.6568594158	 1.1925789749	 0.7370622292	 0.131814
H	-0.7077572804	-0.8292650731	-0.3822462177	 0.097247
H	 1.2570976364	-0.460206956	-1.6702552749	 0.232962
H	 2.2496139415	-1.6746044572	 0.127827632	 0.137465
H	 1.2104556939	-1.0567879684	 4.0331374321	 0.317302
