18
gdb 72126	2.44176	2.25902	1.74583	1.8703	75.15	-0.2264	-0.0016	0.2247	861.6244	0.150851	-401.909597	-401.90315	-401.902206	-401.939811	28.071	
O	 0.1320683983	 1.3840103697	-0.0956894614	-0.484849
C	 0.0401056112	 0.003796883	-0.0492754931	 0.407563
C	 0.1968797796	-0.8292019031	-1.3137496272	-0.224442
N	-0.4617811606	-1.9480697539	-0.5337962005	-0.149886
C	 0.6214442268	-2.2052671176	 0.4447484047	-0.158826
C	 0.7888351248	-0.7766916085	 1.1034252249	-0.15422
C	-0.2189781374	-0.7605392911	 2.2234842638	-0.106743
C	-1.4428617409	-0.8600370899	 1.6746043397	-0.104399
C	-1.2807115721	-0.7904148852	 0.19781682	-0.079135
H	-0.1034741089	 1.7260424451	 0.7753474805	 0.283888
H	-0.4578267127	-0.488518532	-2.1191950855	 0.111762
H	 1.1917281997	-1.0588821816	-1.703784471	 0.099114
H	 0.3358837869	-2.9675471687	 1.1709118095	 0.104202
H	 1.5152554832	-2.5363839844	-0.0902707683	 0.105827
H	 1.8058853119	-0.4581899401	 1.3308563844	 0.0689
H	 0.0291524953	-0.8175161629	 3.2766441214	 0.100011
H	-2.385144694	-0.984014942	 2.1925583646	 0.101719
H	-2.1431208709	-0.5454392167	-0.4193314165	 0.079513
