18
gdb 51113	3.82533	1.0698	0.98481	3.2621	76.11	-0.2237	-0.0189	0.2048	1229.1391	0.146351	-401.865767	-401.857631	-401.856687	-401.899428	30.727	
O	 0.1561673262	-0.1180213847	 0.0775434695	-0.241433
C	 0.0711918333	 1.0718034512	-0.0881850289	 0.158789
C	 1.2395921352	 2.036935984	-0.0036424952	-0.368337
C	 1.28371326	 2.9525572709	-1.1958182835	 0.358507
C	 1.9321761557	 2.6193539798	-2.5110032904	-0.345232
C	 2.3685919774	 3.8469238241	-1.7505506748	-0.14458
C	 1.3149019482	 4.9687296967	-1.7884272573	-0.027592
C	 0.0848206059	 4.6553463234	-2.5415568773	-0.253514
N	 0.2538219586	 4.0819815739	-1.1899545323	-0.183673
H	-0.9032061033	 1.5543154423	-0.3228914086	 0.093074
H	 1.1067084129	 2.6455168501	 0.9018639431	 0.131375
H	 2.1641758098	 1.4615833801	 0.0949056826	 0.120622
H	 2.6336230012	 1.7938406487	-2.4325772418	 0.126663
H	 1.4349379453	 2.6611561787	-3.473508706	 0.118427
H	 3.3821106319	 3.9947168569	-1.401972088	 0.100848
H	 1.5054974405	 5.9507308535	-1.3674991858	 0.104131
H	-0.6864247321	 5.4205693019	-2.5521490977	 0.127212
H	 0.0865901433	 4.0248373984	-3.4224854778	 0.124712
