17
gdb 8518	4.3701	1.84708	1.61983	2.0764	67.91	-0.225	0.0683	0.2933	842.1404	0.14149	-363.798328	-363.79095	-363.790006	-363.829475	28.721	
C	-0.1071455084	 1.4787894267	-0.0239943237	-0.493843
C	-0.0017449879	-0.0120868816	-0.0742696011	 0.359657
C	 0.8947444853	-0.8636999397	-0.9760356847	-0.360041
C	 0.0872113524	-2.0746838983	-0.4277123185	 0.363275
O	-0.1305634263	-3.2212797682	-1.1720646892	-0.478254
C	 0.4692889177	-2.0749691124	 1.0646010073	-0.205945
N	-0.2537542192	-0.7681452708	 1.2147677672	-0.184155
C	-1.0481339989	-1.0621631549	-0.0148258768	-0.152323
H	 0.831984038	 1.9259717281	 0.321168933	 0.122692
H	-0.334539269	 1.8904972562	-1.0131264152	 0.117759
H	-0.8970682271	 1.7797213888	 0.6693988919	 0.13451
H	 0.6658382713	-0.6818302739	-2.0297620318	 0.107122
H	 1.979614537	-0.8524739885	-0.8138538759	 0.086685
H	 0.7181752361	-3.5542734398	-1.4839089713	 0.28476
H	-0.0662564533	-2.8358924827	 1.638148573	 0.111533
H	 1.5307025469	-2.0644086022	 1.3425172734	 0.08824
H	-2.1290211346	-1.0635006769	-0.0670058575	 0.098329
