21
gdb 107129	3.51777	1.10949	1.07643	2.9814	83.46	-0.1937	0.0745	0.2682	1269.7696	0.18143	-383.171984	-383.16297	-383.162026	-383.205428	35.023	
C	 0.0388291559	 1.5249023947	 0.3248525414	-0.371181
C	 0.0214016471	 0.0538405918	-0.1162021519	-0.314266
C	-1.3602631057	-0.5244982886	-0.1627319259	 0.379352
N	-2.1260525098	-0.9079618274	 1.0492246373	-0.350701
C	-1.870051508	-1.9070980291	-0.0225032764	-0.199856
C	-2.8745214956	-1.671300921	-1.2047511291	 0.353062
C	-3.2304638651	-2.7016449146	-2.2282127063	-0.508716
N	-3.7654834667	-0.54843869	-0.8290218614	-0.348309
C	-2.3885098953	-0.277453532	-1.3232162977	-0.180179
H	 1.0590414857	 1.9202872444	 0.3350166344	 0.110656
H	-0.5560574926	 2.1455793811	-0.3529960167	 0.122804
H	-0.3825381523	 1.6379179993	 1.3283381488	 0.128056
H	 0.4839387064	-0.0386052511	-1.1082201482	 0.100796
H	 0.6370057722	-0.5483874439	 0.5649470605	 0.09471
H	-1.4294451566	-1.0934442399	 1.7738163094	 0.219644
H	-1.3413903256	-2.8319936947	 0.1757262618	 0.087665
H	-3.943585725	-3.4319662179	-1.8270535713	 0.130079
H	-3.684386177	-2.2374922733	-3.1106872705	 0.116914
H	-2.3426377867	-3.2522065153	-2.5601156615	 0.122901
H	-4.3838527608	-0.3999766192	-1.6288093827	 0.219806
H	-2.2077743645	 0.3284215568	-2.203186344	 0.086764
