19
gdb 124522	4.04995	0.96607	0.94595	1.6266	78.05	-0.2736	-0.0112	0.2624	1369.0652	0.158438	-419.237439	-419.228059	-419.227115	-419.272394	33.549	
C	-0.0294638433	 1.5226901901	-0.027891032	-0.39395
C	-0.0208038259	-0.0159676557	 0.0398268418	-0.090695
C	 0.709707396	-0.5234489439	 1.2970218209	-0.393998
C	-1.4132836586	-0.5596285314	-0.0246495353	 0.428066
N	-1.9421922482	-1.3272771833	-0.9300624481	-0.357967
C	-3.2314349856	-1.4925692387	-0.4638275346	 0.348156
C	-4.2557372143	-2.3103707624	-1.1705905187	-0.488456
N	-3.4843419455	-0.8688824518	 0.6565557523	-0.172482
O	-2.2662235529	-0.2392944027	 0.9590942455	-0.211368
H	 0.9965964848	 1.9018971766	-0.0254173767	 0.120871
H	-0.5226252546	 1.8777697443	-0.9372562309	 0.129006
H	-0.553775285	 1.9478188573	 0.8328867107	 0.137203
H	 0.4824963136	-0.4090510824	-0.8485507094	 0.113697
H	 0.2123698588	-0.171319308	 2.2054627321	 0.137302
H	 0.7394099678	-1.6163993785	 1.3260308837	 0.128894
H	 1.7391349342	-0.1535365774	 1.3049649495	 0.120833
H	-3.9100331397	-3.3431768966	-1.2749584912	 0.147948
H	-5.197000039	-2.3002056517	-0.6192339841	 0.149003
H	-4.4240451426	-1.918627304	-2.1782545855	 0.147938
