17
gdb 124649	4.3545	0.9684	0.87705	3.051	71.52	-0.2384	-0.0386	0.1999	1337.7924	0.134164	-455.119431	-455.110733	-455.109789	-455.153759	31.452	
C	-0.0689687091	 1.5365181042	 0.0863360354	-0.394686
C	 0.0192123796	 0.021603327	-0.0180518888	 0.138635
C	 0.7156055781	-0.6259273896	 1.1742610185	-0.399301
O	-1.3569100102	-0.4396825222	-0.1081829669	-0.292055
C	-1.5762422709	-1.6522852126	-0.6176665705	 0.342493
C	-2.7621149512	-2.3134878792	-0.7387974525	-0.075616
O	-2.512895501	-3.4888971413	-1.3308267695	-0.153216
N	-1.1324391823	-3.5471247976	-1.5729904979	-0.011443
N	-0.6110125079	-2.4703945458	-1.1517778569	-0.204837
H	 0.935125213	 1.9675833945	 0.1312669329	 0.123257
H	-0.5888141378	 1.9550256891	-0.7791645323	 0.127781
H	-0.611245548	 1.8291425153	 0.9907712215	 0.127778
H	 0.5291299879	-0.2640364256	-0.9440084139	 0.113475
H	 0.755255408	-1.7118597423	 1.0635436873	 0.142525
H	 1.7426854009	-0.2559408443	 1.251079952	 0.122631
H	 0.1897419282	-0.3817042507	 2.1025774196	 0.123554
H	-3.778429747	-2.0850838488	-0.472279348	 0.169026
