19
gdb 89097	4.14954	0.70903	0.65176	4.9556	78.32	-0.2365	0.0064	0.2429	1704.8649	0.157498	-419.164855	-419.155054	-419.15411	-419.201031	34.071	
C	-0.3455334123	 1.3909020712	 0.1971784756	-0.314715
N	 0.0313453767	-0.0146153237	 0.1478240223	-0.064948
C	 1.3872722408	-0.3535994263	-0.2514552004	-0.260961
C	 0.9322324865	-0.5668904691	 1.1548517696	 0.004226
C	 1.5232971216	 0.2551432193	 2.2680882384	-0.087274
O	 0.5310029405	 0.4116512417	 3.2768110378	-0.239922
C	 1.0183995444	 1.0928762321	 4.4037321733	-0.181147
C	-0.0541667087	 1.2208683931	 5.3948593225	 0.26608
N	-0.8772098696	 1.3394241188	 6.1955166942	-0.290424
H	 0.488775684	 2.0839738843	 0.3909308373	 0.094263
H	-0.7853821367	 1.6656633696	-0.7663583008	 0.127083
H	-1.099321457	 1.5321248123	 0.9765334191	 0.140089
H	 1.4990743111	-1.1957012589	-0.9292282162	 0.121323
H	 2.0881188909	 0.4638758261	-0.4259950446	 0.105209
H	 0.658166848	-1.5723670223	 1.4694969791	 0.103119
H	 2.4022804008	-0.2660274558	 2.6824046692	 0.102477
H	 1.8633892126	 1.2399869342	 1.9156887008	 0.096618
H	 1.8635819197	 0.5582629412	 4.8685372496	 0.13989
H	 1.3786329567	 2.1030752622	 4.1467660132	 0.139013
