15
gdb 2995	5.13818	1.77735	1.47382	1.9443	57.64	-0.2495	-0.025	0.2245	842.7333	0.123043	-345.650717	-345.64309	-345.642146	-345.6831	26.323	
C	-0.3620854743	 1.4469347143	-0.5740246272	-0.380368
C	-0.6517332416	-0.0486020139	-0.4810417432	-0.286286
C	-1.0011602032	-0.4986693789	 0.9257977996	 0.357436
O	-0.9544013257	 0.2332274873	 1.8891347803	-0.307938
C	-1.4008047361	-1.9392039822	 1.119165888	-0.006727
C	-2.5147328123	-2.5375778108	 0.3542836575	-0.174944
O	-1.1653028906	-2.8566556518	 0.0495070745	-0.216454
H	-0.0822016637	 1.7226246706	-1.5943464022	 0.111515
H	-1.2369493189	 2.0356538694	-0.2849502611	 0.128118
H	 0.4524155986	 1.7277108512	 0.0981005361	 0.135
H	-1.4587126676	-0.3456958172	-1.1631531861	 0.123129
H	 0.2093455238	-0.6490241843	-0.8040119283	 0.141466
H	-1.206660104	-2.316919127	 2.1219531784	 0.118657
H	-3.0971092415	-3.3312614617	 0.8188574419	 0.132426
H	-3.040826903	-1.9441671151	-0.3913697481	 0.12497
