17
gdb 112175	2.43673	1.26109	1.03493	2.7318	64.53	-0.2651	-0.0044	0.2606	1194.2045	0.133454	-496.116562	-496.107081	-496.106137	-496.150949	34.085	
C	-0.2206939432	 1.5842312029	 0.1563861244	-0.460437
C	-0.1141213789	 0.0781891918	-0.0301068932	 0.157601
O	-1.3372689052	-0.5790011823	 0.2270631969	-0.461711
C	 0.5300314329	-0.4960271905	-1.3162286139	 0.104898
C	 1.0855327248	 0.4035724028	-2.4001566048	-0.08418
O	 1.8440004815	-0.3384933378	-3.3336492775	-0.414487
O	 1.6355292106	-1.0622145221	-0.5107553339	-0.27816
C	 1.0941700325	-0.5993803637	 0.6590769469	 0.4261
O	 1.4938164326	-0.754181286	 1.7679787306	-0.332837
H	 0.7160882023	 2.0983871931	-0.0741482162	 0.135517
H	-1.015125473	 1.9863011128	-0.4785710102	 0.138502
H	-0.4668266598	 1.8041786481	 1.200675278	 0.134148
H	-1.5725295361	-0.4196945931	 1.1488086465	 0.294851
H	-0.0576117183	-1.3115211879	-1.7423900849	 0.121303
H	 0.2585605745	 0.859456953	-2.9553169651	 0.125308
H	 1.6791109506	 1.2141324446	-1.9519149619	 0.096092
H	 2.5547571622	-0.7685891258	-2.8440729218	 0.29749
