13
gdb 445	7.1744	3.54699	2.53157	3.1568	50.78	-0.2549	0.0316	0.2866	515.9607	0.110489	-286.516174	-286.51087	-286.509925	-286.544899	19.419	
N	-0.0506065855	 1.276027924	-0.0746806743	-0.539919
C	-0.0306644579	 0.014311327	-0.0544244477	 0.419246
C	-1.2408274203	-0.8964301229	-0.0425003026	-0.292125
C	-0.6623595445	-2.2423353261	-0.5004392341	-0.229216
C	 0.7818357993	-2.1438573119	 0.0085033877	-0.077205
O	 1.1084015761	-0.7452039184	-0.0417969939	-0.235072
H	 0.9008944664	 1.6479496508	-0.0621491591	 0.220344
H	-1.6265718988	-0.9577754067	 0.9819474544	 0.131601
H	-2.037173763	-0.4998109953	-0.6720409689	 0.137799
H	-1.1891922152	-3.1106546938	-0.1000259013	 0.112289
H	-0.6719783536	-2.3112103062	-1.5925781814	 0.12025
H	 0.8731356874	-2.4934298111	 1.0451398948	 0.111341
H	 1.5088956995	-2.6803922394	-0.6053374435	 0.120667
