13
gdb 1037	7.59148	2.1449	1.68999	3.1203	57.57	-0.1875	0.0308	0.2183	711.5285	0.101895	-340.64862	-340.641626	-340.640682	-340.680619	23.906	
C	-0.0219830668	 1.4179251314	 0.0094690676	-0.315906
N	 0.0233723496	-0.0342031908	 0.0040336435	-0.384003
C	-1.0737678259	-0.6575979189	 0.0099887083	 0.520806
N	-1.2540525665	-2.0277729708	 0.0062966555	-0.370338
C	-2.6129695186	-2.3237842483	 0.0173933461	-0.092714
C	-3.2614649018	-1.1547940671	 0.0256706592	-0.041481
O	-2.3488065086	-0.1128750748	 0.0211957717	-0.221033
H	 1.0003270441	 1.8048531733	 0.0005554155	 0.113822
H	-0.5447489107	 1.8266105615	-0.8674473483	 0.110685
H	-0.5268167588	 1.8203092739	 0.8997219775	 0.110662
H	-0.484918528	-2.6715807036	 0.002956434	 0.27408
H	-2.9862525108	-3.3330894146	 0.0173652508	 0.148746
H	-4.3029739872	-0.8887360111	 0.0342616486	 0.146674
