18
gdb 97063	3.26209	1.20496	0.9134	3.8837	77.67	-0.2464	-0.0625	0.1839	1288.8887	0.146472	-439.116497	-439.107197	-439.106253	-439.151412	32.64	
C	-0.0727823808	 1.4660594697	-0.0782247365	-0.336669
N	-0.2657936154	 0.0553625652	 0.2083791108	-0.29116
C	 0.5444269904	-0.5412709065	 0.9657812915	 0.340522
O	 1.6488372582	 0.0001362547	 1.5627816835	-0.256268
C	 2.2061386715	-0.9205445988	 2.5265092991	-0.111211
C	 1.734926056	-2.3214780232	 2.1173667448	-0.11096
C	 1.5413433291	-3.3334863998	 3.2416398955	-0.408005
C	 0.4580842628	-2.0061545403	 1.3398608438	 0.300125
O	-0.4374021415	-2.7619680023	 1.0781249181	-0.289945
H	 0.5977521758	 1.9791065946	 0.6203292474	 0.125623
H	 0.3365471125	 1.5715742138	-1.0907465033	 0.136759
H	-1.0491132073	 1.9603773392	-0.0787018213	 0.133178
H	 3.2896469826	-0.7903897047	 2.5098750801	 0.127575
H	 1.835363205	-0.6535858081	 3.52442475	 0.119402
H	 2.4376583282	-2.7232021428	 1.3726874012	 0.122905
H	 0.8843928216	-2.9326494832	 4.0202581536	 0.127517
H	 1.0757068722	-4.2396054825	 2.8462309186	 0.148953
H	 2.4946104891	-3.6039417752	 3.7046750833	 0.121662
