13
gdb 2478	5.44807	2.7785	2.56433	4.3454	53.06	-0.2634	0.0128	0.2762	569.7038	0.104279	-344.469204	-344.464214	-344.463269	-344.497834	19.793	
O	-0.0158303173	 0.0565096796	-0.0372822309	-0.347696
C	 0.0490125023	 1.2469880077	-0.0055492556	 0.458863
O	-1.0438141301	 2.086357855	 0.0076783599	-0.247974
C	-0.4096016636	 3.4016376722	 0.0472901012	 0.108249
C	 0.6996449988	 3.2647203035	-1.0194070542	-0.235375
C	 1.2220829447	 2.2195170617	 0.0294195088	-0.182926
C	 0.6823875638	 3.2085122181	 1.1230579394	-0.235373
H	-1.1763862602	 4.1719023841	 0.0613224617	 0.100836
H	 0.4044517225	 2.9057124336	-2.0072378434	 0.123477
H	 1.3445899787	 4.1419501578	-1.0931098497	 0.116226
H	 2.2188806217	 1.7886703145	 0.0261457825	 0.101992
H	 1.3256892677	 4.0804012881	 1.253023677	 0.116225
H	 0.371484771	 2.7983317341	 2.0858285733	 0.123477
