23
gdb 116178	2.91656	0.98444	0.77833	0.372	81.96	-0.258	0.0781	0.3361	1493.6737	0.20688	-425.44469	-425.435158	-425.434214	-425.478757	36.704	
O	-0.023621798	 1.4249592411	-0.0069250118	-0.425603
C	 0.0236451376	 0.0044809903	 0.0164535772	-0.095548
C	-1.4065450021	-0.5267824987	-0.0085421915	 0.029728
C	-2.154876207	-0.101412767	-1.2823455748	-0.178357
C	-3.5849582062	-0.6570703821	-1.3096225238	-0.21958
C	-3.5916618168	-2.1836990786	-1.1430018577	-0.212893
C	-2.8512754409	-2.6090617763	 0.1296453425	 0.125294
O	-2.7473467496	-4.0239511142	 0.2437526618	-0.442134
C	-1.4270793502	-2.0554032596	 0.1480121535	-0.198145
H	 0.878079162	 1.7559152123	-0.0443962138	 0.286155
H	 0.5768027984	-0.3886141584	-0.8532433354	 0.082113
H	 0.5362156506	-0.3585422463	 0.9219846763	 0.082535
H	-1.9238288049	-0.081087514	 0.8540505171	 0.077754
H	-2.1597618801	 0.9892242241	-1.3565496714	 0.110445
H	-1.6037633547	-0.4754757663	-2.1579432399	 0.084798
H	-4.1680436624	-0.1991151301	-0.498697654	 0.094673
H	-4.0850515873	-0.3780203722	-2.2435157744	 0.09257
H	-4.6220090343	-2.5632697586	-1.1177057871	 0.076632
H	-3.0975911735	-2.659682225	-2.0003110024	 0.099273
H	-3.3930653453	-2.2007702853	 1.0015086904	 0.058989
H	-3.6361638657	-4.3903051873	 0.1945586501	 0.276558
H	-0.869559001	-2.525248193	-0.6740632702	 0.097713
H	-0.9361327386	-2.3614531847	 1.0787270894	 0.09703
