12
gdb 129061	5.25828	1.15404	0.94634	2.4183	72.92	-0.2677	-0.1009	0.1668	1120.7884	0.077604	-464.937633	-464.930444	-464.9295	-464.97015	25.64	
N	-0.1028058108	 1.2776652581	 0.3462520495	-0.481571
C	-0.0463563702	 0.0475637213	 0.0235434652	 0.345025
C	-1.2416453966	-0.7702687863	-0.1166442672	 0.029074
N	-1.1944233447	-2.0132991757	-0.4420795293	-0.175551
N	 0.0519959379	-2.5178793689	-0.6481646055	 0.010175
C	 0.1108669212	-3.8938977217	-1.0088024742	 0.210631
O	 1.1202647236	-4.4904195508	-1.2244248362	-0.237546
N	 1.2304289477	-1.8275514124	-0.5401063265	-0.018528
N	 1.1982500475	-0.6142304464	-0.2232913252	-0.22414
H	 0.8449049861	 1.6627728662	 0.3890592551	 0.242693
H	-2.2193857897	-0.3316453113	 0.0561279712	 0.166008
H	-0.914699982	-4.2933520622	-1.0506023868	 0.13373
