12
gdb 21368	5.5943	2.24716	1.60318	3.0211	60.96	-0.2197	-0.0013	0.2184	713.1172	0.089197	-373.727769	-373.722354	-373.72141	-373.757031	21.241	
N	-0.0278317539	 1.3970562887	 0.0102086579	-0.412476
C	 1.3005136495	 1.7583620137	-0.0008688744	 0.005379
N	 2.138960468	 0.7388646476	-0.0145184095	-0.356267
C	 1.2953357273	-0.3358403652	-0.0119995546	 0.407502
C	-0.0478428197	 0.0136917962	 0.0030321898	 0.253212
C	-0.7651754618	-1.1986777812	 0.0035735541	-0.140648
N	 0.0908556436	-2.223780655	-0.0103127162	-0.217508
N	 1.3412906931	-1.6918165474	-0.0197339846	-0.33427
H	-0.8088101707	 2.0292655588	 0.0212581029	 0.270558
H	 1.5965947246	 2.7974573375	 0.0017813325	 0.136096
H	-1.826194293	-1.3934156295	 0.0129303267	 0.112308
H	 2.135308103	-2.3071330842	-0.0307736845	 0.276117
