18
gdb 49995	3.39207	1.09813	1.02362	3.7971	78.31	-0.2405	-0.0225	0.2181	1217.5155	0.147391	-401.897978	-401.890049	-401.889105	-401.930757	30.515	
O	-0.3442580673	 0.6521230161	 0.8613610444	-0.265883
C	 0.2414297843	 0.9449972762	-0.1519613651	 0.180321
C	 1.4305170376	 1.8322826811	-0.2021795919	-0.205218
N	 2.2781181364	 1.6825501895	-1.4177016222	-0.390826
C	 1.5355771328	 2.9064149068	-1.2476912983	 0.363947
C	 0.5295353023	 3.4139493712	-2.3042399687	-0.311268
C	 1.1226837662	 4.8210503722	-2.1206851525	-0.039696
C	 1.0117105324	 5.2525158686	-0.6884874438	-0.276376
C	 2.1117742142	 4.2942733265	-1.0700976972	-0.137511
H	-0.0787091651	 0.5721260523	-1.1504574064	 0.080716
H	 1.9005338329	 2.0322752024	 0.7576439994	 0.103701
H	 3.2570724345	 1.8057219482	-1.1681315967	 0.240908
H	 0.7458733894	 2.9719085049	-3.2792680943	 0.123478
H	-0.5376809647	 3.3076545421	-2.0859306558	 0.108118
H	 1.3113895528	 5.5250898003	-2.9207847927	 0.096661
H	 1.3395177534	 6.2654163622	-0.4773705975	 0.117826
H	 0.1826119152	 4.9135709174	-0.0719312337	 0.118999
H	 3.1617521028	 4.5240300221	-0.927903717	 0.092104
