20
gdb 97204	2.47187	1.35723	0.91945	2.5857	79.26	-0.2408	0.0207	0.2616	1301.6479	0.1704	-440.293422	-440.284076	-440.283132	-440.328078	33.902	
C	-0.202810683	 1.4548445411	-0.038460111	-0.327189
N	-0.11011506	 0.0043469474	-0.0593595263	-0.289122
C	 0.6406293552	-0.5682089786	-0.8964136716	 0.377548
C	 0.665518838	-2.0819768034	-0.9762730434	-0.173913
O	 1.9137258548	-2.6068101346	-1.3908675732	-0.242999
C	 2.3316874405	-1.9977627691	-2.5951233273	-0.091203
C	 2.5587030544	-0.5097128479	-2.3738946157	 0.120507
C	 2.9164228077	 0.2481733004	-3.640384271	-0.404318
O	 1.3661176835	 0.1065867024	-1.8391071929	-0.274667
H	 0.637480075	 1.9633786357	-0.5237907334	 0.117293
H	-1.1268752125	 1.7700231024	-0.5393660606	 0.125081
H	-0.2751200663	 1.787539907	 1.0017015983	 0.121477
H	 0.4391773034	-2.4913533469	 0.0077834705	 0.14224
H	-0.126886763	-2.4011350525	-1.6762542766	 0.109459
H	 3.2653066805	-2.4824439546	-2.8949635131	 0.116249
H	 1.584204149	-2.1508447601	-3.3927642944	 0.092384
H	 3.3531340279	-0.3948529945	-1.6233414147	 0.094507
H	 2.1371204267	 0.1250072066	-4.3986221187	 0.128533
H	 3.0200486257	 1.3147362774	-3.4260686861	 0.135152
H	 3.8638584726	-0.1162826883	-4.0487419188	 0.122981
