16
gdb 93304	2.2972	1.87089	1.14232	5.09	65.58	-0.2429	0.0093	0.2521	1031.5157	0.12457	-475.032946	-475.02473	-475.023786	-475.065898	30.382	
O	 0.3033304676	 1.0823771877	-0.6277960487	-0.421131
C	 0.0525878721	-0.14563322	 0.0213174258	 0.001836
C	 0.4103552026	-0.1338446857	 1.5326978043	-0.205433
N	-0.6035085673	-0.9962236856	 2.1198370138	-0.333221
C	-1.7295856983	-1.1618387713	 1.356442669	 0.353296
O	-2.7543612898	-1.7166565044	 1.6787994216	-0.375478
C	-1.4252269025	-0.491077207	 0.0290973381	 0.327436
C	-2.4660748801	 0.2624410951	-0.6836854948	-0.231146
O	-2.0281211002	-1.0175584493	-1.1408918696	-0.27359
H	 1.2126879351	 1.0860985481	-0.9399453921	 0.29445
H	 0.5830900781	-0.969279004	-0.4757423403	 0.101344
H	 1.4190540581	-0.5105365968	 1.7295582022	 0.112723
H	 0.3472835668	 0.899500644	 1.8986841294	 0.121374
H	-0.6138333725	-1.2486538852	 3.09597416	 0.256342
H	-3.4700355838	 0.2828282645	-0.2645817373	 0.13494
H	-2.1621747859	 1.1083893197	-1.2945509313	 0.136257
