21
gdb 111694	2.34833	1.50904	1.31786	0.8157	77.89	-0.2165	0.0789	0.2954	1115.5945	0.182768	-424.199393	-424.190494	-424.18955	-424.23287	33.544	
C	-0.4485712899	 1.1573288173	 0.2651687823	-0.237533
O	 0.5423381452	 0.1967603337	-0.066263076	-0.237773
C	 0.9714666929	-0.5270990073	 1.0413427029	 0.072747
C	 0.1113082503	-1.6260444037	 1.6261698572	 0.043194
O	-1.0113206584	-2.0391008854	 0.894537746	-0.263851
C	-0.6012670358	-2.4616072179	-0.411298477	-0.088421
C	 0.9202182658	-2.7436309487	-0.3598442126	 0.004685
C	 1.6464095623	-2.3974379236	-1.6626645977	-0.407269
C	 1.3749321647	-1.974885748	 0.8773695958	-0.160266
H	-0.0688737045	 1.8869734478	 0.9958291884	 0.105123
H	-0.7045675476	 1.6831635895	-0.6575936727	 0.124381
H	-1.3441446147	 0.6747321355	 0.674643611	 0.13135
H	 1.563188941	 0.0529908548	 1.7543877858	 0.082247
H	-0.0293332866	-1.73435113	 2.696135638	 0.096926
H	-1.1891656469	-3.3474649677	-0.6741037329	 0.099513
H	-0.8121576678	-1.6713807069	-1.1397385006	 0.10597
H	 1.0758726248	-3.807327605	-0.1393056624	 0.076838
H	 1.5412536387	-1.3334104284	-1.8877195512	 0.142801
H	 2.7138389656	-2.6292293012	-1.5906033718	 0.111045
H	 1.2408235176	-2.972880889	-2.5024137026	 0.109343
H	 2.2732466633	-2.312063476	 1.3825418602	 0.088952
