16
gdb 127255	3.25986	1.39075	0.98162	5.433	80.48	-0.1968	-0.0287	0.1681	1153.442	0.125914	-434.097305	-434.089061	-434.088117	-434.130607	30.714	
C	 0.0113214491	 1.4916276442	 0.0060273147	-0.324288
N	-0.009884422	 0.0347043753	 0.0060482911	 0.023899
C	-1.2020474947	-0.6410893911	 0.0336055886	-0.076545
C	-1.2388565826	-2.0076604676	 0.0410459109	 0.170898
N	-2.3634232224	-2.7869542892	 0.1172021662	-0.581703
C	 0.0284623854	-2.7419479076	 0.0039845931	 0.308624
O	 0.0533604648	-3.9767407244	-0.0195696987	-0.426414
C	 1.1872041049	-1.8795945021	-0.0169867949	-0.09872
N	 1.1724908726	-0.5669244559	-0.0162359482	-0.210995
H	 1.0543313649	 1.799362501	-0.0320212016	 0.167034
H	-0.5205670165	 1.8850019292	-0.8663165441	 0.141768
H	-0.4552281094	 1.8851838248	 0.9149798724	 0.143635
H	-2.0896522244	-0.019423038	 0.0523127239	 0.117357
H	-3.2304381314	-2.4323023693	-0.25187914	 0.248909
H	-2.1527784521	-3.756162298	-0.0923098173	 0.268639
H	 2.1705861039	-2.3369998613	-0.0453578361	 0.127901
