19
gdb 128760	3.12458	1.05297	0.80358	3.5591	79.37	-0.2224	0.0285	0.251	1434.8146	0.159625	-419.222007	-419.212508	-419.211563	-419.257526	33.095	
C	 0.093588779	 1.3338634367	 0.1180504231	-0.226576
O	-0.009718351	-0.0676672553	 0.2258835761	-0.244201
C	-1.2842071539	-0.5567902818	-0.1411725208	-0.17834
C	-1.2507332318	-2.0487814257	-0.0812727366	 0.287849
C	-2.2509422568	-3.0014480064	 0.0251276461	 0.096287
C	-3.7291145502	-2.7833455325	 0.1377769557	-0.515692
C	-1.5487800055	-4.2291710705	-0.0109305377	-0.07299
N	-0.2336601662	-4.0634953734	-0.1236485337	-0.236812
N	-0.0819142711	-2.7286970729	-0.178211697	-0.235628
H	 1.1084796781	 1.6088116288	 0.4134629726	 0.133407
H	-0.0853399159	 1.6770504123	-0.9127535849	 0.110179
H	-0.6214014261	 1.8448736595	 0.7808135579	 0.111424
H	-2.0677700975	-0.1671703013	 0.5303580888	 0.107357
H	-1.5405895279	-0.2084485836	-1.1581026782	 0.106913
H	-4.2021935537	-2.6090708454	-0.8367398051	 0.127097
H	-4.2174557903	-3.6559503495	 0.5813257414	 0.129463
H	-3.9662186023	-1.9195137429	 0.7691452794	 0.121104
H	-1.9605335977	-5.2270382942	 0.0501699379	 0.103838
H	 0.8359005008	-2.3172683419	-0.200751625	 0.275321
