20
gdb 67219	2.75354	1.6567	1.31083	3.065	78.46	-0.2303	0.0691	0.2994	1048.2371	0.169973	-403.09186	-403.083305	-403.082361	-403.124179	33.99	
C	 0.1794893836	 1.5608584122	 0.1400199782	-0.535244
C	-0.0284482924	 0.093741511	-0.0179898703	 0.370473
C	 0.441437709	-0.9126083147	-1.0052441651	-0.148556
N	 0.9127164319	-0.9730165477	 0.4245267245	-0.197806
C	-0.2092540506	-1.6462010729	 1.166864528	-0.160216
C	-1.2184444727	-0.9039178006	 0.2857740594	-0.216758
C	-0.9461460394	-1.5251201981	-1.1274484736	 0.45412
C	-1.7835396289	-0.8932029164	-2.2357230309	-0.464171
O	-0.9417602143	-2.9357262833	-1.2375604548	-0.484256
H	 1.2114778531	 1.8200710293	-0.1156261377	 0.137441
H	-0.4892812324	 2.1326377454	-0.5132197494	 0.121801
H	-0.0037043531	 1.8824620156	 1.1713483502	 0.126423
H	 1.2098203563	-0.8347500485	-1.7646696682	 0.090919
H	-0.2077100983	-2.7387060203	 1.1264748689	 0.111394
H	-0.1902478326	-1.2963918967	 2.2020546132	 0.099399
H	-2.2348383544	-0.6631058395	 0.5978017483	 0.061721
H	-1.7985066506	 0.1974164879	-2.1606362175	 0.125563
H	-1.3879805784	-1.1686463817	-3.2184326155	 0.126669
H	-2.8218000973	-1.244429989	-2.1785329131	 0.10658
H	-1.8442153085	-3.2309632022	-1.3995337646	 0.274505
