19
gdb 99943	3.63067	0.70365	0.67913	4.029	84.6	-0.2648	-0.0592	0.2056	1724.4646	0.154343	-422.992998	-422.981957	-422.981013	-423.030416	37.729	
C	-0.0796790686	 1.3702985661	 0.1297639505	-0.243671
O	 0.0155070888	-0.0319899641	-0.0183257326	-0.274747
C	 0.6789863803	-0.5272433565	-1.1872462645	 0.152952
C	-0.056011151	-0.1169503896	-2.4816929412	-0.417639
C	 2.1608543659	-0.0958161469	-1.2328298882	-0.417749
C	 0.620238171	-1.9887588584	-1.0581204379	 0.144757
C	 0.5995707252	-3.1947541269	-1.0008804166	 0.018605
C	 0.5470852434	-4.6283375262	-0.8831783747	 0.01651
O	 1.0086337728	-5.4014599591	-1.6915934472	-0.232472
H	 0.9017335095	 1.8583018966	 0.1987557371	 0.111241
H	-0.6517887277	 1.8454926906	-0.6783093434	 0.111209
H	-0.6116344734	 1.5355898422	 1.069588948	 0.135702
H	 0.032871096	 0.9595380452	-2.650551196	 0.121828
H	 0.3789271024	-0.6319258961	-3.3414674486	 0.137512
H	-1.113857033	-0.3808204026	-2.4127841531	 0.137396
H	 2.6537451607	-0.3444529055	-0.2901402579	 0.137394
H	 2.6782619217	-0.6104806873	-2.0458404057	 0.137545
H	 2.24371925	 0.9805090808	-1.4057172181	 0.121849
H	 0.0354779663	-4.9860376923	 0.0334916501	 0.101777
