21
gdb 107730	3.80129	1.19397	1.10897	0.888	82.96	-0.2332	0.092	0.3252	1205.9472	0.181649	-387.033893	-387.025228	-387.024284	-387.066836	33.868	
C	 0.073633483	 1.2553461849	-0.2813519373	-0.257823
O	-0.0831053983	-0.0483243108	 0.2541755882	-0.285538
C	-1.3690822013	-0.5241527921	 0.1676693519	 0.459467
C	-2.5668205654	-0.1489458517	 1.0371555457	-0.347551
C	-3.2188431659	-1.4556018608	 0.4814834616	 0.321631
C	-4.2484327778	-2.2048243231	 1.2847379125	-0.501359
C	-3.4414343904	-1.1351640609	-1.0292637213	-0.270721
C	-1.9221495665	-1.1233598388	-1.1449775074	-0.133852
C	-1.7580882895	-1.9675296483	 0.1073326723	-0.219518
H	 1.1285719303	 1.5184737375	-0.1774258539	 0.125625
H	-0.2066791584	 1.2890627828	-1.3432068826	 0.110275
H	-0.5324553359	 1.992889619	 0.2631266914	 0.112561
H	-2.3221594461	-0.2456479989	 2.0995036287	 0.098052
H	-3.0982505576	 0.7936642939	 0.8586479319	 0.083216
H	-5.1617515583	-1.6081538772	 1.3983832341	 0.117671
H	-4.5247655839	-3.1462705617	 0.7972018105	 0.116145
H	-3.8794205245	-2.4416107849	 2.2886048297	 0.117336
H	-3.8806094374	-1.9878945	-1.5578129867	 0.093917
H	-4.0039061616	-0.2252160222	-1.2729197889	 0.082732
H	-1.3006683048	-1.1508407732	-2.0311502651	 0.08509
H	-1.2103696197	-2.8775776633	 0.3042581647	 0.092643
