20
gdb 89248	2.50919	1.80242	1.34642	3.2527	77.7	-0.2262	0.0665	0.2928	1020.1619	0.171936	-403.083047	-403.075276	-403.074332	-403.114663	32.146	
C	-0.008976507	 1.5404644425	-0.0114065839	-0.494724
C	-0.0067255821	 0.0287629625	 0.0255467777	 0.360151
C	-1.3350535773	-0.7321043416	 0.3072115948	-0.329849
C	-0.640880526	-1.5324829737	 1.4658143936	 0.143182
O	-0.6471479017	-2.9293134615	 1.4065532719	-0.439953
C	 0.703180004	-0.774563096	 1.1728801072	-0.115972
C	 1.6534126053	-1.3825286565	 0.1229375358	-0.052794
N	 0.8218942064	-2.1203355259	-0.8680222954	-0.360596
C	 0.967816069	-0.6473513373	-0.9777164295	-0.110057
H	 1.0111857189	 1.9417307206	-0.0298375291	 0.114046
H	-0.5288516792	 1.9139665264	-0.9023999393	 0.117258
H	-0.5155479676	 1.9543902932	 0.8668555601	 0.117647
H	-2.1443256048	-0.078633898	 0.6457622069	 0.092326
H	-1.7007270249	-1.3608463784	-0.5068939313	 0.103901
H	-1.0419369613	-1.2617907372	 2.4468031467	 0.080975
H	-0.3054244702	-3.139228608	 0.5237751895	 0.290748
H	 1.2003403586	-0.2631315683	 1.9982808352	 0.062173
H	 2.6952840034	-1.6494667914	 0.2510599679	 0.096369
H	 1.4565882138	-2.5393590112	-1.5457111345	 0.235295
H	 1.3617124926	-0.2156983704	-1.8914593944	 0.089876
