11
gdb 46184	1.93975	1.6712	1.30984	3.9551	60.57	-0.3245	-0.0538	0.2708	988.2823	0.065416	-451.567101	-451.559343	-451.558399	-451.599968	26.639	
O	-0.0860221277	 0.0779337844	-0.298331792	-0.272429
C	-0.0455813674	 1.2159463836	 0.0001013987	 0.479196
O	-1.0010179303	 2.0308619696	 0.5099135391	-0.216882
C	-0.1268207911	 3.1969900261	 0.5652036142	-0.094075
C	 1.0547322314	 2.3630111399	-0.0178444377	-0.206593
C	 2.1673408255	 2.1268859694	 0.8921351375	 0.279394
N	 3.0228702833	 1.9378306004	 1.6440491948	-0.296094
C	 1.4912510097	 2.7402595785	-1.3553239012	 0.279393
N	 1.7988962391	 3.0482640394	-2.4246858529	-0.296092
H	-0.4889789607	 3.9929360396	-0.084407483	 0.172091
H	 0.0149538583	 3.5357326189	 1.5907944526	 0.172091
