17
gdb 81740	3.22297	1.27868	1.07331	1.6409	75.64	-0.2492	0.0127	0.2619	1138.7749	0.13346	-421.753118	-421.74436	-421.743415	-421.786299	33.282	
C	-0.1827617726	 1.5427786816	 0.0275558426	-0.414378
C	-0.0372149844	 0.0331954385	-0.0666066372	-0.125298
C	 1.1010426332	-0.5648678725	-1.0008516198	 0.114094
O	 1.9624569124	 0.3221982094	-1.6548895119	-0.427456
C	 1.6747016446	-1.2822614616	 0.2296549508	-0.107321
O	 2.0088890007	-0.2386292738	 1.152796844	-0.299008
C	 0.6349376256	-0.7001644489	 1.1118045675	 0.293496
C	 0.0381546795	-1.1900065454	 2.3062323768	 0.177489
C	-0.5160449641	-1.5833589493	 3.2982766356	-0.37667
H	 0.7443812945	 2.0076650923	 0.373008569	 0.122992
H	-0.4304349067	 1.9662153333	-0.950190952	 0.129361
H	-0.977325934	 1.8145839408	 0.7295012528	 0.124119
H	-0.9934671184	-0.4413438359	-0.3064256705	 0.087159
H	 0.697667282	-1.2424998153	-1.7563880063	 0.097931
H	 2.4402628596	 0.7984589641	-0.9640504682	 0.293325
H	 2.2245562103	-2.2130475447	 0.3139441228	 0.116766
H	-0.9939627321	-1.9366886228	 4.1785056339	 0.1934
