21
gdb 40218	2.05567	1.99798	1.24231	1.7655	81.46	-0.2523	0.0736	0.3259	1084.1758	0.183555	-387.07335	-387.065279	-387.064334	-387.106055	32.405	
C	-0.2268512431	 1.4880947847	 0.118698816	-0.313482
C	 1.1582517303	 0.935573288	-0.1038116027	-0.330824
C	-0.0032395412	-0.0053818366	-0.0032851633	 0.329046
C	-0.2478885727	-0.9187292176	 1.1915288578	-0.306253
C	-1.5552601972	-1.6388237181	 0.8108395254	-0.212849
C	-1.3970414403	-1.906847438	-0.6995694349	-0.298018
C	-0.5107232678	-0.7659113899	-1.2152966667	 0.382628
C	-0.6235272393	-0.2019549093	-2.5644031136	-0.260494
O	 0.4305364214	-1.1132916157	-2.2462680017	-0.27754
H	-0.4696230604	 1.8808214711	 1.1012288455	 0.10843
H	-0.713908968	 2.0077570444	-0.6994059423	 0.109293
H	 1.6147487107	 1.053115947	-1.081110448	 0.124087
H	 1.8617929076	 0.9638666692	 0.721785548	 0.111551
H	 0.5676480315	-1.6482941841	 1.2835534307	 0.103493
H	-0.3115479433	-0.3753704109	 2.1384764047	 0.094166
H	-1.7282426112	-2.5520765765	 1.3860043376	 0.097424
H	-2.4063792305	-0.9716543321	 0.988855034	 0.102419
H	-0.8635580183	-2.8478571264	-0.8727726736	 0.119815
H	-2.3521697801	-1.9720350459	-1.2274265405	 0.101602
H	-1.3876008398	-0.582166517	-3.2430166535	 0.108933
H	-0.3094127781	 0.8226177335	-2.765626909	 0.106573
