11
gdb 130886	3.91779	1.23486	0.93892	2.8542	61.29	-0.2856	-0.1474	0.1382	1104.124	0.064557	-488.675631	-488.668411	-488.667467	-488.708366	25.078	
O	-0.8877692701	 1.2013930405	 0.1381760672	-0.220041
C	 0.2284157248	 0.8375265636	-0.1253140862	 0.117393
C	 1.4153195288	 1.7609240772	-0.0330145626	 0.213183
N	 2.5689481684	 1.2735254245	-0.3387372905	-0.345218
C	 3.6766859953	 2.1255402779	-0.2555023428	 0.483383
O	 4.7965297236	 1.8087978987	-0.5068406941	-0.297764
O	 3.454391368	 3.4527525788	 0.1558099439	-0.238007
N	 2.2145856692	 3.9513306122	 0.477207324	-0.018174
C	 1.2282782613	 3.1300353348	 0.3849916685	-0.003816
H	 0.4846537123	-0.1862468754	-0.4566666101	 0.130687
H	 0.2473172984	 3.5144296273	 0.6364160126	 0.178375
