15
gdb 48116	3.14385	1.27121	1.12476	2.0864	65.92	-0.2483	-0.1008	0.1475	1091.6474	0.110288	-457.722096	-457.714057	-457.713113	-457.755766	28.765	
O	-1.0980585333	 1.8928555277	 0.6074488537	-0.2204
C	-0.0679187896	 1.285914571	 0.4696177474	 0.085595
C	 1.2641931104	 1.9557504491	 0.1065693704	 0.278825
O	 2.2469426344	 1.2662955362	-0.025254797	-0.278157
C	 1.208696932	 3.4489441342	-0.1167454207	 0.025359
O	 2.4917956029	 4.0880095147	-0.247579923	-0.284812
C	 2.1198615591	 4.6068868522	-1.5309909455	 0.114046
C	 1.8895128715	 3.5031192278	-2.5076510725	-0.299886
C	 0.7905762364	 3.8859649603	-1.5327710462	-0.154795
H	 0.019307296	 0.1850781193	 0.5871435871	 0.114105
H	 0.6036690767	 3.9294020634	 0.6594090896	 0.119502
H	 2.4004246961	 5.6271320698	-1.7613284985	 0.114427
H	 1.6951452622	 3.8146815446	-3.5291540461	 0.123655
H	 2.43759244	 2.5721761273	-2.3978771515	 0.142801
H	-0.2005654249	 4.2030232424	-1.8223195973	 0.119735
