18
gdb 19213	2.76968	2.64815	2.23493	1.7222	69.87	-0.2286	0.0583	0.2869	754.1674	0.154629	-347.727678	-347.721022	-347.720077	-347.758202	26.91	
C	-0.0357508992	 1.5349350097	-0.3125492622	-0.294635
C	 1.4363693614	 1.6504545327	 0.2499307057	-0.296001
C	 1.3762676827	 0.1350241575	 0.5708719813	 0.409576
C	 0.9374539859	-0.4483317999	 1.9384554523	-0.296001
C	-0.531059266	-0.5486484712	 1.3637626935	-0.294635
C	-0.021545131	 0.0107435772	 0.0033778956	 0.202798
C	 0.6333611812	-0.9550555837	-1.0035606999	-0.147832
O	 1.9525392744	-0.774560177	-0.389443277	-0.337706
H	-0.7778891071	 2.0989728906	 0.2581464455	 0.104496
H	-0.1530338446	 1.7917257496	-1.3688499277	 0.104636
H	 2.1942460435	 1.8979279152	-0.495985332	 0.115716
H	 1.5578073245	 2.3145691446	 1.1098859019	 0.101172
H	 1.4085331445	-1.407297718	 2.1631326891	 0.115716
H	 1.0585895134	 0.2144505021	 2.7994804306	 0.101172
H	-0.9493772667	-1.5581381212	 1.3262327101	 0.104636
H	-1.2532267163	 0.0993610594	 1.8669121901	 0.104497
H	 0.3059555677	-2.0012486837	-0.9515375552	 0.101196
H	 0.6312826719	-0.6326850141	-2.052604672	 0.101197
