19
gdb 111957	3.26543	1.18482	0.92679	2.4595	78.25	-0.2433	-0.0143	0.229	1299.9087	0.159563	-419.26602	-419.256759	-419.255815	-419.300499	32.951	
C	-0.0618475637	 1.5641441432	 0.0293933563	-0.388491
C	-0.0592643841	 0.0368272926	-0.0440455864	-0.167241
C	 0.7633575344	-0.5016521102	-1.2238191195	-0.110602
N	 2.2008246116	-0.2141276275	-1.0968453892	-0.258974
C	 2.7879569424	-1.3458850863	-1.157080817	 0.061243
N	 1.9735428667	-2.4633461952	-1.3199232553	-0.103136
C	 2.3768923561	-3.8509700715	-1.3941707696	-0.353646
C	 0.6517070668	-2.0253060236	-1.3628561866	 0.405306
O	-0.3254736127	-2.7284568978	-1.4731340776	-0.383318
H	 0.9576640954	 1.9495712831	 0.111424864	 0.140748
H	-0.5153094712	 2.0012195335	-0.8671810815	 0.114005
H	-0.6332386076	 1.9109151451	 0.8956334058	 0.112163
H	 0.3465619955	-0.384284078	 0.8836179549	 0.102745
H	-1.0773995425	-0.3535388556	-0.1504971417	 0.121677
H	 0.3943443193	-0.0416725946	-2.150757027	 0.121787
H	 3.8635054938	-1.4821881967	-1.0888599677	 0.135659
H	 3.0214752093	-4.0328898715	-2.2601907514	 0.139142
H	 2.9041403258	-4.1624185483	-0.4864966204	 0.138604
H	 1.4644458146	-4.4417106208	-1.4976882802	 0.172331
