19
gdb 84994	2.38699	1.5475	1.25117	3.1112	71.16	-0.258	0.0063	0.2643	1095.3078	0.158257	-460.221432	-460.212377	-460.211433	-460.254806	34.366	
C	 0.7190035048	 1.4600548447	-0.0786648372	-0.399149
C	-0.0638273989	 0.1598714551	 0.0434659871	 0.11137
C	 0.126732417	-0.8206385365	-1.1333606711	-0.268545
C	 1.2401406568	-1.7522990803	-0.6589995118	 0.24444
C	 1.1518368672	-3.1971159249	-1.1299475729	-0.446295
O	 2.4900663159	-1.1611305305	-1.0375490849	-0.465839
C	 1.1474864188	-1.6328259953	 0.8761384078	 0.410717
O	 1.70028772	-2.3335398751	 1.6785516368	-0.363803
O	 0.393804704	-0.5671949112	 1.2154879883	-0.2293
H	 1.7704126453	 1.2507820719	-0.2908048275	 0.145653
H	 0.3116188373	 2.0639777546	-0.8958951105	 0.119112
H	 0.6472486413	 2.0375333002	 0.84675338	 0.130598
H	-1.1213347011	 0.3709513538	 0.2231983025	 0.095742
H	-0.7890776479	-1.3922136016	-1.3044786752	 0.112527
H	 0.3989794143	-0.3134469054	-2.0606329132	 0.126962
H	 1.3078851971	-3.2472059981	-2.2109884281	 0.12613
H	 1.9181224756	-3.7966249415	-0.6291578661	 0.134582
H	 0.1782969781	-3.6357448941	-0.8907449729	 0.123155
H	 3.1850869544	-1.6349021656	-0.5637450412	 0.291941
