16
gdb 19561	4.09225	2.1247	1.92425	1.457	68.53	-0.2179	0.0006	0.2184	752.9655	0.133124	-342.693726	-342.687714	-342.68677	-342.723463	24.966	
C	 0.0278613679	 1.4934622664	-0.0094277022	-0.332319
N	 1.2733832459	 0.6729457836	 0.0481847641	-0.391726
C	-0.0078795245	 0.027745715	 0.0104337624	 0.469146
C	-0.6112273543	-1.0000712851	 1.0094027354	-0.140834
N	-1.7543617094	-1.0528601568	 0.0270008822	-0.300107
C	-0.6472637127	-0.9772158402	-0.9915879749	-0.159525
C	 0.2050811799	-2.2282961152	-0.6894005038	-0.100029
C	 0.2284547416	-2.2411308576	 0.6481476188	-0.07452
H	-0.1757410452	 2.0696370023	 0.8888023907	 0.123505
H	-0.2227097005	 1.9991637304	-0.938856133	 0.114835
H	 1.7340306915	 0.6431148487	-0.8579275527	 0.231921
H	-0.8324994453	-0.7723696618	 2.0511288046	 0.073597
H	-2.18083113	-1.9814728579	 0.0233171882	 0.202342
H	-0.9056719774	-0.7259780352	-2.0207302121	 0.068902
H	 0.6917452396	-2.8742783318	-1.4059669	 0.10571
H	 0.7447007428	-2.8979109047	 1.3332311224	 0.109101
