25
gdb 122443	4.2986	0.65918	0.62884	0.8395	91.5	-0.2388	0.0916	0.3304	1954.0292	0.225936	-389.483928	-389.472628	-389.471683	-389.520883	41.004	
C	 0.150597241	 1.3361991248	-0.4952624833	-0.382216
C	-0.1037228615	 0.0434728562	 0.283738072	-0.182467
C	-1.4390227753	-0.5955044191	-0.0707774954	-0.034318
O	-1.5974437431	-1.7731649986	 0.7029444823	-0.252862
C	-2.7900464997	-2.4452294228	 0.4532112185	 0.102506
C	-2.8864965582	-3.3752137824	-0.7378262641	-0.361123
C	-2.8233462264	-3.9302711187	 0.6778282817	 0.301082
C	-1.5459297242	-4.6230283211	 1.1110463192	-0.444807
C	-4.0937688891	-4.5198246305	 1.2600185998	-0.451183
H	 1.1152571495	 1.7750497708	-0.2246948911	 0.116786
H	 0.1594264573	 1.1566883819	-1.5761028262	 0.115918
H	-0.6230855464	 2.084604386	-0.2909201715	 0.116081
H	 0.6934661885	-0.6825333456	 0.086215607	 0.104458
H	-0.0867032529	 0.239088882	 1.3620315286	 0.106599
H	-2.266017886	 0.1056697526	 0.1341594124	 0.08275
H	-1.4816670204	-0.837994326	-1.1449526271	 0.087703
H	-3.6822918457	-1.8735763318	 0.7185546312	 0.075194
H	-3.820947193	-3.4332684269	-1.2869391148	 0.103636
H	-1.9942725418	-3.4760778021	-1.3472514701	 0.110612
H	-0.665413943	-4.1130993508	 0.7164300881	 0.125514
H	-1.4602492053	-4.6348237905	 2.2038855351	 0.11285
H	-1.5332157038	-5.6629047641	 0.7647126403	 0.107893
H	-4.2192390878	-5.5630987926	 0.946756705	 0.114016
H	-4.0712643127	-4.5016960409	 2.3560600848	 0.115543
H	-4.9814867401	-3.9681694198	 0.9343650977	 0.109835
