17
gdb 86288	1.86929	1.65341	1.15891	3.2152	69.55	-0.2491	0.0056	0.2547	1112.2609	0.135206	-455.133556	-455.124121	-455.123176	-455.167879	34.536	
N	 0.1660283228	 1.439861851	 0.1202183773	-0.505704
C	 0.0340963462	 0.0124399839	 0.0405504289	 0.011612
C	 0.3224196888	-0.8019521122	 1.3272284382	-0.293126
C	-0.8485567067	-1.7529506894	 0.974823319	 0.109322
O	-1.7237347033	-2.1783151813	 1.978807797	-0.429842
C	-1.4016318013	-0.6556380671	-0.0083283877	 0.19195
O	-2.3082586285	 0.1991830259	 0.6607727848	-0.471733
C	-1.9136369133	-1.0861433791	-1.3055782074	 0.210226
N	-2.2930088662	-1.4439786508	-2.3384745793	-0.336113
H	 0.0082350083	 1.8703976407	-0.7856472287	 0.239965
H	-0.5353857343	 1.8162694282	 0.7513689611	 0.242917
H	 0.6258596056	-0.3604487675	-0.7988166943	 0.105419
H	 1.3162498824	-1.2363908809	 1.4403005466	 0.120158
H	 0.0944245084	-0.2079464368	 2.218187208	 0.108071
H	-0.5243656806	-2.6445024401	 0.4340507361	 0.115376
H	-1.9071628037	-1.4174170841	 2.5415904263	 0.284214
H	-3.1136027247	-0.3059849905	 0.8284362842	 0.297288
