18
gdb 473	3.56333	3.56313	2.51002	0.0164	63.6	-0.2571	0.0841	0.3412	642.4422	0.165387	-235.694216	-235.686596	-235.685652	-235.725092	27.583	
C	-0.1664774534	 1.5590782689	 0.0134910366	-0.402942
C	 0.0318270448	 0.0578998195	 0.0505877974	-0.015113
C	 1.3680607357	-0.6081360031	-0.2193325154	-0.015417
C	 2.6264708738	 0.1669680608	-0.5505759517	-0.402807
C	 0.7654563404	-0.6534472382	 1.1724652912	-0.015258
C	 1.3665402467	 0.0726026828	 2.3580921905	-0.402957
H	 0.6904312229	 2.1123260713	 0.4045454152	 0.113879
H	-0.3356945186	 1.9049815377	-1.0126272831	 0.114298
H	-1.0402579239	 1.8515084119	 0.606944097	 0.114305
H	-0.8277920301	-0.4830241422	-0.3392579595	 0.075679
H	 1.301498825	-1.544362836	-0.7693725443	 0.075669
H	 2.7036430154	 1.1090254915	-0.0029658485	 0.113854
H	 3.5203303273	-0.4210725194	-0.3130668041	 0.114302
H	 2.6661954125	 0.4079735177	-1.6190037812	 0.114292
H	 0.3412887183	-1.6164812623	 1.4484403826	 0.075694
H	 1.7955681394	 1.0414102789	 2.09234161	 0.113899
H	 0.6090974474	 0.2533140141	 3.1293275025	 0.114317
H	 2.1655526564	-0.5221230939	 2.8153464948	 0.114309
