20
gdb 106920	3.89429	1.08993	0.97597	4.0469	79.27	-0.2346	0.032	0.2666	1269.0981	0.1723	-403.191906	-403.183274	-403.18233	-403.225201	32.995	
C	-0.2910934637	 1.509973922	-0.0727232502	-0.379512
C	 0.1251479817	 0.0381837031	 0.0505496064	-0.284047
C	 0.8299588072	-0.4911612131	-1.1785881279	 0.366215
C	 0.0440737584	-1.0253119497	-2.3418949825	-0.325274
C	 0.9073152869	-1.9665044738	-1.5200775388	-0.230667
C	 2.2782894436	-2.2233999851	-2.0860295385	 0.428944
O	 2.7746028558	-3.2877949189	-2.3832115445	-0.38768
N	 2.8798944085	-0.9910739934	-2.2112356031	-0.328225
C	 2.1974315659	 0.1019595208	-1.5416864699	-0.233379
H	 0.5774353013	 2.162244627	-0.2139184267	 0.11958
H	-0.9613425083	 1.6593737092	-0.925497818	 0.121452
H	-0.8113948648	 1.8462577315	 0.8290118789	 0.116935
H	 0.7779013953	-0.0868156968	 0.9246904558	 0.101686
H	-0.7621638961	-0.5773823141	 0.2405258529	 0.101463
H	-1.0288939219	-1.1193729828	-2.2097712837	 0.117403
H	 0.3567545042	-0.7953647386	-3.3557096804	 0.122346
H	 0.4483266478	-2.7475837527	-0.9282862199	 0.105785
H	 3.8303901406	-0.9283767918	-2.5381595565	 0.24948
H	 2.10971003	 0.9808758132	-2.1924653224	 0.112182
H	 2.7295574675	 0.413272854	-0.630331681	 0.105312
