18
gdb 97316	4.55604	0.73274	0.63619	2.6088	84.24	-0.2328	-0.0737	0.1591	1749.4274	0.145786	-435.298092	-435.288038	-435.287094	-435.333744	35.15	
C	 0.3046901667	 1.7269710536	-0.8879564803	-0.310116
N	 0.1513575314	 0.318738543	-1.1863938869	-0.234691
C	 0.1148050406	-0.4822049027	-0.2055600997	 0.12155
N	-0.0296831931	-1.841340501	-0.411914121	-0.324176
C	-0.0804381741	-2.7921164768	 0.5733898748	 0.255565
N	 0.0039228554	-2.5041011017	 1.8175543307	-0.511626
C	-0.2465742243	-4.1954001314	-0.0145482961	 0.357354
C	-0.3197606797	-5.3604527315	 0.9456493968	-0.504584
O	-0.3142910222	-4.3363391191	-1.2149718241	-0.301491
H	 1.2060455756	 2.1113216684	-1.3800453995	 0.127015
H	-0.5426933549	 2.2854410158	-1.303125524	 0.127014
H	 0.3743157661	 1.9506208645	 0.1884989799	 0.101038
H	 0.1886645714	-0.2087160841	 0.8513036163	 0.129664
H	-0.1054277478	-2.1768439477	-1.3634339126	 0.273767
H	-0.0539588142	-3.3408977924	 2.3912526406	 0.224476
H	-1.1659411224	-5.2456137868	 1.6313813818	 0.156901
H	-0.4369332151	-6.2809029619	 0.3739952072	 0.155441
H	 0.5895708605	-5.4203535381	 1.553067046	 0.156898
