18
gdb 44546	3.15509	1.50785	1.4452	4.374	74.53	-0.227	0.0009	0.2279	974.6224	0.149568	-401.933606	-401.926577	-401.925633	-401.965207	28.48	
O	 0.0096139902	 0.6585741909	 1.1999619482	-0.318725
C	-0.0137982431	 1.5048840041	 0.3471312492	 0.413813
C	-1.2873747331	 2.094125651	-0.2877218158	-0.326653
C	-0.8540184999	 3.3744357346	-0.9977302647	-0.040196
C	-0.8085655013	 4.6691932409	-0.1700091362	-0.051345
N	-0.0431259181	 4.3436129926	 1.0562175797	-0.334689
C	 0.678970735	 4.6896864372	-0.190515225	-0.051345
C	 0.7372381156	 3.3963559092	-1.0196643341	-0.040197
C	 1.2250923869	 2.1287402862	-0.3223442416	-0.326653
H	-1.6726845106	 1.3531716456	-0.9996040945	 0.119968
H	-2.0491672667	 2.235334476	 0.4819053215	 0.131873
H	-1.3057143214	 3.5200516191	-1.9793330239	 0.076149
H	-1.5215019669	 5.4847129236	-0.1753845661	 0.093003
H	-0.0461843867	 5.1662299516	 1.6565263442	 0.234003
H	 1.3687558467	 5.5245309469	-0.2152278318	 0.093003
H	 1.1575311205	 3.5539772622	-2.0132870331	 0.076149
H	 2.0036099679	 2.2911823722	 0.4260654459	 0.131874
H	 1.610920205	 1.398408816	-1.044842822	 0.119968
