17
gdb 106911	4.27458	1.12803	1.00054	3.7504	74.16	-0.2424	-0.0704	0.1719	1201.7588	0.135114	-421.832577	-421.824408	-421.823464	-421.865503	30.707	
C	 0.0066433823	 1.4926384097	 0.3571634868	-0.384243
C	 0.0283724681	 0.0391358555	-0.1349292246	-0.289872
C	-1.3500458485	-0.5615656166	-0.2329348747	 0.390176
O	-2.0077691308	-0.88726425	 1.0151641812	-0.28952
C	-1.711614184	-1.9476960037	 0.085008081	-0.180471
C	-2.9057676376	-2.3083465164	-0.7975524984	 0.40209
O	-3.4293400131	-3.3907894743	-0.8922395578	-0.314664
C	-3.2400091887	-1.0614310783	-1.5497394708	-0.199723
C	-2.3575638976	-0.0973045124	-1.2611948144	-0.109714
H	 1.0232348431	 1.8871541469	 0.4382645398	 0.121343
H	-0.5472040178	 2.1449808721	-0.3260397974	 0.119081
H	-0.4655293061	 1.5571226436	 1.3415004466	 0.140527
H	 0.5101878961	-0.0213347443	-1.11872907	 0.110314
H	 0.6221716707	-0.5741560894	 0.5503376329	 0.117475
H	-1.0209312436	-2.7140959168	 0.4227774771	 0.114629
H	-4.0955547199	-0.9956408865	-2.2093173053	 0.127215
H	-2.3574910425	 0.9076884709	-1.6665804421	 0.125359
