19
gdb 32102	3.43228	1.11758	0.9027	2.3473	85.27	-0.244	-0.0311	0.2129	1343.2623	0.160275	-382.146786	-382.13786	-382.136916	-382.181665	32.07	
C	 0.1791959574	 1.6243712317	 0.0795067135	-0.371119
C	-0.0001228941	 0.0999948109	-0.0137711687	-0.268924
C	 0.7102487951	-0.48136448	-1.2097921504	 0.335753
N	 0.2269184136	-0.1542699957	-2.417706239	-0.303236
C	 0.8713348365	-0.6608806193	-3.467068056	 0.055062
N	 1.9398284185	-1.4554004998	-3.4599060988	-0.307431
C	 2.4253165052	-1.7842210778	-2.2533851791	 0.338861
C	 3.6307735717	-2.6825104677	-2.228373636	-0.469052
C	 1.8262171588	-1.3075613396	-1.0887981229	-0.232691
H	 1.2322001454	 1.8901108969	 0.2178638467	 0.11689
H	-0.1741450414	 2.1017260079	-0.8379231083	 0.14244
H	-0.3869654637	 2.0292233082	 0.9232772536	 0.115287
H	 0.361258143	-0.3818792341	 0.9006194797	 0.099753
H	-1.0674511369	-0.1298069808	-0.1072865984	 0.123344
H	 0.477048309	-0.3961277869	-4.4463443305	 0.113589
H	 3.961224765	-2.8921070053	-1.2085094619	 0.120645
H	 3.404482172	-3.6290822896	-2.7293504644	 0.146932
H	 4.4549493795	-2.2206811309	-2.7810416373	 0.146878
H	 2.2169768952	-1.5742980181	-0.1127806217	 0.097019
