14
gdb 27953	3.89934	1.20963	0.92851	3.2054	70.97	-0.2685	-0.0977	0.1708	1183.0623	0.101075	-432.928594	-432.920598	-432.919654	-432.96289	27.337	
C	-0.0073450153	 1.4790769417	-0.0152382667	-0.464313
C	-0.0078853429	-0.0188097193	 0.0114853868	 0.357401
N	 0.0504541034	-0.6628348814	-1.1651958898	-0.291007
C	 0.04729956	-1.9916402636	-1.0867269022	 0.237497
C	 0.1130815789	-2.7122262845	-2.413550437	 0.122289
O	 0.1195547319	-3.9066213615	-2.5316386596	-0.221023
N	-0.0077067371	-2.7116420919	 0.0371230988	-0.253798
C	-0.0624713636	-1.971213341	 1.1401960541	 0.07335
N	-0.0659530424	-0.6373135242	 1.1963272748	-0.261933
H	 0.8969332014	 1.8423638766	-0.5135127223	 0.154247
H	-0.8580587094	 1.8414574406	-0.6008366022	 0.15424
H	-0.0578757089	 1.8790999842	 0.9969250534	 0.148572
H	 0.1550562972	-2.0127745552	-3.273024747	 0.103515
H	-0.1089706632	-2.5008738805	 2.089314759	 0.140963
