17
gdb 48718	3.76303	1.34764	1.15702	4.0921	72.35	-0.2404	-0.0221	0.2184	1053.4582	0.138012	-417.976347	-417.969204	-417.96826	-418.00791	28.3	
O	-0.4965550574	 0.7127056177	 0.7416149664	-0.272892
C	 0.2062451738	 0.9876644285	-0.2009288219	 0.121098
C	 1.3781736451	 1.8967935359	-0.1379611604	 0.202736
C	 1.8602187082	 2.4076619412	 1.2175866487	-0.31351
C	 2.4067505995	 3.8085182745	 0.9706388144	-0.033591
N	 3.5534110967	 3.8552446996	 0.0419587216	-0.347983
C	 2.1980270288	 4.1695241691	-0.4580548326	-0.048399
C	 1.5542813913	 2.9949371362	-1.1725380677	-0.067781
N	 2.3144984933	 1.76482228	-1.2745871617	-0.367205
H	 0.0201182221	 0.580955714	-1.2189692276	 0.084133
H	 0.9993268428	 2.4420044734	 1.892138468	 0.134739
H	 2.6067039262	 1.7468815739	 1.670381984	 0.12112
H	 2.3586453748	 4.5475380435	 1.764155907	 0.097569
H	 4.0822638578	 4.7124774278	 0.1781906565	 0.239759
H	 1.9682949667	 5.1770115065	-0.7844152913	 0.094571
H	 0.831690191	 3.1892871587	-1.9587760064	 0.101246
H	 3.2660255592	 1.9489665296	-0.9520305669	 0.254389
