21
gdb 107126	3.22751	1.12347	1.08789	0.9997	82.55	-0.2049	0.0807	0.2856	1251.954	0.181051	-387.019702	-387.010762	-387.009818	-387.052988	35.342	
C	-0.3073572676	 1.4965127909	-0.0203368632	-0.372513
C	 0.1028179229	 0.0184174568	 0.0400672272	-0.289621
C	 0.8163401752	-0.4432992082	-1.2006340163	 0.391747
C	 0.1096002576	-0.9636495631	-2.4260178698	-0.359895
C	 1.0871046236	-1.8543043479	-1.6989603914	-0.206591
C	 2.5828725176	-1.4740737991	-1.9260682564	 0.399226
O	 3.6026281685	-2.3053758624	-1.4996242141	-0.456439
C	 2.798945195	-0.3296920352	-2.8762762645	-0.373319
C	 2.3122183711	-0.0694201578	-1.4601087545	-0.172954
H	 0.564671576	 2.1424966574	-0.1683473663	 0.118721
H	-0.9974955906	 1.678565424	-0.8506208004	 0.116906
H	-0.8002294966	 1.8088056276	 0.9056587187	 0.109006
H	 0.7484811849	-0.1464660918	 0.9134715908	 0.099192
H	-0.786158424	-0.6060511572	 0.194462635	 0.093968
H	-0.9323727631	-1.2233923752	-2.255141757	 0.10778
H	 0.2930245013	-0.5892741333	-3.4271799893	 0.1082
H	 0.8022211558	-2.7917814901	-1.2369740133	 0.088976
H	 3.8021502429	-2.924966863	-2.2112823658	 0.28346
H	 3.8512414694	-0.0908175389	-3.0024152362	 0.113706
H	 2.1980251799	-0.1430759286	-3.7602298047	 0.107337
H	 2.8839268502	 0.5394575951	-0.7712989886	 0.093105
