16
gdb 35029	3.39603	1.4918	1.45191	4.4879	72.34	-0.2604	-0.02	0.2404	941.74	0.127016	-400.756045	-400.749311	-400.748367	-400.787069	26.928	
N	-0.0401863197	-1.1635544461	-0.0901906165	-0.330851
C	-0.0051091975	-0.0096770735	-0.0306524597	 0.286139
C	 0.0096472573	 1.4456339336	 0.038580515	-0.17229
C	-0.2942605002	 2.0686552921	 1.4438325093	-0.110569
C	 0.9466244676	 1.5300685696	 2.2181403156	-0.080968
O	 2.0015736622	 1.5659184066	 1.2464742632	-0.269137
C	 1.4189265627	 2.0963920065	 0.0332859312	 0.059985
C	 1.0470214673	 3.5481759796	 0.2908640392	-0.085859
C	 0.0175757111	 3.5241046633	 1.1443749977	-0.087208
H	-0.6448003029	 1.8589173294	-0.7301428689	 0.130705
H	-1.2574113075	 1.836155813	 1.8936389978	 0.093927
H	 1.1986518537	 2.1598814073	 3.0774126009	 0.109556
H	 0.8024153773	 0.4967818453	 2.5520194001	 0.129241
H	 2.0865575646	 1.8680396798	-0.7942878564	 0.098675
H	 1.6054375362	 4.4041818024	-0.0627174983	 0.115169
H	-0.4560939023	 4.3614825912	 1.6400370698	 0.113484
