16
gdb 133715	3.42452	0.88563	0.84855	3.231	58.31	-0.2737	0.0853	0.3591	1364.5174	0.119024	-569.382471	-569.373489	-569.372545	-569.417632	31.797	
C	 0.0748478389	 1.5197560027	-0.2288206747	-0.421135
C	-0.0488366791	 0.0519599104	 0.0908200769	 0.071907
O	 1.148490925	-0.7332335273	 0.0923737666	-0.252501
C	 0.4342492956	-0.5942663425	 1.3226309827	 0.056769
C	 1.1273960587	 0.1406939491	 2.446328124	-0.369275
C	 2.0714788646	-0.7627829594	 3.2189912199	 0.285177
F	 3.055491128	-1.2361502571	 2.4469191555	-0.068682
F	 2.637843894	-0.1010498297	 4.2410185942	-0.080353
F	 1.421995536	-1.8206817153	 3.7377311938	-0.086741
H	 0.9190100201	 1.98458399	 0.2841034616	 0.128404
H	 0.2219983576	 1.6552362004	-1.3051669607	 0.136823
H	-0.8418890067	 2.0495922998	 0.0517456585	 0.126238
H	-0.886961461	-0.4421173883	-0.4056438786	 0.094128
H	-0.0757504331	-1.5039986949	 1.6422247264	 0.10608
H	 1.7117756394	 0.9814648385	 2.0695741948	 0.138263
H	 0.3909493321	 0.5227996435	 3.1611386394	 0.134897
