25
gdb 121109	3.25941	0.81875	0.69713	1.16	90.06	-0.2458	0.0855	0.3313	1754.2292	0.228882	-389.519843	-389.509459	-389.508515	-389.556294	38.096	
C	-0.062242675	 1.6019661524	 0.0619649133	-0.381569
C	-0.0279834237	 0.0719846286	 0.0922021613	-0.164524
C	 0.7273080102	-0.4856599749	 1.3035206464	-0.195362
C	 0.752922149	-2.0062678305	 1.3601470268	 0.150523
C	 1.5157175633	-2.6136344596	 2.5621134595	-0.24924
C	 0.663378407	-3.8442438931	 2.9585750352	-0.234469
C	-0.4833737747	-3.8463534043	 1.9215151659	 0.165013
C	-1.8363332436	-4.298448201	 2.4414332227	-0.409374
O	-0.5784538643	-2.4964234975	 1.4833405657	-0.272457
H	 0.9492520547	 2.0228921833	 0.0266546757	 0.109252
H	-0.6066076174	 1.9719950053	-0.8125905625	 0.109831
H	-0.5546710146	 2.0046827759	 0.9542750098	 0.113057
H	-1.0480468875	-0.3264177538	 0.1012823412	 0.116451
H	 0.4397873107	-0.3034430967	-0.827867396	 0.089192
H	 1.7639962901	-0.1227719647	 1.2964999896	 0.090297
H	 0.2697417379	-0.1156040985	 2.2307747788	 0.095832
H	 1.1896696381	-2.397181964	 0.422743913	 0.054095
H	 2.5423449998	-2.8758312171	 2.2936335374	 0.098917
H	 1.5667884837	-1.8913832898	 3.3823466388	 0.101278
H	 1.2282696791	-4.7798615503	 2.9389596398	 0.09857
H	 0.2556861356	-3.7286826241	 3.9674570138	 0.10081
H	-0.189863509	-4.4798220689	 1.0652062328	 0.05735
H	-2.1476141022	-3.6724200953	 3.2836893655	 0.119886
H	-2.5967135555	-4.2258870879	 1.6587478686	 0.123043
H	-1.7884501214	-5.3384056034	 2.7792737569	 0.113598
