14
gdb 130384	3.5214	1.09896	0.84274	6.3394	71.61	-0.2183	-0.0302	0.188	1275.2463	0.101615	-466.154882	-466.146444	-466.145499	-466.188261	30.468	
N	-0.0386049919	 1.3499437991	-0.0633519462	-0.493825
C	-0.0922386585	 0.0097807969	 0.0870952824	 0.136129
N	-1.155170739	-0.6632417909	-0.1773981657	-0.371026
C	-1.0900744679	-2.0394720577	-0.1037782194	 0.34577
N	-0.0314421847	-2.8025694755	-0.2119088299	-0.173687
O	-0.4799810344	-4.0894217896	-0.1075548653	-0.178232
N	-1.8586283857	-4.1344342555	 0.0564080448	-0.179481
C	-2.2397920662	-2.8864853746	 0.059940015	 0.295994
N	-3.5268380682	-2.4441279346	 0.252994935	-0.593032
H	 0.7351752877	 1.875213845	 0.3013125311	 0.273856
H	-0.8773165831	 1.845721346	-0.3195437353	 0.270409
H	 0.8382348976	-0.4507038012	 0.4314493285	 0.141151
H	-4.2470824061	-3.1107066986	 0.0170816805	 0.263195
H	-3.6871891796	-1.5206994389	-0.1237136256	 0.262779
