21
gdb 118558	2.8304	0.78592	0.65113	3.4436	77.73	-0.2413	-0.0186	0.2228	1734.4425	0.178092	-461.345995	-461.334702	-461.333758	-461.38406	37.689	
C	 1.2339972156	 0.7866465325	 0.9178724396	-0.232222
O	 0.7989088226	-0.5343804397	 0.6909373001	-0.235968
C	-0.5775708209	-0.6154622151	 0.3938535376	-0.052018
C	-0.9584059551	-2.0727502663	 0.1306053072	 0.078059
C	-2.4851836164	-2.227948545	 0.0611671634	-0.291317
C	-2.9155620268	-3.676679185	-0.0313030276	 0.152449
O	-3.8320725114	-4.1513247946	 0.5903681389	-0.244354
O	-0.4562043738	-2.548671785	-1.1066193983	-0.256624
C	 0.8816335126	-3.0184263658	-1.0876236173	-0.239629
H	 2.300796243	 0.7445848313	 1.1492255166	 0.130653
H	 1.0850706423	 1.423333357	 0.0320370719	 0.109143
H	 0.7032741166	 1.2477975704	 1.7655416311	 0.107825
H	-1.1728510026	-0.2224076453	 1.23584429	 0.087211
H	-0.8222870569	-0.016197346	-0.4990417897	 0.095609
H	-0.5554284573	-2.6807968913	 0.9572747546	 0.084325
H	-2.9837365091	-1.770289222	 0.9193160604	 0.120275
H	-2.8299744794	-1.7199890831	-0.8507375802	 0.133764
H	-2.3141441789	-4.2882876793	-0.7365543886	 0.092951
H	 1.5944291275	-2.2155581816	-0.8779098169	 0.131662
H	 1.0148923855	-3.810499515	-0.3353747907	 0.105576
H	 1.0779749829	-3.4378644112	-2.0776210521	 0.122629
