20
gdb 96531	2.38725	1.51395	1.0182	4.5306	75.31	-0.251	0.0218	0.2727	1186.9816	0.173547	-440.337487	-440.329133	-440.328189	-440.370302	32.797	
O	-0.0781752844	 1.4719285769	-0.0356052098	-0.443614
C	-0.0196359046	 0.0721478748	 0.0200533346	 0.045781
C	-1.4433524945	-0.5205559088	 0.0440473154	-0.206484
C	-1.5425800156	-1.9519134462	 0.5842072968	-0.207146
C	-0.8260837041	-3.0240606598	-0.2476185066	-0.182067
C	 0.6869827337	-2.805486602	-0.3815619484	-0.167353
N	 1.0642576608	-1.7360008419	-1.3000153143	-0.300855
C	 0.800953631	-0.4124408193	-1.1860815423	 0.371013
O	 1.1867408734	 0.4022516491	-2.0153024089	-0.396313
H	 0.3876699077	 1.7012964358	-0.8597248342	 0.291363
H	 0.5033838341	-0.2404577803	 0.9413434465	 0.079982
H	-2.0317955073	 0.1452110173	 0.6830002602	 0.117939
H	-1.8783429632	-0.4527836606	-0.9609896705	 0.102514
H	-1.1400182812	-1.9738189539	 1.6069645323	 0.099036
H	-2.6007981427	-2.2225335264	 0.6707418821	 0.102833
H	-0.9836875089	-4.0012227267	 0.2246161153	 0.101264
H	-1.2617417105	-3.0830601973	-1.2527682003	 0.104756
H	 1.1248196359	-2.6251936801	 0.6102663204	 0.119063
H	 1.1561047204	-3.714802263	-0.7657936516	 0.116196
H	 1.5984379501	-1.9774100178	-2.1212404668	 0.252091
