19
gdb 15615	3.28066	1.7106	1.27421	2.5234	74.29	-0.2394	0.0338	0.2732	1021.1233	0.165912	-365.088548	-365.079976	-365.079032	-365.122108	30.621	
C	-0.1000705805	 1.4193931337	 0.0127194044	-0.33325
N	 0.0201264463	-0.028920152	 0.0579977754	-0.327329
C	 0.4557574386	-0.6543604138	-0.9440668179	 0.434073
O	 0.8245146219	-0.0791472654	-2.135338287	-0.249318
C	 1.3666815628	-1.0698868192	-3.0189093429	-0.082271
C	 0.8185839842	-2.4114876585	-2.5151704077	-0.241706
C	 0.6656938805	-2.1596312735	-1.0032757813	-0.088016
C	 1.8919822285	-2.5755849864	-0.1750537073	-0.395191
H	 0.3664213317	 1.8429537722	 0.9091665665	 0.11985
H	 0.3484538918	 1.8836027639	-0.8727356031	 0.120333
H	-1.1608769542	 1.695811597	 0.0501005214	 0.121763
H	 1.0563658731	-0.8182673442	-4.0358567046	 0.117666
H	 2.4625850565	-1.0298247545	-2.97092704	 0.110127
H	-0.1554165917	-2.6119820096	-2.9713738455	 0.113328
H	 1.4819132821	-3.2471736521	-2.7502874365	 0.10685
H	-0.2180343539	-2.654133004	-0.5944309755	 0.101916
H	 2.8106177733	-2.1185053067	-0.5594804798	 0.115916
H	 1.7680514189	-2.2574140669	 0.8629521812	 0.141516
H	 2.0216731402	-3.6622616502	-0.1962995997	 0.113743
