20
gdb 116812	4.35301	0.56255	0.52348	2.3737	86.7	-0.2477	0.0235	0.2712	2117.1414	0.16778	-403.109536	-403.098944	-403.098	-403.146741	37.151	
C	-0.9358594311	 1.3552197993	-0.4515643236	-0.396272
C	-0.4641223069	 0.1533112918	 0.3735787547	-0.110306
N	-0.9078136477	-1.17783735	-0.0050582864	-0.225092
C	-1.6579846019	-1.3484909311	-0.9961922377	 0.118368
O	-2.0275185336	-2.6023130639	-1.3570853195	-0.196022
C	-3.0052988358	-2.7114504129	-2.3814873469	-0.090293
C	-4.4214464586	-2.785568939	-1.7823004523	-0.345636
C	-5.4352194848	-2.9558778682	-2.8134335642	 0.287964
C	-6.2385570726	-3.0943986709	-3.696455356	-0.439227
H	-0.5137781986	 2.2739290015	-0.0333266839	 0.11682
H	-0.6114109888	 1.2872081886	-1.4955356347	 0.119582
H	-2.0264848939	 1.4570956547	-0.4395647007	 0.117755
H	 0.6338017586	 0.1314363577	 0.3836593894	 0.11445
H	-0.7553712273	 0.2988898845	 1.4223509347	 0.11354
H	-2.0594337642	-0.5677775429	-1.6559643767	 0.077287
H	-2.9343968151	-1.8713151739	-3.0838189075	 0.11752
H	-2.7814587904	-3.6298969954	-2.929059961	 0.133406
H	-4.454222423	-3.6159727193	-1.0675475614	 0.149612
H	-4.6164911488	-1.8716301012	-1.2071981386	 0.136035
H	-6.9626899756	-3.2188352492	-4.4630718378	 0.200511
