14
gdb 24508	3.97206	1.72587	1.20311	1.5348	76.81	-0.2348	-0.036	0.1988	943.1313	0.105485	-399.630344	-399.624563	-399.623619	-399.660357	23.674	
O	-0.0674160333	 1.3370750104	 0.0098512209	-0.211563
C	 1.2274247442	 1.793147077	 0.0001615203	 0.003449
C	 2.1346651233	 0.7897835236	-0.0140344482	-0.289147
C	 1.3644101035	-0.4291932354	-0.0134009903	 0.26107
C	 0.0168411908	-0.020759597	 0.0015772858	 0.356643
C	-1.0163171308	-0.9380724852	 0.0062965648	-0.241245
C	-0.6155181375	-2.271772345	-0.0048255063	-0.100296
C	 0.7493623486	-2.5990672722	-0.0195306794	-0.036094
N	 1.7455384519	-1.7123301504	-0.0240670194	-0.347381
H	 1.3263032314	 2.8668472878	 0.0051644282	 0.145582
H	 3.2082937231	 0.8859240614	-0.0237049508	 0.128413
H	-2.0579578849	-0.6396858409	 0.0177878124	 0.120407
H	-1.353667955	-3.0655449595	-0.0022117511	 0.104474
H	 1.0445079248	-3.6454737946	-0.0280745668	 0.10569
