18
gdb 67139	2.17842	1.8263	1.47808	2.5642	76.63	-0.2298	-0.002	0.2277	1004.1259	0.146601	-401.91474	-401.906318	-401.905374	-401.947496	31.726	
C	-0.1006546574	 1.5076808112	 0.157311677	-0.530739
C	-0.0086841528	 0.033655014	-0.042989784	 0.303186
C	 0.9145941622	-0.9096991613	-0.9238625608	-0.25435
C	 1.1865759121	-1.6583498176	 0.386496008	-0.164846
N	-0.0465421963	-1.0242878001	 0.9853076645	-0.213603
C	-1.0885248032	-1.0383584548	-0.1047373073	 0.159261
C	-2.5352376595	-1.0133530352	 0.2634920611	-0.507675
C	-0.4282482782	-1.5289954472	-1.3604362706	 0.398166
O	-0.8461148593	-1.9786768404	-2.3913270163	-0.339948
H	 0.842923985	 1.9164270527	 0.5339545047	 0.136125
H	-0.3384518744	 2.0139852058	-0.7838418916	 0.137757
H	-0.8849450542	 1.742240658	 0.8830195009	 0.141432
H	 1.6694934911	-0.6385136333	-1.6572591022	 0.094914
H	 1.1851402564	-2.7540946343	 0.3642700289	 0.112058
H	 2.0555469838	-1.2964537763	 0.9411238099	 0.117761
H	-2.7202483287	-0.3011220354	 1.0720309869	 0.132787
H	-3.1436949368	-0.7346785166	-0.6019495165	 0.138196
H	-2.86414978	-1.999479289	 0.6064115073	 0.139519
