17
gdb 55647	2.33822	1.23926	1.11095	5.6075	69.	-0.2766	-0.001	0.2756	1186.4659	0.134169	-455.199649	-455.189928	-455.188984	-455.234433	35.416	
C	 0.0149630808	 1.514836176	-0.1889454672	-0.406159
C	 0.0359937027	-0.0088552475	-0.022958265	 0.208461
O	 0.8867443313	-0.3031473432	 1.054959294	-0.441106
C	-1.3939492545	-0.5583807787	 0.2288901733	-0.34651
C	-1.3881987067	-2.0670612102	 0.4567730985	 0.438195
N	-2.4323963649	-2.7537266679	-0.0640788821	-0.514819
O	-0.5054808298	-2.6174225586	 1.1036240882	-0.378498
C	 0.553624183	-0.6227429673	-1.2820122463	 0.261188
N	 0.9372041171	-1.099251156	-2.2626450082	-0.344887
H	 1.0337295909	 1.8782065444	-0.3383851403	 0.150046
H	-0.5978270076	 1.8143976608	-1.04280691	 0.127068
H	-0.3849659755	 1.9645053866	 0.7234751118	 0.130568
H	 0.7142350358	-1.2360404549	 1.2884475254	 0.307694
H	-1.7641630915	-0.0840607687	 1.1446452886	 0.149363
H	-2.0596587062	-0.276351859	-0.5920007726	 0.115736
H	-3.0876611961	-2.3300928269	-0.6970828133	 0.270496
H	-2.4345687088	-3.7572020891	 0.0316321951	 0.273165
