19
gdb 82452	2.32539	1.77784	1.40005	0.8136	74.63	-0.2141	0.0645	0.2786	1024.811	0.157195	-422.964952	-422.956281	-422.955337	-422.997554	33.719	
C	 0.074756967	 1.6106834717	-0.1211636035	-0.429921
C	 0.0772159116	 0.0952219295	 0.0045776882	-0.042929
C	 1.1367825524	-0.735178344	-0.7807086419	 0.042176
O	 2.4168986244	-0.158981313	-0.385128542	-0.32341
C	 2.1987990336	-0.7678268606	 0.8947729522	 0.394526
C	 3.3039606693	-0.8321236026	 1.8903127984	-0.517094
C	 1.1958876127	-1.7673314341	 0.3986068567	-0.247921
C	 0.6939915102	-0.596953476	 1.2281306518	 0.275169
O	 0.1938553846	-0.6819372029	 2.511340195	-0.458376
H	 1.0936363654	 1.999708476	-0.0493547168	 0.131279
H	-0.3465070846	 1.9291153971	-1.0810365105	 0.113916
H	-0.5309602033	 2.0679713322	 0.669340375	 0.109722
H	-0.9145698443	-0.3337544086	-0.1771439467	 0.078968
H	 1.0582895623	-0.9362697745	-1.8467580399	 0.083793
H	 3.6720546009	 0.1737964077	 2.1226150417	 0.128193
H	 2.9398268521	-1.2880019697	 2.8155943999	 0.134344
H	 4.1453443769	-1.4238366002	 1.5171375975	 0.133698
H	 1.087089166	-2.8394701482	 0.4830468356	 0.103355
H	 0.4576666127	 0.10848478	 2.9958139594	 0.290514
