15
gdb 54749	2.81366	1.38177	1.29628	5.0247	65.49	-0.244	-0.0054	0.2386	1021.7947	0.113304	-453.964974	-453.957055	-453.956111	-453.998515	29.568	
N	 0.2078297043	 0.8482223934	 0.6759941959	-0.526411
C	-0.0108480712	 0.0760978433	-0.4294797954	 0.410516
O	 0.7535332446	 0.0565001864	-1.3763483736	-0.36664
C	-1.3082400927	-0.7028188938	-0.3859955482	-0.150472
C	-1.6621813009	-1.7376828995	-1.4021536262	-0.024689
N	-0.4943659835	-2.4963874301	-1.8650307005	-0.333998
C	-0.1774363511	-2.9027738472	-0.5494677458	 0.425941
O	 0.7230216121	-3.5536443677	-0.107768444	-0.331425
C	-1.400635857	-2.1904208911	 0.0222155195	-0.250663
H	 1.1105428337	 1.2904513922	 0.7543848263	 0.266999
H	-0.3096350719	 0.6919777912	 1.5246674177	 0.263685
H	-2.1510180463	-0.1319357277	 0.0001659182	 0.117214
H	-2.5914070205	-1.7579434395	-1.9557929534	 0.118915
H	 0.2143414046	-2.0346690964	-2.426018433	 0.262678
H	-2.0803218641	-2.5293678936	 0.7915546326	 0.118349
