15
gdb 44819	3.65119	1.16968	0.97821	1.6003	70.43	-0.2767	0.0009	0.2775	1158.3746	0.11257	-416.790287	-416.782398	-416.781454	-416.82349	28.968	
N	 1.077028883	 0.8253410193	-0.5966543027	-0.558578
C	 0.452470686	-0.1826142107	-0.1967796749	 0.403316
O	 0.8788633264	-1.4819328898	 0.0707071379	-0.272448
C	-0.5041189394	-1.8994383497	 0.24004436	 0.057306
C	-1.0909596609	-1.1956302887	 1.410020364	-0.341075
C	-0.9916764396	-0.4785086789	 0.0585809997	 0.173009
C	-2.1337501036	 0.1657312275	-0.6900414424	-0.439297
C	-3.3895288438	-0.565626702	-0.5363285077	 0.260184
N	-4.3664838771	-1.1658159504	-0.3944127556	-0.30725
H	 2.0733660507	 0.6337286587	-0.7111242517	 0.23832
H	-0.80298753	-2.8378077539	-0.2052546489	 0.143374
H	-2.1035625913	-1.4878596538	 1.6731938935	 0.155776
H	-0.4536856002	-0.9018422006	 2.2378370339	 0.139404
H	-2.2778831089	 1.193437339	-0.3355965811	 0.176292
H	-1.8898247013	 0.235925644	-1.7561080939	 0.171667
