17
gdb 24162	5.4101	0.93875	0.83019	1.5183	74.54	-0.1993	0.0132	0.2125	1353.2885	0.13783	-418.013894	-418.006139	-418.005195	-418.046971	29.235	
C	-0.3436456317	 1.089965917	-0.2815665576	-0.251787
C	 1.0721960612	 1.1251878027	 0.2369529783	-0.287022
C	 0.3691800747	-0.1929131446	 0.0770331387	 0.031771
N	-0.0365782149	-0.8742452531	 1.2675610551	-0.386244
C	-1.0843891976	-1.7726814798	 1.1886780788	 0.305206
C	-2.0728690549	-1.9104141838	 0.2616289883	-0.12399
O	-2.8939830143	-2.9363231915	 0.6900206028	-0.14283
C	-2.3390345596	-3.3509774959	 1.8374035921	 0.082682
N	-1.2698213806	-2.7137703728	 2.1941298971	-0.326523
H	-1.1280672564	 1.4167393671	 0.3904246604	 0.127809
H	-0.5176083065	 1.3012599792	-1.3306275544	 0.114148
H	 1.8749031297	 1.3600923458	-0.4523934845	 0.116808
H	 1.2215838848	 1.4820822714	 1.2494991414	 0.12266
H	 0.6786899582	-0.8235087219	-0.7589786508	 0.08778
H	 0.7155952673	-1.2181236341	 1.8491024409	 0.244511
H	-2.3412205229	-1.4223957262	-0.6559577188	 0.137777
H	-2.8240268465	-4.1667289494	 2.3505292823	 0.147241
