20
gdb 98219	2.82472	0.94444	0.90352	2.4447	76.53	-0.2413	-0.0291	0.2122	1430.8953	0.168696	-440.35281	-440.342227	-440.341283	-440.389366	37.509	
C	-0.3780942256	 1.7291704603	 0.2123433542	-0.381063
C	-0.2917263472	 0.2453971584	-0.1321063955	-0.280936
C	-1.5620672517	-0.5325235499	 0.1553047659	 0.37871
O	-2.5727698382	 0.0163124133	 0.5502638288	-0.333235
C	-1.4920222472	-2.0444858163	-0.0512215054	-0.176888
C	-1.4302266611	-2.7359221923	 1.3325931435	-0.394836
C	-2.6542384269	-2.6382132073	-0.8739929662	 0.375406
N	-3.8932558293	-2.2048248693	-0.5225978503	-0.511504
O	-2.4426386785	-3.483896501	-1.7214874672	-0.366875
H	 0.5575733272	 2.2373081611	-0.0357154439	 0.115373
H	-1.1907728475	 2.2094088685	-0.337981756	 0.135388
H	-0.5773090689	 1.8730561992	 1.2775618703	 0.131095
H	-0.0616600959	 0.0934441862	-1.1968792478	 0.137659
H	 0.5328451456	-0.2481203291	 0.401374794	 0.128091
H	-0.5895237126	-2.297136957	-0.6120759171	 0.105651
H	-2.3185217442	-2.4961751263	 1.9216003846	 0.141002
H	-1.3763414241	-3.8195322748	 1.2010718278	 0.143516
H	-0.5463700042	-2.4145450157	 1.8925643791	 0.121412
H	-3.9782937366	-1.3652133027	 0.0340393289	 0.275686
H	-4.6680811231	-2.5165539354	-1.0858975877	 0.256347
