23
gdb 58893	2.92019	1.17316	1.14526	1.7163	84.5	-0.2505	0.0836	0.3341	1258.333	0.206009	-388.304811	-388.295577	-388.294633	-388.338611	35.82	
C	 0.0388693017	 1.3996040702	-0.3493549089	-0.397843
C	 0.011727962	-0.0586131964	 0.1348600297	-0.056861
C	 0.7958105054	-0.2351708235	 1.4436765166	-0.398838
C	-1.4114616951	-0.5696870794	 0.2457528994	 0.44655
C	-2.4058047131	-0.0195412973	 1.2624104856	-0.29014
C	-3.6240154971	-0.9698163778	 1.1628881971	-0.213586
C	-3.050257773	-2.3313410811	 0.7006975971	-0.240894
C	-1.8169165272	-1.9441273999	-0.0886625335	-0.016187
O	-2.0486291261	-0.869626253	-1.0152286361	-0.319233
H	 1.0674617093	 1.7301735408	-0.525716962	 0.109104
H	-0.5202233662	 1.5081091472	-1.2831236197	 0.130922
H	-0.4023887057	 2.0747039258	 0.3924948267	 0.112863
H	 0.4906516267	-0.6739211706	-0.6371879484	 0.079076
H	 0.76973002	-1.2731814686	 1.7912925786	 0.111954
H	 1.8442809203	 0.0451897976	 1.301354439	 0.114345
H	 0.3940185339	 0.3978740148	 2.2421358351	 0.117342
H	-1.9556673198	-0.0574526683	 2.2614988607	 0.10221
H	-2.677361537	 1.0223235735	 1.0670098621	 0.105632
H	-4.1743507562	-1.0434602184	 2.1039406766	 0.094694
H	-4.3148892549	-0.5939598155	 0.405779442	 0.119413
H	-2.7461368271	-2.9537797333	 1.5518827778	 0.099409
H	-3.7677845638	-2.910968452	 0.1114365434	 0.106834
H	-1.105560567	-2.6973762246	-0.421597649	 0.083233
