18
gdb 38915	3.20101	1.74662	1.27031	1.9115	77.43	-0.2247	0.015	0.2396	984.8019	0.15081	-401.93209	-401.925301	-401.924357	-401.963061	27.778	
C	 0.0299286137	 1.4270340367	 0.0655025474	-0.345204
C	 1.3681754379	 0.7465151041	-0.0424450615	-0.106903
C	 1.7428059202	 0.1045384681	 1.3024828061	-0.25969
C	 0.4326192226	-0.7477317188	 1.2492827155	-0.087763
C	 0.6504393841	-2.2229456482	 0.9346624384	-0.097403
O	-0.427026051	-2.7535979232	 0.1371791839	-0.228215
C	-0.8121367607	-1.986801237	-0.9137974613	 0.096088
N	-0.593076178	-0.7514934379	-1.1164508016	-0.339862
C	 0.0562188264	-0.0649050803	-0.0667147316	 0.414643
H	-0.2816008816	 1.8996420392	 0.9954593728	 0.102018
H	-0.2986278584	 1.934088953	-0.8356990134	 0.12464
H	 2.0503794103	 0.9580065683	-0.8562474468	 0.094521
H	 2.6470286969	-0.5090806336	 1.2642893959	 0.103852
H	 1.8310279269	 0.7956341103	 2.1469348953	 0.102118
H	-0.2750610208	-0.6255083943	 2.0757058347	 0.073561
H	 1.5809489866	-2.3572057575	 0.3683561404	 0.11119
H	 0.6919402151	-2.852287922	 1.8260259498	 0.119509
H	-1.3836560903	-2.5780881669	-1.6258263741	 0.122898
