19
gdb 99392	6.95418	0.49143	0.4702	2.3921	74.02	-0.2557	-0.0343	0.2213	2214.594	0.155136	-460.188674	-460.178027	-460.177083	-460.22749	35.564	
O	 0.2392377009	 1.3665620788	 0.0489661661	-0.418497
C	 0.0968676663	-0.0141708244	-0.0891526049	-0.12448
C	-1.362880779	-0.4383864846	 0.0221966243	 0.3471
O	-2.2154036209	 0.4154132669	 0.1493383616	-0.315285
C	-1.6803517365	-1.9202534098	-0.0252029828	-0.307122
C	-3.1762325215	-2.2213475691	-0.1317012549	-0.188063
C	-3.4763761537	-3.7284609973	-0.1044327073	-0.282884
C	-4.9639332131	-4.005450576	-0.1217041372	 0.161067
O	-5.5231676777	-4.7219943159	-0.9099490661	-0.233334
H	-0.6667683923	 1.7065907948	 0.1266299741	 0.295107
H	 0.4749255062	-0.3653276898	-1.0652382904	 0.115355
H	 0.6796373352	-0.5535080286	 0.6754837723	 0.115044
H	-1.1214665238	-2.3728223338	-0.8549981231	 0.130012
H	-1.2579676813	-2.3724069662	 0.8843552387	 0.134427
H	-3.700037226	-1.7166734107	 0.6870644465	 0.127115
H	-3.5681919602	-1.7814573233	-1.0552292694	 0.12739
H	-3.0157168231	-4.2544578417	-0.946215608	 0.123115
H	-3.0748507832	-4.160995956	 0.824494031	 0.11929
H	-5.5348243663	-3.4766863333	 0.6780485493	 0.074641
