17
gdb 14680	3.9125	0.97548	0.84768	2.7315	73.85	-0.2471	0.0201	0.2672	1371.659	0.139172	-363.815224	-363.80593	-363.804986	-363.850255	32.329	
C	 0.709255186	 1.2927777173	-0.6818735623	-0.397986
C	-0.072905597	-0.0020316962	-0.4374651004	-0.110466
N	 0.5857627452	-1.2759667273	-0.673199875	-0.22341
C	 1.7754810799	-1.3211066061	-1.0666070038	 0.13252
O	 2.3702075592	-2.5283593627	-1.2598580071	-0.196962
C	 3.7132783889	-2.4816611133	-1.7400218749	-0.23601
C	 3.8167568722	-2.0702486418	-3.1381342213	 0.313298
C	 3.8951782876	-1.7239148703	-4.2857702523	-0.45128
H	 1.5936092474	 1.3637128186	-0.0393484143	 0.117725
H	 1.0363117978	 1.3819775601	-1.7233433463	 0.122563
H	 0.0701195741	 2.1527648671	-0.4603918455	 0.116127
H	-0.4320046833	-0.0174454716	 0.6002152164	 0.113736
H	-0.9819603641	 0.0032286331	-1.0534163117	 0.11489
H	 2.429157307	-0.4670617072	-1.2793436224	 0.08599
H	 4.3236740073	-1.821156861	-1.1079477302	 0.135432
H	 4.0956847363	-3.4983729109	-1.6143517545	 0.154635
H	 3.9652725556	-1.4241192275	-5.3024385043	 0.209197
