15
gdb 15217	2.5781	2.06916	1.66556	1.3708	69.66	-0.236	-0.0421	0.1939	852.2126	0.11589	-362.597124	-362.58875	-362.587806	-362.629787	29.841	
C	-0.312845269	 1.4390345915	 0.1416691352	-0.326865
N	 0.0336029254	 0.0230256745	 0.0056079991	-0.103642
C	 0.5078087886	-0.515002369	-1.2700980954	-0.105479
C	 0.7649206241	 0.2970725387	-2.493011917	 0.147508
O	 1.0568925242	 1.4685096539	-2.5260305116	-0.261554
C	 1.4260911757	-0.3817855311	-0.0531873342	-0.212233
C	 2.5118832186	 0.556592291	-0.0295673422	 0.382287
C	 3.4403537436	 1.3157374997	 0.0527326881	-0.459389
H	 0.3454433596	 2.1212630835	-0.4009054297	 0.160928
H	-1.3367574187	 1.5699379853	-0.2191564154	 0.126847
H	-0.2928775639	 1.6788513492	 1.2085363169	 0.129061
H	 0.1369037901	-1.5154819072	-1.4875545123	 0.105608
H	 0.6590488724	-0.2921088089	-3.4316452574	 0.08367
H	 1.6320120739	-1.31449152	 0.4698843124	 0.126223
H	 4.2549670753	 1.995350409	 0.1046705533	 0.207029
