21
gdb 96099	2.73115	1.31508	1.00564	1.7111	78.33	-0.2457	0.0766	0.3224	1239.5215	0.18326	-424.218072	-424.209609	-424.208665	-424.25089	33.115	
C	 0.0170646124	 1.5614190888	-0.0050812386	-0.406108
C	 0.0158495005	 0.0311504698	-0.0127954786	 0.012863
C	 0.7279372831	-0.5250141831	-1.2541438759	-0.06958
O	 0.7306438658	-1.9425257529	-1.2838679638	-0.244712
C	 1.4215640901	-2.4997037647	-0.179320121	-0.156922
C	 0.7920991696	-2.0617992829	 1.1307674929	 0.427239
C	-0.1126647446	-2.9658424113	 1.8511687853	-0.237027
O	 1.2401298214	-2.7725179742	 2.2867723089	-0.291423
C	 0.6742868596	-0.5568990472	 1.2505895103	-0.29179
H	 1.0396972215	 1.955735423	 0.01648225	 0.117337
H	-0.4786912008	 1.965423686	-0.8940333377	 0.115418
H	-0.5056334989	 1.9501204988	 0.8746474918	 0.118083
H	-1.0225406454	-0.3244859705	-0.0542898928	 0.082608
H	 0.222346739	-0.2037658324	-2.1698622235	 0.10667
H	 1.764335805	-0.142105588	-1.2877995024	 0.082254
H	 1.3841858152	-3.5862485927	-0.2891587976	 0.111816
H	 2.4812710911	-2.1895116715	-0.1906781169	 0.091492
H	-0.874963765	-2.5539430905	 2.511434097	 0.112002
H	-0.3361100166	-3.9509523562	 1.4436611654	 0.115246
H	 1.6849255815	-0.136976468	 1.3593379979	 0.102912
H	 0.1173716355	-0.2846275502	 2.1531202393	 0.101622
