17
gdb 122786	2.99977	0.82232	0.71472	4.213	70.54	-0.2477	-0.0832	0.1645	1553.8526	0.134079	-455.139976	-455.129907	-455.128962	-455.176863	34.151	
O	 0.2621050198	 0.2958140946	-0.0748898265	-0.42334
C	-0.5714173513	-0.8561549252	-0.15245531	-0.088317
C	-2.008134138	-0.3627198262	-0.1896205651	-0.129526
N	-2.207133808	 0.4678921266	-1.3726307913	-0.288356
C	-3.5025248212	 1.0959452678	-1.4674528294	-0.270074
C	-4.5561781719	 0.1489866566	-2.0270185837	 0.300477
O	-5.7293186779	 0.1944155293	-1.7632675093	-0.256608
C	-4.0511556628	-0.8661736769	-2.9844133328	 0.241683
N	-3.7359109286	-1.6742826623	-3.7492942522	-0.312952
H	 1.1680796388	 0.0308623507	-0.2558316628	 0.295368
H	-0.3650647227	-1.4350130988	-1.0631604324	 0.112188
H	-0.4292707406	-1.5127993174	 0.7183638859	 0.096439
H	-2.6795685446	-1.2292979457	-0.2304588011	 0.112816
H	-2.2273751105	 0.1793172386	 0.7475990737	 0.098017
H	-1.4597643426	 1.1496999554	-1.4160466344	 0.24242
H	-3.9083010605	 1.5040215723	-0.5265812923	 0.124256
H	-3.4444752171	 1.9290872807	-2.1814094461	 0.145511
