23
gdb 59969	2.28044	0.95783	0.89933	2.5295	82.24	-0.238	-0.008	0.23	1509.9506	0.201756	-425.45837	-425.446833	-425.445889	-425.495879	41.085	
C	-2.1078831542	 1.6990284698	-1.0881691993	-0.40563
C	-2.0325800357	 0.181460141	-1.2474300456	 0.122171
O	-1.1245086367	-0.1835342069	-2.2906748526	-0.432141
C	-1.6876486388	-0.5232307438	 0.0723248069	-0.197139
C	-1.5893916295	-2.0483902345	-0.0527888677	-0.070002
C	-1.0273540637	-2.6852546192	 1.2353278732	-0.410629
C	-2.9579219397	-2.6764799804	-0.3402508608	 0.399291
C	-2.9587628636	-3.9491652216	-1.1659660198	-0.482197
O	-3.9833825318	-2.187165364	 0.0792207914	-0.320644
H	-2.3433823215	 2.1709413024	-2.0459142347	 0.122852
H	-2.8756737389	 1.9820397212	-0.3613120813	 0.122783
H	-1.149657114	 2.1010383395	-0.7340035562	 0.102467
H	-3.0042411828	-0.1859017785	-1.596036141	 0.104073
H	-0.2662192724	 0.1980612785	-2.0737130353	 0.274209
H	-0.7300114637	-0.131719787	 0.444544856	 0.073568
H	-2.450384865	-0.2758933881	 0.8181327211	 0.116835
H	-0.9208497233	-2.2923053823	-0.8856566086	 0.087797
H	-0.9458120605	-3.7737749485	 1.1527299286	 0.116768
H	-0.0287176903	-2.2922472977	 1.4494042295	 0.118592
H	-1.6729824529	-2.4592347373	 2.0900810155	 0.132791
H	-2.1992606868	-4.6546699712	-0.8136531143	 0.133358
H	-3.945205152	-4.4141216942	-1.1443415779	 0.138349
H	-2.6990414922	-3.6972956973	-2.2015242372	 0.152476
