19
gdb 84085	2.52966	1.46935	1.185	1.6549	72.84	-0.2557	-0.0008	0.2549	1112.1159	0.159695	-460.175126	-460.1664	-460.165456	-460.208073	33.945	
C	-0.5110240114	 1.4896001044	 0.1346828556	-0.502932
C	-0.1911009977	 0.0362062005	 0.0018563254	 0.305198
C	-0.2796604057	-0.7384458828	-1.0856042984	-0.167402
C	 0.2114693703	-2.137957045	-0.8225393153	 0.036947
O	 1.5812781558	-2.2447703394	-1.2259555813	-0.449951
C	 0.1331735993	-2.2231854884	 0.726319243	 0.08888
O	 1.0805674192	-3.1213366076	 1.2636833408	-0.453537
C	 0.3890470758	-0.7584401139	 1.1553700305	-0.006837
O	 1.799872949	-0.5377227978	 1.3051368334	-0.452643
H	 0.3693656907	 2.0434851963	 0.4814442083	 0.143356
H	-0.841178301	 1.9215840343	-0.8134882329	 0.127415
H	-1.2983642203	 1.6542569802	 0.8809192887	 0.130861
H	-0.6139668306	-0.4075297549	-2.0628990279	 0.101001
H	-0.386810049	-2.9130238329	-1.3208082185	 0.068637
H	 1.9164965762	-3.0049332974	-0.7263898052	 0.282487
H	-0.8719237854	-2.5361389668	 1.029867338	 0.086772
H	 1.786760318	-2.5555214986	 1.6148623281	 0.289559
H	-0.0432316728	-0.5114605972	 2.1294722291	 0.085005
H	 2.1761499395	-0.6646800831	 0.4205750786	 0.287184
