18
gdb 26681	2.26336	1.60355	0.95318	2.0558	77.63	-0.1672	0.0481	0.2152	1215.7943	0.147801	-435.290495	-435.280484	-435.27954	-435.325941	36.302	
C	-0.1692718209	 1.5863594904	 0.0428964806	-0.527216
C	-0.0390547682	 0.0969194103	 0.0398059717	 0.184155
C	 0.0156657686	-0.7302552088	-1.0425417651	 0.227925
N	-0.0080783786	-0.4528149821	-2.4117165295	-0.600476
O	 0.0731590333	-2.0349248672	-0.6741128846	-0.20734
C	 0.0730378025	-2.0566142863	 0.7234489758	 0.187683
N	 0.0694051176	-3.2692941041	 1.4099012204	-0.603558
C	 0.0111133534	-0.7784203207	 1.1856581672	 0.126225
N	-0.1035941646	-0.3751472589	 2.5236785489	-0.614104
H	 0.7747678956	 2.0990292367	 0.2744577029	 0.111485
H	-0.5030687377	 1.9434985575	-0.9360534317	 0.13007
H	-0.9015113381	 1.9127582702	 0.7902239134	 0.13156
H	 0.8193157119	 0.0367512534	-2.7334893388	 0.249162
H	-0.1186002357	-1.3031716274	-2.9502318631	 0.245708
H	-0.7962084746	-3.7921065212	 1.307317144	 0.239086
H	 0.8367075925	-3.8790804736	 1.1452575396	 0.237652
H	 0.0817864368	-1.1526071191	 3.1473941922	 0.244478
H	 0.5113874663	 0.396413231	 2.753648696	 0.237506
