22
gdb 113878	2.60827	0.80935	0.66437	1.0484	91.96	-0.2226	0.0578	0.2804	1785.7991	0.191809	-367.161609	-367.150721	-367.149777	-367.199734	38.056	
C	 0.822554145	 1.7165482546	 0.2322630753	-0.372138
C	 0.0980817699	 0.3846068184	 0.0520723014	-0.117704
N	 0.6066060099	-0.3046019043	-1.1304583668	-0.069895
C	 1.691939844	-1.2644569389	-0.9545760649	-0.269636
C	 0.3266837187	-1.7201719391	-1.3429964703	 0.030878
C	-0.5108321815	-2.5650301477	-0.3871575842	-0.388461
C	-1.9484897431	-2.3819084332	-0.5736825315	 0.071576
C	-3.1285325872	-2.2194024668	-0.750063495	 0.06582
C	-4.5572327694	-2.0275964226	-0.9562301604	-0.496821
H	 1.8938044443	 1.5592645979	 0.3965731702	 0.115675
H	 0.7069152642	 2.339423801	-0.6589893118	 0.125872
H	 0.4240884162	 2.2600457378	 1.0946925645	 0.108595
H	 0.2016314109	-0.2116644934	 0.9744858691	 0.078452
H	-0.9739684251	 0.5534122239	-0.0986283441	 0.113905
H	 2.5003349701	-1.2238027675	-1.6802540531	 0.111934
H	 2.0108331013	-1.4877860539	 0.0646733082	 0.101051
H	 0.140397372	-1.9610549616	-2.388607088	 0.095631
H	-0.2498580358	-3.6191390263	-0.5530690263	 0.129282
H	-0.2374283488	-2.3521724228	 0.6522177689	 0.125502
H	-5.0542950345	-1.7082185758	-0.0334390774	 0.146075
H	-4.7499391446	-1.2625814677	-1.7165852166	 0.148229
H	-5.0409046765	-2.952857032	-1.2887307571	 0.146178
