21
gdb 117203	3.38064	0.97517	0.81676	1.7825	80.79	-0.2631	0.0191	0.2822	1485.2565	0.180575	-424.263871	-424.253746	-424.252801	-424.299815	36.562	
C	-0.3395050647	 1.42238009	-0.2768069699	-0.392025
C	 0.0207121255	-0.030560345	-0.0342614466	-0.042741
O	 0.587496086	-0.5487854102	-1.2533962749	-0.251839
C	 0.9685925127	-1.8417701436	-1.2192668127	 0.424907
O	 0.851721682	-2.5412317127	-0.2388984175	-0.388178
C	 1.5431528136	-2.2896917235	-2.5252320756	 0.188661
C	 1.6199230442	-1.2876877388	-3.658789535	-0.466699
C	 2.6366913541	-3.3417453155	-2.3902076903	-0.278606
C	 1.2758718836	-3.7545379189	-2.8472832793	-0.278602
H	 0.5461855767	 2.005590654	-0.5444693798	 0.128947
H	-1.0689013688	 1.5146780987	-1.0865521825	 0.128945
H	-0.7747790545	 1.8534184113	 0.6297024941	 0.122729
H	 0.7519831957	-0.1440603742	 0.772203772	 0.121899
H	-0.8536908741	-0.6321435616	 0.2331947435	 0.121916
H	 2.2364513055	-0.4252503515	-3.3890279564	 0.124952
H	 2.0593735261	-1.7542966441	-4.545529745	 0.109742
H	 0.6283256939	-0.9131618691	-3.9292301656	 0.124956
H	 3.4414621291	-3.2976537252	-3.1157530184	 0.11447
H	 2.9285778216	-3.6122172597	-1.3827584012	 0.13605
H	 0.657708613	-4.3010735914	-2.1455144198	 0.136044
H	 1.1270589587	-3.999681719	-3.8931206091	 0.114473
