17
gdb 128275	4.94442	1.06135	0.88353	2.1832	82.12	-0.2187	-0.0529	0.1657	1312.7611	0.136177	-414.215665	-414.206587	-414.205642	-414.250576	31.565	
C	-0.0025490038	 1.4489132049	 0.012372749	-0.310059
N	-0.062102265	 0.0027513029	-0.0273320107	-0.340379
C	-1.2184216252	-0.7009045581	 0.0077377519	 0.490108
N	-1.1059105607	-2.0492251363	 0.0558636341	-0.310102
C	-2.2542060748	-2.691527525	 0.0642926344	-0.048907
C	-3.4899671368	-2.0219136357	 0.0260548639	 0.321458
C	-4.808595474	-2.7423745118	 0.0284292018	-0.483662
N	-3.5088121611	-0.6902365386	-0.0085845652	-0.229767
N	-2.3718154458	-0.008499565	-0.0140436645	-0.279842
H	 1.0373589416	 1.7562400503	-0.1145920941	 0.122629
H	-0.6023657958	 1.881656331	-0.7928191563	 0.151316
H	-0.3798674157	 1.8520513023	 0.960048668	 0.135374
H	 0.7775888672	-0.5403477418	 0.0780351279	 0.255684
H	-2.2118601669	-3.7794897054	 0.1051601434	 0.115703
H	-4.9249386311	-3.3673742129	 0.9210443432	 0.131245
H	-5.6182625288	-2.0108418058	 0.008010782	 0.147474
H	-4.9101482634	-3.3992575951	-0.8429005689	 0.131726
