18
gdb 74543	3.37127	1.48605	1.34403	2.062	78.11	-0.2198	-0.0091	0.2107	1020.731	0.147324	-401.791531	-401.784082	-401.783138	-401.823001	30.3	
C	 0.100512239	 1.5272098748	 0.0280129969	-0.519301
C	 0.0336614336	 0.0418739723	-0.0016694135	 0.398617
C	 0.0122678596	-0.8585093107	-0.9886509715	-0.286078
C	-0.0354002628	-2.1941257813	-0.2328947331	 0.329582
C	-0.9961443365	-3.2367772449	-0.8640178041	-0.272573
N	-2.1430452331	-2.4418641494	-0.1938946665	-0.370315
C	-1.0621574809	-2.0022678339	 0.8129550315	 0.021499
C	 0.0026082013	-0.8876349204	 1.2134480991	-0.112534
O	 1.0156369577	-1.9290490152	 0.8433921929	-0.358735
H	 1.00340707	 1.8721103337	 0.5475383763	 0.139042
H	 0.1063224324	 1.9477727951	-0.9810478731	 0.13172
H	-0.7533618565	 1.9536396404	 0.5692165993	 0.134202
H	 0.0463091863	-0.732099331	-2.0621637857	 0.102256
H	-1.0491343864	-3.2946979679	-1.95531255	 0.11332
H	-0.9531057202	-4.2351950546	-0.4267375107	 0.134377
H	-2.3486064662	-1.660214447	-0.8187479571	 0.223515
H	-1.0474644736	-2.7718507959	 1.5861471891	 0.108294
H	 0.1400296064	-0.500482324	 2.2241354603	 0.083112
