22
gdb 102674	1.93516	1.11372	0.75999	3.2486	82.99	-0.277	0.0117	0.2887	1551.2583	0.19168	-404.360712	-404.349669	-404.348725	-404.398726	38.536	
C	-0.7172348371	 1.3745369975	-1.419632268	-0.390615
C	-0.5710678866	-0.0067082464	-0.7767994468	-0.170692
C	-1.7578725278	-0.4052617797	 0.1018831078	 0.120591
C	-1.6479252583	-1.8232366471	 0.6787506415	-0.197264
C	-1.7619358609	-2.9379695394	-0.3669582781	-0.391034
O	-1.8140589169	 0.552459156	 1.181289042	-0.24316
C	-3.0787979532	 1.0466453525	 1.5134709407	-0.204238
C	-3.9486425357	 0.0856825206	 2.2291493576	 0.261086
N	-4.6370182319	-0.6573780306	 2.7854376051	-0.310726
H	 0.1608350425	 1.621362797	-2.0236328109	 0.115906
H	-1.5930375436	 1.4170594092	-2.0774526625	 0.109775
H	-0.8290885677	 2.1484349694	-0.6555783194	 0.126763
H	-0.4438785426	-0.7663543803	-1.5553563961	 0.103528
H	 0.3330737818	-0.0377079014	-0.1560813637	 0.108527
H	-2.685732565	-0.3235003219	-0.4875197947	 0.070902
H	-0.695733819	-1.9026961246	 1.2174004028	 0.103893
H	-2.4375148959	-1.9519263066	 1.4250427722	 0.127798
H	-2.6965643128	-2.8575868047	-0.9335764316	 0.117836
H	-0.9348674137	-2.9225081582	-1.0831358481	 0.119902
H	-1.7559549156	-3.9183101459	 0.1181059926	 0.122611
H	-2.92157165	 1.908567221	 2.1706406353	 0.158466
H	-3.6309314199	 1.4003543337	 0.629146552	 0.140146
