20
gdb 105461	2.88258	0.89793	0.76885	4.1332	80.1	-0.2654	0.04	0.3054	1513.7259	0.169285	-403.143253	-403.133381	-403.132437	-403.17876	35.534	
C	 0.57276908	 0.2234026318	 1.2179108625	-0.254213
O	-0.0728012978	 0.0745122547	-0.035132262	-0.28789
C	-1.2201094442	-0.7333273219	-0.012664162	 0.447262
C	-2.4402755375	-0.0851461193	 0.6132446367	-0.268609
C	-2.8073234766	 1.2235721291	-0.1185014055	-0.334614
C	-3.9341739427	 1.9162460978	 0.4986405115	 0.252844
N	-4.8276933728	 2.4490383051	 1.0022313539	-0.308116
C	-1.3814731303	-1.5911601458	-1.2328736218	-0.314349
C	-1.0151249064	-2.2232439979	 0.0962021798	-0.337736
H	 1.4905980354	 0.7858886082	 1.0329705672	 0.132302
H	-0.0385819011	 0.7809958999	 1.9408441312	 0.11266
H	 0.8296667504	-0.7497113663	 1.6575996027	 0.11293
H	-3.2842607973	-0.7801454687	 0.5752183328	 0.121518
H	-2.2630753328	 0.1300579326	 1.6726976832	 0.121635
H	-1.9387521854	 1.889716273	-0.1316050274	 0.164881
H	-3.0529552426	 1.0114294841	-1.1650677367	 0.153257
H	-2.3797013643	-1.7516132367	-1.6261029196	 0.114882
H	-0.6000694563	-1.5200273763	-1.9800486201	 0.129292
H	 0.004505823	-2.5736821525	 0.2087824659	 0.123773
H	-1.7593075007	-2.8181321709	 0.6145616979	 0.118293
