18
gdb 45779	2.97959	1.41029	1.07327	3.0292	79.84	-0.2096	-0.0038	0.2058	1129.5855	0.149533	-401.989028	-401.981291	-401.980347	-402.021291	30.687	
O	 0.0084636239	-0.0755274	 0.0452920894	-0.363454
C	-0.01506822	 1.1377388128	 0.0414942459	 0.400853
C	-1.2956954648	 1.966572904	 0.0782354482	-0.410512
C	-1.1434021556	 3.3146931227	 0.7710015856	 0.323055
C	-2.3911673876	 4.1261214966	 1.0291032339	-0.317263
C	-1.6820869813	 3.4792753889	 2.1871192891	-0.295006
C	 0.1231636267	 4.0014384703	 0.4144840938	-0.194145
C	 1.1805437467	 3.2854201526	 0.0235627282	 0.004797
N	 1.135506599	 1.8893827875	-0.0719668927	-0.339946
H	-1.5822552054	 2.1259250308	-0.9718116094	 0.130478
H	-2.0745977723	 1.3511690737	 0.5328202587	 0.127559
H	-2.322664703	 5.2038430343	 0.9219512744	 0.11475
H	-3.3399075595	 3.7080242577	 0.7086412019	 0.11538
H	-2.1405668106	 2.6122156662	 2.6513987231	 0.120155
H	-1.1254680689	 4.1116906527	 2.8696229733	 0.115916
H	 0.195847501	 5.0797705796	 0.4904310537	 0.095995
H	 2.1340896005	 3.7285197	-0.2364511539	 0.117603
H	 1.9881943111	 1.3623733596	-0.1834374432	 0.253787
