21
gdb 115648	2.60671	1.31224	1.04153	1.4778	79.26	-0.237	0.0708	0.3078	1245.9022	0.18189	-424.190054	-424.180961	-424.180017	-424.224379	33.55	
C	-0.4649328697	 1.5051235852	 0.1343289761	-0.238823
O	-0.4500169227	 0.2015030903	 0.6730090744	-0.246399
C	-1.3269556149	-0.6810028624	 0.0328498323	 0.10033
C	-0.9518679861	-1.2960536575	-1.3480841235	-0.272313
C	-1.5246697557	-2.6445955258	-0.8288138189	-0.303974
C	-1.3689678535	-2.1082542991	 0.6117974804	 0.414482
C	-0.2174920083	-2.5820856826	 1.523757009	-0.34195
C	-1.3389933419	-2.857547688	 2.5433121601	-0.077392
O	-2.3510900663	-2.4283276766	 1.6056280408	-0.320111
H	 0.2332983159	 2.1078557151	 0.7201087527	 0.12669
H	-0.1470239842	 1.5187727721	-0.9187478534	 0.10905
H	-1.4666887329	 1.9576139706	 0.1982731354	 0.107568
H	-2.3497475554	-0.2715427264	 0.0094294082	 0.074441
H	-1.4014593133	-0.8629470656	-2.2429201106	 0.100494
H	 0.1342424704	-1.3327739462	-1.469392481	 0.109888
H	-2.5825157916	-2.7663146363	-1.0777064265	 0.115927
H	-0.9907295655	-3.5632288732	-1.0814623763	 0.101058
H	 0.3156458808	-3.4649947366	 1.1662577005	 0.104684
H	 0.492148822	-1.8021878934	 1.7979452679	 0.130678
H	-1.4768163523	-3.9039011704	 2.8399931119	 0.100218
H	-1.325830385	-2.2300132035	 3.4420670905	 0.105455
