23
gdb 57453	2.83979	1.25842	1.17434	1.4933	84.64	-0.2333	0.076	0.3093	1213.6851	0.204114	-388.253785	-388.244332	-388.243387	-388.287367	37.282	
C	-0.0112463956	 1.5561479081	 0.3468698366	-0.418982
C	 0.0213599058	 0.0365122007	 0.1155310746	 0.225511
C	 0.6787102758	-0.6576919599	 1.3224685128	-0.410433
C	-1.4206847541	-0.4783656667	-0.0647934537	-0.407362
C	 0.8107261065	-0.3681030993	-1.1371224638	 0.161055
O	 0.3332011175	 0.2070139425	-2.3924545231	-0.315146
C	 1.682766919	 0.439312142	-2.8069311355	 0.103889
C	 2.3340036081	 1.4843384066	-1.9688142431	-0.294761
C	 2.2488902664	 0.0544062868	-1.4571143537	-0.174803
H	 0.9846874503	 1.9546646592	 0.5607105514	 0.113991
H	-0.4147749407	 2.0768076744	-0.5257793409	 0.126242
H	-0.6505716027	 1.7900055873	 1.204989253	 0.103715
H	 0.1199971353	-0.443999219	 2.2395693855	 0.112818
H	 0.7036378233	-1.7459140096	 1.1953780077	 0.108562
H	 1.7071253778	-0.3104523166	 1.4695028925	 0.115586
H	-1.8862270783	-0.0289443283	-0.9466185484	 0.132926
H	-1.4406520842	-1.5666764183	-0.1904414184	 0.105998
H	-2.0316337966	-0.2309647063	 0.8096991046	 0.105545
H	 0.7480234159	-1.4632614456	-1.2278895056	 0.074336
H	 1.955847995	 0.1659010683	-3.8195103963	 0.101721
H	 3.3359926019	 1.7628327747	-2.2826491281	 0.112057
H	 1.7465061533	 2.2911362145	-1.5487112529	 0.119759
H	 3.1299460903	-0.5246361955	-1.2162061051	 0.097778
