21
gdb 38505	3.4765	1.41644	1.11641	0.0669	88.13	-0.2065	0.0348	0.2412	1147.189	0.18615	-349.972741	-349.965353	-349.964409	-350.004434	30.227	
C	-0.0413724678	 1.4597143296	 0.1383454642	-0.277644
C	 1.2866892943	 0.7549954791	 0.0371083541	-0.023277
C	 2.0243539249	 0.3851048036	 1.3336678646	-0.36546
C	 1.0535304593	-0.5544058765	 2.0065411769	 0.255683
C	-0.0227545679	-0.8092817431	 1.2550789481	 0.295691
C	-1.0161574384	-1.7019206685	 1.9453058621	-0.346997
C	-0.2060869272	-2.1970039457	 3.1833045488	-0.195509
C	 0.9863638982	-1.2055527577	 3.3592308825	-0.33804
C	-0.0129524227	-0.0491970908	-0.0221345448	-0.181159
H	-0.3553990413	 1.8590901203	 1.0980528889	 0.106272
H	-0.347765369	 2.051770394	-0.718524459	 0.105211
H	 1.8700947173	 0.91966971	-0.8613222201	 0.081626
H	 2.9882651701	-0.0996058503	 1.1243816032	 0.101372
H	 2.2536071546	 1.2688160732	 1.944375965	 0.105239
H	-1.9155378259	-1.1415900548	 2.2393796378	 0.102407
H	-1.3674951214	-2.5336648649	 1.323089302	 0.098851
H	-0.8218989556	-2.2760949461	 4.0830169821	 0.094738
H	 0.1878253437	-3.1969737427	 2.9772537874	 0.104836
H	 1.9111660257	-1.7204462037	 3.647045096	 0.097279
H	 0.7901944961	-0.4680908485	 4.151409724	 0.099249
H	-0.3817144468	-0.4881112266	-0.943291194	 0.079633
