21
gdb 55274	2.41147	1.29537	1.14362	3.1923	78.68	-0.2461	-0.0222	0.2239	1213.8928	0.179289	-424.240428	-424.230286	-424.229342	-424.275866	36.944	
C	 0.2956614187	 1.0011580567	 0.8678122687	-0.482576
C	 0.22819991	-0.1295043218	-0.1415431326	 0.380031
O	 1.1751252488	-0.4235779329	-0.8374875431	-0.304188
C	-1.0845327199	-0.8841878619	-0.2182240526	-0.208333
C	-1.3212754718	-1.7674588684	-1.4522134132	-0.091999
O	-1.5035260724	-2.9524815626	-0.6529385836	-0.318517
C	-1.1869958122	-2.2482251531	 0.5768268753	 0.420714
C	 0.1048237457	-2.7899765665	 1.1756568863	-0.437502
C	-2.3515636354	-2.318925298	 1.5546548274	-0.42511
H	 1.3137591176	 1.3861667477	 0.9339409545	 0.143884
H	-0.3809956118	 1.8084734768	 0.5627090708	 0.143461
H	-0.0438165523	 0.6634983673	 1.8535717074	 0.138349
H	-1.9164429811	-0.221051607	 0.0302217569	 0.077988
H	-2.2113092241	-1.5314402446	-2.0458963754	 0.099855
H	-0.4452612134	-1.8399839052	-2.105066758	 0.123869
H	 0.9303831553	-2.7126533216	 0.4654944291	 0.145999
H	 0.3774999473	-2.2528780811	 2.091035182	 0.10909
H	-0.0348400446	-3.8452617659	 1.4298527279	 0.124958
H	-2.503868881	-3.3524995743	 1.8820474515	 0.127969
H	-2.1564659004	-1.7052992774	 2.4411535977	 0.11244
H	-3.2748838532	-1.9708963362	 1.0835862132	 0.119616
