20
gdb 110843	2.68298	1.34082	1.15333	1.1432	78.98	-0.2328	0.0232	0.2561	1185.3472	0.171002	-403.161016	-403.152197	-403.151253	-403.194943	32.938	
C	 0.0901542445	 1.3311807257	-0.3401187604	-0.373004
C	-0.0244115246	-0.0390323	 0.3387179799	-0.206024
C	-1.395671325	-0.6575391656	 0.1705544973	-0.053753
C	-1.8883057313	-1.2725778018	-1.1109775546	 0.034858
O	-0.9014846177	-1.7012524208	-2.0388984531	-0.241361
C	-0.202693192	-2.696890078	-1.4083413578	 0.384697
C	 0.9232502844	-3.2777006314	-2.1902481367	-0.479349
N	-0.5764429629	-3.0275950057	-0.2339885424	-0.296759
C	-1.6724751453	-2.1559242859	 0.1104363424	-0.06864
H	 1.080642511	 1.7685900417	-0.1802752149	 0.111026
H	-0.072068947	 1.2451599483	-1.4191429934	 0.125413
H	-0.6517601641	 2.0345521944	 0.053836724	 0.111289
H	 0.7430807241	-0.7115340533	-0.0548403639	 0.110746
H	 0.1845573653	 0.0564159828	 1.4113170362	 0.101848
H	-2.1902681103	-0.1193184955	 0.6845238997	 0.091619
H	-2.823476492	-1.0066693106	-1.5876015655	 0.10536
H	 1.7009024286	-2.5266330056	-2.3626906694	 0.14571
H	 1.3496975147	-4.1177789185	-1.6429943331	 0.153843
H	 0.5711029992	-3.6127133156	-3.1707194914	 0.145197
H	-2.4575633295	-2.5853872045	 0.7213635271	 0.097284
