19
gdb 116403	2.24992	1.56322	1.21618	2.4545	73.06	-0.2378	0.0203	0.2581	1109.3174	0.161148	-456.33526	-456.326548	-456.325604	-456.36903	31.964	
C	 0.5253889687	 0.7033670791	 0.5398256061	-0.320083
N	-0.1275778929	-0.5104758695	 0.0533392392	-0.28972
C	-1.5795271522	-0.3847893969	-0.1187361401	-0.107827
C	-2.1263533957	-1.6005194671	-0.8924927335	-0.087877
O	-2.4738634136	-2.6978681739	-0.0504599313	-0.243002
C	-1.8651781539	-2.6531987866	 1.1992184704	 0.018925
O	-2.2864541146	-1.4970076813	 1.9345916121	-0.24996
C	-2.2370587546	-0.3225776265	 1.2504233144	 0.434851
N	-2.6967209846	 0.7621862706	 1.7141642223	-0.522579
H	 1.6038755529	 0.5309026432	 0.5914909374	 0.118259
H	 0.3395591618	 1.5877967909	-0.0924543453	 0.103977
H	 0.1678054332	 0.9397516154	 1.5448857723	 0.147345
H	 0.2779160884	-0.7769016941	-0.8378625847	 0.219315
H	-1.8625184689	 0.5382986506	-0.6466899861	 0.091117
H	-3.0407722282	-1.3202896549	-1.4229334962	 0.127598
H	-1.3861635234	-1.9230754111	-1.6405559005	 0.095573
H	-2.22193265	-3.5133198446	 1.7671423603	 0.12575
H	-0.7718288776	-2.6405168046	 1.1251458923	 0.118392
H	-3.0945612849	 0.6042052414	 2.643356361	 0.219946
