21
gdb 122438	3.13386	0.87638	0.82732	1.6487	76.05	-0.2438	0.0729	0.3167	1489.6636	0.179528	-461.330384	-461.320041	-461.319097	-461.366071	38.072	
C	-0.3418309607	 1.4286823406	 0.6251537928	-0.455615
C	 0.0186346492	 0.0134343493	 0.2372406421	 0.356824
O	-1.0416897447	-0.7519710816	-0.2771248279	-0.460499
C	 1.4073549599	-0.2994244367	-0.295541394	-0.381586
C	 0.9856059094	-0.7999618679	 1.05824708	 0.091759
O	 1.6354871335	-0.2429149034	 2.155995082	-0.264442
C	 0.8953670503	-0.3211616992	 3.3701312376	-0.0737
C	 1.681613351	 0.4709142076	 4.4031966982	-0.067402
O	 1.8701159248	 1.8118458448	 3.9921067085	-0.420086
H	 0.4422514975	 1.8840977593	 1.2345062547	 0.129596
H	-0.4943464401	 2.0555337558	-0.2617024794	 0.108637
H	-1.270868242	 1.431512604	 1.2036048733	 0.127571
H	-1.2500950244	-0.4154609211	-1.1561181047	 0.281415
H	 1.4964493874	-1.0252650932	-1.09579573	 0.115393
H	 2.1338750292	 0.5062298267	-0.3101358012	 0.117849
H	 0.7485370729	-1.8598302046	 1.1540034982	 0.097127
H	-0.1034579616	 0.1149240277	 3.2341876752	 0.106864
H	 0.7777707328	-1.3696997505	 3.6855818322	 0.093202
H	 1.1288252486	 0.4964741952	 5.3476609509	 0.110431
H	 2.6445121024	-0.0307569769	 4.5877133462	 0.095179
H	 2.2830718447	 1.7604569341	 3.1225022053	 0.291482
