23
gdb 92492	2.58993	1.33611	1.12988	1.3926	84.49	-0.2556	0.0718	0.3274	1211.0153	0.206843	-388.297284	-388.288402	-388.287458	-388.330567	35.405	
C	 0.0250081005	 1.4448457111	-0.1027413331	-0.475712
C	-0.0123072933	-0.0757794048	-0.0130347257	 0.369785
C	-1.3471577245	-0.7051855903	 0.4837893018	-0.284015
C	-0.5482785382	-1.6059383324	 1.4651449158	-0.232299
C	 0.7345969504	-0.7627266935	 1.1917665446	-0.023927
C	 1.9834741157	-1.4737626709	 0.6361129756	-0.273722
C	 2.0729150352	-1.0177646064	-0.8415350762	 0.141134
O	 2.6531917675	-1.9678733372	-1.720268525	-0.437207
C	 0.615020494	-0.7628565484	-1.2430054997	-0.282581
H	 1.0330310324	 1.8149703275	-0.3243750468	 0.110946
H	-0.6404883394	 1.808056141	-0.8952350549	 0.113524
H	-0.2974002553	 1.9044183205	 0.8381033415	 0.107861
H	-1.9731480848	 0.025013838	 1.005478008	 0.09279
H	-1.9640325665	-1.2070259955	-0.2670137413	 0.093356
H	-0.9033225813	-1.6299001592	 2.4981133259	 0.095488
H	-0.448801601	-2.6382034986	 1.1175442995	 0.099615
H	 0.9632385519	-0.077378302	 2.0120187897	 0.057962
H	 2.8968413605	-1.2441444257	 1.1945565719	 0.085936
H	 1.8592502184	-2.5627515315	 0.6470893701	 0.101247
H	 2.6320176807	-0.0689856555	-0.893162906	 0.061838
H	 3.5762618875	-2.0790367524	-1.4728538982	 0.279952
H	 0.150018899	-1.7371038058	-1.4351293864	 0.102387
H	 0.5285525205	-0.1725258281	-2.1598460213	 0.095642
