21
gdb 88470	2.68452	1.32002	1.1701	1.6426	78.14	-0.2586	0.0692	0.3278	1176.5296	0.180789	-424.194649	-424.185256	-424.184312	-424.228788	35.61	
C	 1.2668233247	 0.7255376367	-0.6531506265	-0.416724
C	 0.1865720187	-0.034851754	 0.0716515074	 0.083944
O	 0.5582121728	-1.1750590885	 0.8628810329	-0.260152
C	-0.0103316214	-0.0437795914	 1.5281740511	 0.038008
C	 0.8525015664	 0.7410704657	 2.5092992928	 0.359848
O	 0.6228199483	 2.1019367107	 2.1970654375	-0.481169
C	 0.6224384168	 0.2900900569	 3.9834026459	-0.282725
C	 1.8892896148	-0.5978685963	 3.8705320487	-0.21712
C	 2.3226384571	 0.2319967077	 2.6342805915	-0.267806
H	 2.1009086503	 0.9856571808	-0.00208551	 0.134998
H	 1.6462379627	 0.1338252718	-1.4932314621	 0.120195
H	 0.8501767593	 1.6546823683	-1.055028402	 0.127529
H	-0.7071398186	-0.2166328499	-0.5295402783	 0.08724
H	-1.0283082223	-0.2108667863	 1.8863195906	 0.08751
H	 1.038585501	 2.6365953206	 2.8815948171	 0.275425
H	 0.7756492684	 1.1292268236	 4.6713849671	 0.087453
H	-0.3328763963	-0.1847705846	 4.2241153623	 0.100383
H	 2.5651269845	-0.6143057816	 4.7272584078	 0.09779
H	 1.6438904427	-1.6257274286	 3.5949704066	 0.123061
H	 2.7429139071	-0.3089278748	 1.7872896296	 0.117381
H	 2.983712573	 1.061594163	 2.9066859798	 0.084929
