20
gdb 23040	3.55327	0.95472	0.81478	1.2622	78.17	-0.2414	0.01	0.2514	1424.3605	0.17024	-440.251682	-440.241988	-440.241043	-440.287958	34.309	
C	 0.0310263442	 1.5117136628	 0.0010316573	-0.472877
C	 0.0191055993	 0.0059042866	 0.0617551337	 0.337479
N	 0.0761195527	-0.6549516972	 1.1545444048	-0.167762
O	 0.1270578354	 0.1939919258	 2.2725003123	-0.400594
C	-0.0744248399	-0.7678682271	-1.2268844382	-0.069922
C	 0.0347082849	-2.301176535	-1.1383099608	-0.258584
C	-0.7847894522	-2.7915880891	-2.3554241583	-0.079188
O	-1.4297846141	-1.6470472772	-2.9219628373	-0.25117
C	-1.4285828398	-0.6161613736	-1.9561134032	-0.082745
H	 0.8472640166	 1.9096713375	 0.6105653231	 0.150268
H	 0.1385466248	 1.8679467297	-1.0253949104	 0.119393
H	-0.8960101627	 1.9205503559	 0.4181492747	 0.147468
H	 0.2001629075	-0.4340011623	 2.9987385157	 0.305555
H	 0.697458918	-0.3830827669	-1.907316683	 0.088014
H	 1.0717466269	-2.6422779112	-1.1637584668	 0.107904
H	-0.4004633459	-2.646912724	-0.1991866603	 0.126907
H	-0.1627534225	-3.2374608157	-3.1385446	 0.105091
H	-1.534501256	-3.536957502	-2.0555071406	 0.096111
H	-2.2568353647	-0.7311727972	-1.2357843254	 0.090239
H	-1.5524523225	 0.3363662504	-2.4787006073	 0.108411
