22
gdb 58118	2.92076	1.01101	0.91331	4.8902	82.43	-0.2814	0.0284	0.3098	1388.3715	0.191054	-404.375075	-404.364149	-404.363205	-404.410543	40.492	
C	 0.061844031	 1.5188047881	-0.1193087953	-0.405824
C	-0.005667018	-0.0052171799	 0.0631661956	 0.0067
C	 0.8719333993	-0.4418087022	 1.2469631642	-0.411364
C	-1.476268199	-0.5168099305	 0.1195233799	 0.351741
C	-2.2920754563	 0.074737239	 1.2705818343	-0.415705
O	-2.1627052863	-0.1170219651	-1.0647326495	-0.44925
C	-1.4808482734	-2.0735410647	 0.1994020645	-0.401543
C	-2.8128305615	-2.6496680236	 0.0338195556	 0.284715
N	-3.8608467009	-3.1212060217	-0.085692662	-0.31493
H	 1.0789708252	 1.8219639516	-0.3861394614	 0.112237
H	-0.6178738474	 1.8522453974	-0.9061113951	 0.13007
H	-0.2024107504	 2.0435565283	 0.8044781709	 0.119814
H	 0.4217065563	-0.4625443971	-0.8442948634	 0.060739
H	 0.4888039338	-0.0516784876	 2.1957327605	 0.125422
H	 0.9568254143	-1.5284795126	 1.3367188107	 0.115819
H	 1.8855671855	-0.0488524848	 1.1214047284	 0.121313
H	-2.3549378717	 1.1598892709	 1.1722666238	 0.133012
H	-3.3089306102	-0.3246077647	 1.2464522145	 0.150498
H	-1.8480458913	-0.1662460745	 2.2398275845	 0.116765
H	-1.6719875067	-0.4399482232	-1.8292138108	 0.279015
H	-0.827672304	-2.4826355329	-0.5819255324	 0.13673
H	-1.0764919582	-2.4140337702	 1.1574192625	 0.154026
