14
gdb 5790	6.24431	1.42218	1.25356	0.9236	62.89	-0.2333	0.0055	0.2387	933.4275	0.109708	-378.719602	-378.713176	-378.712232	-378.7508	23.61	
C	 0.9975805251	 1.1708506681	 0.0742483034	-0.22323
N	 0.4433505888	 0.1299581466	-0.8012458167	-0.313046
C	-0.3357640578	 0.5664166047	 0.367564514	-0.145053
C	-0.5225246037	-0.4403904762	 1.4288416142	 0.285316
C	-0.0745730803	-1.7188263853	 1.489026407	-0.110156
O	-0.4882653045	-2.2570367442	 2.6778616231	-0.138994
C	-1.1771251596	-1.2594645062	 3.2728237618	 0.072393
N	-1.2374180179	-0.1620397183	 2.5936263412	-0.315618
H	 1.8583411759	 0.8621751486	 0.6598726709	 0.124101
H	 1.0239011451	 2.1987055629	-0.2782074546	 0.116653
H	 0.0649317249	 0.5430066052	-1.6486616683	 0.238049
H	-1.1973064572	 1.2108844117	 0.2090719572	 0.099813
H	 0.4944811839	-2.3512098481	 0.8323362964	 0.160433
H	-1.6047943628	-1.4735759994	 4.2397553102	 0.149338
