21
gdb 90039	2.88814	1.47239	1.22013	1.3028	84.94	-0.2252	0.0645	0.2898	1113.9812	0.18214	-386.973994	-386.965723	-386.964779	-387.006085	33.775	
C	-0.1006710999	 1.5447500058	-0.0858034442	-0.508231
C	-0.0573592213	 0.0392049904	-0.0143615466	 0.294263
C	 0.3508915234	-0.9478794531	-1.1303311601	-0.28613
C	-0.0547974804	-1.8405704374	 0.0874773388	 0.291094
C	 0.8612165852	-3.0212789076	 0.4684271299	-0.377692
C	 1.9108358056	-1.9102966564	 0.9484338855	 0.053102
O	 2.969793976	-1.6085679078	 0.0688113498	-0.414486
C	 0.7121652276	-0.8823646854	 1.0045513077	-0.048669
C	-1.3088546304	-0.9347025757	 0.2487617113	-0.343632
H	 0.8921854063	 1.9483891038	-0.3105924672	 0.124823
H	-0.7871813008	 1.8799181812	-0.8718181772	 0.115148
H	-0.4355837786	 1.9785223997	 0.862721753	 0.114665
H	-0.3144502476	-1.0048184885	-1.9980866496	 0.073908
H	 1.3992085771	-0.9511912573	-1.4206620306	 0.120739
H	 0.5069565728	-3.6107380923	 1.3194204964	 0.103191
H	 1.1793519777	-3.6942035179	-0.3345557824	 0.094701
H	 2.2991252813	-2.1066800328	 1.9574521306	 0.07182
H	 3.5584324279	-2.3702817067	 0.041771224	 0.284879
H	 0.3488951137	-0.8143357203	 2.0353499809	 0.059688
H	-1.7560866762	-0.8926769176	 1.2462904705	 0.089947
H	-2.0734986893	-0.9454754241	-0.5357825906	 0.086871
