20
gdb 122402	5.16849	0.64225	0.60502	2.7076	78.69	-0.259	0.0284	0.2874	1857.215	0.169767	-440.276349	-440.266699	-440.265755	-440.312154	34.056	
C	 0.0152950505	 1.4747590643	 0.0393473181	-0.229695
O	-0.2250451484	 0.0966395222	 0.1946397442	-0.231287
C	 0.7021108889	-0.5283861898	 1.0527861284	-0.052586
C	 0.3675128322	-2.0144379229	 1.1112144945	-0.222871
C	 1.2919603849	-2.7873823427	 2.0271811828	 0.126901
C	 1.2780584274	-4.3291490471	 1.9456440565	-0.384867
C	 2.7055444418	-4.1630609169	 1.468990438	 0.441468
N	 3.6202378555	-4.9473080403	 1.1249000421	-0.538399
O	 2.6855150571	-2.7845388712	 1.5453119916	-0.266549
H	 1.010588603	 1.6705584476	-0.3899581001	 0.106376
H	-0.7456968128	 1.8649529136	-0.6407386553	 0.128148
H	-0.0551771345	 2.0132629273	 0.9980015885	 0.103453
H	 1.7317984152	-0.3892155864	 0.685887057	 0.10691
H	 0.6547861105	-0.0836600545	 2.0630843171	 0.082781
H	-0.6631988076	-2.1373077922	 1.4660271775	 0.115825
H	 0.4148535113	-2.4331439893	 0.09964099	 0.116634
H	 1.2711488097	-2.3910951315	 3.0479451883	 0.09378
H	 1.1696748512	-4.8638266636	 2.8902927492	 0.138154
H	 0.5967226372	-4.7529450061	 1.2053398705	 0.138273
H	 4.4672672769	-4.4380363504	 0.8667868011	 0.227551
