21
gdb 109704	2.9056	1.0806	0.96862	1.7077	79.36	-0.2152	0.0593	0.2745	1340.6204	0.180895	-424.186176	-424.176435	-424.175491	-424.221165	35.631	
C	-0.0189283289	 1.5963555405	-0.4706858525	-0.373975
C	 0.0044079551	 0.216907746	 0.1984886643	-0.194642
C	-1.3541470559	-0.4556716627	 0.1948428648	-0.124716
C	-1.8401973103	-1.2486240383	-1.0074273007	-0.014942
O	-0.9658190678	-1.3389656908	-2.0980650959	-0.413362
C	-1.493718825	-1.9459295662	 0.275195618	 0.397363
C	-0.4445116574	-3.0234410233	 0.5110736963	-0.34969
C	-1.5564347285	-3.6870745947	 1.3539177818	-0.075614
O	-2.4705296747	-2.5951835366	 1.0939806603	-0.310046
H	 0.9687666603	 2.0672813478	-0.4384193064	 0.106744
H	-0.3207800392	 1.51012931	-1.5186461232	 0.132746
H	-0.7255965878	 2.2680955768	 0.0292249404	 0.110114
H	 0.7249531262	-0.4225762768	-0.3208386228	 0.108472
H	 0.3544366853	 0.3114190422	 1.2346005039	 0.093096
H	-2.144696278	 0.0956710272	 0.7008475945	 0.095007
H	-2.898938123	-1.1655632902	-1.2557040024	 0.091074
H	-1.0854047442	-2.2027267925	-2.5069628819	 0.289106
H	-0.1256160585	-3.5726147681	-0.3776175402	 0.103381
H	 0.4384379813	-2.7057003531	 1.0687053697	 0.117943
H	-1.9401248535	-4.6385561743	 0.9676344325	 0.103965
H	-1.3464796556	-3.7917828328	 2.4240020495	 0.107975
