21
gdb 79533	2.84658	1.70388	1.60473	1.4638	79.68	-0.2487	0.0671	0.3158	959.3137	0.186936	-387.100923	-387.093991	-387.093047	-387.131738	29.765	
O	 0.1599826843	 1.3948961172	 0.1461503344	-0.458832
C	 0.0652275964	-0.0081971997	-0.0048262244	 0.166825
C	-1.3394017717	-0.5622175563	-0.2361608039	-0.059485
C	-1.6885974162	-0.2937947401	-1.7537840838	-0.035535
C	-2.0838678761	-1.7849439905	-1.8773054065	-0.222285
C	-1.1619121837	-2.0608515599	-0.6664256152	-0.025441
C	 0.3316712424	-2.1015603279	-1.1015373613	-0.226894
C	 0.667084948	-0.6085603897	-1.3030967303	-0.047105
C	-0.2877015433	-0.0404867791	-2.3763156121	-0.238882
H	-0.4174840111	 1.8091484807	-0.502605902	 0.281906
H	 0.5411094712	-0.4292408798	 0.8873034337	 0.078171
H	-2.1081206345	-0.3362772674	 0.5015370071	 0.06294
H	-2.4345120189	 0.4578854372	-2.0191893046	 0.057927
H	-3.1371463987	-1.9469327662	-1.6289161925	 0.093489
H	-1.8588214138	-2.2958188903	-2.8203657004	 0.084962
H	-1.4390571118	-2.8599956829	 0.0229380855	 0.060105
H	 0.9573461163	-2.5284258095	-0.3099506473	 0.095247
H	 0.4845347595	-2.7053661235	-2.0022710026	 0.091821
H	 1.7235589422	-0.3916973117	-1.4704611281	 0.059524
H	-0.1740138595	-0.5246710674	-3.3514483557	 0.094719
H	-0.1013871709	 1.0292282367	-2.5272998199	 0.086824
