14
gdb 130106	2.47679	1.80898	1.05249	2.9878	66.34	-0.2149	-0.0486	0.1663	1045.4049	0.102707	-466.220605	-466.212643	-466.211699	-466.252856	29.733	
N	-0.0412217848	 1.3257854528	-0.2057456574	-0.599135
C	-0.0406398814	-0.0253050129	-0.0229246852	 0.458438
N	-1.0660098493	-0.8040922056	 0.1476058448	-0.307202
N	-0.589666161	-2.1311034878	 0.1654753299	-0.273182
C	 0.6928453197	-2.098535012	 0.0360604555	 0.394964
N	 1.5858231573	-3.1628919917	 0.1010823265	-0.601993
N	 1.1470420767	-0.7737242498	-0.0859792302	-0.157977
C	 2.4509003103	-0.3141981888	-0.0080738519	 0.179729
O	 2.7558884669	 0.8547422933	 0.0000575786	-0.306287
H	 0.8244184334	 1.7970524509	 0.0163968339	 0.282111
H	-0.8950076285	 1.7783480806	 0.083001684	 0.271562
H	 1.0807507491	-4.0038399174	 0.3571950646	 0.272315
H	 2.0832535083	-3.326412389	-0.7688241537	 0.259147
H	 3.1768211332	-1.1393780425	 0.0608125908	 0.127511
