20
gdb 101454	3.43308	0.97473	0.80929	1.6994	75.38	-0.2497	0.0183	0.268	1411.1964	0.171204	-440.295277	-440.285922	-440.284977	-440.33007	33.87	
C	-0.0178715556	 1.5348882648	 0.0763083182	-0.401228
C	-0.0352798504	 0.0054543258	-0.0374587307	-0.007619
C	-1.4798079757	-0.5224964473	-0.0292543274	-0.073063
O	-2.1950938281	-0.1417981786	 1.1398279387	-0.420845
C	 0.7133484294	-0.478691279	-1.2895720666	 0.012817
C	 2.2231593788	-0.1079649789	-1.3197905342	-0.123867
O	 2.8955985859	-1.3646043687	-1.5824167729	-0.221457
C	 1.9185686417	-2.2995911653	-1.5614437285	 0.118241
N	 0.7104998649	-1.9547690938	-1.4068872023	-0.277472
H	 0.9934231564	 1.9316254484	 0.211544827	 0.108402
H	-0.441829571	 1.9952439696	-0.824537395	 0.112861
H	-0.6262088378	 1.8485166806	 0.9273879222	 0.13534
H	 0.479135625	-0.4241430942	 0.8367511286	 0.062876
H	-2.0339109711	-0.0858470079	-0.8693760005	 0.103746
H	-1.4776782911	-1.6098049462	-0.1658046458	 0.117761
H	-1.8447376348	-0.6539457251	 1.8753779731	 0.281385
H	 0.1988697842	-0.071954892	-2.1712836335	 0.088568
H	 2.4956168609	 0.5950501069	-2.1093420376	 0.12445
H	 2.5877007171	 0.2727782131	-0.360081867	 0.116703
H	 2.2722101711	-3.3168616622	-1.690673266	 0.1424
