22
gdb 85906	2.68767	1.37477	1.21206	2.0563	81.09	-0.2277	0.0699	0.2976	1162.4966	0.193941	-404.33837	-404.329312	-404.328368	-404.371281	36.151	
C	 0.0223504022	 1.5962128175	-0.000277891	-0.39498
C	 0.0629436267	 0.0727546749	 0.0065669892	 0.066367
C	 0.6959112389	-0.5749744878	-1.2447576063	-0.318361
C	 1.2750590626	-1.9237908415	-0.7392566029	 0.392984
C	 0.2760108719	-3.0756273437	-0.8930162635	-0.448339
O	 2.5140951301	-2.2618141125	-1.3607448174	-0.477362
C	 1.5397098388	-1.6423166572	 0.737210513	-0.024653
C	 2.2548470145	-0.388368646	 1.0727797905	-0.266595
N	 0.7894824664	-0.4583749038	 1.1887398524	-0.105005
H	 1.028638159	 2.0165894771	-0.1003514427	 0.114927
H	-0.5810265477	 1.9637337169	-0.8364118778	 0.112845
H	-0.4126904155	 1.9725137007	 0.929957952	 0.125919
H	-0.9641430015	-0.2994024733	 0.1147684101	 0.079226
H	-0.0297167665	-0.7062585938	-2.0529450974	 0.092238
H	 1.5169639623	 0.0320466462	-1.6380840329	 0.105975
H	 0.0607230975	-3.2608866117	-1.9525403521	 0.103605
H	 0.6820265405	-3.9942085258	-0.4591060845	 0.124954
H	-0.6728041312	-2.8485556899	-0.396537325	 0.127304
H	 2.3226451651	-2.5649542403	-2.2546326908	 0.274128
H	 1.5742591093	-2.4925805226	 1.4131581075	 0.082582
H	 2.7744377568	-0.3060719283	 2.0225391948	 0.114053
H	 2.7068895697	 0.177520525	 0.2637309648	 0.118189
