14
gdb 17304	3.23832	2.54961	1.93536	3.2598	56.	-0.2435	0.0436	0.2871	710.6304	0.106296	-419.58627	-419.579934	-419.57899	-419.616379	24.975	
O	-0.0925082454	 1.4299348332	-0.067386106	-0.464914
C	 0.0344983189	 0.0504306523	 0.0138194024	 0.330909
C	-1.2888552243	-0.7363323735	 0.0549123387	-0.109843
O	-0.8617017126	-1.4735175638	 1.2318543629	-0.278542
C	 0.3889134828	-0.7772431762	 1.2832601179	-0.004887
C	 1.5630514667	-1.4323662423	 0.4880853747	 0.007883
O	 1.0117341245	-2.0446576751	-0.6793583348	-0.212876
C	 1.2324229454	-0.6373366664	-0.7154901146	-0.088647
H	 0.7782242662	 1.8333114801	 0.0220316648	 0.287489
H	-2.1485051246	-0.0939347097	 0.2757173954	 0.11176
H	-1.5005290429	-1.3962409964	-0.7898795984	 0.11955
H	 0.6353578504	-0.3480475682	 2.2578456243	 0.084291
H	 2.5065774741	-1.8249727649	 0.8513405274	 0.110458
H	 1.8496264509	-0.2398776892	-1.5158427548	 0.107369
