20
gdb 22773	2.33582	1.09876	0.85218	1.5485	79.44	-0.239	0.0107	0.2496	1398.2541	0.168786	-440.22793	-440.217929	-440.216985	-440.263084	36.538	
C	-0.5197550108	 1.3734566527	 0.1877670197	-0.409094
C	-0.1102155362	-0.0838555269	 0.0058504407	-0.080883
C	 0.5720873603	-0.595695139	-1.3208320161	-0.00665
C	 1.2122316669	 0.4798995265	-2.1796428801	-0.085139
O	 1.9342618172	-0.1778597446	-3.2113104616	-0.422141
C	 1.6112238703	-1.3872519989	-0.4620104479	-0.323353
C	 1.1084359599	-0.6141269039	 0.7382926446	 0.40489
N	 1.5365260857	-0.3286061464	 1.8948901663	-0.246288
O	 2.7556569124	-0.9856214275	 2.1608883221	-0.394122
H	 0.3106598524	 2.0569095316	-0.0103983999	 0.120182
H	-1.349320348	 1.6362407817	-0.4767978285	 0.114341
H	-0.844991674	 1.545412492	 1.2179097981	 0.13196
H	-0.9713750438	-0.7286913865	 0.2240702788	 0.095634
H	-0.0697083683	-1.2134006843	-1.9532553983	 0.078077
H	 0.4367927654	 1.1428597176	-2.5950464161	 0.087458
H	 1.8821215977	 1.1029074433	-1.564724108	 0.089495
H	 2.3869584737	 0.4898143476	-3.7346671541	 0.286989
H	 1.4088008109	-2.4606907559	-0.3965780255	 0.121121
H	 2.6635979094	-1.2518924911	-0.7217658944	 0.133227
H	 2.9662478989	-0.6671503879	 3.0450069403	 0.304297
