19
gdb 122713	3.34924	0.57589	0.49647	2.5488	79.55	-0.2503	-0.0205	0.2298	2116.149	0.158195	-456.363538	-456.353286	-456.352342	-456.400096	35.262	
O	-0.2288203139	 1.4570063241	-0.0228389542	-0.41739
C	 0.0279456498	 0.0689119481	-0.1484662502	-0.068464
C	-1.2473106957	-0.7779467564	-0.1441423631	-0.216365
C	-0.9421943199	-2.2642423908	-0.3646050081	-0.12841
N	-2.042061265	-3.21575845	-0.3739323079	-0.262651
C	-3.2318586871	-2.8212183868	-0.2093020508	 0.124422
N	-4.2745954051	-3.7444641844	-0.2227459509	-0.31013
C	-5.5962319146	-3.4131143598	-0.0447560025	 0.157701
O	-6.0083834747	-2.2928429357	 0.1451973813	-0.299171
H	-0.6534145817	 1.6032091818	 0.8285310532	 0.281442
H	 0.5503342794	-0.0469713908	-1.1047598778	 0.114437
H	 0.7154105595	-0.284662453	 0.6375742048	 0.088285
H	-1.7631514152	-0.6396068893	 0.8167608837	 0.095384
H	-1.9171981263	-0.3980823369	-0.9245316275	 0.117049
H	-0.409908118	-2.3871171635	-1.318342911	 0.117218
H	-0.2331036842	-2.6093130681	 0.4011248947	 0.11407
H	-3.5829097582	-1.8015530568	-0.0494961608	 0.13877
H	-4.0162548455	-4.7096500414	-0.373197405	 0.26312
H	-6.2498651235	-4.3041557102	-0.096030718	 0.090681
