15
gdb 33523	2.22977	1.58608	1.21852	4.7829	74.21	-0.2792	-0.0157	0.2635	1050.4262	0.113472	-379.702099	-379.694128	-379.693184	-379.734943	29.256	
N	 0.102579873	-1.1936399615	 0.1143845309	-0.324492
C	 0.0482467338	-0.0410937865	 0.0656538514	 0.289782
C	 0.0009835364	 1.4292843978	 0.0355871871	-0.028587
C	-0.5847602417	 1.9603203291	 1.4001193932	-0.295599
C	 0.6559155137	 2.297674083	 2.1861723889	-0.056529
C	 1.7517532547	 2.3175055093	 1.4334146728	-0.056529
C	 1.4713076511	 1.9975293136	-0.0122438807	-0.295599
C	-0.7973297349	 1.8665097828	-1.1150495144	 0.272466
N	-1.4188658527	 2.2498461163	-2.0097593978	-0.327801
H	-1.2066921433	 2.8454298065	 1.2223275404	 0.145412
H	-1.2219216169	 1.2077474135	 1.8713840556	 0.14838
H	 0.6130576146	 2.5285126715	 3.2436111235	 0.117652
H	 2.7482442129	 2.5671532767	 1.7768992943	 0.117652
H	 2.1580273783	 1.2689149922	-0.4503855991	 0.14838
H	 1.506605421	 2.8945328857	-0.6415027063	 0.145412
