16
gdb 4866	4.58875	1.34584	1.09653	2.0229	69.57	-0.1814	0.0395	0.2208	1060.5353	0.13213	-379.9476	-379.939492	-379.938547	-379.980431	29.788	
N	 0.256250065	 1.2161990844	-0.4455478343	-0.608017
C	-0.0126905419	-0.1131105531	-0.0672087832	 0.286545
C	-1.1257961532	-0.7189941247	 0.4768330893	-0.210801
C	-0.7876735054	-2.0838001395	 0.7116221335	-0.222902
C	 0.5125260276	-2.277552225	 0.3063758354	 0.255452
C	 1.3835251031	-3.4849532315	 0.3035454705	-0.183569
O	 1.9201950804	-3.7863956236	-0.9877857889	-0.420443
N	 0.9745067367	-1.0583782081	-0.1571780762	-0.305409
H	 0.3793520094	 1.3176985028	-1.4490950069	 0.242653
H	-0.5035888197	 1.8237745073	-0.1654934106	 0.247611
H	-2.0744154176	-0.2398496911	 0.665798772	 0.08085
H	-1.4301977582	-2.8447140492	 1.1296096748	 0.08893
H	 2.2680639639	-3.3522527572	 0.9395052753	 0.110444
H	 0.8126288169	-4.3286782208	 0.7176858714	 0.09974
H	 1.1720516318	-3.8406258861	-1.5926730768	 0.27796
H	 1.9037362213	-0.8890241746	-0.5031947752	 0.260956
