23
gdb 90455	3.46717	1.12856	1.10803	1.3315	85.64	-0.2263	0.0839	0.3103	1270.9542	0.205159	-388.29411	-388.28467	-388.283726	-388.32794	36.563	
C	-0.3145950582	 1.443856143	 0.0713922725	-0.391046
C	 0.0561691748	-0.035090097	-0.0109948959	 0.143196
C	 0.9245246655	-0.384906556	-1.2483981328	-0.282733
C	 2.345091723	-0.4260917487	-0.693074087	-0.118245
C	 2.2016589985	-0.3839338976	 0.8058497492	 0.043533
O	 0.8388694808	-0.4172284876	 1.1377420433	-0.273024
C	 2.7913781256	-1.6165547802	 0.1562166079	 0.297205
C	 2.0155986161	-2.916439805	 0.1555969637	-0.459156
C	 4.2947569717	-1.7816405877	 0.2873156445	-0.455854
H	 0.5808502843	 2.071197426	 0.0028389601	 0.11835
H	-0.9908261291	 1.7213259482	-0.7445184606	 0.109973
H	-0.8115801616	 1.6578162215	 1.0216003477	 0.123045
H	-0.8544046799	-0.6430901134	 0.0272711718	 0.07889
H	 0.6197868338	-1.3383755144	-1.6905774873	 0.104107
H	 0.8305747682	 0.3777760532	-2.0263887829	 0.101963
H	 3.1141729856	 0.1444515249	-1.2016531855	 0.081676
H	 2.8066514142	 0.2456873049	 1.4533409761	 0.084664
H	 0.9405563699	-2.7528767859	 0.247884008	 0.128571
H	 2.2032026311	-3.4915232968	-0.7588785349	 0.109224
H	 2.3222175031	-3.5383847539	 1.0043301078	 0.113952
H	 4.5508217413	-2.3345394193	 1.1985197602	 0.115859
H	 4.7072596956	-2.334124705	-0.5653934208	 0.115054
H	 4.8046951158	-0.8134818235	 0.3303807749	 0.110797
