17
gdb 96778	2.34798	1.63933	1.04942	3.7886	78.74	-0.2474	-0.0155	0.2319	1136.5938	0.135402	-417.992443	-417.984035	-417.983091	-418.025777	30.766	
C	 0.2488720201	 1.3719368941	-0.0001408838	-0.363283
N	 0.0854589891	-0.0655242501	 0.1281475932	-0.323631
C	-1.0168740219	-0.645276342	 0.0624240165	 0.436915
C	-1.3896649729	-2.1003038777	 0.0792894226	-0.1731
C	-2.5125914668	-2.355204356	 1.0782144226	-0.291312
C	-2.8215529835	-1.6845773829	-0.2223080892	-0.018497
N	-2.4145923598	-0.2754050931	-0.1744222377	-0.134368
C	-3.2278444434	 0.7934018656	 0.0955527737	 0.143594
O	-2.8791953977	 1.922558955	 0.3539484497	-0.300624
H	 0.8408197536	 1.5723032318	-0.9009646858	 0.126069
H	-0.6905229782	 1.9306441223	-0.040108733	 0.163027
H	 0.8429183057	 1.7282394595	 0.8483795985	 0.129564
H	-0.8022572448	-2.8961708969	-0.3533811251	 0.125418
H	-2.8092371311	-3.3965400094	 1.1590053248	 0.131839
H	-2.5628049377	-1.7897885882	 2.003616773	 0.134117
H	-3.4909748443	-2.0463482732	-0.9908333495	 0.127471
H	-4.2932649364	 0.4970665112	 0.0145647993	 0.0868
