23
gdb 60528	2.53417	1.18369	0.99737	2.1994	81.5	-0.2525	0.075	0.3275	1324.3999	0.203173	-425.420128	-425.40965	-425.408706	-425.454862	40.34	
C	-0.0006404828	 1.5590837934	 0.0422750799	-0.409065
C	-0.0068690656	 0.0317563097	 0.0594079551	 0.368533
C	 0.7674520582	-0.4956443637	 1.2791935425	-0.424899
O	-1.3754200818	-0.367033384	 0.142670073	-0.478402
C	 0.5897830732	-0.5689202776	-1.2401014208	 0.096793
O	 0.3817199948	-1.9839386572	-1.1197294341	-0.462196
C	-0.0540499347	-0.0529061533	-2.5057484379	-0.008775
C	 0.5946302832	 1.0304084025	-3.3247718843	-0.264724
C	 0.5782321435	-0.384923016	-3.8419604497	-0.302123
H	 1.0165100921	 1.9474254353	-0.0680187085	 0.106557
H	-0.6136200287	 1.9453371591	-0.7742442039	 0.1238
H	-0.4103010078	 1.9351944653	 0.9840513019	 0.120221
H	 0.2853595739	-0.1461082645	 2.1962729439	 0.114966
H	 0.781639295	-1.5881187004	 1.2849204794	 0.127206
H	 1.804330905	-0.1417241511	 1.2752049849	 0.103193
H	-1.3719975778	-1.3174842853	-0.0324101173	 0.279695
H	 1.6713373452	-0.356954598	-1.2704970209	 0.057931
H	 0.398147276	-2.3502325093	-2.0095037843	 0.2867
H	-1.1389156922	-0.0545626975	-2.4670994163	 0.101932
H	-0.0460307211	 1.7633124118	-3.8020309973	 0.117557
H	 1.5437982795	 1.4287173363	-2.9819491332	 0.115568
H	 1.5205342808	-0.9255519573	-3.8444130649	 0.112768
H	-0.072567358	-0.6250625082	-4.6752414274	 0.116766
