23
gdb 113786	2.81573	1.05115	0.99659	2.6965	86.01	-0.2304	0.0688	0.2992	1376.7862	0.205925	-384.429955	-384.420061	-384.419117	-384.464808	37.219	
C	-0.9400114997	 1.4162600532	-0.7712445988	-0.379234
C	-1.0049412929	-0.1106626857	-0.8921073229	-0.200201
C	 0.1983461667	-0.675237081	-1.615847566	 0.012555
N	 1.4666918723	-0.7655410297	-0.8637356917	-0.350226
C	 0.820438894	-1.9998017125	-1.3323783867	-0.123218
C	 0.3256907485	-2.9524175492	-0.271960408	 0.343606
C	-0.8531082221	-3.8067030993	-0.6880921531	-0.45184
C	 1.332563515	-3.4857904216	 0.6833081537	-0.279462
N	 0.32967463	-2.4987953778	 1.1263240226	-0.35412
H	-0.0489352664	 1.7199686241	-0.2131439399	 0.127554
H	-0.896345311	 1.8923676353	-1.7575347136	 0.108144
H	-1.8179850334	 1.8098840901	-0.2505035759	 0.113559
H	-1.0858786168	-0.5627603296	 0.1000288014	 0.126821
H	-1.9087414071	-0.4019275827	-1.4431557914	 0.097009
H	 0.2856958539	-0.3363965469	-2.6491602451	 0.080107
H	 2.2619476948	-0.5216982763	-1.4456856729	 0.233399
H	 1.2667722984	-2.5004517525	-2.1922793139	 0.081866
H	-0.6044986309	-4.4208605926	-1.5615856313	 0.109635
H	-1.1490541915	-4.4704351091	 0.1277795872	 0.127288
H	-1.7158813724	-3.1846322286	-0.9495337041	 0.120101
H	 1.2146326318	-4.4846475513	 1.0956091566	 0.108811
H	 2.3619284343	-3.1522399433	 0.5773021185	 0.106698
H	 0.7872750345	-1.5871071828	 1.1482887754	 0.24115
