17
gdb 108738	3.07707	1.21026	0.93083	1.6222	79.78	-0.2612	-0.0732	0.188	1250.092	0.137027	-418.077637	-418.069094	-418.06815	-418.111224	31.506	
C	 0.0013836616	 1.5358227019	 0.1697214913	-0.379657
C	-0.0287426993	 0.0078238994	-0.0295463985	-0.288977
C	-1.4177716087	-0.5423204585	-0.0577298334	 0.318991
C	-2.1506361191	-0.9833743436	-1.0914131739	-0.359496
C	-3.4920601953	-1.417688351	-0.6109564879	 0.426698
O	-4.4245165994	-1.8702352547	-1.2304060702	-0.353722
N	-3.4665828029	-1.1910200251	 0.7709080382	-0.407003
C	-2.2446739857	-0.6705924113	 1.1827352924	 0.329159
N	-1.8336871495	-0.3535655582	 2.3454602642	-0.523651
H	 1.0348588401	 1.8938486843	 0.1826685409	 0.118711
H	-0.5269913142	 2.0477425133	-0.6403727896	 0.119322
H	-0.4692200355	 1.8068077057	 1.1173768881	 0.147497
H	 0.4801454617	-0.2574852845	-0.9617681225	 0.108583
H	 0.5172692397	-0.4650437385	 0.7938293539	 0.132837
H	-1.8700926485	-1.0438130941	-2.1333236179	 0.129468
H	-4.245537727	-1.404613491	 1.3718233089	 0.261071
H	-2.5431406381	-0.5217815542	 3.0611364559	 0.220165
