19
gdb 85271	2.48119	1.51053	1.14097	2.6515	75.92	-0.2357	-0.0092	0.2265	1117.2123	0.158802	-423.051032	-423.042414	-423.04147	-423.083975	33.327	
C	-0.2216067581	 1.4277882211	 0.0224267218	-0.49149
C	 0.0345865328	-0.0590582501	 0.0174867176	 0.354489
C	-0.7621500272	-0.9759243533	 0.8844738239	-0.323848
C	 0.7262181753	-0.7870158565	 1.1689980594	-0.198722
C	 1.6270912041	-1.8191339028	 0.578452085	 0.422776
O	 2.5573434981	-2.355384207	 1.1273922184	-0.331948
C	 1.2189443404	-2.0108103235	-0.8906858039	-0.395061
C	 0.53255093	-0.6864656322	-1.2857032202	 0.057147
O	-0.5674345697	-0.8265657583	-2.1730660274	-0.437213
H	 0.6820985034	 1.9876881709	-0.2437370019	 0.118771
H	-1.0003357201	 1.6787944742	-0.7052477354	 0.138795
H	-0.5544475955	 1.7729265819	 1.0057818022	 0.117494
H	-1.4311808032	-0.5188605873	 1.605393654	 0.122281
H	-1.1102671507	-1.9264415545	 0.4967812038	 0.127765
H	 1.0308832386	-0.2941334421	 2.0840749768	 0.103172
H	 2.0902476939	-2.2660480453	-1.4969732967	 0.122091
H	 0.5043479218	-2.8384697172	-0.9698395057	 0.134053
H	 1.2832853681	-0.0075435067	-1.719690318	 0.073691
H	-0.2297493319	-1.1084594011	-3.0290266436	 0.285758
