17
gdb 53742	4.72333	0.65529	0.61319	4.5443	81.56	-0.2575	-0.0518	0.2056	1815.0488	0.133589	-421.790776	-421.781159	-421.780214	-421.827872	32.3	
C	-0.0923358614	 1.6160863894	 0.168678262	-0.478315
C	 0.1259285067	 0.1167734367	 0.1387282011	 0.2495
O	 1.224745728	-0.392909227	 0.1848986091	-0.271829
C	-1.0809556999	-0.6854183308	 0.0519342438	 0.04525
C	-2.0845063	-1.3548183558	-0.0167254688	 0.084167
C	-3.2937201766	-2.1521072581	-0.1067528571	-0.038138
C	-4.0019184779	-2.2157573616	-1.4912419452	-0.288215
C	-3.7724561053	-3.7347851355	-1.3744816336	-0.058791
O	-3.061353268	-3.5804505433	-0.1255823446	-0.271458
H	 0.8718293153	 2.1231929208	 0.226444533	 0.144824
H	-0.6328678041	 1.9371381975	-0.7282961398	 0.144965
H	-0.7117454931	 1.888274895	 1.0301648515	 0.147345
H	-3.9667404671	-1.8803255873	 0.7182010117	 0.112293
H	-5.0385034618	-1.8786967569	-1.4931682084	 0.122524
H	-3.4532653822	-1.7250274219	-2.2945760726	 0.129428
H	-4.6791003138	-4.3389604043	-1.252192972	 0.109039
H	-3.1419245788	-4.1869793068	-2.1475842001	 0.117412
