16
gdb 54901	3.92748	1.0523	0.93258	6.0449	72.22	-0.2395	-0.0498	0.1897	1231.621	0.124552	-437.955313	-437.946879	-437.945934	-437.9894	30.784	
N	-0.0739538819	 1.3725959229	-0.26987813	-0.521468
C	 0.0729215571	 0.0643116228	 0.090159307	 0.400941
O	 1.1425290769	-0.4123519024	 0.4072669125	-0.344822
C	-1.2440467406	-0.7354933836	 0.1227241738	-0.166792
C	-1.0314924387	-2.2560256235	 0.0624492326	-0.353939
C	-1.7586423847	-2.8263591876	 1.2885839302	 0.379019
O	-1.9141824641	-3.9958207378	 1.5452928224	-0.324929
C	-2.2325968725	-1.6649250237	 2.0841326418	-0.169814
C	-1.9617806584	-0.5232459825	 1.4464635881	-0.051797
H	 0.7564032755	 1.9386821169	-0.3401973153	 0.266019
H	-0.9264252247	 1.7248960719	-0.668730125	 0.260034
H	-1.8836882975	-0.3792097965	-0.6960462638	 0.093208
H	-1.408136832	-2.7169858336	-0.8532790008	 0.126656
H	 0.0348015427	-2.4857228958	 0.1457735597	 0.168324
H	-2.7385769685	-1.7770595152	 3.034255817	 0.120081
H	-2.2042013586	 0.4728462477	 1.8013133797	 0.119279
