18
gdb 8367	5.30898	1.14463	1.11793	1.6548	68.2	-0.2355	0.0772	0.3126	1110.9327	0.153197	-384.867123	-384.859265	-384.858321	-384.899824	29.414	
O	 0.1050445302	 1.3744535545	 0.0287940104	-0.417594
C	 0.0625875467	-0.0427317987	 0.0725087555	-0.064557
C	-1.371417015	-0.5852098851	 0.0566886564	-0.355709
C	-1.4309019115	-2.0828302954	 0.1040019796	 0.430844
C	-0.7773347671	-3.088023795	 1.0983844381	-0.256642
C	-1.3522701585	-3.864891789	-0.1049855319	 0.054211
C	-2.6521174451	-3.0339728697	-0.0220412506	-0.263813
O	-0.7843774286	-2.8418471613	-1.011143605	-0.348744
H	-0.2142346584	 1.6513718702	-0.8358748865	 0.282132
H	 0.6364700375	-0.4951046325	-0.7482407287	 0.113263
H	 0.5568305175	-0.3252416058	 1.0078893183	 0.114312
H	-1.9260806959	-0.1739423893	 0.908196632	 0.114932
H	-1.8827143673	-0.2473026643	-0.8548517397	 0.101825
H	 0.3116521296	-3.0548243597	 1.1493608016	 0.1077
H	-1.2482463033	-3.2222926719	 2.0758686268	 0.094479
H	-1.2145673057	-4.9094045894	-0.3827182873	 0.095132
H	-3.2961227783	-3.1635088741	 0.8518144568	 0.093559
H	-3.2084093168	-2.9486265235	-0.9566755357	 0.104671
