19
gdb 94960	3.3175	1.2993	1.11749	1.4891	74.3	-0.2419	-0.0259	0.2159	1115.2471	0.159853	-423.047397	-423.03932	-423.038376	-423.080201	31.481	
O	 0.2706846111	 1.3175018748	 0.1808346523	-0.440669
C	 0.047763564	-0.0760820197	-0.0038779853	 0.137226
C	 0.6177594573	-0.9171294632	 1.1575456869	-0.246667
C	-0.4829061705	-0.8813332891	 2.2385667465	-0.238161
C	-1.7995716156	-0.9107316854	 1.4339666811	-0.147706
C	-1.4546848544	-0.4131910898	-0.0209678469	-0.052124
C	-1.8409325394	-1.807499681	-0.6061961416	-0.373778
C	-2.1395331395	-2.2839381231	 0.82395161	 0.411056
O	-2.4911623663	-3.3256603695	 1.2966549326	-0.298618
H	-0.1434503049	 1.5836433025	 1.0085969279	 0.279284
H	 0.5299691097	-0.3091777323	-0.9578923733	 0.087229
H	 0.7808247855	-1.9489717067	 0.8239604034	 0.110007
H	 1.579347131	-0.524358584	 1.4956404405	 0.11093
H	-0.4167324013	-1.7106154081	 2.9476747377	 0.123788
H	-0.4238753936	 0.0434823645	 2.8249997981	 0.09826
H	-2.6409191225	-0.4500757523	 1.9577714422	 0.09502
H	-2.0344957319	 0.4197794757	-0.4184226882	 0.081731
H	-2.7254644758	-1.8082332857	-1.2506210883	 0.134266
H	-1.0480981329	-2.3621353676	-1.1194188556	 0.128925
