17
gdb 48073	2.71595	1.43681	1.04949	1.9669	75.41	-0.2439	-0.0896	0.1543	1134.3736	0.134826	-421.818339	-421.81002	-421.809076	-421.852014	30.488	
O	-0.7574425278	 1.3231651248	 0.7426996143	-0.231297
C	 0.193559096	 1.0221932913	 0.0705169742	 0.090428
C	 1.2408225493	 1.9996630726	-0.4836436855	 0.165563
O	 2.080767109	 1.5205187164	-1.2251321307	-0.313126
C	 1.1796459292	 3.4191504088	-0.1209258247	 0.253211
C	 1.7625725717	 4.4434193993	-1.0858188917	-0.30237
C	 2.4341837379	 4.2913609896	 0.2232879987	-0.068615
C	 1.6449057431	 4.9845995665	 1.337903482	-0.229466
C	 0.3830950568	 4.1300449582	 0.9840786436	-0.303065
H	 0.4074273841	-0.0190508097	-0.2533247524	 0.107998
H	 2.2718599315	 4.0011376259	-1.9343421141	 0.144077
H	 1.1669605285	 5.3277245559	-1.3001069457	 0.117708
H	 3.4465932239	 3.9130788843	 0.296217457	 0.113003
H	 2.0272281133	 4.7615463503	 2.3354815724	 0.113545
H	 1.5511377958	 6.0699939689	 1.2336257122	 0.106216
H	-0.5007118776	 4.6765514349	 0.6422306864	 0.104992
H	 0.0843133654	 3.4660508819	 1.7928460042	 0.131198
