21
gdb 60530	2.83501	1.15081	1.0496	2.127	74.36	-0.2521	0.0697	0.3218	1261.5777	0.179695	-461.340634	-461.330572	-461.329627	-461.375414	37.998	
C	-0.0625036131	 1.4797916014	 0.1336325869	-0.41769
C	-0.0477590537	-0.0465572024	 0.0356609994	 0.354345
C	 0.6694264528	-0.6506460911	 1.2536879962	-0.431982
O	-1.4132238422	-0.4588157772	 0.0144967439	-0.471827
C	 0.6451817351	-0.5540999381	-1.2599808252	 0.07152
O	 0.5429117297	-1.9701724873	-1.3238894591	-0.458755
C	 0.0759491781	 0.0361371871	-2.5488162136	 0.056377
C	 0.4183183066	-0.5478820053	-3.8502802733	-0.192972
O	-0.8555254692	-0.8113897118	-3.2370132325	-0.245018
H	 0.9399791133	 1.8948950733	-0.0127466189	 0.110652
H	-0.7398320123	 1.9179105521	-0.6029424366	 0.127338
H	-0.4142127276	 1.7829755944	 1.1235096283	 0.124718
H	 0.1122064966	-0.4070900741	 2.1623087064	 0.117726
H	 0.7359894594	-1.7376149669	 1.1596265975	 0.12919
H	 1.6864144702	-0.2562767167	 1.3543622854	 0.107282
H	-1.4009572015	-1.4198390129	-0.0701012726	 0.275785
H	 1.7124531885	-0.2967072988	-1.202929882	 0.085985
H	-0.1691176068	-2.1415946786	-1.961240075	 0.295285
H	-0.2162875232	 1.0819317211	-2.5212047973	 0.107303
H	 0.3757140967	 0.0651706409	-4.7478705958	 0.125182
H	 1.0928289425	-1.400500679	-3.888593062	 0.129555
