21
gdb 59834	4.44427	0.58243	0.55419	2.0667	89.97	-0.2459	0.028	0.2739	2064.3805	0.179932	-387.047393	-387.036905	-387.035961	-387.085361	37.051	
C	 0.2355187099	 1.3135350212	-0.4004054756	-0.380739
C	-0.0798351014	-0.1230218873	 0.0298931975	 0.048974
C	 0.6620473305	-0.4975723902	 1.3180671278	-0.391042
C	-1.602930849	-0.3392205067	 0.2140089957	-0.352582
C	-2.3841879189	-0.1494041964	-1.0019384444	 0.05456
C	-3.0092168238	-0.0049524124	-2.0226163213	 0.1361
C	-3.7888956667	 0.1876777868	-3.2144851127	-0.11744
C	-3.2243329429	-0.0275465968	-4.5619537657	-0.16042
O	-4.1179664063	-0.9758652433	-3.9956464269	-0.215947
H	 1.3079361517	 1.4422500055	-0.5782441671	 0.111355
H	-0.2969776914	 1.5778575899	-1.3182922355	 0.125235
H	-0.0603069552	 2.0276553907	 0.377953489	 0.110125
H	 0.2481370213	-0.8011516862	-0.768493418	 0.085483
H	 0.3507997034	 0.1443416548	 2.1510935771	 0.113455
H	 0.4687762564	-1.5362606176	 1.6065713543	 0.11237
H	 1.7432316021	-0.3789556671	 1.1959337328	 0.113369
H	-1.779158125	-1.3539939728	 0.5943627817	 0.129108
H	-1.9699543237	 0.3434259427	 0.9935912515	 0.125408
H	-4.612554838	 0.8957248032	-3.1258395319	 0.114053
H	-3.6135684935	 0.5506014598	-5.3994727528	 0.116994
H	-2.1890312795	-0.3512369076	-4.6514895854	 0.12158
