18
gdb 46133	4.41966	1.00664	0.86076	2.5242	80.15	-0.2595	0.0156	0.275	1313.9518	0.148474	-401.936124	-401.927724	-401.92678	-401.969291	31.972	
N	-0.0497845386	 1.3173265912	-0.2405486711	-0.497758
C	-0.0167726313	 0.0794524647	 0.0167794916	 0.383429
C	-1.2787044163	-0.7486214053	 0.0840192685	-0.283486
C	-1.2183522924	-1.8725664949	 1.1247367033	-0.21852
C	 0.086576639	-2.670665704	 0.934158103	-0.190192
C	 1.2695113262	-1.6934416639	 1.0388145338	-0.081385
O	 1.1715969069	-0.5967336729	 0.1258230166	-0.255205
C	 0.2386252253	-3.7486264939	 1.9024244751	 0.293561
C	 0.3749081172	-4.6176361386	 2.7215634361	-0.428309
H	 0.9026799885	 1.6871961758	-0.2858550661	 0.219341
H	-2.1172483729	-0.0730036883	 0.2577817343	 0.134861
H	-1.4235243131	-1.1927292692	-0.9105473041	 0.12797
H	-1.2361484758	-1.4601998812	 2.140456985	 0.11827
H	-2.0865706822	-2.5300471515	 1.030190743	 0.116437
H	 0.0892053701	-3.0959481829	-0.0792748613	 0.113957
H	 1.3321927314	-1.3093992922	 2.0659150274	 0.11761
H	 2.2119252663	-2.190376423	 0.8012902612	 0.130141
H	 0.4909413318	-5.3949363099	 3.4359154037	 0.199278
