15
gdb 24408	3.75173	1.65894	1.17113	1.4719	74.1	-0.1854	-0.0088	0.1766	984.8031	0.115233	-420.655321	-420.648771	-420.647827	-420.686208	26.036	
C	 0.1242824368	 1.4677011357	 0.2413454052	-0.142973
O	 0.9679514852	 2.1810150862	-0.7056745651	-0.266496
C	 1.984874158	 1.4297299287	-1.1225609877	 0.410376
C	 2.066568069	 0.0656977785	-1.1619219572	 0.10439
C	 3.329597024	-0.2020009144	-1.7979925929	-0.315399
C	 3.8803507103	 1.0038760846	-2.0832041931	-0.020911
O	 3.045741122	 2.0305307217	-1.6696561836	-0.188475
C	 0.8978025101	-0.674010728	-0.7292021562	-0.150418
C	-0.0735956896	 0.0090166689	-0.1052418778	-0.130551
H	 0.5836336363	 1.5780366413	 1.2386033444	 0.115748
H	-0.8183903121	 2.0183127802	 0.242781489	 0.1304
H	 3.7670568679	-1.1653934716	-2.0105238172	 0.114166
H	 4.8041257005	 1.3229011679	-2.5323504301	 0.138543
H	 0.7946211037	-1.7285964722	-0.9615809553	 0.100702
H	-1.0032345722	-0.4546090676	 0.2036700476	 0.100898
