15
gdb 18550	4.22896	1.97915	1.58111	3.7243	66.33	-0.2341	0.0083	0.2425	803.601	0.121141	-362.697021	-362.690636	-362.689691	-362.72761	24.713	
O	-0.0091207715	-0.0142512411	-0.0875520973	-0.3592
C	 0.0055000249	 1.1838489534	-0.0263127426	 0.425953
N	-0.9844178026	 2.1305958173	 0.0881935559	-0.32493
C	-0.1079346776	 3.3061233958	 0.059809541	 0.027588
C	 0.0426040276	 4.0790507172	 1.3863447037	-0.27297
C	 1.2090504451	 3.396039643	 2.064241231	-0.058486
C	 1.7892510129	 2.4704404117	 1.2980513433	-0.06909
C	 1.095985269	 2.3050205288	-0.0231032677	-0.230891
H	-1.9829354123	 2.037419572	 0.2069915762	 0.247219
H	-0.2774524897	 3.9479727022	-0.8081475942	 0.086647
H	 0.2445538475	 5.1434843067	 1.2104504551	 0.111582
H	-0.87729808	 4.0327840549	 1.9832866509	 0.109588
H	 1.5207525538	 3.6494610647	 3.0717035514	 0.098982
H	 2.6379946699	 1.8608748152	 1.5842514623	 0.108112
H	 1.738878783	 2.3195387982	-0.9055414591	 0.099894
