13
gdb 25423	4.61383	0.99764	0.82027	6.7628	80.37	-0.2417	-0.0437	0.1979	1288.7652	0.089341	-415.623514	-415.615842	-415.614897	-415.655991	28.085	
O	-0.138770645	-0.0015593733	 0.0006779831	-0.259467
C	-0.0171183518	 1.1989381048	 0.0095203321	 0.068856
C	 1.251877301	 1.9331513924	 0.0007759989	 0.16352
C	 1.3759857258	 3.3113209385	 0.0109404784	-0.133522
N	 2.712867408	 3.5565549225	-0.00225878	-0.294391
C	 3.3582266528	 2.3336243518	-0.0208407993	 0.197394
N	 2.4934988633	 1.3422335968	-0.0189838883	-0.32431
C	 4.7691088987	 2.2436678247	-0.038177247	 0.265987
C	 5.9714072583	 2.2045102318	-0.0525801293	-0.388941
H	-0.906546446	 1.8715133186	 0.0258224734	 0.060797
H	 0.6435244406	 4.1021202497	 0.0262944904	 0.156348
H	 3.1636759738	 4.4575195492	 0.000429702	 0.281133
H	 7.0322095004	 2.1483910524	-0.0654725943	 0.206597
