20
gdb 13898	2.78545	1.64077	1.27998	2.604	71.09	-0.246	0.0615	0.3075	1045.3975	0.175959	-386.125307	-386.11622	-386.115276	-386.158563	34.353	
C	 0.4671504827	 0.600239003	-1.3410355403	-0.402651
C	-0.0046426395	 0.033694059	-0.0048175657	 0.110245
O	 0.1038182833	 1.0276642976	 1.0391080078	-0.435871
C	-1.4145980596	-0.5250344383	-0.0754393826	-0.110533
C	-1.7240482853	-2.0117988297	 0.0845608906	-0.047462
C	-0.6477521777	-3.0610051203	 0.2580568866	-0.408782
C	-2.0444860122	-1.0462170308	 1.1979733862	 0.085753
O	-1.2588504156	-1.0802724141	 2.3507746631	-0.429636
H	 1.4752959623	 1.0126329532	-1.2483663488	 0.124911
H	 0.4741745058	-0.1794118879	-2.1093816219	 0.125433
H	-0.2020966261	 1.3988807481	-1.6843770918	 0.107512
H	 0.6921098073	-0.7436053382	 0.3169787961	 0.101849
H	-0.5144624888	 1.736847861	 0.8280222699	 0.280823
H	-2.0714927222	 0.0236557532	-0.7482196002	 0.074599
H	-2.5822915735	-2.343946492	-0.4938491446	 0.082635
H	 0.038166978	-2.7917869048	 1.0637114639	 0.139056
H	-1.1016134431	-4.0198476544	 0.5292056206	 0.117905
H	-0.0722700864	-3.2151882791	-0.6614868177	 0.109029
H	-3.0931160508	-0.8112009548	 1.3803737026	 0.080281
H	-0.7576910087	-0.2510934206	 2.3630851362	 0.294903
