21
gdb 51310	3.37683	0.97384	0.83689	2.5862	86.5	-0.2329	-0.0265	0.2064	1425.9774	0.18326	-387.126954	-387.118024	-387.117079	-387.16166	33.195	
O	 0.0454692936	-0.0549827399	-0.6169321979	-0.237501
C	 0.0400634681	 1.0568595106	-0.1546846456	 0.1573
C	 1.2688119494	 1.9374702111	 0.0039252698	-0.362048
C	 1.2816360011	 2.9564727246	-1.119629344	 0.300819
C	 0.899839256	 4.2228444152	-0.9279966444	-0.148271
C	 0.8846649084	 5.2751108573	-2.0064521316	-0.238769
C	 1.6527189311	 4.8361723566	-3.2612723774	-0.196704
C	 1.3230624108	 3.3828132489	-3.6189801645	-0.2015
C	 1.7126483572	 2.4378725258	-2.4745286947	-0.28596
H	-0.9114687766	 1.5501441036	 0.1498147634	 0.078378
H	 1.2193313043	 2.4422290646	 0.9748019307	 0.111389
H	 2.1577063222	 1.2989832411	-0.0316919434	 0.11978
H	 0.5835379912	 4.5381737157	 0.0649847187	 0.076369
H	-0.1589240509	 5.5105978925	-2.2656638653	 0.108775
H	 1.3016948334	 6.2106210889	-1.6123900302	 0.102937
H	 1.4222866664	 5.504684972	-4.0973450511	 0.092937
H	 2.730836615	 4.9242919212	-3.0742659685	 0.098457
H	 0.2460208082	 3.2932812861	-3.8114685733	 0.09989
H	 1.8328538676	 3.0846317651	-4.5411118967	 0.094406
H	 2.8029144813	 2.2864351482	-2.4637918643	 0.107079
H	 1.2856358124	 1.4404257807	-2.6365796197	 0.122235
