19
gdb 69075	2.6532	1.62214	1.22421	2.7197	81.99	-0.2393	-0.0243	0.215	1063.1654	0.158803	-385.910526	-385.902269	-385.901325	-385.942804	32.33	
C	-0.0516572988	 1.5082453734	 0.1987475087	-0.492772
C	 0.0235891348	 0.0057625995	 0.0714680498	 0.276957
C	-0.7853455029	-0.8847687559	 0.9644352981	-0.351304
C	 0.7226290367	-0.9276539696	 1.1261111069	 0.203074
C	 1.5021723994	-1.9848628569	 0.3488737184	-0.369034
C	 1.1721233283	-1.6961825518	-1.0979475309	-0.078911
C	 0.4062520712	-0.6128303326	-1.2345359127	-0.123642
C	 1.3081838946	-0.3345723526	 2.3431440729	 0.07174
O	 0.7422568925	 0.4292146725	 3.0942313756	-0.281002
H	 0.8434213278	 1.9880058154	-0.2109701675	 0.119222
H	-0.9186183153	 1.891396424	-0.351829644	 0.12018
H	-0.1540931063	 1.8055533024	 1.2445814309	 0.1556
H	-1.3087083835	-0.4128439496	 1.7901544052	 0.136919
H	-1.2664260956	-1.7573470655	 0.534237257	 0.115303
H	 2.5818745186	-1.8957719865	 0.5407932153	 0.111852
H	 1.2239987061	-3.0064688951	 0.639291626	 0.117333
H	 1.5208412725	-2.3242528877	-1.909638463	 0.100493
H	 0.0651076518	-0.1968045991	-2.1764749151	 0.099812
H	 2.365049028	-0.6338902943	 2.5318877284	 0.068181
