13
gdb 2436	5.5915	2.87053	2.48799	0.8225	52.28	-0.22	0.0698	0.2898	564.1492	0.101879	-344.371144	-344.36573	-344.364786	-344.399915	21.728	
O	-0.0892580933	 1.3558397888	-0.0778509735	-0.453977
C	 0.054578156	-0.012289147	-0.0589420881	 0.332322
C	 0.9519980548	-0.8977106855	-0.928349944	-0.297822
C	 0.0687200636	-2.0525666241	-0.3867031169	 0.070233
O	 0.4124343777	-2.1275268358	 1.0302264956	-0.292813
C	-0.2835877792	-0.8904605251	 1.1680795422	 0.018615
C	-1.0826267559	-1.0201442511	-0.0899727985	-0.183379
H	 0.5980472822	 1.744236055	 0.4753567331	 0.290629
H	 0.7731176259	-0.7135548062	-1.9906661675	 0.109992
H	 2.0238580461	-0.9632924867	-0.7146882897	 0.097433
H	-0.0053270677	-3.0217133802	-0.8735648538	 0.092012
H	-0.526954129	-0.5100082038	 2.1517802945	 0.110003
H	-2.1340164812	-0.9548871383	-0.3308422634	 0.106753
