17
gdb 113128	2.38008	1.22077	0.92713	4.7701	81.45	-0.2351	0.0052	0.2403	1291.5831	0.134059	-380.819017	-380.809489	-380.808544	-380.853491	34.632	
C	 0.0672481507	 1.3210236105	-0.3981213765	-0.317176
N	-0.2040477995	 0.2196766034	 0.5199905025	-0.292034
C	-1.4477294816	-0.4346128326	 0.2858007721	 0.016502
C	-1.6965145183	-1.4012513841	-0.8371912572	-0.322613
C	-1.5692915839	-1.9341947258	 0.6075383379	-0.025814
C	-0.3787468495	-2.6604583543	 0.95884722	 0.248222
C	 0.6297997615	-3.2478870718	 1.2467269434	-0.420897
C	-2.782216651	-2.3662588467	 1.260807141	 0.237847
N	-3.7659607421	-2.6967355724	 1.770801893	-0.340944
H	 1.0407905709	 1.7554488272	-0.1569578654	 0.128343
H	 0.0660689171	 1.0322570702	-1.4626226901	 0.102714
H	-0.6881915258	 2.1030804428	-0.2647047639	 0.129892
H	 0.5570251189	-0.4501083966	 0.5308929695	 0.231041
H	-2.3093664337	 0.1506956506	 0.5983188109	 0.130618
H	-2.681641859	-1.4569778596	-1.2860176901	 0.145371
H	-0.8684294125	-1.6584432312	-1.4875252269	 0.139559
H	 1.5098039681	-3.7826511597	 1.5080298098	 0.209368
