19
gdb 58601	2.27182	1.29419	1.024	1.3046	76.01	-0.2636	0.0413	0.3049	1234.4653	0.156237	-422.972418	-422.962736	-422.961792	-423.007098	36.358	
C	-0.4235801436	 1.2414719387	 0.4475085434	-0.416582
C	-0.0975668244	-0.2537782206	 0.5380519465	 0.064703
O	-0.2265402511	-0.8789781403	-0.7272252432	-0.434229
C	 1.3025173336	-0.5156776223	 1.1056108849	 0.389528
C	 1.6893745822	 0.1876505314	 2.4042087322	-0.446745
C	 0.7981803798	-0.1326518057	 3.5138368584	 0.315139
C	 0.052605423	-0.402689122	 4.4168459412	-0.456431
C	 2.008218793	-1.7441738831	 0.7278138713	-0.226523
O	 2.3316525686	-0.483291998	 0.1054457785	-0.29349
H	 0.344966425	 1.7754545883	-0.1229673052	 0.119454
H	-1.3795570454	 1.3655956739	-0.0665481544	 0.128645
H	-0.5048277503	 1.7002051614	 1.4374568873	 0.124428
H	-0.8271069699	-0.7425142334	 1.1930660543	 0.107351
H	 0.5589966581	-0.6204382787	-1.228707451	 0.287127
H	 2.7190780278	-0.0917747301	 2.6530583144	 0.140657
H	 1.6980188374	 1.2714416072	 2.2373359383	 0.14361
H	-0.5998598661	-0.6397872172	 5.220468216	 0.20189
H	 2.7807957365	-2.1407964155	 1.3838469732	 0.117077
H	 1.5163830857	-2.4605077839	 0.0766765939	 0.13439
