20
gdb 70574	2.48886	1.80766	1.33053	1.1566	77.9	-0.2263	0.0711	0.2974	1032.0051	0.172301	-403.114616	-403.106845	-403.1059	-403.146364	31.482	
C	 0.0835553601	 1.502577567	-0.0962282161	-0.47623
C	-0.0936319701	 0.006625148	 0.0564778809	 0.318875
C	-0.3640743594	-0.5927291826	 1.3973864958	-0.294309
N	 0.9730614663	-0.6749122213	 0.8143457053	-0.131062
C	 1.4700841313	-1.9554519905	 0.3193957684	-0.149553
C	 0.4671575521	-2.8747618528	-0.4157320446	-0.263567
C	-0.3706775918	-2.1078607792	-1.4216951907	 0.035571
O	-1.6686571688	-1.6896138777	-0.9839714583	-0.25339
C	-0.6648030559	-0.685197946	-1.1591138323	-0.00671
H	 0.7230014101	 1.7393169417	-0.9546331571	 0.117716
H	-0.8824382459	 1.99688557	-0.2499182292	 0.119728
H	 0.5533761874	 1.9197087886	 0.7970025152	 0.128393
H	-0.450207074	 0.0563293791	 2.2656194093	 0.109552
H	-0.9965906244	-1.4752594396	 1.4208270814	 0.125577
H	 2.2965831369	-1.7206426703	-0.3630511249	 0.1061
H	 1.9054807586	-2.4933877483	 1.1683773181	 0.108987
H	 1.0301768957	-3.6666999714	-0.9199285083	 0.104059
H	-0.2033604212	-3.3709963986	 0.2931842439	 0.122377
H	-0.3469915349	-2.451945878	-2.4548963434	 0.093397
H	-0.8477756522	-0.0252565181	-2.0067316431	 0.08449
