20
gdb 111432	2.94225	1.46178	1.17548	3.0266	77.49	-0.2378	0.0688	0.3066	1118.176	0.172178	-403.106904	-403.098939	-403.097994	-403.139524	31.276	
C	-0.1327075849	 1.5113192534	 0.0589799257	-0.390565
C	-0.0127920239	-0.0131410404	-0.0208700625	-0.169969
C	 0.7479479567	-0.5106379449	-1.2593982026	-0.021565
C	 0.9307432824	-2.0356999931	-1.3034131922	-0.071406
N	-0.3206588321	-2.8168621919	-1.3183878857	-0.312761
C	 0.3982318344	-2.5694348628	-2.586131089	-0.084242
C	-0.1427964186	-1.3947026408	-3.3785635743	 0.04468
O	-1.2380735883	-0.7112916556	-2.7675927167	-0.237383
C	 0.0744185244	-0.167097488	-2.5939160001	 0.022544
H	 0.8523598566	 1.9927952366	 0.0676895943	 0.106409
H	-0.6923287932	 1.9138904256	-0.7916742487	 0.123571
H	-0.6570888142	 1.8156140947	 0.9700520096	 0.113175
H	 0.4959994665	-0.3875783498	 0.8763854339	 0.086745
H	-1.0052369233	-0.4729948969	-0.0333067041	 0.135353
H	 1.749208138	-0.0566677551	-1.2780471936	 0.069998
H	 1.8024635574	-2.4666381602	-0.8192813739	 0.084834
H	-0.1201134263	-3.7655465737	-1.0089165049	 0.230089
H	 0.8575815011	-3.3969322732	-3.1156062467	 0.085469
H	-0.1487429412	-1.4258289285	-4.4648466433	 0.092459
H	 0.2305186989	 0.8097925947	-3.0471156354	 0.092564
