17
gdb 41864	2.80875	2.1218	1.71703	2.8264	71.67	-0.2344	0.0054	0.2398	845.5867	0.139665	-417.989118	-417.982724	-417.98178	-418.019797	25.824	
C	-0.117138118	 1.4619524712	-0.2324890888	-0.096016
O	 0.9725478567	 2.0670994656	 0.449445091	-0.273465
C	 1.9336706838	 1.1002475272	 0.8982074688	 0.06117
C	 2.0438954835	 1.2272260765	 2.4245175992	-0.16035
N	 0.7821024898	 0.9374975542	 3.1041215655	-0.211254
C	-0.0539135714	 0.2033290007	 2.492848848	 0.060086
N	 0.1701287895	-0.5622574774	 1.3268271698	-0.117142
C	 0.0165716912	-0.0351009813	-0.0424942235	-0.062644
C	 1.3625225801	-0.2607795798	 0.5463340463	-0.063492
H	-1.0510495415	 1.8741150581	 0.1692922381	 0.117301
H	-0.0808987682	 1.6873899974	-1.3094551382	 0.104666
H	 2.8993346256	 1.2795407811	 0.4096603577	 0.080993
H	 2.8360764952	 0.5660086049	 2.8014009979	 0.110164
H	 2.3326521778	 2.2498286732	 2.6875776164	 0.121801
H	-1.0410560991	 0.0429914039	 2.9273053118	 0.114216
H	-0.4418310287	-0.7108816239	-0.7568539487	 0.110636
H	 2.0127666738	-1.0919779116	 0.2947577289	 0.103331
