15
gdb 9216	7.29552	0.86643	0.82442	4.0774	60.41	-0.2575	-0.0306	0.2269	1350.8886	0.116279	-436.981481	-436.97226	-436.971316	-437.017374	29.862	
C	-0.0756005596	 1.3141877848	 0.1615347521	-0.330643
N	 0.4997252161	-0.0087502565	 0.0361642101	-0.353516
C	 0.6269162297	-0.6369072756	-1.1561800805	 0.525878
O	 0.2892862196	-0.2054018851	-2.2354561016	-0.403161
O	 1.2077463108	-1.8634594941	-0.9579871605	-0.278573
C	 1.4191541534	-2.6541113975	-2.1226614133	-0.169509
C	 0.5944009992	-3.9251341082	-2.039979774	 0.144863
O	 0.8419691091	-4.9200313862	-2.6665109078	-0.23022
H	 0.6464259876	 2.0253817488	 0.577682814	 0.130896
H	-0.3617591835	 1.6453093714	-0.8370714725	 0.173326
H	-0.9654065381	 1.3028620563	 0.8005013602	 0.130672
H	 0.8381872128	-0.4942772967	 0.8499196561	 0.257613
H	 1.1154220196	-2.0861744222	-3.0100459623	 0.174152
H	 2.4812120479	-2.9034128538	-2.2003802413	 0.140434
H	-0.2780533346	-3.8517620455	-1.3515755788	 0.087789
