13
gdb 42377	8.56027	0.59351	0.5569	3.1226	89.31	-0.2491	-0.0684	0.1807	1836.8487	0.084659	-382.208789	-382.199355	-382.19841	-382.244081	32.878	
O	-0.2233972003	-0.121452873	 0.0014539948	-0.254576
C	-0.1224027511	 1.0800935077	 0.0055870756	 0.258017
C	 1.222001617	 1.8268061569	-0.0025801635	-0.507146
C	 2.3845186788	 0.9628924729	-0.0169529592	 0.421112
C	 3.3635708527	 0.2540212402	-0.0289797548	-0.252589
C	 4.4643100433	-0.5453183541	-0.0425133638	 0.297349
C	 5.4427543294	-1.2524529879	-0.0545299866	-0.555245
C	-1.2776458431	 1.9603343267	 0.0190032228	 0.236775
C	-2.2214464788	 2.7071241916	 0.0301436721	-0.397803
H	 1.2181053482	 2.4999315143	-0.8716973219	 0.170144
H	 1.2332936069	 2.4912391183	 0.8731609836	 0.170177
H	 6.3008535442	-1.8776253851	-0.0650893452	 0.193505
H	-3.0695440273	 3.3485378015	 0.0402398361	 0.22028
