19
gdb 58171	2.06403	1.35856	1.01787	4.3561	77.86	-0.2333	-0.0818	0.1515	1252.5297	0.156082	-419.211342	-419.200761	-419.199817	-419.247688	36.731	
C	-0.304450626	 1.5286759057	 0.5688281147	-0.409773
C	 0.2245646942	 0.1613209253	 0.1201354597	-0.073699
N	-0.6681676929	-0.9850984781	 0.2345543191	-0.050075
C	-0.7386896226	-1.5740535298	 1.5619518658	-0.327705
C	-1.9812062328	-0.8059638441	-0.3707524015	-0.336835
C	 0.7257674793	 0.201793673	-1.3241818077	 0.282464
O	 0.7308132202	 1.1713400389	-2.0375455198	-0.271841
C	 1.2381438172	-1.0949637616	-1.8276470723	 0.252465
N	 1.7052075709	-2.0624407803	-2.255963548	-0.311707
H	 0.4842981338	 2.2820263274	 0.5042246666	 0.137111
H	-1.1309325141	 1.8643475676	-0.0616045286	 0.137616
H	-0.649678315	 1.4779399156	 1.6048688377	 0.123429
H	 1.1160729424	-0.0865425532	 0.7151574697	 0.116115
H	-1.2583854577	-0.9395541085	 2.3024018957	 0.102343
H	-1.2770310093	-2.5252604536	 1.5053944189	 0.130606
H	 0.269211274	-1.7808819564	 1.9329953306	 0.127251
H	-1.8834210523	-0.3859728193	-1.3764357026	 0.132932
H	-2.4685170516	-1.7811692601	-0.4636867428	 0.132721
H	-2.6490868275	-0.1474675184	 0.2104232847	 0.106584
