19
gdb 112160	3.274	1.10866	0.8826	4.3875	79.45	-0.2643	-0.034	0.2303	1357.3333	0.158448	-423.096078	-423.086888	-423.085944	-423.130347	33.34	
C	 0.004696838	 1.5618109134	-0.0607754076	-0.385447
C	-0.0270438609	 0.0431592279	 0.1262209464	-0.182705
C	-1.4382800755	-0.5428374881	 0.0171828781	 0.069133
O	-1.9830135982	-0.2844027475	-1.2863705957	-0.235735
C	-2.3385215387	-1.463131773	-1.8868433661	 0.384493
O	-2.8154388269	-1.5166662303	-2.9864622583	-0.3491
C	-2.0270269562	-2.5770069021	-0.9473021303	 0.164505
C	-2.3011217928	-3.9941085322	-1.3213951796	-0.48857
C	-1.5110631784	-2.0368457952	 0.1577098933	-0.214838
H	 1.0277534223	 1.9414393539	 0.0130526918	 0.116731
H	-0.3940834951	 1.8390229467	-1.03985199	 0.144976
H	-0.5961044258	 2.067169915	 0.7034092096	 0.115973
H	 0.607054263	-0.4490205165	-0.6201912542	 0.11093
H	 0.3724653929	-0.2277561697	 1.1116633563	 0.101635
H	-2.0933817291	-0.0448228479	 0.7475320338	 0.104982
H	-3.3655181184	-4.1339714555	-1.5384982548	 0.14921
H	-1.7626829327	-4.26005665	-2.2372429289	 0.149151
H	-2.0094827903	-4.685465942	-0.527588612	 0.124693
H	-1.1710875971	-2.5546025168	 1.0463959583	 0.119983
