14
gdb 126832	4.8845	1.13203	0.99477	5.7142	68.68	-0.2478	-0.0988	0.149	1156.8681	0.099728	-466.11101	-466.103127	-466.102183	-466.144252	28.083	
C	 0.020920346	 1.5087683164	 0.0085428153	-0.385601
C	-0.0443209322	-0.016315012	 0.003344826	-0.133447
N	-1.4231004843	-0.5259476121	 0.0134066677	 0.055825
N	-2.0699860558	-0.5081717201	 1.2003746236	-0.031491
N	-3.2633293059	-0.9282434645	 1.2271662583	-0.192597
C	-3.7676099735	-1.5032281529	 0.0300914566	 0.454444
O	-4.5771165583	-2.387355405	 0.0337472248	-0.285257
N	-3.2842461761	-0.9190085073	-1.1711336156	-0.192596
N	-2.0905893366	-0.4990739716	-1.1619254562	-0.031492
H	 1.0657577036	 1.8310712196	 0.0006861126	 0.138123
H	-0.4744390872	 1.918838852	-0.8752842043	 0.150322
H	-0.4589828013	 1.9121102698	 0.9039189607	 0.150318
H	 0.4237910574	-0.4354311559	-0.8890889677	 0.151723
H	 0.4391973141	-0.4421326465	 0.8843181583	 0.151725
