14
gdb 27109	3.23274	1.18119	0.9093	1.9555	65.34	-0.2503	-0.0209	0.2293	1209.7473	0.099922	-473.871922	-473.863699	-473.862755	-473.906303	28.18	
C	-0.1626316742	 1.3597079613	-0.1282637361	-0.49742
C	 0.0740095701	-0.1091788364	-0.0576926109	 0.156589
C	 0.4533483023	-0.9726453804	-1.0301091923	 0.308247
O	 0.790112199	-0.8249218123	-2.3319024291	-0.213428
C	-0.2053328896	-1.0281653673	-3.2656187571	 0.165502
O	 0.0064023642	-0.9381292221	-4.428313675	-0.235504
O	 0.5653753088	-2.2304278868	-0.5052500066	-0.161976
C	 0.2364503304	-2.0559116589	 0.7972827737	 0.079069
N	-0.0608636886	-0.8430212908	 1.123043406	-0.299721
H	 0.489089314	 1.8881320244	 0.5746215541	 0.149933
H	 0.0361011587	 1.7381364462	-1.1338212768	 0.135445
H	-1.1957563215	 1.6038863825	 0.1392434506	 0.145033
H	-1.1717606075	-1.2620937956	-2.7865479688	 0.108408
H	 0.2541965838	-2.9354785638	 1.4213268882	 0.15982
