16
gdb 7683	3.99024	1.5623	1.51715	2.5659	65.96	-0.2377	-0.011	0.2268	891.697	0.128798	-383.727994	-383.720416	-383.719472	-383.75942	29.32	
C	-0.0370848413	 1.5532985835	-0.000502491	-0.46739
C	 0.0612664782	 0.046174296	-0.0713079762	 0.412003
O	-1.0749037455	-0.608417678	 0.4256511876	-0.46435
C	 0.6722541844	-0.7337331593	-1.1708467626	-0.093836
C	 1.8845560088	-0.0235517137	-1.7859514323	-0.3774
C	 2.5468987057	-0.0736252692	-0.3789827568	 0.402243
O	 3.6537291894	 0.1778045952	 0.0084341343	-0.318544
C	 1.3585891137	-0.7372200848	 0.2368201941	-0.248069
H	 0.8497504316	 2.0494610958	-0.3992625788	 0.137268
H	-0.9143039397	 1.8985577657	-0.5568703932	 0.132838
H	-0.1471388933	 1.875093389	 1.0420988965	 0.118173
H	-1.214702285	-0.3158417065	 1.333263677	 0.286735
H	 0.1385209082	-1.5618727919	-1.6178109654	 0.113559
H	 2.4451868753	-0.6662328809	-2.4713696487	 0.136732
H	 1.7320636183	 0.9498337526	-2.2590735282	 0.121108
H	 1.3458272312	-1.4788921534	 1.0257331536	 0.10893
