17
gdb 43244	3.54969	1.67257	1.36976	4.1422	79.33	-0.2299	-0.0496	0.1804	939.6568	0.138221	-384.66283	-384.656399	-384.655455	-384.693408	26.777	
O	-0.1109742579	 0.0715676217	 0.3974927651	-0.339471
C	-0.0777644666	 1.2163380449	 0.0126517285	 0.391218
C	-1.2327260398	 2.1307337795	-0.2678688635	-0.284401
C	-0.7462487224	 3.2917669241	-0.7350623612	 0.19518
C	-0.7230767769	 4.7053895124	-0.1982827696	-0.297227
C	 0.8091876748	 4.384134611	 0.0576417122	-0.035692
C	 1.1960749507	 3.2483771732	 1.0718527999	-0.243889
C	 1.1624254016	 2.1260828686	-0.0621511884	-0.150708
C	 0.7445487649	 3.2625953986	-1.0157309341	-0.072937
H	-2.2109661246	 1.9543518222	 0.1629135138	 0.112053
H	-0.7878756499	 5.4963111594	-0.9529061762	 0.120997
H	-1.3902781933	 4.9338223272	 0.6360897929	 0.116996
H	 1.4902801268	 5.2355609746	 0.0131361126	 0.083198
H	 2.2111028184	 3.3936054131	 1.4459281093	 0.120286
H	 0.5332241939	 3.0879364492	 1.9250363886	 0.115654
H	 2.0983509109	 1.5860623585	-0.2024113082	 0.082568
H	 1.1040476494	 3.3573485319	-2.0399830016	 0.086173
