16
gdb 22184	2.20507	1.18989	0.81714	2.6377	74.41	-0.248	-0.0295	0.2185	1341.8977	0.119391	-437.815145	-437.805125	-437.804181	-437.851785	34.722	
O	-0.2748505739	 1.5926906473	-1.2410234414	-0.38916
N	-0.1674179626	 0.1970604766	-1.2127802149	-0.163288
C	-0.9070469636	-0.3211642933	-0.3075728981	 0.333109
C	-0.8701413794	-1.8197077719	-0.1949647275	-0.35034
C	-0.1220060844	-2.3410801874	 1.0314183469	 0.168676
O	-0.3454923495	-3.4026634382	 1.5467306795	-0.240961
C	-1.7835311903	 0.521901877	 0.6068313444	-0.439105
C	-2.3337448742	-0.1952050517	 1.7475988037	 0.254281
C	-2.7785542074	-0.7924560029	 2.6905270565	-0.401892
H	 0.3360192616	 1.8323744022	-1.9460851791	 0.313291
H	-1.8734423094	-2.255386691	-0.1874478772	 0.14267
H	-0.3340562476	-2.2067516109	-1.0702260652	 0.148796
H	 0.6978406264	-1.6791306478	 1.3908581919	 0.085923
H	-1.1958599768	 1.3849815015	 0.9413314979	 0.167697
H	-2.5929314271	 0.9539088383	 0.0016965301	 0.163484
H	-3.1668697517	-1.3235312377	 3.5243718724	 0.20682
