23
gdb 122530	4.79527	0.57048	0.54342	2.1223	84.71	-0.2485	0.0766	0.325	2105.632	0.203612	-425.396884	-425.385921	-425.384977	-425.434272	38.49	
C	-0.1780618978	 1.5114978077	-0.3973228078	-0.383861
C	-0.0545592674	 0.0592874352	 0.0326006372	-0.024716
O	-1.3312513894	-0.5394451329	-0.0322645852	-0.242177
C	-1.3314656129	-1.897115724	 0.3602836149	-0.076178
C	-2.7507357657	-2.4008326927	 0.3121154465	-0.027883
C	-3.3414866534	-2.9453616347	-0.9637663363	-0.27653
C	-3.1067139512	-3.8676699318	 0.2055919824	 0.003938
C	-2.0779749966	-4.9661471585	 0.1320986921	-0.100083
O	-2.6972166112	-6.0941173153	-0.4748486575	-0.41962
H	 0.7966895306	 2.0069302646	-0.3574346857	 0.112389
H	-0.5603004841	 1.5769182939	-1.4199343875	 0.126752
H	-0.8682882501	 2.0478095106	 0.2600914503	 0.125888
H	 0.6537348387	-0.4784318944	-0.6217056631	 0.081462
H	 0.3471270821	-0.0076903673	 1.0587827701	 0.081973
H	-0.6774596419	-2.4844781659	-0.3051800319	 0.079831
H	-0.9200662507	-1.993436189	 1.3808959019	 0.081692
H	-3.4178130019	-1.8090643273	 0.9328152437	 0.091032
H	-4.3588557995	-2.679256687	-1.2266205939	 0.112346
H	-2.6742821682	-3.0469068652	-1.8144218148	 0.112149
H	-3.9908239859	-4.169450521	 0.7606307728	 0.091198
H	-1.2037779083	-4.637898839	-0.4507023371	 0.081713
H	-1.7204190687	-5.2144986255	 1.1449348592	 0.084679
H	-2.0724537463	-6.8250543204	-0.4504019303	 0.284005
