19
gdb 103446	3.53363	1.20364	1.18319	1.3521	75.27	-0.2415	-0.0037	0.2378	1125.9259	0.160173	-419.187767	-419.179394	-419.17845	-419.220563	32.123	
C	-0.1630131212	 1.6308422648	-0.1511139972	-0.479762
C	-0.1201098863	 0.1189601138	-0.1514472017	 0.290237
C	-1.3561592883	-0.5361314257	 0.4463425584	-0.113518
O	-1.4372282305	-0.2983469278	 1.8388516139	-0.418044
C	 0.6745643317	-0.6673324291	-1.1283476465	-0.099923
C	 1.7959716468	 0.0084729591	-1.9183987744	-0.199836
N	 2.7651730686	 0.4750031391	-0.9061488513	-0.199705
C	 2.3129746798	 0.1184224267	 0.2275336477	 0.033977
N	 1.1090302083	-0.6383395745	 0.3022865858	-0.184366
H	 0.7945799671	 2.0898935345	-0.4013057252	 0.141863
H	-0.9045188109	 1.972774677	-0.8817121154	 0.125124
H	-0.4774219605	 1.9853736012	 0.8347373449	 0.141859
H	-2.2621566107	-0.1072374112	 0.004385341	 0.110274
H	-1.3453117062	-1.6130092877	 0.2241348814	 0.091829
H	-0.6213091378	-0.6541977969	 2.2120277527	 0.290334
H	 0.2850348057	-1.6174275783	-1.4827756536	 0.097408
H	 2.2867365067	-0.697598184	-2.5969796861	 0.124083
H	 1.4641013797	 0.8588994635	-2.5252841304	 0.121219
H	 2.8263737281	 0.3393775955	 1.1591700361	 0.126949
