19
gdb 4943	4.92644	1.27053	1.10875	1.8906	79.46	-0.1953	0.0503	0.2456	1144.5686	0.165985	-327.972209	-327.96369	-327.962745	-328.005688	31.12	
C	-0.068211913	 1.5392169036	 0.0069309918	-0.366757
C	 0.0345848736	 0.0108245094	 0.0024890595	-0.156215
N	 0.7249487667	-0.5244607449	 1.1623908849	 0.031711
C	 2.0793354308	-0.721064674	 1.2674643071	-0.087754
C	 2.3590276646	-1.1381820745	 2.5475849806	-0.265549
C	 1.1262325322	-1.1969786114	 3.2632487878	 0.267687
C	 0.9265877596	-1.614993849	 4.6893936078	-0.497301
C	 0.1453490026	-0.8075695739	 2.3776747649	-0.192788
H	 0.9259649984	 1.9951517758	 0.0165795279	 0.129502
H	-0.5991875389	 1.887749456	-0.8847729098	 0.116499
H	-0.6105434744	 1.8893806507	 0.8898673594	 0.129621
H	-0.9647345323	-0.4356191935	-0.0319453858	 0.117475
H	 0.5658317425	-0.3303806105	-0.8919759272	 0.117017
H	 2.7243430161	-0.5507787884	 0.4192746769	 0.108889
H	 3.3365049811	-1.3923862288	 2.9303684688	 0.086293
H	 1.4938533758	-0.9822230846	 5.3824029319	 0.120781
H	-0.1276848612	-1.5520695577	 4.9755984906	 0.114113
H	 1.2528712209	-2.6476576004	 4.8622595996	 0.121045
H	-0.921807755	-0.7139439839	 2.5114166833	 0.105732
