15
gdb 130245	5.82925	1.00368	0.91275	1.27	69.56	-0.2376	-0.0185	0.2191	1241.8893	0.114916	-450.104818	-450.097201	-450.096257	-450.137368	28.364	
N	-0.0153180879	 1.3467987162	-0.1115580998	-0.585801
C	-0.0066899587	-0.0145138513	 0.0262204715	 0.407199
N	-1.0647646429	-0.7157384045	 0.3686355673	-0.21255
O	-0.5406170698	-2.0306195626	 0.4517213405	-0.228222
C	 0.7560443829	-1.9461942513	 0.1381359772	 0.461359
N	 1.1539519818	-0.7406024206	-0.1406607492	-0.372185
C	 1.5570441035	-3.1759931511	 0.1335508641	-0.119233
C	 1.3162131441	-4.2107026433	 1.1862831646	-0.228703
N	 0.9214508436	-4.4663281648	-0.1969660732	-0.311843
H	 0.7060439093	 1.7057326481	-0.7175297065	 0.26965
H	-0.9243685368	 1.7603885684	-0.2520178077	 0.268613
H	 2.5553845939	-3.0337259832	-0.2643325372	 0.125311
H	 2.1601408836	-4.7936228963	 1.5429366273	 0.134063
H	 0.5466765837	-4.0011847688	 1.9230967615	 0.139068
H	-0.0816414303	-4.327163255	-0.3003122104	 0.253274
