16
gdb 124413	3.23152	1.23667	0.96511	3.7024	74.57	-0.2506	0.0071	0.2578	1189.1076	0.1263	-396.967825	-396.959578	-396.958634	-397.001962	29.718	
C	 0.1436191375	 1.3254314399	-0.4893664511	-0.383567
C	 0.0337196754	-0.0873529806	 0.1353924641	-0.277957
C	 0.487890533	-0.06460114	 1.5313556341	 0.283201
N	 0.8096696152	-0.0319142655	 2.6409027437	-0.32533
C	-1.3635293334	-0.6509625295	 0.0440053503	 0.407584
C	-2.0921683999	-1.0824900172	-1.0480901464	-0.317483
C	-3.3431110527	-1.4572741072	-0.5150278412	 0.000957
N	-3.3962621464	-1.2790040426	 0.80194585	-0.225206
N	-2.1853360163	-0.7847132314	 1.1155001463	-0.251688
H	 1.1718787437	 1.6914994699	-0.4349177188	 0.139938
H	-0.1628202871	 1.2819314854	-1.5365515432	 0.139157
H	-0.5091248879	 2.0274552724	 0.0343503729	 0.146418
H	 0.7101833965	-0.7569927691	-0.409882019	 0.150443
H	-1.7651270987	-1.1225136696	-2.0747101087	 0.106876
H	-4.2027262381	-1.8511376118	-1.0369256041	 0.118054
H	-1.9606663207	-0.591811183	 2.0793089511	 0.288604
