19
gdb 87415	3.55696	1.34198	1.28997	2.575	78.84	-0.2327	0.0748	0.3074	1071.9468	0.160592	-381.981291	-381.97377	-381.972825	-382.013123	30.003	
C	-0.1346152753	 1.5212474663	-0.0589216256	-0.39284
C	-0.0553264082	 0.0204002904	 0.0819943103	-0.09749
N	 1.2934132818	-0.5894950545	-0.0605442712	-0.405426
C	 0.6017275685	-0.6510932391	 1.2210897829	 0.430463
C	 1.2535656654	-0.1918486946	 2.4957617968	-0.136565
C	 0.429443251	-0.7102691719	 3.632411376	-0.042879
C	-0.7527345587	-1.487571179	 3.0740630435	-0.239984
C	 0.2549342858	-1.9210155141	 1.9895887932	-0.12295
N	 1.4360253248	-1.6128250978	 2.9770491663	-0.159337
H	 0.7276776114	 1.9975641455	 0.414832386	 0.126259
H	-0.1430353335	 1.8146235767	-1.1140554876	 0.121661
H	-1.045977316	 1.9097675227	 0.4085572039	 0.11559
H	-0.8834091313	-0.5265099059	-0.3703348933	 0.079823
H	 1.2355544025	-1.4828918926	-0.5445407858	 0.228769
H	 2.0360092661	 0.5470541821	 2.6187220363	 0.103208
H	 0.5742062182	-0.3591775025	 4.6483629549	 0.09782
H	-1.0150571427	-2.3176558481	 3.734984048	 0.112465
H	-1.6574983157	-0.9565806661	 2.7606194377	 0.09919
H	 0.1986669559	-2.8903867276	 1.4951394877	 0.082222
