19
gdb 84582	2.24101	1.94539	1.22197	2.5729	80.35	-0.2371	-0.0196	0.2175	1052.1146	0.159685	-385.914499	-385.906545	-385.905601	-385.94716	31.05	
C	 0.0904641299	 1.6251548792	-0.1553286707	-0.391276
C	 0.0294699973	 0.0959411471	-0.034698972	-0.039858
C	 0.6460918947	-0.6490532361	-1.2030899259	-0.060435
C	 1.458104197	-1.6413159092	-0.8386342099	-0.090112
C	 1.5921262063	-1.7652715359	 0.6557538143	-0.079757
C	 2.9227991433	-1.1986058884	 1.2504215995	-0.355173
C	 2.1596794796	 0.1006877408	 1.5621476507	 0.41416
O	 2.4969714552	 1.1817741961	 1.95070796	-0.30246
C	 0.7971838639	-0.512979902	 1.1691636666	-0.161366
H	 1.1185827829	 1.9795451411	-0.2613640242	 0.132656
H	-0.4798317686	 1.9594703768	-1.0283567158	 0.108335
H	-0.335175351	 2.1066151651	 0.730046262	 0.122566
H	-1.0312390533	-0.1848454359	 0.0453734916	 0.084522
H	 0.4142873624	-0.381308528	-2.2293748543	 0.094408
H	 1.9873124514	-2.2964619065	-1.5229613269	 0.095589
H	 1.3031663559	-2.746937208	 1.0396303856	 0.079494
H	 3.2587027358	-1.7004727884	 2.1644640046	 0.126756
H	 3.775644776	-1.0985660997	 0.5732587471	 0.126831
H	 0.1659759215	-0.6618962979	 2.0496954976	 0.09512
