16
gdb 56455	2.73083	1.01578	0.83439	5.5228	75.61	-0.2681	-0.0435	0.2246	1368.6024	0.120603	-400.744606	-400.734708	-400.733763	-400.780687	34.432	
C	-0.4817868043	 1.3227636266	 1.4459707518	-0.39442
C	-0.154800689	 0.5093052534	 0.1662396302	-0.26202
C	 0.7886557008	-0.5695086832	 0.4341348305	 0.313876
C	 1.5654823173	-1.4567572343	 0.6682518035	-0.456224
C	-1.4857464788	 0.0412346227	-0.4595517973	 0.392778
O	-2.1373837108	 0.7860886765	-1.1399655761	-0.270213
C	-1.936041582	-1.3892913785	-0.128764099	-0.472328
C	-3.2969193627	-1.6816149088	-0.5569466303	 0.290846
N	-4.3750834964	-1.9347474384	-0.8825884194	-0.29312
H	 0.4374129364	 1.7366147679	 1.865857648	 0.143225
H	-1.1626541026	 2.1398421938	 1.1973762256	 0.149234
H	-0.94720066	 0.6900781526	 2.2071215693	 0.133147
H	 0.2749072012	 1.1979509466	-0.5698865322	 0.145494
H	 2.2591900705	-2.2367257023	 0.8667048941	 0.210569
H	-1.2325050894	-2.0831842863	-0.6041427785	 0.191388
H	-1.8301079302	-1.5668785881	 0.9478664997	 0.177767
