17
gdb 123340	6.73189	0.70312	0.66853	2.1873	80.65	-0.2381	0.0198	0.2579	1622.6101	0.136971	-380.859594	-380.851013	-380.850069	-380.89409	31.261	
C	 0.00234311	-1.2614687741	 0.0291561883	-0.44394
C	-0.0278272073	-0.0598274004	 0.0508162889	 0.295921
C	-0.0210698603	 1.3972901796	 0.0712074676	-0.338204
C	 1.4046407864	 1.9939276955	-0.0680199687	-0.327817
C	 1.4091534454	 3.4926311573	-0.0384026875	 0.216328
C	 1.4626136382	 4.366035321	-1.1082934854	-0.13325
N	 1.4120659713	 5.6183118704	-0.5924885971	-0.174852
N	 1.3304207361	 5.6349246578	 0.7503117598	-0.222596
C	 1.3263164061	 4.3489377265	 1.0874991025	-0.082453
H	 0.0128404874	-2.3229358148	 0.0131389285	 0.193821
H	-0.6516207193	 1.7844017772	-0.7385932558	 0.131246
H	-0.4725154198	 1.7579354048	 1.0035980219	 0.135139
H	 2.0261706101	 1.596197108	 0.7412033634	 0.120745
H	 1.8446699063	 1.6316002497	-1.0023515098	 0.114258
H	 1.5386769491	 4.1905514102	-2.1702843516	 0.132497
H	 1.4432390393	 6.4920940187	-1.0893945146	 0.274979
H	 1.2714682711	 4.0714573026	 2.1309152298	 0.108177
