18
gdb 49179	3.74486	1.18523	0.98866	3.2558	81.81	-0.2377	-0.0488	0.1889	1191.0824	0.149189	-401.950397	-401.942683	-401.941739	-401.982712	29.684	
O	-0.2012529679	-0.0325139592	 0.0430133371	-0.289156
C	-0.0714215009	 1.1722304526	 0.0967284797	 0.092997
C	 1.2087230344	 1.8750781296	-0.0219372212	 0.193866
C	 1.220060915	 3.2180668806	 0.0669393129	-0.085883
N	 2.349445999	 4.0454239885	-0.0856980278	-0.130971
C	 3.4338730767	 3.8355092836	 0.9158782686	-0.246402
C	 3.5995392175	 3.3617382809	-0.4786527159	 0.010617
C	 3.5615662533	 1.9085260452	-0.9081611703	-0.235438
C	 2.4768332868	 1.0821510966	-0.1973678991	-0.334517
H	-0.9512656388	 1.8383653068	 0.2456714398	 0.064511
H	 0.2978147018	 3.7655737216	 0.2541970578	 0.11224
H	 3.9288424962	 4.7423190062	 1.2502546155	 0.128791
H	 3.2376745147	 3.1031155755	 1.693776101	 0.130225
H	 4.2033162753	 3.9955711159	-1.1256877931	 0.103592
H	 3.3676202781	 1.8957120656	-1.9874912035	 0.118497
H	 4.5484621662	 1.4544459506	-0.7665937757	 0.112529
H	 2.8335617915	 0.7512909163	 0.7864241881	 0.121199
H	 2.259033791	 0.1644837831	-0.7508415042	 0.133302
