18
gdb 84482	2.88485	1.4937	1.1288	3.7632	79.78	-0.2312	-0.0244	0.2067	1111.5597	0.1478	-401.953322	-401.945051	-401.944107	-401.986318	31.448	
C	-0.0566900043	 1.6055628382	 0.0339331529	-0.392426
C	 0.0324007622	 0.0723722198	-0.0239689408	-0.160447
C	 0.792448302	-0.4934280484	-1.2003970445	-0.099747
C	 1.8107299861	-1.2781651347	-0.8337679109	-0.168856
C	 1.9244657109	-1.3699004374	 0.6389519962	 0.199874
C	 2.421871385	-2.5603751289	 1.3914220619	-0.276742
N	 3.2171893451	-1.3365231974	 1.3710126287	-0.336638
C	 0.7998781491	-0.5088670506	 1.1805597065	 0.3581
O	 0.5485487663	-0.3184366105	 2.3416429846	-0.319168
H	 0.9384666198	 2.0577392624	-0.0175407597	 0.125074
H	-0.650864236	 1.9940181051	-0.7986578213	 0.116193
H	-0.5255003059	 1.9137839589	 0.972121712	 0.141678
H	-0.9898877963	-0.3314974108	 0.0118543839	 0.111654
H	 0.5168196375	-0.2741675692	-2.2257907793	 0.104355
H	 2.486255769	-1.7953239634	-1.5068380608	 0.102518
H	 1.9604587002	-2.780502482	 2.3502641172	 0.141719
H	 2.7457942328	-3.4225475999	 0.8133601192	 0.117539
H	 3.9741852466	-1.4215045511	 0.6942467842	 0.235321
