19
gdb 37909	3.00807	1.88677	1.40739	0.6507	86.18	-0.2116	-0.0154	0.1962	955.8691	0.161917	-348.703106	-348.696368	-348.695424	-348.733648	28.858	
C	-0.016437235	 1.4263762837	 0.2669236138	-0.302928
C	 1.4758615683	 1.5160597161	-0.1553254426	-0.082415
C	 2.357294072	 0.2772861933	 0.0920810774	 0.002751
C	 2.2674266302	-0.7962188974	 1.1952827292	-0.296029
C	 1.7345709781	-2.1380969647	 0.6936284637	-0.043694
C	 0.4868568261	-2.3209829698	 0.230322494	-0.091132
C	-0.4169999016	-1.1554802918	 0.2400702256	-0.219702
C	 0.024841661	 0.0007265297	-0.2579323431	 0.250666
C	 1.3334572704	 0.2463837059	-0.9893363533	-0.158207
H	-0.2921003991	 1.5689271004	 1.3178057565	 0.097191
H	-0.5967516628	 2.1205645307	-0.3521863344	 0.109619
H	 1.9590106889	 2.44694803	-0.4309833257	 0.086503
H	 3.3696643052	 0.4738514117	-0.2584487644	 0.083111
H	 3.2572277281	-0.9395923517	 1.6391017834	 0.094255
H	 1.6197444438	-0.4440505253	 2.0055407404	 0.121293
H	 2.4134147222	-2.9865961097	 0.7437193974	 0.087782
H	 0.1403060078	-3.3129572301	-0.0515992198	 0.08546
H	-1.3025848406	-1.1847534849	 0.8754363923	 0.088183
H	 1.528647417	 0.0616634441	-2.0384269902	 0.087291
