18
gdb 81609	3.78923	0.94542	0.89788	3.9631	76.35	-0.2682	0.0346	0.3028	1322.9547	0.148341	-401.904357	-401.896176	-401.895232	-401.937707	31.22	
O	 0.0287879048	 1.4473886368	-0.2887422506	-0.447809
C	-0.0713863922	 0.0617458799	-0.1509143334	 0.196239
C	-0.0585829921	-0.6316716737	 1.2521985048	-0.100688
C	-1.5239140695	-0.1251757307	 1.4306028821	-0.258532
C	-1.4582438872	-0.6567735243	-0.0348202964	-0.126245
C	-0.6951868394	-1.8790986829	 0.5640493429	 0.054197
C	 0.1169769291	-2.8328022218	-0.3255190637	-0.403123
C	 0.987968855	-3.6951507551	 0.472868722	 0.264792
N	 1.6679642957	-4.3666925689	 1.122544832	-0.308183
H	-0.5384940535	 1.882389787	 0.3553008267	 0.285284
H	 0.6191557334	-0.3376322822	-0.8935506986	 0.078046
H	 0.7385937126	-0.628962797	 1.9957403273	 0.091636
H	-2.1524852777	-0.687135994	 2.1254697926	 0.105621
H	-1.6802653881	 0.946727457	 1.5765544573	 0.083911
H	-2.2662244378	-0.679984521	-0.7675730819	 0.079222
H	-1.3065321298	-2.473167019	 1.2488727708	 0.092488
H	-0.5705061043	-3.470564144	-0.8939573732	 0.154919
H	 0.7343099611	-2.3109140461	-1.0611429906	 0.158225
