17
gdb 37453	2.60407	1.98903	1.97449	2.4002	65.11	-0.2555	0.081	0.3365	829.1214	0.139203	-458.939391	-458.933151	-458.932207	-458.969711	25.94	
C	-0.0113434072	 1.5497135736	 0.0115298499	-0.057848
O	 1.3290367553	 2.0690914232	 0.0258948419	-0.255072
C	 2.2904152597	 1.0559777851	-0.0471057623	 0.156527
O	 2.2076183557	 0.1742018697	 1.0660567836	-0.275732
C	 0.9121801494	-0.4383958179	 1.1585897696	-0.062793
C	 0.0337026913	 0.0171499143	-0.0267518456	-0.139244
C	 0.7774739638	-0.420248225	-1.2865721909	 0.037345
O	 1.1022705209	 0.6030473519	-2.2335855588	-0.24515
C	 2.1069293512	 0.1930744789	-1.3062489824	 0.026332
H	-0.5176441984	 1.8862086769	 0.9251495432	 0.099997
H	-0.5364437772	 1.9558213195	-0.857557895	 0.120027
H	 3.267693579	 1.5356305478	 0.0183014757	 0.093554
H	 1.0378369725	-1.5287571105	 1.1675702841	 0.103185
H	 0.4529018673	-0.1403512426	 2.1097894898	 0.108131
H	-0.9724914667	-0.4027588102	 0.0495822116	 0.081844
H	 0.586926119	-1.4050164777	-1.7058198664	 0.102058
H	 2.9798660843	-0.2977071371	-1.728085608	 0.106838
