21
gdb 83815	2.0994	1.63478	1.34166	1.1832	83.71	-0.2292	0.0171	0.2463	1104.8043	0.183061	-387.090178	-387.081382	-387.080438	-387.123125	34.562	
C	-0.1339994386	 1.5498252078	 0.0769940059	-0.415017
C	 0.0355691889	 0.0489617413	 0.0251661577	-0.083964
C	 0.7107830168	-0.6754220145	-1.1398070557	-0.099031
C	 1.3694315177	 0.0867625018	-2.2883293072	-0.232645
C	 2.9036064235	 0.1618678702	-2.158100971	-0.255911
C	 3.3480903295	 0.4734307157	-0.7480698937	-0.048063
C	 2.6421847693	 0.1115113104	 0.323367458	-0.139886
C	 1.3690875547	-0.6513734611	 0.2086614668	 0.363989
O	 1.3561047	-1.8793369309	 0.9015085828	-0.470193
H	 0.7821026514	 2.0727142544	-0.2095581251	 0.122449
H	-0.9365575151	 1.8842054941	-0.590872495	 0.115221
H	-0.3924574199	 1.8764043639	 1.0905053206	 0.111316
H	-0.7906344784	-0.513603617	 0.4538057025	 0.082579
H	 0.263368178	-1.6295896624	-1.3975171644	 0.09239
H	 1.1032318224	-0.3845300159	-3.2398282515	 0.098053
H	 0.9738811069	 1.1074298392	-2.3371946451	 0.104242
H	 3.3559044328	-0.7922192715	-2.4671165364	 0.115609
H	 3.2979581852	 0.9132918835	-2.8515557172	 0.098888
H	 4.2947659814	 0.9938153227	-0.6237023034	 0.087925
H	 2.9995642219	 0.3366745555	 1.3268397365	 0.075822
H	 1.2958681116	-1.6842312473	 1.8435297549	 0.276228
