19
gdb 88566	3.30932	1.18427	1.12372	3.0353	75.96	-0.234	0.0736	0.3076	1171.2755	0.158392	-422.96545	-422.95711	-422.956165	-422.998677	32.293	
O	 0.0090452252	 1.402466063	 0.0241331419	-0.414664
C	 0.0123206005	 0.0081954328	-0.0689090221	 0.108177
C	-0.3331885691	-0.8137241399	 1.1455359135	-0.350181
C	-1.3261377784	-0.6761953963	 0.0033271807	-0.162164
C	-2.5787741698	 0.0964281861	 0.160326432	 0.473852
C	-2.9153436264	 1.2833104786	 1.0826534666	-0.288239
C	-4.4132709687	 0.8154126929	 1.067068937	-0.243731
C	-3.9930861399	-0.3306302947	 0.1386585702	-0.053475
O	-3.3903276464	 0.2651570507	-1.0177756922	-0.300503
H	 0.787416555	 1.66935219	 0.5242090856	 0.289025
H	 0.7386648033	-0.4016454928	-0.7705637877	 0.090829
H	 0.1526244838	-1.7712734062	 1.2972952411	 0.114759
H	-0.5491354404	-0.2619282378	 2.0542764883	 0.118211
H	-1.447111436	-1.5396162652	-0.6436426633	 0.096506
H	-2.4673597797	 1.2092063858	 2.0759281311	 0.099032
H	-2.6894472643	 2.2603861033	 0.6545650514	 0.118653
H	-4.7573950338	 0.4749243151	 2.0468272907	 0.100705
H	-5.1445195511	 1.5077771293	 0.6430028922	 0.109023
H	-4.4391657437	-1.3114801347	 0.0117922429	 0.094186
