14
gdb 83068	2.90578	1.52932	1.30021	5.3891	66.82	-0.2417	-0.0018	0.2399	969.578	0.101717	-432.860942	-432.853175	-432.85223	-432.893092	28.848	
O	-0.1070208692	 1.3846124322	 0.0431580412	-0.4165
C	-0.0689905478	 0.0044692123	-0.0098387405	 0.053609
C	-1.3712978067	-0.7434654441	 0.0502174078	-0.116264
N	-2.5431627869	-0.0311011539	-0.3616419077	-0.268081
C	-2.3256948961	 0.4627032332	-1.6242653455	 0.065434
N	-1.2750910028	 0.0473241996	-2.2390270909	-0.308377
C	-0.5414738921	-0.7342853506	-1.271728655	 0.134822
C	 0.2163547175	-1.8606436464	-1.7385177199	 0.233793
N	 0.8448682821	-2.77098185	-2.0758124704	-0.344096
H	 0.4068523633	 1.7363708378	-0.6933097198	 0.304615
H	 0.765157156	-0.4793887484	 0.4951674654	 0.12054
H	-1.5038327169	-1.6053228437	 0.6926910343	 0.132307
H	-3.1319128683	 0.4427844671	 0.3044194062	 0.265665
H	-3.050227552	 1.1352378649	-2.0698513052	 0.142534
