16
gdb 125362	3.26979	1.63273	1.09637	2.6945	77.9	-0.1965	0.0159	0.2125	1053.4803	0.127827	-396.963816	-396.956247	-396.955303	-396.995593	28.971	
C	-0.0183123958	 1.5366762069	 0.0172270242	-0.515289
C	-0.0067847331	 0.0397402579	 0.0159977161	 0.107131
C	-0.0302989079	-0.790851806	-1.0871719036	-0.132785
N	-0.0097384467	-2.1222880817	-0.712750694	-0.429814
C	 0.0281654085	-2.1735055846	 0.6627385782	 0.253192
C	 0.0304784503	-0.857811984	 1.1264316749	 0.327865
N	 0.0682455806	-0.9514260413	 2.485581227	-0.371029
N	 0.0897664417	-2.2424166381	 2.9072784871	-0.223406
C	 0.065753901	-2.9956725787	 1.8072440292	-0.137216
H	 0.8748897521	 1.9533586337	 0.4990300867	 0.12381
H	-0.0517177466	 1.9268063353	-1.0039770138	 0.124169
H	-0.8876836488	 1.9396208156	 0.5514232925	 0.123749
H	-0.0609544149	-0.5201313486	-2.1321581982	 0.118577
H	-0.0207243832	-2.9004347133	-1.3456308358	 0.261081
H	 0.0811332199	-0.2227914684	 3.1758698302	 0.265581
H	 0.076644513	-4.0709770347	 1.8979867093	 0.104384
