20
gdb 104251	2.18496	1.33291	1.0709	4.4507	78.84	-0.2771	0.0013	0.2784	1234.5262	0.16944	-403.147398	-403.137639	-403.136694	-403.182568	35.235	
C	 0.0433840402	 1.5803066408	-0.1474865915	-0.401481
C	-0.0244704732	 0.0551057105	-0.0057237441	-0.243946
C	-1.4495054802	-0.5043040101	 0.0355857226	 0.26545
C	-2.2528378589	-0.0200755516	 1.24158786	-0.461319
C	-2.2340798792	-0.4415562462	-1.3022248722	-0.107457
O	-2.3998444405	-1.8786238117	-1.3355032007	-0.272867
C	-1.5921093293	-2.0569338759	-0.1623111975	-0.064531
C	-0.3693271015	-2.8219884159	-0.43040477	 0.29387
N	 0.5983115433	-3.4231391896	-0.6263472755	-0.333854
H	 1.0819620492	 1.9057468626	-0.2540116211	 0.126314
H	-0.5012913041	 1.9259203789	-1.0333847041	 0.120274
H	-0.3742261394	 2.0947315482	 0.7228360063	 0.123214
H	 0.5133344152	-0.406706707	-0.8409645271	 0.122777
H	 0.5064730173	-0.255053863	 0.9031846384	 0.109574
H	-2.3842869793	 1.0655415281	 1.2183559884	 0.12911
H	-3.2494904101	-0.4727047934	 1.2579597201	 0.127867
H	-1.747062228	-0.2778913681	 2.1786075602	 0.125698
H	-3.199835339	 0.0744787341	-1.273759622	 0.109992
H	-1.6565852333	-0.0851703413	-2.1636402665	 0.111296
H	-2.1443936291	-2.5660634095	 0.6374189663	 0.120018
