15
gdb 131560	3.10213	1.63851	1.1694	2.3852	67.12	-0.2163	0.0045	0.2207	998.4932	0.115319	-453.941469	-453.934238	-453.933294	-453.973265	27.624	
O	 0.0839057279	 1.3831955219	-0.1946547245	-0.426386
C	 0.0448752486	-0.0230422838	 0.006452276	-0.013312
C	 0.540240115	-0.4664096255	 1.4286936727	-0.12546
O	-0.612191727	-0.837976393	 2.2451597467	-0.293388
C	-1.6236834595	-1.0041247221	 1.3595147072	 0.30165
C	-2.9208406697	-1.4571090116	 1.3486877062	-0.209976
N	-3.3105799314	-1.2926874106	 0.0381343353	-0.182201
N	-2.3652638926	-0.7791191078	-0.7714257327	-0.318245
C	-1.3345393662	-0.6069687331	 0.0498377141	 0.210418
H	-0.7059326564	 1.7591858624	 0.209199241	 0.284756
H	 0.6953509884	-0.4428554693	-0.7652248976	 0.108418
H	 1.1912622576	-1.3445574104	 1.3581133058	 0.117866
H	 1.0683880794	 0.3460358181	 1.9309475883	 0.12795
H	-3.5822932669	-1.8607494538	 2.0957155403	 0.1403
H	-4.2035665072	-1.5337086414	-0.3568803888	 0.27761
