20
gdb 110802	2.25981	1.43011	1.06192	1.6904	84.74	-0.2287	0.0306	0.2593	1218.7387	0.170041	-365.929649	-365.920624	-365.91968	-365.963463	34.394	
C	-1.3965547574	 0.7807437071	 0.793896696	-0.382896
C	-0.1150756425	 0.2462941667	 0.1399797418	-0.214056
C	 0.7627747598	-0.4453940677	 1.1620769189	 0.034736
C	 0.7224039744	-1.8754001159	 1.5270188911	-0.043876
C	 0.479027695	-2.7815335772	 0.3226029647	-0.283621
C	 1.7674078237	-2.1557224653	-0.2928177992	-0.137026
C	 1.7510685887	-1.5554781321	-1.6136988703	 0.359479
C	 1.76644138	-1.0943704415	-2.7246282011	-0.466362
N	 1.980484225	-1.2525952447	 0.9124558056	-0.178879
H	-1.1675978492	 1.4810961904	 1.6046859803	 0.116652
H	-2.017996623	 1.3080559084	 0.0641504226	 0.115012
H	-1.9937999139	-0.0330217835	 1.2188131157	 0.118437
H	-0.3733824573	-0.4204521864	-0.6851027016	 0.113066
H	 0.4482342728	 1.0739765472	-0.3069427363	 0.111073
H	 0.973193332	 0.1992210339	 2.0161333929	 0.094215
H	 0.7155843975	-2.2172002325	 2.5572713672	 0.094596
H	 0.5967856147	-3.8445220078	 0.5362157642	 0.116013
H	-0.4575758543	-2.6320787151	-0.2200116698	 0.114784
H	 2.583480968	-2.8838155248	-0.2595683032	 0.119121
H	 1.7757296259	-0.6751358194	-3.7003775396	 0.199533
