23
gdb 111917	1.95605	1.34955	0.88244	1.9909	88.04	-0.2291	0.0193	0.2485	1405.7012	0.205558	-388.309465	-388.299548	-388.298604	-388.344016	37.569	
C	-0.8107231006	 1.2645504699	-0.0237005855	-0.41343
C	 0.0832290494	 0.024352475	-0.0655381337	 0.017523
C	 1.3041572747	 0.1377694163	-1.0126985115	-0.308159
C	 2.3150917426	-0.8133074046	-0.4047580357	 0.333103
C	 3.5349947097	-1.250843442	-1.1510812867	-0.493475
C	 1.9563015977	-1.1491973199	 0.8377820146	-0.199735
C	 0.6874653863	-0.4590335651	 1.2918660604	-0.057019
C	 0.9920080618	 0.6682612986	 2.2973351089	-0.0661
O	 1.6006566635	 0.1846564426	 3.4855933739	-0.426706
H	-0.2636177662	 2.1547649967	 0.3039825294	 0.117907
H	-1.2154801856	 1.4788811325	-1.018667541	 0.11102
H	-1.6603916188	 1.1251298909	 0.6532216673	 0.11519
H	-0.5220019291	-0.8120290527	-0.4362364152	 0.079039
H	 1.0512955056	-0.1169845222	-2.0495023592	 0.096629
H	 1.7064207149	 1.1621335044	-1.0427094321	 0.099212
H	 4.1509893578	-0.3897170862	-1.4413158687	 0.125141
H	 4.1553770188	-1.9266472211	-0.5558457131	 0.121667
H	 3.2663496044	-1.7648224524	-2.0829068516	 0.125365
H	 2.5240759359	-1.817884606	 1.4783315506	 0.08119
H	 0.0057710376	-1.153543296	 1.7989732699	 0.072801
H	 1.6171870101	 1.4393243069	 1.8193609967	 0.082468
H	 0.0638002452	 1.1506451079	 2.6192438991	 0.105763
H	 2.4614552244	-0.1708366035	 3.2428476734	 0.280605
