19
gdb 38760	2.3587	2.31735	1.84942	1.0765	72.9	-0.2371	0.0752	0.3124	858.3701	0.163382	-423.025979	-423.019737	-423.018793	-423.056173	26.994	
C	-0.0033954984	 1.5916657373	-0.1477205181	-0.270334
C	 1.5403662988	 1.5526863922	-0.027345031	 0.098704
O	 2.0031617544	 1.7313195118	 1.3089389328	-0.275917
C	 1.9063904303	 0.4701994421	 1.9855393794	 0.059402
C	 2.3132065097	-0.5614071071	 0.9231853893	-0.232483
C	 1.5095470904	 0.0067071987	-0.2411158748	-0.074008
C	-0.0292227272	 0.053008243	 0.0775985453	 0.106954
O	-0.3320304092	-0.3887673548	 1.3883810901	-0.269208
C	 0.4608408293	 0.1846095166	 2.4267491466	-0.088178
H	-0.540079734	 2.2226060879	 0.5642210273	 0.109598
H	-0.324555691	 1.842639078	-1.1632537061	 0.101087
H	 2.1284359367	 2.1996414648	-0.6814276406	 0.074344
H	 2.5621373537	 0.5305868618	 2.8575569663	 0.081549
H	 3.3889262941	-0.5329039913	 0.7296560311	 0.104216
H	 2.0183014006	-1.5795947232	 1.1886180385	 0.113426
H	 1.7646962299	-0.3620470501	-1.2343393134	 0.070312
H	-0.6872182638	-0.52266113	-0.5758656299	 0.081972
H	 0.4518597261	-0.5470402222	 3.241882033	 0.106658
H	 0.0127229994	 1.1181935343	 2.7966454543	 0.101906
