17
gdb 7957	3.33701	1.76213	1.35256	2.9952	64.67	-0.2434	0.0259	0.2694	932.8377	0.142865	-401.049763	-401.041889	-401.040945	-401.081822	29.777	
C	-0.088166054	 1.5852153316	 0.0445288419	-0.392489
C	 0.1032240392	 0.0748479299	 0.0296701958	 0.018213
N	 0.9747747195	-0.3860465792	-1.0484415157	-0.31479
C	 1.6831643945	-1.5278340853	-0.760412303	 0.388253
O	 2.3585376491	-2.1645495177	-1.5370109876	-0.375155
C	 1.4322685042	-1.8173514759	 0.7253115306	-0.363169
C	 0.8377545794	-0.510245239	 1.2714381877	 0.12001
O	 1.8339550802	 0.3601302709	 1.7796546337	-0.426673
H	 0.8672059071	 2.1007330093	 0.1600222112	 0.125738
H	-0.5639872566	 1.9268249717	-0.8805060275	 0.113785
H	-0.7329481032	 1.8739998484	 0.8798536768	 0.127865
H	-0.8842880729	-0.4093077706	-0.0422277768	 0.081113
H	 0.8568912255	-0.1009565919	-2.0089487423	 0.249062
H	 0.7158604035	-2.6444859643	 0.7901214069	 0.131946
H	 2.3432107386	-2.1212083035	 1.2435579897	 0.134843
H	 0.1414793044	-0.6638670895	 2.0987104581	 0.09356
H	 2.5148257516	 0.4645892951	 1.1047702905	 0.287889
