17
gdb 38060	2.56508	2.19235	1.58516	1.5225	79.58	-0.2222	-0.0324	0.1898	885.8053	0.138997	-384.696716	-384.690265	-384.689321	-384.727119	27.09	
O	-0.0114151761	 1.4268112016	 0.0452001093	-0.240851
C	 1.3556557136	 1.8307889237	 0.0248121518	-0.02189
C	 2.077785577	 0.68313672	 0.7024330126	-0.091478
C	 1.2734697095	-0.379774873	 0.7048204464	-0.091485
C	-0.0287061352	 0.0013685748	 0.0289221412	-0.021887
C	-0.0270142163	-0.5404609499	-1.3851784641	-0.081708
C	 0.6392900988	 0.0148421431	-2.4143674842	-0.064062
C	 1.5189176756	 1.1773269705	-2.416984854	-0.064059
C	 1.8744566009	 1.9724078709	-1.3908304884	-0.08171
H	 1.4258265452	 2.7860413362	 0.5566501855	 0.086558
H	 3.1102106327	 0.7272549647	 1.0238813347	 0.111015
H	 1.5122868628	-1.3844070927	 1.0286357378	 0.111016
H	-0.9277939233	-0.3242476469	 0.5636163088	 0.086557
H	-0.6055267892	-1.4439383428	-1.5626458615	 0.092419
H	 0.5424419693	-0.475489184	-3.380436798	 0.089573
H	 1.9623415242	 1.4010581837	-3.3846696382	 0.089573
H	 2.5862601205	 2.7742185702	-1.5721495095	 0.09242
