23
gdb 59709	2.9504	1.26136	0.99982	1.4008	85.4	-0.2466	0.086	0.3326	1287.6914	0.206372	-388.295042	-388.286002	-388.285058	-388.328589	35.278	
C	-0.0427715188	 1.5231505733	-0.0521622331	-0.391066
C	 0.0168225394	-0.0085369674	 0.0172341259	 0.024615
C	 0.8216593549	-0.4772477597	 1.2370505767	-0.399098
C	-1.3919302272	-0.6102971861	 0.031945487	 0.134084
O	-2.0905805534	-0.1695638624	-1.1384850045	-0.275909
C	-3.1455589095	-1.0832242548	-1.4153133871	-0.09348
C	-2.6458605526	-2.4370655286	-0.9438106251	-0.062221
C	-1.2352374276	-2.7881458151	-1.340277892	-0.290875
C	-1.5018597363	-2.1298601138	-0.0080354306	-0.060449
H	 0.9641687675	 1.9493256732	-0.1106057518	 0.103545
H	-0.611499852	 1.8530237896	-0.9239204378	 0.13297
H	-0.5258850079	 1.9353609105	 0.8423606337	 0.105588
H	 0.5127705236	-0.3773840083	-0.8899424301	 0.075084
H	 0.9376025317	-1.5651501757	 1.2564150875	 0.115388
H	 1.8229860243	-0.0352965863	 1.2310215906	 0.112473
H	 0.3346775093	-0.1731382139	 2.1717767433	 0.110562
H	-1.917383785	-0.2493654394	 0.9362584343	 0.057939
H	-4.063746326	-0.8089560936	-0.8699271187	 0.088819
H	-3.3532203703	-1.023697318	-2.4893365746	 0.105359
H	-3.364650287	-3.220271756	-0.7342807485	 0.086943
H	-0.9597402902	-3.8366781065	-1.3296593153	 0.108891
H	-0.7623871306	-2.2023124664	-2.1221318836	 0.121913
H	-1.3554017364	-2.6889438447	 0.9078920137	 0.088925
