16
gdb 28819	3.12652	1.41836	1.08451	3.0203	84.24	-0.235	-0.0825	0.1526	1114.0009	0.125152	-396.94308	-396.935194	-396.93425	-396.975659	29.56	
C	-0.4616066404	 1.3811872998	 0.163824128	-0.474996
C	-0.0147472002	-0.0444483045	-0.0221531033	 0.290546
N	-0.1279523482	-0.5812372247	-1.1875140948	-0.275133
C	 0.2222739071	-1.8807840089	-1.5025166429	-0.00011
C	 0.238848387	-2.964618779	-0.7015905169	-0.08831
C	-0.0289627343	-2.9296111077	 0.7430614451	 0.285531
N	-0.7159265911	-3.843109039	 1.3066647141	-0.494931
N	 0.6376062163	-1.9225157795	 1.4730509458	-0.231785
C	 0.6163962063	-0.6875583481	 1.14984455	-0.033037
H	 0.3751571	 2.0145551875	 0.4824157729	 0.140316
H	-0.8677436793	 1.766402689	-0.7715330262	 0.150595
H	-1.225641512	 1.4502869458	 0.9473914242	 0.143971
H	 0.3979993749	-2.0197629992	-2.5666131588	 0.118541
H	 0.397135392	-3.9455805575	-1.1386316684	 0.12689
H	-0.7323055366	-3.6849507251	 2.3177913933	 0.220843
H	 1.1429628386	-0.0023956389	 1.8219251679	 0.12107
