19
gdb 109602	2.00407	1.37398	1.03462	2.8193	79.27	-0.2412	0.0238	0.265	1244.895	0.156073	-422.969447	-422.959241	-422.958297	-423.004309	37.721	
C	 0.0414418105	 1.5965365166	 0.2097616503	-0.423085
C	 0.0033612322	 0.0958319489	 0.0192153736	-0.089191
C	 0.4775031857	-0.6021692757	-1.2412448134	-0.102965
C	 1.0908584471	 0.1337999659	-2.4200418791	-0.076501
O	 2.2134383012	-0.5520694228	-2.9475003522	-0.428349
C	 1.2957345094	-0.7215139972	 0.0287446404	 0.164136
O	 2.5206130927	-0.0225058829	-0.0375591953	-0.465008
C	 1.3485493189	-1.958950683	 0.7578284528	 0.29062
C	 1.4043873599	-2.9738976548	 1.4019313267	-0.440982
H	 0.9990490818	 2.0198281045	-0.0990503267	 0.135089
H	-0.7519865827	 2.0880247774	-0.3630644226	 0.124468
H	-0.1088324287	 1.8481459529	 1.2650518767	 0.119225
H	-0.8290360108	-0.3957727752	 0.5147580907	 0.098313
H	-0.0587169289	-1.5053790235	-1.5145262786	 0.106786
H	 0.3575233107	 0.1904257182	-3.2314483304	 0.108133
H	 1.3489827349	 1.1629521772	-2.1434311776	 0.09441
H	 2.8740038872	-0.5597116662	-2.2446557824	 0.293989
H	 2.8391249731	 0.1131548014	 0.8617134081	 0.293396
H	 1.4554377957	-3.8802798617	 1.9528733089	 0.197514
