18
gdb 32704	4.0963	1.0507	0.89774	2.4312	85.56	-0.2096	-0.0355	0.174	1315.0117	0.150014	-398.169281	-398.161076	-398.160132	-398.202527	30.745	
C	 0.1674486179	 1.4380558264	 0.1274946939	-0.367854
C	-0.1590002054	-0.0300808007	-0.1875608515	-0.157862
N	 0.5837566837	-0.5277567434	-1.329600412	-0.320824
C	 1.7521153378	-1.0263135025	-1.172769855	 0.393487
N	 2.4342352697	-1.1634013783	 0.0614682908	-0.36414
C	 3.6688261525	-1.7261733116	 0.175712057	 0.109999
N	 4.3684068576	-2.1845640538	-0.8062376043	-0.287717
C	 3.7714729902	-2.07310759	-2.0530749476	-0.002952
C	 2.5491967568	-1.5375418263	-2.2706866155	-0.158371
H	 1.2148840345	 1.5642389771	 0.4230872882	 0.105816
H	-0.0008688853	 2.0563747517	-0.7584196564	 0.134845
H	-0.4638085128	 1.8134717041	 0.9395632204	 0.111429
H	-0.0243240048	-0.6434440083	 0.7240414308	 0.066333
H	-1.2250040451	-0.1070559728	-0.4293959899	 0.108856
H	 1.9773470939	-0.8357460967	 0.898134993	 0.2651
H	 4.0637117009	-1.7716250202	 1.1886302744	 0.130284
H	 4.3638714414	-2.4568741752	-2.8779597036	 0.115926
H	 2.1150036067	-1.4722891895	-3.2599277826	 0.117645
