20
gdb 119656	3.86001	1.02435	0.93647	0.9405	79.28	-0.2348	0.0621	0.2969	1340.661	0.170197	-403.039843	-403.031444	-403.0305	-403.07344	32.076	
C	-0.1025990295	 1.5215507869	-0.0038071257	-0.384376
C	-0.0002547748	-0.0051821238	 0.0126982052	-0.164928
C	 0.7044405502	-0.5650500515	-1.2313930974	-0.350803
C	 0.7561725417	-2.0579117004	-1.2516187074	 0.526092
O	-0.4892902776	-2.8327203072	-1.2583097487	-0.361933
C	 0.5435362157	-3.8557396811	-1.2732481739	 0.070978
C	 1.513930193	-3.0494859335	-2.1944201645	-0.138977
N	 2.6913185613	-3.112990361	-1.2674997473	-0.350282
C	 1.5177866415	-3.0759852646	-0.3348801494	-0.122396
H	 0.8888488791	 1.9863601142	-0.0463676365	 0.114519
H	-0.6684804057	 1.8705949895	-0.8746567956	 0.115852
H	-0.6074499827	 1.8950167601	 0.8923773179	 0.112935
H	 0.5426665426	-0.3301982414	 0.9090048268	 0.098403
H	-0.9997974258	-0.4485092901	 0.0817792507	 0.119784
H	 0.1904378002	-0.2218651096	-2.1387100279	 0.109763
H	 1.7364482893	-0.196779124	-1.2899179388	 0.122464
H	 0.2454225775	-4.9051332254	-1.2869431592	 0.092925
H	 1.5930285127	-3.0371191955	-3.2822199941	 0.088581
H	 3.1000414865	-4.0507111277	-1.2818025883	 0.212152
H	 1.6016858648	-3.097618754	 0.7522568241	 0.089246
