18
gdb 61422	2.58014	1.14288	0.92785	3.8703	69.66	-0.2314	0.0276	0.259	1294.6564	0.147724	-472.488055	-472.47816	-472.477216	-472.523062	36.345	
C	-0.5367091545	 1.9981995506	 0.7303036076	-0.405077
C	-0.0569903495	 0.6419437412	 0.2289154081	-0.051095
N	 0.8674496546	 0.0439615914	 1.1951262347	-0.337388
C	 1.7930325878	-0.8934407729	 0.8189306476	 0.46519
N	 2.542140368	-1.4134589095	 1.859761612	-0.559466
O	 1.9425527231	-1.2655599509	-0.3399737815	-0.410315
C	-1.2535668523	-0.3067737362	-0.0403948475	 0.383694
N	-0.9344807525	-1.3659620617	-0.8292278414	-0.52146
O	-2.3622501753	-0.1038715263	 0.4195026551	-0.369357
H	 0.3152961623	 2.6479325229	 0.9469585271	 0.111749
H	-1.1661532628	 2.4768571932	-0.0230214486	 0.136477
H	-1.1479479533	 1.8810026906	 1.6294294064	 0.134336
H	 0.5118147006	 0.7513618595	-0.6984148592	 0.120713
H	 0.5914972172	 0.0811979917	 2.1647081712	 0.248455
H	 2.7305191791	-0.8208148576	 2.65381441	 0.253452
H	 3.3341992603	-1.9504271074	 1.5416227949	 0.265381
H	 0.0414632355	-1.5669001288	-1.0172222747	 0.282546
H	-1.6243343183	-2.0929477696	-0.9351570718	 0.252165
