18
gdb 10685	2.83433	1.82622	1.33919	1.6644	73.67	-0.2606	0.0267	0.2873	982.4492	0.150813	-347.752626	-347.743748	-347.742804	-347.785664	33.202	
C	 0.4524729659	 1.5560864135	-0.15214998	-0.390833
C	 0.0183372951	 0.0937743414	 0.0442677413	-0.048918
C	 0.2570695584	-0.7243230528	-1.2299086591	-0.416139
C	 0.7255389117	-0.486256176	 1.2748288556	 0.195339
C	 1.2791701788	-1.8571309557	 1.3245132842	-0.222908
O	 2.138076523	-0.7389409346	 1.1230643189	-0.267296
C	 0.3523988846	 0.1245856705	 2.5338942558	 0.29671
C	 0.008585603	 0.6378385861	 3.5652612399	-0.402179
H	 1.5227476552	 1.6085385883	-0.3765014217	 0.130457
H	-0.0938309824	 2.0092724739	-0.9845758712	 0.110599
H	 0.2643297176	 2.1514446635	 0.7452514758	 0.128378
H	-1.0549308831	 0.081280717	 0.2744495366	 0.086606
H	 1.3285539742	-0.8398555613	-1.4205019995	 0.136178
H	-0.1956769837	-1.7184750929	-1.1723046922	 0.113313
H	-0.1842811882	-0.2117685962	-2.0895973338	 0.113836
H	 1.3707332465	-2.3486795073	 2.2914863217	 0.12173
H	 1.1619017278	-2.5193663992	 0.470469294	 0.118421
H	-0.2825899844	 1.0883677819	 4.4818439539	 0.196706
