19
gdb 94224	3.40569	1.07241	0.97837	1.933	77.15	-0.2474	0.0326	0.2801	1270.5018	0.156055	-422.97633	-422.966615	-422.965671	-423.011071	35.947	
C	-0.2108582252	 1.490813929	 0.0438480027	-0.397422
C	 0.0665670724	 0.0007764999	 0.0028145806	 0.102083
O	 1.1768041827	-0.3431307401	-0.8650718277	-0.293814
C	 1.9971654629	-0.7522845023	 0.2476949486	-0.12338
C	 0.7988930315	-0.6231801405	 1.2205545756	 0.336349
O	 0.9411099435	 0.2621069859	 2.2993879276	-0.473176
C	 0.1992869215	-1.968039281	 1.6746455425	-0.40723
C	 1.0171721178	-2.5875453329	 2.7112003993	 0.253472
C	 1.7282601441	-3.0227202544	 3.5787061827	-0.418002
H	 0.6665348479	 2.0464439559	 0.3812271231	 0.131733
H	-0.4874623457	 1.8372290868	-0.9565655457	 0.121212
H	-1.0372025985	 1.7073287589	 0.7281282609	 0.120457
H	-0.8371337443	-0.5464286488	-0.3001442779	 0.071633
H	 2.4242762311	-1.7519062902	 0.1063256896	 0.101616
H	 2.7993716092	-0.0350760919	 0.4605860548	 0.101931
H	 1.3572746665	-0.2231181718	 3.0236358513	 0.285696
H	-0.8129196883	-1.7876310822	 2.0580737967	 0.139155
H	 0.1038173169	-2.635762822	 0.8107798736	 0.143447
H	 2.3404702238	-3.4442300282	 4.3375564419	 0.204239
