17
gdb 71502	2.99356	1.61962	1.42626	4.4007	71.91	-0.2622	0.0036	0.2658	965.8042	0.137185	-421.829194	-421.822195	-421.821251	-421.860419	28.023	
C	 0.008864176	 1.5126746895	-0.0316772657	-0.523424
C	 0.0216028917	 0.0099088898	-0.0405755731	 0.309954
C	 0.5920041178	-0.9574954184	-1.1095466644	-0.302914
C	 0.0178482878	-1.8954869227	-0.0252757339	-0.078961
C	 0.5721442754	-0.9445089172	 1.0640468059	 0.087573
O	-0.3086882109	-0.9282809468	 2.1965471006	-0.251857
C	-1.5527683452	-0.9340740418	 1.6035042924	 0.445472
O	-2.5836276058	-0.9202027482	 2.2054726215	-0.345826
C	-1.2278108142	-0.9518383232	 0.1274385903	-0.235935
H	 1.0262127841	 1.9091008453	-0.1178397939	 0.127748
H	-0.577788072	 1.907732668	-0.8673453647	 0.129881
H	-0.4257050474	 1.8939217699	 0.8983165686	 0.140936
H	 0.0816425524	-0.9655720879	-2.0752865766	 0.107759
H	 1.6788293442	-0.9586204482	-1.2410332171	 0.099162
H	 0.0031090524	-2.9848004366	-0.0036716249	 0.093805
H	 1.6126617189	-0.945384173	 1.3824405104	 0.100716
H	-2.0464543554	-0.9572082485	-0.5881213354	 0.095908
