19
gdb 87792	4.13758	1.0288	0.96354	1.407	77.19	-0.2149	0.0671	0.282	1284.7372	0.157274	-422.966313	-422.957743	-422.956798	-422.999641	33.377	
O	 0.1032321288	 1.4032418899	 0.4086303131	-0.420888
C	 0.0702483329	 0.0245362538	 0.1855702011	 0.014694
C	-0.6382373145	-0.8951922181	 1.176402532	-0.403043
C	-1.2561812757	-0.5581896211	-0.1459275203	 0.437671
C	-2.549178277	 0.1769466568	-0.4704408958	-0.431446
C	-2.6562246049	-0.8688685025	-1.5783205155	 0.448832
C	-3.8272546185	-1.6424558994	-2.0776207998	-0.333828
C	-3.0387374762	-0.7281748424	-3.0117070176	-0.329831
O	-1.4375951482	-1.5207202223	-1.1858898514	-0.326657
H	 0.7115557017	 1.5745724209	 1.1354934306	 0.289227
H	 0.9313853414	-0.3949894172	-0.3355599716	 0.096301
H	-0.2323394803	-1.8925238382	 1.3107584958	 0.123448
H	-1.0786353415	-0.4449296324	 2.0609942772	 0.116027
H	-3.3245097422	 0.1233823349	 0.2970804831	 0.111853
H	-2.4181978586	 1.2102776026	-0.7959395082	 0.12918
H	-3.6951698515	-2.7119887716	-2.2013478435	 0.124694
H	-4.8219276857	-1.3388833535	-1.7667058031	 0.113767
H	-3.4936429256	 0.2008545799	-3.3402504811	 0.115008
H	-2.3937419646	-1.2031264601	-3.7431331649	 0.12499
