19
gdb 92068	3.00432	1.49123	1.0725	4.1719	76.3	-0.2354	0.0265	0.2619	1128.9465	0.161031	-419.21182	-419.203581	-419.202637	-419.244711	31.098	
C	-0.0348728506	 1.4349360814	 0.0214884153	-0.345366
N	 0.0242072731	-0.0107231366	 0.1346830442	-0.081952
C	-1.2187087242	-0.7774090571	 0.0887181381	-0.207677
C	-1.120650431	-1.982294326	 1.0088025011	-0.00329
C	-1.0547523507	-3.3572973273	 0.4478778458	-0.250271
N	 0.1472729685	-2.7164506062	 0.9762891442	-0.081581
C	 1.1276867916	-2.184017063	 0.0210645262	-0.284176
C	 1.2271611036	-0.6566406752	 0.0302406635	 0.409572
O	 2.2975324184	-0.0844831524	-0.0765466748	-0.387175
H	 0.9827723497	 1.8176278427	 0.0919673229	 0.170879
H	-0.4655107911	 1.7468298306	-0.9394243747	 0.121154
H	-0.645679367	 1.8571468614	 0.8273748363	 0.121778
H	-2.0326118634	-0.1230103593	 0.4126880762	 0.120107
H	-1.4509671597	-1.0838799566	-0.9417954512	 0.111411
H	-1.5177821649	-1.8321803439	 2.0102916141	 0.100434
H	-1.4212105077	-4.2055512732	 1.018923003	 0.122355
H	-1.149129691	-3.4613820736	-0.6327824233	 0.110472
H	 2.1202665186	-2.5662638087	 0.2655713726	 0.140269
H	 0.9042235279	-2.4891322068	-1.0141194894	 0.113057
