21
gdb 59391	2.87099	0.9898	0.94076	1.073	86.59	-0.2385	0.0353	0.2738	1397.5815	0.178747	-387.047099	-387.036614	-387.03567	-387.082187	39.421	
C	 0.1736693404	 1.3912248168	 0.2593887823	-0.391573
C	-0.1459548182	-0.0834353648	-0.0256749689	 0.028214
C	-1.6575124446	-0.3172618802	-0.160806117	-0.394039
C	 0.5838028939	-0.5518690156	-1.2736709813	-0.026929
C	 2.020172804	-1.0096333421	-1.2199896418	-0.363923
C	 0.9062456489	-2.0172037101	-1.4770973883	 0.187035
O	 0.5297749932	-2.8581218042	-0.416169853	-0.450767
C	 0.7825579794	-2.5997806284	-2.7885329985	 0.295731
C	 0.6957445368	-3.1145470044	-3.872671659	-0.466037
H	 1.2504272325	 1.5521172577	 0.3738233811	 0.112055
H	-0.1750499565	 2.0343571421	-0.5574365561	 0.110318
H	-0.3191541963	 1.7264930641	 1.1779283044	 0.110059
H	 0.2138601964	-0.6855938993	 0.8156797709	 0.086483
H	-2.0670672898	 0.240210194	-1.0118647156	 0.107384
H	-1.8743872102	-1.3779788126	-0.3128201805	 0.13223
H	-2.1868052283	 0.0155876674	 0.738265407	 0.1062
H	 0.290368339	-0.0318038015	-2.1826625512	 0.096412
H	 2.6924093645	-0.7624132772	-2.0334162125	 0.120512
H	 2.4799138478	-1.0781204266	-0.2390897683	 0.117548
H	 1.109522678	-3.6277234695	-0.4333885228	 0.288
H	 0.6057002294	-3.5621888655	-4.8312836607	 0.195088
