19
gdb 115575	1.94451	1.57089	1.14115	1.6968	72.3	-0.2466	-0.0345	0.2121	1159.91	0.155548	-460.141827	-460.13181	-460.130866	-460.178313	34.739	
C	-0.6766198176	 1.2285734311	 0.5158837885	-0.255361
O	-0.2767022456	 0.1519938254	-0.3182932726	-0.229691
C	-1.2561343164	-0.8217389361	-0.4721289663	 0.043636
C	-0.9227458629	-1.9089009481	-1.5004887434	-0.115125
O	-1.1814458723	-2.9601744788	-0.5457802579	-0.324721
C	-1.2888866636	-2.0234439332	 0.553377072	 0.292785
C	-0.1147759087	-2.1041164099	 1.5170840969	-0.443903
C	-2.6191470019	-2.1754732872	 1.2630864498	 0.096267
O	-2.9531783988	-1.4958721287	 2.2011538146	-0.258582
H	 0.1791268889	 1.9007835753	 0.6019925172	 0.133756
H	-1.5228262238	 1.7755523466	 0.0751867009	 0.116278
H	-0.970221875	 0.8817097536	 1.514935534	 0.133423
H	-2.2458555115	-0.3659979158	-0.6123302512	 0.084727
H	-1.5718824452	-1.9790022842	-2.3791410059	 0.111853
H	 0.1269245774	-1.8813786201	-1.8163708491	 0.116547
H	 0.8042851539	-1.7686212681	 1.0329771531	 0.133394
H	-0.3058779732	-1.4799163458	 2.3939619004	 0.140106
H	 0.0135873946	-3.1391532749	 1.8474696324	 0.130803
H	-3.2824219782	-2.9513865712	 0.8198127567	 0.093805
