11
gdb 21476	8.45004	1.23097	1.07445	1.2087	55.7	-0.2834	-0.059	0.2244	988.5115	0.072037	-430.662493	-430.65584	-430.654896	-430.695118	22.478	
N	-0.1215090496	 1.3016416409	 0.0113686986	-0.412564
C	-0.0033699435	 0.0533604698	 0.002776439	 0.108899
O	-1.1640982263	-0.691442739	 0.0088221404	-0.21716
C	-1.0724044091	-2.0302973975	 0.0014687182	 0.437441
N	 0.0282636662	-2.731464497	-0.0100881035	-0.17516
O	-0.3916807926	-4.0402642515	-0.0135369089	-0.157186
N	-1.752814393	-4.1304942157	-0.003918185	-0.042973
C	-2.1946947181	-2.9065882316	 0.0053258248	-0.115966
H	 0.7969715095	 1.7416461032	 0.0056557017	 0.248926
H	 0.9007752628	-0.5565925694	-0.0089826127	 0.158077
H	-3.2470158463	-2.6733697021	 0.0142105275	 0.167666
