18
gdb 96710	3.00079	0.99076	0.7829	2.8863	82.87	-0.2403	-0.0378	0.2025	1459.7844	0.146708	-398.123206	-398.113535	-398.11259	-398.15843	34.223	
C	 0.2995788633	 1.3215885901	-0.2577239967	-0.341604
N	 0.1081588223	-0.1013920474	-0.0879921937	-0.284192
C	 0.483243752	-0.6922947476	 0.9744388657	 0.311775
N	 0.3820497809	-2.0560179794	 1.1450755932	-0.349432
C	-0.3301523427	-2.8560933915	 0.1933437087	 0.063812
C	 0.4211906349	-3.4245420559	-0.9806225987	-0.239808
C	-0.0092912061	-4.3238487373	 0.1522708496	-0.300168
C	 1.0862613262	-0.0215751998	 2.1244674641	 0.223267
N	 1.5491687105	 0.5268495551	 3.031210888	-0.332226
H	 0.7534229811	 1.8315693693	 0.6034907416	 0.128321
H	 0.9313173705	 1.4982911852	-1.1363071168	 0.133525
H	-0.668805135	 1.7899789275	-0.4680860049	 0.133159
H	 0.3983640752	-2.3820734128	 2.0996016676	 0.25838
H	-1.358356518	-2.5502770571	 0.0133823326	 0.105713
H	-0.1009311325	-3.4894606519	-1.9278716749	 0.12245
H	 1.4741933829	-3.1813056445	-1.0534252789	 0.125085
H	 0.7623057069	-4.6862814001	 0.8230579696	 0.119214
H	-0.8279022324	-5.0158737317	-0.0074874162	 0.12273
