15
gdb 132057	2.31826	1.86977	1.03603	4.9993	76.02	-0.1811	-0.0123	0.1688	1067.9471	0.114248	-458.128201	-458.120451	-458.119507	-458.160095	30.516	
N	-0.0042842139	 1.3993162211	 0.154869466	-0.588777
C	 0.0191310236	 0.0165821853	 0.05531343	 0.220488
C	-1.1366193658	-0.709315849	 0.0381252172	 0.148309
F	-2.3069998902	-0.0527424847	 0.0515778586	-0.082462
C	-1.2000102485	-2.1508377742	 0.0013991043	 0.291692
N	-2.3107677386	-2.7972528978	-0.0146075756	-0.56857
N	 0.0847989417	-2.7319623182	-0.0236211681	-0.39853
C	 1.2612638257	-2.0363993006	-0.0139660169	 0.035469
C	 1.2747137418	-0.6855422768	 0.0257836757	-0.241177
H	 0.763987954	 1.8763507792	-0.292744451	 0.251627
H	-0.9000908054	 1.8126505912	-0.0604964742	 0.261079
H	-2.154942424	-3.8050396502	-0.0496360763	 0.18927
H	 0.1134364733	-3.739040799	-0.0522092201	 0.25095
H	 2.1625069874	-2.6358011193	-0.0364567949	 0.129558
H	 2.208797769	-0.1407512669	 0.0503606752	 0.101074
