20
gdb 97135	3.92606	1.10455	1.00077	2.8976	83.52	-0.2369	0.0314	0.2683	1280.1159	0.170938	-403.16133	-403.152389	-403.151445	-403.195005	33.392	
C	-0.170959405	 1.4005871696	 0.0917351556	-0.328255
N	-0.1778512112	-0.0522547588	 0.1445881121	-0.340953
C	 0.5992956235	-0.6452841839	 0.9383828988	 0.459183
O	 1.4535458386	-0.0200973546	 1.8255674483	-0.263797
C	 2.4569275932	-0.936496088	 2.2862289391	-0.143054
C	 1.9607513673	-2.3397726405	 1.9628288365	 0.315448
C	 2.981777959	-3.4262015423	 1.7367288148	-0.488114
C	 0.5914858174	-2.6417822249	 2.4963653769	-0.330645
C	 0.7504148748	-2.1146209827	 1.0787655056	-0.186972
H	 0.7410776649	 1.8566481603	 0.4947918938	 0.117736
H	-0.3029660947	 1.7185522903	-0.9475278049	 0.117547
H	-1.0247924007	 1.7955810478	 0.6568214193	 0.122664
H	 3.4004307746	-0.7280514672	 1.7639067114	 0.107775
H	 2.6052665858	-0.7591997081	 3.3568453194	 0.11493
H	 3.5507461836	-3.6319040773	 2.6509960092	 0.124558
H	 2.5001096369	-4.3602707549	 1.4330276138	 0.125362
H	 3.6955973177	-3.1456539314	 0.9541804047	 0.124108
H	 0.3151536347	-3.6864260158	 2.588867323	 0.118075
H	 0.1500441172	-1.9874682094	 3.2418564723	 0.124629
H	 0.4934627422	-2.740362828	 0.2351122704	 0.109775
