20
gdb 109411	1.92726	1.71146	1.19639	3.9212	80.15	-0.2276	0.0208	0.2483	1152.1381	0.169826	-403.153143	-403.143848	-403.142904	-403.187409	34.448	
C	 0.2812271339	 1.5508450769	-0.1083874652	-0.386001
C	-0.0422724163	 0.0521091954	-0.1149508645	-0.165775
N	 0.6333885486	-0.7191103615	-1.1409100864	-0.133168
C	 0.2450398478	-0.940412122	-2.4600181362	 0.42226
O	-0.8378410152	-0.9473605457	-2.9817040484	-0.374436
C	 1.6964331064	-1.1221035664	-2.9007458264	-0.28648
C	 2.4621759087	 0.1453973493	-2.5129663018	-0.3252
C	 2.0693583033	-0.8465763783	-1.4540486631	 0.366604
C	 2.9940904918	-1.5806829587	-0.5323354988	-0.485254
H	 1.3495197574	 1.7285879941	 0.0498615113	 0.121631
H	-0.008890743	 2.0188736663	-1.053953058	 0.131471
H	-0.264206001	 2.0495700826	 0.6991556985	 0.119479
H	 0.1901474673	-0.3839304747	 0.8643452638	 0.108519
H	-1.1121700786	-0.1031531947	-0.2864263112	 0.139161
H	 2.0912227466	-1.8635591393	-3.5805166445	 0.114591
H	 3.508850206	 0.1478058287	-2.8075889508	 0.120185
H	 1.975206304	 1.1133314513	-2.5777176773	 0.123376
H	 3.185136828	-1.0065972397	 0.3818226363	 0.127126
H	 2.5682712246	-2.5466200912	-0.2430111667	 0.13311
H	 3.9589325297	-1.7560518525	-1.0166874206	 0.128802
