20
gdb 61449	3.20774	0.85549	0.77396	2.6995	75.73	-0.2477	0.0309	0.2786	1523.9857	0.168963	-440.302899	-440.292676	-440.291732	-440.339242	36.461	
C	-0.1828043768	 1.804801553	-0.1892935653	-0.410654
C	 0.0268225597	 0.289172291	-0.0718381144	 0.007544
C	-1.2971751963	-0.4759774482	 0.0708737302	-0.3236
C	-1.9915792444	-0.2294715142	 1.4097948711	 0.407683
N	-3.2985468602	-0.6290027008	 1.4533004324	-0.522422
O	-1.4389058826	 0.2785414082	 2.3669792569	-0.358012
C	 0.7956070217	-0.2373792621	-1.2647791191	 0.086168
C	 2.238677729	-0.4994517658	-1.2182910584	-0.183213
O	 1.2962764845	-1.5741280089	-1.1677199424	-0.247945
H	 0.774728188	 2.3275553438	-0.2796753947	 0.114386
H	-0.7833018555	 2.0551241752	-1.0724718411	 0.105918
H	-0.696018229	 2.1847302284	 0.6962528075	 0.145241
H	 0.61288263	 0.0853398577	 0.8304166808	 0.102096
H	-1.9827873048	-0.229377496	-0.7506688449	 0.104248
H	-1.0957578015	-1.5525670902	-0.0033829574	 0.142742
H	-3.7103516619	-1.1693716569	 0.7123541336	 0.25724
H	-3.764110268	-0.6114908511	 2.3463388968	 0.259462
H	 0.358008479	-0.0059856428	-2.2397352714	 0.084352
H	 2.83503489	-0.4435559714	-2.1280431929	 0.112819
H	 2.784210789	-0.3150755191	-0.2935527473	 0.115946
