16
gdb 98372	2.30945	1.29758	0.86089	1.6126	73.7	-0.2551	-0.0534	0.2017	1300.8844	0.120677	-437.886016	-437.875941	-437.874997	-437.922022	34.399	
C	 0.2073738374	 1.3251753638	 0.0753491471	-0.333682
N	-0.0185028211	-0.1082872947	 0.0337394473	-0.316193
C	-1.2655401175	-0.6339917237	-0.025591021	 0.422833
O	-2.2924152886	-0.0001671981	-0.1275075973	-0.350518
C	-1.2733107158	-2.206728025	-0.0289782948	-0.432881
C	-0.4310479289	-2.8026728692	 1.107741451	 0.150539
O	 0.7392779032	-2.5580688907	 1.2652450657	-0.255531
C	-2.6178749307	-2.7541139967	-0.0309882562	 0.351806
C	-3.7028874591	-3.2657027255	 0.0124614392	-0.427657
H	 1.0289088916	 1.5989540387	-0.5930913209	 0.129921
H	-0.7071444878	 1.8192507961	-0.2535336528	 0.16905
H	 0.4485826228	 1.669945311	 1.0878865135	 0.132053
H	 0.7401542588	-0.7372255174	 0.2603047679	 0.266376
H	-0.7496832196	-2.4891351944	-0.9539725329	 0.164199
H	-0.9789033944	-3.4891951317	 1.7820484467	 0.124908
H	-4.6756445702	-3.6916462325	 0.0337141977	 0.204777
