18
gdb 73396	2.72048	2.11349	1.55719	2.1524	74.78	-0.2166	0.0095	0.226	894.6658	0.149679	-401.900231	-401.893368	-401.892424	-401.930898	28.929	
O	-0.0267844161	 1.4191781542	 0.0620089203	-0.483923
C	 0.0109629713	 0.0337869686	 0.0108962636	 0.439833
C	 0.9407743768	-0.7063909353	 0.9677599072	-0.322989
C	 0.5289888344	-2.1457897686	 0.556271568	-0.164487
N	-0.4960907423	-1.9312602728	-0.4972555656	-0.117362
C	-1.3392873149	-0.7690906953	 0.0486886054	-0.100171
C	-2.0777820263	-0.3118364519	-1.195625703	-0.076495
C	-1.1218919199	-0.3329192909	-2.1261707312	-0.075099
C	 0.0905021106	-0.7980753929	-1.3469264385	-0.13205
H	 0.8577315206	 1.7465830173	 0.2529351726	 0.284584
H	 1.99699955	-0.4826483585	 0.7778359737	 0.093275
H	 0.7262143503	-0.4678822312	 2.0140503422	 0.106358
H	 1.3552828391	-2.7313962016	 0.1437052358	 0.106017
H	 0.0896444295	-2.7161184193	 1.3792387982	 0.107635
H	-1.8834806047	-0.9421019356	 0.9788559653	 0.063636
H	-3.1232606718	-0.051418623	-1.2616771195	 0.106852
H	-1.1568929961	-0.091012495	-3.1777668426	 0.105381
H	 1.0325929095	-1.0014374482	-1.8599266817	 0.059008
