23
gdb 60124	2.74996	0.95411	0.84074	1.905	81.96	-0.2286	0.0525	0.2812	1498.9504	0.203411	-425.406414	-425.395707	-425.394763	-425.442563	39.694	
C	 0.0232781222	 1.5274025224	-0.0186684351	-0.389892
C	 0.0123606141	-0.0046065648	 0.0665354979	 0.037986
C	 0.5946620575	-0.4817448671	 1.4039368447	-0.371303
C	-1.4106667379	-0.5421913326	-0.1802282653	-0.186787
C	-1.5011154514	-2.0551086336	-0.2424978056	-0.100804
C	-1.9302869167	-2.8932067576	 0.9423412671	 0.023946
O	-2.3359306118	-2.1782512148	 2.0866904743	-0.423737
C	-2.8445788328	-2.7646746568	-0.2529415731	 0.073117
O	-4.0230744414	-2.0350125168	-0.0882555224	-0.431952
H	 1.0367621107	 1.9242590831	 0.1020201631	 0.106616
H	-0.3627828047	 1.8781149584	-0.9817754156	 0.108018
H	-0.6003410674	 1.967022933	 0.7691513171	 0.111198
H	 0.6568050813	-0.3888795381	-0.7383700878	 0.065454
H	 0.6750329287	-1.57162997	 1.4451224791	 0.112351
H	 1.5949654478	-0.0653491703	 1.5640880507	 0.101924
H	-0.0402267674	-0.1687089679	 2.2402927363	 0.117604
H	-2.0751116626	-0.1591951895	 0.6010919792	 0.100109
H	-1.785824631	-0.1333431918	-1.1271289529	 0.097871
H	-0.7359246751	-2.5231375321	-0.8592416014	 0.084091
H	-1.4069669677	-3.8242871487	 1.1508753809	 0.088181
H	-2.8583204502	-2.7752558556	 2.6339358552	 0.296215
H	-2.9884033582	-3.609890224	-0.9192767714	 0.097167
H	-3.983924246	-1.6642907448	 0.804158285	 0.282628
