20
gdb 107836	3.2319	1.43027	1.23577	2.3367	77.24	-0.2205	0.0673	0.2878	1071.274	0.172969	-403.10589	-403.098116	-403.097172	-403.137994	31.054	
O	-0.0764630851	 1.4134355618	 0.1333863413	-0.424963
C	-0.0162619943	 0.006936351	-0.0665508508	-0.192882
C	-1.4280895983	-0.5232796502	-0.0241228732	 0.334973
C	-2.1649433148	-0.5163062297	 1.3410008805	-0.187799
N	-2.5830204108	-1.9523844555	 1.1904176835	-0.155203
C	-3.1239518583	-2.1179607101	-0.1940325739	-0.011351
C	-3.6362937392	-0.9005356794	-0.9565003014	-0.256278
C	-2.3811183528	-0.0009042769	-1.1116178984	-0.245471
C	-1.6632794251	-2.0590609624	 0.0017918349	-0.119901
H	 0.8212400429	 1.7578369358	 0.1328822219	 0.289792
H	 0.4432174763	-0.2384804713	-1.0392333365	 0.084
H	 0.5884317966	-0.480575738	 0.7152398057	 0.087259
H	-1.4871577611	-0.4438937885	 2.1951988585	 0.106976
H	-2.9845915143	 0.1979247225	 1.4760704606	 0.097456
H	-3.6230187245	-3.0742133437	-0.3110481687	 0.092994
H	-4.0487267699	-1.2023448202	-1.9237938324	 0.102834
H	-4.4440757345	-0.3981718448	-0.4131077729	 0.108605
H	-2.5935112852	 1.0638944426	-0.9859545618	 0.112625
H	-1.928497255	-0.1384665323	-2.1012293524	 0.091702
H	-0.9438763626	-2.8612898906	-0.1220523448	 0.084631
