21
gdb 92981	3.09816	1.19182	0.97723	1.3678	84.05	-0.245	0.0179	0.263	1275.6669	0.183443	-387.083878	-387.075347	-387.074403	-387.117229	33.459	
O	 0.0378647246	 1.4609699313	 0.0392192033	-0.429689
C	-0.0599868825	 0.0430307041	 0.0085325187	 0.110733
C	 0.6581379976	-0.5875213777	 1.2267167841	-0.28134
C	-0.4608588058	-0.7104722543	 2.2381281728	-0.09255
C	-1.6557252163	-0.6335968647	 1.6506783979	-0.079586
C	-1.5348316722	-0.4494673536	 0.1480440247	-0.068682
C	-2.5727620485	 0.4457398807	-0.4916764761	 0.044702
C	-2.9607659677	 0.2535324925	-1.935077855	-0.271179
C	-3.934289689	-0.1048629505	-0.838767822	-0.282409
H	-0.2810722974	 1.7492348554	 0.9027019449	 0.278613
H	 0.3817989751	-0.2499355765	-0.9468063471	 0.081881
H	 1.0729012746	-1.5756329597	 0.9811223126	 0.107222
H	 1.4963247826	 0.0384626862	 1.5506765252	 0.106952
H	-0.2884252845	-0.8804999035	 3.2952068106	 0.092985
H	-2.6146769129	-0.7241836282	 2.1490791107	 0.094768
H	-1.6093535244	-1.4402524938	-0.3296733201	 0.074412
H	-2.5485406933	 1.4742989444	-0.1472802256	 0.078196
H	-3.1596286735	 1.1334270585	-2.5362918101	 0.112159
H	-2.4940192694	-0.5595208093	-2.4820280663	 0.106853
H	-4.1198630064	-1.1581822831	-0.6527483621	 0.107019
H	-4.8016534806	 0.529090652	-0.6910381111	 0.108938
