18
gdb 40940	3.40595	1.3968	1.25229	3.3289	71.7	-0.2376	0.026	0.2636	1047.7856	0.149431	-439.076141	-439.068468	-439.067524	-439.108747	28.892	
C	 0.0059064865	 1.3429380007	-0.3546727422	-0.064102
C	 1.4568800331	 1.5192743484	 0.134633219	-0.353375
C	 1.2668732133	 0.1237048509	 0.7665549731	 0.368046
C	 2.1026536525	-0.9921317681	 0.1590084172	-0.104855
O	 1.7345877569	-2.2726357744	 0.6842659024	-0.224782
C	 1.3806731043	-2.2964448021	 1.9924027461	 0.142691
N	 1.2072505224	-1.3383791479	 2.7970680764	-0.274633
C	 1.3440735765	 0.0224766524	 2.2862519622	-0.194022
O	-0.1062322309	 0.0565385484	 0.2882048674	-0.318922
H	-0.7219328256	 2.0617014241	 0.0389058195	 0.109354
H	-0.1217008803	 1.2707521686	-1.4414674967	 0.10588
H	 2.2202861407	 1.5823069412	-0.6443512784	 0.111019
H	 1.6148774807	 2.3241519567	 0.8553574578	 0.116569
H	 1.9516224174	-1.0534012645	-0.9210325432	 0.120033
H	 3.1682405548	-0.8139510177	 0.3609308365	 0.109543
H	 1.2412291544	-3.3267642409	 2.3138971468	 0.125239
H	 2.2983446356	 0.4425571038	 2.6348580049	 0.109381
H	 0.5506065177	 0.6363908105	 2.7258418511	 0.116936
