16
gdb 64573	2.54247	1.54232	1.2875	3.8092	70.42	-0.2513	-0.0581	0.1932	1023.9008	0.121814	-437.861032	-437.852506	-437.851562	-437.894398	30.899	
C	-0.0985181859	 1.6805621356	-0.0945786113	-0.461035
C	 0.0275038037	 0.1676913038	-0.1063394401	 0.053111
C	-1.3303845318	-0.5095137584	 0.0803762487	 0.155515
O	-2.2616240246	 0.000781598	 0.6418325333	-0.244216
N	 0.6968858149	-0.5054056639	-1.293188371	-0.140371
C	 2.0801404613	-0.0541727816	-1.3179510771	-0.239118
C	 1.7305361655	-1.1478291297	-0.3633321699	-0.162581
C	 1.0506769173	-0.5622849146	 0.8335165497	 0.391014
O	 1.1130472595	-0.7373006788	 2.0130918529	-0.294299
H	 0.863318356	 2.1870612707	 0.0026375321	 0.122922
H	-0.5870518969	 2.0235012698	-1.0121374394	 0.140179
H	-0.7280877076	 1.9681275593	 0.750070354	 0.165682
H	-1.3808601751	-1.5330614184	-0.3459392128	 0.101336
H	 2.6160895963	-0.3596991524	-2.2115893277	 0.144496
H	 2.3465081069	 0.9298783797	-0.9463357874	 0.135042
H	 2.0923256405	-2.1633495691	-0.4754828141	 0.132324
