21
gdb 51644	3.37349	1.00088	0.93076	2.8355	81.99	-0.2478	-0.0203	0.2275	1337.4873	0.183328	-387.100474	-387.091881	-387.090937	-387.134598	32.5	
O	-0.5443122096	 1.3848581916	 1.0527595247	-0.242028
C	 0.1994461077	 1.2896846213	 0.1104783604	 0.164149
C	 1.3942454017	 2.1767540159	-0.153437103	-0.288687
C	 1.2859048855	 2.8800064945	-1.524621499	-0.005545
C	 0.1600196017	 3.9577561427	-1.5821154579	-0.239198
C	 0.8522513406	 5.3132372642	-1.5662357053	-0.017133
C	 1.836156798	 5.6024323599	-0.4592236938	-0.289605
C	 2.3328025816	 5.1044095195	-1.7941378853	-0.017812
C	 2.5945247715	 3.6142907596	-1.9523684145	-0.245949
H	 0.0359458898	 0.5056823789	-0.6681984244	 0.068754
H	 1.4916864711	 2.8804644738	 0.6768182282	 0.124239
H	 2.2832559655	 1.5294875461	-0.1599251363	 0.11461
H	 1.068180575	 2.093813399	-2.2567439017	 0.078285
H	-0.4065305072	 3.8573622779	-2.5144577165	 0.099735
H	-0.5578628647	 3.8375378123	-0.7627090622	 0.11459
H	 0.3308854242	 6.1533284264	-2.0119305204	 0.08132
H	 2.0185531824	 6.645792442	-0.2244212316	 0.110468
H	 1.8784257219	 4.9498598101	 0.4058746476	 0.112291
H	 2.9063758131	 5.787587038	-2.4110928609	 0.080586
H	 3.4593724805	 3.2690440995	-1.3740095195	 0.097328
H	 2.8138890198	 3.3998378067	-3.0043866886	 0.099602
