21
gdb 31658	2.75052	1.16853	0.87918	1.7965	88.62	-0.1725	0.0528	0.2253	1394.1505	0.182776	-383.305491	-383.295314	-383.29437	-383.340875	36.942	
C	-0.0415420743	 1.5050248014	 0.1679983272	-0.363734
C	-0.0201439521	-0.0254052792	-0.0040841762	-0.308846
C	 0.6909527998	-0.4899537517	-1.2416409865	 0.230523
C	 0.1234747063	-0.8582535233	-2.4442476149	-0.195011
N	 1.112849698	-1.1961921672	-3.3260180103	 0.022007
C	 0.9164438983	-1.7523708336	-4.6437470569	-0.331213
C	 2.3350028308	-1.051948462	-2.6980624211	-0.179653
C	 2.1058885631	-0.61670049	-1.4101883967	 0.131681
N	 3.0603771563	-0.4114932815	-0.3899833202	-0.609968
H	 0.9716127325	 1.920790301	 0.210649217	 0.105224
H	-0.5508314465	 1.9830255403	-0.674712772	 0.116084
H	-0.5579976787	 1.793898195	 1.0898079117	 0.105455
H	 0.4528477475	-0.4780582417	 0.8771884369	 0.105556
H	-1.052732933	-0.3934985879	-0.0177376629	 0.095644
H	-0.9146434699	-0.9135391489	-2.7353864634	 0.106752
H	 1.6408902605	-1.3287493239	-5.3464480855	 0.133076
H	 1.0250028059	-2.8444560416	-4.651238481	 0.131849
H	-0.0868216776	-1.5018187417	-4.9958857769	 0.135534
H	 3.25380883	-1.2792139662	-3.2155896256	 0.096865
H	 4.004215775	-0.3751064982	-0.7546172782	 0.233598
H	 2.8888220781	 0.440885111	 0.1299029155	 0.238578
