18
gdb 87926	3.58687	1.08302	1.00873	3.7866	72.27	-0.2566	0.0107	0.2672	1230.176	0.148165	-439.10913	-439.100856	-439.099912	-439.142357	31.081	
C	-0.1954282886	 1.5302582622	 0.1372795068	-0.400272
C	-0.0698388578	 0.0272921988	 0.1493608048	-0.048793
N	 1.2258231137	-0.5414232631	-0.2792782622	-0.385701
C	 0.7837824387	-0.7391990402	 1.0990268271	 0.301886
C	 1.6096372145	-0.1045421316	 2.2139606813	-0.133377
O	 1.1693162247	-0.7333293359	 3.4292833635	-0.218746
C	 0.4627113678	-1.869271396	 3.1795821765	 0.440961
O	 0.0229117853	-2.5553472515	 4.0537666972	-0.332259
C	 0.362041046	-2.0784450768	 1.6708423545	-0.468739
H	 0.7493538728	 2.0074882302	 0.4084180384	 0.129843
H	-0.4655675978	 1.8806767279	-0.8642017203	 0.128136
H	-0.9717882801	 1.8655836501	 0.8332934612	 0.124752
H	-0.9640755548	-0.5014960362	-0.1809309435	 0.089212
H	 1.0924425134	-1.3886868915	-0.8260413886	 0.234498
H	 2.678493156	-0.3017108326	 2.0732581876	 0.125357
H	 1.4613822037	 0.9715212516	 2.3207748296	 0.1274
H	-0.6418983847	-2.4083496409	 1.3983932087	 0.143324
H	 1.0638712871	-2.8771465145	 1.3963201274	 0.142518
