17
gdb 65957	2.27375	1.50458	1.40154	3.3574	72.95	-0.2586	0.0038	0.2623	1035.7316	0.135454	-417.975603	-417.96703	-417.966086	-418.008823	32.226	
O	-0.0066159232	 1.3021715517	-0.5485536141	-0.456082
C	-0.0080100302	-0.0124953857	-0.0455325493	 0.183602
C	 0.0603897696	-0.223991156	 1.5072102772	-0.284517
C	-1.1644882386	-1.1803723152	 1.4197213252	-0.302821
C	-1.4092997315	-0.6597393854	 0.0030943974	 0.33472
C	-2.607634486	-0.0218988272	-0.5820394231	-0.29491
N	-2.1264120093	-1.3323309441	-1.0609248509	-0.368574
C	 0.9661091046	-0.8419461366	-0.7740139082	 0.227434
N	 1.7430091762	-1.4699585329	-1.3564035051	-0.336175
H	 0.9042276091	 1.6078778506	-0.630728627	 0.296312
H	 0.9908114797	-0.6259774396	 1.9090144579	 0.122418
H	-0.1788232995	 0.7229467804	 1.9949528693	 0.126243
H	-0.8803336366	-2.2355871702	 1.4255828609	 0.129852
H	-1.9631662419	-1.0223118498	 2.1459593049	 0.117467
H	-3.5482189895	-0.0523237575	-0.0383217377	 0.123761
H	-2.4548062587	 0.8561746769	-1.201883526	 0.136802
H	-1.6343922541	-1.2385164597	-1.9473417014	 0.244468
