20
gdb 63419	3.04965	1.17602	1.08154	4.1141	84.35	-0.2649	-0.0016	0.2633	1216.8917	0.170999	-366.049515	-366.040507	-366.039563	-366.083095	34.41	
C	 0.0610169789	 1.6097763082	-0.0244381858	-0.432437
C	-0.043132611	 0.0769962813	 0.0242677232	 0.263369
C	-1.5258173623	-0.3427093899	 0.1193760444	-0.425999
C	 0.6615195775	-0.5863867341	-1.1972525344	-0.271069
C	 1.4213617403	-1.8331419024	-0.6453142672	-0.194972
C	 1.5129212559	-1.5339375231	 0.8447124855	-0.094406
C	 0.7354755299	-0.5118581118	 1.1858543218	-0.071496
C	 0.7216836678	-3.0991767746	-0.8968200019	 0.275163
N	 0.16618995	-4.0949460852	-1.0898001686	-0.335177
H	 1.1056305603	 1.9366461477	-0.0451045539	 0.115035
H	-0.4365888814	 2.00536465	-0.9167098771	 0.117884
H	-0.417481366	 2.0644601004	 0.8497955839	 0.115523
H	-2.0987877882	 0.0750318505	-0.7158635248	 0.115595
H	-1.6325265049	-1.4311654207	 0.0963944388	 0.137664
H	-1.9774570576	 0.0201571436	 1.0489304618	 0.114014
H	-0.035144178	-0.8449144555	-1.997263054	 0.120144
H	 1.4025371684	 0.1019468543	-1.6130652394	 0.108399
H	 2.4121434557	-1.9238687701	-1.1057940998	 0.125749
H	 2.1180436383	-2.1358907562	 1.5114775342	 0.114913
H	 0.6184693264	-0.1344098924	 2.1969418831	 0.102104
