11
gdb 2119	3.82303	3.66353	1.89373	4.0922	50.67	-0.2827	-0.0445	0.2383	615.5202	0.079912	-376.586976	-376.581189	-376.580245	-376.616933	20.369	
N	-0.0383513128	 1.2945544007	-0.1018778313	-0.49269
C	-0.0319590474	 0.0448980994	 0.0320137698	 0.345431
O	 1.0707260003	-0.7497017899	 0.2030584889	-0.237883
C	 0.6622514779	-2.1016895161	 0.3153142167	 0.022856
O	-0.7501447259	-2.1339824338	 0.208409434	-0.237883
C	-1.2215043015	-0.8594302431	 0.035528447	 0.345431
N	-2.4244195187	-0.5193945537	-0.0947876249	-0.492691
H	 0.9097063253	 1.6727180704	-0.068118023	 0.237323
H	 1.1066231739	-2.6893570293	-0.4960301651	 0.136389
H	 0.9670695427	-2.4988736723	 1.2902113592	 0.136394
H	-3.0422480838	-1.3316601723	-0.0563942713	 0.237323
