16
gdb 92410	2.39148	1.53641	1.31793	3.3503	69.32	-0.2737	0.005	0.2787	1018.487	0.124722	-437.856198	-437.848367	-437.847423	-437.888874	29.525	
O	 0.2235901812	 1.2602370973	-0.4242796997	-0.41223
C	 0.0925596199	-0.0624799309	 0.001396103	 0.07062
C	 0.2100987929	-0.3440077796	 1.5314019543	-0.278045
C	-1.2780208534	-0.6984578561	 1.5802214971	 0.069676
O	-2.1072876594	 0.4847162732	 1.6570917763	-0.30029
C	-2.4610967387	 0.4033404959	 0.2560055427	-0.136875
C	-1.3878902264	-0.6655705794	 0.0158464287	 0.138385
C	-1.656137657	-1.7936269163	-0.8326715995	 0.171285
N	-1.8530039472	-2.7074902609	-1.5147640974	-0.338693
H	-0.1489008039	 1.8369882403	 0.2524698977	 0.297434
H	 0.7615329684	-0.659759192	-0.6196995552	 0.12158
H	 0.8585742598	-1.1976912424	 1.7469517998	 0.125477
H	 0.5096896757	 0.5018838506	 2.1552589957	 0.119216
H	-1.640250627	-1.5153885697	 2.2075637839	 0.101721
H	-3.483720509	 0.0356117049	 0.1160180153	 0.127821
H	-2.3289873859	 1.351540645	-0.2738457627	 0.122918
