17
gdb 33716	6.21028	0.91763	0.91762	0.0004	89.8	-0.255	0.0295	0.2846	1289.9511	0.134573	-347.442187	-347.434014	-347.43307	-347.474573	32.491	
C	 0.0203030997	-1.1392686281	-0.0095071541	-0.355126
C	 0.0022414932	 0.0636428537	-0.0001236587	 0.061393
C	-0.0201984698	 1.4963573049	 0.0116830035	 0.223071
C	-0.6439066881	 2.4276075203	 1.1032266275	-0.283831
C	-0.0498419598	 3.3957539232	 0.0273670446	 0.223073
C	 1.2077723359	 2.4655692811	 0.0049750904	-0.283882
C	-0.6693607795	 2.4449841528	-1.049707531	-0.283841
C	-0.0721069381	 4.8284707664	 0.0391943161	 0.061394
C	-0.0906891414	 6.0313695627	 0.0491557684	-0.355128
H	 0.0368406794	-2.200886268	-0.0182418478	 0.176131
H	-1.7324361996	 2.4098893592	 1.1918876899	 0.106782
H	-0.1537732827	 2.427197324	 2.079370534	 0.106758
H	 1.8290059839	 2.4678454978	 0.9034001716	 0.106772
H	 1.8079723837	 2.4824667486	-0.9075156371	 0.106765
H	-0.2021875352	 2.460424891	-2.0369383967	 0.106761
H	-1.75968025	 2.4284944337	-1.1130679297	 0.106778
H	-0.1065734914	 7.0929933268	 0.0583158691	 0.17613
