20
gdb 109908	2.0723	1.74249	1.05141	4.0889	81.81	-0.2342	-0.0255	0.2087	1185.897	0.171061	-403.205893	-403.196707	-403.195762	-403.240144	33.958	
C	 0.0674960618	 1.5464841346	-0.2000074109	-0.376346
C	-0.0851105929	 0.0400305402	 0.0331926401	-0.151646
N	-1.4667364437	-0.4085896907	 0.0522621622	-0.080662
C	-2.2110590864	-0.7721928544	 1.245735053	-0.031863
C	-2.4526189007	 0.3967969749	 2.2131124118	-0.393677
C	-3.4868598762	-1.3315233207	 0.6633720715	-0.078538
C	-3.4503156755	-1.2948697383	-0.6681529209	-0.192581
C	-2.1419862707	-0.727400868	-1.1081572929	 0.393462
O	-1.7169669677	-0.572660658	-2.2378454171	-0.410555
H	 1.1272460297	 1.8204730265	-0.2274974874	 0.113048
H	-0.3831036485	 1.8198504329	-1.1572683271	 0.147793
H	-0.4161768465	 2.1281214143	 0.5905701625	 0.113204
H	 0.4235370415	-0.5005887304	-0.7722813421	 0.131689
H	 0.3836735946	-0.2559984053	 0.97823728	 0.099069
H	-1.6773787128	-1.5674716396	 1.7930712499	 0.097718
H	-2.9934771065	 1.204023755	 1.7115928159	 0.132414
H	-3.0416785896	 0.0604275696	 3.0723174544	 0.120898
H	-1.5059436093	 0.7928716659	 2.5916412517	 0.126841
H	-4.2932199959	-1.6842833235	 1.2940491257	 0.116254
H	-4.2030470046	-1.616631745	-1.3735733802	 0.123478
