16
gdb 51099	5.27116	0.90021	0.84454	3.6807	72.94	-0.2527	-0.0221	0.2306	1332.8444	0.122855	-437.863435	-437.855207	-437.854263	-437.897187	30.096	
N	-0.1483154341	 1.303890722	-0.047382101	-0.430607
C	-0.1423360569	 0.0592949044	-0.2332324724	 0.10416
O	-1.063436732	-0.7134688129	 0.4019081162	-0.226814
C	-0.9629877619	-2.0826490264	 0.2226390132	 0.4362
C	-1.144423092	-2.7609847831	-1.0863460501	-0.338442
C	-2.1527323455	-3.0425873058	 0.0389325773	-0.257178
C	-1.517721222	-3.9642723674	 1.0418141432	 0.438119
O	-1.8661972327	-4.9723971834	 1.5829558759	-0.304864
C	-0.2995009515	-3.0184382219	 1.2456854509	-0.430591
H	 0.5884920385	 1.7429844009	-0.5954745756	 0.23606
H	 0.5328661723	-0.5168532564	-0.877137325	 0.099014
H	-1.5694664452	-2.1504857758	-1.8768176378	 0.141123
H	-0.4579431239	-3.5314665615	-1.4255911199	 0.13188
H	-3.2062665627	-2.8417203066	-0.1070527572	 0.129023
H	 0.702006854	-3.3987703995	 1.0253989791	 0.121794
H	-0.3233895545	-2.6048003265	 2.2581258333	 0.151124
