19
gdb 81421	2.37143	2.01892	1.47603	1.9367	74.12	-0.2474	0.0626	0.31	958.3189	0.159736	-422.978715	-422.970927	-422.969983	-423.010435	31.387	
C	-0.0063572536	 1.4901119116	 0.0274324159	-0.492908
C	 0.0110702004	-0.0163667879	 0.0137487039	 0.356054
C	-0.8898794462	-0.855215489	 0.8884081188	-0.34743
C	 0.6064676063	-0.9111700614	 1.08777104	-0.08973
C	 1.3595606007	-1.902765316	 0.1811276149	-0.00704
O	 0.4094558923	-2.1703666258	-0.8916578915	-0.288279
C	 0.5868183604	-0.760240286	-1.2165969195	-0.037746
C	 2.0807935998	-0.9637443056	-0.8440242513	 0.128251
O	 2.8114649917	 0.1543701509	-0.4263500983	-0.423899
H	 0.9684213415	 1.8971064009	-0.2563639819	 0.137406
H	-0.7583674768	 1.885532263	-0.6664940055	 0.1111
H	-0.251860754	 1.8684903226	 1.024944479	 0.113346
H	-1.446342284	-0.3076903427	 1.6428289576	 0.10285
H	-1.4006800125	-1.7162536021	 0.4760733965	 0.124307
H	 1.0796548319	-0.5233772366	 1.9809871458	 0.088209
H	 1.8078390851	-2.8000046728	 0.6091904315	 0.075059
H	 0.247275496	-0.4850296284	-2.2157875761	 0.075789
H	 2.5979032356	-1.548205615	-1.6128059059	 0.083505
H	 3.7430865854	-0.0802942297	-0.3930469939	 0.291155
