21
gdb 83789	2.35915	1.73393	1.53344	1.3197	81.23	-0.2356	0.0767	0.3123	1014.7295	0.185057	-387.060076	-387.052383	-387.051439	-387.09167	31.712	
C	-0.1558278803	 1.5373008653	-0.1105316204	-0.432532
C	 0.0080041234	 0.031244172	-0.0296458297	-0.016577
C	 1.299808889	-0.7128120468	-0.275202531	-0.071484
C	 2.6366813536	 0.0070389569	-0.312735436	-0.096142
O	 2.7661892878	 1.0179927002	 0.6886053012	-0.253516
C	 2.6401183736	 0.54107613	 1.9969568668	 0.089987
C	 1.5050175213	 1.0998851643	 2.8097304973	-0.328487
C	 1.4329263335	-0.3160351681	 2.2740316413	-0.044734
C	 0.6317308882	-0.7916941046	 1.0888077308	-0.06738
H	 0.7573859009	 2.0727750324	 0.143803669	 0.149393
H	-0.4323954151	 1.8192227132	-1.1330559008	 0.10867
H	-0.961141567	 1.8816234911	 0.5484807594	 0.11237
H	-0.855094733	-0.4855106259	-0.4459547195	 0.082586
H	 1.2697970931	-1.5884051522	-0.9184003587	 0.079098
H	 3.4483949505	-0.7314461393	-0.2099120258	 0.091603
H	 2.7824114884	 0.53024033	-1.2634827995	 0.109759
H	 3.5907495462	 0.3174549884	 2.4797419504	 0.083806
H	 1.6581491964	 1.2173113555	 3.8771323	 0.108539
H	 0.898046972	 1.8698905795	 2.3536109455	 0.126774
H	 1.5691800947	-1.0926927448	 3.020522748	 0.085746
H	 0.0897453328	-1.707519187	 1.3028248516	 0.082521
