17
gdb 14202	3.63602	2.28894	2.1114	2.038	66.76	-0.224	0.0711	0.2951	733.4896	0.14448	-363.806075	-363.799929	-363.798984	-363.835859	25.701	
O	-0.1112106349	 1.3757547208	-0.0623704978	-0.490659
C	-0.0146455569	-0.010723108	 0.010134788	 0.380054
C	 0.3959329241	-0.8045002837	 1.271684994	-0.22434
N	-0.4199113498	-1.9311491034	 0.7057492984	-0.15398
C	 0.0303874185	-2.1142441057	-0.7723979782	 0.009752
C	-1.4162386225	-1.774358753	-1.1954413036	-0.238682
C	-1.3259061693	-0.889943064	 0.0457226247	-0.028938
C	 0.7712699358	-0.7949310489	-1.0663800991	-0.293861
H	 0.7627603181	 1.739354323	-0.2395555697	 0.281369
H	 1.4556549662	-1.0114576095	 1.4571190386	 0.089987
H	-0.0872182561	-0.4521499257	 2.1873777883	 0.10954
H	 0.5098436583	-3.0609973568	-1.0181397235	 0.074665
H	-1.5756854856	-1.3238936813	-2.1775794401	 0.09829
H	-2.1067334735	-2.6036948466	-1.0302350043	 0.114275
H	-2.177381171	-0.5102754829	 0.6114385979	 0.081017
H	 0.6028934464	-0.4332701531	-2.0842862431	 0.100877
H	 1.8473340924	-0.8189661412	-0.8685038508	 0.090634
