17
gdb 75419	3.191	1.28423	1.01233	4.8907	78.96	-0.2457	-0.0627	0.183	1179.8652	0.136635	-421.871559	-421.863533	-421.862589	-421.904186	30.363	
C	 0.0109759516	 1.5310637959	-0.0898544749	-0.488038
C	-0.0256022327	 0.0247134107	-0.0535397811	 0.299305
C	-1.1724685848	-0.6713738173	-0.1138285549	-0.164955
C	-1.1883940571	-2.1672067296	-0.0409990251	-0.150895
O	-0.5393461232	-2.7886737071	-1.1650302586	-0.218564
C	 0.8142216428	-2.8050159176	-1.2091482584	 0.40138
O	 1.372709219	-3.5274346872	-1.9960591557	-0.337635
C	 1.5888083736	-1.8984362906	-0.3179977381	-0.222309
C	 1.2579523765	-0.6608073647	 0.0951498268	-0.109084
H	 0.5864757579	 1.8928391439	-0.9497592541	 0.140837
H	-0.9947467809	 1.9529114263	-0.1503925634	 0.130234
H	 0.4983340903	 1.9310848633	 0.8076725582	 0.132808
H	-2.1209645522	-0.1514499077	-0.2099491849	 0.102015
H	-0.703618836	-2.5145454935	 0.8819254136	 0.123353
H	-2.2066546733	-2.5575996881	-0.0638335016	 0.1276
H	 2.6046317342	-2.2493886647	-0.169720653	 0.126391
H	 2.0448075644	-0.076502272	 0.5706259451	 0.107557
