16
gdb 9316	6.55907	0.86618	0.77627	3.6456	70.08	-0.2653	-0.0571	0.2082	1429.9283	0.126378	-383.705188	-383.695853	-383.694908	-383.74013	31.628	
C	-0.0141739185	 1.4731704042	 0.0100553961	-0.384729
C	-0.027232772	-0.045094068	 0.0023285901	-0.029988
O	-1.3761585503	-0.479327758	 0.012428705	-0.224949
C	-1.5078633618	-1.8630297075	 0.0064802093	-0.162212
C	-2.9796907714	-2.253593026	 0.0183171789	 0.228431
O	-3.8895206887	-1.4612955601	 0.0310118377	-0.256316
C	-3.1985092278	-3.6938018262	 0.0127615676	 0.248607
C	-3.3686207659	-4.8853150405	 0.0078104153	-0.429589
H	 1.015182295	 1.8436276821	 0.0026577804	 0.115736
H	-0.532823704	 1.8646117949	-0.8692397391	 0.133004
H	-0.5167883247	 1.855431434	 0.9026023444	 0.13301
H	 0.4885026603	-0.4354000874	-0.8911835764	 0.089357
H	 0.5047203529	-0.4445605727	 0.8821808678	 0.089359
H	-1.042807188	-2.3286278896	-0.8828678699	 0.116531
H	-1.0261934071	-2.337788206	 0.882034638	 0.116527
H	-3.5355814579	-5.9352545332	 0.0031297248	 0.21722
