17
gdb 35038	3.21829	1.44241	1.39964	4.3356	71.75	-0.2468	0.0283	0.2751	980.7092	0.139717	-418.013496	-418.006469	-418.005525	-418.044926	27.698	
N	-0.0451759558	-1.1555239823	-0.1040800859	-0.332276
C	-0.0007607616	-0.0014959411	-0.0464813782	 0.282314
C	 0.0136787015	 1.4486712573	 0.0348191283	-0.180474
C	-0.308949877	 2.076915384	 1.4341383568	-0.053982
C	 0.8969564395	 1.5773725616	 2.2420718183	-0.06952
O	 1.9786914071	 1.6014187664	 1.2823361277	-0.27423
C	 1.4210881532	 2.0991985986	 0.0705301488	 0.094717
C	 1.0571592607	 3.5840333063	 0.2741132594	-0.191593
N	-0.1061489284	 3.5158559069	 1.209603914	-0.295006
H	-0.6291984334	 1.8674773324	-0.7440812191	 0.117102
H	-1.2822752266	 1.8516474218	 1.867058004	 0.095604
H	 1.1162665917	 2.2526323349	 3.0738806628	 0.120914
H	 0.7686496188	 0.5554668703	 2.6134940046	 0.126824
H	 2.1018409821	 1.8798231718	-0.7505542005	 0.102319
H	 1.9002217261	 4.1118389715	 0.7292015624	 0.126187
H	 0.8019523649	 4.0833733431	-0.6671904811	 0.104705
H	-0.9294477028	 3.9156483466	 0.7736245076	 0.226397
