16
gdb 51388	3.02124	1.25323	1.22034	3.4933	68.71	-0.2475	-0.0361	0.2113	1073.7286	0.123484	-437.881927	-437.873832	-437.872888	-437.915853	29.353	
O	-0.490519425	 2.318499045	 0.5245531657	-0.237963
C	 0.2637170631	 1.4770156026	 0.1064635403	 0.160864
C	 1.4613260304	 1.7432416754	-0.7854175621	-0.352475
C	 1.4488395357	 3.076324495	-1.5116510851	-0.015267
C	 1.2512187374	 4.4046561798	-0.8519120873	 0.010413
N	 1.8640216235	 4.4631758874	 0.4749821497	-0.333021
C	 3.1262732414	 4.0985607543	-0.0243744064	 0.407385
O	 4.1647950969	 3.8569117074	 0.5240441241	-0.345639
C	 2.6058025326	 4.0893231564	-1.4602003893	-0.267251
H	 0.1400094072	 0.4088175748	 0.3951646174	 0.089561
H	 2.3431058786	 1.6408251176	-0.1351361869	 0.161971
H	 1.5501963199	 0.9153428559	-1.4990880873	 0.128033
H	 1.0003461852	 3.0303708313	-2.5025151424	 0.108512
H	 0.5222462931	 5.1425843273	-1.1574874038	 0.116334
H	 1.4366376064	 4.0514220369	 1.2972220221	 0.249559
H	 3.0891244533	 4.4763687627	-2.3454001087	 0.118986
