23
gdb 40310	2.87289	1.20317	1.0089	0.16	88.97	-0.2496	0.0969	0.3465	1300.2197	0.206213	-351.113188	-351.104224	-351.103279	-351.147158	35.39	
C	-0.2394477772	 1.2350219156	-0.2729495929	-0.263045
C	 1.2134194023	 0.9093535604	-0.0266237395	-0.29299
C	 0.1645726668	-0.1561538985	 0.155377175	-0.040635
C	-0.2464109777	-0.7148305496	 1.4940822223	 0.340477
C	 0.8242414377	-1.322266752	 2.3709697764	-0.316306
C	 0.1753085878	-0.0189716841	 2.7677149297	-0.316306
C	-1.6216753871	-1.3306407321	 1.4432501466	-0.040635
C	-1.827272251	-2.7579363852	 0.9931129006	-0.263045
C	-2.118762885	-2.363456632	 2.4203403771	-0.29299
H	-0.7383025875	 1.856362432	 0.4636345932	 0.111484
H	-0.5730286113	 1.394140202	-1.2924484072	 0.108137
H	 1.8746798727	 0.8233512146	-0.8820374205	 0.108693
H	 1.6873860202	 1.3404315434	 0.8483855909	 0.111415
H	 0.1343648218	-0.9052892976	-0.6328596552	 0.082841
H	 0.6036162391	-2.207998194	 2.9564058308	 0.109613
H	 1.8414828834	-1.2823538166	 1.9968488788	 0.110555
H	 0.7663952686	 0.8887095564	 2.7161171454	 0.109613
H	-0.5299245468	-0.0403983821	 3.5914423036	 0.110555
H	-2.377469932	-0.6280758957	 1.098850829	 0.082841
H	-2.6581397491	-2.986048476	 0.3346322824	 0.108137
H	-0.9392091351	-3.3562160132	 0.8173806486	 0.111484
H	-1.4496160113	-2.7268050409	 3.1925672272	 0.111415
H	-3.1543678593	-2.2996342648	 2.7363204876	 0.108693
