14
gdb 1634	4.88129	2.10602	1.48729	2.8892	57.44	-0.2439	0.0078	0.2517	782.3894	0.114323	-357.939331	-357.931785	-357.930841	-357.970874	26.843	
C	 0.0411340287	 1.499953906	 0.0071995291	-0.363233
N	 0.0194340354	 0.0423547648	 0.0104715053	-0.120645
C	-0.0414609138	-0.6375752836	 1.2220824158	 0.103779
N	-0.0976119344	-0.0206707988	 2.3331686803	-0.487313
C	 0.0755386376	-0.7192675659	-1.1646186424	 0.481912
N	 0.1067997156	 0.019564817	-2.3259548693	-0.573395
O	 0.1340378024	-1.9339249932	-1.1630288511	-0.392971
H	 0.8834214292	 1.8719909999	-0.5827616998	 0.139079
H	-0.893396586	 1.9176150397	-0.3880438889	 0.126176
H	 0.1485920287	 1.823486605	 1.0418817684	 0.184336
H	-0.0320781448	-1.716225402	 1.0680107194	 0.145895
H	-0.1313748954	-0.6890607288	 3.0995549357	 0.229742
H	-0.2800108469	 0.9477931868	-2.3552092508	 0.259039
H	-0.0195982661	-0.538546057	-3.1551760717	 0.267598
