19
gdb 12094	3.24221	1.63429	1.39938	2.1983	71.03	-0.2445	0.074	0.3185	980.0968	0.164086	-365.017538	-365.008941	-365.007997	-365.051043	31.894	
C	-1.4928971628	-0.7208385449	 1.8357720659	-0.420825
C	-0.547261388	-0.5590710881	 0.6746409865	 0.083313
O	-0.2982073232	 0.7777203851	 0.2325052302	-0.250594
C	 0.8031405752	 0.0357846259	 0.7629264328	-0.038685
C	 1.4610415649	 0.559636958	 2.0204913036	 0.291843
C	 1.4997798605	 2.0692318396	 2.136610858	-0.433053
C	 1.4796725405	-0.2890243307	 3.2447766022	-0.27029
N	 2.7016268478	-0.1234514196	 2.4362720159	-0.353323
H	-1.2665418528	-0.01276088	 2.6348640754	 0.136296
H	-2.5215008313	-0.5476551355	 1.5025007381	 0.129956
H	-1.4411752017	-1.7377117218	 2.239999462	 0.119481
H	-0.7129830629	-1.2611222312	-0.1462703591	 0.088133
H	 1.5222510238	-0.2581455001	-0.0081347331	 0.092518
H	 0.4875214264	 2.480460714	 2.1701009429	 0.128354
H	 2.0415050005	 2.3627170537	 3.0389456493	 0.121655
H	 2.0111185614	 2.5097120415	 1.2739189322	 0.122294
H	 1.5141269756	 0.1783481912	 4.2258453733	 0.116518
H	 0.9702990257	-1.2477275436	 3.2198689979	 0.110559
H	 2.8468906703	-0.9570108835	 1.8689226959	 0.225848
