18
gdb 36515	4.03839	1.01074	0.85045	5.1558	78.71	-0.2629	0.0015	0.2643	1332.1051	0.148814	-401.970906	-401.962653	-401.961709	-402.00432	30.76	
N	-0.0536254107	-1.1737658847	-0.0840157351	-0.307715
C	-0.0230328454	-0.0190426845	-0.0785959237	 0.273967
C	 0.0038155945	 1.4415705527	-0.0465839209	-0.358811
C	 1.4353916665	 2.0096068689	 0.010389312	 0.093532
O	 2.0729427641	 1.5931547978	-1.1798151146	-0.259484
C	 3.298422583	 2.2677314699	-1.4245340692	-0.077671
C	 3.0576700753	 3.7569017653	-1.6782602023	-0.258953
C	 2.137401484	 4.3078832861	-0.6215559843	-0.070331
C	 1.4166293662	 3.5105416154	 0.1632719416	-0.079334
H	-0.4934518684	 1.8323970769	-0.9401062156	 0.160819
H	-0.561997703	 1.78356011	 0.8263949889	 0.148904
H	 1.9437953407	 1.5609874009	 0.8837435535	 0.094737
H	 3.9794050861	 2.1389405752	-0.5683765668	 0.097855
H	 3.7462849751	 1.7748412129	-2.290832775	 0.115996
H	 4.0132519429	 4.2958407863	-1.6714948249	 0.110301
H	 2.6250995768	 3.9089864381	-2.6762800464	 0.121895
H	 2.0861168734	 5.3865820042	-0.5001870009	 0.098768
H	 0.7891773892	 3.9127213584	 0.9545436839	 0.095526
