15
gdb 49799	3.13063	1.5189	1.05678	5.7134	71.92	-0.2357	-0.0105	0.2252	1077.079	0.113564	-453.978641	-453.970779	-453.969835	-454.011811	28.375	
N	 0.1405442809	 1.316737418	-0.1788632193	-0.416354
C	 0.003083388	 0.0773606256	 0.0206122327	 0.098568
N	-1.2199884401	-0.6161406264	-0.0382877238	-0.188528
C	-1.1669046122	-2.0226520031	-0.0091137544	 0.043208
C	-2.2198799192	-2.7659696284	-0.3232660434	-0.176954
C	-3.4655859233	-2.0594279745	-0.7465089235	-0.130752
O	-3.5541145492	-0.7523532772	-0.1545234975	-0.245832
C	-2.4756269681	 0.0455224229	 0.0176104558	 0.489155
O	-2.6121921572	 1.2049902579	 0.2631381288	-0.320309
H	 1.122265356	 1.5710531944	-0.0791533905	 0.234357
H	 0.8183968005	-0.6230819071	 0.2397160443	 0.098963
H	-0.210518511	-2.4335396289	 0.2927611316	 0.12924
H	-2.1864376255	-3.8460026504	-0.2801656525	 0.117246
H	-3.5231843109	-1.9520149255	-1.8402886165	 0.12979
H	-4.3686557388	-2.5810860173	-0.4192898217	 0.138201
