12
gdb 23960	1.9869	1.91474	0.97508	7.359	76.39	-0.2597	-0.065	0.1947	1089.0739	0.080395	-394.599725	-394.592502	-394.591558	-394.631786	26.322	
N	 0.1613604198	-1.142712476	-0.0052103418	-0.338112
C	 0.0434803108	 0.0099033557	 0.0025396595	 0.224208
C	-0.0648764015	 1.4162204046	 0.0116343806	 0.154661
C	-1.1860607815	 2.2473417579	 0.0320008825	 0.102352
C	-0.7162106297	 3.5890139295	 0.0324648484	-0.233021
C	 0.657977346	 3.5400099124	 0.0128601193	-0.062236
N	 1.0395895739	 2.2297302322	 0.0003403573	-0.306123
C	-2.5372525954	 1.8234301704	 0.0488630193	 0.209297
N	-3.6477891943	 1.4968282683	 0.0628239175	-0.340056
H	-1.3305907913	 4.474152187	 0.0458606456	 0.141026
H	 1.3897415458	 4.3311301869	 0.0067811404	 0.15547
H	 1.9879061375	 1.8916583811	-0.0149107486	 0.292535
