18
gdb 112220	2.06606	1.39135	0.91781	3.8708	79.53	-0.2439	0.0254	0.2693	1291.863	0.145803	-401.942118	-401.932658	-401.931714	-401.976829	34.478	
C	-0.0602357393	 1.6086362768	-0.1584134748	-0.392788
C	 0.0076335499	 0.1033146136	 0.1163948258	-0.180306
C	-1.3613391206	-0.5604901325	 0.0875297828	 0.055549
N	-2.0086333298	-0.6307847659	-1.231442532	-0.331073
C	-2.0949065028	-1.9942843744	-1.3089924196	 0.434627
O	-2.5372026988	-2.7491321373	-2.1270577638	-0.35148
C	-1.4240918003	-2.1363422791	 0.1058131049	-0.38376
C	-0.1937710155	-2.8861796471	 0.1920091594	 0.357273
C	 0.8299082818	-3.5135619218	 0.2550316874	-0.465316
H	 0.9348856897	 2.0602032244	-0.1145500925	 0.124139
H	-0.4691421833	 1.8140461284	-1.1539348333	 0.11397
H	-0.6919711952	 2.1219476227	 0.5752406739	 0.11716
H	 0.656667811	-0.3882874487	-0.615727543	 0.116178
H	 0.4534106355	-0.0781962172	 1.1016684273	 0.11116
H	-2.015576633	-0.1174166002	 0.8490661399	 0.087256
H	-2.3921074272	 0.0834971901	-1.8326503528	 0.254065
H	-2.1570853392	-2.5052774329	 0.8300924465	 0.131314
H	 1.7292697271	-4.0758426689	 0.306376234	 0.202033
