21
gdb 32840	4.50021	0.78543	0.71347	3.0876	87.24	-0.2053	0.0406	0.2458	1680.9783	0.18304	-383.33245	-383.322643	-383.321699	-383.368415	35.312	
C	 0.0978583299	 1.6183649493	 0.0967863917	-0.381265
C	 0.1930578646	 0.094769986	-0.0056665701	-0.154685
C	 0.5946918933	-0.567739271	 1.3274799643	-0.297826
C	 0.6565712905	-2.05956722	 1.2484937748	 0.336717
N	-0.3559548133	-2.885064881	 1.4106837937	-0.345999
C	 0.1400519057	-4.1562488867	 1.1998956923	 0.28162
C	-0.7323922248	-5.3645075675	 1.3072445203	-0.488812
C	 1.4766428699	-4.0902507393	 0.905079226	-0.193853
N	 1.7954697028	-2.7469624885	 0.937287209	-0.27826
H	 1.0567613275	 2.0591694977	 0.3927907815	 0.110352
H	-0.190977885	 2.0632774135	-0.8603731145	 0.114119
H	-0.6468555687	 1.9186941522	 0.8421105822	 0.118908
H	-0.7681896211	-0.3242581762	-0.3228316455	 0.119916
H	 0.919660967	-0.1820040402	-0.7801768966	 0.09078
H	 1.562909532	-0.1691021714	 1.6580992692	 0.091189
H	-0.1378351919	-0.3032155168	 2.096730073	 0.127971
H	-0.165746191	-6.2789716529	 1.110625548	 0.112822
H	-1.1744487776	-5.4447169558	 2.3064023235	 0.129877
H	-1.5622209043	-5.3171037972	 0.5935149554	 0.129425
H	 2.2126888159	-4.8473236805	 0.690397021	 0.11889
H	 2.7047236786	-2.3489670335	 0.7737365408	 0.258116
