19
gdb 97653	3.97222	0.65856	0.63792	1.2054	83.6	-0.2351	0.0323	0.2674	1805.1061	0.155909	-422.970087	-422.959436	-422.958491	-423.006943	37.542	
C	 0.029184097	 1.4737100739	-0.3230833693	-0.457001
C	-0.0066829154	-0.014014524	-0.0063447297	 0.123654
C	 1.3179936005	-0.7865783968	-0.0139586591	-0.356419
C	 0.6275436126	-0.5015708566	 1.2878021587	 0.084771
O	 1.1337931755	 0.475742388	 2.1462851792	-0.422738
C	-1.1751052532	-0.7208965177	-0.4587876363	-0.007409
C	-2.1582754014	-1.2987967507	-0.8488634891	 0.143183
C	-3.3593053892	-1.98971158	-1.2955689674	-0.221089
O	-3.106376847	-2.6571704662	-2.5283637941	-0.409974
H	 0.9037981064	 1.9407290518	 0.1326443658	 0.127455
H	 0.0600618362	 1.6331152241	-1.4049812678	 0.123035
H	-0.8633593161	 1.9707125823	 0.0683227379	 0.126236
H	 1.3193941899	-1.7992984974	-0.3989881438	 0.125873
H	 2.2016809309	-0.1988117154	-0.2402243113	 0.11666
H	 0.1237738006	-1.3304384912	 1.782740158	 0.097946
H	 1.9721610781	 0.1572030022	 2.4968243501	 0.290413
H	-3.6760262647	-2.7038313487	-0.5173796698	 0.113177
H	-4.1757126863	-1.2564735175	-1.4023116447	 0.114985
H	-3.9249580244	-3.0909538899	-2.7905420874	 0.287241
