16
gdb 5716	4.6815	1.95306	1.42828	1.2248	70.01	-0.214	0.0203	0.2343	850.6709	0.134099	-346.641374	-346.635287	-346.634343	-346.67145	24.351	
C	 0.104228622	 1.4434180093	-0.3320125697	-0.198838
C	 1.4061481984	 2.0180983243	 0.3074170113	-0.350709
C	 2.148127305	 0.7674105699	 0.6849156098	 0.240605
C	 3.3729822	 0.3085317056	 1.0377661939	-0.173435
O	 3.3120352762	-1.040240534	 1.2572071319	-0.15383
C	 2.0206984777	-1.4360731391	 1.0408251449	-0.173435
C	 1.2702822326	-0.3651126807	 0.6869013463	 0.240605
C	-0.1265584802	 0.0407265898	 0.3108847	-0.35071
H	-0.7541746971	 2.10900237	-0.2090586469	 0.097686
H	 0.2660468932	 1.3161026261	-1.407549837	 0.11017
H	 1.9488039719	 2.672607542	-0.3808327642	 0.110861
H	 1.1707517812	 2.6172011538	 1.1967639479	 0.112674
H	 4.34561188	 0.7529795736	 1.1688370966	 0.132411
H	 1.8330531815	-2.4885163591	 1.1745206423	 0.132411
H	-0.7639236469	 0.1212421007	 1.201141135	 0.112674
H	-0.6262403356	-0.6495024621	-0.3750068622	 0.110861
