18
gdb 116708	3.49098	0.71155	0.62452	5.3923	81.9	-0.2325	-0.0094	0.2231	1776.518	0.144767	-439.072387	-439.062578	-439.061634	-439.108725	33.606	
C	-0.002841689	 1.4376403372	-0.286427774	-0.251083
O	 0.0476526505	 0.0585678572	 0.0642177864	-0.192813
C	-1.1148139905	-0.6085042295	-0.0266600144	 0.128878
N	-1.1763026458	-1.8298889702	 0.2796291169	-0.220693
C	-2.4302309407	-2.4821915267	 0.1550561817	 0.053573
C	-2.427219151	-3.936770128	-0.1870539173	-0.318666
C	-2.8173541742	-3.5170039589	 1.2220992484	-0.130535
C	-1.8895107465	-3.8103955973	 2.3402168306	 0.165662
O	-2.25471663	-4.0668773414	 3.4626475323	-0.27601
H	 1.0128958458	 1.8181864798	-0.1765359714	 0.151287
H	-0.3280304656	 1.5756003387	-1.3245885565	 0.129671
H	-0.6700466294	 1.9959169045	 0.3809675623	 0.131872
H	-1.9662593935	-0.0084607426	-0.3831972775	 0.080225
H	-3.2696519845	-1.8883683651	-0.2147415773	 0.087053
H	-3.2086779515	-4.3314061574	-0.8255857617	 0.127181
H	-1.4529707125	-4.3980184328	-0.306318206	 0.13632
H	-3.8661286754	-3.5619924698	 1.4943497941	 0.106243
H	-0.8133547561	-3.7828699177	 2.0704316934	 0.091835
