20
gdb 19705	5.093	1.70275	1.54245	0.0319	78.75	-0.2821	0.1043	0.3864	910.2253	0.179923	-311.840542	-311.833894	-311.83295	-311.870883	27.506	
C	-0.1839723175	 1.581079705	-0.0028742365	-0.435203
C	 0.0127666542	 0.0719786451	 0.0227196777	 0.044807
C	 1.2382253947	-0.5949762242	-0.6606576787	-0.067289
C	 2.1560448364	-0.1568311575	 0.5287983709	 0.001862
C	 3.2176907123	-1.232462137	 0.765993607	-0.239782
C	 2.3585510354	-2.5092312845	 0.5439426938	-0.246064
C	 1.0116454404	-1.8586806636	 0.2330128474	 0.008457
C	 0.8041109167	-0.6205812621	 1.1662741804	-0.067287
H	 0.7319800514	 2.1339367091	 0.2224486958	 0.11471
H	-0.5339989906	 1.9083635922	-0.9885240848	 0.113123
H	-0.9418518203	 1.88431316	 0.7284312527	 0.113124
H	-0.9359337621	-0.4283409478	-0.2097216954	 0.055743
H	 1.4985853854	-0.5883189907	-1.7225642738	 0.056615
H	 2.4655858218	 0.8844613582	 0.6169456735	 0.058167
H	 4.0493806268	-1.1534287309	 0.0581222766	 0.094147
H	 3.6416117121	-1.1774823613	 1.7741133417	 0.094148
H	 2.7211553898	-3.1252435508	-0.2854472462	 0.094504
H	 2.3132695317	-3.1493195657	 1.4311157413	 0.094504
H	 0.153991065	-2.5008716232	 0.0202165956	 0.055102
H	 0.5589978464	-0.6437362203	 2.2315725809	 0.056614
