16
gdb 125292	2.67096	1.71784	1.05217	1.3414	73.18	-0.2447	-0.0158	0.2289	1082.0295	0.125677	-434.141035	-434.132647	-434.131703	-434.174314	30.745	
C	-0.0322033478	 1.5278959223	-0.0143150884	-0.47229
C	-0.0120045283	 0.0361238439	-0.0417952218	 0.394365
C	-0.0227571408	-0.8247576825	-1.1156360046	-0.317619
C	 0.0069582404	-2.1256645427	-0.5624741907	 0.010127
N	 0.0343074332	-2.0975239507	 0.7568572673	-0.277407
N	 0.023100291	-0.7692440287	 1.0744648385	-0.115728
C	 0.046932474	-0.3642509208	 2.4425182776	 0.510409
N	 0.0772382231	-1.415748989	 3.2889823553	-0.560861
O	 0.0385824135	 0.8062593029	 2.7563079536	-0.386018
H	 0.8482044915	 1.9315856486	 0.4917731615	 0.153458
H	-0.0594710847	 1.9031727639	-1.0400953261	 0.120156
H	-0.9009776417	 1.907247445	 0.5293262772	 0.153411
H	-0.0486742057	-0.5454178395	-2.1566973168	 0.109839
H	 0.0092156916	-3.0759566456	-1.0772143653	 0.122021
H	 0.0840445308	-2.3532382788	 2.9215458423	 0.284683
H	 0.09856682	-1.2252305683	 4.2741896104	 0.271456
