21
gdb 89494	2.84372	1.43269	1.21233	2.1312	84.62	-0.2355	0.0077	0.2432	1120.6424	0.182974	-387.076338	-387.067773	-387.066829	-387.109	34.168	
C	-0.1171533901	 1.5834106565	-0.1607424735	-0.455571
C	-0.062202287	 0.0573430842	-0.0430179539	 0.30666
C	 1.1595823306	-0.5506892417	-0.8363733628	-0.282765
C	 1.9810536628	-0.5901581093	 0.5076375712	-0.327295
C	 0.6325264815	-0.4991219387	 1.1808995445	 0.27658
C	-0.1779723807	-1.1329348922	 2.0252664775	-0.292604
C	-1.6193333872	-0.9354262059	 1.5650905411	 0.119314
O	-2.3212111684	 0.0681291025	 2.3035379771	-0.440252
C	-1.4549412776	-0.6011232774	 0.0420805974	-0.325641
H	 0.8633503689	 2.0451497244	-0.0021442876	 0.110864
H	-0.4667932731	 1.8782584876	-1.156740689	 0.118385
H	-0.8130093463	 2.0059105225	 0.5716707549	 0.112609
H	 0.9516413664	-1.5572042396	-1.2064122779	 0.108008
H	 1.5711511545	 0.0602430075	-1.6443350491	 0.098855
H	 2.5908208743	-1.4712074685	 0.7181656283	 0.113259
H	 2.6005919726	 0.304126957	 0.6254683187	 0.115626
H	 0.09442973	-1.7487833712	 2.8743844612	 0.093996
H	-2.2176374157	-1.8430080954	 1.6979606416	 0.080849
H	-1.6786338523	 0.7442617879	 2.5409897531	 0.275303
H	-2.2790824376	 0.0236266918	-0.3132473551	 0.099253
H	-1.4680382555	-1.5381394317	-0.5255441877	 0.094568
