23
gdb 115504	3.76937	0.85972	0.82349	0.7909	82.39	-0.2534	0.0858	0.3392	1551.0693	0.205556	-425.439241	-425.429243	-425.428299	-425.474722	36.218	
C	-0.3859252897	 1.5776741554	 0.1923140405	-0.386508
C	-0.1291555564	 0.0689996145	 0.1090643226	-0.200757
C	-1.3956135133	-0.7573988649	-0.124158592	 0.020445
C	-2.0867307273	-0.5021894529	-1.479649799	-0.07976
O	-2.6505303351	-1.7485215463	-1.910449216	-0.269286
C	-2.4021323311	-2.7506464929	-0.9454566912	 0.219863
C	-1.1749025148	-2.2803919969	-0.174548343	-0.271454
O	-3.4615720385	-2.8837659661	-0.0288905837	-0.248409
C	-4.6755094653	-3.2977929616	-0.6251190727	-0.240671
H	 0.5405717624	 2.1263409107	 0.3873412167	 0.114025
H	-0.8090683635	 1.9666808603	-0.7400870153	 0.119888
H	-1.0892914614	 1.8140603513	 0.9984733494	 0.116739
H	 0.5872208626	-0.1399672156	-0.6973398729	 0.094205
H	 0.3487468946	-0.2681449722	 1.0373816856	 0.098045
H	-2.1125849049	-0.5472626946	 0.6778606565	 0.088034
H	-2.8783260501	 0.2520813392	-1.4176317128	 0.103999
H	-1.3644021403	-0.1743777444	-2.2408385455	 0.09425
H	-2.2740615044	-3.691998736	-1.5000964704	 0.066095
H	-0.270640072	-2.5218995938	-0.7444252149	 0.100219
H	-1.1076531127	-2.7469585086	 0.8093805602	 0.113605
H	-5.4148509352	-3.3801140101	 0.1747780579	 0.122004
H	-5.0241880925	-2.5753071439	-1.3722702853	 0.123774
H	-4.5675236211	-4.2794019008	-1.1126687548	 0.101654
