15
gdb 43240	4.19583	1.70167	1.51224	4.1767	76.87	-0.2198	-0.07	0.1498	856.6113	0.113716	-383.389204	-383.383324	-383.38238	-383.419195	25.008	
O	-0.0541800371	-0.0310364614	 0.237236285	-0.331189
C	-0.0648232943	 1.1444453236	-0.0283613359	 0.380652
C	-1.2477187808	 2.080620834	-0.0947181974	-0.29441
C	-0.6664267679	 3.295740998	-0.254855351	 0.151142
C	-0.0184983552	 4.2385585141	 0.7097608189	-0.126237
C	 1.236634379	 4.3628406404	-0.0981057908	-0.103638
C	 1.2601280131	 3.2905128977	 0.9604953566	-0.063214
C	 1.1634458016	 2.1021089808	-0.0695170191	-0.136368
C	 0.6652897409	 3.2392780781	-1.0142713056	-0.105423
H	-2.1210753429	 1.8542114275	 0.5061170305	 0.115963
H	-0.3905318638	 4.832468496	 1.5346876808	 0.111268
H	 1.9000147578	 5.1927213849	-0.2907452887	 0.105232
H	 1.746804673	 3.3005176757	 1.9284400824	 0.108312
H	 2.1254212745	 1.6167141845	-0.2465981055	 0.087353
H	 0.7065826421	 3.177202056	-2.0976844604	 0.10056
