21
gdb 82114	3.13441	1.14688	0.97084	0.8349	87.37	-0.2487	0.0588	0.3075	1282.8022	0.181621	-349.894101	-349.884976	-349.884032	-349.927822	35.345	
C	-0.3239686256	 1.553282787	 0.1135916166	-0.414914
C	-0.0434813459	 0.0558205852	 0.0470533996	 0.011223
C	 0.4617827193	-0.5417474456	-1.2768055978	-0.051059
C	 1.8396854355	-0.0451285985	-1.6101342994	-0.284754
C	 1.6900439538	-1.1285677307	-0.577182207	-0.076126
C	 1.2199388327	-0.5657603739	 0.768890876	-0.001832
C	 2.1976166982	 0.3261007878	 1.5538781003	-0.369526
C	 1.6509944786	 0.7979595576	 2.8215788736	 0.30244
C	 1.179415953	 1.1625721204	 3.8660581089	-0.451936
H	 0.5117359174	 2.1507364039	-0.2639683246	 0.110144
H	-1.2013464511	 1.8019628422	-0.493799908	 0.111256
H	-0.5216947778	 1.8708608563	 1.1416854115	 0.130348
H	-0.9333434089	-0.4831385548	 0.385363729	 0.075318
H	-0.1678704697	-1.0042001223	-2.0278448412	 0.081682
H	 2.2295690528	-0.37979505	-2.5662382	 0.110738
H	 2.1594584162	 0.9576887814	-1.3396207121	 0.104474
H	 2.1447277978	-2.1031467696	-0.7119503956	 0.082192
H	 0.8951225381	-1.3729195363	 1.4306095039	 0.083711
H	 3.1130797795	-0.2492724982	 1.7472034275	 0.128247
H	 2.5068395868	 1.1844229488	 0.9463842293	 0.125852
H	 0.7744299992	 1.4936874194	 4.7898605496	 0.192523
