17
gdb 81134	3.35156	1.13433	1.01154	5.9334	73.3	-0.2527	0.0356	0.2883	1187.1353	0.1363	-417.948052	-417.93983	-417.938886	-417.981317	30.868	
O	-0.076532219	 1.4751011132	-0.0968140197	-0.435217
C	 0.0049441387	 0.0800339459	 0.0034951559	 0.077657
C	-0.0683865152	-0.6583787807	 1.3811758811	-0.081978
C	-1.5305021838	-0.1711696809	 1.5205490088	-0.238332
C	-1.3438867593	-0.6789584092	 0.0637411701	 0.318982
C	-2.3709418973	-0.7978645074	-1.0429777748	-0.483543
C	-3.5688767278	-1.5306670703	-0.6368835039	 0.274013
N	-4.5201858734	-2.1005914861	-0.3137655171	-0.309069
N	-0.6220712306	-1.8733301853	 0.6593535016	-0.336609
H	 0.8030020012	 1.8476556344	 0.0219919338	 0.29263
H	 0.7362471003	-0.3469389527	-0.699793845	 0.065484
H	 0.694655131	-0.7532124152	 2.1536226431	 0.087911
H	-2.1718093424	-0.7918926822	 2.1454305601	 0.124465
H	-1.6848643102	 0.8983970236	 1.6480705216	 0.117777
H	-2.6624533058	 0.2094187589	-1.362853346	 0.170208
H	-1.928426796	-1.2934181101	-1.9155562202	 0.151972
H	 0.0738535797	-2.2227406257	-0.0114815892	 0.20365
