16
gdb 13128	4.12216	1.17967	0.97762	3.0567	60.61	-0.2719	0.0049	0.2768	1150.3114	0.13029	-420.894904	-420.886762	-420.885818	-420.928254	28.453	
O	 0.2170309196	 1.3891448473	 0.1333528734	-0.41594
C	 0.0956546657	-0.0185814168	 0.022091612	-0.069919
C	-1.3618291539	-0.4843889748	 0.1299981696	-0.229324
C	-1.4936845546	-2.0043478194	 0.0507786322	-0.19078
C	-2.8954339325	-2.6334460541	-0.0792647075	-0.104744
O	-2.5331183272	-3.2010297427	-1.3801940312	-0.23711
C	-1.2825495104	-2.6387715451	-1.3300517001	 0.459968
O	-0.4301900463	-2.6837319238	-2.1585413991	-0.323509
H	-0.1170991166	 1.7805296164	-0.6797219395	 0.285037
H	 0.541383818	-0.3974041233	-0.9079672861	 0.123925
H	 0.6771336641	-0.4352902534	 0.8525780117	 0.112679
H	-1.7800238809	-0.1243798645	 1.0769130819	 0.116831
H	-1.9512266047	-0.0227780263	-0.6739824489	 0.099679
H	-0.8731153942	-2.4894463303	 0.8110027688	 0.11725
H	-3.1499009749	-3.4227180156	 0.6303516021	 0.128556
H	-3.7234465112	-1.9288463036	-0.1860999693	 0.1274
