17
gdb 36245	4.32654	1.09902	1.03591	3.6117	74.78	-0.2582	0.029	0.2871	1160.0602	0.138063	-380.824684	-380.817394	-380.81645	-380.857169	27.915	
N	 0.0461267403	-1.1579078362	 0.0712571963	-0.304938
C	-0.012026143	-0.0077726324	-0.0253986776	 0.260432
C	-0.0501035748	 1.4492507281	-0.1368746144	-0.382294
C	 1.3464234284	 2.0774402293	-0.0083658174	 0.025739
C	 1.5094683568	 3.5818168427	 0.096784414	-0.085399
C	 1.4626871888	 3.9796389174	 1.539367135	-0.037529
C	 1.2600014783	 2.7417824363	 2.3926717765	-0.245032
C	 2.1315263918	 2.0570307358	 1.3233218514	-0.020725
N	 2.7421271133	 3.4514643008	 0.9489987697	-0.158446
H	-0.4855658979	 1.7147115195	-1.1073968808	 0.155531
H	-0.7279157688	 1.8421863372	 0.6275442599	 0.153785
H	 1.9952577667	 1.6994046725	-0.8038000484	 0.110461
H	 1.4587256314	 4.3125453315	-0.7028326891	 0.100846
H	 1.373978117	 5.0189440979	 1.8348047198	 0.102674
H	 1.8085489587	 2.8316584385	 3.3332675837	 0.123815
H	 0.252543358	 2.3642689047	 2.5955792503	 0.100905
H	 2.7905951449	 1.2279645066	 1.568838091	 0.100174
