23
gdb 101245	3.17832	0.86982	0.80606	2.6034	82.65	-0.2507	0.0638	0.3145	1546.7057	0.203402	-425.41522	-425.404488	-425.403544	-425.450859	40.074	
C	 0.0634662635	 1.552921113	-0.1358882383	-0.447933
C	 0.014612544	 0.0419938931	 0.0012484543	 0.334793
C	-1.262547802	-0.5781274169	-0.5367514765	-0.450546
C	 1.292389523	-0.7467689241	-0.1545351408	-0.33689
C	 0.6400281786	-0.6292981149	 1.2090872661	-0.061897
C	 1.3008763234	 0.1348358348	 2.3286071953	 0.077842
O	 0.3501918202	 0.8286789196	 3.1564592107	-0.447271
C	 2.1615120086	-0.7614401174	 3.2256829827	-0.058723
O	 2.6956713746	-0.0285307004	 4.3055503385	-0.426865
H	 1.0191988058	 1.9700453766	 0.1897412449	 0.117152
H	-0.0828349129	 1.843951162	-1.182472732	 0.110784
H	-0.7238314314	 2.0276293933	 0.4593785776	 0.123072
H	-1.3855890048	-0.3591959275	-1.6039829575	 0.116682
H	-1.2627785972	-1.6663613858	-0.4183810954	 0.11077
H	-2.1428361812	-0.1834741355	-0.0153961038	 0.114183
H	 1.2603406482	-1.707170579	-0.6583132599	 0.108976
H	 2.2134181556	-0.1942569362	-0.3147726756	 0.111414
H	 0.1222711006	-1.5252201371	 1.5531478123	 0.071518
H	 1.9412191523	 0.9296403254	 1.9332758565	 0.092523
H	-0.3587331888	 0.2089804634	 3.364671441	 0.279875
H	 1.5458247452	-1.6106138402	 3.5779926021	 0.067395
H	 2.9984690845	-1.1796270886	 2.6562385641	 0.109597
H	 1.9757206003	 0.5479600224	 4.5951084637	 0.283547
