23
gdb 118528	1.662	1.2225	0.75665	0.7794	88.66	-0.2382	0.0515	0.2897	1587.7981	0.201719	-388.260434	-388.248904	-388.24796	-388.298248	40.79	
C	-0.241231198	 1.4447445264	-0.8575248591	-0.384244
C	-0.3363668226	-0.0610083588	-1.0359334942	-0.044707
O	-1.3088386876	-0.5505678668	-0.1225429038	-0.263285
C	-1.5196428073	-1.9534260151	-0.127713059	 0.1239
C	-1.6529546791	-2.4180173324	 1.3269294277	-0.171168
C	-0.3974995283	-2.1494099212	 2.1582520288	-0.393607
C	-2.7951384761	-2.3060821145	-0.9304646404	-0.357027
C	-2.7028430404	-2.0603346302	-2.364459989	 0.297649
C	-2.6331605385	-1.8828580684	-3.5518500297	-0.44034
H	 0.5083310182	 1.8613293022	-1.5372403004	 0.112517
H	-1.2041187124	 1.9174816555	-1.0712256599	 0.126714
H	 0.0424083298	 1.6954872779	 0.1689019321	 0.122057
H	-0.617471408	-0.3104489595	-2.0669953829	 0.109831
H	 0.6384700389	-0.5340835524	-0.8337447284	 0.08344
H	-0.6587524813	-2.4592521459	-0.5907805982	 0.07511
H	-2.5119608287	-1.9010213215	 1.7733210662	 0.104175
H	-1.8895419182	-3.4889763822	 1.3340427178	 0.092116
H	 0.4661730155	-2.6952747284	 1.761751887	 0.109588
H	-0.1569829657	-1.0833991922	 2.1501077996	 0.131577
H	-0.538931557	-2.4612412439	 3.1973598235	 0.111125
H	-3.0355447623	-3.3640208224	-0.7644222504	 0.124739
H	-3.623925573	-1.7242876352	-0.5085050457	 0.136222
H	-2.5739752277	-1.719935041	-4.5993060817	 0.193616
