19
gdb 39388	2.39837	2.1652	1.46187	1.5086	74.17	-0.2519	0.0679	0.3199	935.6549	0.161457	-422.965718	-422.95887	-422.957926	-422.996444	29.047	
C	-0.042122949	 1.5021547817	-0.1432783096	-0.323392
C	 1.4917141751	 1.3309251242	-0.0211352694	 0.126525
C	 1.2165244892	 0.0658722724	 0.8772330676	-0.310931
C	-0.0189256081	-0.0194691853	-0.0260363976	 0.405539
O	-1.0591286796	-0.9192847002	-0.3289089768	-0.324489
C	 0.0820911641	-0.8305000339	-1.2268406601	 0.026342
C	 0.1144236728	-0.0689973739	-2.5288693067	-0.309517
C	 1.347573836	 0.921923096	-2.4678179111	-0.067606
O	 2.0997528644	 0.9266781849	-1.2517905291	-0.275933
H	-0.4475609841	 1.970302855	 0.7578186069	 0.106797
H	-0.4596507616	 1.9895869059	-1.0229065836	 0.10633
H	 2.0820864518	 2.1414253128	 0.413087825	 0.08014
H	 1.9464634549	-0.7432077292	 0.8314539278	 0.110801
H	 1.0154392615	 0.3573856579	 1.9124657163	 0.101691
H	 0.7122818245	-1.7167480868	-1.1763957692	 0.09894
H	 0.2123669917	-0.7332299466	-3.3921378178	 0.106325
H	-0.8163868795	 0.4899460896	-2.6548076403	 0.121897
H	 2.0869597468	 0.6321777325	-3.2180028261	 0.117404
H	 1.0150774792	 1.938004763	-2.7181720962	 0.103136
