21
gdb 92462	2.58713	1.66629	1.6447	1.496	81.26	-0.2347	0.0148	0.2494	989.5675	0.185753	-387.106267	-387.098764	-387.09782	-387.137756	31.032	
C	-0.1465260691	 1.5538263011	 0.0364004103	-0.414444
C	 0.0064725835	 0.0309426417	-0.0035576019	 0.050788
C	 0.7702976277	-0.4691485374	-1.2670390945	-0.225816
C	 1.9641436258	-1.3593062905	-0.8276612028	-0.081599
C	 2.8730072367	-0.4730873335	 0.0524205239	-0.055985
O	 2.1345708075	 0.0280085485	 1.1646211441	-0.278528
C	 0.7919950951	-0.5027475269	 1.2228482619	 0.056853
C	 0.832628418	-2.009646637	 1.1559567157	-0.075989
C	 1.4478251515	-2.4634296206	 0.0627848471	-0.080667
H	 0.8336169917	 2.0366423367	 0.0930433369	 0.129671
H	-0.6611862632	 1.9215230172	-0.8573800917	 0.108347
H	-0.7266211215	 1.8703700753	 0.9104052594	 0.10748
H	-0.9907951309	-0.4225359152	 0.0229257739	 0.069882
H	 0.1086622043	-1.0290486412	-1.9333149504	 0.097406
H	 1.1555909248	 0.3842100442	-1.8370043947	 0.093212
H	 2.5209543187	-1.7298378915	-1.6914597347	 0.064082
H	 3.7365637663	-1.0446613303	 0.4189831667	 0.091549
H	 3.2477833859	 0.3811179058	-0.5292862313	 0.090935
H	 0.3759588614	-0.124874955	 2.159122777	 0.068312
H	 0.4041210316	-2.6301540243	 1.9347457819	 0.093209
H	 1.603243154	-3.511261967	-0.1698049267	 0.091303
