19
gdb 112191	2.56551	1.27781	0.9401	3.6461	78.77	-0.2396	0.0135	0.2531	1285.7406	0.158554	-419.177582	-419.168567	-419.167623	-419.211415	33.598	
C	 0.0246627584	 1.6344993545	-0.0628930143	-0.386879
C	-0.3036082931	 0.152737634	-0.2698584181	-0.188406
C	 0.7057371966	-0.5599900851	-1.1570768897	-0.025125
N	 2.0603653284	-0.7381464772	-0.5690416169	-0.372397
C	 2.125755914	-2.11106045	-0.8452222516	 0.319707
N	 2.9964778241	-3.0242392224	-0.8013660625	-0.546244
C	 0.6692582003	-2.1008769785	-1.2582459708	 0.349932
C	-0.395170679	-3.0722379518	-1.0089910901	-0.257327
O	 0.1218351736	-2.8326461263	-2.326216154	-0.261467
H	 0.9993934698	 1.7548535036	 0.4216951828	 0.119432
H	 0.0533470968	 2.1728466391	-1.0168555233	 0.116852
H	-0.7223760734	 2.1200651841	 0.571552281	 0.12039
H	-0.3447150704	-0.3605700071	 0.6977742422	 0.103219
H	-1.2950215293	 0.052669003	-0.7302753773	 0.104855
H	 0.7339144944	-0.1093852675	-2.158472447	 0.092187
H	 2.829987648	-0.0941358113	-0.6830965687	 0.241221
H	 3.9088477837	-2.6690765188	-0.5098409517	 0.211976
H	-0.137368888	-4.0373031028	-0.5777073016	 0.13816
H	-1.4126639048	-2.7249156596	-0.8372220083	 0.119917
