14
gdb 127181	4.45055	1.13932	0.91232	0.6843	66.77	-0.2625	-0.038	0.2245	1178.7506	0.101592	-470.029042	-470.021153	-470.020208	-470.062184	27.404	
C	-0.0119711115	 1.4469177815	-0.0704446918	-0.36104
N	-0.0067844099	-0.016469336	-0.0140141256	-0.22778
C	-0.0131133382	-0.6713340098	 1.2207007362	 0.162794
O	-0.0229962448	-0.0894028508	 2.2752010264	-0.303621
C	 0.0045472452	-0.7473662525	-1.1708755179	 0.598195
N	 0.0101428344	-2.0466390821	-1.3088208607	-0.3697
C	 0.0209877496	-2.1648780177	-2.6730483867	 0.05341
N	 0.0220142123	-1.0501245467	-3.3493265705	-0.124037
O	 0.0108627778	-0.0711528027	-2.3223586338	-0.220865
H	 0.8802682169	 1.8121433281	-0.5842789975	 0.15552
H	-0.898139171	 1.8051469178	-0.5994504924	 0.155538
H	-0.0220713191	 1.7981126553	 0.9598568168	 0.179125
H	-0.0079688332	-1.7639867788	 1.1039871137	 0.147422
H	 0.0281641016	-3.1187366956	-3.1810399262	 0.155038
