20
gdb 109394	3.078	1.20358	0.96382	1.0769	77.54	-0.2397	0.0138	0.2534	1280.6457	0.171849	-440.296909	-440.288056	-440.287112	-440.331018	32.686	
C	 0.2336767065	 0.8588364259	 0.762297118	-0.381306
C	-0.3809496489	 0.344595809	-0.5480042429	-0.236842
C	 0.6325884644	-0.2895089554	-1.4671392657	 0.374051
N	 0.8840600285	 0.2008525017	-2.6049762184	-0.29122
C	 1.7094392442	-0.45136905	-3.6070523678	-0.156528
C	 3.0641818942	-0.9989998807	-3.1679444723	-0.097371
O	 2.9449506127	-2.1044100933	-2.2842129432	-0.214294
C	 2.5202452776	-1.7450568397	-1.0164210539	 0.012153
O	 1.1359004461	-1.4411275806	-0.9000732887	-0.262961
H	 0.7216827602	 0.0471330695	 1.308557697	 0.12557
H	 0.9774543337	 1.6382700562	 0.5679176782	 0.121523
H	-0.5393231946	 1.2859145317	 1.4075908315	 0.118061
H	-1.1408833821	-0.4123749191	-0.3165021482	 0.117861
H	-0.8674385517	 1.1526548992	-1.0968321575	 0.121246
H	 1.1360106624	-1.2811038966	-4.0447439525	 0.12233
H	 1.8855053155	 0.2708479016	-4.4132442473	 0.106078
H	 3.6112265645	-1.365685832	-4.041731624	 0.11299
H	 3.660143416	-0.2030554445	-2.6934343125	 0.096624
H	 2.6679333576	-2.611885988	-0.3702367986	 0.122896
H	 3.0962316633	-0.8805354348	-0.6465723912	 0.089139
