19
gdb 38138	2.73638	1.90826	1.40564	1.7059	79.33	-0.237	0.0002	0.2372	965.7674	0.162191	-385.874076	-385.867141	-385.866197	-385.905207	28.569	
C	 0.4099769202	 1.594902072	 0.4315364159	-0.222722
C	 1.4796226003	 1.5424029096	-0.6934329138	-0.22799
C	 1.3705254816	-0.0117767348	-0.6930120072	-0.058743
C	 2.4658381787	-0.7128055596	 0.0726137647	 0.033311
O	 2.7757524302	-0.215340594	 1.3742432409	-0.256933
C	 2.1415139008	-1.5152445049	 1.2684065509	-0.00063
C	 0.7352139032	-1.6123690144	 1.7277987434	-0.062162
C	-0.2316608749	-0.8602905549	 1.1946832537	-0.089491
C	 0.0221189385	 0.1148477032	 0.0940435989	-0.042102
H	 0.870284341	 1.6602860437	 1.4180192502	 0.124893
H	-0.3806045407	 2.3441618381	 0.3446539283	 0.091202
H	 1.1259265831	 1.9760539376	-1.6325194714	 0.09807
H	 2.4598088972	 1.9625972111	-0.4583844116	 0.108462
H	 1.2875840443	-0.485047639	-1.6764289088	 0.069243
H	 3.3438549038	-0.9921740256	-0.5128496883	 0.0876
H	 2.8030352794	-2.3353248173	 1.5415916264	 0.088772
H	 0.5176505692	-2.3198036606	 2.5223016583	 0.090942
H	-1.2510178005	-0.9528717002	 1.5623350439	 0.093707
H	-0.8213534054	 0.11304305	-0.6048226944	 0.07457
