19
gdb 77396	2.16417	1.97681	1.23925	2.9606	74.97	-0.2252	0.0633	0.2884	1054.7637	0.156674	-422.939271	-422.930523	-422.929579	-422.971964	33.803	
C	-0.1583581675	 1.6179276876	 0.0287858661	-0.429971
C	-0.0563331117	 0.0990368283	 0.0100834616	-0.135284
C	 0.8606210283	-0.5820442572	-1.0383934753	 0.313183
C	 0.760490108	-0.6187395937	-2.5345618548	-0.526952
C	 2.1630225793	-0.334473389	-0.2006637785	-0.050117
O	 2.5915839056	-1.7261891713	-0.2469755307	-0.33001
C	 1.1444439978	-1.8008176182	-0.0939673053	-0.013133
C	 1.0321816208	-0.5907200454	 0.8703110372	 0.360277
O	 1.1350124048	-0.6842374382	 2.2383430392	-0.463128
H	 0.82586904	 2.0911282085	-0.0657815143	 0.11306
H	-0.7811697393	 1.9857789312	-0.7935037807	 0.123652
H	-0.6120012825	 1.9734641972	 0.9612358574	 0.115772
H	-1.0467949175	-0.3644422898	 0.0991154943	 0.070013
H	 0.8090806555	 0.3880861635	-2.9633645264	 0.121331
H	 1.5869000386	-1.2059548347	-2.9481466744	 0.138071
H	-0.1805619959	-1.0750186085	-2.8601279488	 0.121615
H	 2.9206376724	 0.4446513031	-0.2828229154	 0.089707
H	 0.6636880127	-2.7779725752	-0.0492512285	 0.093483
H	 1.2009591005	 0.2038342217	 2.6061890173	 0.288432
