20
gdb 89611	3.73722	1.09753	0.94362	3.3757	80.43	-0.2393	0.0267	0.266	1291.1735	0.171082	-403.164945	-403.155865	-403.154921	-403.198647	34.715	
C	-0.1510061572	 1.5527590227	 0.0500579041	-0.404364
C	 0.1435778885	 0.0640368363	-0.085952231	 0.035008
C	 1.3856141633	-0.3937999058	-0.9313747346	-0.357415
C	 1.8967265808	-1.1933522219	 0.2770923721	 0.276141
C	 2.0962037594	-0.273302162	 1.4592025153	-0.319062
C	 0.7065781726	-0.6958611298	 1.1273130965	-0.092656
C	 2.4621569853	-2.5677936878	 0.3259158094	 0.284915
N	 2.7788386715	-3.1147443867	-0.8913626142	-0.539255
O	 2.6023341161	-3.1816779739	 1.369909884	-0.375953
H	 0.7170197853	 2.10612048	 0.4228057157	 0.116226
H	-0.4307093727	 1.9862881959	-0.9164478083	 0.114316
H	-0.9793066005	 1.7256476237	 0.7457847311	 0.11848
H	-0.748367377	-0.4494649516	-0.457052541	 0.080655
H	 1.0957781905	-1.0125523884	-1.7842802934	 0.102352
H	 2.0493443807	 0.4034887142	-1.2845968724	 0.095036
H	 2.530165187	-0.7672357228	 2.3210086118	 0.14265
H	 2.4359297987	 0.7445201985	 1.2848168625	 0.105071
H	 0.1260782549	-1.2958044341	 1.8175598153	 0.10326
H	 2.8702036446	-2.5377041544	-1.7097414153	 0.256729
H	 3.2792584979	-3.9892308719	-0.8766477076	 0.257866
