14
gdb 77230	3.85475	1.06248	0.89993	2.4043	63.02	-0.2712	-0.0526	0.2186	1212.3264	0.098295	-473.803671	-473.794863	-473.793919	-473.838454	30.036	
O	 0.1310659142	 1.2150732075	 0.1042291985	-0.403388
C	-0.023330788	-0.1559166726	-0.0768477489	 0.045735
C	-1.4910208648	-0.5910161737	 0.0272680449	 0.042214
O	-1.5028655091	-1.1069790722	-1.3284699213	-0.296387
C	-0.1383114228	-0.6937248198	-1.5507494913	-0.067645
C	-0.0003000516	 0.3185571403	-2.5954291558	 0.293004
N	 0.1456277253	 1.1162859967	-3.4181431066	-0.309945
C	-1.8330391445	-1.6802698436	 1.0240375469	 0.128869
O	-1.2712764384	-1.8158233277	 2.0787946023	-0.228462
H	 1.0661741218	 1.4423817742	 0.0675047642	 0.303742
H	 0.6557059704	-0.7490520938	 0.5437857457	 0.116077
H	-2.1761684148	 0.2595516425	 0.1474684265	 0.136733
H	 0.5022969588	-1.5504026936	-1.7895031417	 0.133851
H	-2.6481077363	-2.3576432141	 0.6887384664	 0.105603
