19
gdb 120108	4.15769	1.03377	0.96404	4.2264	75.94	-0.2114	0.0531	0.2644	1266.0004	0.159228	-419.079453	-419.071328	-419.070384	-419.112686	31.673	
O	-0.3889611163	 1.7105527501	-0.0230091676	-0.423566
C	 0.0398685557	 0.37120716	 0.1148569301	-0.058088
C	-1.1441001047	-0.5903198477	 0.2481008721	-0.125505
N	-2.0328268916	-0.3623364097	-0.8993605689	-0.084126
C	-2.4911455763	-1.2529296192	-1.9222132124	-0.064008
C	-3.1257809618	-2.5981803223	-1.4024621498	-0.080865
N	-3.0083214273	-2.6514375697	 0.076842885	-0.330301
C	-4.0731498342	-1.8455014849	-0.5604754884	-0.074755
C	-3.4535770303	-0.4863406018	-1.0502304489	-0.060254
H	-1.0854928878	 1.6696329056	-0.6922701051	 0.276974
H	 0.6640385603	 0.061871177	-0.7413225041	 0.075412
H	 0.6651255629	 0.3177288513	 1.0132140575	 0.097784
H	-0.8011532197	-1.6250367375	 0.3031798827	 0.114409
H	-1.699710844	-0.3722628893	 1.1646609283	 0.110648
H	-2.2084078256	-1.0965127432	-2.9579501203	 0.098742
H	-3.2771256786	-3.4894833705	-1.996382911	 0.097953
H	-3.4346679523	-3.5282347247	 0.3764769613	 0.233631
H	-5.1224555687	-2.0201607972	-0.3633269484	 0.097587
H	-4.0527167898	 0.3899176936	-1.2746291823	 0.09833
