19
gdb 91267	3.13882	1.35195	1.12518	3.9822	75.21	-0.2362	0.0633	0.2995	1127.7969	0.161758	-419.254991	-419.246945	-419.246001	-419.287552	31.474	
C	-0.9715839726	 1.1928171067	-0.2080839966	-0.413163
C	-0.0758471793	-0.0288220637	-0.0922325023	 0.036896
C	 1.2855276027	-0.0395832473	-0.8544401116	-0.266203
C	 1.966945425	-0.6519944017	 0.4104175663	 0.014708
N	 3.0357477287	 0.0602495671	 1.0669179684	-0.344383
C	 2.543511136	 1.0679890459	 1.8910485095	 0.428002
O	 3.1882576929	 1.9162821729	 2.464209842	-0.407399
N	 1.1631385224	 0.9080797197	 1.9319466904	-0.336095
C	 0.6991889044	-0.2775710969	 1.2411585522	-0.020601
H	-0.4340507169	 2.0953451881	 0.0980651425	 0.128123
H	-1.3111259481	 1.3315259074	-1.2399675074	 0.1177
H	-1.861813948	 1.0984349925	 0.4242634244	 0.111524
H	-0.6412616417	-0.936145087	-0.3331050909	 0.073879
H	 1.3315059687	-0.6279807182	-1.7736830001	 0.100289
H	 1.6572723991	 0.9679335001	-1.0614481297	 0.109154
H	 2.1732752349	-1.7209027911	 0.3250465925	 0.088441
H	 3.9301377815	 0.2157232537	 0.6304532833	 0.250684
H	 0.667573842	 1.3167548805	 2.7062903042	 0.25242
H	 0.2781933084	-1.0228744187	 1.9246147627	 0.076024
