15
gdb 52958	4.49157	0.86826	0.7939	4.8518	77.96	-0.2498	-0.0095	0.2403	1438.2245	0.110739	-420.6004	-420.591871	-420.590927	-420.635199	30.246	
C	 0.0254130746	 1.4241497636	 0.0757548885	-0.509052
C	-0.0089225636	-0.0275503947	 0.012965435	 0.216197
C	-0.0359118224	-1.2313167775	-0.0312674423	-0.100131
C	-0.0481555437	-2.6442148889	-0.0947627698	 0.284423
C	-0.3833123347	-3.5300045146	-1.246812147	-0.326615
C	-1.1627829996	-3.6746401101	 0.0624269917	-0.322595
C	-0.2398633731	-4.293866796	 1.0756787421	 0.465028
O	-0.2639312986	-5.171712996	 1.8736298378	-0.322105
O	 0.8029441003	-3.4102372566	 0.8269461061	-0.287412
H	 0.7485364309	 1.759302132	 0.8270433172	 0.163803
H	 0.3167460535	 1.8591853708	-0.8862532911	 0.15641
H	-0.9528786386	 1.8336323224	 0.3499806016	 0.157052
H	-0.9490805525	-3.0698011784	-2.0503923977	 0.143898
H	 0.32611098	-4.2943508619	-1.5467971298	 0.142514
H	-2.2332188923	-3.5543408642	 0.1368021877	 0.138584
