20
gdb 93102	2.1909	1.76594	1.26463	1.7295	74.73	-0.2408	0.0245	0.2653	1070.8194	0.170297	-440.305533	-440.296319	-440.295375	-440.338801	35.146	
C	-0.012371914	 1.5513003247	-0.0785387575	-0.424423
C	 0.0430270873	 0.0396208514	 0.0512418396	 0.142252
O	 0.621894865	-0.4741161548	-1.1673371624	-0.243472
C	 1.0211432566	-1.7674129951	-1.1455403059	 0.127829
N	 1.1148662677	-2.5597267897	-0.1653601165	-0.270947
C	 0.7815708619	-2.0419580771	 1.1583024271	-0.201839
C	 0.8144845016	-0.5047347724	 1.2703380979	 0.297448
C	 2.2509695523	 0.02025041	 1.3538268583	-0.434246
O	 0.0523574963	-0.0746217532	 2.398697195	-0.471147
H	 0.9807154307	 1.9691595153	-0.2621444569	 0.125853
H	-0.656818561	 1.8315183843	-0.9158791338	 0.124613
H	-0.4170918203	 1.9819381769	 0.8395980125	 0.141325
H	-0.9790903486	-0.354440987	 0.1262203334	 0.096488
H	 1.2925574559	-2.0886311431	-2.1497042233	 0.122644
H	-0.2210237376	-2.3867423636	 1.4402588508	 0.118006
H	 1.4777182979	-2.4872199829	 1.8809249957	 0.096453
H	 2.828915093	-0.2440570786	 0.4641821619	 0.137906
H	 2.2655843348	 1.1061202664	 1.4714464841	 0.126053
H	 2.7584765813	-0.4227969646	 2.2187518823	 0.108317
H	 0.5197417492	-0.3490781269	 3.1946864776	 0.280888
