19
gdb 82939	2.12442	1.8152	1.49676	0.5535	73.98	-0.2465	0.0776	0.3241	1003.4269	0.159093	-422.99389	-422.985763	-422.984819	-423.026027	32.251	
C	-0.2412044959	 1.5793328952	 0.0395140766	-0.425496
C	 0.036618971	 0.0910397635	 0.0998737819	-0.06452
C	 1.3496900791	-0.6082712624	-0.2255617937	-0.121118
C	 2.7050619322	 0.1081894577	-0.1349014098	-0.26965
C	 2.9306911515	 0.406722405	 1.3455407681	 0.049157
O	 2.0118484603	 1.3476680701	 1.9188523443	-0.251936
C	 1.7604938803	-0.0505633558	 2.1102574934	-0.045469
C	 0.7617933998	-0.7020577375	 1.1677470671	 0.339643
O	 0.2284758412	-1.9153409114	 1.6139779771	-0.464913
H	 0.6241378011	 2.1784123217	 0.3125894928	 0.147055
H	-0.5575201966	 1.8523545949	-0.9739210032	 0.107758
H	-1.0565716259	 1.8492410131	 0.7202828482	 0.111376
H	-0.797408852	-0.5010056649	-0.2769074757	 0.087959
H	 1.2859530716	-1.4652968898	-0.8871017263	 0.09497
H	 3.495653173	-0.5615723942	-0.489925995	 0.11034
H	 2.7614249577	 1.0205181338	-0.7391591104	 0.116879
H	 3.939480283	 0.4529317807	 1.7497027864	 0.096925
H	 1.8029077405	-0.4076489718	 3.135952079	 0.096871
H	-0.5590113919	-1.7218362378	 2.1342934493	 0.28417
