23
gdb 59473	3.02936	1.01537	0.83758	0.5934	87.65	-0.2211	0.0757	0.2968	1464.9312	0.205054	-384.414656	-384.404748	-384.403803	-384.449708	37.124	
C	 0.2538373875	 0.9103944849	-2.0435967145	-0.385298
C	 0.2463528561	 0.0755236605	-0.7609853493	 0.085369
C	 0.4893292001	 0.9393552124	 0.4783060486	-0.389494
N	-1.0646441245	-0.5721161267	-0.6439056471	-0.083747
C	-1.2896580114	-1.8192907803	-1.3602480454	-0.268223
C	-1.2341542312	-1.801103632	 0.1323070426	-0.016754
C	-0.1260224135	-2.4938941254	 0.8638847782	 0.012497
C	-0.1260175251	-2.5157048424	 2.3499641858	-0.245555
N	-0.4266218289	-3.7409948043	 1.5901040062	-0.329667
H	 1.2160899305	 1.4164804562	-2.1690225542	 0.109568
H	 0.0834071359	 0.281968982	-2.9232669678	 0.113185
H	-0.536748377	 1.6664419787	-2.0086848334	 0.122954
H	 1.0596041786	-0.6669733299	-0.8368626573	 0.059421
H	-0.3003921429	 1.6909885332	 0.5754298472	 0.122547
H	 0.4946688097	 0.3320397519	 1.387847849	 0.120312
H	 1.4522555221	 1.4544769594	 0.4065459779	 0.110186
H	-2.2354169076	-1.9132802165	-1.8882896249	 0.112472
H	-0.4398268459	-2.2767347437	-1.8684384933	 0.108221
H	-2.1782088147	-1.8286441775	 0.6811576681	 0.080117
H	 0.8317493966	-2.5266777127	 0.3522989707	 0.097144
H	 0.8115345418	-2.5353530093	 2.8982250682	 0.12047
H	-0.9392153298	-2.004957414	 2.8605370028	 0.113435
H	-1.4317381363	-3.9046412644	 1.5847878816	 0.230841
