18
gdb 87744	4.95141	0.85287	0.81088	4.5659	77.98	-0.2752	0.0269	0.3021	1424.2661	0.146669	-401.941217	-401.932505	-401.931561	-401.974945	32.29	
C	 0.1102980562	 1.5002321564	-0.2253944592	-0.417159
C	 0.026157885	 0.0173844035	 0.0184492816	-0.027829
O	 1.2701257097	-0.7131120087	 0.0224206156	-0.288243
C	 0.5429696995	-0.6343138357	 1.2268304049	 0.440068
C	 1.0557152346	-0.0035251484	 2.5250011123	-0.325819
C	 0.1221821602	-1.000924744	 3.2944211696	-0.146123
C	-0.019100307	-1.8428312721	 1.9799050847	-0.327197
C	 0.6623787134	-1.6634292734	 4.4675001007	 0.273165
N	 1.1047411682	-2.195235185	 5.3941552942	-0.323629
H	 0.9172029764	 1.9508165135	 0.3578756071	 0.130143
H	 0.3022003072	 1.7024322257	-1.2840297474	 0.137538
H	-0.8334569868	 1.9876224631	 0.042878136	 0.124261
H	-0.7732005645	-0.499317974	-0.5167818423	 0.095694
H	 2.1118553411	-0.2287504985	 2.6911312212	 0.140755
H	 0.8808218166	 1.0601766667	 2.6953386306	 0.12282
H	-0.8252099839	-0.5243448502	 3.5575709753	 0.127916
H	-1.019999582	-2.195937767	 1.7258368986	 0.123077
H	 0.6789306559	-2.6834517019	 1.9634483763	 0.140562
