15
gdb 55665	2.09997	1.12864	0.85983	3.7098	67.25	-0.2733	-0.0504	0.2229	1330.5042	0.110293	-454.000173	-453.990485	-453.989541	-454.036446	32.772	
N	-0.0774868622	 1.2903978436	 0.0314708829	-0.524922
C	 0.0396168696	-0.0411364576	 0.268127649	 0.434162
O	 1.0455598638	-0.5465536479	 0.7306183228	-0.354506
C	-1.211781336	-0.8648404465	-0.0449790636	-0.349267
C	-0.8515164735	-2.3442444919	-0.2401072925	-0.222526
C	-1.9023689719	-3.3058869786	 0.3370732962	 0.156016
O	-2.7627130665	-2.9624036139	 1.099378686	-0.229987
C	-0.5620414154	-2.6968318906	-1.6280539917	 0.253304
N	-0.3667651245	-2.989684788	-2.7288851311	-0.310532
H	 0.7076071211	 1.885805003	 0.2388374983	 0.270568
H	-0.8947688332	 1.6943340799	-0.3906468689	 0.266937
H	-1.8879990027	-0.8039802784	 0.8154445154	 0.169774
H	-1.7514565971	-0.4675620277	-0.9085717083	 0.131035
H	 0.07053037	-2.516809425	 0.3423832317	 0.189585
H	-1.7826604916	-4.3604620406	 0.0169151137	 0.12036
