17
gdb 57985	3.67022	0.88973	0.78051	4.0284	70.57	-0.2664	-0.0132	0.2532	1442.2156	0.133809	-455.153024	-455.143243	-455.142299	-455.188712	34.357	
C	 0.5588426764	 1.2776694486	 0.1677006775	-0.393366
C	-0.1868825678	-0.0355749511	-0.1086103845	 0.093641
O	-1.5507561596	 0.212579597	-0.3293355652	-0.438514
C	 0.4129094563	-0.7766795492	-1.2915031779	 0.401099
N	-0.2766139237	-0.9786381359	-2.3301152912	-0.548963
O	 1.7037888091	-1.1366297468	-1.0276948748	-0.227321
C	 2.4615435285	-1.7272592849	-2.0687151729	-0.223768
C	 2.070819003	-3.1157268228	-2.3570860845	 0.259068
N	 1.7772828822	-4.2067620142	-2.5962840109	-0.283093
H	 1.6077669712	 1.095249955	 0.4149391233	 0.119491
H	 0.5022076069	 1.934737047	-0.7053935811	 0.12325
H	 0.0796910544	 1.7843610641	 1.0085888905	 0.134746
H	-0.0666785734	-0.6953703295	 0.765898287	 0.10065
H	-1.7449371837	-0.1219769417	-1.2185683621	 0.297244
H	 0.1649614144	-1.5116366097	-3.0738603703	 0.240995
H	 2.3960762771	-1.1358366893	-2.9905757984	 0.1644
H	 3.4988509787	-1.7134259966	-1.7260713447	 0.180441
