14
gdb 123326	4.14648	1.2796	1.06489	5.0472	74.87	-0.256	-0.0011	0.2548	1077.9503	0.101866	-395.648702	-395.641539	-395.640594	-395.680722	26.76	
C	-0.4604316502	-1.3338673678	-0.0937497669	-0.416247
C	-0.2190063583	-0.1587536411	-0.0386304765	 0.345073
C	 0.0452655419	 1.2607476544	 0.0347370087	-0.174951
C	-0.199194142	 1.9926955725	 1.4290291443	-0.393609
C	 1.2878821882	 2.321123542	 1.3870227007	 0.309992
C	 2.5276953788	 2.842994945	 1.6766253122	-0.206235
N	 3.3632550187	 2.4507931953	 0.660480183	-0.177623
N	 2.7270665935	 1.7353514442	-0.2389062865	-0.177813
N	 1.4714665889	 1.6651652445	 0.2327908664	 0.107522
H	-0.6640429336	-2.3753528032	-0.147170951	 0.216342
H	-0.3994118235	 1.7922286169	-0.8109983385	 0.146614
H	-0.8802137965	 2.8431864968	 1.3695294632	 0.143891
H	-0.5138355735	 1.3162330276	 2.2241914538	 0.149459
H	 2.8895799777	 3.4411389429	 2.4950705072	 0.127586
