18
gdb 52282	4.22336	0.69638	0.62591	3.5423	74.99	-0.2468	-0.036	0.2108	1710.4431	0.145568	-439.084488	-439.075145	-439.0742	-439.120373	32.447	
O	-0.4439476706	 0.6730620864	 0.978807937	-0.236459
C	 0.0296519612	 1.0286184143	-0.069029173	 0.15922
C	 1.3501015676	 1.7466392936	-0.2255754199	-0.277916
C	 1.2044736679	 3.0566336091	-1.0170403032	-0.191925
C	 2.5567444144	 3.7045457638	-1.3018625649	-0.101479
N	 3.4513309034	 2.9345002537	-2.2157484914	-0.326082
C	 3.6666952559	 4.0971594169	-3.1214160683	-0.284082
C	 2.5851670265	 4.851447647	-2.3318554477	 0.384209
O	 1.9836428676	 5.8724372244	-2.4701835586	-0.281651
H	-0.5039596702	 0.8422866204	-1.0312794958	 0.073194
H	 1.7777143907	 1.91414991	 0.7677802226	 0.117577
H	 2.0236065177	 1.0841599448	-0.7884693846	 0.132591
H	 0.7033121275	 2.8539151522	-1.9711241217	 0.110732
H	 0.5812306629	 3.7719720914	-0.4683787683	 0.126504
H	 3.0361225604	 4.0109674773	-0.3593935523	 0.099065
H	 4.3011203022	 2.6056332194	-1.7738788424	 0.229027
H	 4.6485379996	 4.5845106571	-3.0497470036	 0.128624
H	 3.4504653553	 3.9005741584	-4.1770161639	 0.13885
