14
gdb 15326	3.22581	1.31767	0.99745	4.3121	71.92	-0.2556	0.0046	0.2602	1150.0381	0.106222	-341.541002	-341.532562	-341.531618	-341.576194	28.506	
C	 0.0772636381	 1.5037372461	 0.0322183448	-0.501651
C	 0.0567816484	 0.050031004	 0.0585052655	 0.122716
C	 0.0265030679	-1.1528952942	 0.0898843046	 0.130423
C	-0.0050286048	-2.585888628	 0.0930778449	-0.253544
N	-0.6121945414	-3.2666038338	 1.2513888711	-0.301245
C	-1.2904246151	-3.3657388029	-0.0492048514	-0.188254
C	-2.5638306402	-2.7004144297	-0.1764262461	 0.340929
N	-3.5879921189	-2.1842430203	-0.3185521354	-0.328223
H	 0.8125828756	 1.8755957918	-0.6893486188	 0.152772
H	-0.9022694372	 1.9038376972	-0.2501087468	 0.162847
H	 0.3359204436	 1.9125865953	 1.0148602932	 0.156321
H	 0.8533308732	-3.0705350234	-0.3692899763	 0.121959
H	-0.1232475299	-4.1373407593	 1.4449045105	 0.249128
H	-1.2289630694	-4.2997602227	-0.6018145698	 0.135821
