22
gdb 5816	3.34829	1.55499	1.31467	1.321	78.32	-0.2511	0.0706	0.3218	1059.121	0.197859	-350.210567	-350.201259	-350.200315	-350.243425	36.524	
C	-0.2353604133	 1.5350544228	-0.0029672967	-0.443981
C	-0.0431566629	 0.016877425	 0.0089242531	 0.363739
C	-1.3627896885	-0.7067771799	-0.2418777273	-0.451484
C	 1.1558152272	-0.4379980426	-0.8867724857	-0.283953
C	 2.045650553	-0.5854498834	 0.3737862804	 0.416271
C	 2.8851750111	-1.8470215152	 0.5122415349	-0.447998
O	 2.8672680763	 0.5779666996	 0.4576635191	-0.473809
C	 0.76490128	-0.4711685654	 1.2566549438	-0.312777
H	 0.7135986155	 2.0477247161	 0.1740413017	 0.13087
H	-0.6300029121	 1.8712670588	-0.9691437013	 0.105212
H	-0.9444897233	 1.8453710765	 0.7739099037	 0.102559
H	-1.7863019597	-0.4295397194	-1.2146926357	 0.110664
H	-1.2313705394	-1.7945291238	-0.2338134213	 0.10309
H	-2.1044811042	-0.4546715639	 0.5255132271	 0.109559
H	 0.9737025278	-1.3956854973	-1.3825812818	 0.087383
H	 1.5257390122	 0.281868228	-1.6205177938	 0.104041
H	 3.6758496854	-1.8627769525	-0.2446687039	 0.12301
H	 3.3596779859	-1.8926091559	 1.5011066811	 0.102423
H	 2.2734424617	-2.7471943526	 0.3972571891	 0.111572
H	 3.2745929011	 0.5849594254	 1.3312388595	 0.27158
H	 0.8348701641	 0.2248411117	 2.0982016353	 0.085448
H	 0.4215068421	-1.441765762	 1.6279427588	 0.086583
