23
gdb 119906	2.70719	0.86701	0.8105	2.1106	82.92	-0.2295	0.0654	0.2949	1590.9173	0.202366	-425.412886	-425.401704	-425.40076	-425.449357	40.871	
C	 0.0368731124	 1.5213721458	-0.1442755562	-0.383329
C	 0.202199166	 0.0022110784	-0.0588303367	-0.155367
C	 0.5479698629	-0.4826562696	 1.3565413172	-0.199775
C	 0.6777724817	-1.9901218664	 1.4321378202	-0.070118
C	 1.9874194932	-2.6901974242	 1.1375634777	-0.000164
O	 3.077734881	-1.8629695243	 0.8390523923	-0.412373
C	 1.3996894991	-2.7187497087	 2.5386875707	 0.307822
C	 2.0817289091	-1.9955927125	 3.6757193845	-0.457888
O	 0.7457754408	-3.9087711011	 2.9137805179	-0.459237
H	 0.9568089239	 2.0366811507	 0.1541911869	 0.113731
H	-0.2070362919	 1.8408781398	-1.1623983966	 0.108833
H	-0.7653228381	 1.8715705348	 0.5153645579	 0.11049
H	-0.7212570714	-0.4878938891	-0.3947643017	 0.090243
H	 0.9917950633	-0.3252859438	-0.7455844255	 0.110734
H	 1.4808060355	-0.0063556409	 1.6726699497	 0.10664
H	-0.2297802245	-0.1496705094	 2.0572137522	 0.091725
H	-0.1949695315	-2.5331137907	 1.0771509254	 0.094976
H	 1.9380073583	-3.6210916651	 0.5719287703	 0.083874
H	 3.8761940088	-2.2817215704	 1.1768359095	 0.287668
H	 2.6355258165	-1.1237940598	 3.3226685802	 0.13215
H	 1.3522299466	-1.6717198442	 4.4245167443	 0.127805
H	 2.7964022211	-2.6628818595	 4.1760741348	 0.097545
H	 1.4140040773	-4.5236138997	 3.2384562451	 0.274012
