17
gdb 32709	4.25227	1.04266	0.89833	0.6807	81.98	-0.2291	-0.0536	0.1755	1306.5736	0.136937	-418.039418	-418.03115	-418.030206	-418.073984	29.957	
C	-0.2409840613	 1.4669851612	 0.1547541144	-0.363674
C	 0.0873190398	-0.0222209891	-0.0076792592	-0.143131
N	 0.7680216936	-0.5337086552	 1.1719088231	-0.321777
C	 0.1468375134	-1.1780976729	 2.0612751593	 0.412426
O	-1.2413154432	-1.4425252029	 1.946060779	-0.230564
C	-1.875058377	-2.151136342	 2.8976870643	 0.143104
N	-1.373509191	-2.6394275179	 3.963360769	-0.28351
C	-0.0110460891	-2.4032781601	 4.1464896209	-0.00708
C	 0.740941709	-1.7152318417	 3.2676633902	-0.170013
H	 0.6620683868	 2.0352099075	 0.3947327588	 0.127595
H	-0.6692539095	 1.8671498405	-0.7696671222	 0.112115
H	-0.9639700515	 1.6204647279	 0.9619147668	 0.118025
H	-0.8285790404	-0.5792299139	-0.2416118733	 0.102232
H	 0.7725662084	-0.1451452392	-0.8541315537	 0.105726
H	-2.9270739356	-2.2731065748	 2.6549520111	 0.14454
H	 0.4101255822	-2.8172399486	 5.0562341092	 0.12518
H	 1.7982862653	-1.5375787087	 3.4124673122	 0.128807
