16
gdb 97050	6.33134	0.87046	0.77261	2.4899	91.43	-0.2325	-0.0566	0.1759	1431.3811	0.123044	-400.739951	-400.731139	-400.730195	-400.774579	31.422	
C	-0.0445028454	 1.4618725325	-0.0670423358	-0.337966
N	-0.1298919327	 0.0130869144	-0.0926154284	-0.343337
C	 0.4876103129	-0.6371293905	-0.9821601306	 0.480014
O	 1.2735694922	-0.0916038354	-1.9817803276	-0.261562
C	 1.8063295827	-1.1309691341	-2.7954967828	-0.180837
C	 1.2667599526	-2.414706047	-2.1970439133	 0.162471
C	 0.5018947212	-2.0901065611	-1.1416063529	-0.331032
C	 1.5719778105	-3.6829101299	-2.7281968329	 0.211241
C	 1.8607166841	-4.7455792987	-3.2174325705	-0.387573
H	 0.5768109405	 1.8962345912	-0.8578467224	 0.124514
H	-1.0553622122	 1.8798299436	-0.1435271463	 0.12684
H	 0.3507978911	 1.7784534526	 0.9055316417	 0.126847
H	 1.4814707542	-0.9898334797	-3.8341483256	 0.135299
H	 2.9027941463	-1.0923596271	-2.7726066038	 0.135299
H	-0.0371976621	-2.7541918596	-0.4839511598	 0.137065
H	 2.1060063942	-5.6900107412	-3.637074519	 0.202717
