19
gdb 111661	2.23345	1.5943	1.27727	2.7079	75.58	-0.2342	-0.0092	0.225	1086.1474	0.159506	-423.035799	-423.027377	-423.026432	-423.069153	31.565	
C	 0.0423932287	 1.0765258317	 0.4984168351	-0.246685
O	-0.1369376619	 0.0354678433	-0.4486795073	-0.236242
C	-1.332483459	-0.6480298339	-0.2819968378	 0.126032
C	-1.4461398529	-2.0422891073	-0.7665066592	-0.12135
C	-0.146720184	-2.7901856387	-1.0852998369	-0.222702
C	 0.718781849	-2.7213858829	 0.188337284	-0.326754
C	-0.2357067511	-2.3448402271	 1.3284161752	 0.431143
O	-0.0298120147	-2.5185713145	 2.5051886387	-0.341105
C	-1.491419596	-1.7761697057	 0.7439993977	-0.224787
H	 0.9908407764	 1.5630502157	 0.2621484405	 0.132236
H	-0.7669098815	 1.8182900606	 0.4327466765	 0.111856
H	 0.077926714	 0.6844272933	 1.5234734639	 0.131077
H	-2.2178675546	-0.0160745541	-0.3741816302	 0.096613
H	-2.3433810384	-2.325424632	-1.3056963908	 0.09745
H	-0.3921959251	-3.8299161926	-1.3222256588	 0.109508
H	 0.3559049455	-2.3652198944	-1.958203272	 0.117045
H	 1.2277609752	-3.6578305466	 0.4269223416	 0.123522
H	 1.479784802	-1.9383149633	 0.1190270858	 0.139689
H	-2.3904996317	-1.8073026815	 1.3467588441	 0.103452
