13
gdb 25262	3.39191	1.68538	1.13396	5.4637	66.04	-0.2545	-0.0438	0.2107	971.656	0.091942	-456.619188	-456.612921	-456.611977	-456.649997	24.02	
O	 0.0024097463	-0.0302410954	 0.0040515713	-0.348744
C	 0.0564694871	 1.1642278364	 0.0091211562	 0.402754
O	-1.0748743984	 1.9677662028	 0.0287482167	-0.25358
C	-0.7499217986	 3.3763737002	 0.0310168759	-0.192652
C	 0.7438358017	 3.4017615889	 0.0102887396	 0.225499
C	 1.1640044683	 2.11576116	-0.001773124	 0.133131
O	 2.509466129	 2.0167545832	-0.0210710895	-0.182967
C	 2.9519051259	 3.3065991927	-0.0209509606	 0.009766
C	 1.9200497895	 4.2062895956	-0.0022693797	-0.368531
H	-1.2126529383	 3.8367508353	-0.8487195527	 0.143109
H	-1.1878580808	 3.828175996	 0.9277283544	 0.143107
H	 4.0233354428	 3.425689291	-0.0353018429	 0.155551
H	 2.0167824954	 5.2802963133	 0.0015403051	 0.133556
