16
gdb 60989	2.21719	1.213	0.92384	4.5789	70.26	-0.2657	-0.0428	0.223	1269.5176	0.121321	-437.877317	-437.867971	-437.867027	-437.912939	32.109	
C	 0.2919426788	 1.2594861501	 0.2548478941	-0.411753
C	-0.2440956855	-0.1630028797	-0.0152431755	-0.125569
C	-1.7621848746	-0.1057243981	-0.1080302141	 0.161211
O	-2.5159037809	-0.531660132	 0.7242942009	-0.231666
C	 0.3366854684	-0.6956761273	-1.3090401984	 0.069006
O	 1.7419729412	-0.9272886751	-1.3431446971	-0.232223
C	 0.8816699371	-2.0636379773	-1.4656205686	-0.112121
C	 0.8929705481	-3.0037548443	-0.3658083528	 0.312941
N	 0.8985973146	-3.7738706171	 0.4958020013	-0.321399
H	 1.3841561695	 1.2419210006	 0.278753641	 0.152652
H	-0.0219576852	 1.9602863413	-0.526825531	 0.125716
H	-0.075960663	 1.6300703002	 1.2146755024	 0.143333
H	 0.0166142233	-0.8233981185	 0.8158310999	 0.131197
H	-2.1446829348	 0.4128734966	-1.0203005817	 0.076663
H	-0.0506782865	-0.233666589	-2.2201468668	 0.115459
H	 0.8689218296	-2.5291548404	-2.4493753638	 0.146554
