17
gdb 74893	2.78256	1.65474	1.16691	0.994	75.95	-0.2186	-0.0594	0.1592	1045.122	0.137861	-418.033112	-418.02547	-418.024526	-418.06508	30.387	
N	 0.0274733639	 1.2055297161	 0.4793463235	-0.542809
C	-0.0595678651	-0.1216198492	 0.1552825476	 0.262089
N	-1.1573656804	-0.7768868983	 0.2526487614	-0.288288
C	-1.1950665884	-2.1576788507	-0.0946048529	 0.020166
C	-0.8779659885	-2.5899857985	-1.513498783	-0.296203
C	 0.0678025788	-2.9425074164	-0.3934684454	-0.054838
C	 1.3878402494	-2.2214808077	-0.2365340241	-0.330987
C	 1.269123693	-0.7114923228	-0.2747569585	 0.337423
O	 2.1899015238	 0.0148684967	-0.584148999	-0.32787
H	 0.8289605746	 1.6882002328	 0.1030554831	 0.267606
H	-0.8404565199	 1.713121602	 0.5381587429	 0.257003
H	-2.0094844886	-2.682231326	 0.3944704408	 0.095608
H	-1.4654757359	-3.3850579731	-1.959367528	 0.116512
H	-0.5913376724	-1.7991397021	-2.2007651773	 0.117466
H	 0.0807245862	-3.9838922059	-0.0869162159	 0.092415
H	 1.8215320851	-2.4528023384	 0.7478499169	 0.140301
H	 2.1335967743	-2.5267728385	-0.9780444222	 0.134407
