17
gdb 71974	2.79719	1.68302	1.22586	4.5039	77.89	-0.237	0.0167	0.2537	1018.9111	0.137031	-380.821903	-380.814277	-380.813332	-380.853776	29.839	
C	-0.0223109015	 1.4533800306	-0.0229406784	-0.514155
C	-0.0142248553	-0.0398310818	-0.0180140959	 0.30114
N	 0.9389388123	-0.8505957614	-0.8118430167	-0.353177
C	 0.0666447849	-2.0277364583	-0.4581688915	-0.061394
C	 0.4228005325	-2.2416287582	 1.0305930873	-0.263492
C	-0.2789370763	-0.8990372332	 1.2562606259	 0.182033
C	-0.6857563041	-0.3094669452	 2.4847349524	 0.173263
N	-1.01669468	 0.1748842785	 3.4836366787	-0.361411
C	-1.1097292684	-1.0592781184	-0.0307320025	-0.187419
H	 0.9552202764	 1.8395989987	 0.2827191227	 0.145953
H	-0.2467437084	 1.8394579119	-1.0231111621	 0.124925
H	-0.7742464812	 1.8420731986	 0.6691776322	 0.150053
H	 0.7619012661	-0.6218683777	-1.7909951616	 0.218478
H	 0.0208311975	-2.8516812482	-1.1651200238	 0.090846
H	-0.1457182967	-3.0580115408	 1.4809424614	 0.119021
H	 1.4855557633	-2.3204999288	 1.2704852297	 0.120427
H	-2.1836388311	-1.0274485462	-0.1610005077	 0.11491
