18
gdb 14037	4.61165	1.58553	1.47158	1.8879	71.72	-0.2427	0.0212	0.2639	908.3514	0.15517	-347.791647	-347.784548	-347.783604	-347.823871	26.832	
C	 0.3075477675	 1.6004679942	 0.0153006763	-0.126513
O	 1.6204597363	 1.2524663733	 0.4950339347	-0.273161
C	 1.3217365588	-0.1545333892	 0.423678863	-0.109648
C	-0.1145427805	 0.1183444265	-0.0983369074	 0.307184
C	-1.2657393849	-0.3859309492	 0.8042744549	-0.334276
C	-1.8269914188	-1.559236647	 0.0380421036	-0.060886
C	-1.3774887508	-1.5911586974	-1.2154401914	-0.060884
C	-0.4384353694	-0.4446854348	-1.5027389022	-0.334282
H	-0.2532483162	 2.196326051	 0.7481384139	 0.094422
H	 0.3496270848	 2.1535119392	-0.9328360628	 0.09442
H	 1.9874908752	-0.6803924511	-0.2736644593	 0.095302
H	 1.3844595252	-0.6376466939	 1.4079093424	 0.095304
H	-0.9174639341	-0.6467068798	 1.8107380549	 0.106493
H	-2.0331010682	 0.3913158065	 0.940272371	 0.106582
H	-2.5412864243	-2.2522462543	 0.4684083396	 0.093434
H	-1.6669740816	-2.3143362194	-1.9696997034	 0.093434
H	-0.9320733661	 0.3131202674	-2.130037308	 0.106583
H	 0.4655247472	-0.7449345722	-2.0458554501	 0.106492
