21
gdb 55389	3.22993	1.07807	0.92823	2.4747	84.23	-0.2382	-0.0086	0.2297	1337.8236	0.182699	-387.134172	-387.125002	-387.124058	-387.169067	34.027	
C	-0.0313327139	 1.5088512615	 0.0097448716	-0.482326
C	 0.0683056011	-0.0065367516	 0.0122281533	 0.368825
O	 1.1370869757	-0.5742426415	 0.0382209335	-0.305824
C	-1.2486268161	-0.7800283539	-0.004857912	-0.081408
C	-1.0995877374	-2.160900914	-0.6578362389	-0.19461
C	-2.4484942196	-2.8885861628	-0.7269081893	-0.274136
C	-3.2249629329	-2.7731736133	 0.5585766344	-0.033382
C	-2.9137305582	-1.9156271938	 1.528946998	-0.064836
C	-1.7710181158	-0.9361448689	 1.445627749	-0.249862
H	 0.9509285281	 1.9503368596	 0.1823242002	 0.140512
H	-0.4146763717	 1.8467092354	-0.9607863214	 0.141585
H	-0.7403881626	 1.8598314043	 0.7671056217	 0.135871
H	-1.9920313726	-0.1915083576	-0.5599143819	 0.075056
H	-0.6661787629	-2.0617858811	-1.6581853597	 0.096985
H	-0.3845921049	-2.7451045751	-0.0699953167	 0.119678
H	-3.0547241349	-2.4939347796	-1.5565203267	 0.10534
H	-2.2878794554	-3.9473196467	-0.9668431171	 0.106041
H	-4.0781091061	-3.4363299997	 0.6813826636	 0.084557
H	-3.4998146262	-1.8967176793	 2.4448930975	 0.085036
H	-0.9479215851	-1.2667931315	 2.0960762162	 0.123229
H	-2.0907534688	 0.0360764595	 1.8415240149	 0.103671
