17
gdb 128138	2.00892	1.78445	1.00229	3.9679	72.42	-0.2025	0.0338	0.2362	1165.2227	0.137009	-451.30804	-451.298901	-451.297957	-451.34171	33.971	
C	 0.4230359779	 1.3630790631	 0.4549554419	-0.328824
N	-0.1916574497	 0.2074417266	-0.2099220387	-0.412524
C	 0.5700812131	-0.382922422	-1.2452289041	-0.055785
C	 0.2638199074	-0.3404645668	-2.5796192898	 0.475068
N	-0.7617721139	 0.2853586411	-3.2378989411	-0.592987
O	 1.1805390806	-0.9741847235	-3.3077310647	-0.229477
N	 2.1813531831	-1.4999623594	-2.4298538953	-0.263991
C	 1.799832966	-1.1178224071	-1.2315686308	 0.386228
N	 2.5772989196	-1.3896822246	-0.116420485	-0.59106
H	 1.4025237337	 1.1504174856	 0.9084220751	 0.115536
H	 0.5617933502	 2.1632199535	-0.2777501441	 0.134212
H	-0.2525154742	 1.7285613073	 1.2346657107	 0.113028
H	-0.4976071609	-0.473991192	 0.4758244509	 0.220263
H	-1.5313168074	 0.5093577675	-2.6216811235	 0.263693
H	-1.0460779332	-0.1536776983	-4.1019042892	 0.263013
H	 3.2676646045	-2.109391782	-0.2871251003	 0.25845
H	 2.0398089033	-1.5818658593	 0.7172620979	 0.245157
