19
gdb 52456	8.11971	0.41024	0.40523	2.4097	75.64	-0.259	-0.0305	0.2286	2525.4337	0.156057	-460.194754	-460.184268	-460.183324	-460.233084	34.43	
O	 0.1404183583	-0.1697352667	-0.3352392834	-0.231808
C	 0.1810772432	 1.0175532992	-0.1450372466	 0.159207
C	 1.4242572986	 1.8723666074	-0.2507822284	-0.273498
C	 1.2422286472	 3.0214637226	-1.2575552522	-0.200975
C	 2.4506025279	 3.96301596	-1.2996625512	-0.18635
C	 2.2675741619	 5.0922851421	-2.3079833124	-0.092233
O	 3.3723721451	 6.0021064022	-2.2470180869	-0.174033
C	 4.2493627575	 6.0078726419	-3.2685244214	 0.171078
O	 5.2168091384	 6.7061490048	-3.2873028512	-0.270839
H	-0.7407656464	 1.5857886429	 0.1262132195	 0.0717
H	 1.6212214702	 2.296240083	 0.7447855501	 0.123122
H	 2.2681945359	 1.2307565264	-0.5201610838	 0.126499
H	 1.0640863773	 2.6002210016	-2.2553568963	 0.116504
H	 0.3404412037	 3.5928402747	-0.9991931475	 0.109237
H	 2.621860538	 4.4019243089	-0.3098594506	 0.1223
H	 3.3570653463	 3.4000921324	-1.5540265356	 0.113843
H	 2.1631681533	 4.6964101864	-3.3272388779	 0.1128
H	 1.370839839	 5.67843906	-2.0831047666	 0.127159
H	 3.9674762446	 5.30515776	-4.0782700976	 0.076287
