16
gdb 124717	5.04305	1.01773	0.85133	3.5328	77.54	-0.2098	-0.0073	0.2025	1303.8207	0.125977	-430.272654	-430.264081	-430.263137	-430.306316	30.889	
C	 0.0888453916	 1.457848473	-0.1489318422	-0.47294
C	 0.0193102967	-0.0115759814	 0.1810259075	 0.380213
N	 0.8303900486	-0.4236947424	 1.1872055424	-0.522902
N	-0.7905224895	-0.7562729227	-0.5028450845	-0.396643
C	-0.9152684825	-2.1057168071	-0.2650948934	 0.386218
N	-0.2651654351	-2.8497017929	 0.6552871933	-0.33811
N	-0.7498192769	-4.0755815922	 0.4642909781	-0.0748
N	-1.6558324867	-4.2102749724	-0.493433211	-0.197168
C	-1.7793730926	-2.9770108957	-0.9718525868	-0.124659
H	 1.1056482671	 1.7436067044	-0.4417966285	 0.131584
H	-0.5945358088	 1.675619876	-0.9677932951	 0.152788
H	-0.1857769561	 2.0654954576	 0.7209819213	 0.131892
H	 1.4263067708	 0.2306787397	 1.6615987444	 0.252788
H	 0.8289565527	-1.3982444447	 1.456009237	 0.280052
H	-0.4437322666	-4.8588328908	 1.0169095135	 0.287961
H	-2.4554785525	-2.7455715985	-1.7782809159	 0.123725
