22
gdb 74903	2.54157	1.48068	1.08234	1.5376	87.93	-0.2278	0.0212	0.249	1200.2403	0.196665	-367.204973	-367.196588	-367.195644	-367.237464	33.641	
C	-0.0611662629	 1.5867816962	-0.0401064094	-0.479552
C	-0.0000491517	 0.0846397279	 0.0030000139	 0.329243
C	 0.0385357214	-0.6621484266	-1.1059189239	-0.148056
C	 0.1235879188	-2.1491599238	-1.068701621	-0.078385
N	 1.3305749795	-2.7795527001	-1.6546470526	-0.343549
C	 1.1262383533	-2.8165562013	-0.1927425111	-0.021521
C	 2.0779027167	-1.9669267877	 0.6268850971	-0.194538
C	 1.3912493899	-1.1898756891	 1.7678115134	-0.195512
C	 0.0257293461	-0.5678848599	 1.37706043	-0.293892
H	 0.7870921243	 2.030289808	 0.4981014213	 0.122964
H	-0.0494902947	 1.9665940366	-1.0652568264	 0.119845
H	-0.9676037472	 1.9602352051	 0.4541528435	 0.121632
H	 0.0171118008	-0.1902755419	-2.0864234747	 0.079757
H	-0.8155610499	-2.6799807471	-1.2326409674	 0.084216
H	 1.0766059161	-3.6756165406	-2.0636703501	 0.225427
H	 0.8330034967	-3.7692314877	 0.2461489524	 0.073645
H	 2.8844205802	-2.5878541374	 1.0345655353	 0.089369
H	 2.5483883539	-1.2623122801	-0.0632293895	 0.118167
H	 1.227725649	-1.8443610783	 2.6325313766	 0.093508
H	 2.0750810837	-0.4038377035	 2.1089466062	 0.097779
H	-0.2620241429	 0.1607754992	 2.1425713271	 0.090561
H	-0.7343128111	-1.3558810078	 1.407276259	 0.108892
