17
gdb 25029	4.119	1.05286	0.89837	4.0994	76.51	-0.185	0.0409	0.226	1280.0565	0.13774	-418.055707	-418.047587	-418.046642	-418.088695	30.881	
O	 0.0010351216	-0.042775022	-0.1374629515	-0.434674
C	-0.0310909202	 1.1693440021	-0.0554344517	 0.44276
N	-1.1115903899	 1.9955867208	 0.212672477	-0.337281
C	-0.7321585866	 3.3393046161	 0.2188789099	-0.211446
C	 0.5925860949	 3.3954572462	-0.0453560745	 0.363148
N	 1.0166189524	 2.0733202024	-0.2121580459	-0.424741
C	 1.4827723595	 4.5589596681	-0.1538530498	-0.080543
C	 2.9221295921	 4.5074712504	 0.3213640823	-0.277393
C	 2.6251442806	 4.5975512813	-1.1507008921	-0.277452
H	-2.0315689277	 1.6282356619	 0.3747745064	 0.267111
H	-1.4314801587	 4.1346995304	 0.4089329342	 0.134327
H	 1.9472753698	 1.758843092	-0.4206618232	 0.263676
H	 0.9618438536	 5.4966321958	 0.0085937594	 0.093732
H	 3.3193481483	 5.3814564434	 0.8249255934	 0.122292
H	 3.2886544743	 3.5660581685	 0.7166879535	 0.117109
H	 2.7881923445	 3.717922383	-1.7643391726	 0.117068
H	 2.8175237216	 5.5336760395	-1.6624336747	 0.122305
