18
gdb 49312	3.18422	1.20114	0.90303	6.1441	80.77	-0.2162	-0.0229	0.1933	1254.9229	0.149657	-439.101015	-439.092842	-439.091898	-439.134052	30.668	
O	-0.1573423606	-0.0056483542	-0.362461314	-0.318901
C	 0.0088610953	 1.1989097442	-0.3242393209	 0.109885
C	 1.2267502044	 1.8636417141	 0.1172355058	 0.102552
C	 1.2103401486	 3.2215816238	 0.0723356546	-0.018288
N	 2.167075932	 4.1338641092	 0.3871912039	-0.30971
C	 3.3254478051	 3.9055583939	 1.2407801064	-0.15835
C	 4.0391089927	 2.5803686639	 0.9885803211	-0.074039
O	 3.2900137157	 1.4816568063	 1.4472543553	-0.236473
C	 2.3757710372	 0.96249745	 0.4965436201	-0.194462
H	-0.8050680899	 1.8938629379	-0.6418332282	 0.047649
H	 0.298711467	 3.6836941048	-0.3040708004	 0.109835
H	 1.8639333458	 5.0935532196	 0.3473318974	 0.252184
H	 4.0257355526	 4.7311869005	 1.0724348972	 0.111105
H	 3.033042102	 3.921029223	 2.301417183	 0.123012
H	 4.2940256884	 2.4741165671	-0.0777512744	 0.098753
H	 4.972935427	 2.5913200458	 1.5617681228	 0.113778
H	 1.9665755233	 0.0446040901	 0.9247264194	 0.138767
H	 2.9269610834	 0.6688716501	-0.4145747792	 0.102703
