17
gdb 54972	3.40338	1.06405	0.97147	4.9325	70.86	-0.253	-0.0318	0.2212	1239.3328	0.13377	-455.169542	-455.160082	-455.159138	-455.204087	34.058	
C	 0.2908176923	 1.3454763955	 0.3657873072	-0.463084
C	 0.0091929884	-0.1218578495	 0.142741074	 0.197561
C	 0.692541178	-0.8659116053	-0.9891755737	-0.293233
N	 1.0135809124	-1.1509037827	 0.3897956918	-0.14952
C	 2.2466975198	-0.8669025525	 1.0089038867	 0.419701
N	 3.3171323937	-1.4382388593	 0.3582340996	-0.537183
O	 2.3419142465	-0.2142893588	 2.0241660819	-0.367375
C	-1.3771416392	-0.5942556985	 0.4774695632	 0.140385
O	-2.3050537705	 0.1372289227	 0.7034032313	-0.250938
H	 1.255018692	 1.6350329194	-0.0570789031	 0.123648
H	-0.5001820137	 1.9366783767	-0.1016445111	 0.138581
H	 0.3086877236	 1.5716817402	 1.4335942077	 0.160428
H	 0.1729823577	-1.6515253648	-1.5336417537	 0.127507
H	 1.3983469791	-0.2823076238	-1.5758227902	 0.141622
H	 3.1461730343	-2.2129367661	-0.2628746765	 0.262003
H	 4.1619074477	-1.4882249983	 0.9060701375	 0.267897
H	-1.4752031222	-1.7027819249	 0.4896734773	 0.082001
