18
gdb 53609	3.4202	0.79588	0.72959	3.8721	82.8	-0.2437	0.0307	0.2744	1614.7123	0.146361	-401.946498	-401.936657	-401.935712	-401.983894	33.277	
C	 0.013937134	 1.4879899315	 0.2818942334	-0.496723
C	 0.0009849567	 0.0411433645	 0.1216442738	 0.046924
C	-0.0009768186	-1.1536977995	-0.0247176701	 0.079811
C	-0.0185687324	-2.6089823391	-0.1746518918	-0.324382
N	-1.3462583853	-3.1778818084	-0.0719829464	-0.060467
C	-2.3933677814	-3.0716234851	 0.947961029	-0.166658
C	-3.31821363	-3.8616009297	-0.0226547578	-0.370708
C	-2.1170972022	-3.8424674439	-0.9976934135	 0.410889
O	-1.8815336959	-4.2240220935	-2.1138913118	-0.369876
H	 0.7997283025	 1.9449243544	-0.32943067	 0.153623
H	-0.9409167584	 1.9286033023	-0.0247614704	 0.151787
H	 0.194046949	 1.774513104	 1.3237376648	 0.148991
H	 0.3557647819	-2.9040341069	-1.1620636125	 0.165103
H	 0.6485230578	-3.0664684484	 0.5699494543	 0.134209
H	-2.1509442635	-3.5763566494	 1.8893340932	 0.110376
H	-2.7019226096	-2.0418550843	 1.15374696	 0.119509
H	-3.6138885213	-4.8577416388	 0.3105678433	 0.133014
H	-4.1937637733	-3.3196203697	-0.3839247373	 0.134581
