17
gdb 54049	2.48801	1.10663	0.84513	1.4418	76.04	-0.257	-0.0543	0.2026	1357.3972	0.130827	-421.821699	-421.811463	-421.810519	-421.857878	35.381	
C	-0.1688864951	 1.4763567501	-0.1214065587	-0.487668
C	-0.026953042	-0.0223279962	-0.0021974197	 0.365546
O	 0.0033302303	-0.6099019592	 1.0521993401	-0.286353
C	 0.0852010822	-0.7975794805	-1.334906367	-0.176598
C	 0.6581722445	-2.2085841959	-1.1150969214	-0.386106
C	 0.8055589009	-2.9422556791	-2.3660955299	 0.270806
C	 0.9127419077	-3.5158583427	-3.417027392	-0.416204
C	-1.3033952708	-0.8499937792	-1.9807200481	 0.15797
O	-1.8631609754	 0.1020176282	-2.457563934	-0.244517
H	 0.7895149822	 1.899893751	-0.4461777233	 0.14622
H	-0.9047017224	 1.7295176886	-0.8902220942	 0.171967
H	-0.4415991675	 1.9049592629	 0.8435543587	 0.144784
H	 0.7165318302	-0.21496403	-2.014839767	 0.127776
H	 1.623162942	-2.1295686234	-0.6038153631	 0.148085
H	 0.005016842	-2.7521492169	-0.4231891755	 0.154792
H	 1.0136639008	-4.0388991675	-4.3357174253	 0.201094
H	-1.7827611097	-1.8516603103	-1.9558436097	 0.108407
