21
gdb 119955	1.94786	1.15674	0.87668	3.0913	81.71	-0.238	-0.0163	0.2217	1441.6136	0.179523	-424.219545	-424.209152	-424.208207	-424.255643	36.745	
C	-0.1900990464	 1.4445812724	-0.1551182843	-0.387269
C	-0.3437817306	-0.0342041714	-0.4606422308	-0.045146
O	-1.2808168475	-0.586169569	 0.459244014	-0.24304
C	-1.4562160823	-1.9526677827	 0.3266074418	 0.097959
C	-2.7317264781	-2.5255871846	 0.8205984846	-0.076094
C	-3.7875993024	-1.6657539239	 1.4842260622	-0.411349
C	-2.4687596975	-2.4977275125	-0.6999008738	-0.169312
C	-3.2020840612	-1.5736982599	-1.5879581371	 0.160551
O	-3.5493288669	-1.857824102	-2.7119132721	-0.282434
H	 0.5276759162	 1.8996877424	-0.8437061272	 0.121547
H	-1.1477253326	 1.9618541368	-0.2625018737	 0.129952
H	 0.1672066001	 1.5914135133	 0.86790334	 0.129515
H	-0.6966516177	-0.1894746365	-1.4914473927	 0.105868
H	 0.6206342304	-0.5569106549	-0.3630947929	 0.095628
H	-0.5401422268	-2.536453566	 0.4322067379	 0.096683
H	-2.6522882735	-3.5270304385	 1.2345284183	 0.103322
H	-3.7248689744	-0.6247128567	 1.165270194	 0.140457
H	-4.7934855387	-2.0391755255	 1.2693004615	 0.126142
H	-3.6480706614	-1.6834481449	 2.5700220252	 0.125282
H	-2.2328791055	-3.4461992903	-1.171199716	 0.102988
H	-3.4188377632	-0.5712757653	-1.1635134489	 0.078751
