16
gdb 125060	3.11358	1.39111	1.03191	3.7704	71.37	-0.2424	-0.0029	0.2395	1120.7664	0.125255	-434.048127	-434.040147	-434.039203	-434.081275	28.953	
C	-1.0614278309	 1.0150060753	-0.4577349064	-0.524363
C	-0.1752113894	-0.1555100518	-0.1898110594	 0.240912
C	 0.6803888844	-0.9008063552	-0.9790677843	 0.231575
N	 1.2723390207	-1.8605309241	-0.2068920457	-0.267532
N	 0.8320532903	-1.7665675316	 1.0116054464	-0.118167
N	-0.042086796	-0.7410361829	 1.027497972	-0.222023
C	 1.0152751924	-0.7920231042	-2.413072467	-0.013243
C	 0.000232341	-0.7510801888	-3.4806425669	-0.180796
O	 0.6898677281	 0.4347728205	-3.0813661648	-0.233761
H	-0.8993208706	 1.8143804566	 0.2734907019	 0.137013
H	-0.8411052517	 1.4092999673	-1.4499569139	 0.17759
H	-2.1218917537	 0.7400276071	-0.4171301839	 0.138359
H	-0.4860186623	-0.4878462507	 1.8965003115	 0.277886
H	 1.991971043	-1.203070676	-2.663639597	 0.116615
H	 0.2475402857	-1.1223982016	-4.4739149572	 0.125107
H	-1.0542155511	-0.7924170501	-3.2124896153	 0.114829
