16
gdb 37885	3.09323	2.25295	2.19008	0.9842	64.37	-0.2269	0.0647	0.2916	738.9376	0.129576	-437.843556	-437.838556	-437.837612	-437.872681	22.563	
N	-0.0384731272	 1.4888687563	 0.0299821863	-0.299373
C	 1.4349161609	 1.4978660291	-0.0315042712	-0.039281
C	 2.0707219262	 0.7907967959	 1.2400441276	 0.032008
O	 1.0199386518	 0.3996375924	 2.1187140275	-0.254476
C	 0.4148941361	-0.6379688374	 1.3487931563	 0.1567
O	 1.4869593097	-1.5086181859	 1.0428741334	-0.239449
C	 2.3021992442	-0.5357444582	 0.4002707535	 0.040204
C	 1.4327053732	 0.0970060093	-0.7018906537	-0.062883
C	 0.0182499845	 0.0033898313	-0.0303958721	-0.059976
H	-0.4108774427	 1.8363831067	 0.9134929161	 0.21885
H	 1.9166613029	 2.3976909712	-0.4164203534	 0.070835
H	 2.8727114247	 1.270111816	 1.7981409745	 0.087078
H	-0.3544221716	-1.1408331169	 1.9315420133	 0.096465
H	 3.3021571138	-0.9147601518	 0.207032268	 0.090148
H	 1.5464845091	-0.1130372992	-1.7621970535	 0.082007
H	-0.8130661956	-0.4958297188	-0.5305010827	 0.081143
