21
gdb 54584	2.59286	1.33965	1.26189	2.6174	82.12	-0.234	-0.0067	0.2273	1153.0438	0.181652	-387.089052	-387.079815	-387.078871	-387.124532	33.884	
C	-0.0691624575	 1.500231464	 0.1479996807	-0.488648
C	 0.0658977644	-0.0136938465	 0.0901460859	 0.25939
O	 1.1427967037	-0.564163884	 0.166846823	-0.298883
C	-1.2142251097	-0.787097872	-0.0702656033	 0.310759
C	-2.2175661881	-0.7765807376	 1.1256183142	-0.298487
C	-2.2889438943	-2.333476032	 1.0652409062	-0.22044
C	-1.2793278751	-2.3512226638	-0.1136208688	-0.074886
C	-1.9234341529	-2.2845701209	-1.5221444738	-0.218765
C	-1.9012353268	-0.7263094972	-1.4745846633	-0.296687
H	 0.9167706224	 1.9577027288	 0.2387447037	 0.139661
H	-0.5703145877	 1.8751358494	-0.7513665877	 0.138868
H	-0.6908142987	 1.7936971247	 1.0013115375	 0.140223
H	-1.7809241059	-0.4030653909	 2.0560883428	 0.107541
H	-3.1511908865	-0.2357264446	 0.9456782057	 0.098788
H	-1.916370018	-2.8159009456	 1.9715692327	 0.107746
H	-3.2731768615	-2.752263131	 0.8366905108	 0.097513
H	-0.3861759324	-2.963428383	 0.002336216	 0.083012
H	-1.2872038865	-2.6933281464	-2.3104304753	 0.108327
H	-2.9117344114	-2.7453649862	-1.6076693724	 0.096886
H	-2.8742020843	-0.2266019448	-1.4864400292	 0.099513
H	-1.2773644332	-0.2756091401	-2.2512860353	 0.10857
