19
gdb 79018	3.64207	1.71966	1.5551	1.6986	76.27	-0.2466	0.0867	0.3333	907.3159	0.163459	-385.878789	-385.872598	-385.871654	-385.908903	27.364	
O	 0.1521494581	 1.4144740098	-0.1846629324	-0.447815
C	 0.0287046713	 0.0305957006	-0.0174389697	 0.173713
C	 0.1997397969	-0.6273286172	 1.3864564016	-0.102909
C	-0.8953688951	 0.0477448466	 2.2316664046	-0.084803
C	-2.0525654564	-0.9141437392	 2.4228994147	-0.070403
C	-1.6157924199	-2.282047427	 1.9372845818	-0.241305
C	-0.6770209091	-1.8064397597	 0.8357153489	-0.040599
C	-1.3737010938	-0.6502001299	 0.035670135	-0.10291
C	-2.0547208555	 0.0308819135	 1.2363818448	-0.084802
H	-0.4175693204	 1.8312541325	 0.4719157636	 0.28124
H	 0.6788424593	-0.4288866535	-0.7669576032	 0.083083
H	 1.1768525709	-0.7839881535	 1.8429894887	 0.059748
H	-0.7003510795	 0.8662009847	 2.9119638397	 0.084895
H	-2.753855105	-0.7785938653	 3.2374997912	 0.081299
H	-1.0979658291	-2.8614105815	 2.7100268659	 0.098261
H	-2.4481694729	-2.8810360817	 1.5508932556	 0.098261
H	-0.1554065663	-2.5538521878	 0.2407752012	 0.070404
H	-1.9700949974	-0.8297319356	-0.8586433085	 0.059748
H	-2.7703026655	 0.8360903642	 1.134948117	 0.084895
