21
gdb 86112	2.46851	1.50515	1.04051	1.8837	84.56	-0.2291	0.008	0.2371	1218.1508	0.182772	-387.10056	-387.091874	-387.09093	-387.133521	33.844	
C	 0.1661176783	 1.5816205222	 0.0365877753	-0.399888
C	 0.0179207803	 0.0544242341	 0.033083516	-0.019592
C	 0.5593200618	-0.5570294886	-1.2779123792	-0.305711
C	 0.6885687289	-2.0643877451	-1.2574666043	 0.289335
C	 0.5323051222	-2.7803547987	-2.5682897021	-0.479754
C	 0.9776527273	-2.6976236119	-0.1153413686	-0.14319
C	 1.1530293596	-1.9604622943	 1.157524341	-0.002708
O	 2.0767438157	-0.8381369452	 1.1628690046	-0.267388
C	 0.6779327839	-0.5716121111	 1.2448522602	 0.055483
H	 1.2238273864	 1.8646831243	 0.0128936461	 0.129017
H	-0.3237282378	 2.0281970856	-0.8347897039	 0.112032
H	-0.279680607	 2.022754882	 0.9342214303	 0.111566
H	-1.0514340735	-0.193024666	 0.1103061802	 0.077491
H	-0.0838837131	-0.2468032659	-2.1099844087	 0.09518
H	 1.5484311857	-0.1253378182	-1.4819064718	 0.126227
H	 1.2532566938	-2.4089552475	-3.308403024	 0.127953
H	 0.6787340121	-3.8586576617	-2.4633819021	 0.121535
H	-0.4643040507	-2.6070601854	-2.9948194023	 0.123629
H	 1.0945975705	-3.7774522834	-0.0934183554	 0.079742
H	 1.2027291149	-2.5554773237	 2.0673068621	 0.08726
H	 0.3459468109	-0.1904246315	 2.2128575865	 0.081781
