23
gdb 101484	3.04854	1.05078	0.86285	1.3303	82.39	-0.2406	0.0829	0.3235	1435.7177	0.205223	-425.428902	-425.418873	-425.417929	-425.464732	36.349	
C	-0.027815093	 1.3871029908	 0.0053107092	-0.233769
O	-0.0256605272	-0.0154926179	 0.1255526355	-0.249066
C	-1.313207683	-0.6191543388	 0.1301090291	 0.129204
C	-1.9784423375	-0.5996561114	-1.2456128575	-0.410077
C	-1.0904062764	-2.0519962292	 0.6374281246	 0.123658
C	-0.5679292676	-2.122393853	 2.0879588062	-0.250748
C	-1.8260065138	-2.4791851262	 2.8966386909	-0.22062
C	-2.5950219804	-3.334602694	 1.8895647645	-0.060378
O	-2.3476096992	-2.7399020898	 0.6204467481	-0.275588
H	 1.0049223011	 1.7222752361	 0.1326263946	 0.124824
H	-0.3843295348	 1.7280131191	-0.9770869507	 0.108784
H	-0.6511631195	 1.8611593609	 0.7802418926	 0.100508
H	-1.9599270032	-0.0943864079	 0.8557141087	 0.057027
H	-2.9122375785	-1.1644733227	-1.2078369402	 0.139298
H	-2.2052465559	 0.419230075	-1.57193512	 0.108062
H	-1.3191439493	-1.0615063474	-1.9882121361	 0.117833
H	-0.397685828	-2.5483448027	-0.0562935915	 0.076087
H	 0.1808427917	-2.9148054922	 2.1822563469	 0.101157
H	-0.0963600075	-1.1855850516	 2.3879967135	 0.116337
H	-1.6066944264	-3.0065324345	 3.8282214078	 0.099839
H	-2.4010677788	-1.5802941254	 3.1424938305	 0.105617
H	-2.2332730385	-4.3756678948	 1.9041472045	 0.087749
H	-3.6773581944	-3.3492615424	 2.0504207888	 0.104263
