18
gdb 62428	3.78906	1.23161	1.19953	1.9209	84.78	-0.2172	-0.0006	0.2167	1104.9146	0.146669	-364.75641	-364.748183	-364.747238	-364.788652	32.474	
C	-0.1520674875	 1.5678636275	 0.0283813331	-0.477736
C	-0.0202962361	 0.0574249337	-0.0450674406	 0.091156
C	-1.0704061022	-0.6398747395	 0.6620962159	 0.276082
C	-1.9734978856	-1.1962937825	 1.2285538457	-0.395609
C	 0.5861954735	-0.6629072607	-1.2357142627	-0.110927
C	 1.3928761512	 0.1255692313	-2.2028786096	-0.076735
C	 2.4682098438	 0.6302480435	-1.5955751059	-0.090583
C	 2.4916399335	 0.2186603494	-0.1406735212	-0.209818
N	 1.2949871911	-0.6340084979	 0.0607053616	-0.137644
H	 0.5285107	 2.0779621497	-0.6540808721	 0.128712
H	-1.1756967363	 1.8571432557	-0.2242645111	 0.133638
H	 0.0460629644	 1.9126583081	 1.0489839754	 0.131145
H	-2.7600536929	-1.696257256	 1.7370878619	 0.189245
H	 0.1394451575	-1.6052897533	-1.5424641026	 0.101654
H	 1.1223878005	 0.2469958978	-3.2441084063	 0.105022
H	 3.2213663868	 1.2655899436	-2.0471028436	 0.105319
H	 3.3850325557	-0.3681289543	 0.1098550341	 0.120034
H	 2.4807662826	 1.077195684	 0.543944798	 0.117045
