19
gdb 82883	2.44415	1.98203	1.45575	2.1737	73.92	-0.236	0.0709	0.3069	959.01	0.160265	-422.986248	-422.978719	-422.977775	-423.017694	30.667	
C	 0.057831957	 1.5184806545	 0.0453380521	-0.523243
C	 0.0491086708	 0.0138795022	 0.0766352886	 0.304507
C	 0.2633133736	-0.7899635883	-1.2787593881	 0.026636
C	 0.6184670134	-2.1925330116	-0.754804455	-0.207486
C	-0.2051097112	-2.0143460241	 0.53413146	-0.161947
C	 0.5582532486	-0.8483674057	 1.2310656765	 0.08073
O	 1.9550661439	-0.9033859742	 1.4051082236	-0.439087
C	-1.2089504231	-0.8923192089	-0.0191517157	 0.060786
O	-1.1842248487	-0.9076315189	-1.4486112919	-0.296367
H	 1.0778448156	 1.9017093961	-0.0683685394	 0.128188
H	-0.5399539978	 1.8895546031	-0.7935115615	 0.130345
H	-0.3543203455	 1.9387021293	 0.9691795257	 0.114205
H	 0.7744817213	-0.3694323134	-2.14378114	 0.078025
H	 0.2414818848	-2.9636331044	-1.4288983777	 0.101833
H	 1.6793692352	-2.3412524428	-0.5503708529	 0.109558
H	-0.5443952022	-2.8922135492	 1.0812011071	 0.062638
H	 0.0525622995	-0.5442034973	 2.159929879	 0.064671
H	 2.1490924179	-1.4818476331	 2.1495469358	 0.28481
H	-2.182339403	-0.7268632732	 0.4396471739	 0.081198
