19
gdb 118806	2.40558	1.08096	0.84205	4.1113	78.04	-0.2647	0.0153	0.2801	1409.5947	0.157569	-419.184177	-419.174232	-419.173288	-419.21951	35.137	
C	-0.1862507448	 1.377196541	-0.0452228812	-0.227851
O	-0.1727280224	-0.0314269397	-0.0897571541	-0.240238
C	 0.7449036424	-0.5398611673	-1.0314660965	-0.101992
C	 0.6526703781	-2.0510788457	-1.0039557079	 0.29334
C	 0.8174328139	-2.6858592665	 0.3606298471	-0.467276
N	-0.3163472345	-2.6162177036	-1.9471631087	-0.331995
C	 1.1260009434	-2.8253015724	-2.1994628874	-0.250038
C	 1.6858878315	-2.1923213671	-3.3702391595	 0.33545
N	 2.1694785937	-1.6913606689	-4.2933990313	-0.341499
H	 0.7975783405	 1.7854355603	 0.2349223902	 0.106927
H	-0.4754438406	 1.8114452944	-1.0142945575	 0.114554
H	-0.9198044035	 1.6716480353	 0.7087281841	 0.129855
H	 0.5184905976	-0.1725629465	-2.0424508643	 0.116284
H	 1.7733271849	-0.2256508693	-0.7807463899	 0.093632
H	 0.0255552878	-2.3363189813	 1.02740563	 0.154671
H	 0.7729401387	-3.7778430781	 0.2982282878	 0.1126
H	 1.7777215238	-2.4087660004	 0.8076143555	 0.133005
H	-0.7209566679	-3.4764577437	-1.5837006278	 0.241622
H	 1.5515187573	-3.8049301806	-1.9968256085	 0.128947
