19
gdb 11336	3.91563	1.48117	1.21004	2.7892	74.52	-0.2382	0.0361	0.2743	1063.7728	0.165624	-365.093279	-365.084753	-365.083809	-365.126868	30.732	
C	 0.2230541129	 1.4145031125	 0.1000849611	-0.329609
N	-0.1020598686	 0.0175736977	-0.1413992728	-0.329057
C	 0.4410247055	-0.5876813717	-1.1026076852	 0.438656
C	 0.1922021611	-2.030123567	-1.4879054718	-0.317985
C	 1.4182802331	-2.374886039	-2.3440065118	-0.240573
C	 1.810232508	-1.0054946163	-2.9360327395	 0.125574
C	 1.184230916	-0.7042314352	-4.2935822377	-0.392011
O	 1.3561895406	-0.0381859704	-1.9652215877	-0.257084
H	 1.1425824283	 1.753407598	-0.3910261233	 0.118648
H	-0.6023411512	 2.0495259392	-0.2462342798	 0.120764
H	 0.315336878	 1.5760293247	 1.179146619	 0.118012
H	 0.0658304037	-2.6554376335	-0.604142659	 0.133193
H	-0.7348957438	-2.0926709893	-2.0690015539	 0.127733
H	 2.2273675976	-2.7565551229	-1.7143849917	 0.114187
H	 1.2172328062	-3.116103333	-3.1203955833	 0.108411
H	 2.8965376879	-0.8879158337	-2.9994919585	 0.089067
H	 0.1002327235	-0.857587013	-4.272847854	 0.122244
H	 1.3767873081	 0.333150808	-4.5797236992	 0.131361
H	 1.6092641032	-1.3595158751	-5.0608073108	 0.118469
