16
gdb 51995	4.32796	0.6869	0.66901	2.4114	70.03	-0.2583	-0.0535	0.2048	1656.0105	0.120445	-475.031975	-475.022229	-475.021285	-475.068897	32.437	
N	-0.2629396892	 1.0533343197	 0.303585792	-0.437501
C	-0.6326340465	-0.1434800207	 0.4237650247	 0.148596
O	-0.2638956984	-1.0499719249	-0.5160055099	-0.164975
C	-0.7361743546	-2.3610815296	-0.3538560396	-0.200587
C	-2.2327817034	-2.5146768505	-0.6203463625	 0.354077
O	-2.968392266	-1.56747024	-0.7466514128	-0.285296
C	-2.7501468621	-3.949731403	-0.6652152203	-0.386867
C	-3.9193823894	-4.1353738309	 0.2962403119	 0.163027
O	-4.0161172276	-5.062949607	 1.052679314	-0.224447
H	-0.6011587668	 1.604318084	 1.0894422936	 0.233869
H	-1.2266537843	-0.5731465958	 1.2398752748	 0.090119
H	-0.1773458274	-2.9859244458	-1.0583592593	 0.153509
H	-0.5306547858	-2.7610256763	 0.6536212566	 0.13745
H	-3.1361666403	-4.1124490246	-1.6807059141	 0.169018
H	-1.9813980081	-4.6975927099	-0.4573491285	 0.134372
H	-4.67911176	-3.3295638748	 0.2400354594	 0.115635
