18
gdb 55109	4.49814	0.95867	0.85922	4.69	74.3	-0.2388	0.0497	0.2886	1341.9497	0.148786	-435.256047	-435.247484	-435.246539	-435.289647	32.112	
N	-0.1086269287	 1.3308847884	 0.1801676111	-0.557211
C	-0.0199163824	-0.0559170498	 0.1600589176	 0.414281
O	 1.0362369573	-0.6573261098	 0.1075810844	-0.389159
N	-1.2396467648	-0.6950131105	 0.1796914627	-0.118075
C	-2.5163281536	-0.2299747503	-0.3958908204	-0.270519
C	-2.8299451407	-1.7001141362	-0.7162722686	 0.32978
C	-4.1161365037	-2.4049483618	-0.5591146339	-0.301683
N	-3.4916645048	-2.2362827566	-1.8907932953	-0.350686
C	-1.4190068051	-2.0914180735	-0.2564923628	-0.224861
H	 0.7729379903	 1.7714054183	 0.3962352249	 0.26082
H	-0.9013805198	 1.7414974938	 0.6503029991	 0.251459
H	-3.1863002162	 0.2671020908	 0.316552704	 0.109202
H	-2.3887405179	 0.4112739176	-1.2784625668	 0.120029
H	-4.1383404828	-3.4283460946	-0.1940737522	 0.127206
H	-4.9959711661	-1.8150472883	-0.3124623785	 0.11472
H	-3.9572228465	-1.4963864026	-2.4115112872	 0.233355
H	-0.7418934227	-2.3799541445	-1.0667654876	 0.133307
H	-1.3518652819	-2.8247890103	 0.5525450394	 0.118034
