19
gdb 39404	2.43734	2.16179	1.74059	1.377	73.32	-0.2423	0.0756	0.3179	882.9395	0.162813	-422.987858	-422.981397	-422.980452	-423.018287	27.407	
C	-0.0620956589	 1.5644244327	 0.0700505291	-0.243072
C	 1.4928759428	 1.487171434	-0.0540692852	-0.085563
C	 2.1826879259	 1.6072677301	 1.315109693	-0.081803
O	 1.3239357206	 1.2742706663	 2.3994490401	-0.251508
C	 0.9146453144	-0.076617457	 2.5019303163	-0.087258
C	 0.5797749744	-0.7706219546	 1.1879582498	 0.073674
O	 1.7948080051	-0.9718004961	 0.4038274273	-0.298966
C	 1.3379790264	-0.0020848139	-0.5430641514	 0.123072
C	-0.0977644575	 0.0228172663	 0.0163499684	-0.088921
H	-0.4670672431	 2.071497008	 0.9455297531	 0.116753
H	-0.5200234885	 1.9775050412	-0.8333170286	 0.097955
H	 1.9611491124	 2.170025269	-0.7675895989	 0.070589
H	 3.0979561836	 0.999256607	 1.3353519743	 0.106563
H	 2.4546816796	 2.6513968645	 1.4960799555	 0.104893
H	 1.6979132413	-0.6828282114	 2.9866872327	 0.103013
H	 0.0370853271	-0.0735254564	 3.1594383488	 0.10668
H	 0.1068285294	-1.7344781277	 1.4101327013	 0.084884
H	 1.6212074506	-0.2322091295	-1.571875032	 0.075399
H	-0.9417398554	-0.4884520226	-0.4467094635	 0.073619
