21
gdb 103210	3.46221	1.28576	1.12254	1.2979	82.83	-0.2618	0.0736	0.3353	1162.4024	0.182277	-387.008097	-386.999686	-386.998742	-387.040777	33.327	
C	-0.1325761488	 1.5755454071	 0.0066047483	-0.468674
C	-0.0674606274	 0.0497685455	 0.0014647823	 0.332915
C	-1.4259981307	-0.5482066894	-0.3415845888	-0.144734
O	-1.7629602456	-0.1472434694	-1.6668383896	-0.425378
C	 1.1645721883	-0.6084315662	-0.6770251649	-0.057428
C	 2.1073310421	-0.2786707207	 0.5355044417	-0.050289
C	 2.6138415625	-1.7277359765	 0.6347864949	-0.280759
C	 1.1274263836	-1.8666116376	 0.2625374289	-0.051488
C	 0.7096585148	-0.6417386525	 1.1537313518	-0.096624
H	 0.8429115997	 2.0277929285	 0.2032728513	 0.108591
H	-0.4942694808	 1.9424139374	-0.957649826	 0.134052
H	-0.8270073816	 1.9314896716	 0.7775122172	 0.104691
H	-1.3970626396	-1.6444241365	-0.2630165188	 0.081948
H	-2.1765743453	-0.1867566219	 0.3813767263	 0.078081
H	-2.6417444309	-0.4812679179	-1.867542946	 0.286063
H	 1.4469943278	-0.6024157054	-1.7311649176	 0.069364
H	 2.6621032843	 0.6464153426	 0.6920449476	 0.071111
H	 3.3419011543	-2.0474205492	-0.1180952813	 0.090188
H	 2.9091066005	-2.0809685911	 1.6284929226	 0.088488
H	 0.5534380673	-2.7795753625	 0.1027836152	 0.06948
H	 0.4714111856	-0.673878466	 2.2200370951	 0.060401
