18
gdb 40085	4.0723	1.26507	1.08096	2.1804	80.15	-0.2271	-0.0082	0.2188	1128.597	0.148956	-401.882149	-401.874757	-401.873812	-401.913991	29.147	
C	-0.091402495	 1.4726086294	-0.1508631456	-0.306497
N	 1.2056038474	 0.8192440717	 0.1251068495	-0.362341
C	-0.0091190601	 0.0064979205	-0.0139789655	 0.253807
C	-0.467860261	-0.9793063721	 1.095735735	-0.329967
C	-0.2233043503	-2.1429801706	 0.0594108356	 0.09327
O	-1.198978763	-3.1020785298	-0.2948142751	-0.281061
C	-1.5199337423	-2.8889505307	-1.6834142043	-0.105407
C	-1.0680067063	-1.4664824445	-1.992579011	-0.254917
C	-0.2665575609	-1.0882777478	-1.0032186845	 0.174699
H	-0.482153336	 2.0687129057	 0.6695921082	 0.124359
H	-0.2736621606	 1.885813808	-1.1398360622	 0.115006
H	 1.7539138206	 0.7673587109	-0.7304784369	 0.235755
H	 0.1350574182	-0.9886329011	 2.0058775347	 0.115537
H	-1.52937613	-0.8710944733	 1.3284943772	 0.116809
H	 0.7506170876	-2.6210300163	 0.2347199993	 0.0842
H	-1.0283931428	-3.653439302	-2.3073168546	 0.104893
H	-2.6033681045	-3.0038113718	-1.8152393455	 0.115121
H	-1.4853520409	-0.8757846461	-2.7980798343	 0.106734
