16
gdb 48669	3.5543	1.22137	1.09388	2.0529	72.19	-0.2615	-0.0394	0.2221	1110.2123	0.125034	-437.90432	-437.896677	-437.895733	-437.936737	28.691	
N	-0.0901639218	 1.2369273536	 0.3593520689	-0.544265
C	-0.0307847886	 0.0188143037	 0.0378179607	 0.431094
O	 1.1163760841	-0.6604270468	-0.2777816119	-0.25158
C	 0.8246052384	-1.9123728198	-0.9257706602	-0.158918
C	-0.6504764066	-2.1808188767	-0.6918124909	 0.211654
C	-1.1065170515	-2.1654662746	 0.7504564515	-0.336753
C	-1.1991621907	-0.901773869	-0.0489190103	-0.164043
C	-1.4290559509	-2.9230293144	-1.7042851918	 0.08331
O	-0.9605403529	-3.3803627168	-2.7179017112	-0.261056
H	 0.835703985	 1.6656930457	 0.3156816065	 0.228397
H	 1.0308279341	-1.8319099161	-1.9974554633	 0.141448
H	 1.4810254935	-2.6734111605	-0.4947347477	 0.127945
H	-2.0419233859	-2.666517291	 0.9767486196	 0.136551
H	-0.3423534652	-2.2513562303	 1.5157813821	 0.145055
H	-2.1648433146	-0.4834720731	-0.2976152297	 0.132011
H	-2.5097569163	-3.0356653941	-1.4597649623	 0.079149
