19
gdb 107040	3.93399	1.13819	1.01504	2.3576	75.76	-0.2489	-0.0094	0.2395	1227.942	0.158787	-423.014724	-423.006159	-423.005215	-423.047912	32.881	
C	-0.3572096824	 1.4777026284	-0.2427471108	-0.381729
C	 0.0902473462	 0.0388172554	 0.0479286829	-0.290043
C	 0.9415258824	-0.5391089482	-1.0515196499	 0.403436
O	 0.2323304555	-0.885050936	-2.2848983692	-0.314804
C	 0.8931549371	-1.9208669987	-1.5411461908	-0.08616
C	 2.2502442141	-2.2753912824	-2.1608867212	 0.077347
O	 2.1475563027	-2.6241608583	-3.5315453081	-0.434786
C	 3.0531096029	-0.9985129381	-1.938692719	-0.122032
C	 2.3347554163	-0.0476057301	-1.3413439217	-0.134162
H	 0.4974420578	 2.1550104861	-0.3414762485	 0.118652
H	-0.928643309	 1.5195286305	-1.1743901087	 0.137137
H	-0.9897221252	 1.8578877084	 0.5644226518	 0.116444
H	 0.658175147	 0.0024916748	 0.9861926037	 0.106357
H	-0.7886287526	-0.6006669102	 0.1804865789	 0.110636
H	 0.2457844375	-2.6896615729	-1.1279454749	 0.097448
H	 2.7036135512	-3.1400429316	-1.6632081602	 0.091916
H	 1.5918666595	-1.9387008342	-3.926574526	 0.289233
H	 4.0623160417	-0.8959131453	-2.3208157107	 0.109527
H	 2.6677257274	 0.9572267723	-1.1097782677	 0.105584
