21
gdb 84076	2.24982	1.49033	1.00447	2.6045	85.27	-0.2357	-0.0143	0.2214	1260.0673	0.180785	-387.141036	-387.131258	-387.130314	-387.175671	36.185	
C	-0.2828952334	 1.5926782945	-0.0097963485	-0.389394
C	-0.0155228763	 0.0804268476	-0.0271704007	-0.146896
C	 0.7652912686	-0.4463335794	-1.202849348	-0.184029
C	 1.836114694	-1.1714354548	-0.8620493727	 0.312211
C	 2.792550953	-1.8429135708	-1.7964630524	-0.491707
C	 1.9825954827	-1.2822206624	 0.642843228	-0.199431
C	 3.3479512394	-0.9011257063	 1.23370546	-0.397554
C	 0.8559596188	-0.3690166009	 1.1590768627	 0.396097
O	 0.7091012855	-0.0249076712	 2.3039845276	-0.324091
H	 0.6477767454	 2.1548284753	-0.1357051052	 0.118102
H	-0.9641458388	 1.8790502068	-0.816569308	 0.113669
H	-0.7299764562	 1.8809296284	 0.9451685809	 0.137901
H	-0.9843988602	-0.4361044722	 0.0643926871	 0.105117
H	 0.4632097489	-0.253237214	-2.2276984465	 0.089247
H	 2.5158258861	-1.6738900756	-2.8407858026	 0.12429
H	 3.8169304927	-1.4782325657	-1.6528638182	 0.131232
H	 2.8216251071	-2.9264746316	-1.6222137738	 0.125798
H	 1.7475219334	-2.3078299662	 0.9713702975	 0.104229
H	 3.6661403384	 0.0856484602	 0.8818501351	 0.119067
H	 3.2766008707	-0.865304467	 2.3237674579	 0.140717
H	 4.1187095503	-1.6264272247	 0.9582228897	 0.115426
