15
gdb 133268	2.47191	1.57784	0.96894	3.7215	77.46	-0.2033	-0.0367	0.1667	1140.6863	0.113	-458.082468	-458.074519	-458.073574	-458.11514	29.334	
C	 0.0386242098	 1.4146239825	 0.1218676257	-0.324454
N	 0.0407484635	-0.0371010703	 0.1032494982	-0.327982
C	-1.0811372782	-0.6493378588	-0.0340502381	 0.177039
C	-2.4225260245	-0.0631370632	-0.1810675257	-0.064728
N	-3.5413102805	-0.7108732755	-0.3184224795	-0.181497
N	-3.4756805607	-2.0462138188	-0.328417215	-0.230556
C	-2.3085769419	-2.7574483884	-0.2026490642	-0.110469
C	-1.1379839857	-2.1005388383	-0.0591725422	 0.209088
F	-0.0101855649	-2.7859663712	 0.0621483003	-0.0489
H	 1.0651873753	 1.7694034412	 0.2453396729	 0.121553
H	-0.3515324553	 1.8530045134	-0.8100832862	 0.110759
H	-0.5554723568	 1.8302328219	 0.9508670723	 0.110743
H	-2.5276282639	 1.015123366	-0.1791247581	 0.13011
H	-4.3606525586	-2.511570186	-0.435409453	 0.28217
H	-2.3795997475	-3.8366375745	-0.2247852374	 0.147125
