22
gdb 112845	3.01719	1.17753	0.95955	1.8096	82.43	-0.2305	0.0761	0.3067	1319.607	0.194936	-404.328107	-404.319032	-404.318087	-404.361918	34.564	
C	 0.1127737332	 1.3327748044	 0.1220469542	-0.233331
O	-0.1761260078	-0.0237998465	-0.1188841218	-0.248054
C	 0.5493184991	-0.5802391876	-1.1947610338	 0.171859
C	 2.0574368716	-0.8136826988	-0.9218217744	-0.272601
C	 2.4652051851	-2.0123358922	-1.8154348534	 0.029956
C	 3.6512217197	-2.8135164668	-1.2771002673	-0.399937
C	 1.1718049146	-2.8120216196	-1.9330835539	-0.043469
N	 0.5164053686	-3.0152909427	-0.6240336505	-0.329974
C	 0.0266680349	-1.9597524706	-1.5392910293	-0.084293
H	 1.1514078998	 1.4890814058	 0.4490829449	 0.10624
H	-0.0614127371	 1.9522209083	-0.7732632604	 0.097567
H	-0.5565059478	 1.6705061066	 0.9173933925	 0.124442
H	 0.4256197084	 0.0620229044	-2.0859237194	 0.056505
H	 2.6698327346	 0.0704995164	-1.1152610858	 0.089601
H	 2.1660802975	-1.0819842718	 0.1326373928	 0.126405
H	 2.7096605663	-1.6411685195	-2.8204651137	 0.068887
H	 3.4013266996	-3.2476672183	-0.3039994753	 0.132202
H	 3.9215306416	-3.6305610396	-1.9552168099	 0.105139
H	 4.5352666102	-2.179440286	-1.1521561422	 0.109595
H	 1.0781334608	-3.580827132	-2.694551559	 0.079105
H	-0.1122793075	-3.8121292965	-0.682663241	 0.230071
H	-0.9586941154	-2.0613844475	-1.9817566336	 0.084085
