19
gdb 33459	2.77992	1.29739	1.0048	1.6244	81.61	-0.2592	0.0271	0.2863	1222.3626	0.157907	-385.821219	-385.812482	-385.811537	-385.854805	33.276	
C	-0.3118169925	-1.2381415213	 0.574400056	-0.415605
C	-0.1642315067	-0.0703995264	 0.3302286894	 0.294853
C	-0.0451887017	 1.3356176131	 0.0146472238	 0.182044
C	 0.7790420134	 2.1958440268	 0.8887357055	-0.218223
O	 1.2755042285	 1.7653396134	-0.3754864486	-0.262851
C	-1.1875169688	 1.9090932036	-0.7970145634	-0.0517
C	-1.0973136244	 3.3745977808	-1.3041968634	-0.245597
C	-1.7170701743	 2.9032519294	-2.6477586475	-0.22068
C	-1.3289331235	 1.4469340804	-2.2770113409	-0.221585
H	-0.4268648128	-2.2707112919	 0.7947556688	 0.197489
H	 0.5372589011	 3.2552441998	 0.9619016249	 0.11867
H	 1.2681422811	 1.76035277	 1.7577933426	 0.123531
H	-2.1204863494	 1.736864115	-0.2504422351	 0.082168
H	-1.6278557173	 4.141641359	-0.7352390113	 0.093749
H	-0.0535368831	 3.67394192	-1.4298477971	 0.121855
H	-2.8017712794	 3.0423548711	-2.6651925516	 0.101947
H	-1.2983605887	 3.3187061099	-3.5666759595	 0.100914
H	-0.3551512818	 1.1712264842	-2.6909395433	 0.117506
H	-2.0443202496	 0.6510217033	-2.4925697592	 0.101515
