18
gdb 65196	3.31727	1.15194	1.04014	4.4175	74.32	-0.2448	0.014	0.2588	1196.7183	0.146133	-439.056234	-439.047443	-439.046499	-439.090016	32.853	
O	-0.2941539867	 1.3227010733	 0.5759993401	-0.450528
C	-0.112142631	-0.0246351571	 0.244625084	 0.387344
C	 0.8464639005	-0.2596901712	-0.8874717599	-0.295065
C	 1.2332424823	-0.6526686758	 0.5223841548	-0.325222
C	-1.3399882878	-0.8839002849	 0.3471005437	-0.063306
C	-2.3941264794	-0.6427799392	 1.3949080403	-0.269019
N	-2.6512497983	-0.3662838438	 0.0014972316	-0.069752
C	-2.9540120359	 0.8991653687	-0.483589376	 0.155652
O	-3.710955443	 1.6693990259	 0.0528079005	-0.298669
H	-0.3598202304	 1.3999829623	 1.5343352921	 0.291307
H	 0.621491664	-1.0438195687	-1.601814559	 0.122207
H	 1.3137281905	 0.6237741278	-1.3056752684	 0.134093
H	 1.9602951355	-0.0297432332	 1.0308072644	 0.123525
H	 1.2758217368	-1.7060705193	 0.7780297251	 0.119718
H	-1.1724693755	-1.9143254401	 0.0353483083	 0.100627
H	-2.9251988935	-1.4845017164	 1.8307549908	 0.127724
H	-2.2930173979	 0.2226415171	 2.0454996838	 0.122452
H	-2.4902637402	 1.0829736445	-1.4694906861	 0.086914
