21
gdb 83761	2.39297	1.82938	1.4113	1.7098	81.31	-0.2328	0.0873	0.3201	1033.3197	0.183331	-387.07255	-387.064321	-387.063377	-387.104821	32.581	
C	-0.2746936344	 1.5694244478	-0.0212953685	-0.421322
C	 0.0284668573	 0.0773657857	 0.0334399927	-0.044051
C	 1.0488726931	-0.5577584414	-0.9697992334	 0.068706
O	 2.0990191333	 0.3423409545	-1.3079371776	-0.26299
C	 2.8590531829	 0.584299886	-0.1184123245	-0.110044
C	 2.3465754294	-0.4217690752	 0.9004440716	-0.119671
C	 1.5582731139	-1.4688343409	 0.1706887741	-0.142544
C	 0.8517203828	-0.5556503607	 1.1719016228	 0.322456
C	 0.318188967	-0.873326042	 2.5400955456	-0.506162
H	 0.6333669849	 2.1754365755	-0.0273025057	 0.124478
H	-0.8396231414	 1.8156319237	-0.9271144224	 0.115856
H	-0.8811363076	 1.8754047331	 0.8385965649	 0.109692
H	-0.9105454194	-0.4879729553	-0.0385001642	 0.065684
H	 0.6596032783	-0.9885417053	-1.8916161621	 0.075969
H	 3.9223010244	 0.4186198132	-0.3373112776	 0.100639
H	 2.7392224797	 1.6270483294	 0.2032692991	 0.097143
H	 3.0035457224	-0.7239979011	 1.7087501933	 0.085609
H	 1.7431037817	-2.5347571054	 0.1698322804	 0.085287
H	 1.0094029272	-1.5110181276	 3.1015481494	 0.116692
H	 0.1589360933	 0.0376031784	 3.1294042759	 0.121518
H	-0.6426306387	-1.3975065823	 2.4754585465	 0.117055
