18
gdb 43697	6.42872	0.61424	0.59136	2.2597	77.59	-0.2537	-0.0305	0.2232	1788.4519	0.146291	-401.976637	-401.967541	-401.966597	-402.011898	32.531	
O	 0.095010459	 0.0514872654	 0.3026413231	-0.281192
C	 0.0199356287	 1.2135572747	 0.0347027686	 0.407856
C	-1.1498806789	 2.1963607902	-0.1342958602	-0.373907
C	-0.1453068934	 3.2021066262	-0.7826685698	 0.018252
C	-0.1629913178	 4.6289774182	-0.2492769576	-0.207268
C	 0.9419814492	 5.5008619205	-0.8806337391	-0.341895
C	 0.9404861025	 6.8683871422	-0.3663901608	 0.258822
N	 0.9228224866	 7.9449064916	 0.0531037873	-0.300568
C	 1.0510399933	 2.2833677196	-0.3648905143	-0.362097
H	-1.9908651324	 1.8459893315	-0.7376358945	 0.135349
H	-1.5358897393	 2.5348255569	 0.8343884876	 0.134948
H	-0.2599723273	 3.2101902806	-1.8714376208	 0.087266
H	-1.1373923601	 5.0896108338	-0.4465253762	 0.127382
H	-0.035750298	 4.6210506708	 0.8399104517	 0.120536
H	 1.927878625	 5.0599148102	-0.6924845979	 0.156459
H	 0.8182126969	 5.538372951	-1.9694056533	 0.153696
H	 1.599351302	 2.6541092099	 0.5098457557	 0.132402
H	 1.7758237139	 1.9900095267	-1.1283092296	 0.133955
