19
gdb 49972	3.59277	1.15577	1.02218	3.4469	82.49	-0.2429	-0.0133	0.2296	1204.5108	0.159319	-385.830989	-385.82325	-385.822306	-385.863453	30.374	
O	-0.0920907975	 0.0139522638	-0.3469298451	-0.274167
C	 0.0229643891	 1.1536288548	 0.0336915274	 0.170555
C	 1.282060936	 1.9256110694	 0.0409843579	-0.226578
C	 1.1872252073	 3.4561857794	-0.1708110967	-0.416497
C	 1.5317951482	 2.9163411186	 1.1532092145	 0.460355
C	 0.9142309116	 3.0752220701	 2.5585589916	-0.127355
C	 2.0274645444	 2.1027431182	 3.0587012373	-0.215313
C	 2.7466494595	 3.0847438858	 2.0826149454	-0.125882
C	 1.939606369	 4.2327380093	 2.7670642595	-0.216349
H	-0.8562571311	 1.7205169017	 0.4247356104	 0.059678
H	 2.1345870156	 1.4113511569	-0.3915096163	 0.104502
H	 1.9590417715	 3.8977638033	-0.7926108164	 0.128305
H	 0.1928472843	 3.8638617039	-0.3321759989	 0.124404
H	-0.1424212005	 3.0711320368	 2.8262840257	 0.081835
H	 2.3001632836	 2.1872663065	 4.1136500665	 0.094163
H	 1.9507011309	 1.0610410408	 2.7399870524	 0.106305
H	 3.7987499135	 3.0889268036	 1.7958819093	 0.079097
H	 1.783011928	 5.1418245158	 2.1821169751	 0.098196
H	 2.2079563666	 4.4554816211	 3.8029792804	 0.094747
