15
gdb 28830	3.44734	1.32079	0.95758	5.7204	86.53	-0.2094	-0.0745	0.1349	1151.9901	0.114348	-416.848463	-416.840725	-416.839781	-416.881462	29.343	
N	 0.0241622918	 1.3955775959	-0.1471586674	-0.526799
C	-0.0521225467	 0.034051956	-0.0290201983	 0.364952
C	-1.2789631655	-0.5985679212	 0.0143746701	-0.153508
C	-1.5387705828	-1.9852702277	 0.0337064646	-0.05025
C	-0.6917048989	-3.0561119402	-0.0110947612	-0.209437
C	 0.7523684076	-3.0510344379	-0.0762768991	 0.319666
O	 1.4183111372	-4.0783299755	-0.1832902025	-0.371297
C	 1.5191397766	-1.7689379596	 0.0341276172	-0.041347
N	 1.2056867061	-0.5236069931	 0.0375387037	-0.296707
H	 0.919228427	 1.8088580131	 0.0553111912	 0.267551
H	-0.7953589477	 1.9599208966	-0.0029995492	 0.262849
H	-2.150808996	 0.0502948857	 0.0227960301	 0.084754
H	-2.5977756567	-2.2321695061	 0.0788801251	 0.107734
H	-1.1212361452	-4.0533858546	-0.0031127081	 0.108711
H	 2.5885250233	-1.9834557912	 0.1136890339	 0.133127
