23
gdb 91143	2.70636	1.33449	1.15971	0.2648	91.1	-0.2223	0.033	0.2554	1217.6545	0.206962	-351.171624	-351.162877	-351.161933	-351.20484	34.633	
C	 0.6599446283	 1.5378394892	-0.1415246541	-0.405332
C	 0.1205786961	 0.1219271344	 0.0305581351	 0.037637
C	 0.6687040459	-0.940459407	-0.9726343722	-0.245002
C	 1.3286878754	-1.7146448272	 0.209267448	-0.045198
C	 2.7950325007	-1.4681745875	 0.4254799622	-0.181933
C	 3.0508208994	-0.6444956193	 1.4468264916	 0.336037
C	 4.3936949396	-0.1981500411	 1.9344994642	-0.490246
C	 1.7737388674	-0.1865751773	 2.1291291649	-0.321519
C	 0.6509102783	-0.7435718206	 1.2326564877	-0.029602
H	 1.7545780244	 1.554509359	-0.1579299258	 0.119124
H	 0.3115380636	 1.961935794	-1.0901522321	 0.109876
H	 0.3220533716	 2.2038778359	 0.6602832106	 0.110064
H	-0.9732581505	 0.1629798319	 0.0271740471	 0.065216
H	-0.1140369348	-1.5044317323	-1.4872465143	 0.090719
H	 1.3659346227	-0.5569893457	-1.7239507964	 0.089913
H	 1.068293334	-2.7773708971	 0.2627890106	 0.063078
H	 3.5596071421	-1.9212005746	-0.199504448	 0.078457
H	 5.2055958234	-0.6317420653	 1.344168694	 0.120698
H	 4.4884107801	 0.8947632562	 1.8936491649	 0.122952
H	 4.5470785921	-0.4809393811	 2.984257717	 0.122461
H	 1.7169924627	-0.5826522403	 3.1532540501	 0.094884
H	 1.7345837293	 0.9056820766	 2.2305025144	 0.098366
H	-0.165530422	-1.1742175907	 1.8153725006	 0.059352
