21
gdb 102814	2.18269	1.02496	0.74581	3.0408	79.6	-0.2501	-0.0219	0.2282	1531.7602	0.179574	-424.216249	-424.205959	-424.205015	-424.252894	36.016	
C	-0.8079251897	 0.2353295166	 0.5824905071	-0.389822
C	-0.1658663624	-1.0651064797	 0.0897498231	-0.185744
C	 0.4470220801	-0.9744401681	-1.3203956827	-0.024144
C	 1.2346031173	-2.2548273108	-1.6828918328	-0.28579
C	 2.4932709532	-2.4017990529	-0.8616401799	 0.155546
O	 2.7740243304	-3.3530117978	-0.1789072156	-0.24134
C	-0.6100658358	-0.7223418799	-2.3773573353	 0.089265
C	-0.860967846	 0.6022438845	-2.959167816	-0.180866
O	-0.1300506555	-0.3905609975	-3.6817647905	-0.244218
H	-0.080371747	 1.0545170826	 0.5982622539	 0.1163
H	-1.6412444756	 0.5441384524	-0.0559058924	 0.121423
H	-1.1951960832	 0.1168860656	 1.5987675972	 0.120244
H	 0.6151211327	-1.3746081714	 0.7942413974	 0.113754
H	-0.9096504179	-1.873442785	 0.1005282858	 0.103561
H	 1.1478528837	-0.1277294341	-1.3509148897	 0.078301
H	 0.6219572445	-3.1532359746	-1.5572578538	 0.116067
H	 1.5355191009	-2.1809807935	-2.736861565	 0.138095
H	 3.1825022774	-1.5257893492	-0.9308934703	 0.070897
H	-1.4329144424	-1.4417389775	-2.3819100239	 0.094769
H	-1.8437282292	 0.8448017236	-3.3610277856	 0.118118
H	-0.2763385156	 1.4552504967	-2.6171743509	 0.115584
