15
gdb 51749	2.48368	1.24743	0.90745	5.8169	68.16	-0.2841	-0.0144	0.2697	1240.5789	0.111608	-453.915926	-453.90723	-453.906286	-453.951247	29.518	
N	-0.0640594715	 1.2745329907	-0.2308437766	-0.42209
C	-0.0741862614	 0.0189474232	-0.2785838029	 0.126619
O	-1.0825973112	-0.6650398336	 0.3243569416	-0.178145
C	-1.0709759387	-2.060018261	 0.2310694238	 0.075538
C	-1.9146925564	-2.7626922369	 1.3040685574	-0.105704
O	-2.642287958	-3.5057378943	 0.2947902911	-0.265415
C	-2.0542117575	-2.7491024079	-0.7762408167	-0.07423
C	-3.0008756608	-1.8600552171	-1.4528111887	 0.304865
N	-3.7398273891	-1.167630428	-2.0085901798	-0.307667
H	 0.7534866403	 1.641361214	-0.7131562412	 0.23977
H	 0.6672429244	-0.6345842955	-0.7580265833	 0.093859
H	-0.0520986002	-2.4464915082	 0.1303440238	 0.111162
H	-1.3913708327	-3.4234065529	 2.0003659435	 0.126065
H	-2.5607162416	-2.0677004751	 1.850831771	 0.143
H	-1.5846495555	-3.4018598472	-1.521066393	 0.132373
