21
gdb 79706	2.74683	1.63271	1.30949	2.0266	81.03	-0.2461	0.0905	0.3367	1065.9348	0.183339	-387.040346	-387.032194	-387.031249	-387.073049	32.36	
C	-0.2349300612	 1.7300140257	 0.1814644088	-0.420898
C	 0.0071170828	 0.2148610676	 0.1284514454	 0.05971
C	 1.0296910835	-0.4825389807	-0.8246289142	-0.115891
C	 2.3988624464	 0.0302354487	-0.3333135049	 0.039013
O	 2.3846323952	 1.221042367	 0.4683388328	-0.253724
C	 2.2244885173	-0.0484300617	 1.1192473572	 0.039012
C	 0.7847074649	-0.5930547716	 1.2161119838	-0.115895
C	 0.9097491951	-1.7396045448	 0.1309639423	 0.056228
C	-0.234550102	-2.7267527242	-0.0598572612	-0.441472
H	 0.304908379	 2.2567483065	-0.6081403253	 0.124557
H	-1.301588135	 1.9505038382	 0.0656667155	 0.09243
H	 0.0971103121	 2.1628609227	 1.127365801	 0.124577
H	-0.9543950061	-0.2782199052	-0.0136952572	 0.076034
H	 0.8625782824	-0.5520739886	-1.9003564829	 0.057142
H	 3.3204628351	-0.1788885187	-0.8663074365	 0.098722
H	 2.9968715808	-0.3248602493	 1.8292981282	 0.098723
H	 0.3693597231	-0.7745767788	 2.2083251533	 0.057144
H	 1.8447619109	-2.3060541671	 0.2125285531	 0.064961
H	-1.2155751657	-2.2542470252	-0.1517934649	 0.122894
H	-0.0715561581	-3.3257012335	-0.9628341272	 0.118368
H	-0.2813121105	-3.4207525271	 0.7868123729	 0.118366
