14
gdb 131733	5.01913	1.03539	0.86294	5.4762	68.32	-0.2516	-0.0823	0.1693	1241.9396	0.101744	-470.019175	-470.011229	-470.010284	-470.052913	28.156	
O	 0.0305762573	 1.4494503017	 0.010298336	-0.393495
C	 0.015146203	 0.045600694	 0.0009405915	-0.161204
C	-1.4076013808	-0.454029486	 0.0122921897	 0.286851
N	-2.3969307722	 0.3911054355	 0.0221182042	-0.190863
N	-3.614429171	-0.1490371236	 0.0312984838	-0.25975
C	-3.9570642031	-1.5121502103	 0.0313295548	 0.461191
O	-5.1155449386	-1.8539842491	 0.0401082347	-0.366442
N	-2.8631382918	-2.3861962304	 0.0206286949	-0.298049
C	-1.6779697459	-1.8657890891	 0.0119160751	-0.011335
H	 0.9482370449	 1.7367683882	-0.0009643575	 0.297685
H	 0.519080812	-0.3687677343	-0.8903671548	 0.112324
H	 0.5372200536	-0.3808506175	 0.8759629105	 0.112172
H	-4.3814202683	 0.5107082081	 0.0390906751	 0.284512
H	-0.8338016289	-2.559492997	 0.0037421419	 0.126403
