23
gdb 118079	3.77031	0.70988	0.62438	2.8663	79.45	-0.2549	0.0776	0.3324	1824.4465	0.202938	-462.546372	-462.534948	-462.534004	-462.583371	40.613	
C	 0.1873544518	 1.341997916	-0.1716342129	-0.229486
O	 0.1500879495	-0.0624090015	-0.065625576	-0.24978
C	 0.5763989941	-0.5456714091	 1.1966584751	-0.092193
C	 0.6014555354	-2.0700680192	 1.0914940281	 0.1147
O	 1.386598374	-2.4427729116	-0.0324590323	-0.451321
C	 1.1872569785	-2.7608851905	 2.3286546673	 0.003667
C	 0.460638446	-2.3863375886	 3.6265970563	-0.408555
C	 1.1806330279	-4.2872680846	 2.1283317367	-0.078672
O	 1.8067392239	-4.9842991567	 3.1986069314	-0.42194
H	 1.2043880178	 1.7343207654	-0.0178323754	 0.109634
H	-0.1462500633	 1.6036331633	-1.1786367776	 0.130413
H	-0.4809367374	 1.8207875348	 0.5601429734	 0.109915
H	 1.5866428658	-0.1680176391	 1.4275036073	 0.090013
H	-0.1085655728	-0.2073491219	 1.9876898712	 0.095427
H	-0.4408564815	-2.4104252798	 0.9537474776	 0.068339
H	 1.1312974332	-1.8374166122	-0.7397370231	 0.289163
H	 2.2393232289	-2.4456700914	 2.4005011452	 0.066427
H	-0.6215501258	-2.5355878234	 3.5284219044	 0.112501
H	 0.8128573228	-3.0292919168	 4.4365763059	 0.133182
H	 0.6325155274	-1.3458910319	 3.9169007117	 0.109336
H	 0.1454079831	-4.6494214547	 2.1076052017	 0.102655
H	 1.6390795167	-4.5356731932	 1.1647229808	 0.115845
H	 2.7512889739	-4.8071353534	 3.1465252631	 0.280727
