19
gdb 79341	3.2217	1.50562	1.40148	0.6599	73.12	-0.219	0.0747	0.2938	1005.831	0.160595	-423.020842	-423.013381	-423.012437	-423.052177	30.746	
C	-0.053641904	 1.5400800292	-0.0193658499	-0.41344
C	 0.0189358912	 0.0155975858	-0.0133824061	 0.023805
C	 0.9241667012	-0.5885630522	-1.085028878	-0.156713
C	 2.2879897547	-0.6754139864	-0.4159377758	 0.002981
O	 2.1713474614	-0.1876573143	 0.9080853794	-0.261047
C	 0.8132150764	-0.5935094681	 1.1769417496	 0.042948
C	 0.825746091	-2.0988201081	 0.8408941178	-0.303095
C	 1.4345910704	-1.9183149739	-0.5484967573	 0.347568
O	 1.7019540505	-2.9641830895	-1.4168833836	-0.474556
H	 0.9439999753	 1.9722239097	 0.0947841442	 0.133552
H	-0.48169115	 1.9099801919	-0.9567889398	 0.111899
H	-0.6811166439	 1.9073512493	 0.8001144803	 0.108786
H	-0.9874149803	-0.4164816178	-0.0490284584	 0.074526
H	 0.8134216072	-0.4100938424	-2.1461544243	 0.093973
H	 3.240591278	-0.5062741207	-0.8975840891	 0.103956
H	 0.5343164809	-0.2902419421	 2.1844518733	 0.079522
H	 1.4696928174	-2.6712697317	 1.516488766	 0.094751
H	-0.1740347011	-2.5405288879	 0.8224515391	 0.106233
H	 2.4507492135	-3.4606466508	-1.0674744375	 0.284352
