19
gdb 90809	3.1653	1.85625	1.52149	1.7884	76.99	-0.1942	0.0666	0.2609	926.7709	0.161757	-381.977922	-381.970921	-381.969977	-382.009366	28.594	
C	 0.3590163276	 1.4485758099	-0.050273444	-0.326843
N	-0.0544802565	 0.0541325455	 0.0121009247	-0.084872
C	 0.1089073761	-0.6758845887	-1.246104086	-0.183001
C	 1.2348391945	-1.6871100464	-1.2150978072	-0.027038
C	 2.3599066177	-1.6864896981	-0.2470622555	-0.058201
C	 1.997109583	-1.1055807963	 1.1305222767	-0.131468
C	 0.8498057763	-2.1011684512	 1.1438246394	-0.070175
C	 0.5566463217	-0.6306111658	 1.1144642878	 0.019665
N	 1.2763761163	-2.7325998744	-0.167863511	-0.164058
H	 1.4377881163	 1.5833473074	-0.2488532745	 0.099318
H	-0.2050627693	 1.9653438951	-0.8325425961	 0.118726
H	 0.1322946212	 1.9363305337	 0.9038995405	 0.117245
H	-0.8194282823	-1.2127860499	-1.4948108422	 0.108876
H	 0.2880563093	 0.0361226097	-2.0588106667	 0.105638
H	 1.4643764474	-2.1191745884	-2.1875790542	 0.094699
H	 3.3724527704	-1.9617696648	-0.5254324477	 0.094883
H	 2.7211092065	-0.869948757	 1.898823949	 0.089789
H	 0.4895253433	-2.7676495213	 1.917715531	 0.099746
H	 0.2282871007	-0.2513862093	 2.0806522159	 0.097071
