16
gdb 22732	3.21864	1.16071	0.94591	2.2425	69.81	-0.255	-0.0117	0.2434	1213.5186	0.121852	-474.932084	-474.923458	-474.922514	-474.965574	32.041	
O	-0.0931462192	 1.3543274815	 0.0709697736	-0.388118
N	 0.0490338906	-0.0410783208	 0.1344412673	-0.227344
C	-1.07220062	-0.618892517	 0.0545387244	 0.358845
C	-2.5168710348	-0.1860566497	-0.1677803593	-0.402925
C	-2.8055012231	-1.6568421374	-0.4993978631	 0.359944
C	-4.0102531421	-2.4277562769	-0.7750019979	-0.263971
O	-3.1178657964	-2.0340292292	-1.8372955204	-0.269487
C	-1.4238613289	-2.1144218648	 0.0310361079	 0.002396
O	-0.7217160948	-3.024052987	-0.7534571134	-0.419482
H	 0.821528946	 1.6546340346	 0.1149779922	 0.310004
H	-3.0124205534	 0.1882379269	 0.7337466878	 0.133023
H	-2.6821964293	 0.5198283258	-0.985300672	 0.147618
H	-4.0266145885	-3.4944750767	-0.5569663478	 0.128498
H	-4.9816013743	-1.9363458639	-0.7881744737	 0.125849
H	-1.4741319184	-2.5178817113	 1.0501773452	 0.110338
H	-1.0228123632	-2.8925353041	-1.6629438109	 0.294811
