17
gdb 64727	4.05322	1.09565	1.04198	2.3232	71.91	-0.2505	0.0149	0.2654	1166.5911	0.135631	-417.970298	-417.962013	-417.961068	-418.00334	31.326	
O	-0.0858069225	 1.4401207482	-0.0483598998	-0.478054
C	-0.0161731894	 0.0370439028	 0.0119435749	 0.389755
C	 0.9026193575	-0.5190864242	-1.0982978322	-0.392114
C	 2.2593347258	 0.0039994096	-0.9568243148	 0.242636
N	 3.3079646787	 0.464010152	-0.7979678446	-0.303182
C	 0.208043363	-0.6420459724	 1.3984209584	-0.233232
N	-1.0940274069	-1.3932093015	 1.2930557746	-0.125221
C	-2.1309263597	-0.3487138761	 1.2372609638	-0.248491
C	-1.38147796	-0.6357648982	 0.0011774846	-0.065228
H	 0.8044139609	 1.7987734477	 0.0600352676	 0.295102
H	 0.9252204308	-1.6130378439	-1.0675080237	 0.164374
H	 0.5063721547	-0.217359666	-2.0741512289	 0.160566
H	 1.0532296029	-1.3321265715	 1.4381324307	 0.120314
H	 0.2533822518	 0.0434279819	 2.2496370724	 0.115706
H	-3.138145908	-0.7477998443	 1.3029226597	 0.128504
H	-1.969764172	 0.5912000806	 1.7584942382	 0.131105
H	-1.8278699877	-1.1194665648	-0.8622445807	 0.09746
