21
gdb 81420	2.31648	1.96319	1.46986	1.3879	80.91	-0.2461	0.0778	0.3239	995.7701	0.184663	-387.055099	-387.047496	-387.046551	-387.086392	32.327	
C	 0.0269039641	 1.4742040969	 0.0036059292	-0.492315
C	 0.0230028275	-0.0372751672	-0.0042466484	 0.353445
C	-0.832592192	-0.8003614843	 0.9780708292	-0.365142
C	 0.6707833123	-0.9415054069	 1.0478593471	-0.101227
C	 1.3872168311	-1.9658105117	 0.1433922536	-0.089291
C	 0.3615393943	-2.269200448	-0.9799808335	-0.249115
C	 0.5115486124	-0.757277979	-1.2844264064	-0.136815
C	 2.0314879177	-1.0005617779	-0.9181760101	 0.181139
O	 2.8799803261	 0.0382516694	-0.5269774738	-0.444907
H	 0.9485719643	 1.8790699761	-0.4286537937	 0.12478
H	-0.8070723121	 1.8702344125	-0.588399486	 0.12011
H	-0.078351493	 1.8699234397	 1.0195572619	 0.11223
H	-1.2716747414	-0.1925730156	 1.7643877971	 0.104494
H	-1.4674399479	-1.6262761701	 0.6815392773	 0.1123
H	 1.1919467567	-0.5536770947	 1.9179926798	 0.083211
H	 1.9590927901	-2.7558047045	 0.6308543546	 0.06134
H	 0.796376934	-2.8889239606	-1.7668239702	 0.100192
H	-0.617311452	-2.66546134	-0.7172349127	 0.099552
H	 0.2093194469	-0.3279224717	-2.2405367636	 0.057651
H	 2.5583128267	-1.5393072084	-1.7098010374	 0.08176
H	 2.4953641342	 0.4575827459	 0.249943646	 0.286606
