25
gdb 118091	2.79131	0.8429	0.78525	1.2451	89.29	-0.2349	0.0674	0.3024	1656.8007	0.225715	-389.484806	-389.473298	-389.472354	-389.522013	41.854	
C	-0.0294838761	 1.5299493186	-0.2853486612	-0.378663
C	-0.0003939526	 0.0263967394	 0.0058709473	-0.178073
C	-1.3994637453	-0.6006773322	 0.0092941325	-0.159237
C	-1.4244084901	-2.1302927862	 0.1996331168	-0.012408
C	-0.9002388983	-2.572491132	 1.5746921698	-0.399
C	-2.8251112477	-2.6738574805	-0.0364160693	 0.453611
O	-3.7138243179	-2.1354258862	 0.9135818707	-0.482317
C	-3.3064325617	-2.9262297274	-1.439745889	-0.338573
C	-3.0132290972	-4.0917312438	-0.5022737876	-0.344236
H	 0.9777785702	 1.9586448089	-0.283174526	 0.107652
H	-0.4774615871	 1.7353480799	-1.2641154123	 0.111235
H	-0.6211932253	 2.0657245532	 0.4652824017	 0.114098
H	 0.6233513879	-0.4789407595	-0.7445033378	 0.087945
H	 0.4907868689	-0.1419486257	 0.9715506614	 0.098094
H	-2.0125764005	-0.1364367036	 0.7910656892	 0.107558
H	-1.8934002019	-0.3631554236	-0.9424759771	 0.087262
H	-0.7845581683	-2.577679204	-0.5738810192	 0.063741
H	-0.9321140375	-3.6626893892	 1.6695081479	 0.10816
H	 0.1339905341	-2.2547158496	 1.7319403852	 0.108476
H	-1.5161723409	-2.1497662779	 2.3734759754	 0.129366
H	-4.5867217019	-2.513435538	 0.7730115734	 0.279246
H	-4.3469601436	-2.7126518416	-1.6659910933	 0.104257
H	-2.6295366881	-2.7470330477	-2.2688460442	 0.113953
H	-2.1386415545	-4.7046354587	-0.6955989192	 0.114463
H	-3.8610192346	-4.6460916925	-0.1100028349	 0.103389
