21
gdb 13711	5.72866	0.78158	0.73112	2.2903	76.25	-0.2212	0.0802	0.3014	1580.648	0.18726	-366.225767	-366.216053	-366.215109	-366.260994	34.4	
C	 0.0863733414	 1.5090028946	-0.4295734865	-0.411784
C	 0.048689708	 0.0427148217	-0.0549313715	 0.03085
C	 1.2987122569	-0.760919319	 0.0718630181	-0.25386
N	 0.4804932798	-0.4721087175	 1.2460485768	-0.079433
C	 1.0268700273	 0.4326917376	 2.2508362235	-0.144274
C	 1.7681428753	-0.3661729104	 3.3235188048	-0.160367
C	 2.3219274239	 0.5129480285	 4.4362588879	-0.074048
O	 3.0048157236	-0.3261820244	 5.3560695611	-0.42025
H	 1.0223016709	 1.9931937746	-0.1412822512	 0.120096
H	-0.0193030828	 1.6158845192	-1.5144464005	 0.122075
H	-0.7391232192	 2.058913564	 0.0364484867	 0.121611
H	-0.8385419984	-0.4725109934	-0.4225914602	 0.08802
H	 1.3392627957	-1.7999604758	-0.2453625417	 0.111746
H	 2.2395753702	-0.2195198099	-0.0352620169	 0.101148
H	 1.7071182961	 1.1913670237	 1.8266841924	 0.07836
H	 0.1875853336	 0.9758225783	 2.7044078727	 0.098847
H	 1.0921004914	-1.1122266252	 3.7532820119	 0.11635
H	 2.5982532712	-0.9170790512	 2.8657873525	 0.107057
H	 3.0006401105	 1.2722466985	 4.0125431241	 0.080711
H	 1.4981369863	 1.0558262637	 4.9291664733	 0.08291
H	 3.3446133885	 0.2233629324	 6.0680872025	 0.284233
