21
gdb 78660	2.56393	1.53861	1.18293	1.9171	81.94	-0.2396	0.0828	0.3223	1133.5084	0.181995	-387.044257	-387.035554	-387.03461	-387.076858	34.567	
C	 0.0051548515	 1.6191007045	-0.0547818148	-0.427263
C	 0.0986559298	 0.0977723281	-0.0019623795	-0.026267
C	 1.1110934791	-0.679684612	-0.8912885425	-0.122313
C	 1.2637992708	-1.7277222254	 0.2900671895	-0.16791
C	 2.2584152908	-0.7339490795	 0.8763965725	-0.157202
C	 2.5145310409	-0.1323024216	-0.5037800858	 0.154788
O	 3.5840460587	-0.7377480923	-1.200933401	-0.449265
C	 0.7567259033	-0.6241588847	 1.1856347601	 0.338826
C	 0.2265623971	-0.7242494473	 2.5862737586	-0.508997
H	 0.9613700659	 2.1030524698	 0.162805538	 0.120837
H	-0.3253231502	 1.9575046747	-1.0433596765	 0.115812
H	-0.7222617779	 1.986748232	 0.6775037881	 0.113719
H	-0.8995154101	-0.335419431	-0.1475935741	 0.066367
H	 0.8981299186	-0.9033396702	-1.9356235902	 0.067459
H	 1.1735529929	-2.8020935852	 0.3641514385	 0.088078
H	 2.9800603358	-0.8993243619	 1.6679374724	 0.083099
H	 2.6887671028	 0.943488571	-0.5961569135	 0.075426
H	 3.5093985716	-1.6906490394	-1.0670862992	 0.276081
H	 0.2740181829	 0.2416210314	 3.1026183695	 0.122165
H	-0.8192265819	-1.0528739961	 2.5885885789	 0.117758
H	 0.802209468	-1.443111915	 3.179267581	 0.118804
