21
gdb 51563	3.92886	0.73491	0.66186	2.9367	85.19	-0.2411	-0.018	0.2231	1709.0219	0.181102	-387.070744	-387.061218	-387.060274	-387.106679	34.591	
O	-0.5747550748	 0.1808258487	-0.046851629	-0.240907
C	-0.1020345956	 1.2856673435	 0.0279590464	 0.164743
C	 1.3318802693	 1.6416251173	-0.3063187053	-0.297219
C	 1.4018303527	 2.7948307791	-1.2912698794	-0.022068
C	 1.2896211396	 4.2318941073	-0.827675785	-0.309769
C	 2.5988420938	 3.7205885263	-1.378194461	-0.018315
C	 3.8059626709	 3.5732448178	-0.5064689933	 0.02707
C	 5.0786065509	 2.9804717811	-1.0633823001	-0.26842
C	 5.012210892	 4.4518343562	-0.7384460897	-0.277707
H	-0.7203983791	 2.1536671995	 0.3556492335	 0.073574
H	 1.8221383492	 1.9237531605	 0.6351146259	 0.115279
H	 1.8319886896	 0.7456020851	-0.6867629361	 0.122599
H	 0.9269359712	 2.5735986405	-2.2439617606	 0.094381
H	 0.7029289461	 4.9292213133	-1.4153034843	 0.114748
H	 1.2418743532	 4.4089813188	 0.2430004787	 0.110882
H	 2.8403557828	 4.0434633264	-2.3885250853	 0.082713
H	 3.5952135321	 3.3439898301	 0.5341698952	 0.078193
H	 5.6718764693	 2.3356115462	-0.4245936863	 0.112765
H	 5.0833229971	 2.6927091999	-2.1096601428	 0.112587
H	 4.9724861477	 5.1530677417	-1.5657253276	 0.112574
H	 5.5584067419	 4.8165057507	 0.124382626	 0.112297
