18
gdb 14262	3.12535	2.61307	1.8219	0.5618	77.88	-0.2065	-0.0272	0.1793	787.253	0.157772	-310.667633	-310.661457	-310.660513	-310.697439	25.934	
C	-0.0296690177	 1.5323158059	-0.0163371996	-0.220285
C	 1.5317737006	 1.5281155761	 0.007725656	-0.055322
C	 1.4202879572	 0.1014498226	 0.6329159976	-0.220285
C	-0.0077508121	-0.0288515099	 0.0145137716	-0.055322
C	-0.012841742	-0.6548903927	-1.3536868361	-0.083629
C	 0.7851412222	-0.3112778378	-2.3785406635	-0.073166
C	 1.8126391466	 0.7279465565	-2.3830901156	-0.073165
C	 2.1516831503	 1.534274909	-1.3632590709	-0.083629
H	-0.4268539377	 1.9291177841	 0.9208841297	 0.098651
H	-0.5213812412	 2.0148388974	-0.8627624071	 0.104917
H	 1.9999405822	 2.2878770039	 0.6366297402	 0.060793
H	 2.1674541132	-0.6386274845	 0.3412399123	 0.104917
H	 1.3626284125	 0.1632304081	 1.7221595029	 0.098651
H	-0.7594450671	-0.5027543478	 0.6487933764	 0.060793
H	-0.7300136377	-1.4553194818	-1.5158571782	 0.085834
H	 0.6682176842	-0.8540131728	-3.3134021268	 0.082207
H	 2.3498805885	 0.8469094808	-3.3208630508	 0.082207
H	 2.943153588	 2.2597938529	-1.5321331482	 0.085834
