14
gdb 123659	4.11071	1.62339	1.27298	4.9314	67.97	-0.2119	-0.0366	0.1753	923.039	0.103057	-432.807651	-432.801382	-432.800438	-432.838113	25.24	
C	 0.023840438	 1.4889443477	 0.0976265137	-0.298318
C	 1.3186935602	 0.7215514065	 0.0076681389	-0.001312
N	 2.0603325407	 0.3379412845	 1.2154427379	-0.401057
C	 1.1381598621	-0.4234287932	 1.9513189856	 0.267253
C	 0.0041393875	-0.7252332113	 1.2691017483	 0.383295
O	-0.7380553596	-1.5497779486	 1.9755245383	-0.244593
N	 0.0362080267	-1.7434929187	 3.2377484546	-0.049401
N	 1.0995690915	-1.0662108203	 3.1433606836	-0.209503
C	-0.0330276037	-0.0273243142	-0.0273908609	-0.199481
H	-0.2721924323	 1.9330605474	 1.04151901	 0.131624
H	-0.2588391733	 2.0544480147	-0.7833004585	 0.130621
H	 1.9246313465	 0.8225477842	-0.8849817298	 0.115819
H	 2.4846479894	 1.1173495787	 1.7047319567	 0.251196
H	-0.4248496338	-0.4920902374	-0.9227476784	 0.12386
