16
gdb 45797	2.96477	1.70457	1.16376	2.4239	74.02	-0.2388	-0.0097	0.2292	1016.7403	0.126691	-434.054821	-434.047551	-434.046607	-434.086736	28.304	
N	-0.1245174231	 1.2015148603	-0.493669512	-0.520541
C	-0.0022697604	 0.0265674345	-0.0371036165	 0.441877
N	 1.1944521205	-0.5681493157	 0.3874495626	-0.35975
C	 1.4342061418	-1.8242691489	 0.9431348761	 0.09358
N	 0.8238326405	-2.9262139411	 0.8037817553	-0.239204
C	-0.2726337744	-3.0676519279	-0.0972319849	-0.000161
C	-1.7008549914	-3.0777038944	 0.4021972097	-0.316613
C	-1.2221942149	-1.9570563474	-0.4719764757	 0.059451
O	-1.1124945287	-0.7150387628	 0.1804153418	-0.222216
H	 0.7675031079	 1.6929958545	-0.5232159813	 0.212349
H	 1.9679293811	 0.07589594	 0.4571615805	 0.252532
H	 2.3277217154	-1.815366775	 1.5701559249	 0.118154
H	-0.0541319534	-3.7942171866	-0.8771374255	 0.110436
H	-2.3924020722	-3.806748654	-0.0032409643	 0.121633
H	-1.8496943441	-2.8209815015	 1.4448614724	 0.137647
H	-1.5774260245	-1.8654577741	-1.4955266832	 0.110828
