19
gdb 52423	5.50675	0.51431	0.49011	5.0603	74.38	-0.275	0.0084	0.2835	2152.8075	0.157256	-460.159896	-460.150124	-460.149179	-460.196872	33.226	
O	 0.3850060104	 0.2010428964	 0.7625595179	-0.273136
C	 0.38757252	 1.3868830126	 0.6262981074	 0.171375
O	 0.8785420727	 1.9952426183	-0.4688768213	-0.174389
C	 0.8707045759	 3.4282099053	-0.5054688017	-0.092812
C	 2.2730869115	 3.9816490709	-0.2845624087	-0.184382
C	 2.3240595143	 5.5086715945	-0.4307454122	-0.230122
C	 3.709556826	 6.0528335149	-0.1791645767	 0.1001
C	 3.9422333488	 7.3319479814	 0.5007819253	-0.180913
O	 4.1334135995	 6.0924984803	 1.1862723779	-0.234446
H	-0.0154025997	 2.1035397486	 1.3699737744	 0.075581
H	 0.4879607869	 3.7057597486	-1.4927498357	 0.124638
H	 0.1714625056	 3.817888672	 0.2467432961	 0.111861
H	 2.6224986863	 3.7013189427	 0.7156495954	 0.127165
H	 2.9529705395	 3.5091240538	-1.0031388721	 0.119267
H	 2.0034335029	 5.8007202531	-1.4399372497	 0.106234
H	 1.6289252911	 5.9779394838	 0.2760247841	 0.10661
H	 4.4805905226	 5.697944445	-0.8664691397	 0.095198
H	 4.8489990455	 7.899554278	 0.2970042869	 0.118445
H	 3.0905637802	 7.9236739898	 0.8346629323	 0.113726
