12
gdb 5049	3.59797	2.48091	1.74436	3.4141	63.44	-0.2581	-0.1055	0.1525	719.9173	0.086042	-373.696465	-373.690429	-373.689485	-373.726613	22.475	
N	-0.1259362028	 0.99582481	 0.607250408	-0.474201
C	-0.0087214877	-0.0198738347	-0.1348566178	 0.341776
N	-1.1646762844	-0.6479446754	-0.6623700173	-0.16455
C	-1.3781999477	-1.8669904066	-0.3485453141	-0.009731
C	-0.4857713674	-2.7212158686	 0.4535970199	 0.014274
N	 0.7992193636	-2.6850758569	 0.452729975	-0.202815
C	 1.4961697405	-1.7654394055	-0.3302712599	 0.06801
N	 1.2030608434	-0.5547831092	-0.6208960383	-0.22459
H	 0.7994558795	 1.3483626221	 0.8571101845	 0.232197
H	-2.2986256402	-2.332985186	-0.7097250262	 0.137958
H	-0.9587151292	-3.5066873021	 1.0480872213	 0.139029
H	 2.4493159025	-2.1562653872	-0.685785215	 0.142644
