17
gdb 84526	2.24605	1.82308	1.48128	3.068	77.26	-0.2419	-0.0112	0.2307	971.4517	0.136915	-380.862108	-380.854337	-380.853393	-380.894152	29.939	
C	-0.5197213755	 1.4730376706	 0.0298625853	-0.41604
C	-0.063364875	 0.0135024883	-0.0010484083	-0.000016
C	 0.630177235	-0.4673225616	-1.2609381593	-0.079281
C	 1.7370825317	-1.1483544765	-0.9659160467	-0.088305
C	 1.9543183511	-1.1346805814	 0.5097851067	-0.080425
C	 2.2291478292	 0.2178114769	 1.1156540328	-0.169722
C	 2.6783140393	 1.310128322	 0.2891629548	 0.312042
N	 3.083124181	 2.2073067339	-0.3195672713	-0.353191
N	 0.8624400203	-0.3541830583	 1.1090392073	-0.123278
H	 0.2980002794	 2.1667239253	-0.1713700114	 0.157628
H	-1.2942898399	 1.6321067561	-0.7265051261	 0.121939
H	-0.9484009513	 1.7075750507	 1.0080241601	 0.131904
H	-0.955590271	-0.608539303	 0.1664510055	 0.10613
H	 0.2475346057	-0.2707210088	-2.2552020916	 0.114049
H	 2.4132481419	-1.6269736456	-1.6618004737	 0.116357
H	 2.3047339899	-2.0195250828	 1.0347240929	 0.110731
H	 2.6408526182	 0.2600156241	 2.1211749329	 0.139479
