17
gdb 53108	2.23496	1.0349	0.85326	4.0681	79.83	-0.24	-0.0211	0.2189	1419.8309	0.13246	-421.793278	-421.783199	-421.782255	-421.829623	34.596	
C	 0.1158905281	 1.5012162406	 0.1167841194	-0.501372
C	 0.0585856269	 0.0476528761	 0.055737687	 0.109375
C	 0.0032708923	-1.1541213218	-0.0377008725	 0.034044
C	-0.0281070076	-2.5877764155	-0.0713535041	-0.273137
C	-0.4390734827	-3.3099442985	 1.1845948021	 0.105494
O	-0.7979358391	-2.5782689954	 2.3060742092	-0.417786
C	-1.3687508782	-3.3656950772	-0.0210620052	-0.169874
C	-2.6596742147	-2.6374617839	-0.0052216587	 0.176945
O	-3.6511456703	-3.0359342408	-0.567723864	-0.272169
H	 0.9097154291	 1.8443146297	 0.7889656675	 0.153747
H	 0.3109120854	 1.9256811823	-0.8738923423	 0.159283
H	-0.8307387752	 1.9190415391	 0.4758901849	 0.157634
H	 0.7353973965	-3.0586529278	-0.6831021656	 0.129115
H	 0.0810116136	-4.2333519488	 1.426655081	 0.11856
H	-0.466802772	-1.6765461225	 2.192767786	 0.292808
H	-1.3923371296	-4.2910338169	-0.5859918042	 0.114479
H	-2.6623654824	-1.6908437287	 0.5702501895	 0.082853
