16
gdb 82086	2.643	1.59228	1.18373	2.9407	63.94	-0.242	0.0289	0.2709	1027.6498	0.124523	-475.009112	-475.001177	-475.000233	-475.041902	30.347	
N	 0.0997015515	 1.1783664678	 0.4204862295	-0.532378
C	 0.0618929867	 0.0027138284	-0.2650574521	 0.392376
O	 0.923737606	-0.3600128902	-1.0417729554	-0.373211
C	-1.1987151393	-0.8314513427	-0.0537757193	-0.185333
C	-0.975708264	-2.3224165261	 0.1926887783	 0.041068
O	-0.4067292396	-2.4534008615	 1.507679351	-0.256908
C	-1.8323828642	-2.3187604442	 1.3890876725	-0.016705
C	-2.0638302461	-0.8042586334	 1.2836443464	 0.075539
O	-1.598479939	-0.0478701645	 2.3769796139	-0.429488
H	 0.9467204075	 1.7212935585	 0.3560200926	 0.256938
H	-0.5124040668	 1.3093557226	 1.2136576153	 0.269383
H	-1.8545064955	-0.667277263	-0.9151733696	 0.116699
H	-0.7638916977	-3.1107054557	-0.5171021868	 0.123579
H	-2.4468308401	-3.0888424273	 1.8396631991	 0.116879
H	-3.0990757532	-0.5098272274	 1.1032133732	 0.103921
H	-0.7825777662	-0.4826863412	 2.6643375414	 0.297642
