17
gdb 77744	1.99722	1.54045	1.43073	3.7022	70.03	-0.2365	-0.0092	0.2273	1046.3652	0.133215	-458.943452	-458.934378	-458.933433	-458.976795	33.882	
C	-0.2256510041	 1.6500786132	-0.0786580492	-0.431928
C	 0.0187435523	 0.1478957922	-0.007766605	-0.155237
C	 1.1198231319	-0.5396290782	-0.8498636189	 0.434725
O	 1.3153200466	-0.5873165686	-2.0332696686	-0.329739
C	 1.7349627765	-1.2466976146	 0.315757512	-0.355819
C	 2.0677620005	-0.2310954355	 1.401524093	 0.021799
O	 2.6241866717	 1.0249940091	 1.140275799	-0.413276
C	 0.6336101854	-0.5062287451	 1.2337595705	 0.37746
O	-0.1987120613	-0.9902105215	 2.2084801487	-0.446314
H	 0.6821588352	 2.2064296144	 0.1586575738	 0.143577
H	-0.552274274	 1.9236641289	-1.0867426343	 0.129899
H	-1.0119097291	 1.9489727216	 0.6218590192	 0.121027
H	-0.9057254013	-0.3995038507	-0.2377932751	 0.115035
H	 2.17719076	-2.2364668953	 0.3181077697	 0.110825
H	 2.4966146555	-0.7257465163	 2.280555898	 0.089949
H	 3.4695898933	 0.8920733788	 0.6966567209	 0.293729
H	 0.2962675309	-1.1057797725	 3.0266719561	 0.294288
