13
gdb 5278	4.9869	1.67654	1.26445	2.6247	62.83	-0.2605	-0.066	0.1945	898.278	0.095573	-398.650504	-398.643459	-398.642515	-398.682446	24.619	
C	-0.0164151156	 1.4838810101	 0.0040936596	-0.478442
C	-0.0248487768	-0.0284025149	 0.0237512753	 0.301641
O	-0.0460891995	-0.6906455036	 1.0365548462	-0.296294
C	-0.0015685217	-0.681444141	-1.3100222273	 0.302859
N	 0.0222031612	-0.1105682826	-2.4814044674	-0.290283
C	 0.0363162523	-1.156830509	-3.3800722295	-0.114863
C	 0.0199208613	-2.3276482956	-2.6881927703	-0.02587
O	-0.0042933255	-2.0381449795	-1.3659068584	-0.144286
H	 0.8788697367	 1.8515426788	-0.5069096374	 0.154191
H	-0.8739947089	 1.8623125944	-0.5604668822	 0.154195
H	-0.0444373321	 1.8518805859	 1.02989612	 0.141807
H	 0.0568794637	-0.9987882217	-4.446396831	 0.13559
H	 0.0220618948	-3.3701037015	-2.9573528774	 0.159755
