19
gdb 74531	3.62642	1.34693	1.2801	2.2827	80.4	-0.2173	0.0119	0.2293	1076.5958	0.159812	-385.846077	-385.838472	-385.837528	-385.877751	30.657	
C	 0.0495579898	 1.5122747219	 0.0343394275	-0.485706
C	-0.0285215937	 0.0179531164	-0.0039867395	 0.325563
C	-0.120384198	-0.7571598022	-1.0994833791	-0.28115
C	-0.0440349659	-2.1878056957	-0.7295900005	 0.371983
C	 1.164916896	-2.7831765986	-0.0771754935	-0.363153
C	 0.0379132154	-2.24613321	 0.7838517003	 0.140144
C	-1.1879141152	-3.1572656661	 0.644335204	-0.133723
O	-1.1290836721	-3.132283278	-0.8113873561	-0.323321
C	 0.0474979198	-0.8110457121	 1.2868732912	-0.39681
H	 1.0051481921	 1.8494835231	 0.4559730857	 0.128605
H	-0.0533912594	 1.9496700449	-0.9620162503	 0.128029
H	-0.7365703919	 1.9297072962	 0.6764254772	 0.127464
H	-0.190684808	-0.3859661454	-2.1158443203	 0.095932
H	 1.3139980827	-3.8573863591	-0.1381763698	 0.118404
H	 2.0704378452	-2.1871487483	-0.1033692777	 0.119884
H	-1.1157165912	-4.1784681726	 1.0383740786	 0.103341
H	-2.1115713481	-2.6880607437	 1.0047863892	 0.105178
H	 0.9436827973	-0.5606262358	 1.8696198452	 0.110786
H	-0.8079021847	-0.5972186148	 1.9424210978	 0.108551
