18
gdb 90857	3.93461	1.49145	1.3846	1.4482	74.83	-0.2159	0.0042	0.2201	967.7246	0.150038	-401.893311	-401.886564	-401.88562	-401.924071	28.33	
O	-0.085380182	 1.40045467	-0.0420933841	-0.441832
C	-0.0330419501	-0.0187096419	 0.0024528496	 0.090224
C	 0.4516893519	-0.6065907838	 1.3674278328	-0.21073
N	-0.7418025828	-1.3037569076	 1.8936543031	-0.118871
C	-1.2956796932	-2.0167703849	 0.6399821194	-0.069278
C	-2.7020654071	-2.3805605971	 1.0896082402	-0.084567
C	-3.1055286951	-1.2625067936	 1.6937835016	-0.08061
C	-1.9000023704	-0.3492495153	 1.5371290675	-0.048753
C	-1.4452836051	-0.5721035221	 0.0505256309	-0.01439
H	 0.8169352363	 1.7340496486	-0.0280592542	 0.283002
H	 0.5383110627	-0.410234538	-0.851869979	 0.063062
H	 1.2781642738	-1.3174015496	 1.2669619987	 0.099267
H	 0.7553752942	 0.1920015527	 2.0515715388	 0.102133
H	-0.6580001656	-2.774561412	 0.1805533721	 0.064534
H	-3.1932587596	-3.3331965535	 0.9591381624	 0.108537
H	-4.0280531009	-1.0271819602	 2.2033353046	 0.108698
H	-1.8913401794	 0.6377346411	 1.9977540527	 0.078147
H	-2.1078441077	-0.3600944427	-0.7905237871	 0.071427
