19
gdb 53458	3.76872	0.56032	0.50577	0.4117	94.43	-0.2301	0.0457	0.2758	2203.1502	0.156995	-348.690268	-348.679731	-348.678786	-348.730006	35.813	
C	-0.02309406	 1.3101707205	-0.5796310261	-0.495793
C	-0.0425264022	-0.0630232702	-0.0963253498	 0.061761
C	-0.0630679234	-1.1975763186	 0.3026560578	 0.087652
C	-0.080660277	-2.57986124	 0.7895889154	-0.499441
C	-1.3603761057	-3.2646723257	 0.5904799629	 0.074642
C	-2.4114410939	-3.8306168306	 0.4291608868	 0.085983
C	-3.6643977337	-4.5030450361	 0.2412917925	-0.154378
C	-4.4970676342	-4.2362558039	-1.0031626754	-0.250908
C	-3.8135525468	-5.5612904558	-0.8410135798	-0.252339
H	 0.7237211598	 1.4451215958	-1.3698889185	 0.146187
H	-0.9965006306	 1.5983279825	-0.9917370374	 0.149001
H	 0.2161956051	 2.0135191715	 0.2256484841	 0.146553
H	 0.7199361929	-3.1501348049	 0.2969313656	 0.152228
H	 0.1720180097	-2.5928464493	 1.8595018757	 0.15396
H	-4.228524598	-4.6822130013	 1.1522120142	 0.107847
H	-5.572984613	-4.1875270828	-0.8788428937	 0.116955
H	-4.090952726	-3.5374705853	-1.7244767552	 0.127941
H	-2.9429797175	-5.7641470719	-1.4530836737	 0.125396
H	-4.4155402256	-6.431482434	-0.6046240554	 0.116752
