15
gdb 15469	2.78851	2.07009	1.46704	2.2769	66.51	-0.2277	-0.0281	0.1996	875.7848	0.118817	-362.638567	-362.631066	-362.630122	-362.670718	27.84	
O	 0.0196393479	 0.0327042302	-0.2944076277	-0.296337
C	-0.0035289269	 1.2061102152	-0.0517091065	 0.402267
C	-1.231240665	 2.0764360072	 0.235826096	-0.329016
C	-0.6367088237	 3.4605168461	 0.5512804936	-0.1806
N	 0.6764460492	 3.5223303026	-0.1280383542	-0.281901
C	 1.2352103189	 2.1646252395	-0.0256018269	-0.310199
C	 1.9645889873	 1.9662416278	 1.2246990935	 0.383834
C	 2.5254255793	 1.7758315156	 2.2704147612	-0.460655
H	-1.8486988292	 2.0966621434	-0.6702099598	 0.13456
H	-1.8358229181	 1.6312911747	 1.0302121582	 0.139364
H	-1.2637024415	 4.2917438941	 0.2242341375	 0.113868
H	-0.4704499808	 3.5712917392	 1.6280428025	 0.13014
H	 0.5291414653	 3.7265754661	-1.1123242683	 0.225193
H	 1.8858798575	 1.941025751	-0.8764239335	 0.125727
H	 3.0391557398	 1.6147629872	 3.1859072444	 0.203755
