19
gdb 128287	3.46852	1.14495	0.87754	2.0275	80.55	-0.1932	0.0264	0.2196	1349.7385	0.159916	-415.425881	-415.41603	-415.415086	-415.461147	34.175	
C	-0.0438977035	 1.3985707344	-0.0809904778	-0.315082
N	 0.1677606948	-0.0333140275	 0.0168649509	-0.372365
C	 0.6821281024	-0.7116578741	-1.0602201321	 0.422928
N	 1.3134748561	-0.1153316328	-2.0637159231	-0.357652
N	 1.6815694006	-1.1879977544	-2.8374592209	 0.001035
C	 2.4170080066	-0.964725565	-4.0580155654	-0.322887
C	 1.2489721347	-2.3347851961	-2.2744428109	 0.352778
C	 1.4626355791	-3.6987473006	-2.8426210013	-0.505443
N	 0.6079875924	-2.0733311979	-1.1443600311	-0.3903
H	 0.905967639	 1.8922929087	-0.3016549194	 0.147046
H	-0.756297396	 1.6818158485	-0.8703903713	 0.113014
H	-0.4119682931	 1.7691241548	 0.8786396962	 0.11688
H	-0.5443200506	-0.5594747829	 0.4991899655	 0.245167
H	 3.3746044316	-0.480944871	-3.843035538	 0.147043
H	 2.6020547716	-1.9218532421	-4.547494255	 0.137757
H	 1.8451076762	-0.3208466398	-4.7328504526	 0.14674
H	 2.526818295	-3.9454006966	-2.9239184469	 0.138195
H	 0.9914549043	-4.4246092364	-2.1793693266	 0.158498
H	 1.0199226587	-3.801591079	-3.8392126204	 0.136647
