24
gdb 122994	4.43719	0.64798	0.6008	2.501	87.23	-0.2338	0.0832	0.317	1974.7383	0.215743	-405.525312	-405.514374	-405.51343	-405.562308	39.109	
C	-0.3035900532	 1.552469	 0.5504558094	-0.38275
C	-0.4026711	 0.1257597735	 1.0957601501	-0.186109
C	 0.9120077707	-0.6325649963	 0.9790291339	-0.027478
O	 0.7386178414	-1.9324691079	 1.5067453225	-0.256275
C	 1.8943947569	-2.7366362091	 1.433104112	-0.128326
C	 1.598594158	-4.1165572663	 1.9937852481	 0.314242
C	 2.7481124189	-5.090476881	 1.8574228337	-0.451095
C	 0.6432345416	-4.2345927318	 3.1221196609	-0.268577
N	 0.2599742127	-4.6811225917	 1.7630663075	-0.355082
H	-0.031718067	 1.5571218269	-0.510826706	 0.117914
H	-1.2578246314	 2.0772752345	 0.6501384076	 0.119701
H	 0.4528207869	 2.134251341	 1.0887076535	 0.11755
H	-0.7027879792	 0.1415564509	 2.1498508115	 0.10779
H	-1.1768366443	-0.4339149229	 0.5583671647	 0.107186
H	 1.2314639233	-0.6909058538	-0.0757790014	 0.087128
H	 1.7105867597	-0.1042439565	 1.5275467696	 0.086979
H	 2.2261023813	-2.8294280062	 0.3834723126	 0.088852
H	 2.7255285046	-2.2741635568	 1.9931317072	 0.091747
H	 3.6280802347	-4.7471427593	 2.413662757	 0.111376
H	 2.4569586895	-6.0709411344	 2.2408030041	 0.130564
H	 3.0377681537	-5.213664886	 0.807306704	 0.11587
H	 0.7647954323	-5.0330612953	 3.8495218489	 0.106297
H	 0.1923190524	-3.323703699	 3.5021849636	 0.118272
H	-0.3219284533	-3.9533800025	 1.3519894249	 0.234223
