17
gdb 90838	3.21538	1.89687	1.48079	0.874	70.83	-0.2352	0.0611	0.2963	901.225	0.136098	-421.702092	-421.695461	-421.694517	-421.732772	27.516	
C	-0.1801113916	 1.4925408417	-0.0587942795	-0.402933
C	 0.0801715985	 0.0037770522	 0.0824923088	 0.037612
O	 0.9871496922	-0.4735080886	-0.9573399818	-0.316413
C	 2.1223406009	-1.0788101066	-0.2617837314	 0.059611
C	 1.5280359272	-1.8612777521	 0.9133671448	-0.116676
C	 2.3281863212	-1.1888245982	 2.0501846536	-0.022463
O	 1.1138225735	-0.5411265572	 2.6721280046	-0.392922
C	 0.9460204336	-0.4513008324	 1.2425615502	 0.421857
C	 2.4450774157	-0.1497116489	 0.9124164927	-0.118963
H	 0.7478136978	 2.0626775601	 0.0371985463	 0.122067
H	-0.6154637085	 1.705929211	-1.0387864589	 0.13063
H	-0.8813305968	 1.8308035573	 0.7111067683	 0.125133
H	-0.8562865859	-0.5632689111	 0.0167158817	 0.092251
H	 2.8212479642	-1.4525779844	-1.0059353179	 0.089199
H	 0.9658483415	-2.7921879242	 0.9398339527	 0.093881
H	 3.0628325055	-1.579990706	 2.7502585272	 0.104221
H	 2.9149222809	 0.8306859474	 0.9402152786	 0.093907
