17
gdb 124899	3.67995	1.27553	1.03203	2.6508	74.4	-0.2401	0.0181	0.2581	1147.1708	0.136972	-418.012105	-418.004108	-418.003164	-418.045015	30.195	
C	-0.3810517218	 1.2624831573	-0.9506461493	-0.466023
C	-0.0948137007	 0.0738741055	-0.0632705898	 0.318319
C	 1.1345639207	-0.7192489656	-0.2683961135	-0.217577
O	 1.0391884312	 0.2042998544	 0.8142836147	-0.274585
C	-1.2669760427	-0.5834673122	 0.5732434542	 0.312438
N	-2.484583014	-0.484699333	 0.0405426725	-0.313176
N	-3.2702465617	-1.1981767378	 0.8688455242	-0.178955
C	-2.5931719582	-1.7384590518	 1.9114693803	-0.025304
C	-1.2787598819	-1.3603453893	 1.7569205675	-0.293416
H	 0.5504316199	 1.6636686057	-1.3568447841	 0.117013
H	-1.0400057936	 0.9720405423	-1.7730362912	 0.139357
H	-0.8855044703	 2.0504179816	-0.3837842232	 0.13043
H	 1.1471844238	-1.7715573863	 0.0118630807	 0.110691
H	 1.8237849264	-0.4397890394	-1.0651788305	 0.11166
H	-4.253582713	-1.2643520564	 0.6690725656	 0.275359
H	-3.0902165282	-2.3284821999	 2.6652566921	 0.134995
H	-0.446302446	-1.5798732352	 2.4035075199	 0.118772
