13
gdb 10791	4.89137	1.66935	1.32894	2.6499	56.09	-0.2742	-0.0133	0.261	860.6129	0.096639	-435.771117	-435.764451	-435.763506	-435.802335	24.235	
N	-0.0565775658	 1.1575923082	-0.6439133555	-0.506383
C	 0.0222613877	 0.0814111633	 0.0100777859	 0.401337
C	-1.2150791909	-0.649733998	 0.4649475977	-0.178038
O	-1.088815338	-2.0735675003	 0.318205835	-0.211705
C	 0.0399608084	-2.6385171647	 0.7989519911	 0.420973
O	 0.1591731712	-3.8266841517	 0.8825474323	-0.312321
C	 1.1211166946	-1.6490630081	 1.2145859266	-0.236616
O	 1.1984898369	-0.5068023651	 0.3569810703	-0.234223
H	 0.873505275	 1.5361117937	-0.8331183095	 0.232183
H	-1.4351318837	-0.4103633407	 1.5140693596	 0.140762
H	-2.0612301299	-0.342977021	-0.1456714849	 0.171789
H	 0.9461057122	-1.3367865331	 2.2540413403	 0.145088
H	 2.0870560123	-2.1491180926	 1.1635332213	 0.167154
