18
gdb 23587	3.4338	1.40612	1.33959	1.2211	78.39	-0.2298	0.02	0.2498	1016.9552	0.150651	-401.91832	-401.911439	-401.910495	-401.949417	28.576	
O	-0.1254827073	 1.3432850841	 0.0099789824	-0.400049
N	 0.0270308021	-0.0627764254	 0.0045880666	-0.311466
C	-1.096877299	-0.6515914252	 0.0109608129	 0.495004
C	-1.3052870561	-2.1224878078	 0.0079872751	-0.138526
C	-2.6130893321	-2.3365473619	 0.7705445522	-0.063725
C	-3.0911511859	-0.9577442316	 1.2289627826	-0.225474
C	-2.534736472	-0.1508811373	 0.0229358554	-0.153357
C	-3.1086675262	-0.9504114944	-1.1797632595	-0.225474
C	-2.6240578758	-2.3319598597	-0.7367462771	-0.063725
H	 0.7903600447	 1.6401835067	 0.0042194591	 0.303506
H	-0.495916751	-2.8372443744	-0.0000804998	 0.096944
H	-2.7803877064	-3.2380047186	 1.3449456021	 0.089276
H	-4.1811741985	-0.8895271176	 1.3083699094	 0.097985
H	-2.646413247	-0.6462597087	 2.1787591652	 0.108681
H	-2.6762934308	 0.9249780958	 0.0272389643	 0.094459
H	-4.1997267509	-0.8817542745	-1.242895515	 0.097985
H	-2.6777740512	-0.6331353544	-2.1340139715	 0.108681
H	-2.7997393166	-3.229910425	-1.3141294745	 0.089276
