18
gdb 82390	2.75559	1.84247	1.42073	1.2251	69.7	-0.2262	0.059	0.2853	941.443	0.149786	-439.030434	-439.023415	-439.022471	-439.06152	28.971	
O	 0.0559766444	 1.4585670978	 0.0078259403	-0.436699
C	-0.0135234835	 0.047296094	 0.0039182371	 0.063448
C	 0.6606032717	-0.5271000894	 1.2668285202	 0.00781
O	 1.0332574353	 0.4520268072	 2.2419354225	-0.262643
C	-0.1087217513	-0.3949005323	 2.5097327547	 0.053831
C	-1.4922662966	 0.2268104895	 2.379213402	-0.202192
N	-2.2196425074	-0.3890826585	 1.2502924889	-0.105146
C	-2.6028296284	 0.4727693853	 0.1286708667	-0.244766
C	-1.4591721482	-0.4615957434	-0.0072836797	-0.022318
H	 0.5429934454	 1.7009120465	 0.8098920197	 0.296535
H	 0.4982778743	-0.3359520538	-0.8882299988	 0.077057
H	 1.3711812922	-1.3396501375	 1.1367050783	 0.104919
H	 0.0624381252	-1.0934315908	 3.3249392444	 0.10864
H	-2.0753606845	 0.0481590413	 3.28723042	 0.112757
H	-1.3774288199	 1.3119726003	 2.2651737609	 0.114976
H	-3.5602086082	 0.2416184216	-0.3309539099	 0.111872
H	-2.3536273803	 1.5286040406	 0.1883630793	 0.132648
H	-1.59217355	-1.3983981182	-0.5463028166	 0.089271
