18
gdb 35762	3.33309	1.34997	1.17368	3.4134	75.09	-0.2585	0.027	0.2855	1072.3307	0.150541	-401.94769	-401.940429	-401.939485	-401.979408	28.798	
N	-0.4544034485	-0.946235823	-0.8476875304	-0.320836
C	-0.2531831715	 0.1094688225	-0.4218286229	 0.262014
C	 0.008648205	 1.4375925132	 0.1307666313	-0.175342
C	-0.5161733602	 1.5126141633	 1.5995581744	-0.082048
O	 0.1403212121	 2.5104405218	 2.3600883561	-0.274513
C	 1.520792386	 2.668165067	 2.0413221779	 0.133535
C	 1.6541928716	 3.2600581419	 0.614630967	-0.245887
C	 1.5199976521	 1.7913145851	 0.1228530531	-0.025902
C	 2.1549330811	 1.3649523257	 1.4797008199	-0.260343
H	-0.5204469593	 2.1660915919	-0.4949943764	 0.129562
H	-1.5831520117	 1.7464807169	 1.6190336263	 0.127625
H	-0.3840509529	 0.5280415549	 2.06652661	 0.119417
H	 1.9773995437	 3.1786843723	 2.8901560112	 0.084731
H	 0.8941250376	 3.9840359944	 0.3099279964	 0.102126
H	 2.6527732409	 3.6600456257	 0.4229952436	 0.106573
H	 1.9979355527	 1.4935136475	-0.8110707024	 0.089362
H	 3.2429426504	 1.4508545925	 1.4487016088	 0.113612
H	 1.8842112109	 0.4051108463	 1.9239551861	 0.116314
