19
gdb 77121	3.10482	1.14027	0.96954	1.5003	77.35	-0.2447	-0.0242	0.2204	1255.3006	0.157416	-423.00637	-422.99728	-422.996336	-423.040818	33.537	
O	 0.3193295949	 0.8756512047	-0.4554348346	-0.434806
C	 0.0137150907	-0.4199623738	-0.0031611968	 0.052369
C	-0.0652708194	-0.6773062941	 1.5267134688	-0.107083
C	-1.4123825149	-1.4530873033	 1.2967617934	-0.344766
C	-1.4618245664	-0.8048504481	-0.0935210166	 0.348716
C	-2.5310451251	 0.1292197478	-0.5781517637	-0.307668
C	-2.2626360562	-1.1717808911	-1.3026441725	-0.339846
C	 1.0579111713	-1.4161871682	 2.192147898	 0.130129
O	 2.0911460242	-1.7208684053	 1.6472543974	-0.250731
H	 1.2749270878	 0.945452691	-0.5430058433	 0.291748
H	 0.66375286	-1.1699499846	-0.4724292672	 0.08697
H	-0.2626351713	 0.2549220101	 2.0677928834	 0.105349
H	-1.2682292354	-2.5378499455	 1.2609334156	 0.112029
H	-2.2296677451	-1.2264307693	 1.9844566413	 0.112636
H	-3.4420770985	 0.2104361104	 0.0065067269	 0.108145
H	-2.2050443266	 1.0507812215	-1.0467450216	 0.133703
H	-1.7719737154	-1.1245815653	-2.2699152313	 0.116336
H	-2.99226709	-1.9699900121	-1.209344958	 0.110414
H	 0.8732897753	-1.6954776147	 3.2557715807	 0.076355
