18
gdb 109131	4.0635	0.99663	0.88042	4.6415	76.38	-0.2198	0.0029	0.2227	1341.0876	0.148624	-439.143055	-439.134354	-439.13341	-439.177014	31.839	
C	 0.0241760784	 1.6016984876	 0.131460674	-0.371005
C	 0.0056699425	 0.0747290593	-0.0633936654	-0.287122
C	-1.3727161908	-0.524349511	-0.056801037	 0.236731
C	-1.9846679181	-1.0237879481	-1.1301801872	-0.082222
N	-3.2813405322	-1.5395580532	-1.0293745873	-0.38275
C	-4.1484293773	-1.1914351128	-0.0076674394	 0.470246
O	-5.3319064938	-1.4053232087	-0.0440201813	-0.381648
O	-3.5758506307	-0.548512439	 1.0343256679	-0.240308
C	-2.1482011005	-0.6175805599	 1.2299804571	-0.169975
H	 1.0516420692	 1.9783970562	 0.1360643168	 0.117525
H	-0.5218548005	 2.1022275173	-0.6736130629	 0.124093
H	-0.4389898999	 1.8946079591	 1.0791044181	 0.121742
H	 0.4961669314	-0.1756387965	-1.0108746783	 0.10583
H	 0.6132308131	-0.3908783133	 0.7259799357	 0.105099
H	-1.5412031662	-1.0590847493	-2.1186766324	 0.116164
H	-3.7448026159	-1.901507161	-1.8465009426	 0.266215
H	-1.9183362551	-1.5541632289	 1.7623769376	 0.120784
H	-1.9209501037	 0.2079163721	 1.9091134866	 0.1306
