18
gdb 31494	3.19854	1.06734	0.84949	2.5576	78.11	-0.1828	0.0276	0.2104	1368.9401	0.146904	-439.112377	-439.102667	-439.101723	-439.147422	34.663	
C	 0.0587747518	 1.5687984065	-0.0201252745	-0.511025
C	 0.0330604286	 0.0732206813	 0.0530161224	 0.210521
C	-0.0670832411	-0.8114155556	-0.9832885572	 0.260861
N	-0.0984027415	-0.6609402988	-2.3650677437	-0.596777
O	-0.0476313013	-2.0926948613	-0.5423994876	-0.220217
C	 0.0613390329	-2.046962308	 0.8370131506	 0.335094
C	 0.0501595445	-3.3591886213	 1.5306383755	-0.180679
O	-1.2204446924	-4.0118701315	 1.5161539868	-0.414215
C	 0.1175133192	-0.7515149432	 1.2307446148	-0.364654
H	 1.0746554755	 1.9761238744	 0.0587191761	 0.130837
H	-0.3608405988	 1.9360499914	-0.963805162	 0.107311
H	-0.5312777023	 2.015305625	 0.7873151868	 0.12941
H	-0.3479450557	 0.2788808237	-2.642583452	 0.25253
H	-0.7064699016	-1.333537644	-2.817053881	 0.252499
H	 0.8220218828	-4.0189062548	 1.103403704	 0.098145
H	 0.2979773472	-3.1993302573	 2.583330913	 0.121798
H	-1.4795305992	-4.0980399847	 0.592929823	 0.282891
H	 0.1975065614	-0.4052722719	 2.2507406948	 0.105672
