19
gdb 66871	3.02432	1.91009	1.69508	1.5565	84.83	-0.1897	-0.0165	0.1731	900.1851	0.160597	-348.658342	-348.651576	-348.650632	-348.688902	28.912	
C	-0.0541731026	 1.5209752153	 0.0169428844	-0.505645
C	-0.0714166536	 0.0209344138	 0.0465375039	 0.320946
C	-0.3887927267	-0.8137951606	-1.2640272691	-0.125538
C	 0.6042837951	-1.8928140835	-1.3715747084	-0.106136
C	 0.7191666896	-2.4779568668	-0.1546595652	 0.008189
C	 1.8420818968	-1.8868071289	 0.7133786743	-0.276406
C	 0.6729249764	-0.8823475095	 1.1008468959	-0.081574
C	-0.3975944397	-1.9613518987	 0.7820987067	-0.061849
C	-1.2319432834	-0.958131308	-0.0214679322	-0.139317
H	 0.9330279764	 1.9044576499	-0.269109058	 0.119967
H	-0.7797868072	 1.9062708524	-0.7072815739	 0.119741
H	-0.3068814974	 1.9527107388	 0.9927317716	 0.118021
H	-0.7629171011	-0.2311976389	-2.0998275727	 0.082961
H	 1.4423800697	-1.8043219078	-2.0576385403	 0.090939
H	 2.136029458	-2.453331106	 1.6048935053	 0.099265
H	 2.7285841349	-1.5182291939	 0.1933399399	 0.10236
H	 0.7104048308	-0.4217618628	 2.0916415514	 0.079833
H	-0.8112705796	-2.616570007	 1.5455870159	 0.0682
H	-2.3000473964	-0.7868892278	 0.0098738804	 0.086044
