18
gdb 70484	3.05501	1.11804	0.98155	2.6559	74.14	-0.2455	0.0289	0.2743	1248.8108	0.146796	-439.081105	-439.07237	-439.071426	-439.115173	32.096	
C	-0.0451148142	 1.4952657109	-0.0980579551	-0.50962
C	 0.179741065	 0.021959515	-0.020428042	 0.403323
O	-0.7822728115	-0.7851076513	 0.6864815291	-0.302524
C	 0.6055313877	-0.8911346794	 1.0561309928	-0.040995
C	 1.2454697927	-1.8731796011	 0.0740816422	-0.272305
C	 0.7745993001	-0.9207853018	-1.0913507088	-0.02713
N	-0.17501123	-1.4300687107	-2.0451578062	-0.276039
C	 0.0505802538	-1.4786218518	-3.3855264584	 0.153169
O	 1.0676550412	-1.1163250229	-3.9386999127	-0.326888
H	 0.8752624784	 2.0134782746	-0.3849062336	 0.133033
H	-0.8091767019	 1.7298566706	-0.8475322676	 0.136618
H	-0.3826384277	 1.8812879722	 0.867223596	 0.137062
H	 0.8547188985	-0.6858143404	 2.0904789096	 0.109777
H	 2.3338910419	-1.9313648321	 0.1469872321	 0.117686
H	 0.8200770384	-2.8794330744	 0.0757948772	 0.110225
H	 1.6082324803	-0.4952298795	-1.6494760794	 0.124127
H	-1.0600729924	-1.7473990128	-1.6791509458	 0.255365
H	-0.8183911602	-1.8966495854	-3.9313233896	 0.075116
