18
gdb 32783	3.12195	0.97875	0.78793	1.6034	74.76	-0.2292	0.0064	0.2356	1431.1837	0.147546	-439.122755	-439.113594	-439.11265	-439.157664	32.438	
C	 0.3064511108	 1.5306419459	 0.3072064366	-0.496664
C	 0.0044972152	 0.0890320737	 0.1243602922	 0.257798
C	-1.1228061729	-0.6453363611	-0.0727074022	 0.167529
C	-2.545916295	-0.2131037882	-0.2067580192	-0.331145
C	-3.0911522559	-0.4198773556	-1.6306786602	-0.053885
O	-4.4462421512	-0.023066007	-1.7545351001	-0.417131
N	-0.7695341585	-1.9953767869	-0.1722463061	-0.30692
C	 0.5121658489	-2.0026491362	-0.0312276848	 0.060416
O	 1.0669004357	-0.7848862816	 0.1545480961	-0.176993
H	 0.962352041	 1.9083237891	-0.4851989537	 0.143362
H	-0.6181678402	 2.1112991331	 0.2866106395	 0.143228
H	 0.8060125172	 1.7174086343	 1.2644168401	 0.142875
H	-3.163593118	-0.7936256153	 0.4915255568	 0.107312
H	-2.6577604897	 0.8410007688	 0.0659724506	 0.108711
H	-2.5297855604	 0.2042606918	-2.3337753513	 0.110633
H	-2.9409156615	-1.4669693363	-1.928996458	 0.111501
H	-4.9796004382	-0.6356809331	-1.2382388188	 0.282399
H	 1.1847620428	-2.8462034655	-0.0401817574	 0.146973
