20
gdb 6130	3.0582	1.69048	1.41935	1.1737	70.46	-0.2466	0.0585	0.3051	979.6012	0.175315	-386.132719	-386.123649	-386.122704	-386.16568	34.553	
C	-0.6109742641	 1.5619336146	 0.0088124591	-0.441672
C	-0.0544107766	 0.1418991403	 0.0100340719	 0.318658
C	-1.1579939109	-0.8820656717	-0.2738262574	-0.441772
C	 1.2155547607	-0.1039147441	-0.8697731358	-0.315331
C	 1.8601489395	-0.883563284	 0.3089592374	 0.147499
O	 3.1953350545	-0.6226627158	 0.6506676383	-0.445549
C	 0.7794030072	-0.2762402048	 1.2626555831	 0.033341
O	 1.2942647552	 0.8639634529	 1.9389928477	-0.439527
H	 0.1600259386	 2.2909295144	 0.2665061427	 0.125678
H	-1.0061929491	 1.8117534413	-0.9824364287	 0.107684
H	-1.4276207012	 1.6704132494	 0.7313930457	 0.110412
H	-1.6076924251	-0.7010551906	-1.2563287685	 0.115839
H	-0.7776135059	-1.9094326081	-0.2698381257	 0.113303
H	-1.9540725122	-0.8187627702	 0.4767894095	 0.113753
H	 1.0764249217	-0.6395611139	-1.8126078772	 0.094892
H	 1.7610564177	 0.8230787126	-1.0708030481	 0.096066
H	 1.7676358541	-1.9670399707	 0.2005083077	 0.08661
H	 3.215659129	 0.3066476285	 0.9145139309	 0.274102
H	 0.2840080789	-0.9542904353	 1.9696864191	 0.055135
H	 1.7759906082	 0.5468362652	 2.7100447284	 0.290881
