21
gdb 40161	3.749	1.13009	1.03104	1.7349	82.35	-0.2547	0.0737	0.3284	1240.7575	0.183168	-387.073294	-387.065114	-387.06417	-387.106752	32.537	
C	-0.0170070237	 1.494626884	 0.0021571768	-0.332205
C	 1.2903750287	 0.7342386556	 0.0337361367	-0.307522
C	-0.0266185104	-0.0051068061	-0.0028666616	 0.395501
C	-0.46708544	-0.8291243658	 1.2029926088	-0.299153
C	-0.1657385188	-2.2712414641	 0.7556642429	-0.283053
C	-0.5120178404	-2.2649171937	-0.7321978233	 0.447225
C	-0.387626004	-3.4442422724	-1.5926715602	-0.2554
O	-1.6711870948	-3.0092021445	-1.1355834371	-0.275035
C	-0.4225672269	-0.8174802086	-1.2368097091	-0.375752
H	-0.3316719693	 2.0063796132	 0.9062201643	 0.109602
H	-0.2830103333	 2.0125729286	-0.9138516312	 0.110293
H	 1.902571219	 0.7383337804	-0.8625660164	 0.107562
H	 1.8569884464	 0.7329909168	 0.95967066	 0.108475
H	 0.0455939871	-0.5424802684	 2.1255188195	 0.094
H	-1.5450639191	-0.7077225413	 1.3711062353	 0.106005
H	 0.9023794247	-2.4839077109	 0.8852457591	 0.104324
H	-0.7332680944	-3.037709376	 1.2882674359	 0.109794
H	-0.2032281477	-3.3196635363	-2.6598720788	 0.107564
H	-0.0361125219	-4.3880347733	-1.1745002761	 0.106853
H	-1.4111769486	-0.5265291851	-1.6098794766	 0.119188
H	 0.2871577275	-0.7004271921	-2.0613082189	 0.101733
