18
gdb 20291	5.15403	1.45694	1.3723	2.0851	71.03	-0.2326	0.081	0.3136	952.5112	0.154502	-347.710107	-347.703237	-347.702293	-347.741494	27.027	
C	 0.3485162166	 1.5652242453	 0.2831161143	-0.267969
C	 1.1523903319	 0.5065177326	-0.4243433234	-0.260107
C	-0.2698302439	 0.2167646753	-0.0017198271	-0.041107
C	-0.6319177337	-0.7012104609	 1.1408706722	 0.026074
C	-0.9726602732	-2.2088356078	 0.9473064968	 0.030151
C	 0.515442441	-2.540025216	 0.6966888541	-0.226127
C	 0.3957830316	-1.5857763949	 1.911319025	 0.026765
O	-0.739352401	-2.4032246384	 2.3979820139	-0.310261
H	 0.6099728423	 1.7880965569	 1.3127860456	 0.113577
H	 0.0027455645	 2.4231417125	-0.282603509	 0.112293
H	 1.3583321023	 0.6312365268	-1.4819451567	 0.112859
H	 1.9592151764	 0.0363423279	 0.1275058522	 0.116321
H	-1.0005039963	 0.2122757452	-0.8075719914	 0.088421
H	-1.3433241267	-0.2343275036	 1.828735072	 0.085126
H	-1.8676170771	-2.6624138038	 0.5187494664	 0.089499
H	 0.8043011151	-3.5611437445	 0.9483156861	 0.105994
H	 0.9837527923	-2.1717232235	-0.2163308883	 0.107723
H	 1.1502606478	-1.296520779	 2.6443782674	 0.090766
