18
gdb 64155	3.68889	1.0367	0.98616	3.4525	75.89	-0.2632	-0.0715	0.1916	1271.2604	0.146044	-439.116365	-439.107277	-439.106333	-439.150823	32.8	
C	-0.1296601879	 1.4720141152	 0.1468638244	-0.415854
C	-0.0955412989	-0.0516041271	-0.0284878479	 0.263154
C	-1.4889832386	-0.5938223001	-0.369939281	-0.416055
C	 0.985011941	-0.5035250202	-1.0629402212	-0.147008
O	 1.9185145776	-1.3013908746	-0.2991580087	-0.243031
C	 1.4392714139	-1.3034801569	 0.9617220949	 0.306146
C	 2.2002525092	-2.0602095072	 1.9990889872	 0.099306
O	 3.2144257413	-2.6697902635	 1.7839602981	-0.236413
N	 0.3680347147	-0.6721386194	 1.2351228348	-0.309861
H	 0.8605113571	 1.8563009153	 0.4089135184	 0.122595
H	-0.4534506534	 1.9573648186	-0.7802012464	 0.117276
H	-0.824795149	 1.7478119361	 0.944074522	 0.13258
H	-1.8481862186	-0.1625089287	-1.3105255477	 0.117281
H	-1.468369552	-1.6824541876	-0.4761636486	 0.12253
H	-2.1997553249	-0.3414219504	 0.421247257	 0.132583
H	 0.5803540428	-1.1285805407	-1.8641512284	 0.121223
H	 1.5349989036	 0.3319668974	-1.5053317563	 0.121351
H	 1.7225058822	-1.9970104362	 2.9958040995	 0.112197
