17
gdb 71324	3.71516	1.54416	1.38301	3.4127	72.41	-0.2219	-0.0142	0.2077	960.3905	0.137435	-417.964541	-417.957418	-417.956474	-417.995813	28.35	
C	-0.049295385	 1.5113230588	-0.1043766952	-0.479788
C	 0.0188638787	 0.0153368794	 0.0762039115	 0.320427
C	-1.2693092772	-0.7835278938	 0.4462645214	-0.23255
N	-0.4388501472	-1.751799997	 1.257652291	-0.175131
C	 0.7302372867	-0.7950435028	 1.2041663682	-0.046428
C	 1.4014286878	-1.6704009168	 0.116491747	-0.145677
N	 0.8971898789	-0.691880225	-0.8974905734	-0.346021
C	 0.2520647273	-2.6592205289	 0.3632762238	 0.390799
O	-0.1059742487	-3.7038887168	-0.0939189275	-0.318866
H	 0.9544880583	 1.9389429025	-0.1692051534	 0.133446
H	-0.5805104869	 1.7621954768	-1.0302186538	 0.125329
H	-0.5831896417	 1.9833209133	 0.7265831085	 0.121472
H	-1.9486817343	-0.2236642239	 1.0974528122	 0.117528
H	-1.842887681	-1.2538354217	-0.3587273773	 0.122684
H	 1.1662173859	-0.4293611908	 2.1293493247	 0.093183
H	 2.4441645079	-1.9701276744	 0.0056732604	 0.093224
H	 0.4458916206	-1.098406419	-1.715250048	 0.22637
