19
gdb 33169	2.80402	1.32305	1.01978	3.591	78.8	-0.1808	0.0508	0.2316	1198.6938	0.160444	-419.227728	-419.21856	-419.217616	-419.261879	34.115	
N	 0.3993674927	 1.472121904	-0.0634492564	-0.622515
C	 0.1577656569	 0.0877089215	 0.0002268843	 0.250076
C	-1.0444932963	-0.5797822405	 0.0690457876	-0.184331
C	-0.7685636626	-1.9739405519	 0.1153818143	-0.16648
C	 0.59596917	-2.1216561462	 0.0854238998	-0.117925
N	 1.1674407288	-0.8689378553	 0.0026144248	-0.008259
C	 2.5912791368	-0.6155866357	-0.0492984532	-0.174662
C	 3.2224459297	-0.2976765396	 1.3057937706	-0.071223
O	 2.8296052693	 1.0131647575	 1.6953666479	-0.403094
H	 1.2175850673	 1.7355305352	 0.4749480123	 0.25014
H	 0.4846340771	 1.8233808902	-1.0112474191	 0.23315
H	-2.0106436737	-0.1000771549	 0.0898795565	 0.086652
H	-1.4885137793	-2.7760788645	 0.1726562884	 0.086531
H	 1.2162449855	-3.0039739428	 0.1193674355	 0.101918
H	 3.0798631159	-1.5001350863	-0.4687066799	 0.118738
H	 2.7841137121	 0.2220084359	-0.728466298	 0.119303
H	 2.8982479014	-1.0473062135	 2.0393600498	 0.109709
H	 4.3179279862	-0.3591118149	 1.2126158385	 0.094357
H	 2.8638128921	 1.080796512	 2.6529610063	 0.297917
