16
gdb 20213	3.35678	2.80592	2.16248	2.7643	61.86	-0.2506	0.0766	0.3271	690.3172	0.134083	-383.736389	-383.730715	-383.729771	-383.766149	22.889	
C	 0.0038786499	 1.5615848308	-0.1512305127	-0.102282
O	 1.355667631	 1.9855878441	 0.0378768859	-0.255423
C	 2.0626357895	 0.978004329	 0.7334239254	 0.185036
O	 1.9150133177	 1.1076349089	 2.1334859659	-0.255383
C	 0.722203741	 0.4339982087	 2.5413061703	-0.102291
C	 0.360021899	-0.5187971861	 1.4094580098	-0.084142
C	-0.0032599888	 0.0514891557	 0.0476925285	-0.08413
C	 1.4107026024	-0.3577352565	 0.3478525407	-0.102664
H	-0.6595148454	 2.0864896991	 0.5503794782	 0.102853
H	-0.3010566514	 1.8287632708	-1.168968919	 0.10793
H	 3.1209593604	 1.100387457	 0.5022326918	 0.095573
H	 0.9352262941	-0.1124214418	 3.4666110923	 0.10794
H	-0.0714919958	 1.1639697826	 2.753584373	 0.102856
H	-0.0350902534	-1.4951918569	 1.6645262091	 0.094341
H	-0.6374704244	-0.549578295	-0.5934141847	 0.094338
H	 1.959243444	-1.1560488405	-0.1327865046	 0.09545
