24
gdb 117164	3.35827	0.73202	0.70397	3.2603	87.94	-0.2374	0.0388	0.2762	1807.0726	0.21553	-405.59996	-405.588294	-405.58735	-405.639118	40.88	
C	-0.0196196454	 1.3632937586	 0.0030656034	-0.371766
C	 0.3328997435	-0.1064307309	-0.2370856568	-0.143919
N	 1.0265076135	-0.7150676398	 0.8869592515	-0.322387
C	 0.4437161994	-1.6375123465	 1.7087364518	 0.419084
O	-0.6938240228	-2.0471295189	 1.5420909084	-0.395326
C	 1.3271028452	-2.1568995326	 2.8463814168	-0.086204
C	 0.5835882401	-1.9800822867	 4.1784247913	-0.387001
C	 1.682330221	-3.6303952711	 2.5444164681	-0.153347
C	 2.6543895274	-4.2671325542	 3.5413462237	-0.396118
H	 0.8777386356	 1.9656970524	 0.1836874654	 0.108808
H	-0.5315409428	 1.7810040474	-0.8697611446	 0.119398
H	-0.6784185478	 1.4653777117	 0.8701600741	 0.132846
H	-0.5722110812	-0.6990691178	-0.3852494408	 0.150621
H	 0.9505697443	-0.2050138356	-1.138443938	 0.102868
H	 1.952756246	-0.3903197157	 1.1114826958	 0.239729
H	 2.2610264617	-1.5780832194	 2.8788904661	 0.05569
H	 1.1702516299	-2.3631578332	 5.0171902872	 0.11149
H	 0.373356732	-0.9235603744	 4.3736180875	 0.112034
H	-0.3719033475	-2.5098134855	 4.141409536	 0.141953
H	 0.7490404914	-4.2026318907	 2.501934678	 0.121102
H	 2.1184554041	-3.6823679267	 1.5386696744	 0.094116
H	 2.9117123419	-5.2847078702	 3.231057539	 0.115217
H	 3.5878130192	-3.6962950064	 3.6098125209	 0.109339
H	 2.2290661413	-4.3306962535	 4.5471679507	 0.121774
