18
gdb 12142	4.68931	1.54159	1.4055	1.1636	72.5	-0.2405	0.0825	0.323	938.2465	0.153424	-347.753732	-347.746332	-347.745388	-347.784892	29.65	
O	-0.2062392159	 1.4120989872	-0.001886582	-0.461821
C	-0.0968573301	 0.0332770339	 0.0446463324	 0.409343
C	-0.346949201	-0.8380202454	-1.1541299565	-0.342061
C	-1.2378292135	-0.973822479	 0.067271893	-0.196734
C	-0.5038910176	-1.765267132	 1.1323754715	 0.411019
C	-1.1168893339	-2.4282436862	 2.3255600947	-0.338923
C	-0.415375179	-3.2577169524	 1.2678028574	-0.322786
C	 0.6453649585	-0.7309516647	 1.1541539808	-0.386817
H	 0.5111860369	 1.7537097802	-0.5469320382	 0.284127
H	-0.8075771045	-0.315105591	-1.986773628	 0.109597
H	 0.3339194599	-1.639582296	-1.4328248063	 0.103535
H	-2.3069424783	-0.8047233939	 0.0197931572	 0.091627
H	-0.6292968457	-2.3068108362	 3.2879426515	 0.110223
H	-2.1997112811	-2.4834701382	 2.3806415725	 0.111776
H	-1.0253157141	-3.8708440168	 0.6119947202	 0.110918
H	 0.5449048342	-3.6953828524	 1.5218441103	 0.108989
H	 1.6553896027	-1.0876070983	 0.9218003019	 0.087653
H	 0.6668819624	-0.1584314688	 2.0855622774	 0.110333
