18
gdb 41138	3.28576	1.71962	1.34516	2.0539	76.84	-0.2141	0.0038	0.2179	970.4673	0.150009	-401.906643	-401.899763	-401.898819	-401.937803	28.051	
C	-0.0118722092	 1.5169341635	 0.0682550005	-0.195942
N	 1.4904983718	 1.5445327385	 0.0482094199	-0.392151
C	 1.531804361	 0.0660193869	-0.017700717	 0.303502
C	 2.4723216152	-0.7520690028	-0.8234376455	-0.219204
C	 2.8129035403	-1.8703263968	-0.1743465156	-0.061813
C	 2.1792439024	-1.9872400106	 1.1986691972	-0.302036
C	 1.4281538306	-0.6487432534	 1.3560087488	 0.103352
O	-0.0205414644	-0.7321557523	 1.2524759795	-0.309465
C	-0.0216546629	-0.034467376	-0.0017038692	 0.044443
H	-0.4380134875	 1.9364095499	 0.9842722879	 0.114673
H	-0.4795842222	 1.9966527395	-0.798435621	 0.10119
H	 1.8463760223	 1.9709250028	-0.8009803891	 0.216925
H	 2.7915431478	-0.4866009871	-1.8254606633	 0.094266
H	 3.4572452255	-2.6446188319	-0.5775545239	 0.100698
H	 1.4658225698	-2.8186041943	 1.2493358211	 0.126741
H	 2.9252145981	-2.1603310452	 1.9838491584	 0.107743
H	 1.7330053112	-0.0689953662	 2.2315631414	 0.086813
H	-0.6596312798	-0.5131385643	-0.7487091702	 0.080265
