18
gdb 63792	3.4147	1.24491	1.17403	3.4803	71.85	-0.2452	0.0272	0.2724	1101.4496	0.14689	-439.093121	-439.084682	-439.083738	-439.125959	32.702	
C	-0.0938945471	 1.5836559605	 0.0003224038	-0.45741
C	 0.0363577692	 0.0696892789	 0.0005108221	 0.388965
O	-1.2289000975	-0.5639255745	-0.1110790987	-0.471996
C	 1.1069018032	-0.5664811655	-0.9527664744	-0.299011
C	 1.7656806086	-1.2921629537	 0.2587476795	-0.188763
C	 0.7409371192	-0.6103408587	 1.2201276745	-0.009643
N	 1.8659151206	 0.1096001543	 1.8089514534	-0.323355
C	 2.8253889004	-0.4121495326	 0.9568574876	 0.413774
O	 3.9982421004	-0.1919355128	 0.8252353575	-0.35772
H	 0.8698366071	 2.0679423695	 0.1811337474	 0.122619
H	-0.4603153671	 1.9358777714	-0.9717923341	 0.113739
H	-0.803850394	 1.9059826199	 0.7687210637	 0.124488
H	-1.6183370021	-0.3090767858	-0.9547936939	 0.278669
H	 0.6458437624	-1.2538469303	-1.6645302918	 0.109794
H	 1.7623819277	 0.1227163187	-1.4904650289	 0.11336
H	 1.9395597691	-2.3639582392	 0.205762521	 0.101541
H	 0.0871152618	-1.1390029778	 1.9136241837	 0.093789
H	 1.891490158	 0.9495094476	 2.3710039975	 0.247159
