16
gdb 34989	2.77684	1.72863	1.48983	4.9301	72.36	-0.2445	0.0143	0.2587	923.7911	0.126789	-396.881658	-396.874712	-396.873768	-396.912999	27.348	
N	-0.3771541546	-1.2020733789	-0.2242335136	-0.360005
C	-0.1615960529	-0.0879568636	 0.0017124309	 0.329623
C	-0.0194383198	 1.344864982	 0.0877309355	-0.1629
C	 0.5462666736	 2.124894668	 1.2361936715	-0.034837
C	 1.3747120649	 1.4720700442	 2.3119503994	-0.062052
N	 1.5940659165	 0.0299156617	 2.1297327283	-0.314698
C	 2.6204225884	 0.9720688256	 1.6640806042	-0.034489
C	 2.52082288	 1.2848958209	 0.1744722955	-0.183097
N	 1.2701200252	 2.0599655965	-0.0482055134	-0.12125
H	-0.8063204841	 1.8364011134	-0.4827391607	 0.138095
H	 0.0746226557	 3.0726624313	 1.4826554439	 0.103711
H	 1.3603776145	 1.8982095081	 3.3085065782	 0.099437
H	 1.8690215913	-0.4021101619	 3.0079168109	 0.241065
H	 3.5852079329	 1.0025457713	 2.1607645792	 0.099599
H	 3.3514917958	 1.9254470764	-0.1360555823	 0.120317
H	 2.5312550627	 0.381248105	-0.4419660775	 0.141482
