17
gdb 68887	2.38989	1.86936	1.42768	2.6328	67.8	-0.2311	0.0662	0.2973	954.1229	0.135605	-458.89844	-458.890669	-458.889725	-458.930318	30.596	
O	-0.1435272339	 1.4391220296	 0.002261466	-0.465659
C	-0.0314099895	 0.0628729116	-0.0304674266	 0.305666
C	-0.2573312402	-0.8135214981	 1.1863594611	-0.414121
C	-1.1585491255	-0.9961527292	 0.0040374945	 0.364275
O	-2.5223755075	-0.8860989003	 0.1153007377	-0.454193
C	-0.4624009496	-1.7737628989	-1.0915284578	 0.027918
O	-0.9413829172	-1.3504892793	-2.3886341278	-0.306397
C	 0.1465355463	-0.4008445822	-2.5306601113	-0.090837
C	 0.6908935042	-0.7132552033	-1.1243468714	-0.156435
H	 0.5381542115	 1.7940113652	 0.5834517267	 0.288348
H	 0.4545172994	-1.5747695339	 1.5021488775	 0.104946
H	-0.7486974847	-0.2853570482	 1.9983687329	 0.128693
H	-2.8524411683	-0.7220354547	-0.7782338318	 0.295744
H	-0.3441299686	-2.8586357578	-1.0200094031	 0.078226
H	 0.8123754227	-0.6953866551	-3.3502962038	 0.102349
H	-0.2051986238	 0.6233278574	-2.6935478743	 0.118931
H	 1.7514663247	-0.9475546127	-1.0174439982	 0.072545
