23
gdb 80553	2.76504	1.26274	1.14521	0.261	91.23	-0.2259	0.022	0.2479	1237.8041	0.207413	-351.164927	-351.156152	-351.155208	-351.197969	35.034	
C	-0.1010644796	 1.6059187426	 0.0088026614	-0.409111
C	-0.0011933985	 0.0976529159	-0.0064332882	-0.014293
C	 0.6623724624	-0.6818078137	-1.1274671443	-0.070124
C	 1.3861240684	 0.0207359022	-2.2747772478	-0.226371
C	 2.9246880397	-0.0004826315	-2.1377503973	-0.011531
C	 3.5853884407	 0.9201102891	-3.1717089314	-0.399931
C	 3.3449651736	 0.3528895739	-0.7264437397	-0.04279
C	 2.6043787895	 0.0697125159	 0.3468160245	-0.093144
C	 1.3065105544	-0.6418892178	 0.2410626018	-0.08964
H	 0.8386069286	 2.0820126592	-0.281877434	 0.12315
H	-0.8851703443	 1.9598259707	-0.6705963984	 0.112601
H	-0.3499067483	 1.9632997976	 1.0141850053	 0.112623
H	-0.8721140427	-0.39578476	 0.4190357852	 0.078598
H	 0.1740870731	-1.6127744808	-1.3984296477	 0.077429
H	 1.1010652908	-0.4430407084	-3.2257305386	 0.091884
H	 1.0672503867	 1.0674299007	-2.3455335894	 0.099164
H	 3.2690565242	-1.0269877509	-2.3409304799	 0.08275
H	 3.2913325918	 1.9636957659	-3.0102036769	 0.114634
H	 4.6777133672	 0.8683094304	-3.1105833218	 0.110099
H	 3.2931847479	 0.6440400087	-4.1904509266	 0.109266
H	 4.3061681976	 0.8490459063	-0.6072774151	 0.079003
H	 2.9555701451	 0.3398558273	 1.3405364361	 0.082107
H	 1.2272871817	-1.5337533935	 0.8586849529	 0.083626
