17
gdb 9527	2.86786	1.82726	1.53646	1.2683	64.97	-0.2671	0.0176	0.2847	913.5902	0.141004	-400.998321	-400.989814	-400.98887	-401.031225	30.831	
C	 0.1229888816	 1.5954095062	-0.0220656065	-0.405865
C	 0.0729497881	 0.064668999	-0.0103372347	-0.225654
C	 0.7003183051	-0.564436449	-1.2556197967	 0.270542
O	 2.0584875156	-0.207405449	-1.4166483823	-0.477224
C	 0.469999188	-2.0825035066	-1.4376558337	-0.117893
O	-0.35740783	-1.8209924213	-2.6215126985	-0.255148
C	-0.1177642427	-0.4714257158	-2.5406590052	 0.391308
N	-0.4300356008	 0.4781155238	-3.2988130948	-0.556537
H	 1.1587288152	 1.9481043057	-0.0391875828	 0.118437
H	-0.392563234	 1.998687963	-0.8985209365	 0.149022
H	-0.3507984057	 2.0048471909	 0.8743982308	 0.11649
H	 0.6107496969	-0.3246638595	 0.8630765433	 0.107258
H	-0.9654155711	-0.2789737073	 0.0726752856	 0.104158
H	 2.0809211227	 0.6278798991	-1.8972846806	 0.298885
H	 1.3690751795	-2.6410482404	-1.7024586101	 0.131675
H	-0.1073734193	-2.5925968375	-0.6639167327	 0.119414
H	-0.9540016993	 0.1593606387	-4.1158225444	 0.231133
