19
gdb 92615	3.78635	1.24591	1.06136	1.8597	77.88	-0.2389	0.0033	0.2422	1170.4576	0.160374	-423.025604	-423.017708	-423.016764	-423.058187	30.286	
C	 0.1500731054	 1.5322351503	-0.0884546949	-0.390221
C	-0.0090584733	 0.0246734516	 0.0758473456	 0.105157
O	 0.5220297514	-0.6392277957	-1.0907875879	-0.292074
C	 1.2286208816	-1.7900597752	-0.6776290612	 0.044528
C	 2.6797560828	-1.9726779703	-1.1457893165	-0.100211
O	 3.2738490973	-2.7518347301	-0.098514137	-0.274792
C	 2.6585552942	-2.4335598466	 1.1656694722	-0.165284
C	 1.4731911518	-1.6042805372	 0.7955491793	 0.286452
C	 0.7787497047	-0.5638048612	 1.2327787134	-0.288343
H	 1.2085392928	 1.8029410612	-0.1403941706	 0.12125
H	-0.3389844676	 1.8604148287	-1.0098097837	 0.12954
H	-0.310140959	 2.0614885844	 0.7522968683	 0.113359
H	-1.0842682208	-0.2119755023	 0.1583414522	 0.081492
H	 0.6513757142	-2.7028655397	-0.9017891814	 0.082094
H	 2.8025745031	-2.5354059485	-2.0740377884	 0.110676
H	 3.1585090094	-0.9873445283	-1.2496918512	 0.096583
H	 2.4024223821	-3.3781609862	 1.6621792758	 0.118101
H	 3.3611845647	-1.8908311885	 1.8122074075	 0.114494
H	 0.7883349752	-0.1199071461	 2.2205438286	 0.107201
