18
gdb 22737	2.39435	1.4263	1.01317	0.8909	77.44	-0.227	-0.0024	0.2246	1203.1737	0.145108	-439.009781	-439.00075	-438.999806	-439.04349	33.772	
C	-0.5291727246	 1.3688614847	-0.0041676614	-0.40192
C	 0.0915656825	-0.0148363543	-0.0247400128	 0.065865
O	 1.3597549266	-0.064849409	-0.7533773629	-0.343413
C	 2.0603189427	-0.533154462	 0.4054480862	 0.397889
C	 3.150280167	-1.5593806158	 0.3484059589	-0.32932
C	 3.4627870882	-0.1270954407	 0.7385340911	-0.326499
C	 0.8212059767	-0.4939827964	 1.2150743162	 0.251371
N	 0.5753923556	-0.7636257341	 2.4249969615	-0.253289
O	-0.7895051944	-0.5712119363	 2.7160561971	-0.393879
H	 0.1686058028	 2.1014544604	 0.4099128406	 0.126531
H	-0.7926841572	 1.674261964	-1.0212490094	 0.128672
H	-1.4350895788	 1.3593537348	 0.6082312535	 0.138516
H	-0.6109737833	-0.7567318151	-0.4261461297	 0.106023
H	 3.162282137	-2.3265977174	 1.1149772561	 0.130745
H	 3.4512216888	-1.8850281187	-0.6414165516	 0.131116
H	 3.9706067981	 0.491922434	 0.0069023792	 0.130942
H	 3.6896656655	 0.0963289816	 1.7753370431	 0.130975
H	-0.8333865432	-0.8036093197	 3.6497790542	 0.309677
