19
gdb 105668	1.98068	1.42023	1.14144	2.4039	71.66	-0.2537	-0.0305	0.2232	1181.1241	0.156458	-460.143541	-460.133667	-460.132723	-460.178976	34.835	
C	-0.4057284901	 1.4113532086	-0.0479391273	-0.413744
C	 0.2155631867	 0.0285055179	-0.0581847874	 0.115746
O	 1.5072162173	-0.0035805183	-0.6978988405	-0.288381
C	 2.0862518564	-0.7608479569	 0.3840321299	-0.12342
C	 0.823148073	-0.5976094263	 1.253116105	 0.112062
C	 0.9567299853	 0.3304104799	 2.4574936653	-0.146001
O	 1.6087826719	-0.3185646586	 3.539533167	-0.414883
C	 0.1403364507	-1.8820627383	 1.6738437997	 0.118708
O	 0.4590809822	-2.9823415087	 1.3031684868	-0.254604
H	 0.2399199113	 2.1477118356	 0.4362289877	 0.126563
H	-0.5701219939	 1.7349714507	-1.0805847566	 0.137741
H	-1.3761864326	 1.3988142818	 0.4593522403	 0.122266
H	-0.4697965844	-0.676621547	-0.5514758165	 0.086699
H	 2.2908882996	-1.7992659369	 0.103918026	 0.130542
H	 3.0029894283	-0.2909278646	 0.763667677	 0.091945
H	 1.4707983863	 1.2583388095	 2.1730700997	 0.106776
H	-0.0341110368	 0.6065308874	 2.8355536928	 0.119049
H	 2.5131962083	-0.515506735	 3.2733231933	 0.290877
H	-0.7328517195	-1.7353165109	 2.3496426379	 0.08206
