13
gdb 27721	2.9072	1.36924	0.93143	3.0466	74.45	-0.1901	0.0005	0.1906	1158.8927	0.088868	-452.753426	-452.745263	-452.744319	-452.785846	30.797	
N	 0.0752958912	 1.2727222512	-0.124121371	-0.595752
C	-0.0321958133	-0.0841537943	-0.0670125696	 0.469829
N	-1.1338555261	-0.7877573443	-0.0969659517	-0.412696
C	-0.6803779146	-2.0857102188	-0.0873016656	 0.228154
O	-1.5291546329	-3.1199836083	-0.1115532344	-0.415116
C	 0.6848874853	-2.13870043	-0.0454027611	 0.075612
O	 1.1022476748	-0.7866004523	-0.032360547	-0.21813
C	 1.6374378359	-3.1531577864	-0.0115566866	 0.246259
C	 2.4602139163	-4.0355805967	 0.017229248	-0.421919
H	 0.9292649271	 1.661836496	 0.2445159571	 0.273356
H	-0.7653005836	 1.7703408051	 0.1240237907	 0.276298
H	-2.4197377642	-2.7493808948	-0.145307825	 0.308225
H	 3.1779402642	-4.8169713363	 0.0429203761	 0.185881
