20
gdb 6539	3.11629	1.65967	1.33803	1.6159	72.08	-0.2393	0.0772	0.3165	1016.1615	0.173229	-386.11928	-386.109543	-386.108599	-386.15283	36.065	
C	 0.0524754485	 1.2585310356	-0.2941828461	-0.245964
O	-0.0850702036	-0.0116914779	 0.3109563989	-0.281998
C	-1.3565974827	-0.5900003198	 0.1763565166	 0.399272
C	-2.447133342	 0.0658391565	 0.9943930273	-0.453097
C	-1.6856582245	-1.2023002028	-1.1798253076	-0.415041
C	-1.3308446905	-2.0840140924	 0.0078729612	 0.332623
C	-0.0231097806	-2.8407898492	 0.0235578761	-0.438864
O	-2.3895519857	-2.7571289242	 0.6441300582	-0.466763
H	 1.1063218442	 1.535361472	-0.2115119996	 0.124831
H	-0.2294332492	 1.235267308	-1.3567246051	 0.105993
H	-0.5510290541	 2.0272610867	 0.2077225126	 0.110817
H	-2.692921365	 1.060804645	 0.6089114806	 0.110222
H	-3.3511481168	-0.5433297875	 0.979805533	 0.137654
H	-2.1206752944	 0.1713414138	 2.0340629216	 0.123481
H	-2.7217084843	-1.1862873818	-1.5016786654	 0.108599
H	-0.9502403408	-1.1013781743	-1.9712257112	 0.110682
H	 0.7863965478	-2.2344131983	-0.3839815152	 0.131527
H	 0.2367046452	-3.1209371913	 1.0491374885	 0.125637
H	-0.1050783244	-3.7594499147	-0.5705498598	 0.099888
H	-2.6101976571	-3.5251240933	 0.1056898953	 0.280501
