20
gdb 61646	4.32757	0.76254	0.72105	4.4358	78.41	-0.2423	0.0294	0.2716	1610.1851	0.168898	-440.289923	-440.279745	-440.278801	-440.326292	35.412	
C	 0.138305851	 1.4976423122	-0.2027214842	-0.421398
C	 0.1075179128	 0.0103824108	 0.0452093204	 0.076534
O	 1.3610803671	-0.6778516121	 0.1298980009	-0.255858
C	 0.5225344429	-0.6571464314	 1.2911921926	 0.059875
C	 1.0449258427	 0.0619521095	 2.5184867754	-0.217237
N	 1.9534047589	-0.7567611483	 3.3000828873	-0.034401
C	 3.2620976448	-1.0695203961	 2.744006128	-0.346328
C	 1.6194946957	-1.1924746356	 4.5494178976	 0.153468
O	 2.3176214746	-1.8678808079	 5.2750007362	-0.340756
H	 0.9052004522	 1.9987488338	 0.3905010277	 0.129658
H	 0.3485664423	 1.6945109467	-1.2589340693	 0.135642
H	-0.8344053093	 1.9430892868	 0.0321191428	 0.127248
H	-0.6341440244	-0.5235187299	-0.5528316204	 0.094386
H	 0.0657058266	-1.6227501952	 1.5199596551	 0.098324
H	 1.5489761611	 0.9890405769	 2.223161917	 0.113537
H	 0.1971299476	 0.3322316519	 3.1590070704	 0.121288
H	 3.8244991001	-0.1486474123	 2.5473190169	 0.123169
H	 3.7954175765	-1.6729412043	 3.4782390274	 0.165541
H	 3.1687036979	-1.6198705591	 1.8037402501	 0.150027
H	 0.6056494291	-0.8512801965	 4.8410117178	 0.067282
