21
gdb 32786	3.04114	0.96686	0.77844	0.6892	86.27	-0.2065	0.0268	0.2333	1528.7342	0.182045	-387.137531	-387.127886	-387.126942	-387.172923	35.052	
C	-0.2442189863	 1.6203608502	 0.0369600754	-0.379257
C	-0.2222192381	 0.0908625734	 0.0820799736	-0.149079
C	 0.8161450425	-0.4642126083	 1.075608191	-0.317738
C	 0.8313768243	-1.9626612146	 1.1528778998	 0.168526
C	 1.7779128034	-2.8206458845	 0.6707177181	 0.267807
C	 3.0710416984	-2.6352598961	-0.0402767653	-0.493289
O	 1.4141014734	-4.1147455724	 0.9246016957	-0.181643
C	 0.2210383742	-4.0778788685	 1.575366178	-0.020407
C	-0.1852661018	-2.796605986	 1.7430409109	-0.265827
H	 0.729673686	 2.0228204412	-0.2641918799	 0.1124
H	-0.9898304653	 1.987972992	-0.6748747195	 0.111727
H	-0.4846371201	 2.0427906478	 1.0191725114	 0.113255
H	-1.2157949322	-0.2869414224	 0.3531936604	 0.099367
H	-0.0087171806	-0.311007713	-0.9158905122	 0.098334
H	 1.810240588	-0.0947446927	 0.7963594805	 0.096158
H	 0.6092664426	-0.0472157215	 2.0707063257	 0.102146
H	 3.9002290844	-3.093848761	 0.5106519736	 0.136441
H	 3.0521889507	-3.0895239404	-1.0379231025	 0.136102
H	 3.2891279514	-1.5717748487	-0.1585089821	 0.133353
H	-0.1940596011	-5.0343894841	 1.8472645971	 0.128236
H	-1.0909072939	-2.4680277305	 2.2301432302	 0.103387
