16
gdb 14856	3.0239	1.63657	1.19067	4.5749	65.07	-0.2501	0.0215	0.2716	994.7059	0.131833	-379.902219	-379.894242	-379.893298	-379.935455	28.364	
O	-0.0400872864	 1.4130224408	-0.2335283655	-0.420866
C	 0.0748407968	 0.0355426983	 0.0709844332	-0.071986
C	-1.3164664671	-0.5813615684	 0.1546147139	 0.020344
N	-2.0877140795	-0.3843901987	-1.1002878521	-0.325437
C	-2.5083303349	-1.8047791919	-1.1305557526	-0.165889
C	-1.4954712138	-2.134326474	 0.0119505295	-0.201552
C	-0.3243700108	-2.8965838221	-0.3880368815	 0.289808
N	 0.5993081348	-3.5143354476	-0.7083357672	-0.331163
H	-0.4559363496	 1.4518066987	-1.1038439383	 0.2883
H	 0.6732411594	-0.4958746953	-0.682148712	 0.111834
H	 0.5937704023	-0.0407352322	 1.0320477812	 0.114399
H	-1.8319792636	-0.2105762601	 1.0491026582	 0.085371
H	-2.8536453528	 0.2741117501	-1.0225360184	 0.230348
H	-3.5436236896	-1.9876938696	-0.8211705404	 0.111735
H	-2.3298401429	-2.3034237205	-2.0868853728	 0.132889
H	-1.9416551523	-2.6127372678	 0.8851972348	 0.131865
