15
gdb 113637	3.69538	0.9594	0.80211	3.8276	69.52	-0.2835	-0.0748	0.2087	1354.2291	0.11125	-453.935922	-453.926827	-453.925882	-453.970892	31.225	
O	 0.0787722643	 1.3330763675	 0.2710614217	-0.409526
C	-0.0546471949	 0.0611025739	-0.3255821532	-0.07245
C	-1.3391076391	-0.6134019504	 0.0947790471	-0.031181
C	-1.5010342314	-2.1082989181	 0.1347785627	-0.261513
N	-1.3067577854	-1.3405254086	 1.3514505615	-0.092805
C	-2.1828077342	-1.1635935027	 2.3949024556	 0.30058
O	-2.5162080501	-0.0958258975	 2.850212684	-0.310392
C	-2.6284452723	-2.4359928362	 2.9944284	 0.238988
N	-3.0135876707	-3.4199998601	 3.4621151959	-0.313311
H	 0.0059181726	 1.2216699746	 1.2261232686	 0.296733
H	-0.0639209144	 0.2273889285	-1.407886638	 0.124648
H	 0.793291269	-0.6015752985	-0.092288611	 0.099394
H	-2.2395751125	-0.0260158011	-0.0762173544	 0.132271
H	-2.4896775455	-2.5187748589	-0.0519371499	 0.153036
H	-0.6711928454	-2.7498789224	-0.1474226703	 0.145528
