21
gdb 94168	2.35234	1.4205	1.1681	2.7803	78.58	-0.2382	-0.01	0.2281	1181.0359	0.179614	-424.242018	-424.231962	-424.231018	-424.277076	37.444	
C	 0.4441310972	 1.5948018791	 0.0442247688	-0.430172
C	 0.0124503005	 0.150284628	 0.2740911325	-0.022971
C	 0.4849096859	-0.8520690012	-0.8171354118	-0.220495
C	 1.6351593432	-1.318292977	 0.1129412728	-0.268674
C	 0.9225100546	-0.6315621327	 1.3115276088	 0.280389
O	 1.6914586923	 0.1174395163	 2.2241958166	-0.481184
C	 0.0553788721	-1.5996903788	 2.1163891517	 0.366584
C	-0.2019749991	-1.2575664535	 3.5679513591	-0.476746
O	-0.4279140008	-2.5755497664	 1.5852546245	-0.317103
H	 1.4965311364	 1.6666417957	-0.2590209052	 0.106629
H	-0.147655558	 2.0425233535	-0.7606189765	 0.125763
H	 0.3067709638	 2.2047154154	 0.9428879586	 0.125364
H	-1.0568853388	 0.1210500343	 0.5036697079	 0.078326
H	-0.2403762696	-1.647164177	-0.9901875583	 0.126808
H	 0.7735810595	-0.41059237	-1.7744638764	 0.091974
H	 1.7994144536	-2.3925675071	 0.2049727262	 0.118104
H	 2.5872053071	-0.8250288507	-0.1058395699	 0.088921
H	 2.2126868532	 0.7558738162	 1.7282622902	 0.282282
H	 0.7385274709	-1.284791031	 4.126404453	 0.154824
H	-0.5808692089	-0.2348696339	 3.6616755347	 0.139907
H	-0.9135299953	-1.9700950292	 3.9861730727	 0.13147
