25
gdb 57560	3.68312	0.58266	0.57961	2.8769	90.74	-0.2473	-0.0186	0.2287	2050.5483	0.225069	-389.517195	-389.505579	-389.504635	-389.554888	41.873	
C	-0.1536116438	 1.588500708	 0.0043240437	-0.401226
C	-0.0358479718	 0.0537163162	 0.0521001982	 0.25845
C	 0.5853856658	-0.3758621332	 1.3944091554	-0.401359
C	-1.4463223976	-0.556225025	-0.0589975202	-0.401568
C	 0.8009769464	-0.4754365836	-1.1404551191	-0.177687
C	 2.2565908946	 0.0007560432	-1.2339928261	-0.216072
C	 2.9775013372	-0.5838790695	-2.4631614587	-0.26899
C	 4.4378060387	-0.1990426339	-2.4940723839	 0.158633
O	 4.9874169389	 0.372838991	-3.3998254742	-0.238085
H	 0.8161563236	 2.0784513573	 0.1344516464	 0.112214
H	-0.5745906206	 1.9239259339	-0.9502309062	 0.108906
H	-0.8114514822	 1.9496994368	 0.8021743153	 0.110093
H	-0.0562361262	-0.0753735986	 2.2298450744	 0.110577
H	 0.7067122707	-1.4639620305	 1.4447990632	 0.106921
H	 1.5669386846	 0.0797187769	 1.558795595	 0.111344
H	-1.9288021044	-0.2708389834	-1.0004103619	 0.108641
H	-1.4098828144	-1.6506845509	-0.0205316083	 0.107645
H	-2.087095459	-0.2147056675	 0.7612115457	 0.10836
H	 0.796326799	-1.5738565193	-1.1043807008	 0.088626
H	 0.2842529035	-0.2031367512	-2.07096036	 0.092885
H	 2.2963036099	 1.094457553	-1.289813092	 0.11414
H	 2.8070779332	-0.2846537945	-0.3291849602	 0.103845
H	 2.9263031485	-1.6821318124	-2.4195549463	 0.116047
H	 2.5099142399	-0.2602837085	-3.3978723197	 0.120497
H	 5.0027038355	-0.4853107043	-1.5741186396	 0.067162
