13
gdb 129367	4.48796	0.94044	0.83205	3.3465	62.1	-0.2837	-0.0855	0.1983	1296.364	0.088323	-485.991673	-485.983816	-485.982871	-486.026	26.545	
N	-0.4762152273	 1.0925640772	-0.1586621339	-0.426968
C	-0.5236128133	-0.1507711197	-0.3400752362	 0.139307
O	-0.7191236518	-0.9702202103	 0.7263383115	-0.176433
C	-0.8637174976	-2.3556177081	 0.4583400174	-0.200136
C	-2.2961592002	-2.7207528499	 0.2281038478	 0.426856
N	-3.0167766074	-3.4679374225	 1.0128374547	-0.131357
O	-4.227375102	-3.5204025194	 0.4192570729	-0.132891
N	-4.187774945	-2.763289812	-0.7539605352	 0.056496
N	-3.0304647304	-2.2904820719	-0.8635550495	-0.19625
H	-0.3024076807	 1.5710709289	-1.0398455445	 0.238348
H	-0.4118471311	-0.6889731297	-1.2900810805	 0.100836
H	-0.2659494305	-2.652811045	-0.4124747861	 0.139526
H	-0.4972761926	-2.8921033076	 1.3346810516	 0.162666
