16
gdb 36109	3.71932	1.14417	1.04041	4.6594	71.78	-0.2491	0.0232	0.2723	1148.1093	0.123833	-400.679321	-400.671747	-400.670803	-400.711945	28.976	
N	-0.1337564075	-1.1399080178	 0.2360386734	-0.303281
C	-0.0907344945	 0.0047840022	 0.0855022957	 0.26446
C	-0.0151369299	 1.4559013023	-0.1170128533	-0.455784
C	 1.4012809698	 1.9717134881	-0.0884582804	 0.321413
C	 2.1376958269	 2.4033171065	 1.1490023029	-0.32055
C	 1.886987512	 3.4083698129	 0.0504678607	-0.175455
C	 2.8424291844	 3.1711806999	-1.1627585543	 0.024397
O	 3.7255120571	 2.0811693502	-0.8649531922	-0.230225
C	 2.3924958236	 1.790188399	-1.2930181045	-0.036348
H	-0.4979406167	 1.6916687805	-1.0743057903	 0.152756
H	-0.6098586519	 1.9475244228	 0.6610890485	 0.15609
H	 1.51352794	 2.5317113548	 2.0281194096	 0.118316
H	 3.1402387795	 2.0443380392	 1.3414919117	 0.147725
H	 1.2970942034	 4.3050548264	 0.1879825239	 0.101407
H	 3.168879832	 3.8995865826	-1.8942259562	 0.116311
H	 2.2620703216	 1.1370605803	-2.1477142151	 0.118766
