14
gdb 15479	2.92842	2.06517	1.48402	4.1601	62.67	-0.2605	-0.0003	0.2602	852.9365	0.107444	-382.548846	-382.541682	-382.540738	-382.580525	26.272	
O	-0.0078552847	 0.0741612279	-0.4841723201	-0.329845
C	 0.0342777711	 1.2161814225	-0.1427880696	 0.440569
O	-1.0662247326	 1.9287392868	 0.2064548385	-0.214063
C	-0.7205663274	 3.273008003	 0.5850011027	-0.076971
C	 0.6495778442	 3.5359151857	-0.0517188923	-0.24349
C	 1.2825511111	 2.1295565776	-0.0260105554	-0.303096
C	 1.9940840937	 1.8410639357	 1.2127555419	 0.335944
C	 2.5615918557	 1.6215157916	 2.2488666408	-0.469755
H	-1.5097899328	 3.9329152857	 0.2208013941	 0.130357
H	-0.6815761502	 3.3296181054	 1.6782044708	 0.131394
H	 0.5290961654	 3.8644144095	-1.0879787499	 0.123283
H	 1.2320468091	 4.2822410631	 0.4888103431	 0.129957
H	 1.9303531745	 1.9348178743	-0.8844284087	 0.138068
H	 3.0723268229	 1.4120841713	 3.1562696341	 0.207647
