16
gdb 75983	2.12811	1.89038	1.085	5.1874	66.11	-0.2497	-0.0283	0.2214	1066.4689	0.125463	-475.076562	-475.068576	-475.067632	-475.109361	29.931	
O	 0.1680853238	 1.3183835466	 0.3179242409	-0.417974
C	-0.0279465559	-0.0171588399	 0.0021633046	-0.038172
C	-1.4980868984	-0.4233212741	-0.0653540496	 0.350458
O	-2.417737353	 0.3214219199	 0.1457493781	-0.283683
C	-1.6505714025	-1.8850755783	-0.4699890386	-0.310317
C	-1.0408809126	-2.1002980183	-1.8645196089	-0.170122
N	 0.2840993289	-1.488837247	-1.9750177953	-0.316834
C	 0.6871091305	-0.364025362	-1.3231525925	 0.364057
O	 1.6052497751	 0.3430402916	-1.6982402326	-0.376279
H	 0.917681871	 1.5983335703	-0.232467929	 0.299013
H	 0.431644828	-0.6880478939	 0.7557273593	 0.112626
H	-1.1298330657	-2.5178381422	 0.2579298427	 0.131398
H	-2.7083548948	-2.152214115	-0.4757130971	 0.136857
H	-0.9478812231	-3.1702779942	-2.0725975814	 0.128487
H	-1.7157702881	-1.6759735287	-2.6206613719	 0.133469
H	 0.7887547669	-1.651135995	-2.8365503888	 0.257017
