19
gdb 70305	3.60546	1.28855	1.17817	2.1811	74.89	-0.2192	0.0753	0.2945	1106.6331	0.158844	-422.992739	-422.984821	-422.983877	-423.024724	32.274	
O	 0.1416872336	 1.2999090756	-0.6164746209	-0.468914
C	 0.0284671342	 0.0505742211	-0.0104248171	 0.363149
C	-0.2448649993	-1.1855875418	-0.8494171011	-0.388208
C	-1.3009654774	-0.6255851688	 0.087853681	 0.058205
O	-1.4680255875	-1.2109438962	 1.3513792179	-0.289586
C	-0.1896571464	-1.2588655792	 1.9678324683	 0.445564
C	-0.1686120599	-1.6637790415	 3.4018181831	-0.343712
C	 0.3434393971	-2.6197117986	 2.3365104177	-0.317709
C	 0.6796489272	-0.1669434989	 1.3508639798	-0.378082
H	 0.9807507682	 1.3273228902	-1.0892991877	 0.282937
H	-0.4188144119	-1.0074647144	-1.9054324629	 0.114384
H	 0.2441357817	-2.1231873711	-0.6086247487	 0.121698
H	-2.2152744403	-0.2004353475	-0.3065293516	 0.111211
H	 0.547301337	-1.1861328788	 4.0621934169	 0.115491
H	-1.1259370113	-1.8916645608	 3.8568031113	 0.127515
H	-0.2821268728	-3.4717725013	 2.0957085514	 0.121875
H	 1.4123726768	-2.7973266642	 2.2707289064	 0.107796
H	 1.7332600347	-0.4601019052	 1.3049990855	 0.100055
H	 0.6056983465	 0.7729500114	 1.9097855608	 0.116331
