20
gdb 100817	3.1839	0.85978	0.77196	6.2925	76.67	-0.2743	0.0374	0.3117	1530.0325	0.168327	-440.292869	-440.282214	-440.28127	-440.329194	37.447	
C	 0.1031517874	 1.3372209011	-0.2118397047	-0.239322
O	 0.0101968321	-0.0438796898	 0.0642291829	-0.269959
C	-1.3042947632	-0.596061365	 0.0374077956	 0.108685
C	-1.8668805842	-0.7067881557	-1.3790097394	-0.413461
C	-1.1483737814	-1.9795336534	 0.6954738507	 0.13412
O	-0.1850717352	-2.7499546705	 0.0112561432	-0.428476
C	-0.7895130344	-1.8310234727	 2.1938267384	-0.368972
C	-0.6388013582	-3.117677579	 2.8657246955	 0.268003
N	-0.534582086	-4.1322315056	 3.4084426356	-0.307582
H	 1.1420372198	 1.6278919908	-0.0390323618	 0.135404
H	-0.1581758714	 1.5763309445	-1.2511525995	 0.119081
H	-0.5457761685	 1.9240476639	 0.4553023818	 0.11136
H	-1.9721381545	 0.0268965685	 0.6556354322	 0.068853
H	-1.9166456867	 0.268633301	-1.8694075751	 0.118856
H	-1.2440308732	-1.3762188254	-1.9769180857	 0.14114
H	-2.8825297932	-1.1135231024	-1.348411213	 0.123948
H	-2.0946327646	-2.52380978	 0.6108841474	 0.104586
H	 0.5818281234	-2.1753912683	-0.1128998535	 0.293625
H	 0.1424838607	-1.2630595017	 2.2783605494	 0.157106
H	-1.5670983087	-1.2560224001	 2.7105950301	 0.143006
