16
gdb 133554	2.89027	1.33283	1.21101	2.238	61.08	-0.277	0.0826	0.3596	1049.7104	0.121393	-532.236101	-532.228337	-532.227393	-532.268938	29.423	
F	-0.1992074389	 0.0909247939	-0.2038932222	-0.08343
C	-0.0012091388	 1.3992524541	 0.0425984818	 0.205836
F	 1.3237830356	 1.5863837595	 0.1775948669	-0.084492
F	-0.3894934918	 2.0621490411	-1.0617598566	-0.079757
C	-0.7437493659	 1.8464260342	 1.2524951832	 0.202636
C	-0.3065426866	 3.0310077967	 2.0656010872	-0.331153
C	-0.3543036134	 1.6796548096	 2.7223392817	-0.100289
C	-1.8002752546	 1.3045329218	 3.0740202521	-0.224077
C	-2.1962496529	 1.4668749088	 1.5673823059	-0.306227
H	 0.6879201337	 3.4005190983	 1.8424889271	 0.133087
H	-1.0316464826	 3.799190384	 2.323061443	 0.113108
H	 0.5391806047	 1.2193893779	 3.1251074968	 0.105456
H	-1.9069527373	 0.2744452322	 3.418454829	 0.114109
H	-2.2989040023	 1.9666576355	 3.7881178642	 0.104762
H	-2.9485518747	 2.2223503542	 1.3242022406	 0.106271
H	-2.4846997344	 0.517859928	 1.1131131192	 0.124159
