17
gdb 61096	2.36192	1.23369	1.02017	0.3484	85.65	-0.2587	0.0244	0.2831	1235.2676	0.130536	-347.44767	-347.437427	-347.436482	-347.482349	38.061	
C	-0.0658817196	 1.5646518414	-0.046842134	-0.404756
C	-0.0454410132	 0.0143159475	-0.0250178889	-0.15775
C	 0.6998311485	-0.5033394389	 1.2602003659	-0.370403
C	 0.1023275261	-0.0561864643	 2.5094905417	 0.325128
C	-0.3839160812	 0.3181831795	 3.542716617	-0.453131
C	-1.4199022086	-0.5045880834	-0.0468366105	 0.37463
C	-2.5476156855	-0.9171015236	-0.053078101	-0.486715
C	 0.6883453608	-0.4861822311	-1.1966058529	 0.343076
C	 1.3230794773	-0.8817871508	-2.1365553422	-0.461804
H	 0.9581259401	 1.9482470361	-0.0500115323	 0.124395
H	-0.576947722	 1.9214146773	-0.9428078626	 0.136188
H	-0.5873308287	 1.9383839392	 0.8365531498	 0.143307
H	 0.7216445296	-1.5970811553	 1.2239201777	 0.149014
H	 1.7392921677	-0.1618255873	 1.1959603343	 0.140945
H	-0.8158841677	 0.6395540017	 4.4579493558	 0.198216
H	-3.5432569791	-1.2864839727	-0.0623145919	 0.200386
H	 1.8671624156	-1.2361066754	-2.9770838659	 0.199271
