19
gdb 100403	2.35984	1.12327	0.84837	1.8748	76.34	-0.2396	-0.0396	0.1999	1386.9355	0.156843	-456.360319	-456.350139	-456.349195	-456.395533	36.718	
C	-0.1267888758	 1.997667253	-0.5625511379	-0.408119
C	 0.3627335395	 0.6225542794	-0.1176874164	-0.041704
C	-0.7815700149	-0.2522149227	 0.378105473	 0.164657
O	-0.6621340655	-1.08915494	 1.244541689	-0.266469
N	 0.9733698128	-0.0737849672	-1.2517656135	-0.329719
C	 1.7126505739	-1.1039118087	-1.0397538453	 0.351492
N	 1.990357599	-1.6911958051	 0.1589224675	-0.543577
C	 2.3901159526	-1.705736935	-2.2636950298	-0.110109
O	 2.1542702392	-0.9474970373	-3.4106708689	-0.421211
H	 0.7113399909	 2.5813064471	-0.9509827818	 0.1331
H	-0.8668231309	 1.8993793488	-1.3631965906	 0.12802
H	-0.5795806732	 2.54690225	 0.2693111821	 0.11669
H	 1.077220611	 0.7189559974	 0.7142507188	 0.09366
H	-1.7480216994	-0.1207648416	-0.1550371518	 0.09695
H	 1.3232315994	-1.5842603022	 0.9136443107	 0.281025
H	 2.5001014834	-2.5603825816	 0.1476484283	 0.258784
H	 3.4707578432	-1.7820198409	-2.0583065016	 0.106678
H	 2.0194256132	-2.7383371908	-2.3859460702	 0.103668
H	 1.5468459516	-0.2469757027	-3.1095006515	 0.286182
