21
gdb 67592	2.63692	1.82733	1.74282	0.1385	84.09	-0.2374	0.0902	0.3276	951.4964	0.186205	-349.969093	-349.962125	-349.961181	-349.999877	29.829	
C	 0.0028890557	 1.4895456106	 0.0071038954	-0.510425
C	 0.000205463	-0.0167722913	-0.0002539899	 0.364911
C	 0.987296325	-0.8687873034	-0.7823203646	-0.109539
C	 0.2598183818	-2.0177427809	-1.4658017964	-0.238998
C	-1.0805291127	-2.0874143799	-0.7460447836	-0.062858
C	-1.0505567178	-2.0950085218	 0.7668138058	-0.062859
C	 0.3172622495	-2.0323221878	 1.4336089072	-0.239009
C	 1.0173459804	-0.8764401047	 0.7334452884	-0.109577
C	-1.3072986018	-0.7980638828	 0.0216641812	-0.130265
H	 1.0254033508	 1.8802020884	-0.0081190841	 0.113473
H	-0.5189677161	 1.8972784234	-0.866858788	 0.115095
H	-0.4892166135	 1.8884578349	 0.9021368522	 0.115091
H	 1.8225115082	-0.4015565734	-1.2948415942	 0.072608
H	 0.1093226348	-1.7944151338	-2.5289816686	 0.095564
H	 0.8161618258	-2.9624038761	-1.4105065696	 0.096414
H	-1.9088423843	-2.5920881861	-1.2321104212	 0.075693
H	-1.8590911525	-2.6046726569	 1.2802058954	 0.075693
H	 0.2090410564	-1.819759043	 2.5041145414	 0.095567
H	 0.8707739675	-2.9762722717	 1.3467887889	 0.096416
H	 1.8723211472	-0.4142454543	 1.217143792	 0.072606
H	-2.2592331473	-0.2822464793	 0.0431180424	 0.0744
