21
gdb 87859	3.15064	1.27773	1.16292	1.6776	81.42	-0.2544	0.0811	0.3356	1167.2917	0.183269	-387.081432	-387.073225	-387.072281	-387.11402	32.72	
C	-0.3217779344	 1.5126558845	 0.5120177035	-0.422189
C	-0.2027202908	 0.0129545852	 0.4349685456	-0.003568
O	 0.9048593704	-0.5158668259	-0.3084994762	-0.314986
C	 0.8477222327	-0.7888779429	 1.0916220456	 0.432258
C	 1.9383428746	-0.2127635502	 2.0000925022	-0.312154
C	 1.8580377851	-1.0505002872	 3.2660505117	-0.028458
C	 0.4948062937	-1.2326712241	 3.8893812455	-0.28855
C	 1.0438629074	-2.2951932332	 2.9682312823	-0.028657
C	 0.615399606	-2.2443723277	 1.5122480267	-0.305272
H	 0.6480825418	 1.9836712001	 0.6857032088	 0.129269
H	-0.7247164939	 1.9073850026	-0.4267102542	 0.128756
H	-1.0047824747	 1.805180491	 1.3174620977	 0.119867
H	-1.1445162254	-0.5027979535	 0.2302897322	 0.082514
H	 2.9117443901	-0.352010181	 1.5140528276	 0.112409
H	 1.8165074313	 0.8590568295	 2.1819266318	 0.102596
H	 2.728062081	-1.0935077864	 3.9111591273	 0.082709
H	 0.4604955192	-1.4637890848	 4.9484245828	 0.108719
H	-0.3284146731	-0.6121874848	 3.5467781607	 0.109216
H	 1.3159548729	-3.2541044686	 3.3941581412	 0.082773
H	-0.4182934305	-2.5630950263	 1.3421882135	 0.100779
H	 1.2608991866	-2.8913888364	 0.9053953339	 0.111969
