21
gdb 79038	3.51078	1.58169	1.34435	0.1926	86.43	-0.2606	0.095	0.3556	1036.4136	0.184861	-349.881826	-349.874739	-349.873795	-349.912845	29.931	
C	-0.2017034291	 1.6185418829	-0.111699527	-0.418362
C	-0.0308985774	 0.1124316736	 0.0128401869	-0.103074
C	 1.174117456	-0.5946027985	-0.699840919	-0.099596
C	 2.1794075687	-0.1775333411	 0.4181297962	-0.054486
C	 2.5890307395	-1.5882781784	 0.8897902958	-0.086617
C	 2.4261507726	-1.5723293938	 2.436848891	-0.216801
C	 1.0967467163	-0.7394865509	 2.63057687	-0.357009
C	 0.8315246272	-0.4804887084	 1.1591673502	 0.351141
C	 1.1639771533	-1.7635058488	 0.3271006696	-0.047022
H	 0.7476096846	 2.1465716358	 0.0254404114	 0.113038
H	-0.593010668	 1.8865251929	-1.0993977448	 0.113836
H	-0.9067123587	 1.9998463405	 0.6354394207	 0.11461
H	-0.9906807528	-0.4010031712	-0.1315566316	 0.061169
H	 1.3643575025	-0.6572888865	-1.7727026162	 0.062564
H	 2.7443681165	 0.7532048279	 0.4934013527	 0.063402
H	 3.4552523714	-2.1195873339	 0.4888549119	 0.05276
H	 2.3347599853	-2.5835655937	 2.8463496742	 0.097093
H	 3.2794238013	-1.0961574625	 2.9307604203	 0.096869
H	 0.3107052058	-1.3215862056	 3.121003152	 0.098048
H	 1.2590414297	 0.1707615224	 3.215551556	 0.098258
H	 0.5360015354	-2.6569406627	 0.2974649096	 0.060179
