18
gdb 98530	3.75136	1.14045	1.02089	2.0364	73.75	-0.2424	0.0017	0.2442	1217.8908	0.147907	-439.040621	-439.032151	-439.031207	-439.074951	30.675	
C	-0.3622050253	 1.3010993167	 0.3796935483	-0.242101
O	-0.3222294912	-0.1256050986	 0.5216687736	-0.235534
C	 0.86886585	-0.6328771635	 0.8894088333	 0.293691
O	 1.8528019273	 0.027373371	 1.1083313636	-0.375373
C	 0.7954143624	-2.1232875113	 1.0275664527	 0.269965
C	 1.9349859288	-3.1480943041	 0.820938947	-0.223373
C	 0.6366713685	-3.9341426995	 1.1391465518	-0.029433
C	 0.3554621767	-2.931876463	 2.2907429361	-0.260722
N	-0.0689965524	-3.0140596351	 0.1491034577	-0.345477
H	 0.3466987582	 1.6298121415	-0.3842192286	 0.144847
H	-1.3828444273	 1.5412329867	 0.0825749213	 0.135063
H	-0.1116078254	 1.7891143123	 1.3249326198	 0.141601
H	 2.3003937015	-3.2341753424	-0.2020946671	 0.114351
H	 2.7283197711	-3.1623455268	 1.56786957	 0.107747
H	 0.4812105983	-5.0126658514	 1.1243823355	 0.089638
H	 1.0256445986	-2.9280876421	 3.1557050658	 0.105663
H	-0.6917558536	-2.8128563526	 2.5826932361	 0.100338
H	-1.0478893161	-2.9029663278	 0.431799003	 0.209108
