17
gdb 99397	3.21139	0.71281	0.63238	2.3906	66.28	-0.2689	-0.0457	0.2232	1703.9156	0.131007	-496.096902	-496.086659	-496.085715	-496.134585	34.071	
O	-1.1145392619	 1.1844662749	 0.7416143216	-0.418794
C	-1.3916186118	-0.1818526768	 0.6918663279	-0.128098
C	-1.1597469816	-0.7362545527	-0.7045732693	 0.320512
O	-0.7911134548	-0.0008189126	-1.5940884802	-0.309137
C	-1.3226712827	-2.2363256181	-0.9368657111	-0.173561
O	-2.1304838327	-2.8871365092	 0.0177704746	-0.238836
C	-3.5134884511	-2.8503120433	-0.2612358903	-0.160352
C	-4.2241235504	-3.706340493	 0.7755826057	 0.140246
O	-5.4192101039	-3.7974069022	 0.8486170152	-0.228083
H	-0.8342690732	 1.4234606705	-0.1563208506	 0.295793
H	-0.762368256	-0.7535014627	 1.3944627829	 0.12613
H	-2.4315580463	-0.389835592	 0.9893454317	 0.122007
H	-1.6741716204	-2.3977441608	-1.9649747825	 0.131811
H	-0.3211057594	-2.6787158584	-0.8586843467	 0.149951
H	-3.9283587093	-1.8309184153	-0.2280145007	 0.132462
H	-3.7320720276	-3.258620908	-1.261492642	 0.135062
H	-3.5329232669	-4.2488352103	 1.4567811939	 0.102887
