20
gdb 93767	2.98904	1.28969	0.93165	4.2798	84.61	-0.2283	-0.0237	0.2046	1284.6821	0.171641	-403.207958	-403.19883	-403.197885	-403.241727	33.721	
C	-0.0322526923	 1.4610897387	-0.0035912795	-0.34375
N	 0.0213733232	 0.0212412265	-0.1758238817	-0.119153
C	-1.2365232326	-0.7079536636	-0.0841789434	-0.161169
C	-1.1564422244	-2.0670506019	-0.776362492	-0.307345
C	 0.097153621	-2.8118196962	-0.3865390782	 0.2917
C	 0.0894601536	-4.3061333592	-0.5143869054	-0.479017
C	 1.1677370811	-2.1113220943	 0.0040716544	-0.234987
C	 1.2186174729	-0.6292977717	 0.0412589593	 0.410531
O	 2.2721086751	-0.0347685013	 0.2218364801	-0.400986
H	 0.9839240574	 1.847805322	-0.0657751486	 0.166615
H	-0.6511379712	 1.9132364368	-0.7864234803	 0.116621
H	-0.4557973938	 1.7381835748	 0.9729848384	 0.115076
H	-1.5242464387	-0.848100522	 0.9715741156	 0.103139
H	-2.0186722129	-0.0973158676	-0.5468974098	 0.109712
H	-2.0482676002	-2.6527928945	-0.5259509769	 0.109539
H	-1.1688866974	-1.9395186712	-1.868764377	 0.123828
H	-0.1654559263	-4.606966495	-1.5389976915	 0.132654
H	 1.0591320092	-4.740347987	-0.2600965035	 0.13203
H	-0.6730036092	-4.7514808747	 0.1371944628	 0.130929
H	 2.1071338854	-2.5891675286	 0.2602989572	 0.104032
