14
gdb 19387	3.20593	2.34016	1.60911	2.5034	63.14	-0.2397	-0.0286	0.211	787.183	0.107891	-378.651282	-378.644697	-378.643753	-378.68201	24.983	
O	 0.0623480787	 0.039531311	-0.1567135337	-0.322293
C	-0.0038172912	 1.2224357655	 0.0198790271	 0.388752
C	-1.1093992054	 2.2617869752	-0.0439573473	-0.191459
N	-0.8861174385	 3.1735869107	 1.1306938428	-0.332361
C	-0.0600269837	 3.3474493478	-0.0718243916	-0.16866
C	 1.0567757557	 2.324041125	 0.0759334191	 0.291615
C	 2.3603787851	 2.3327592235	 0.7684513902	-0.288857
N	 2.2878682268	 2.275941626	-0.7015356447	-0.375598
H	-2.0738541162	 2.1999221931	-0.530101161	 0.119773
H	-1.6431175389	 3.8577362174	 1.0921475085	 0.242756
H	-0.0517719053	 4.250195844	-0.6670373686	 0.123624
H	 2.7436334545	 3.2658415974	 1.1708716264	 0.131095
H	 2.6423408712	 1.4369751189	 1.3157169575	 0.132158
H	 2.4359538573	 1.3207562842	-1.0259755646	 0.249456
