13
gdb 61353	3.23106	0.93467	0.8146	3.4362	65.7	-0.3367	-0.0901	0.2466	1350.0562	0.087126	-452.781638	-452.772617	-452.771673	-452.816733	30.316	
C	-0.0184390823	 1.5695658074	 0.0337894445	-0.406635
C	 0.0142670175	 0.0424297055	 0.0047358191	-0.037093
O	 0.7582980574	-0.4674259612	 1.1457184973	-0.229709
C	 2.0699323301	-0.6489543861	 0.9458460515	 0.37978
O	 2.6811970883	-0.432421248	-0.0631900269	-0.325197
C	 2.690187174	-1.1648342094	 2.1684285594	 0.264129
N	 3.2323911958	-1.5667474999	 3.10515266	-0.292825
C	-1.3247215656	-0.5478887097	 0.0917344145	 0.297014
N	-2.3930673568	-0.9836888083	 0.1236629669	-0.295992
H	 0.9974042139	 1.9551946754	-0.0734510266	 0.15712
H	-0.6243117997	 1.9391523563	-0.7971545113	 0.157749
H	-0.4503841955	 1.9243833683	 0.97172581	 0.159154
H	 0.505651293	-0.3117526903	-0.9056594983	 0.172506
