15
gdb 44765	2.75329	1.6792	1.23598	4.2206	70.13	-0.2455	-0.0386	0.2069	984.215	0.114423	-416.796082	-416.789046	-416.788102	-416.827634	27.207	
O	 0.0223604617	 0.0483855945	-0.0525162998	-0.297486
C	 0.0103646033	 1.2413383101	-0.0093703563	 0.40228
C	-1.1708443288	 2.2387777438	 0.0415253549	-0.291223
N	-0.4564807921	 3.5419303615	 0.079498064	-0.127271
C	 0.6038804044	 3.3085455925	-0.9735428903	-0.219165
C	 1.1912852392	 2.2399506107	 0.0117077544	 0.064671
C	 0.6299268209	 3.2342780651	 1.08587864	-0.219165
C	 2.5367255312	 1.7342292574	-0.0235439084	 0.170334
N	 3.6282987776	 1.3543956322	-0.0510438876	-0.329143
H	-1.809183542	 2.1593506122	-0.8422446381	 0.146533
H	-1.7867518378	 2.0953301517	 0.9331052008	 0.146532
H	 0.2397620419	 2.9732906053	-1.9472063877	 0.13358
H	 1.2456593674	 4.1843243002	-1.0791089138	 0.14297
H	 1.2749683248	 4.100761497	 1.2380005328	 0.142971
H	 0.2902114784	 2.8294402959	 2.0417543449	 0.133581
