21
gdb 114748	2.32863	1.57603	1.17721	2.5379	78.25	-0.2423	0.0791	0.3214	1148.3695	0.182081	-424.211088	-424.202143	-424.201199	-424.244681	33.754	
C	 0.1035876451	 1.5119737246	-0.0327753517	-0.234072
O	-0.1289035658	 0.1264418111	-0.0893944394	-0.229054
C	 0.6228505133	-0.5482762714	-1.0804363301	 0.103256
C	 2.0826162511	-0.8380595979	-0.625825273	-0.268135
C	 2.0450620822	-2.2531250903	-0.0864244874	 0.0499
O	 0.9804258187	-2.4851867733	 0.8447482007	-0.253027
C	 0.8046131153	-2.9039899377	-0.5151606569	 0.044276
C	-0.0211143207	-1.9423655358	-1.3520919697	-0.036311
C	-1.5277012498	-2.0124644302	-1.0971605977	-0.392753
H	 1.1382281042	 1.7578338674	 0.2514671502	 0.102741
H	-0.1091564772	 1.9999216513	-0.998021864	 0.099892
H	-0.5684356857	 1.9208535148	 0.7258488439	 0.128239
H	 0.6151909747	 0.0576666695	-1.9993401421	 0.059977
H	 2.7761215981	-0.7898904018	-1.4744166026	 0.099006
H	 2.4212845453	-0.1110233211	 0.118078917	 0.115107
H	 2.9647961394	-2.7996749404	 0.1095661163	 0.089257
H	 0.7179829128	-3.9782059358	-0.6664280501	 0.086654
H	 0.1757179773	-2.1930169885	-2.4044316652	 0.073967
H	-1.7471259829	-1.8110750457	-0.0475293269	 0.146693
H	-2.066754871	-1.2769846537	-1.7015162614	 0.111117
H	-1.9111386046	-3.0059269651	-1.3527636698	 0.103271
