19
gdb 98625	4.08701	1.0591	0.97202	1.4373	77.11	-0.2534	0.0139	0.2673	1281.1477	0.159428	-423.02935	-423.020681	-423.019737	-423.063514	31.756	
C	 0.0642962751	 1.3796597553	-0.3158982842	-0.239968
O	-0.0788153066	-0.0439626716	-0.2785456181	-0.237956
C	-1.2316329734	-0.4935570615	 0.2717889177	 0.450874
O	-2.0833835359	 0.2483872786	 0.7032718432	-0.380059
C	-1.2555598877	-1.9801586577	 0.2504920094	-0.135162
C	-1.8245658555	-2.855831233	 1.3527913222	-0.07504
C	-3.080159855	-2.2551701665	 2.0009972581	-0.22209
C	-3.7636963065	-2.2238909399	 0.5952764998	-0.222101
C	-2.4890074794	-2.8254560698	-0.0136243554	-0.075068
H	 1.0316736262	 1.5686797873	-0.7818551489	 0.130297
H	-0.738011511	 1.834697375	-0.902602918	 0.138595
H	 0.0378059222	 1.7985979786	 0.6934410382	 0.138609
H	-0.360038429	-2.4004660703	-0.1943301932	 0.105116
H	-1.190712388	-3.6178724424	 1.7913053355	 0.090285
H	-3.5615711618	-2.9646301292	 2.6777010076	 0.099228
H	-2.9578903914	-1.2966829832	 2.5059791718	 0.122477
H	-4.6055412391	-2.9168233329	 0.5307853104	 0.099237
H	-4.0683977018	-1.2458544994	 0.2220991534	 0.122446
H	-2.4555780713	-3.5600227275	-0.8099060094	 0.090279
