15
gdb 130712	3.31362	1.67007	1.13331	4.4383	66.56	-0.202	0.0485	0.2505	1001.8961	0.116857	-450.166269	-450.158977	-450.158033	-450.198328	26.926	
O	 0.0122395446	-0.0464801179	 0.1965488536	-0.430572
C	 0.016020023	 1.1630447508	 0.1175636888	 0.444474
N	-1.0278257079	 2.0655973348	 0.1341779124	-0.324677
N	-0.6538431761	 3.4167349488	 0.0279293205	-0.364801
C	 0.6320420358	 3.3169521264	-0.0697631765	 0.50061
N	 1.6742803258	 4.2010840223	-0.2781763294	-0.402221
C	 2.9156217296	 3.4695740513	 0.062516197	-0.179783
C	 2.5423780484	 1.9768264474	-0.1787294801	-0.177194
N	 1.1060160093	 2.0374343246	-0.0081864039	-0.136223
H	-1.9922251798	 1.828331429	 0.2797570998	 0.276439
H	 1.5651692639	 5.1253236882	 0.1134590847	 0.260165
H	 3.743383293	 3.793053446	-0.5717469539	 0.13025
H	 3.1994404237	 3.6211869148	 1.1125318181	 0.121476
H	 2.8069970841	 1.6496566148	-1.1904180399	 0.136979
H	 3.0144967427	 1.3051999389	 0.5406454089	 0.145078
