21
gdb 122603	3.79561	0.75079	0.65428	2.1593	80.75	-0.24	-0.0204	0.2196	1744.0242	0.180448	-424.225832	-424.21578	-424.214836	-424.262145	35.288	
C	-0.147314799	 1.5084806391	-0.041755102	-0.228231
O	-0.0650050667	 0.1149372984	-0.2143648523	-0.231845
C	-1.2844616271	-0.5427023669	 0.0548483315	-0.056967
C	-1.0647658116	-2.0415208588	-0.1232837958	-0.228847
C	-2.3352962751	-2.8531061409	 0.109996907	-0.090441
C	-2.2808617622	-4.4158269319	 0.0792085859	-0.26008
C	-3.1061466488	-4.4867370748	 1.3994678563	-0.332349
C	-2.87324922	-2.974939804	 1.5497103142	 0.392704
O	-2.958807456	-2.2057040715	 2.4643538272	-0.296748
H	 0.8378380318	 1.9258965128	-0.2647099215	 0.124358
H	-0.8867157271	 1.9629183621	-0.721126671	 0.100493
H	-0.4229458774	 1.777961578	 0.9901566482	 0.106463
H	-1.6294573579	-0.3289221178	 1.0781631262	 0.116561
H	-2.0719933271	-0.1878461821	-0.6347319199	 0.077483
H	-0.6872920014	-2.2269868793	-1.1359100689	 0.110013
H	-0.2810592597	-2.3668182686	 0.5711503972	 0.108605
H	-3.1446062376	-2.4869392009	-0.5370338201	 0.100378
H	-2.7241242899	-4.8938739079	-0.7949021215	 0.109531
H	-1.2620829339	-4.7892576934	 0.2080666692	 0.115862
H	-4.1649185273	-4.7172347372	 1.2416919527	 0.132551
H	-2.7336333961	-5.1133655945	 2.2133426873	 0.130507
