21
gdb 70242	2.86742	1.26949	1.16741	1.7415	77.51	-0.2372	0.0728	0.31	1164.2399	0.181757	-424.224404	-424.215482	-424.214538	-424.257124	36.122	
C	 0.5741666995	 1.3500966769	 0.038250756	-0.445698
C	-0.0815464458	-0.0321522219	-0.0465210781	 0.407266
O	-1.5028549211	 0.137379347	-0.104008041	-0.475073
C	 0.4363878261	-0.8704000454	-1.2651418309	-0.286208
C	 1.3499737388	-1.9469988427	-0.710300905	-0.1085
C	 2.5071834344	-1.5243896329	 0.1810338953	-0.329928
C	 1.218502231	-1.9613885059	 0.8010069395	 0.425327
O	 1.2876391843	-3.1296260466	 1.5613565291	-0.472379
C	 0.1980947298	-0.9086338281	 1.2021152567	-0.328712
H	 1.6607637563	 1.286908333	 0.1405722872	 0.123797
H	 0.3673677764	 1.9289386057	-0.8708324522	 0.103781
H	 0.17777329	 1.9019079611	 0.8956727324	 0.124389
H	-1.6969723589	 0.7489916505	-0.8225960138	 0.271956
H	-0.4339558532	-1.3337434269	-1.7414426069	 0.102794
H	 0.922216814	-0.2339116363	-2.0151385438	 0.089227
H	 1.4665361808	-2.8746945242	-1.2595437854	 0.085372
H	 3.3173415524	-2.2400563029	 0.2660573194	 0.120621
H	 2.8208519521	-0.4869264923	 0.224993201	 0.108797
H	 0.4239256879	-3.5567961567	 1.5266332682	 0.277619
H	 0.5094348105	-0.3140208452	 2.0670809311	 0.101593
H	-0.7393757254	-1.4090173362	 1.471369791	 0.103959
