12
gdb 23973	5.93458	0.94964	0.81865	5.3473	80.63	-0.2421	-0.0484	0.1937	1276.0306	0.078671	-394.547656	-394.54022	-394.539276	-394.579747	27.426	
C	 0.0206247354	-1.1955919213	-0.003610567	-0.379135
C	 0.0103693762	 0.0072273307	 0.0028501394	 0.208215
C	-0.0230725673	 1.4223900061	 0.0107585955	 0.135384
C	-1.1486346667	 2.2301732972	 0.0310009992	-0.163019
N	-0.6847293309	 3.5102061796	 0.0310970403	-0.279097
C	 0.6863441576	 3.4444460562	 0.0113018688	 0.257271
N	 1.1134316061	 2.1986850508	-0.001337853	-0.329936
C	 1.4890542668	 4.6147763224	 0.0060332644	 0.229046
N	 2.1034939926	 5.5956844179	 0.0024408171	-0.326982
H	 0.0403732609	-2.2573675142	-0.0094643288	 0.195897
H	-2.1991252023	 1.9941932552	 0.0446888804	 0.160846
H	-1.2382783283	 4.3521633994	 0.0433984538	 0.29151
