18
gdb 50104	3.67498	0.67394	0.59941	4.3638	78.82	-0.2577	-0.0296	0.2281	1772.1629	0.146483	-401.963617	-401.954271	-401.953327	-401.999064	32.906	
O	-0.0812228083	 0.0796444885	-0.6589485619	-0.262532
C	-0.0047955061	 1.1641999507	-0.137369404	 0.1644
C	 1.2605421858	 1.9165967426	 0.0311975829	-0.123872
C	 1.2201450189	 3.4405980177	-0.0112404877	-0.300739
C	 1.5377658017	 2.7567177745	 1.2778863925	-0.005156
C	 0.5952144974	 2.8112075635	 2.4633107673	-0.220477
C	 0.8871864517	 4.0505037671	 3.3381487455	-0.335851
C	-0.0010438749	 4.1405713929	 4.4943075537	 0.257278
N	-0.7140142059	 4.1955794691	 5.40189909	-0.298677
H	-0.9166544116	 1.6818958633	 0.2396006105	 0.069648
H	 2.1159843522	 1.4220412391	-0.4156231315	 0.113981
H	 2.0039082823	 3.9437414264	-0.565110328	 0.134396
H	 0.2380520111	 3.8948556473	-0.1102427559	 0.127997
H	 2.5883173381	 2.7497201175	 1.5598209024	 0.105752
H	-0.4470685141	 2.8513505368	 2.1352345194	 0.127172
H	 0.6982556195	 1.9083472985	 3.0747243951	 0.13457
H	 1.9232870415	 4.0256692216	 3.6956722307	 0.154472
H	 0.7826253006	 4.964390273	 2.742531169	 0.15764
