18
gdb 15997	3.73667	1.48371	1.21644	2.1598	67.98	-0.2247	0.0676	0.2923	1022.5387	0.152847	-384.894491	-384.886284	-384.885339	-384.927555	30.152	
O	-0.0718536002	 1.4161605325	-0.2086816213	-0.422846
C	-0.0351546403	 0.0580760993	 0.2048582856	-0.090163
C	-1.4301495004	-0.5075620747	 0.0206345524	-0.122351
C	-1.8646311437	-0.7445522817	-1.4421085891	-0.07985
O	-1.8909055618	-2.1801470456	-1.2479912515	-0.30921
C	-1.5698620183	-2.0244950472	 0.1345795875	 0.455902
C	-0.7472170886	-3.0358992387	 0.8653895243	-0.340445
C	-2.2268972307	-2.8564151421	 1.1851763324	-0.334434
H	 0.816976559	 1.7770760038	-0.143042899	 0.288939
H	 0.6798713888	-0.5273154357	-0.3945237051	 0.094317
H	 0.269319676	-0.0315966114	 1.26041348	 0.085715
H	-2.1431626063	 0.066632213	 0.6172735223	 0.087557
H	-2.8519576727	-0.3543316074	-1.7123054046	 0.104611
H	-1.13495773	-0.446102648	-2.2027034715	 0.107869
H	-0.4616003042	-3.9230813482	 0.3102730832	 0.125134
H	-0.0136952352	-2.6996495731	 1.5911865591	 0.112369
H	-2.5020294173	-2.3890929686	 2.1256237767	 0.112793
H	-2.9072866741	-3.6288840362	 0.8432149685	 0.124094
