21
gdb 52964	5.21426	0.76253	0.72242	0.2918	95.61	-0.2158	0.049	0.2647	1671.9127	0.181223	-349.913644	-349.90385	-349.902906	-349.949272	35.881	
C	-0.0717032113	 1.5070388227	 0.0216597518	-0.508379
C	-0.0389526346	 0.0520718138	 0.0058857251	 0.244401
C	-0.0134896384	-1.1539707056	-0.0123933788	-0.226308
C	 0.0383400699	-2.576630588	-0.0073018768	 0.243391
C	-0.2946266584	-3.42239929	-1.2165805969	-0.324091
C	-1.1110559563	-3.6152446044	 0.0249882198	-0.117764
C	-0.3593138422	-4.445450919	 1.076167445	 0.039228
C	-0.1062713939	-5.9237169145	 0.8051263942	-0.407112
C	 0.8370019995	-3.4358809185	 0.9945500804	-0.319479
H	 0.7303800708	 1.9132996547	 0.6484060685	 0.146386
H	 0.0552345895	 1.9233094131	-0.9843364043	 0.144774
H	-1.0211641818	 1.8848555643	 0.4185070407	 0.144198
H	-0.7936815585	-2.8899642857	-2.0188271615	 0.120746
H	 0.4103337858	-4.1793599455	-1.5532654324	 0.106031
H	-2.1765329973	-3.4168139483	 0.0313648963	 0.09071
H	-0.8512972548	-4.335620467	 2.0476213762	 0.077386
H	 0.3758566264	-6.081428315	-0.1652001349	 0.114116
H	 0.5454008861	-6.3557654788	 1.5726943763	 0.113995
H	-1.0439057106	-6.4905453248	 0.8067195087	 0.114503
H	 1.7833689885	-3.8315495164	 0.6100871214	 0.092938
H	 1.0270102514	-2.9253466073	 1.9399331711	 0.110331
