22
gdb 122288	4.55039	0.77478	0.74601	2.6247	84.	-0.2251	0.0814	0.3065	1635.5342	0.194079	-404.260303	-404.251083	-404.250139	-404.295509	33.93	
C	 0.0425966866	 1.4997891543	 0.062840425	-0.385332
C	 0.0223497019	-0.0191168505	 0.0394242254	-0.017547
O	 0.71478403	-0.4968560188	 1.1755192731	-0.251175
C	 0.7586548588	-1.9048016913	 1.2547243283	-0.222247
C	 1.5177674115	-2.2850657975	 2.4976765036	 0.321606
C	 1.2065625718	-1.9487714353	 3.9747112547	-0.194519
N	 2.4987326612	-2.7774801181	 4.1040426539	-0.147757
C	 1.848660989	-3.6908188131	 3.0469586067	-0.217996
C	 2.9762996291	-1.9552661278	 2.8919966034	-0.194535
H	 1.0716365846	 1.8696910902	 0.044818471	 0.127044
H	-0.4869046023	 1.9018671636	-0.8060379568	 0.115173
H	-0.4406426719	 1.8756017795	 0.9691090584	 0.127052
H	-1.0156957445	-0.3933421841	 0.042557624	 0.085334
H	 0.4965131544	-0.3992686129	-0.8815718525	 0.085332
H	-0.2615415458	-2.3269028785	 1.2900516171	 0.085175
H	 1.2526452223	-2.3317922599	 0.3637397086	 0.085176
H	 1.3180338894	-0.9111499679	 4.2979198109	 0.106469
H	 0.3373146264	-2.4229729775	 4.4399792452	 0.095141
H	 1.0285011524	-4.2982477074	 3.4410687622	 0.098003
H	 2.5697234582	-4.3038862793	 2.4981624793	 0.098
H	 3.7837623865	-2.435618165	 2.3314597917	 0.095138
H	 3.2188550104	-0.9181265927	 3.1350181168	 0.106464
