22
gdb 91316	2.46392	1.52959	1.20939	1.4896	81.68	-0.2093	0.0539	0.2632	1141.273	0.193651	-404.300034	-404.290847	-404.289903	-404.333738	35.777	
C	 0.2478672362	 1.4455868558	-0.4066349995	-0.442225
C	 0.0326885591	-0.0338349445	-0.0926060051	 0.323403
C	-1.4646119009	-0.3506485013	-0.0350969431	-0.441668
C	 0.8216261878	-1.0453769623	-0.9835645814	-0.222191
N	 1.4524227839	-1.6969479351	 0.2060861764	-0.123002
C	 2.7895157955	-1.112731108	 0.541144266	-0.22053
C	 2.1559535392	-0.2099252178	 1.6364538652	 0.094727
O	 2.3969231085	 1.1783994003	 1.6131315314	-0.424559
C	 0.7780118538	-0.6839869538	 1.1200085285	-0.03771
H	 1.3048840968	 1.7036691009	-0.4713558342	 0.126496
H	-0.2334886016	 1.6923176167	-1.3608230201	 0.100624
H	-0.1966796464	 2.0820445007	 0.3659569081	 0.113294
H	-1.9463069825	-0.1117323424	-0.9902760464	 0.110491
H	-1.6433785758	-1.4103332863	 0.1750592739	 0.11921
H	-1.9600621624	 0.2373972495	 0.7460807697	 0.112402
H	 0.1973322056	-1.7409792001	-1.5550455913	 0.095443
H	 1.546980541	-0.5909643875	-1.6689141087	 0.092427
H	 3.5084734122	-1.8615749905	 0.8890157638	 0.097056
H	 3.2407181873	-0.540072732	-0.2781131409	 0.098673
H	 2.3353564466	-0.6125417831	 2.6428485094	 0.075926
H	 3.2500065335	 1.3428514498	 2.027038419	 0.286593
H	 0.1118529227	-1.0762207488	 1.8955017793	 0.06512
