21
gdb 65219	3.2036	1.24118	1.02719	1.6633	82.56	-0.2356	0.0292	0.2648	1227.5191	0.182725	-387.086627	-387.078019	-387.077075	-387.119914	33.382	
C	 0.0128726257	 1.5195111278	-0.4428600071	-0.459295
C	-0.0112730952	 0.0540177238	-0.0585964372	 0.39772
C	 1.1766897633	-0.7652912323	-0.3423076217	-0.235158
O	 0.9115852313	-0.2998395582	 0.9856985671	-0.271662
C	-1.3933339763	-0.5730097095	 0.0482421809	-0.034288
C	-1.4330765055	-2.0777854644	 0.4274115343	-0.286203
C	-2.702445924	-2.1971601253	 1.2360232276	-0.067747
C	-3.1764076195	-1.0081879341	 1.6011342109	-0.065346
C	-2.3124413552	 0.1224312673	 1.0981816983	-0.268561
H	 1.0398128897	 1.8908396585	-0.4798697436	 0.124203
H	-0.4485729782	 1.6697937623	-1.4251206533	 0.118585
H	-0.5402407798	 2.1237564116	 0.2828828002	 0.129572
H	 1.0837218353	-1.8398111962	-0.4869885385	 0.111769
H	 2.0370615503	-0.3091092648	-0.8312237806	 0.107271
H	-1.874010085	-0.4612162831	-0.9321295525	 0.077466
H	-1.4191858518	-2.7306121924	-0.4526119152	 0.096912
H	-0.5647543506	-2.347455268	 1.0436248787	 0.126116
H	-3.1272447907	-3.1556937105	 1.513280118	 0.090121
H	-4.0486831431	-0.8427024374	 2.2239145951	 0.089846
H	-1.7204942285	 0.5488364133	 1.9210066528	 0.11815
H	-2.8898283122	 0.9482014016	 0.6679218558	 0.100529
