14
gdb 11276	5.28664	1.37848	1.167	5.022	65.28	-0.275	-0.0562	0.2188	993.438	0.107936	-378.74634	-378.738953	-378.738009	-378.778637	25.985	
C	 0.0489417219	 1.5279396337	 0.0341850043	-0.390515
C	-0.0031772839	 0.0018850344	-0.0047909681	 0.010325
C	 0.7798627538	-0.632412056	-1.1903819435	-0.125403
O	 1.7309378308	-1.5278491934	-0.5580377884	-0.251896
C	 1.5283366952	-1.3682197278	 0.7711397285	 0.322001
N	 0.6281759478	-0.5823231241	 1.1972112659	-0.302603
C	 2.3930395282	-2.1432408964	 1.6184000396	 0.28597
N	 3.088888571	-2.7664561848	 2.2974355644	-0.310949
H	 1.0856171677	 1.8785460665	 0.0581870473	 0.128367
H	-0.4387432922	 1.9499371841	-0.850467735	 0.12263
H	-0.4607936397	 1.9036164388	 0.9244288147	 0.142372
H	-1.0512882824	-0.3186950145	-0.0133132024	 0.107182
H	 0.1593184141	-1.2252496649	-1.8654781018	 0.133648
H	 1.3459122978	 0.1029774245	-1.7697743053	 0.128872
