18
gdb 8520	4.05513	1.96114	1.65707	1.4924	71.7	-0.2225	0.0911	0.3136	857.0134	0.152715	-347.755177	-347.747798	-347.746854	-347.786128	29.309	
C	 0.0103999429	 1.3980834925	-0.0851206808	-0.506195
C	-0.0123232334	-0.088802361	 0.0100788227	 0.489877
O	 0.9110963885	-0.8518896089	-0.7731095455	-0.361297
C	 0.1090290824	-2.0301244587	-0.439794477	 0.427807
C	 0.1666972511	-3.1178892576	-1.4653355234	-0.505535
C	 0.4227968583	-2.2327528525	 1.0708523212	-0.26549
C	-0.3261802423	-0.9178489486	 1.2719939019	-0.159338
C	-1.1042757281	-1.1020149052	-0.0323717055	-0.258195
H	 0.969866447	 1.7947839375	 0.2638501346	 0.131767
H	-0.1408348106	 1.7268255995	-1.1181894888	 0.129248
H	-0.7817000218	 1.8296235853	 0.5341913257	 0.12421
H	 1.1949691189	-3.4816731445	-1.5684907535	 0.13205
H	-0.468151295	-3.9590874321	-1.1709955278	 0.121121
H	-0.1656662649	-2.7510650731	-2.4406739132	 0.129699
H	-0.1303707684	-3.0785458325	 1.4889559525	 0.097651
H	 1.4825857185	-2.2926859078	 1.3401144737	 0.094912
H	-0.6719402258	-0.4660809469	 2.1934374244	 0.085615
H	-2.1568584472	-1.0718837354	-0.2799037311	 0.092093
