20
gdb 7181	2.73288	1.12512	0.84256	4.028	73.31	-0.2742	0.0106	0.2847	1394.2675	0.174387	-386.179251	-386.16935	-386.168406	-386.215039	34.179	
C	-0.0202400333	 1.507821243	 0.0709851049	-0.381866
C	 0.0203411537	-0.021043603	 0.006862082	-0.179512
C	 0.7307431487	-0.5428025235	-1.2464278583	-0.164036
C	 0.7832305849	-2.0659499314	-1.3456734378	 0.104655
C	 1.4275961298	-2.5653626576	-2.6343658158	-0.394434
O	 1.5564320235	-2.5528153547	-0.2234473464	-0.187705
C	 1.1010506567	-3.6183114133	 0.4554515817	 0.170947
O	 1.6993549585	-4.1168007114	 1.3618887125	-0.279971
H	 0.9906378375	 1.9298633882	 0.0802015334	 0.118908
H	-0.5467468603	 1.9294735055	-0.7925676763	 0.113027
H	-0.5322106111	 1.8529246264	 0.9742391462	 0.116659
H	 0.5268891491	-0.4146448493	 0.8947399006	 0.120259
H	-1.0041715106	-0.4167832301	 0.0337462561	 0.091917
H	 0.2253754952	-0.1657847555	-2.1448188108	 0.098812
H	 1.7579420538	-0.157869844	-1.2811541011	 0.110847
H	-0.2359483204	-2.4704935187	-1.2600802328	 0.085282
H	 2.4562361623	-2.2011177771	-2.7124457653	 0.136015
H	 1.449373336	-3.6586970094	-2.6625766955	 0.124274
H	 0.8663289169	-2.2106851105	-3.5041555386	 0.122633
H	 0.116408189	-3.9729218435	 0.0900398414	 0.073288
