18
gdb 85196	2.62401	1.2011	0.88565	2.946	78.88	-0.2584	0.0239	0.2823	1308.0022	0.14582	-401.918005	-401.908727	-401.907782	-401.952605	33.955	
C	-0.3065058609	 1.5068692708	-0.0621288158	-0.402982
C	 0.0982580246	 0.0493014198	-0.0210984143	 0.116236
O	 1.3207116235	-0.1994835824	-0.7978449453	-0.269722
C	 1.98088127	-0.6983396763	 0.3066346128	 0.433774
N	 3.1567766938	-1.1117656924	 0.4341420555	-0.533766
C	 0.7945216279	-0.5393142155	 1.2396007117	-0.151374
C	 0.9761545822	 0.3458239473	 2.4839899137	-0.382948
C	 1.6343534765	-0.3545034727	 3.5795250563	 0.306065
C	 2.1577693245	-0.9446683588	 4.4851990969	-0.421452
H	 0.4963421665	 2.1591853964	 0.2911937549	 0.130644
H	-0.5516046452	 1.7956076563	-1.0882972618	 0.134608
H	-1.1937527979	 1.6753120178	 0.557202026	 0.126547
H	-0.7048784824	-0.5872780247	-0.405630676	 0.096074
H	 3.668209928	-1.0516289035	-0.4483642686	 0.227058
H	 0.3744762569	-1.5024476646	 1.5386629511	 0.119259
H	 1.5486912525	 1.2440511757	 2.2268266272	 0.140154
H	-0.0112605298	 0.6913100908	 2.8173806776	 0.133759
H	 2.6381124993	-1.462712234	 5.2777408982	 0.198067
