20
gdb 36504	3.72577	0.96168	0.80942	4.0558	84.5	-0.2479	0.0198	0.2677	1410.85	0.172939	-366.054122	-366.045617	-366.044673	-366.087634	32.274	
N	-0.119344984	-1.172451941	 0.094953375	-0.315109
C	-0.0899778262	-0.0179112668	 0.049692508	 0.265265
C	-0.0278507835	 1.4415656859	-0.0112258844	-0.363803
C	 1.4150616278	 1.9906503287	 0.0065675394	 0.022631
C	 1.4127811699	 3.5199241813	-0.1321511634	-0.208946
C	 2.8431813792	 4.0665888295	-0.2474122093	-0.267626
C	 3.775271649	 3.426466505	 0.7481215208	-0.038335
C	 3.4723031842	 2.3255805456	 1.4341793413	-0.063364
C	 2.1764077868	 1.5731811156	 1.275565074	-0.248752
H	-0.5438352382	 1.7693639531	-0.9211966502	 0.147842
H	-0.5939046845	 1.8484250108	 0.8361172885	 0.147952
H	 1.9424090805	 1.5695267088	-0.8593913161	 0.096157
H	 0.8198720205	 3.8263355407	-1.0018486932	 0.093859
H	 0.9268188769	 3.9554309494	 0.7514781231	 0.101934
H	 3.2267515294	 3.9076946556	-1.2662933455	 0.11155
H	 2.8379563283	 5.1547119141	-0.1068879808	 0.106894
H	 4.7396368246	 3.906143495	 0.8970517429	 0.087115
H	 4.1825566856	 1.9236188117	 2.1524613421	 0.089442
H	 1.5420770934	 1.7391353999	 2.1610012638	 0.106735
H	 2.3695240105	 0.493985087	 1.2562965539	 0.12856
