17
gdb 75739	2.50748	1.57102	1.20954	2.161	70.36	-0.2526	-0.0588	0.1938	1050.1338	0.134319	-458.992347	-458.983645	-458.982701	-459.025245	33.293	
C	 0.1523344404	 1.5284968306	-0.0729193641	-0.425884
C	-0.0449543558	 0.0073632193	-0.0300740288	 0.292281
O	-1.420734883	-0.3281094951	-0.1523762219	-0.47603
C	 0.6872063746	-0.6813009678	-1.1660340433	-0.054088
C	 1.8287235758	-1.2729060353	-0.7896965702	-0.196891
C	 1.9988273264	-1.0890050293	 0.6642881875	 0.341325
O	 2.993764963	-1.180299235	 1.3500634813	-0.350736
C	 0.6431764889	-0.6334112714	 1.2115642974	-0.017975
O	 0.7781862775	 0.1843607087	 2.3394014399	-0.442429
H	 1.2107702533	 1.7959722867	-0.0245294766	 0.129441
H	-0.276676201	 1.9347726802	-0.9928067312	 0.121975
H	-0.3405471774	 1.9873544029	 0.7895815766	 0.132969
H	-1.9103855272	 0.1930276108	 0.493238856	 0.286906
H	 0.2857105446	-0.6433009995	-2.1730016894	 0.129037
H	 2.5535782389	-1.7658158335	-1.4245517797	 0.127776
H	 0.057041737	-1.5384129026	 1.4423286407	 0.107672
H	 1.6744842641	 0.0210524303	 2.6715622256	 0.29465
