20
gdb 113043	3.19154	0.86343	0.74692	5.3476	80.23	-0.2613	0.0306	0.2919	1562.0469	0.170159	-403.157218	-403.147672	-403.146727	-403.192825	34.195	
C	-0.1160693984	 1.4161727699	 0.492019119	-0.382492
C	-0.0521139799	-0.0798858643	 0.1706457144	-0.190464
C	-1.4033381601	-0.6458221152	-0.2231747531	 0.178109
C	-1.5773143155	-2.1788696665	-0.3085524262	-0.348117
C	-2.7131838654	-1.9613483013	 0.7108454431	 0.166224
C	-2.6191840766	-2.7271567977	 2.0345030272	-0.355931
C	-3.6456903006	-2.3255045731	 2.9939388335	 0.26663
N	-4.4669639237	-2.0130729593	 3.7439434291	-0.301625
O	-2.3781004446	-0.5710592323	 0.8555271538	-0.304488
H	 0.8599723531	 1.793935744	 0.8095081009	 0.115107
H	-0.431586754	 1.9954443503	-0.3825649116	 0.116166
H	-0.8336817795	 1.603618208	 1.2956591192	 0.142771
H	 0.6497855673	-0.2666996127	-0.6532444265	 0.099334
H	 0.3222531857	-0.6352571163	 1.0397156191	 0.094765
H	-1.7889694436	-0.1210534014	-1.1090870162	 0.078331
H	-1.8651438006	-2.591246726	-1.2759569124	 0.116751
H	-0.7259605166	-2.7403449486	 0.0860957654	 0.109372
H	-3.7197616138	-2.0834589234	 0.2895942662	 0.095358
H	-2.7219781348	-3.8013596986	 1.8378325916	 0.151837
H	-1.6313180886	-2.5641173455	 2.4783422236	 0.152362
