19
gdb 105010	2.00456	1.37478	1.24421	2.8593	75.63	-0.2368	0.0104	0.2471	1159.6937	0.157857	-419.184767	-419.174879	-419.173935	-419.219741	36.017	
C	-1.5809158165	-0.8045717674	-0.4662201174	-0.34442
N	-0.2030536658	-0.4942892225	-0.1037833615	-0.335822
C	 0.8087422757	-0.6964712141	-1.102224285	 0.323243
C	 2.1843725076	-1.0245073166	-0.570336856	-0.301492
C	 1.3555095033	-2.0963873204	-1.2313321242	-0.294947
C	 0.7535961769	 0.1148752762	-2.4061649945	-0.08781
O	-0.213267818	-0.3336535402	-3.3403331525	-0.410662
C	 0.5630891254	 1.5478864099	-2.0890423417	 0.255857
N	 0.3778316053	 2.6520238053	-1.8015043179	-0.326524
H	-2.0584803385	-0.0894169668	-1.1607418507	 0.096869
H	-1.6198231969	-1.8002101589	-0.918340456	 0.135353
H	-2.1987091179	-0.8211957589	 0.4371155664	 0.129838
H	-0.1346698889	 0.4368301148	 0.2931020753	 0.235182
H	 3.0509690382	-0.6388955286	-1.0962346604	 0.118683
H	 2.2806781808	-1.0584224924	 0.5077768996	 0.127354
H	 0.9089566979	-2.8486100489	-0.5926062692	 0.126265
H	 1.6407644485	-2.4430304681	-2.21805696	 0.126022
H	 1.7120467952	 0.0142074028	-2.9260806392	 0.132341
H	-1.0872273724	-0.2371125453	-2.9481606948	 0.294671
