20
gdb 100198	2.33309	1.29268	1.06284	3.6033	74.95	-0.248	-0.0319	0.2162	1232.8695	0.168076	-440.263139	-440.252912	-440.251968	-440.298508	36.781	
C	-0.1699729115	 1.680895597	 0.0597147446	-0.39964
C	-0.0321410928	 0.1548129569	 0.0622546096	-0.221456
C	 0.5855327359	-0.4300333638	-1.2189919638	 0.208931
O	-0.0896926173	-0.0090620868	-2.4027588895	-0.468353
C	 2.0285610713	 0.0561210379	-1.4005390445	 0.15922
O	 2.8313876294	 0.1045474075	-0.5064868693	-0.260357
C	 0.645443762	-1.9617051439	-1.1354786511	 0.009335
C	-0.5057404223	-2.7923153767	-1.5589242028	-0.256968
N	 0.7296257631	-2.7623253334	-2.3627325751	-0.328094
H	 0.8090686839	 2.1657715562	 0.0065979518	 0.137451
H	-0.7626725204	 2.0317524959	-0.7903346454	 0.114614
H	-0.6609191686	 2.0211624559	 0.9756972788	 0.120109
H	 0.5987246929	-0.1599932114	 0.8993146998	 0.130354
H	-1.0120109642	-0.3176339748	 0.2106545383	 0.095641
H	-1.0354592541	 0.005039484	-2.2255761709	 0.292557
H	 2.2786783015	 0.3428836596	-2.4447583952	 0.09762
H	 1.2808811209	-2.315864733	-0.3271475661	 0.110385
H	-0.7098330777	-3.7317950916	-1.0537166678	 0.124631
H	-1.3861802549	-2.2940836297	-1.9571155225	 0.094646
H	 0.5699652231	-2.1387453858	-3.1530713888	 0.239375
