18
gdb 52166	4.59563	0.86477	0.82386	2.5848	73.	-0.2432	0.0317	0.2749	1403.2586	0.148003	-439.05745	-439.048885	-439.047941	-439.0936	30.726	
O	 0.0954468843	 1.2891040935	 1.1855395695	-0.329646
C	 0.146427874	 1.5526427501	 0.001601824	 0.153482
N	 1.1860001239	 1.2505640295	-0.8181183348	-0.264175
C	 2.406355529	 0.620957606	-0.329696275	-0.202209
C	 3.4200315947	 1.6307059579	 0.1694501881	-0.033396
C	 4.9165277058	 1.3849339426	 0.2628908106	-0.154278
C	 5.4153322571	 0.643185266	-0.9729871509	-0.095018
O	 4.7370487747	 1.5752679246	-1.859651274	-0.287946
C	 4.3512647217	 2.3758206582	-0.7347386971	 0.077011
H	-0.674244901	 2.063196077	-0.5413033557	 0.073654
H	 1.1684297663	 1.5968254655	-1.76411979	 0.253664
H	 2.1183572245	-0.0512110258	 0.4820093208	 0.14214
H	 2.8263016017	 0.0260977781	-1.1431266254	 0.119069
H	 3.0588640842	 2.2361385337	 0.997810093	 0.113784
H	 5.4806450795	 1.5426726501	 1.1718409243	 0.104857
H	 6.5002774846	 0.7178065038	-1.1054185281	 0.114834
H	 5.0981813053	-0.3945518746	-1.1294708776	 0.108521
H	 4.4283946696	 3.4527463537	-0.8324428117	 0.105653
