16
gdb 34708	3.21397	1.6373	1.4497	1.2307	77.	-0.2204	-0.0036	0.2168	933.4806	0.125451	-363.530788	-363.523935	-363.522991	-363.561891	27.868	
C	-0.0529305899	-1.2913650382	-0.058362128	-0.442633
C	-0.009883851	-0.0917207656	 0.0136103324	 0.309219
C	 0.0367943929	 1.3548622523	 0.0899932311	-0.182368
C	-0.1814236829	 2.0968363836	 1.4047577854	-0.071818
C	 1.0561588993	 2.2546910103	 2.2510293447	-0.070523
C	 2.2340168016	 1.3784599601	 2.0097876986	-0.066216
C	 2.489598076	 1.369774792	 0.7009391822	-0.081301
C	 1.4062872073	 2.156870389	 0.0163184471	-0.081711
N	 0.8609401678	 3.1277109654	 1.0695616932	-0.137007
H	-0.0913356735	-2.3508762977	-0.1175617486	 0.194794
H	-0.639057443	 1.792878241	-0.6506901982	 0.121702
H	-1.1600063735	 2.3666228851	 1.790703481	 0.102354
H	 0.9141553499	 2.7419352775	 3.2109375537	 0.097016
H	 2.7514741364	 0.836171772	 2.789542348	 0.110134
H	 3.2326669578	 0.7817065897	 0.179402856	 0.111837
H	 1.6407518347	 2.6169293736	-0.9417748686	 0.086521
