12
gdb 53722	3.54666	0.68916	0.6484	3.7533	74.59	-0.2949	-0.1255	0.1694	1670.6324	0.073926	-435.479548	-435.470149	-435.469205	-435.515981	30.366	
C	 0.6789586561	 1.2243124393	 0.2564444414	-0.486929
C	-0.2686746927	 0.0853925345	-0.0271285909	 0.261135
O	-1.1697234183	-0.2574592917	 0.7019389011	-0.249975
C	-0.0435675587	-0.6256398895	-1.2852206832	 0.030754
C	 0.1235719203	-1.2302600152	-2.3195342634	 0.072004
C	 0.3304374877	-1.9578330683	-3.5418220235	 0.201607
O	 1.0620026239	-2.9124298962	-3.6542008751	-0.236729
C	-0.4334957222	-1.4346788462	-4.6872456298	 0.231694
N	-1.0269579772	-1.0244830183	-5.5906676709	-0.305854
H	 1.7107166799	 0.8569033485	 0.2809953399	 0.161615
H	 0.6216241678	 1.9693059503	-0.5447042301	 0.161017
H	 0.4198499933	 1.6805993928	 1.2126038146	 0.15966
