19
gdb 106176	2.74985	1.58903	1.41197	1.2758	74.17	-0.2174	0.0845	0.3019	1015.5492	0.159931	-422.977213	-422.969433	-422.968489	-423.009613	30.164	
C	 0.0906543526	 1.3367434064	-0.1970577456	-0.26197
O	-0.0162890243	-0.0220146096	 0.2013900858	-0.286237
C	-1.2864741998	-0.5308972081	 0.1088486032	 0.39354
C	-1.7341455098	-1.9692550244	-0.0829472206	-0.176395
C	-2.7137033303	-1.85672288	 1.0852333036	-0.2282
C	-2.5067606363	-0.3051407648	 1.0668172458	-0.148863
C	-3.5389478481	 0.3453473822	 0.1475246551	-0.082858
O	-3.3717341013	-0.3278355922	-1.1115731409	-0.268299
C	-2.0713773732	-0.8752413862	-1.106853361	 0.018821
H	 1.1460105323	 1.6070952639	-0.1214493531	 0.130083
H	-0.2483890417	 1.4781746747	-1.2321305	 0.117415
H	-0.4926069922	 1.9986218537	 0.4579953395	 0.113524
H	-1.1479946109	-2.8360466476	-0.3659732969	 0.090529
H	-3.7366538084	-2.2093591919	 0.9178753539	 0.10101
H	-2.3144498579	-2.3113743445	 1.9946968265	 0.106783
H	-2.3422237046	 0.1931864927	 2.0212345381	 0.079832
H	-4.5735383837	 0.1965899167	 0.4737076916	 0.107886
H	-3.3571770616	 1.4258497295	 0.03141799	 0.087962
H	-1.6096811408	-0.9381981006	-2.0847167749	 0.105437
