23
gdb 88152	2.25696	1.43876	1.10061	1.3539	85.68	-0.2462	0.071	0.3172	1236.6109	0.206262	-388.295545	-388.286163	-388.285219	-388.329893	36.323	
C	-0.1230732972	 1.5420860631	 0.1248788305	-0.414794
C	-0.0658321171	 0.0315044339	 0.1390852995	-0.023575
C	 1.1800652487	-0.7011789925	-0.2906623503	-0.356666
C	 0.7617556002	-0.7222110773	 1.1588576199	 0.352397
C	 1.5541614762	 0.0071430427	 2.2560683993	-0.289157
C	 1.5433941867	-0.9534624071	 3.4682826936	-0.214513
C	 0.2464290692	-1.7533342753	 3.2880635042	-0.240158
C	 0.2169969574	-2.019848619	 1.7746567219	 0.060693
O	-1.0631325362	-2.3358688898	 1.2490837265	-0.438976
H	 0.84883965	 1.9892387283	 0.3569650157	 0.11207
H	-0.4245805005	 1.9083863702	-0.8627688759	 0.114167
H	-0.8470876853	 1.9256898461	 0.8534927858	 0.113541
H	-0.9978701434	-0.4575832453	-0.1233854553	 0.104178
H	 1.0649737563	-1.6150388041	-0.866526494	 0.10432
H	 2.0538620651	-0.111265495	-0.554770137	 0.097162
H	 2.5710116334	 0.2640851148	 1.9444206058	 0.094309
H	 1.0599470744	 0.9473175747	 2.526716252	 0.10188
H	 2.4052721371	-1.630151193	 3.423685375	 0.098516
H	 1.5975474767	-0.4280561528	 4.4254444743	 0.09596
H	 0.2073699103	-2.6688205062	 3.887377778	 0.081919
H	-0.6266506892	-1.1415943465	 3.5461061311	 0.104402
H	 0.9190639747	-2.8400634355	 1.5461184434	 0.060404
H	-1.2946390976	-3.2203266746	 1.5473873059	 0.281921
