19
gdb 67281	2.97042	1.88085	1.71453	1.13	77.21	-0.2247	0.0724	0.2971	889.2282	0.161432	-385.821778	-385.815237	-385.814293	-385.852096	28.536	
O	-0.095742029	 1.4244543003	 0.0055828489	-0.48697
C	 0.0001286528	 0.0465342983	 0.0017120268	 0.431309
C	 0.7447600927	-0.8672273028	-1.0547139014	-0.128467
C	 1.7397218824	-1.2917757201	 0.0492948314	-0.245179
C	 0.677763005	-0.8779600151	 1.0933364619	-0.128444
C	-0.602251422	-1.8060487134	 1.0428131326	-0.033241
C	-0.483548386	-2.9151996869	-0.0281648675	-0.238116
C	-0.5356285618	-1.7953767773	-1.0933312095	-0.033237
C	-1.2423825457	-0.8637430863	-0.0415812647	-0.097484
H	 0.7922241752	 1.7987518339	 0.0345107617	 0.279916
H	 1.1112498116	-0.5145222194	-2.0197575905	 0.060803
H	 2.117076576	-2.3184576463	 0.0559278316	 0.095303
H	 2.5954996028	-0.6083884048	 0.0794024228	 0.08632
H	 0.9832945592	-0.5350196299	 2.0828121666	 0.06081
H	-1.0672065224	-2.0266197088	 2.0038179015	 0.062017
H	 0.3698106319	-3.6004514973	-0.0049745731	 0.091055
H	-1.404997346	-3.5050796553	-0.0598532288	 0.096807
H	-0.9397187555	-2.0061974715	-2.0835994674	 0.062017
H	-2.2838136012	-0.5493203672	-0.0724941729	 0.064783
