16
gdb 65058	2.34643	1.50908	1.25656	2.6084	68.88	-0.2861	-0.0041	0.282	1056.3859	0.121801	-437.850183	-437.841458	-437.840513	-437.883813	31.717	
C	 0.0455506543	 0.9610313473	-1.2885673513	-0.48045
C	-0.0253021267	 0.0457859956	-0.0896043691	 0.306149
C	 1.1714832513	-0.6001888441	 0.4690249054	-0.214005
O	 0.5717195185	 0.5315189431	 1.1106458179	-0.266187
C	-1.3621966761	-0.6358568896	 0.1187273423	 0.217528
C	-1.9713963691	-0.7313903022	 1.4592532321	-0.207833
O	-2.4422000844	 0.218780452	 0.5040351697	-0.261652
C	-1.6957067397	-1.6362077844	-0.8823488423	 0.258094
N	-1.917549105	-2.4315516731	-1.6910240671	-0.3283
H	 1.0326310016	 1.4235162899	-1.3520410014	 0.135133
H	-0.1459368892	 0.4064038896	-2.212462495	 0.147489
H	-0.7072750135	 1.74975095	-1.1998007939	 0.151325
H	 1.0818315771	-1.5426095638	 1.0067688385	 0.122829
H	 2.1383106895	-0.415803039	 0.0048379394	 0.129029
H	-2.6510091173	-1.5528497913	 1.6752367596	 0.138114
H	-1.4098968815	-0.31634908	 2.2912641554	 0.152737
