25
gdb 59534	2.4947	1.15783	1.057	0.197	92.46	-0.2448	0.0785	0.3233	1351.6746	0.228601	-352.335558	-352.325644	-352.3247	-352.369921	38.484	
C	-0.1913512501	 1.6840702142	 0.009804546	-0.388316
C	-0.0121522952	 0.159928006	 0.0555338259	 0.012261
C	 0.6301344918	-0.2808349774	 1.3780705878	-0.388095
C	-1.3567971768	-0.545723613	-0.1525753043	 0.06875
C	-2.1300935083	-0.4521726731	-1.513684527	-0.283432
C	-2.3097507834	-1.9779728868	-1.4994566663	-0.078859
C	-0.9914160257	-2.6985615583	-1.5202959471	 0.019113
C	 0.2124031502	-2.3280804083	-2.3636421083	-0.419375
C	-1.4556547175	-2.0799007907	-0.2228642278	-0.114537
H	 0.7675955441	 2.2002113764	 0.1247788084	 0.106995
H	-0.6348383043	 2.0090296478	-0.9371361575	 0.112481
H	-0.8496864732	 2.0239387141	 0.8189021518	 0.108369
H	 0.6678866386	-0.1230524318	-0.7566921195	 0.070473
H	-0.0060034461	-0.0131159525	 2.2309148433	 0.107265
H	 0.7847079735	-1.364157061	 1.4043414833	 0.115609
H	 1.6020373342	 0.2014045031	 1.5269511749	 0.106419
H	-2.0336618828	-0.2032258569	 0.6410355907	 0.066801
H	-3.0701382648	 0.0968115786	-1.4299712068	 0.099725
H	-1.5758973053	-0.0442965786	-2.366052437	 0.092756
H	-3.2407136824	-2.4836213463	-1.7282377428	 0.079327
H	-1.1412924857	-3.7773496595	-1.481354001	 0.08215
H	 0.2802406828	-1.2563193591	-2.5593076236	 0.122674
H	 1.146643865	-2.6377127078	-1.8819698111	 0.114664
H	 0.1594794423	-2.8313957536	-3.3358785564	 0.110563
H	-1.6276736607	-2.7090673754	 0.6439968846	 0.076219
