15
gdb 66988	2.53809	2.06964	1.56183	2.8797	62.91	-0.2298	-0.0302	0.1996	877.5136	0.112934	-457.754354	-457.747369	-457.746425	-457.785777	26.914	
C	-0.0170239458	 1.5213417319	 0.0151641203	-0.503767
C	-0.0267203557	 0.0222639668	-0.0043790958	 0.065946
C	 1.1380969734	-0.9018201293	-0.394908567	 0.011025
O	 0.6218384201	-2.086564338	-0.9972898336	-0.249143
C	-0.5611880653	-2.2084726382	-0.2171891027	-0.016826
O	-0.1310009007	-2.1096385283	 1.1348877291	-0.249154
C	 0.6409177475	-0.9170156972	 1.0130851808	 0.010987
C	-1.2066380177	-0.8086382615	-0.4298454754	 0.466707
O	-2.2968149077	-0.4929976096	-0.8119482541	-0.326919
H	 0.9459281839	 1.9117767832	 0.3586976568	 0.122375
H	-0.2067153851	 1.9238099246	-0.984764802	 0.142163
H	-0.7943479739	 1.9059073563	 0.6827716623	 0.142136
H	 2.1035725102	-0.5788702863	-0.7550467943	 0.131193
H	-1.1123182285	-3.1197808901	-0.4216519162	 0.122093
H	 1.1640402952	-0.6075955243	 1.9056885119	 0.131184
