23
gdb 120474	3.51772	0.76642	0.69329	2.6031	82.18	-0.2521	0.0725	0.3245	1681.0253	0.204305	-425.409386	-425.398811	-425.397866	-425.445241	38.752	
C	-0.1100908493	 1.5506315254	-0.1258394427	-0.386415
C	-0.0164452954	 0.0281833943	-0.046386609	-0.051082
C	 1.1427344762	-0.5780592349	-0.8835879948	 0.141374
O	 1.5710740284	 0.22637933	-1.958495301	-0.431091
C	 2.008358201	-0.6556799437	 0.4008551465	-0.286143
C	 0.6926149235	-0.5505244956	 1.2267494184	 0.028382
C	 0.6854818984	 0.2372993126	 2.5303197461	-0.196055
C	 1.4771393617	-0.4490905781	 3.6369904681	-0.073363
O	 1.40435825	 0.3656896887	 4.798032362	-0.421527
H	 0.8520614369	 2.0372930002	 0.0566791859	 0.11917
H	-0.4407640098	 1.8564910617	-1.1221092551	 0.123462
H	-0.8283736357	 1.9337083898	 0.6059669739	 0.109755
H	-1.0011549812	-0.4020977361	-0.2541164709	 0.06344
H	 0.8778261191	-1.5876658051	-1.2308289553	 0.061955
H	 2.3189982035	-0.2071530552	-2.3810498655	 0.281698
H	 2.6458840727	-1.5325994494	 0.5429006369	 0.086798
H	 2.6167660696	 0.248675315	 0.5029374281	 0.104225
H	 0.3038135777	-1.5585058633	 1.4171712345	 0.065955
H	 1.103478362	 1.2387910724	 2.3795594448	 0.104957
H	-0.3447763101	 0.3773913198	 2.8815700227	 0.103127
H	 1.0576951613	-1.4512624901	 3.8272323097	 0.080614
H	 2.5221626085	-0.5911565285	 3.3164813816	 0.086895
H	 1.9204980811	-0.05352776	 5.4925375152	 0.283871
