16
gdb 71457	3.99591	1.4252	1.25429	4.0253	67.72	-0.2405	-0.0119	0.2286	982.2736	0.124941	-437.85658	-437.849504	-437.84856	-437.88791	28.292	
O	-0.1618691705	 1.4218320291	-0.0273103059	-0.456068
C	-0.041645643	 0.0498978028	-0.0369653605	 0.364704
C	 0.6250232613	-0.774871539	-1.1332375765	-0.262544
N	-0.3675235935	-1.9033702487	-0.8397084399	-0.169043
C	-1.1538028166	-0.9561660064	 0.0057004957	-0.099528
C	-0.2781770027	-0.7988313561	 1.2246307657	-0.130939
C	 0.4761111043	-2.0902489802	 1.4431370699	-0.362991
C	 0.338261607	-2.7923835056	 0.0753071104	 0.388465
O	 0.7899251567	-3.8540448318	-0.2358388794	-0.299404
H	 0.5726397499	 1.794406267	 0.4729126886	 0.292311
H	 0.4345725482	-0.3735233913	-2.1311796994	 0.134881
H	 1.6828443921	-1.0483627681	-1.0419679941	 0.114587
H	-2.2307339115	-0.8865336699	-0.0639860538	 0.111255
H	-0.6753629335	-0.2330413587	 2.0596750393	 0.103209
H	 1.5406784319	-1.9882002546	 1.6780581587	 0.13306
H	 0.02856898	-2.7002626384	 2.2353138413	 0.138045
