17
gdb 105766	2.26765	1.48524	1.18356	4.0536	68.42	-0.251	0.0157	0.2668	1100.6788	0.13668	-455.13885	-455.130082	-455.129138	-455.172876	31.526	
N	 0.0965964228	 1.4425494468	-0.0292835335	-0.50321
C	 0.0913023956	-0.0097845247	 0.0103698422	-0.19549
C	 0.7933467013	-0.50316801	 1.2820661209	 0.214184
C	 0.984534582	-2.0558964432	 1.3028078337	-0.173341
O	 2.3422049398	-2.2253040146	 0.9406191682	-0.22617
C	 2.9920845764	-1.1133465115	 1.4942648785	 0.011011
O	 2.1364736808	-0.0053588126	 1.2718252327	-0.279531
C	 0.0963540468	-0.0405457547	 2.4978062862	 0.289033
N	-0.4569987655	 0.2597301634	 3.466317346	-0.337783
H	 1.0513115872	 1.7768179863	-0.1106481065	 0.244055
H	-0.4158791297	 1.7800786375	-0.8360706482	 0.236654
H	-0.9463662117	-0.3620137279	 0.0262440738	 0.120705
H	 0.6029276267	-0.5078134198	-0.8311948553	 0.100887
H	 0.7803058914	-2.4603853748	 2.3022298008	 0.126675
H	 0.3588939852	-2.564224029	 0.5666400764	 0.134777
H	 3.1638475622	-1.2497525014	 2.5757681212	 0.104707
H	 3.9363082986	-0.9463039697	 0.9711664431	 0.132836
