16
gdb 54226	2.30696	1.48871	1.33235	1.8615	66.31	-0.2524	-0.0367	0.2157	1044.8867	0.121551	-475.030902	-475.021672	-475.020728	-475.065329	32.761	
C	-0.2492704758	 1.5171307217	-0.0030893105	-0.490357
C	-0.002790123	 0.0316354037	 0.0944062651	 0.357002
O	 0.1057406868	-0.5667304414	 1.1373702524	-0.295227
C	 0.0615423714	-0.7201426787	-1.2545674204	 0.162794
O	 0.6951228164	 0.0542111306	-2.2391177136	-0.472325
C	 0.4524352653	-2.2097302733	-1.1226330063	-0.120839
O	-0.9465203686	-2.5954519625	-1.3918549568	-0.250501
C	-1.2932818569	-1.3009666114	-1.643904732	 0.370382
N	-2.3230597224	-0.7631177778	-2.1165597147	-0.54673
H	 0.5861116226	 2.0002545139	-0.5174131399	 0.159147
H	-1.1441097561	 1.7006747457	-0.6086958979	 0.160487
H	-0.3752234739	 1.9339293225	 0.9962463966	 0.141682
H	 0.0558562428	 0.2199148615	-2.9421754947	 0.303033
H	 1.111546907	-2.568242478	-1.9141611994	 0.129676
H	 0.7598276337	-2.5327776432	-0.1297099075	 0.151501
H	-3.0467430392	-1.4438860433	-2.3517703103	 0.240276
