16
gdb 49099	1.95089	1.61586	0.90176	4.0254	81.29	-0.2687	-0.0956	0.1731	1227.0466	0.124847	-400.798597	-400.790313	-400.789369	-400.83197	29.694	
O	-0.021727538	-0.0487750238	-0.0150135626	-0.253255
C	-0.0017535396	 1.1609358564	 0.0334337198	 0.050373
C	 1.2476671908	 1.9369168981	 0.0489418603	 0.147869
C	 1.3308644142	 3.2846801508	 0.0670818268	 0.133957
C	 2.7696622406	 3.7631531448	 0.0343963702	-0.313459
C	 3.5673037116	 2.4725429085	 0.3491705397	-0.226223
C	 2.6145856669	 1.3019110308	 0.0025018364	-0.305231
C	 0.2322328281	 4.1858603633	 0.0717951019	 0.212193
N	-0.6356938529	 4.9537823789	 0.0786894832	-0.332409
H	-0.9355573511	 1.7582149574	 0.0711715678	 0.102983
H	 2.9976333515	 4.1637148015	-0.9622520684	 0.137461
H	 2.9539449456	 4.5740394921	 0.7450210594	 0.135591
H	 4.5121761824	 2.4251407769	-0.1955115129	 0.11672
H	 3.8047711169	 2.4465461247	 1.4167091419	 0.122192
H	 2.6941353005	 0.4539235037	 0.6876845837	 0.137816
H	 2.7969794624	 0.8994183159	-1.0025299073	 0.133421
