17
gdb 50723	2.82664	1.48008	1.04633	6.2459	72.31	-0.2452	-0.0058	0.2394	1120.975	0.137569	-455.176564	-455.168514	-455.16757	-455.209801	29.596	
N	 0.0116587617	 1.3351833401	 0.1451338374	-0.487694
C	 0.0265547259	 0.088925166	-0.0443699343	 0.432118
O	 1.1945711424	-0.611671724	-0.1862114526	-0.261839
C	 1.2409852458	-1.824300247	-0.9465500438	-0.07229
C	 0.0437033587	-2.7165430819	-0.6638685002	-0.216877
C	-1.2147915143	-1.8828359183	-0.8762928027	-0.185161
N	-1.157591533	-0.6817306602	-0.0423143099	-0.128248
C	-2.2612004341	-0.3583061201	 0.7460423137	 0.164544
O	-2.3599284108	 0.5381675692	 1.5359695199	-0.276654
H	 0.9697482487	 1.6848065496	 0.1562326208	 0.229711
H	 1.2825238636	-1.5706352304	-2.0156940276	 0.112188
H	 2.1857741369	-2.2992696156	-0.6735217529	 0.127235
H	 0.0548939576	-3.5794952095	-1.3369781505	 0.115335
H	 0.0789838921	-3.0829288736	 0.3673446705	 0.125123
H	-1.3054580147	-1.6039978847	-1.9356204421	 0.12127
H	-2.1160576178	-2.4387557498	-0.6072961332	 0.125798
H	-3.0738775187	-1.09033641	 0.5597082476	 0.075442
