18
gdb 106739	2.41533	1.49441	1.10973	3.0729	74.2	-0.2561	0.0156	0.2717	1137.6688	0.146661	-439.06041	-439.05156	-439.050616	-439.09404	33.084	
C	-0.1387121627	 1.4768635847	-0.0198778619	-0.487913
C	 0.053037909	 0.0011882139	 0.0552662826	 0.385897
C	 1.2076863631	-0.8396041154	-0.3675801426	-0.36949
C	 0.669824211	-0.9552976484	 1.0645017735	 0.107961
C	 1.4474500004	-0.866441703	 2.3489903819	-0.172914
O	 1.8238258362	-2.1573300084	 2.7931611325	-0.415046
C	-0.6432407135	-1.6494691535	 0.9781855046	 0.42704
N	-1.1543632988	-2.5903264044	 1.6354400158	-0.584389
O	-1.1585630629	-0.8316300912	-0.0156539164	-0.306533
H	 0.8121275687	 1.9897760253	 0.148980415	 0.135001
H	-0.5075975797	 1.7650145865	-1.0101547361	 0.143091
H	-0.8602688018	 1.8178661473	 0.7280945162	 0.139969
H	 1.0662002417	-1.6437253899	-1.0832736333	 0.130637
H	 2.1652271087	-0.3289681484	-0.4281162937	 0.126722
H	 2.3708446752	-0.2947609853	 2.2106800936	 0.107333
H	 0.8441831214	-0.3445777306	 3.1088026296	 0.09685
H	 1.0115783396	-2.6795705075	 2.8463739342	 0.303105
H	-2.1171154756	-2.7810567518	 1.3551585644	 0.23268
