18
gdb 47531	2.68906	1.77514	1.3083	3.1723	71.36	-0.2227	0.001	0.2237	987.3175	0.150648	-439.079214	-439.072075	-439.071131	-439.11079	28.299	
O	 0.0202784072	-0.010032021	-0.2783869827	-0.315273
C	 0.0075898387	 1.1539213608	 0.0163733346	 0.387488
O	-1.1977564097	 1.7564885311	 0.2342681441	-0.231882
C	-1.3668311308	 2.8982737576	 1.0894666293	-0.086658
C	-0.647509489	 4.1899101191	 0.6678341641	-0.180955
N	 0.7873256119	 4.0915881697	 0.396234988	-0.098986
C	 1.0629382104	 3.2922786037	-0.8404310652	-0.181754
C	 1.2642824652	 2.0075404336	 0.0095340407	-0.130078
C	 1.4556560086	 3.0053023018	 1.1837163171	-0.208488
H	-2.4452264402	 3.0785138755	 1.0918733307	 0.126454
H	-1.0898998021	 2.6131376516	 2.110698846	 0.118255
H	-1.1227273031	 4.6065598799	-0.2266927311	 0.118899
H	-0.8122222698	 4.9116204835	 1.479764771	 0.110965
H	 0.2617182697	 3.2879852382	-1.5835317684	 0.120172
H	 1.9919147915	 3.6293162365	-1.3108060324	 0.115354
H	 2.0977261814	 1.3490953536	-0.2354013384	 0.103065
H	 2.5139995546	 3.2452379242	 1.3242737664	 0.118569
H	 1.0249145155	 2.7739440106	 2.1596735163	 0.114852
