27
gdb 123141	5.44075	0.45086	0.43084	0.8894	95.03	-0.2452	0.0879	0.3331	2692.1826	0.249053	-390.704888	-390.692603	-390.691659	-390.744165	43.18	
C	-0.0968837551	 1.5375410818	-0.046698805	-0.379954
C	 0.1155045767	 0.0215177276	-0.0611462893	-0.162372
C	 0.6505941774	-0.5250509137	 1.2670679023	-0.162001
C	 0.8620784525	-2.0417959513	 1.2557753545	-0.191979
C	 1.399318215	-2.5750758198	 2.5782252072	-0.061629
O	 1.5440733905	-3.9755995596	 2.4694187345	-0.258992
C	 2.2160431748	-4.6091026844	 3.5509338423	 0.163258
C	 1.3425481976	-4.6876221119	 4.8076375726	-0.392487
C	 2.6232155217	-5.9918278278	 3.052552903	-0.386563
H	 0.8402823992	 2.0669189514	 0.1590853627	 0.112572
H	-0.4778755028	 1.8977034789	-1.0075115899	 0.110856
H	-0.8161535185	 1.8294059279	 0.7267715935	 0.112656
H	-0.8310291657	-0.4798921499	-0.3023490611	 0.095291
H	 0.8119232581	-0.2443067732	-0.8672702906	 0.095195
H	 1.5983922819	-0.0229873323	 1.5077271487	 0.091361
H	-0.045713646	-0.2569325043	 2.0741567944	 0.091799
H	-0.0832226563	-2.5521336718	 1.0335115997	 0.102837
H	 1.5606569678	-2.3207518111	 0.4574848539	 0.100949
H	 2.3727080428	-2.1084690864	 2.8112718836	 0.078975
H	 0.7114964195	-2.305306946	 3.3962610334	 0.083772
H	 3.1265394126	-4.0313795605	 3.7888550156	 0.059685
H	 0.421686525	-5.2398053253	 4.5929994969	 0.120135
H	 1.8761593784	-5.2043108705	 5.6119096964	 0.112122
H	 1.0693542394	-3.6952135492	 5.1772675758	 0.115186
H	 3.24230526	-5.9065236412	 2.1557057151	 0.118755
H	 3.1877202385	-6.5304457087	 3.8195545464	 0.109331
H	 1.7349924247	-6.5798018186	 2.7997650032	 0.121241
