19
gdb 76324	2.14377	1.47592	1.26696	1.895	71.48	-0.2381	-0.0332	0.2049	1114.588	0.155535	-460.164937	-460.154782	-460.153838	-460.199454	37.187	
C	-0.1919212239	 1.4662551028	-0.1777730415	-0.410086
C	-0.0159379299	-0.037159362	-0.0199244626	-0.088613
C	 1.1330380694	-0.6364757035	-0.9387710517	 0.05082
O	 1.5600766924	 0.0323495785	-2.0855275486	-0.42996
C	 2.0084820937	-0.52159844	 0.3038646691	 0.284133
O	 3.1489887018	-0.1617288831	 0.4274148027	-0.320314
C	 0.7763005211	-0.5167964089	 1.2451977634	 0.295813
C	 0.8394643696	 0.3243526761	 2.5032551857	-0.466305
O	 0.3391658711	-1.8503915823	 1.5027304696	-0.474814
H	 0.753822347	 2.0055589859	-0.0545807802	 0.118196
H	-0.5633737213	 1.6954733311	-1.1798978407	 0.136459
H	-0.9022469796	 1.8624002405	 0.5536718325	 0.121408
H	-0.9638766145	-0.5691766333	-0.1189185199	 0.094745
H	 0.8903274168	-1.6760597493	-1.1792641198	 0.122409
H	 2.3645434248	 0.5134140314	-1.8538558321	 0.296218
H	 1.1282066317	 1.3552342887	 2.2851476061	 0.132122
H	-0.1316578649	 0.3264237708	 3.0072489564	 0.130406
H	 1.5863500076	-0.0841784149	 3.1935456123	 0.122178
H	 0.9500476471	-2.2448832086	 2.1358828393	 0.285185
