20
gdb 51819	3.96915	0.92904	0.82058	2.5671	81.68	-0.2087	-0.0267	0.182	1412.8055	0.170833	-403.151233	-403.142393	-403.141448	-403.185743	32.563	
O	 0.2165682577	-0.2129560955	 0.486390912	-0.23878
C	 0.097946937	 0.8642555113	-0.0384243109	 0.146214
C	 1.2166075228	 1.9036263039	-0.1142088827	-0.25674
N	 1.1478178224	 2.8548159961	-1.2028572286	-0.066408
C	 0.0932053617	 3.8598653983	-1.1183086503	-0.159649
C	 0.414763088	 5.0268633039	-2.0578052107	-0.250007
C	 0.7978063928	 4.5176621907	-3.4210465071	-0.048737
C	 1.1690990587	 3.2565000143	-3.625396827	-0.06074
C	 1.278472095	 2.2450839197	-2.5201376309	-0.191978
H	-0.8706650561	 1.1772330412	-0.4930656103	 0.08127
H	 1.1992520071	 2.4530853238	 0.8384798481	 0.128016
H	 2.1693187877	 1.3603911288	-0.1431043074	 0.127478
H	-0.9050945017	 3.4611154178	-1.378004544	 0.087681
H	 0.0370593585	 4.2099880474	-0.0819200071	 0.098979
H	-0.4547340534	 5.6919702101	-2.1297306952	 0.101334
H	 1.2318272917	 5.6285462378	-1.6372592603	 0.116037
H	 0.7579210374	 5.2164983454	-4.2523985357	 0.088258
H	 1.41614835	 2.9004968783	-4.6216002238	 0.091775
H	 2.2589432352	 1.7495762011	-2.5719508792	 0.1149
H	 0.5338360375	 1.4398462455	-2.6974079889	 0.091098
