17
gdb 66686	2.55352	1.98941	1.64089	0.9773	70.37	-0.2301	0.0678	0.2979	894.3601	0.135421	-421.738261	-421.730996	-421.730052	-421.769503	29.352	
C	-0.1100155998	 1.4289402274	 0.0009866037	-0.532442
C	 0.009094707	-0.0625753097	 0.0398397325	 0.247738
C	 0.2098192579	-1.072180835	-1.0869084304	-0.230319
C	 0.6263222838	-2.0986094777	 0.0090648056	-0.087188
C	 0.6267288242	-0.9969109977	 1.1157999415	 0.012013
O	-0.4653586909	-1.6236290514	 1.8383568705	-0.300587
C	-0.8377298406	-2.1865372738	 0.5577454837	-0.014207
C	-1.1298493443	-1.0025155202	-0.4056851844	 0.35656
O	-2.3181084761	-0.5642278093	-0.9399662794	-0.465054
H	 0.8621390541	 1.9160710246	-0.1305527534	 0.123541
H	-0.7552308626	 1.7399273639	-0.8274865127	 0.130719
H	-0.5503539433	 1.811312762	 0.9299979589	 0.123013
H	 0.4993791186	-0.9382851499	-2.1189846905	 0.099339
H	 1.3198142447	-2.9312137313	-0.070825385	 0.082988
H	 1.4534157233	-0.6777544619	 1.7503854925	 0.078292
H	-1.4850510923	-3.0610252662	 0.6101017663	 0.084307
H	-2.8127361735	-0.1058929139	-0.2497884592	 0.291284
