21
gdb 72220	3.18264	1.64126	1.33922	1.6202	81.25	-0.235	0.0817	0.3167	1029.177	0.184434	-387.078918	-387.071368	-387.070424	-387.11062	30.856	
C	 0.0144124527	 1.5648855191	 0.0203882494	-0.498787
C	-0.0093832617	 0.0534162326	 0.0112546517	 0.371812
C	 0.4428954142	-0.6619035765	-1.2993957684	-0.294514
C	-0.8348611317	-1.5590234818	-1.2877809007	-0.031997
C	-0.6460322656	-3.0021737248	-0.8382163563	-0.084836
O	-0.3107518725	-2.9524020396	 0.5477116795	-0.275454
C	-0.7229037649	-1.7119830607	 1.1127193421	 0.116453
C	 0.4415513688	-0.6971238357	 1.2929099582	-0.294334
C	-1.3210554669	-0.8236625143	-0.0126387761	-0.122572
H	 1.0460000072	 1.939156095	 0.0230285438	 0.117131
H	-0.4843398333	 1.9799379136	-0.8631430837	 0.110539
H	-0.4851558321	 1.9686709315	 0.9084384483	 0.111498
H	 0.4628037386	 0.0193244415	-2.1545413369	 0.096806
H	 1.4018588266	-1.1880522541	-1.255283745	 0.096941
H	-1.4577355338	-1.4752539403	-2.1798216415	 0.070912
H	-1.5730660792	-3.5790576576	-0.9863021561	 0.086861
H	 0.1634592475	-3.5196363508	-1.3663873374	 0.102566
H	-1.3335809631	-1.9061901871	 1.9990222948	 0.073875
H	 1.4469339618	-1.1271245093	 1.3110231341	 0.097412
H	 0.2993545344	-0.0787307884	 2.1853141032	 0.092174
H	-2.3385116969	-0.4438541023	 0.072882257	 0.057513
