23
gdb 59939	2.60442	0.95857	0.87251	1.0602	88.2	-0.261	0.039	0.3	1494.1529	0.201304	-388.264868	-388.253505	-388.252561	-388.301104	42.512	
C	 0.3938686361	-0.00153542	 1.5159192927	-0.394222
C	-0.0449919588	 0.0646008345	 0.0444364007	 0.027494
C	 1.0580185879	-0.4967224042	-0.8654326144	-0.388876
C	-1.3978496892	-0.6579693271	-0.1145643443	-0.193398
C	-2.179877529	-0.4721327932	-1.444848599	 0.133987
C	-2.4376631166	 1.0033612986	-1.7814243921	-0.398215
O	-1.4621663079	-0.9935723411	-2.5714011468	-0.437715
C	-3.4637725297	-1.1858649431	-1.3156074301	 0.334508
C	-4.4905027917	-1.8017293465	-1.2033999108	-0.486805
H	 1.3461024843	 0.5182703622	 1.6638155791	 0.109954
H	-0.3469574203	 0.4563540524	 2.1798725296	 0.108367
H	 0.531510938	-1.0410742837	 1.8374420981	 0.111443
H	-0.1872989412	 1.1240206497	-0.2052603303	 0.076102
H	 1.2385071839	-1.5560733632	-0.6418113729	 0.10049
H	 0.7903594038	-0.4193472653	-1.9197928344	 0.136569
H	 2.0004453387	 0.0369618882	-0.7012452096	 0.103126
H	-1.2499029895	-1.7367258962	 0.0359263311	 0.089645
H	-2.0687067637	-0.3364468772	 0.6914697355	 0.104348
H	-1.4914790725	 1.5118916236	-1.9792203724	 0.129463
H	-3.0599110052	 1.0726834276	-2.6758707762	 0.132751
H	-2.9487207396	 1.5048191448	-0.9560014367	 0.121869
H	-1.3949941397	-1.9481800589	-2.4583146944	 0.281938
H	-5.4035212981	-2.3369910119	-1.1133949624	 0.197175
