18
gdb 110918	2.43114	1.45835	1.17016	4.1083	72.38	-0.2253	-0.014	0.2113	1114.3098	0.146198	-439.020035	-439.011241	-439.010297	-439.054427	31.712	
C	-0.2969709658	 1.0712251078	 0.2459213959	-0.236516
O	 0.5669042679	 0.0171465759	-0.1488653195	-0.236506
C	 1.1104443846	-0.6755829854	 0.9233541136	 0.143117
C	 0.3034319074	-1.6030421479	 1.7829252546	-0.082311
N	-0.8152655429	-2.1457079782	 0.9846018067	-0.341102
C	 0.1695199171	-2.804853141	 0.0673581948	-0.072772
C	-0.0090391581	-2.4945238971	-1.4092681492	 0.169986
O	 0.7039932453	-2.9544263937	-2.2638304086	-0.262114
C	 1.3578078114	-2.1443142406	 0.7993612487	-0.163997
H	 0.2351926079	 1.8190393659	 0.8518448353	 0.104559
H	-0.6536840523	 1.5482746627	-0.6694040624	 0.130204
H	-1.1519646904	 0.6866371044	 0.8147578483	 0.128373
H	 1.8923407127	-0.1396163599	 1.4664930074	 0.093057
H	 0.275285607	-1.5661378819	 2.8658220498	 0.098252
H	-1.3242396034	-2.8460091296	 1.5129545551	 0.228366
H	 0.2042666565	-3.8922849037	 0.1919878996	 0.105185
H	-0.8598487125	-1.819187691	-1.6358551531	 0.088811
H	 2.3296504775	-2.6006082767	 0.9328273531	 0.105409
