22
gdb 102560	2.41446	1.16332	0.97395	3.5407	79.04	-0.239	0.0739	0.3129	1331.4631	0.193572	-441.445237	-441.435317	-441.434372	-441.480268	36.993	
C	-1.5083480135	 0.1855128544	 2.3774593486	-0.418074
C	-0.7113507546	-0.614690907	 1.3704019065	 0.023671
C	-0.2056359623	 0.0118957678	 0.1148523789	-0.250862
N	 0.7278474561	-0.4322591886	 1.1399480508	-0.087603
C	 1.5120151546	 0.5469303983	 1.8968487075	-0.025071
C	 2.1925743987	-0.2418733663	 3.0282099429	-0.073825
O	 2.9366869928	-1.3355825104	 2.501132132	-0.423797
C	 2.5420266872	 1.2485112028	 0.9935860629	-0.042832
O	 3.431063264	 0.3821252621	 0.3279577676	-0.428179
H	-1.2981695567	 1.2566144191	 2.3262158639	 0.125803
H	-2.5775232036	 0.0528061499	 2.1818632594	 0.128305
H	-1.3170635553	-0.1529265516	 3.4018522803	 0.125918
H	-1.0038107093	-1.6628922804	 1.3222387638	 0.093691
H	-0.1799859181	-0.5336485618	-0.8246790158	 0.121359
H	-0.3708189863	 1.0837761725	 0.0085572101	 0.110372
H	 0.8966032083	 1.3419285947	 2.3485374397	 0.060879
H	 2.8951647191	 0.3949176023	 3.5751570103	 0.11101
H	 1.4350478129	-0.5983783273	 3.7430210429	 0.093544
H	 2.3346376754	-1.73883562	 1.855452706	 0.292725
H	 2.017278181	 1.8196683271	 0.2182958272	 0.09795
H	 3.0779742793	 1.9820492201	 1.6224084886	 0.079081
H	 3.7040963404	-0.2846278775	 0.9744567655	 0.285935
