14
gdb 49969	2.13178	1.31671	0.9704	1.5858	66.04	-0.2714	-0.0817	0.1897	1188.6421	0.097554	-473.81491	-473.806115	-473.805171	-473.849174	30.093	
O	-0.3011888414	 0.819969599	 0.9904343189	-0.235853
C	 0.2907125404	 0.9059046661	-0.0527776385	 0.173083
C	 1.4835834588	 1.7928390109	-0.2351082361	-0.132008
N	 2.3620360143	 1.4919074565	-1.3460986851	-0.350268
C	 1.5946121215	 2.7306092309	-1.4487418501	 0.091376
C	 0.5145007395	 2.7831203129	-2.4850926069	 0.104302
O	-0.0386143309	 3.8057174726	-2.8009548005	-0.245759
C	 2.3178137884	 4.0144185942	-1.1440684614	 0.097728
O	 3.3895208047	 4.0188667545	-0.5884522579	-0.262477
H	 0.0077141825	 0.319039535	-0.9520716962	 0.100949
H	 1.8981951406	 2.2012618489	 0.6839837336	 0.143129
H	 3.3207145293	 1.7415714673	-1.096304908	 0.269117
H	 0.2779231461	 1.8058293054	-2.9536526126	 0.109765
H	 1.8091764662	 4.9347044259	-1.4782627792	 0.136915
