17
gdb 98952	3.39761	0.88526	0.70839	2.4841	73.17	-0.2579	-0.0977	0.1602	1545.7148	0.134483	-455.194162	-455.184537	-455.183593	-455.229709	33.319	
C	 0.0276295333	 1.4982912293	 0.2348282601	-0.368796
C	 0.3046560906	 0.0206631974	-0.0275290562	-0.27484
C	 0.7963216482	-0.2665842126	-1.4300539107	 0.394634
N	 0.9586113977	 0.6443620066	-2.2948907245	-0.493964
N	 1.0425757395	-1.6475567018	-1.6382074616	-0.376991
C	 1.4889415745	-2.2427344727	-2.77781511	 0.317717
O	 1.762635505	-1.7069411191	-3.83571726	-0.34178
C	 1.6364571102	-3.7610410521	-2.6260105886	 0.11021
O	 1.3829091633	-4.3497281725	-1.6071646349	-0.243832
H	 0.929851307	 2.0952960912	 0.0854030711	 0.137967
H	-0.7305602916	 1.879530871	-0.4525989462	 0.137945
H	-0.3233406711	 1.6411722805	 1.2607012631	 0.108511
H	 1.0512996077	-0.3629335975	 0.6823638697	 0.120527
H	-0.6008630224	-0.5777015166	 0.1472665162	 0.120489
H	 1.2946668664	 0.2609008837	-3.1786880056	 0.252475
H	 0.8777115198	-2.2907679492	-0.8729066019	 0.270798
H	 1.9990346619	-4.2515547757	-3.5495189999	 0.128931
