18
gdb 58614	2.3851	1.53188	1.07594	13.6173	70.22	-0.185	-0.0167	0.1684	1130.0996	0.146336	-476.169378	-476.160297	-476.159353	-476.203216	33.859	
C	 0.1111340463	 1.5136359027	 0.0385785156	-0.411939
C	-0.0265714906	 0.0060043419	-0.1441367598	-0.090139
N	 0.7621942811	-0.6649092434	 0.9971431261	-0.438939
H	-0.0073943499	-0.7853348514	 1.7111653804	 0.329717
H	 1.1411657603	-1.5755420542	 0.7451950264	 0.315582
H	 1.5121766992	-0.0730031716	 1.3502903922	 0.311027
C	-1.4596558513	-0.4922691049	 0.0179109131	 0.274414
C	-1.7534523646	-1.8552071214	 0.4769286737	-0.230134
O	-1.7468219933	-0.772906782	 1.4297628527	-0.298243
C	-2.5445227106	 0.1984035288	-0.9006156881	 0.319608
O	-2.0092533232	 0.8322751696	-1.8333416811	-0.48098
O	-3.7070791152	-0.0547273834	-0.5914864241	-0.449129
H	 1.1576613641	 1.8304251101	-0.0402244348	 0.102588
H	-0.4805681451	 1.9736129085	-0.7533851839	 0.218875
H	-0.2912636078	 1.8290374221	 1.0074794396	 0.134414
H	 0.4023522566	-0.319298021	-1.0915566413	 0.145415
H	-2.7490385521	-2.2235258448	 0.2457700426	 0.173947
H	-0.9851861141	-2.6167362256	 0.6307075208	 0.073914
