18
gdb 12731	2.62177	2.26423	1.88197	2.4666	66.93	-0.2446	0.0628	0.3074	830.7979	0.153818	-384.912528	-384.905031	-384.904087	-384.944032	29.169	
C	-0.3683379386	 1.3613916679	-0.0491404864	-0.489621
C	 0.1013623865	-0.0651829586	 0.0092553445	 0.410676
O	-0.9988334504	-1.0208705499	 0.0851501933	-0.340843
C	-0.443780003	-1.6304962253	 1.2823665174	-0.087227
C	 0.8386157426	-0.7976563718	 1.1778551652	-0.128546
C	 1.8624294359	-1.3740607369	 0.1640223467	-0.275674
C	 1.1514723608	-0.6076441614	-1.0059827935	 0.112307
O	 0.6176261244	-1.3428471175	-2.0680685361	-0.439007
H	 0.4840861508	 2.0483954375	-0.0419700781	 0.120028
H	-0.933223955	 1.530403101	-0.9728382528	 0.1369
H	-1.0185261427	 1.6011553073	 0.7976779368	 0.122901
H	-1.0712007113	-1.4083189885	 2.1543797651	 0.105924
H	-0.338022208	-2.7173836449	 1.1829706634	 0.104436
H	 1.2101573029	-0.3038056557	 2.0743822102	 0.076775
H	 2.8925830588	-1.053189637	 0.3350342376	 0.102813
H	 1.8487333114	-2.4626849839	 0.0600458443	 0.101133
H	 1.7825555441	 0.1800814572	-1.430216334	 0.081144
H	-0.199165599	-1.7308023195	-1.7188025836	 0.285882
