23
gdb 96590	2.48656	1.35866	0.99227	0.7077	82.13	-0.2541	0.089	0.3431	1279.4859	0.20757	-425.429097	-425.420134	-425.41919	-425.462426	34.841	
C	 0.3579814757	 1.7287720466	-0.0778064236	-0.404185
C	 0.0947740669	 0.2151997016	-0.035234658	 0.058034
C	 0.8009350338	-0.4520435752	-1.2339974816	-0.196757
C	 0.7253667652	-1.9796471044	-1.2684425126	-0.099025
O	-0.5883975909	-2.4054783089	-0.9025932334	-0.240392
C	-0.6191649434	-3.2787801327	 0.1936422418	-0.002291
O	 0.1075263516	-2.8277735987	 1.3000455843	-0.230815
C	-0.3079696944	-1.5816686787	 1.853559204	-0.076771
C	 0.4707977381	-0.355230098	 1.3517682233	-0.201225
H	 1.4147578554	 1.9510977879	 0.1136853066	 0.111281
H	 0.1043995996	 2.1497634032	-1.056547105	 0.109433
H	-0.233528939	 2.2566791489	 0.6775809499	 0.107695
H	-0.9823849053	 0.0582469686	-0.1699043921	 0.082819
H	 0.3552445399	-0.0459368549	-2.1501172879	 0.099518
H	 1.8605313246	-0.1607440725	-1.2529479653	 0.090846
H	 0.9491478578	-2.3530521452	-2.2761593305	 0.095499
H	 1.4574445631	-2.4093047937	-0.5784144768	 0.114353
H	-1.6865371271	-3.3986951659	 0.4300973651	 0.096853
H	-0.1757806124	-4.2553543659	-0.0495519488	 0.09557
H	-1.3866539882	-1.436212793	 1.6929813909	 0.094078
H	-0.1429620495	-1.6780663331	 2.9325225341	 0.102403
H	 1.5450766221	-0.5765151318	 1.4042549602	 0.10052
H	 0.2918640866	 0.4308730858	 2.0975229152	 0.092559
