18
gdb 90467	2.49409	1.4707	1.21217	0.9027	77.19	-0.226	0.0292	0.2552	1084.7158	0.14762	-401.886616	-401.878336	-401.877392	-401.919515	32.239	
O	-0.0019397925	 1.4251775359	 0.1045216254	-0.429697
C	 0.0351652371	 0.0125126328	 0.0421104311	 0.14411
C	-1.3913468744	-0.5493900534	-0.1117055164	-0.268009
C	-1.1677504887	-1.866879432	-0.8370865869	-0.036741
C	-1.0316133858	-1.8679783936	-2.3297665658	-0.199573
C	-1.395033658	-0.7294112385	-3.1203863755	 0.359172
C	-1.691803418	 0.2147578871	-3.8052137662	-0.463271
N	 0.1766252671	-1.8843373594	-1.4556808882	-0.12423
C	 0.7837939399	-0.5625525312	-1.1852732155	-0.213711
H	 0.8816662133	 1.7418832879	 0.3153192195	 0.285427
H	 0.4859372068	-0.4000276524	 0.9581256463	 0.072291
H	-1.8908664305	-0.6892470313	 0.8487663038	 0.106229
H	-1.9829359439	 0.1547574005	-0.705191983	 0.13266
H	-1.4809034459	-2.7905883946	-0.3575959067	 0.095393
H	-1.1699621621	-2.8199031776	-2.8383241627	 0.114806
H	-1.9606272848	 1.0466449769	-4.4081995844	 0.203038
H	 0.6716773536	 0.1257762559	-2.0300596844	 0.123034
H	 1.8513380767	-0.7081202328	-0.9949243305	 0.099071
