15
gdb 52642	2.62304	0.66978	0.56419	3.7372	82.62	-0.269	-0.0668	0.2022	1909.8586	0.108334	-420.563618	-420.552962	-420.552017	-420.602843	34.344	
C	-0.1170064414	 1.4722144556	-0.1465251243	-0.499661
C	-0.0252950166	 0.0225634307	-0.068869086	 0.060123
C	 0.0548378459	-1.1763371768	 0.0017919316	 0.09357
C	 0.109410132	-2.6414351158	 0.0762174086	-0.24288
O	-1.1693983347	-3.2392896036	 0.2423318086	-0.383659
C	 0.8185256809	-3.1761280345	-1.0987267434	 0.163911
C	 1.3596168485	-3.6275236053	-2.0795970282	-0.017447
C	 2.045656982	-4.1535312246	-3.2323174908	 0.027806
O	 1.4940570244	-4.6129848689	-4.2054162746	-0.226682
H	 0.6322494453	 1.9486660027	 0.4945209787	 0.15755
H	 0.0429193825	 1.8256826781	-1.1705880928	 0.15741
H	-1.1031704655	 1.8206188378	 0.1785222619	 0.158202
H	 0.6658983854	-2.9362642305	 0.9757164061	 0.15485
H	-1.7128722142	-2.9733355595	-0.509016622	 0.293682
H	 3.1511090355	-4.1043405454	-3.1606038631	 0.103226
