15
gdb 5761	6.12692	1.46283	1.30173	1.1129	68.01	-0.2258	0.0101	0.2359	935.5998	0.120854	-362.68516	-362.678548	-362.677604	-362.716769	24.613	
C	-0.1102307703	 1.4185573031	-0.1477833345	-0.255939
C	 1.2814980123	 0.9117393161	 0.0700923463	-0.255947
C	 0.1194252933	-0.0653700587	 0.0769809541	-0.122376
C	-0.2983968079	-0.666644479	 1.3473360171	 0.419773
N	-0.2932409585	-0.1435141566	 2.5359094251	-0.327687
C	-0.7878209275	-1.1460991358	 3.3604326525	-0.110623
C	-1.0696649395	-2.2371677565	 2.6143075238	-0.051537
O	-0.7590727451	-1.9440627216	 1.3123682583	-0.180204
H	-0.5823589212	 1.9567160833	 0.6656446782	 0.140444
H	-0.4039530194	 1.7301710333	-1.1437266028	 0.118243
H	 1.9610799155	 0.8689300502	-0.773479353	 0.118237
H	 1.7440343073	 1.1095246502	 1.0298460791	 0.140472
H	 0.0120529224	-0.7261848611	-0.7746003511	 0.103881
H	-0.9019976388	-1.0041015729	 4.4233523159	 0.12137
H	-1.4590735727	-3.2211680739	 2.807706511	 0.141895
