17
gdb 112993	3.69987	1.05631	0.869	3.5991	73.29	-0.2494	-0.0332	0.2162	1309.6828	0.135177	-455.14692	-455.137852	-455.136908	-455.181416	31.55	
C	-0.3702909301	 1.5556882763	 0.1458066435	-0.250881
O	-0.1532736274	 0.2522154098	-0.3784991566	-0.241143
C	-1.2026524077	-0.625902323	-0.1124750749	 0.029379
C	-0.9006034141	-2.0713544736	-0.604614715	-0.215489
N	-1.051685237	-2.5193931026	 0.7932720071	-0.10957
C	-0.9655861047	-3.7345831458	 1.4122609921	 0.139061
O	-1.0949902356	-3.8924094352	 2.6062922142	-0.302634
C	-1.2776672665	-1.2199827624	 1.3068771826	 0.387992
N	-1.4493186144	-0.7330897903	 2.45354494	-0.542554
H	 0.5049938192	 2.1502330209	-0.1229813495	 0.131032
H	-1.267093255	 2.014521048	-0.2971770567	 0.108858
H	-0.4841539893	 1.5347207637	 1.235269286	 0.153103
H	-2.1674839857	-0.2259517365	-0.457853543	 0.095971
H	-1.6264694649	-2.5061981292	-1.2952916173	 0.129208
H	 0.1151479999	-2.1746287622	-0.9927783783	 0.1416
H	-0.7669273402	-4.5600876738	 0.7015241534	 0.093106
H	-1.4068018964	-1.4625781742	 3.1680653425	 0.25296
