20
gdb 126160	3.75112	0.94312	0.91033	6.3738	79.55	-0.2449	0.024	0.2689	1385.5385	0.171873	-399.352751	-399.343635	-399.342691	-399.387583	33.071	
C	 0.0432682847	 1.5608726418	 0.0945243852	-0.392037
C	-0.0103612068	 0.0336701867	-0.0022752729	-0.17342
C	-1.4393910763	-0.5359896684	-0.0708932937	 0.017849
C	-2.2061620888	-0.1335208956	-1.3353737233	-0.392469
N	-1.412484507	-1.9967450371	 0.0714860235	-0.001002
C	-0.8850736449	-2.9326497615	-0.7745969661	 0.012348
N	-1.0410101319	-4.1420702842	-0.2965121274	-0.226165
N	-1.6942450208	-4.0193786287	 0.9128655219	-0.230105
C	-1.9012613526	-2.742052629	 1.107162446	 0.014931
H	 1.0755608917	 1.899098511	 0.2203633678	 0.127097
H	-0.3531388292	 2.0457116182	-0.8024352337	 0.125535
H	-0.5309538243	 1.9248038276	 0.9539697155	 0.120863
H	 0.551869379	-0.3047315243	-0.881565458	 0.107511
H	 0.4853973727	-0.407258394	 0.8696046222	 0.117427
H	-1.9939837405	-0.173801443	 0.8022962865	 0.100151
H	-1.6720919394	-0.4476400226	-2.2378077604	 0.127837
H	-3.1975865437	-0.59351641	-1.3474065389	 0.136747
H	-2.3318425714	 0.9509809241	-1.3786096395	 0.131534
H	-0.4080637684	-2.6867501284	-1.7100362247	 0.137863
H	-2.3928218719	-2.3022350327	 1.96163371	 0.137505
