16
gdb 76244	2.67562	1.34573	1.06007	3.8576	69.83	-0.2717	-0.0527	0.2191	1126.595	0.122271	-437.9002	-437.890979	-437.890035	-437.934498	32.574	
C	-0.1930978116	 1.4438442316	-0.1052154114	-0.407523
C	-0.0277997323	-0.0677099652	-0.0328756623	-0.081325
C	 1.1535900185	-0.6143241597	-0.9313091147	 0.060028
O	 1.5667191322	 0.0539681793	-2.0757606036	-0.418173
C	 2.0186993173	-0.5427291123	 0.3288112147	 0.33476
O	 3.1548329941	-0.2345330982	 0.518461404	-0.277128
C	 0.7504352392	-0.5842807742	 1.2377845909	-0.290387
C	 0.7433988121	 0.2000264665	 2.4525501528	 0.304422
N	 0.7391836418	 0.8467351017	 3.4108362097	-0.322598
H	 0.7447093928	 1.9681687285	 0.1103343595	 0.13126
H	-0.5172363993	 1.7350171219	-1.107623253	 0.139368
H	-0.934324266	 1.7920352471	 0.6184873727	 0.144938
H	-0.9773761342	-0.5789190195	-0.1951635997	 0.101239
H	 0.9479434094	-1.6591866202	-1.1951417278	 0.125298
H	 2.2120809816	 0.724609651	-1.8229955606	 0.30297
H	 0.4871562143	-1.6234947282	 1.4592497989	 0.15285
