15
gdb 35366	3.95317	1.49294	1.32634	2.2926	69.44	-0.2247	0.0337	0.2585	951.9217	0.11228	-420.527327	-420.520515	-420.519571	-420.558543	27.194	
C	 0.0086026798	-1.2168124086	-0.0354578153	-0.432942
C	 0.0097791041	-0.0182386944	 0.0343477021	 0.336209
C	 0.0087064404	 1.4366158928	 0.0533228164	-0.059768
O	-0.5930637596	 1.9347358791	 1.2677724581	-0.266783
C	 0.1688463453	 3.0417395599	 1.6848934454	 0.075653
C	 1.6518697947	 2.8281437032	 1.9330816945	 0.064723
O	 2.065767036	 1.6222395653	 1.2915008663	-0.287023
C	 1.4089475013	 2.0696379557	 0.0704213114	 0.051767
C	 1.1709328905	 3.4790796608	 0.6555064895	-0.217731
H	 0.0127975844	-2.2780177141	-0.0778422375	 0.200569
H	-0.5580989751	 1.8165374191	-0.8129790339	 0.101774
H	-0.3865312855	 3.7544432517	 2.2821837704	 0.114367
H	 2.2290656332	 3.1884124819	 2.776600863	 0.111651
H	 2.0177217437	 1.9192557132	-0.8206486514	 0.101242
H	 1.3066266067	 4.4462871942	 0.1922934411	 0.10629
