21
gdb 60840	2.25585	1.23516	1.0708	3.9832	78.95	-0.2372	-0.0124	0.2249	1256.7606	0.178902	-424.22349	-424.213018	-424.212074	-424.258916	38.166	
C	-0.5139593004	 1.2241658157	-0.0609113798	-0.408437
C	-0.0084439737	-0.2195093631	-0.053824125	-0.12481
C	 0.8073979165	-0.5512092593	-1.2942040535	 0.141824
O	 1.0676502008	 0.2262979072	-2.178010619	-0.25115
C	 0.7989658709	-0.5930598637	 1.1953648757	 0.320873
C	 2.0672808566	 0.2083017824	 1.4330136099	-0.469864
C	 0.017199571	-1.0475437282	 2.4192047131	-0.379838
C	 0.8132795663	-2.0423540655	 1.6111695935	 0.053503
O	 0.1492934954	-2.9585920867	 0.7865076393	-0.420375
H	 0.3123124614	 1.9367754427	-0.1231181667	 0.130418
H	-1.1538658676	 1.401188781	-0.9289561671	 0.125663
H	-1.0891142821	 1.4355428083	 0.8452371384	 0.109564
H	-0.8594476212	-0.9125316325	-0.0925315323	 0.102503
H	 1.1581797107	-1.6060558879	-1.3317851752	 0.094066
H	 1.8426673116	 1.2587088884	 1.6441541142	 0.127121
H	 2.6234186994	-0.1855490309	 2.289064595	 0.11441
H	 2.7311543601	 0.1788184326	 0.5616240456	 0.130277
H	 0.3767217851	-0.76502162	 3.4033975507	 0.111611
H	-1.0630282796	-1.09693152	 2.3271907511	 0.113507
H	 1.7406413518	-2.4183142891	 2.0441189134	 0.087926
H	-0.2858124731	-3.6086385215	 1.3480065885	 0.29121
